#------------------------------------------------------------------------------
#$Date: 2020-04-30 05:11:52 +0300 (Thu, 30 Apr 2020) $
#$Revision: 251303 $
#$URL: file:///home/coder/svn-repositories/cod/cif/2/02/21/2022101.cif $
#------------------------------------------------------------------------------
#
# This file is available in the Crystallography Open Database (COD),
# http://www.crystallography.net/. The original data for this entry
# were provided by IUCr Journals, http://journals.iucr.org/.
#
# The file may be used within the scientific community so long as
# proper attribution is given to the journal article from which the
# data were obtained.
#
data_2022101
loop_
_publ_author_name
'Twar\'og, Kamil'
'Ho\/ly\'nska, Ma\/lgorzata'
'Kochel, Andrzej'
_publ_section_title
;
 A new photoluminescent coordination polymer constructed with an N-donor
 ligand having extended coordination capabilities derived from quinoline
 and pyridine
;
_journal_coeditor_code           EF3006
_journal_issue                   5
_journal_name_full               'Acta Crystallographica Section C'
_journal_page_first              500
_journal_page_last               506
_journal_paper_doi               10.1107/S2053229620004593
_journal_volume                  76
_journal_year                    2020
_chemical_formula_iupac          '[Cu (C15 H9 N2 O2)2 (H2 O)2], 2 H2 O'
_chemical_formula_moiety         'C30 H22 Cu N4 O6, 2(H2 O1)'
_chemical_formula_sum            'C30 H26 Cu N4 O8'
_chemical_formula_weight         634.09
_chemical_name_systematic
<i>catena</i>-Poly[[diaquacopper(II)]-bis[\m-2-(pyridin-4-yl)quinoline-4-carboxylato]-\k^2^<i>N</i>^2^,<i>O</i>;\k^2^<i>O</i>,<i>N</i>]
_space_group_crystal_system      triclinic
_space_group_IT_number           2
_space_group_name_Hall           '-P 1'
_space_group_name_H-M_alt        'P -1'
_atom_sites_solution_hydrogens   mixed
_audit_creation_method           SHELXL-2016/6
_cell_angle_alpha                70.58(2)
_cell_angle_beta                 79.61(3)
_cell_angle_gamma                75.26(3)
_cell_formula_units_Z            1
_cell_length_a                   8.647(3)
_cell_length_b                   8.819(3)
_cell_length_c                   10.125(2)
_cell_measurement_reflns_used    3141
_cell_measurement_temperature    100(2)
_cell_measurement_theta_max      25.500
_cell_measurement_theta_min      2.145
_cell_volume                     700.3(4)
_computing_cell_refinement
;
CrysAlis PRO (Rigaku OD, 2017)
;
_computing_data_collection
;
CrysAlis PRO (Rigaku OD, 2017)
;
_computing_data_reduction
;
CrysAlis PRO (Rigaku OD, 2017)
;
_computing_publication_material
;
SHELXTL (Sheldrick, 2008)
;
_computing_structure_refinement
;
SHELXL2016 (Sheldrick, 2015)
;
_computing_structure_solution
;
SHELTL (Sheldrick, 2008)
;
_diffrn_ambient_temperature      100(2)
_diffrn_measured_fraction_theta_full 1.000
_diffrn_measured_fraction_theta_max 0.862
_diffrn_measurement_device_type  'Oxford Diffraction Xcalibur Ruby'
_diffrn_measurement_method       CCD
_diffrn_radiation_type           MoK\a
_diffrn_radiation_wavelength     0.71073
_diffrn_reflns_av_R_equivalents  0.0312
_diffrn_reflns_av_unetI/netI     0.0852
_diffrn_reflns_limit_h_max       11
_diffrn_reflns_limit_h_min       -10
_diffrn_reflns_limit_k_max       10
_diffrn_reflns_limit_k_min       -11
_diffrn_reflns_limit_l_max       11
_diffrn_reflns_limit_l_min       -13
_diffrn_reflns_number            4791
_diffrn_reflns_theta_full        25.500
_diffrn_reflns_theta_max         28.764
_diffrn_reflns_theta_min         2.145
_exptl_absorpt_coefficient_mu    0.840
_exptl_absorpt_correction_T_max  0.940
_exptl_absorpt_correction_T_min  0.867
_exptl_absorpt_correction_type   analytical
_exptl_absorpt_process_details
;
(CrysAlis PRO; Rigaku OD, 2017)
;
_exptl_crystal_colour            blue/green
_exptl_crystal_density_diffrn    1.503
_exptl_crystal_description       block
_exptl_crystal_F_000             327
_exptl_crystal_size_max          0.200
_exptl_crystal_size_mid          0.180
_exptl_crystal_size_min          0.150
_refine_diff_density_max         0.918
_refine_diff_density_min         -0.360
_refine_ls_extinction_method     none
_refine_ls_goodness_of_fit_ref   0.997
_refine_ls_hydrogen_treatment    constr
_refine_ls_matrix_type           full
_refine_ls_number_parameters     196
_refine_ls_number_reflns         3141
_refine_ls_number_restraints     0
_refine_ls_restrained_S_all      0.997
_refine_ls_R_factor_all          0.0793
_refine_ls_R_factor_gt           0.0533
_refine_ls_shift/su_max          0.000
_refine_ls_shift/su_mean         0.000
_refine_ls_structure_factor_coef Fsqd
_refine_ls_weighting_details
'w=1/[\s^2^(Fo^2^)+(0.0448P)^2^] where P=(Fo^2^+2Fc^2^)/3'
_refine_ls_weighting_scheme      calc
_refine_ls_wR_factor_gt          0.0984
_refine_ls_wR_factor_ref         0.1078
_reflns_number_gt                2397
_reflns_number_total             3141
_reflns_threshold_expression     'I > 2\s(I)'
_cod_data_source_file            ef3006sup1.cif
_cod_data_source_block           blue26ok
_cod_database_code               2022101
_shelx_space_group_comment
;
The symmetry employed for this shelxl refinement is uniquely defined
by the following loop, which should always be used as a source of
symmetry information in preference to the above space-group names.
They are only intended as comments.
;
_shelx_estimated_absorpt_t_min   0.850
_shelx_estimated_absorpt_t_max   0.884
_shelx_hkl_file
;
   0   0  -1 61.0026 19.7112   3
   0   0   1 68.9904 18.0286   3
   0   0   2 634.395 54.3483   3
   0   0  -2 601.611 48.6622   3
   0   0  -3 3057.76 112.689   3
   0   0   3 2822.43 117.855   3
   0   0   4 1651.28 107.031   3
   0   0  -4 1406.43 93.9560   1
   0   0  -4 1677.84 102.277   3
   0   0  -5 67.8709 48.1413   3
   0   0  -5 50.2811 50.7645   1
   0   0   5 113.282 56.4767   3
   0   0  -6 2153.23 137.622   1
   0   0  -7 5297.87 228.299   1
   0   0  -8 2333.67 169.489   1
   0   0  -9 904.018 124.293   1
   0   0  -9 979.177 138.091   2
   0   0 -10 925.624 129.353   1
   0   0 -10 1098.88 152.119   2
   0   0 -11 144.933 72.2181   1
   0   0 -11 163.978 99.3716   2
   0   0 -12 83.4916 89.7367   2
   0   1 -12 812.951 144.358   2
   0   1 -11-134.689 86.8564   1
   0   1 -11 72.7496 89.8948   2
   0   1 -10 490.328 113.354   2
   0   1 -10 499.419 103.297   1
   0   1  -9 748.293 113.198   1
   0   1  -9 803.925 124.282   2
   0   1  -8 3607.84 208.145   1
   0   1  -8 3336.58 212.439   2
   0  -1   7 6197.23 267.592   3
   0   1  -7 6419.15 270.048   2
   0  -1   6 2145.24 154.148   3
   0   1  -6 2059.67 145.330   2
   0  -1   5 364.934 73.7734   3
   0   1  -4-7.97275 43.7738   3
   0  -1   4 64.6163 57.2836   3
   0  -1   3 282.849 66.6416   3
   0   1  -3 218.842 54.3051   3
   0   1  -2 1241.44 70.1736   2
   0  -1   2 1366.68 90.7895   3
   0   1  -2 1456.75 86.3917   3
   0  -1   1 207.910 27.1258   2
   0   1  -1 258.518 43.5732   3
   0  -1   1 236.395 44.5553   3
   0   1  -1 258.685 30.2525   2
   0  -1   0 13989.3 154.590   1
   0   1   0 13959.0 151.548   1
   0  -1   0 14290.4 153.853   3
   0   1   0 13002.1 157.804   3
   0   1   1 28452.7 227.614   1
   0  -1  -1 27357.3 227.124   1
   0  -1  -2 4867.50 119.684   1
   0   1   2 5196.88 121.423   1
   0  -1  -3 4441.73 138.991   1
   0   1   3 4685.82 137.468   1
   0  -1  -3 4749.70 115.911   3
   0  -1  -4 17550.2 259.472   3
   0  -1  -4 17654.7 299.984   1
   0   1   4 18105.1 288.030   1
   0  -1  -5 5114.60 162.119   3
   0  -1  -5 5313.95 191.934   1
   0  -1  -6 1374.64 98.6598   3
   0  -1  -6 1450.30 117.848   1
   0  -1  -7 3005.79 176.435   1
   0  -1  -8 2485.58 168.653   1
   0  -1  -9 790.841 112.799   1
   0  -1 -10-264.858 111.503   1
   0  -1 -11 302.384 108.272   2
   0  -1 -11-101.666 103.623   1
   0  -1 -12 107.722 92.4492   2
   0  -1 -12-151.714 114.040   1
   0   2 -11 1418.22 169.850   2
   0   2 -11 1755.64 177.319   1
   0   2 -10 258.596 97.6994   1
   0   2 -10 20.2714 76.0932   2
   0  -2   9 727.922 131.796   3
   0   2  -9 813.378 120.371   2
   0   2  -9 1037.39 134.918   1
   0   2  -8 366.838 83.2727   2
   0  -2   8 500.859 114.950   3
   0   2  -7 861.956 106.496   2
   0  -2   7 911.851 126.981   3
   0  -2   6 5326.44 249.954   3
   0   2  -6 5560.37 227.473   2
   0   2  -5 8457.56 253.583   2
   0  -2   5 8538.79 290.005   3
   0   2  -4 10428.9 250.026   2
   0  -2   4 10549.9 300.507   3
   0   2  -3 5056.06 183.417   3
   0  -2   3 4772.72 188.183   3
   0   2  -3 4454.18 145.425   2
   0  -2   2 18.3019 59.0882   3
   0   2  -2 38.2101 47.2225   3
   0   2  -2 56.9078 33.9125   2
   0  -2   1 374.436 62.4403   3
   0  -2   1 379.642 36.3924   2
   0   2  -1 417.941 62.6386   3
   0   2  -1 419.893 39.8333   2
   0   2   0 21.0025 43.2951   3
   0   2   0 4.52439 26.1699   2
   0   2   0 12.9168 40.9827   1
   0  -2   0-42.0222 58.5553   1
   0  -2   0 22.9720 47.1912   3
   0  -2   0 17.6424 23.6077   2
   0  -2  -1 613.629 55.2243   3
   0  -2  -1 872.138 88.1357   1
   0   2   1 583.840 53.0921   3
   0   2   1 504.317 57.8492   1
   0  -2  -2 4792.65 141.463   1
   0   2   2 5439.83 151.748   1
   0  -2  -3 207.772 64.2538   1
   0   2   3 148.625 49.5139   1
   0  -2  -4 4839.04 170.042   1
   0   2   4 5258.36 168.704   1
   0   2   5 4707.40 178.250   1
   0  -2  -5 4271.34 176.974   1
   0  -2  -5 4235.80 137.165   3
   0  -2  -6 711.273 92.8406   1
   0  -2  -6 710.998 68.7269   3
   0   2   6 645.662 78.7697   1
   0  -2  -7 2962.22 170.750   1
   0  -2  -7 3033.45 142.096   3
   0  -2  -8 1256.41 128.608   1
   0  -2  -9 2655.18 185.030   1
   0  -2 -10-37.2649 74.2125   1
   0  -2 -11 58.0326 87.2266   1
   0  -2 -12 298.965 103.425   1
   0  -2 -12 253.239 117.084   2
   0   3 -10 437.014 122.962   1
   0   3 -10 217.584 84.9262   2
   0   3  -9 903.639 126.337   2
   0  -3   9 848.767 148.470   3
   0   3  -8 1272.42 133.473   2
   0  -3   8 1531.21 174.557   3
   0   3  -7 963.344 110.402   2
   0  -3   7 790.849 134.285   3
   0   3  -6 2679.31 159.639   2
   0  -3   6 2648.47 191.796   3
   0   3  -5 11343.2 293.830   2
   0  -3   5 11338.1 365.852   3
   0  -3   4 561.615 101.832   3
   0   3  -4 469.265 65.5137   2
   0   3  -3 2978.42 123.166   2
   0  -3   3 3047.80 173.120   3
   0   3  -2 11730.3 203.412   2
   0  -3   2 12617.8 316.092   3
   0  -3   2 12266.3 202.244   2
   0   3  -2 13116.1 302.766   3
   0   3  -1 4657.70 111.187   2
   0  -3   1 4882.99 183.551   3
   0   3  -1 4569.86 165.279   1
   0   3  -1 4871.02 179.337   3
   0  -3   1 4749.15 108.249   2
   0   3   0 1436.98 92.0910   3
   0  -3   0 1352.89 100.585   3
   0  -3   0 1373.61 59.7935   2
   0   3   0 1363.90 92.6362   1
   0   3   0 1343.82 61.4181   2
   0  -3  -1 28.5796 58.9752   1
   0   3   1 64.4940 43.1593   3
   0  -3  -1 16.7083 45.4830   3
   0  -3  -1 8.29882 30.5602   2
   0   3   1-1.07514 48.4900   1
   0  -3  -2 8800.94 182.445   3
   0   3   2 9122.58 219.343   1
   0  -3  -2 8541.84 226.941   1
   0  -3  -3 2998.38 107.928   3
   0   3   3 2931.36 136.557   1
   0  -3  -3 3230.64 146.638   1
   0   3   4 1925.63 117.390   1
   0  -3  -4 1859.36 127.827   1
   0   3   5 1616.30 114.632   1
   0  -3  -5 1403.54 119.098   1
   0  -3  -6 182.127 71.6213   1
   0  -3  -7 71.5869 40.8040   3
   0  -3  -7 57.9334 76.7101   1
   0  -3  -8 680.575 72.9647   3
   0  -3  -8 825.530 115.432   1
   0  -3  -9 2007.28 170.554   1
   0  -3 -10 4564.79 252.564   1
   0  -3 -11 254.630 108.321   1
   0  -3 -12 827.537 140.095   1
   0  -4  10 447.140 138.482   3
   0  -4   9 907.341 161.660   3
   0  -4   8 2017.58 207.001   3
   0   4  -8 1824.80 155.041   2
   0  -4   7 2572.81 219.302   3
   0   4  -7 2313.90 162.813   2
   0   4  -6 364.742 71.5777   2
   0  -4   6 444.300 114.505   3
   0   4  -5 1727.25 121.540   2
   0  -4   5 1763.98 174.604   3
   0  -4   4 304.974 85.9881   3
   0   4  -4 261.437 52.3960   2
   0  -4   3 179.580 83.3972   3
   0   4  -3 51.3906 34.0462   2
   0  -4   2 537.744 89.0742   3
   0   4  -2 446.670 48.7627   2
   0  -4   2 449.262 45.6098   2
   0   4  -1 14045.4 317.757   1
   0  -4   1 13433.5 196.795   2
   0  -4   1 13613.5 342.985   3
   0   4  -1 13193.1 202.813   2
   0  -4   0 111.284 59.3397   3
   0   4   0 177.244 63.0802   1
   0   4   0 34.8405 48.3048   3
   0  -4   0 129.414 34.5873   2
   0  -4  -1 6108.61 146.882   2
   0   4   1 6150.31 204.247   1
   0  -4  -1 6283.31 214.658   1
   0  -4  -1 5778.25 195.718   3
   0   4   1 5938.48 183.732   3
   0  -4  -2 12947.3 240.181   2
   0   4   2 13324.9 296.992   1
   0  -4  -2 13320.2 306.619   1
   0   4   2 13026.7 254.652   3
   0  -4  -2 12711.6 263.283   3
   0  -4  -3 9071.63 209.540   3
   0  -4  -3 9659.12 269.709   1
   0   4   3 9720.03 266.467   1
   0  -4  -4 4902.36 204.769   1
   0  -4  -4 4462.24 143.922   3
   0  -4  -5 302.893 80.7113   1
   0  -4  -6 92.0802 77.6763   1
   0  -4  -7 105.860 73.1423   1
   0  -4  -8 522.718 63.7480   3
   0  -4  -8 537.308 105.037   1
   0  -4  -9 1375.26 149.292   1
   0  -4 -10 851.820 137.494   1
   0  -4 -11 1406.61 171.008   1
   0  -4 -12 844.919 143.622   1
   0  -4 -13 413.028 116.626   1
   0  -5   9 473.523 146.531   3
   0  -5   8 1003.41 167.182   3
   0  -5   7 1623.72 189.483   3
   0  -5   6 3120.69 240.487   3
   0   5  -6 3314.21 175.818   2
   0   5  -5 1898.29 120.123   2
   0  -5   5 2452.03 205.205   3
   0  -5   4 435.645 107.329   3
   0   5  -4 301.026 52.0323   2
   0   5  -3 20.9971 37.7968   2
   0  -5   3-27.2196 75.1667   3
   0   5  -2 411.873 51.3217   2
   0  -5   2 297.959 85.8010   3
   0  -5   2 345.281 45.2225   2
   0  -5   1 2490.31 94.3959   2
   0   5  -1 2360.18 95.7093   2
   0  -5   1 2423.29 169.535   3
   0  -5   0 4050.98 194.984   3
   0  -5   0 3719.13 110.858   2
   0  -5  -1 4685.35 137.829   2
   0  -5  -1 4886.70 199.585   3
   0  -5  -1 4597.76 206.870   1
   0   5   2 585.207 74.3708   3
   0  -5  -2 600.761 63.8817   2
   0  -5  -2 502.158 93.7540   1
   0  -5  -2 511.378 77.4027   3
   0  -5  -3 197.318 55.2130   3
   0  -5  -3 180.623 77.7064   1
   0  -5  -4 8682.21 225.755   3
   0  -5  -4 8739.74 293.979   1
   0  -5  -5 468.200 97.0145   1
   0  -5  -5 492.503 64.0111   3
   0  -5  -6 3146.70 137.427   3
   0  -5  -6 3293.40 195.022   1
   0  -5  -7 1016.31 134.547   1
   0  -5  -8 266.696 90.7643   1
   0  -5  -9 64.7882 90.5896   1
   0  -5 -10 357.946 106.305   1
   0  -5 -11 388.198 112.465   1
   0  -5 -12 426.511 120.211   1
   0  -5 -13-215.341 116.058   1
   0  -6   7 1899.61 213.709   3
   0  -6   6 1383.68 180.332   3
   0  -6   5 465.118 118.202   3
   0  -6   4 232.103 104.356   3
   0   6  -4 317.553 62.4302   2
   0   6  -3 1286.34 88.8328   2
   0  -6   3 1180.69 152.481   3
   0  -6   2 1417.01 158.993   3
   0   6  -2 1453.13 84.3274   2
   0  -6   1 2295.17 180.415   3
   0  -6   1 2166.88 90.4084   2
   0  -6   0 1392.45 137.570   3
   0  -6   0 1451.21 79.0681   2
   0  -6  -1 1070.25 113.456   3
   0  -6  -1 1058.29 72.8717   2
   0  -6  -2 641.557 68.9012   2
   0  -6  -2 495.217 82.5209   3
   0  -6  -2 489.615 96.6332   1
   0  -6  -3 279.527 68.0940   3
   0  -6  -3 252.780 52.0820   2
   0  -6  -3 238.542 82.0317   1
   0  -6  -4 56.0813 51.4137   3
   0  -6  -4 135.535 84.2418   1
   0  -6  -5 1421.41 150.970   1
   0  -6  -5 855.569 90.1984   3
   0  -6  -6-112.779 90.0153   1
   0  -6  -6 7.08449 43.3196   3
   0  -6  -7 2272.86 184.499   1
   0  -6  -7 2147.25 121.139   3
   0  -6  -8 9376.03 247.567   3
   0  -6  -8 9612.37 372.430   1
   0  -6  -9 129.530 94.4458   1
   0  -6 -10 321.068 116.755   1
   0  -6 -11 170.249 101.712   1
   0  -6 -12 195.379 114.438   1
   0  -6 -13 240.343 117.331   1
   0  -7   6 1250.76 189.924   3
   0  -7   5 1220.96 176.302   3
   0  -7   4 954.848 153.040   3
   0  -7   3 375.053 116.881   3
   0  -7   2 23.4640 79.2232   3
   0  -7   1 188.973 91.9436   3
   0  -7   0 1645.85 169.103   3
   0  -7  -1 4176.24 140.964   2
   0  -7  -1 4299.16 238.383   3
   0  -7  -2 1472.99 149.839   1
   0  -7  -2 1357.41 138.626   3
   0  -7  -2 1379.79 92.6020   2
   0  -7  -3 1007.38 134.256   1
   0  -7  -3 991.890 109.167   3
   0  -7  -3 1102.88 92.3135   2
   0  -7  -4 78.2471 56.4182   3
   0  -7  -4 42.3760 81.5857   1
   0  -7  -5 135.528 91.4236   1
   0  -7  -5 64.6404 52.0058   3
   0  -7  -6 264.884 95.2239   1
   0  -7  -6 191.351 61.6551   3
   0  -7  -7 154.173 60.7749   3
   0  -7  -7 0.55613 88.0608   1
   0  -7  -8 392.139 115.661   1
   0  -7  -9 2085.23 202.846   1
   0  -7 -10 248.081 120.219   1
   0  -7 -11 2067.64 215.466   1
   0  -7 -12 173.724 116.241   1
   0  -8   5 446.941 131.067   3
   0  -8   4 1155.88 174.559   3
   0  -8   3 1400.44 181.411   3
   0  -8   2-38.6667 91.6436   3
   0  -8   1 766.793 134.884   3
   0  -8   0 572.585 122.900   3
   0  -8  -1 293.864 94.0934   3
   0  -8  -2 1139.86 141.502   3
   0  -8  -3 6038.70 307.207   1
   0  -8  -3 6326.76 272.422   3
   0  -8  -4 2259.48 165.533   3
   0  -8  -4 2268.45 196.427   1
   0  -8  -5 503.623 114.383   1
   0  -8  -5 537.038 84.7708   3
   0  -8  -6 96.4600 103.824   1
   0  -8  -6 53.3733 53.1146   3
   0  -8  -7 179.574 111.584   1
   0  -8  -7 41.7351 53.7336   3
   0  -8  -8 369.064 127.109   1
   0  -8  -9 333.601 133.723   1
   0  -8 -10 429.009 127.786   1
   0  -8 -11 320.701 116.573   1
   0  -9   3 1249.94 180.993   3
   0  -9   2 221.616 105.895   3
   0  -9   1 230.882 105.488   3
   0  -9   0 14.1722 91.2146   3
   0  -9  -1-31.1091 89.0653   3
   0  -9  -2 108.108 84.4791   3
   0  -9  -3 7181.09 324.566   3
   0  -9  -4 7.89653 94.4532   1
   0  -9  -4 117.545 76.5172   3
   0  -9  -5 935.766 152.105   1
   0  -9  -5 1350.38 134.010   3
   0  -9  -6 265.371 112.495   1
   0  -9  -6 203.144 72.7408   3
   0  -9  -7 355.937 118.875   1
   0  -9  -8 150.882 112.034   1
   0  -9  -9 286.439 134.490   1
   0  -9 -10 689.362 155.761   1
   0 -10   1 570.684 139.789   3
   0 -10   0 880.620 156.284   3
   0 -10  -1 236.225 102.497   3
   0 -10  -2 77.8365 91.2714   3
   0 -10  -3 76.3440 78.0825   3
   0 -10  -4 413.093 105.663   3
   0 -10  -5-61.2458 69.1547   3
   0 -10  -5-168.008 120.253   1
   0 -10  -6 184.092 111.528   1
   0 -10  -7 878.885 163.661   1
   0 -11  -1 388.442 125.063   3
   0 -11  -2 234.727 109.018   3
   0 -11  -3 551.814 118.245   3
   1 -11  -4 262.662 103.452   3
   1 -11  -3 56.0750 93.7287   3
   1 -11  -2 280.120 109.422   3
   1 -10  -6-26.4036 101.958   1
   1 -10  -5 162.327 94.1157   3
   1 -10  -4 827.712 136.662   3
   1 -10  -3 1601.23 178.426   3
   1 -10  -2 113.649 107.585   3
   1 -10  -1 471.064 130.513   3
   1 -10   0 251.267 120.582   3
   1  -9  -9 167.183 117.105   1
   1  -9  -8 278.482 118.878   1
   1  -9  -7-41.0001 98.5749   1
   1  -9  -6 737.257 140.049   1
   1  -9  -6 764.914 115.069   3
   1  -9  -5 44.1847 90.8157   1
   1  -9  -5 138.856 75.4390   3
   1  -9  -4 949.771 130.523   3
   1  -9  -3 3.79824 73.9968   3
   1  -9  -2 2090.44 202.368   3
   1  -9  -1 575.402 128.221   3
   1  -9   0 992.259 160.152   3
   1  -9   1-79.2812 96.7472   3
   1  -9   2 92.6452 106.685   3
   1  -8 -11 285.476 122.711   1
   1  -8 -10 182.134 124.764   1
   1  -8  -9 1188.29 170.706   1
   1  -8  -8 242.184 116.193   1
   1  -8  -7 74.9765 90.6744   1
   1  -8  -7 139.199 74.3198   3
   1  -8  -6 27.2692 84.8866   1
   1  -8  -6 11.5404 58.5754   3
   1  -8  -5 738.364 110.454   3
   1  -8  -5 522.147 118.559   1
   1  -8  -4 1998.05 165.307   3
   1  -8  -4 1689.98 181.045   1
   1  -8  -3 50.5800 71.6026   3
   1  -8  -2 4455.98 259.291   3
   1  -8  -1 70.6017 80.3210   3
   1  -8   0 11.1795 80.4346   3
   1  -8   1 189.207 102.761   3
   1  -8   2 941.024 156.593   3
   1  -8   3 787.789 154.148   3
   1  -8   4 776.904 161.305   3
   1  -7 -12 324.115 118.346   1
   1  -7 -11 258.356 112.097   1
   1  -7 -10 525.875 126.260   1
   1  -7  -9 574.192 132.766   1
   1  -7  -8 694.411 137.079   1
   1  -7  -8 480.623 82.1177   3
   1  -7  -7 337.663 111.087   1
   1  -7  -7 254.977 69.9744   3
   1  -7  -6 828.997 106.464   3
   1  -7  -6 1143.08 143.770   1
   1  -7  -5 933.186 132.549   1
   1  -7  -5 1137.16 119.337   3
   1  -7  -4 599.006 100.290   3
   1  -7  -4 407.283 109.361   1
   1  -7  -3-4.59568 82.5158   1
   1  -7  -3 52.3967 64.4352   3
   1  -7  -2-27.6801 68.6938   3
   1  -7  -1 7596.94 313.193   3
   1  -7   0-14.0127 76.9569   3
   1  -7   1 492.427 116.940   3
   1  -7   2 1934.96 195.536   3
   1  -7   3 108.336 92.9069   3
   1  -7   4-2.19142 90.7495   3
   1  -7   5 1029.57 168.728   3
   1  -7   6 905.745 169.100   3
   1  -6 -12 187.301 104.482   1
   1  -6 -11 179.894 97.9094   1
   1  -6 -10 83.4168 93.9339   1
   1  -6  -9 2250.17 197.198   1
   1  -6  -8 663.939 122.370   1
   1  -6  -7 1487.52 123.285   3
   1  -6  -7 1638.44 165.198   1
   1  -6  -6 1302.71 158.097   1
   1  -6  -6 897.382 97.2871   3
   1  -6  -5 667.304 120.311   1
   1  -6  -5 444.763 85.2614   3
   1  -6  -4 30.4749 75.8977   1
   1  -6  -4 94.8702 69.4518   3
   1  -6  -3 77.6187 71.1959   1
   1  -6  -3 247.170 71.9611   3
   1  -6  -3 96.3637 37.4605   2
   1  -6  -2 1298.21 128.796   3
   1  -6  -2 1100.10 125.539   1
   1  -6  -2 1245.47 82.3265   2
   1  -6  -1 3411.69 105.706   2
   1  -6  -1 3507.91 204.311   3
   1  -6   0 4811.01 94.2640   2
   1  -6   0 5324.09 258.853   3
   1  -6   1 371.853 101.714   3
   1  -6   2 85.7640 80.9120   3
   1  -6   3 1456.02 164.398   3
   1  -6   4 195.085 98.6050   3
   1  -6   5 1362.62 181.075   3
   1  -6   6 1097.49 167.164   3
   1  -6   7 1111.16 176.623   3
   1  -5 -12 196.233 108.983   1
   1  -5 -11 145.062 103.218   1
   1  -5 -10 226.256 94.3507   1
   1  -5  -9 3470.54 223.466   1
   1  -5  -8 130.029 94.1625   1
   1  -5  -7 4293.40 226.875   1
   1  -5  -6-23.6424 75.6974   1
   1  -5  -5 766.766 89.6881   3
   1  -5  -5 965.595 130.156   1
   1  -5  -4 145.639 74.5098   1
   1  -5  -4 13.3063 47.6604   3
   1  -5  -3 1252.17 108.788   3
   1  -5  -3 1297.74 125.974   1
   1  -5  -2 2835.60 116.917   2
   1  -5  -2 2723.61 154.751   3
   1  -5  -2 2799.23 172.563   1
   1  -5  -1 2513.28 89.4725   2
   1  -5  -1 2463.53 161.613   3
   1  -5   0 3515.63 78.5153   2
   1  -5   0 3596.60 194.731   3
   1  -5   1 6198.35 261.532   3
   1  -5   2 589.620 107.376   3
  -1   5  -3 629.606 46.7660   2
   1  -5   3 699.475 120.616   3
   1  -5   4 93.7884 81.9498   3
  -1   5  -4-46.9809 37.8485   2
   1  -5   5 80.7904 89.2120   3
  -1   5  -5-5.64602 39.8198   2
   1  -5   6 945.086 152.610   3
   1  -5   7 2638.80 233.071   3
   1  -5   8 3943.09 294.502   3
   1  -4 -12 241.952 98.7386   1
   1  -4 -11 503.086 110.920   1
   1  -4 -10 800.724 125.737   1
   1  -4  -9 1741.72 156.165   1
   1  -4  -8 192.537 79.2536   1
   1  -4  -7 208.029 85.6410   1
   1  -4  -6 3408.61 185.376   1
   1  -4  -5 648.821 96.4441   1
   1  -4  -4 867.853 99.7325   1
   1  -4  -3 2844.62 142.020   3
   1  -4  -3 3175.36 173.556   1
   1  -4  -2 677.959 79.0011   3
  -1   4   2 730.521 89.8614   1
   1  -4  -2 765.499 92.4116   1
   1  -4  -1 6855.15 138.370   2
   1  -4  -1 6725.12 220.212   3
  -1   4   1 7083.42 224.809   3
   1  -4  -1 6937.03 233.117   1
  -1   4   0 10014.3 267.203   3
   1  -4   0 10396.7 293.598   3
   1  -4   0 9532.14 117.614   2
   1  -4   1 1103.75 114.753   3
   1  -4   2 1062.81 122.620   3
  -1   4  -2 871.074 42.2613   2
   1  -4   3 64.9098 68.0002   3
  -1   4  -3 145.741 31.7203   2
   1  -4   4 2335.51 177.120   3
  -1   4  -4 2396.99 109.775   2
  -1   4  -5 1576.26 105.609   2
   1  -4   5 1540.22 159.107   3
   1  -4   6 176.432 90.8673   3
  -1   4  -6 221.278 63.0101   2
  -1   4  -7 1701.67 136.360   2
   1  -4   7 1447.12 170.198   3
   1  -4   8 725.195 140.024   3
   1  -4   9 1093.21 167.557   3
   1  -4  10 55.7086 106.023   3
   1  -3 -12-81.0520 101.385   2
   1  -3 -11 672.011 132.449   1
   1  -3 -10 662.779 117.685   1
   1  -3  -9 1747.84 159.972   1
   1  -3  -8 2076.61 157.512   1
   1  -3  -7 1668.12 137.708   1
   1  -3  -6 657.608 96.2342   1
  -1   3   5 1154.71 97.0326   1
   1  -3  -5 1015.95 103.832   1
  -1   3   4 1063.18 92.1209   1
   1  -3  -4 972.804 94.3243   1
  -1   3   3 5304.52 176.865   1
   1  -3  -3 5026.05 182.275   1
  -1   3   2 11700.1 252.579   1
   1  -3  -2 11637.9 249.584   3
   1  -3  -2 11740.6 259.158   1
   1  -3  -1 221.891 56.7549   3
  -1   3   1 461.597 74.1051   1
   1  -3  -1 217.301 64.2478   1
   1  -3   0 65.2889 54.7267   3
  -1   3   0 70.4732 52.2514   1
  -1   3   0 68.4281 48.2289   3
   1  -3   1 928.616 97.7715   3
  -1   3  -1 1004.19 89.2527   3
   1  -3   2 7076.55 240.304   3
  -1   3  -2 6213.47 106.033   2
  -1   3  -2 7192.63 229.590   3
  -1   3  -3 6741.75 150.259   2
   1  -3   3 7174.62 258.809   3
   1  -3   4 2178.77 161.538   3
  -1   3  -4 2035.03 103.303   2
  -1   3  -5 374.797 59.5902   2
   1  -3   5 386.226 94.5081   3
   1  -3   6 1226.13 146.865   3
  -1   3  -6 1206.07 103.321   2
  -1   3  -7 806.327 96.0841   2
   1  -3   7 904.867 132.111   3
   1  -3   8 1156.57 150.720   3
  -1   3  -8 1070.66 122.816   2
  -1   3  -9 364.009 90.7307   2
   1  -3   9 444.425 118.428   3
   1  -3  10 879.633 156.074   3
  -1   3 -11 247.954 101.226   1
   1  -3  11 230.742 113.429   3
   1  -2 -12 637.902 148.635   2
   1  -2 -11 26.2586 88.7376   2
   1  -2 -11 348.015 105.956   1
   1  -2 -10 961.907 129.119   1
   1  -2  -9 151.589 79.3358   1
   1  -2  -8 129.155 67.1893   1
   1  -2  -7 1700.57 130.242   1
   1  -2  -6 5496.49 201.752   1
  -1   2   6 5727.68 199.814   1
   1  -2  -5 8001.66 224.214   1
  -1   2   5 8478.58 230.354   1
  -1   2   4 4326.85 151.893   1
   1  -2  -4 4154.68 155.248   1
   1  -2  -3-18.7203 50.2678   1
  -1   2   3 48.9194 47.0301   1
  -1   2   2 320.470 52.0419   1
   1  -2  -2 438.168 65.4649   1
   1  -2  -1 2929.75 117.408   1
   1  -2  -1 3318.09 124.077   3
  -1   2   1 3422.45 121.832   1
   1  -2   0 4899.54 155.457   3
  -1   2   0 4967.38 149.439   3
  -1   2   0 4819.99 148.872   1
   1  -2   1 3195.53 136.609   3
  -1   2  -1 3168.91 130.294   3
  -1   2  -2 404.803 63.7202   3
  -1   2  -2 345.260 34.5281   2
   1  -2   2 504.398 75.7094   3
  -1   2  -3 17626.6 251.265   2
   1  -2   3 18708.5 367.674   3
  -1   2  -3 19064.3 355.997   3
  -1   2  -4 20.1211 39.5719   2
   1  -2   4 7.37132 56.9217   3
  -1   2  -5 2243.54 126.894   2
   1  -2   5 2157.93 157.047   3
  -1   2  -6 851.766 95.0638   2
   1  -2   6 705.980 104.338   3
  -1   2  -7 1487.16 132.853   2
   1  -2   7 1414.03 148.157   3
  -1   2  -8-22.6095 61.7848   2
   1  -2   8 34.0281 71.0272   3
  -1   2  -9 2025.21 169.704   2
   1  -2   9 2003.74 190.764   3
  -1   2 -10 1078.16 145.015   1
   1  -2  10 1302.51 172.920   3
  -1   2 -10 1284.70 148.750   2
  -1   2 -11 1086.26 141.233   2
  -1   2 -11 900.688 143.141   1
   1  -1 -12 409.853 127.493   2
   1  -1 -11-24.1491 89.7091   2
   1  -1 -11-129.294 87.0260   1
   1  -1 -10 206.734 67.3277   1
   1  -1 -10 309.511 116.028   2
   1  -1  -9 40.4805 80.0326   2
   1  -1  -9-103.436 73.0664   1
   1  -1  -8 2431.49 152.976   1
   1  -1  -7 2757.35 152.316   1
   1  -1  -6 358.199 64.9343   3
   1  -1  -6 174.544 49.6169   1
   1  -1  -5 6511.80 201.936   3
   1  -1  -5 6123.79 186.827   1
   1  -1  -4 239.078 48.9200   1
  -1   1   4 201.201 46.0302   1
  -1   1   3 651.287 59.4496   1
   1  -1  -3 662.660 62.6538   1
   1  -1  -2 1906.49 77.8718   1
  -1   1   2 2068.87 81.0706   1
  -1   1   1 8860.04 142.022   1
   1  -1  -1 9031.75 143.113   1
   1  -1   0 9923.75 166.228   3
  -1   1  -1 5068.43 133.268   3
   1  -1   1 4984.56 139.519   3
   1  -1   2 11251.8 221.027   3
  -1   1  -2 11190.4 218.023   3
  -1   1  -3 4057.85 153.491   3
   1  -1   3 3981.20 157.798   3
   1  -1   4 2213.49 126.748   3
  -1   1  -4 2242.40 122.753   3
   1  -1   5 10.0416 56.2855   3
  -1   1  -5-6.17863 43.6284   3
   1  -1   6 66.1304 61.5876   3
   1  -1   7 7453.57 289.854   3
   1  -1   8 1731.94 156.310   3
  -1   1  -9 2881.13 207.481   1
   1  -1   9 3206.67 219.559   3
  -1   1  -9 3120.86 210.618   2
  -1   1 -10 1037.17 139.487   1
  -1   1 -10 1215.10 147.313   2
  -1   1 -11 992.756 144.582   1
  -1   1 -11 953.597 141.466   2
  -1   1 -12 88.9576 87.4889   1
  -1   1 -12 48.4799 79.9953   2
   1   0 -12 196.594 113.008   2
   1   0 -11 343.277 119.887   2
   1   0 -10 758.841 105.429   1
   1   0 -10 757.340 132.928   2
   1   0  -9 752.709 121.781   2
   1   0  -9 887.574 110.486   1
   1   0  -8 1988.58 146.572   1
   1   0  -8 2036.93 177.764   2
   1   0  -7 3045.63 166.732   1
   1   0  -7 3036.79 203.981   2
   1   0  -6 1679.62 140.145   2
   1   0  -6 1714.22 118.508   1
   1   0  -5 3247.84 140.111   1
   1   0  -5 3226.43 154.635   3
   1   0  -5 3209.27 172.202   2
   1   0  -4 153.373 50.2929   3
   1   0  -4 144.172 60.9522   2
   1   0  -4 145.239 46.2292   1
   1   0  -3 89.8868 49.3317   3
   1   0  -3 71.3502 38.3063   1
   1   0  -3 54.9599 53.6985   2
   1   0  -2 1285.31 83.2246   2
   1   0  -2 1391.79 56.0831   1
   1   0  -1 38901.5 302.366   2
  -1   0   1 39984.2 307.463   2
  -1   0   0 62.7779 20.8958   2
   1   0   0 77.2126 22.9685   2
  -1   0  -1 30256.4 223.244   2
  -1   0  -1 30806.6 225.425   3
   1   0   1 29818.5 223.434   3
  -1   0  -2 21738.7 234.271   3
   1   0   2 20865.0 234.136   3
   1   0   3 4104.02 129.657   3
  -1   0  -3 4118.62 121.935   3
   1   0   4 260.164 54.4310   3
  -1   0  -4 175.404 46.4850   3
  -1   0  -5 150.997 50.0261   3
   1   0   5 111.361 48.5984   3
  -1   0  -6 998.328 104.407   1
   1   0   6 1084.04 104.287   3
  -1   0  -6 1127.88 94.8593   3
  -1   0  -7 4087.96 212.066   1
   1   0   7 4186.17 201.143   3
   1   0   8 4020.47 208.556   3
  -1   0  -8 3825.09 223.162   1
  -1   0  -9 64.3299 72.8439   1
  -1   0 -10 383.672 100.977   1
  -1   0 -11 328.637 108.675   2
  -1   0 -11 349.236 102.421   1
  -1   0 -12 172.641 100.965   1
  -1   0 -12 45.9693 96.4238   2
   1   1 -11 238.877 106.166   2
   1   1 -10 583.500 131.997   2
   1   1 -10 859.637 125.889   1
   1   1  -9 268.878 99.4621   2
   1   1  -9 299.136 85.2903   1
   1   1  -8 2970.76 180.799   1
   1   1  -8 2755.03 211.752   2
   1   1  -7 2259.30 177.411   2
   1   1  -7 2299.16 147.758   1
   1   1  -6 4250.51 215.078   2
   1   1  -6 4403.38 183.812   1
   1   1  -5 4567.26 205.280   2
   1   1  -4 1143.84 102.020   2
  -1  -1   4 1157.55 106.511   3
   1   1  -4 1205.11 99.1814   3
  -1  -1   3 868.545 94.7313   3
   1   1  -3 810.090 81.3632   2
   1   1  -3 928.660 83.7294   3
  -1  -1   2 5182.33 164.677   3
   1   1  -2 5339.96 158.461   3
  -1  -1   2 5058.39 142.830   2
   1   1  -2 4899.46 146.623   2
   1   1  -1 6003.03 143.612   3
  -1  -1   1 5619.90 147.328   3
  -1  -1   1 5908.69 130.244   2
   1   1  -1 5533.83 134.334   2
   1   1   0 6085.60 89.4331   1
  -1  -1   0 5878.95 90.5645   1
   1   1   0 5659.33 109.254   3
  -1  -1   0 5858.41 117.260   2
   1   1   0 6201.98 118.056   2
   1   1   1 9829.42 158.609   2
  -1  -1  -1 10170.2 152.941   2
  -1  -1  -1 9892.16 145.989   1
   1   1   1 9967.01 146.483   1
  -1  -1  -2 4060.14 129.491   1
   1   1   2 4089.95 119.085   1
  -1  -1  -3 719.621 81.9768   1
   1   1   3 764.281 46.5158   3
  -1  -1  -3 779.748 45.6700   3
  -1  -1  -4 83.1459 33.5348   3
   1   1   4 79.5408 39.6005   3
  -1  -1  -4 38.0322 58.1026   1
  -1  -1  -5 5429.98 208.428   1
  -1  -1  -5 5461.02 156.468   3
   1   1   5 5565.17 163.394   3
  -1  -1  -6 3113.81 135.430   3
  -1  -1  -6 3284.90 179.044   1
   1   1   6 3013.87 141.184   3
  -1  -1  -7 1424.01 132.285   1
  -1  -1  -7 1272.07 98.2559   3
  -1  -1  -8 1168.73 132.115   1
  -1  -1  -9 1823.47 169.660   1
  -1  -1 -10 551.463 124.802   1
  -1  -1 -11 1185.46 157.274   1
  -1  -1 -12-102.430 102.841   1
  -1  -1 -13-259.809 125.570   1
   1   2 -11 105.720 90.9067   2
   1   2 -10 1562.98 154.919   1
   1   2 -10 1543.03 177.760   2
   1   2  -9 143.821 87.7041   2
   1   2  -9 75.1092 70.3402   1
   1   2  -8 31.9838 76.5559   2
   1   2  -8 45.6131 72.1693   1
   1   2  -7 2689.29 183.122   2
   1   2  -6 1129.32 118.600   2
  -1  -2   6 1049.68 130.124   3
   1   2  -5 1766.05 132.887   2
  -1  -2   5 1831.60 151.930   3
   1   2  -4 4798.78 191.202   2
  -1  -2   4 4946.87 217.624   3
  -1  -2   3 11989.3 304.470   3
   1   2  -3 12321.6 284.624   3
   1   2  -3 11900.5 262.415   2
   1   2  -2 9988.85 235.431   3
  -1  -2   2 9439.47 201.519   2
   1   2  -2 9281.50 209.789   2
  -1  -2   2 9404.74 248.247   3
  -1  -2   1 0.94784 50.7298   3
   1   2  -1-0.17171 42.3690   2
   1   2  -1 8.26205 34.8768   1
  -1  -2   1 16.5276 34.5725   2
   1   2  -1-7.02097 47.0694   3
   1   2   0 4312.99 121.105   2
  -1  -2   0 4536.43 123.771   1
   1   2   0 4201.07 123.497   3
  -1  -2   0 4258.29 115.066   2
  -1  -2   0 4317.58 127.628   3
   1   2   0 4165.31 111.452   1
   1   2   1 2710.20 105.932   1
   1   2   1 2377.38 73.3404   3
  -1  -2  -1 2468.00 106.489   1
  -1  -2  -1 2370.96 72.2794   3
   1   2   1 2401.22 98.4662   2
  -1  -2  -1 2405.14 97.4121   2
  -1  -2  -2 65378.0 499.803   1
   1   2   2 65934.1 501.111   1
   1   2   3 1208.84 88.5383   1
  -1  -2  -3 1146.82 95.9636   1
  -1  -2  -4 6030.59 106.232   3
   1   2   4 6540.78 196.642   1
  -1  -2  -4 6392.76 202.299   1
  -1  -2  -5 156.421 32.9456   3
  -1  -2  -5 10.3811 68.5676   1
   1   2   5 160.342 53.0747   1
  -1  -2  -6 317.518 46.0390   3
  -1  -2  -6 375.660 76.0333   1
  -1  -2  -7 49.9124 33.6601   3
  -1  -2  -7 88.8515 69.2117   1
  -1  -2  -8 2302.71 124.213   3
  -1  -2  -8 1989.35 160.499   1
  -1  -2  -9 1371.01 141.661   1
  -1  -2 -10 443.755 93.9310   1
  -1  -2 -11 633.958 118.877   1
  -1  -2 -12 571.986 132.200   1
  -1  -2 -13 346.306 121.016   1
   1   3 -11 322.775 99.9624   2
   1   3 -10 1576.06 184.487   2
   1   3  -9 405.097 112.676   2
  -1  -3   8 162.279 98.1699   3
   1   3  -8 72.6868 81.9492   2
  -1  -3   7 979.748 139.217   3
   1   3  -7 1259.68 144.790   2
   1   3  -6 12425.3 357.800   2
  -1  -3   6 12200.0 411.622   3
   1   3  -5 815.690 96.9297   2
  -1  -3   5 949.335 123.593   3
  -1  -3   4 3767.66 204.014   3
   1   3  -4 3266.56 161.391   2
   1   3  -3 3539.70 151.597   2
  -1  -3   3 3627.43 148.422   2
  -1  -3   3 3620.29 191.544   3
   1   3  -2-13.0756 45.1051   2
  -1  -3   2 5.02256 37.0692   2
   1   3  -2-88.0128 49.6163   1
  -1  -3   2 1.69011 63.6617   3
   1   3  -1 355.233 63.4246   3
  -1  -3   1 220.259 45.6468   2
   1   3  -1 278.382 52.8110   1
  -1  -3   1 193.974 67.1479   3
   1   3  -1 209.130 51.7319   2
   1   3   0 599.481 68.5625   1
   1   3   0 574.026 61.2780   2
  -1  -3   0 630.055 72.7918   1
  -1  -3   0 612.484 57.5716   2
  -1  -3   0 592.290 74.3400   3
   1   3   0 636.001 69.5996   3
   1   3   1 7782.68 181.201   2
  -1  -3  -1 7877.30 175.604   3
   1   3   1 8108.15 191.385   1
  -1  -3  -1 8133.05 175.607   2
  -1  -3  -1 8293.85 206.627   1
   1   3   1 7828.99 169.764   3
  -1  -3  -2 5703.39 161.876   2
  -1  -3  -2 5466.97 176.028   1
   1   3   2 5257.39 115.652   3
   1   3   2 5403.51 171.379   1
  -1  -3  -2 5321.03 119.326   3
  -1  -3  -3 3647.74 82.0851   3
   1   3   3 4143.79 157.265   1
  -1  -3  -3 3944.23 161.353   1
  -1  -3  -4 6000.48 216.769   1
   1   3   4 6473.53 206.338   1
  -1  -3  -5 2393.37 74.0965   3
  -1  -3  -5 2497.10 149.399   1
   1   3   5 2708.60 151.767   1
  -1  -3  -6 3169.60 102.088   3
  -1  -3  -6 3468.99 184.628   1
  -1  -3  -7 2267.52 163.810   1
  -1  -3  -7 2206.72 100.825   3
  -1  -3  -8-45.2878 36.5375   3
  -1  -3  -8-16.8055 80.3854   1
  -1  -3  -9 820.828 122.966   1
  -1  -3 -10 931.557 136.581   1
  -1  -3 -11 2387.50 206.639   1
  -1  -3 -12 399.905 120.989   1
  -1  -3 -13 464.129 122.348   1
   1   4  -9 116.008 74.9209   2
  -1  -4   8 1003.54 162.111   3
   1   4  -8 768.414 111.719   2
  -1  -4   7 693.228 138.213   3
   1   4  -7 539.887 92.5905   2
   1   4  -6 5338.02 238.635   2
  -1  -4   6 5367.75 293.467   3
  -1  -4   5 163.671 85.3118   3
   1   4  -5 202.385 63.7178   2
  -1  -4   4 1560.04 149.469   3
   1   4  -4 1537.85 116.220   2
   1   4  -3 665.825 78.5440   2
  -1  -4   3 686.249 73.8829   2
  -1  -4   3 719.605 111.935   3
  -1  -4   2 6245.04 179.829   2
  -1  -4   2 6642.89 252.984   3
   1   4  -2 6068.09 203.216   1
   1   4  -2 6176.46 187.124   2
   1   4  -1 1093.94 99.4200   3
  -1  -4   1 1032.54 107.507   3
  -1  -4   1 1075.21 73.2926   2
   1   4  -1 1172.92 99.2823   1
   1   4  -1 929.680 78.8841   2
  -1  -4   0 200.067 60.0190   1
  -1  -4   0 220.652 61.5575   3
   1   4   0 233.408 60.6206   1
  -1  -4   0 292.499 48.1359   2
   1   4   0 289.996 53.5878   2
   1   4   0 246.589 59.7133   3
   1   4   1 1521.07 107.120   1
   1   4   1 1341.75 88.6482   2
  -1  -4  -1 1424.30 98.7734   3
  -1  -4  -1 1574.28 89.2657   2
  -1  -4  -1 1465.90 116.644   1
   1   4   1 1517.46 95.8487   3
  -1  -4  -2 9784.81 208.915   3
   1   4   2 10132.7 255.428   1
   1   4   2 9754.81 200.012   3
  -1  -4  -2 10444.7 230.320   2
  -1  -4  -2 9625.12 264.785   1
  -1  -4  -3 9364.71 179.675   3
  -1  -4  -3 9927.62 246.037   2
  -1  -4  -3 9479.00 273.047   1
   1   4   3 10289.4 267.531   1
  -1  -4  -4 5025.47 117.084   3
  -1  -4  -4 5214.04 208.548   1
  -1  -4  -5 1736.51 68.6437   3
  -1  -4  -5 1852.01 142.314   1
  -1  -4  -6 253.092 91.7828   1
  -1  -4  -7 109.365 82.4049   1
  -1  -4  -7 86.2341 29.2465   3
  -1  -4  -8 234.593 100.062   1
  -1  -4  -8 123.438 35.1358   3
  -1  -4  -9 365.174 111.197   1
  -1  -4 -10 1276.45 157.372   1
  -1  -4 -11 1330.18 170.926   1
  -1  -4 -12 247.255 109.200   1
  -1  -4 -13 580.237 134.788   1
  -1  -5   8 107.683 105.599   3
  -1  -5   7 1170.36 174.557   3
   1   5  -7 1177.11 132.391   2
  -1  -5   6 1758.59 195.269   3
   1   5  -6 1744.30 144.468   2
   1   5  -5 3395.06 181.301   2
  -1  -5   5 3503.96 243.752   3
  -1  -5   4 914.697 131.244   3
   1   5  -4 900.500 96.7199   2
  -1  -5   3 1363.30 147.849   3
   1   5  -3 1583.92 113.666   2
  -1  -5   3 1445.87 98.8609   2
  -1  -5   2 433.484 57.0197   2
   1   5  -2 389.309 67.0849   2
  -1  -5   2 385.085 89.4670   3
   1   5  -1 128.673 48.0332   2
  -1  -5   1 38.8986 62.2413   3
  -1  -5   1 33.1533 33.9691   2
  -1  -5   0 1860.93 137.935   3
  -1  -5   0 1892.75 100.815   2
   1   5   0 1872.23 106.243   2
  -1  -5  -1 3245.28 171.147   1
  -1  -5  -1 3000.07 129.432   2
  -1  -5  -1 3096.26 161.820   3
   1   5   1 3356.94 154.321   3
  -1  -5  -2 842.642 79.9879   2
  -1  -5  -2 945.729 110.018   1
   1   5   2 757.759 76.6288   3
  -1  -5  -2 742.467 80.1408   3
  -1  -5  -3 3916.81 163.056   2
  -1  -5  -3 3707.19 186.716   1
  -1  -5  -3 3573.49 139.032   3
   1   5   3 3489.85 133.189   3
  -1  -5  -4 206.263 79.3581   1
  -1  -5  -4 153.276 40.4383   3
  -1  -5  -5 804.870 119.960   1
  -1  -5  -5 815.452 62.3483   3
  -1  -5  -6 2694.05 97.7096   3
  -1  -5  -6 3010.22 192.501   1
  -1  -5  -7 1014.59 134.933   1
  -1  -5  -7 890.314 59.0930   3
  -1  -5  -8 1040.26 137.706   1
  -1  -5  -9 258.214 103.054   1
  -1  -5 -10 350.292 111.576   1
  -1  -5 -11 453.701 134.820   1
  -1  -5 -12 409.189 130.178   1
  -1  -5 -13 170.815 109.279   1
  -1  -6   7 440.993 144.588   3
  -1  -6   6 625.929 142.648   3
  -1  -6   5 160.873 97.3200   3
   1   6  -5 88.1057 63.7969   2
  -1  -6   4 1807.65 196.091   3
   1   6  -4 1965.47 132.049   2
   1   6  -3 1786.98 121.699   2
  -1  -6   3 1877.33 177.152   3
  -1  -6   2 795.973 125.299   3
  -1  -6   2 819.612 74.3746   2
   1   6  -2 873.044 86.0603   2
   1   6  -1 2903.65 139.420   2
  -1  -6   1 3000.66 193.534   3
  -1  -6   1 3018.51 129.406   2
  -1  -6   0 645.739 99.1144   3
   1   6   0 583.272 68.4783   2
  -1  -6   0 664.085 69.0571   2
  -1  -6  -1 2598.17 168.186   1
  -1  -6  -1 2739.68 129.355   2
  -1  -6  -1 2746.30 170.560   3
  -1  -6  -2 38.5102 54.3674   3
  -1  -6  -2-32.5027 75.5843   1
  -1  -6  -2 21.9386 40.4097   2
  -1  -6  -3 100.514 51.1184   3
  -1  -6  -3 0.92581 44.0665   2
  -1  -6  -3 82.2903 75.2877   1
   1   6   3 114.562 50.7720   3
  -1  -6  -4 1623.28 150.687   1
  -1  -6  -4 1575.43 103.182   3
  -1  -6  -5 78.9655 36.8798   3
  -1  -6  -5 55.9515 77.1971   1
  -1  -6  -6 3232.06 217.014   1
  -1  -6  -6 3325.03 124.186   3
  -1  -6  -7 1600.24 165.736   1
  -1  -6  -7 1595.73 82.9357   3
  -1  -6  -8 75.3419 95.5497   1
  -1  -6  -8-0.79010 26.4765   3
  -1  -6  -9 156.109 104.651   1
  -1  -6 -10 699.022 133.377   1
  -1  -6 -11-19.0844 94.3232   1
  -1  -6 -12 45.8866 100.502   1
  -1  -6 -13 107.482 104.428   1
  -1  -7   6 166.296 114.306   3
  -1  -7   5 8.91332 94.6796   3
  -1  -7   4 511.431 122.979   3
  -1  -7   3 2411.21 212.887   3
   1   7  -3 2691.62 148.566   2
   1   7  -2 1767.58 118.400   2
  -1  -7   2 1517.15 174.416   3
  -1  -7   1 151.956 81.5417   3
   1   7  -1 169.344 52.1449   2
  -1  -7   0 954.163 123.823   3
  -1  -7   0 935.844 80.4160   2
  -1  -7  -1 35.7530 64.6459   3
  -1  -7  -1 103.789 45.4029   2
  -1  -7  -2 1338.48 147.434   1
  -1  -7  -2 1342.48 99.1827   2
  -1  -7  -2 1401.35 130.462   3
  -1  -7  -3 2648.86 192.284   1
  -1  -7  -3 2756.84 163.601   3
  -1  -7  -4 1080.42 137.270   1
  -1  -7  -4 1099.13 100.561   3
  -1  -7  -5 563.072 122.332   1
  -1  -7  -5 206.022 54.4712   3
  -1  -7  -6 1160.28 88.6428   3
  -1  -7  -6 1069.29 145.645   1
  -1  -7  -7 106.937 98.5116   1
  -1  -7  -7 69.2306 35.5531   3
  -1  -7  -8 1552.76 176.779   1
  -1  -7  -9 154.448 111.237   1
  -1  -7 -10 1221.01 172.644   1
  -1  -7 -11 342.534 121.382   1
  -1  -7 -12 289.542 130.308   1
  -1  -8   5 1276.56 194.618   3
  -1  -8   4 1332.58 178.280   3
  -1  -8   3 206.948 101.504   3
  -1  -8   2 1803.33 195.402   3
  -1  -8   1 159.506 94.9812   3
  -1  -8   0 3.08174 84.9950   3
  -1  -8  -1 1451.57 151.758   3
  -1  -8  -2 173.176 79.2788   3
  -1  -8  -2 108.053 81.7373   1
  -1  -8  -3 596.407 122.735   1
  -1  -8  -3 632.020 97.6447   3
  -1  -8  -4 1302.37 165.490   1
  -1  -8  -4 1498.61 133.352   3
  -1  -8  -5 2733.89 222.439   1
  -1  -8  -5 2363.58 151.417   3
  -1  -8  -6 1591.59 180.003   1
  -1  -8  -6 1342.73 109.747   3
  -1  -8  -7 198.812 116.713   1
  -1  -8  -8 2.64372 94.4102   1
  -1  -8  -9 8.83574 100.349   1
  -1  -8 -10 1576.18 197.907   1
  -1  -8 -11-55.3077 110.654   1
  -1  -9   3 649.746 155.322   3
  -1  -9   2 1136.65 170.093   3
  -1  -9   1 839.069 155.335   3
  -1  -9   0 271.201 100.440   3
  -1  -9  -1-4.92378 80.8638   3
  -1  -9  -2 2705.54 203.802   3
  -1  -9  -3-30.2085 96.9843   1
  -1  -9  -3-61.4235 75.7308   3
  -1  -9  -4 1831.56 188.741   1
  -1  -9  -4 1935.28 159.765   3
  -1  -9  -5 1211.77 125.639   3
  -1  -9  -5 1228.94 173.470   1
  -1  -9  -6 269.875 108.678   1
  -1  -9  -7 212.914 118.202   1
  -1  -9  -8 230.683 119.466   1
  -1  -9  -9 820.006 170.320   1
  -1  -9 -10 127.178 127.831   1
  -1 -10   1 656.122 152.502   3
  -1 -10   0 439.982 120.620   3
  -1 -10  -1 597.424 128.656   3
  -1 -10  -2 308.989 106.634   3
  -1 -10  -3 453.088 113.687   3
  -1 -10  -4 201.030 106.013   1
  -1 -10  -4 281.302 85.5322   3
  -1 -10  -5 1605.07 200.676   1
  -1 -10  -6 490.164 146.311   1
  -1 -10  -7-5.02059 109.536   1
  -1 -10  -8 6.48332 107.117   1
  -1 -11  -1 332.646 104.913   3
  -1 -11  -2 41.4757 80.5132   3
  -1 -11  -3 283.053 98.2522   3
   2 -10  -5 40.1908 80.3330   3
   2 -10  -4 300.495 116.713   3
   2 -10  -3 384.480 119.638   3
   2 -10  -2 930.660 160.451   3
   2 -10  -1 955.349 163.677   3
   2  -9  -9 121.513 97.0797   1
   2  -9  -8 72.7853 99.6841   1
   2  -9  -7 381.804 121.638   1
   2  -9  -6 73.2730 77.9082   3
   2  -9  -6-167.618 111.283   1
   2  -9  -5 100.535 79.6669   3
   2  -9  -4 95.1937 83.6867   3
   2  -9  -3 569.008 125.826   3
   2  -9  -2 1132.47 161.811   3
   2  -9  -1 442.342 116.446   3
   2  -9   0 771.910 151.274   3
   2  -9   1 638.307 146.271   3
   2  -9   2 562.181 147.457   3
   2  -8 -10 383.495 118.991   1
   2  -8  -9 210.051 104.534   1
   2  -8  -8 178.791 101.870   1
   2  -8  -7 468.394 117.544   1
   2  -8  -7 566.591 111.799   3
   2  -8  -6 2896.16 228.265   1
   2  -8  -6 2807.25 205.326   3
   2  -8  -5 142.017 81.7891   3
   2  -8  -5 67.4875 96.7910   1
   2  -8  -4 23.4238 82.3821   3
   2  -8  -3 386.084 105.298   3
   2  -8  -2-6.45536 78.2961   3
   2  -8  -1 492.072 117.343   3
   2  -8   0 1396.08 175.053   3
   2  -8   1 1737.42 196.345   3
   2  -8   2 564.719 132.727   3
   2  -8   3 595.540 141.477   3
   2  -8   4 210.048 117.829   3
   2  -7 -11 234.381 109.536   1
   2  -7 -10 352.934 113.521   1
   2  -7  -9 500.644 126.341   1
   2  -7  -8 159.848 102.191   1
   2  -7  -8 208.937 86.0375   3
   2  -7  -7 703.431 129.526   1
   2  -7  -7 633.311 102.125   3
   2  -7  -6 1597.86 167.812   1
   2  -7  -6 1516.28 145.859   3
   2  -7  -5 880.546 121.804   3
   2  -7  -5 731.658 119.978   1
   2  -7  -4 1870.45 175.282   1
   2  -7  -4 1739.53 160.295   3
   2  -7  -3 227.456 89.2902   3
   2  -7  -2 2509.60 195.962   3
   2  -7  -1 4077.28 248.406   3
   2  -7   0 777.930 125.321   3
   2  -7   1 2190.56 197.277   3
   2  -7   2 2518.17 225.679   3
   2  -7   3 987.718 165.628   3
   2  -7   4 624.751 144.925   3
   2  -7   5 121.054 106.528   3
   2  -6 -11 115.430 103.161   2
   2  -6 -11 262.715 112.108   1
   2  -6 -10 311.402 117.003   1
   2  -6  -9 474.413 113.593   1
   2  -6  -8 210.041 98.9761   1
   2  -6  -7 540.166 112.282   1
   2  -6  -7 300.328 85.7909   3
   2  -6  -6 1456.47 154.829   1
   2  -6  -6 1271.46 126.964   3
   2  -6  -5 920.876 117.919   3
   2  -6  -5 1066.20 130.824   1
   2  -6  -4 259.207 81.5272   3
   2  -6  -4 205.089 78.8217   1
   2  -6  -3 746.151 109.242   3
   2  -6  -3 573.587 103.869   1
   2  -6  -2 2431.72 103.733   2
   2  -6  -2 2297.29 174.219   3
   2  -6  -1 650.109 112.635   3
   2  -6  -1 546.666 35.6682   2
   2  -6  -1 510.362 35.3173   2
   2  -6   0 3372.10 215.513   3
   2  -6   1 243.097 84.8988   3
   2  -6   2 1794.13 178.679   3
   2  -6   3 8.02698 87.2254   3
   2  -6   4 1314.45 172.613   3
   2  -6   5 207.191 107.282   3
   2  -6   6 187.276 105.576   3
   2  -6   7 623.362 152.340   3
   2  -5 -11 77.9064 93.9538   2
   2  -5 -11 218.775 89.4531   1
   2  -5 -10 1014.38 137.827   1
   2  -5  -9 26.3900 77.0901   1
   2  -5  -8 9954.11 351.486   1
   2  -5  -7 640.820 120.250   1
   2  -5  -6 201.027 84.7286   1
   2  -5  -5 183.956 85.2032   1
   2  -5  -4 20.2709 60.4308   1
   2  -5  -4 69.3763 61.9815   3
   2  -5  -3 922.171 109.320   1
   2  -5  -3 881.718 106.416   3
   2  -5  -2 3637.21 194.408   3
   2  -5  -1 2559.66 81.5210   2
   2  -5  -1 2643.73 82.9741   2
   2  -5  -1 2817.56 178.463   3
   2  -5   0 5542.60 254.339   3
   2  -5   1 3213.22 200.565   3
   2  -5   2 1589.51 162.436   3
   2  -5   3 604.584 119.018   3
   2  -5   4 513.161 121.288   3
   2  -5   5 117.370 99.5442   3
   2  -5   6 361.335 114.240   3
   2  -5   7 858.426 150.734   3
   2  -5   8 16.7887 92.8569   3
   2  -4 -11 139.808 97.3779   2
   2  -4 -11 534.438 116.493   1
   2  -4 -10 293.464 100.630   1
   2  -4 -10 339.554 117.217   2
   2  -4  -9 194.324 78.9445   1
   2  -4  -8 487.935 97.2246   1
   2  -4  -7 11256.1 334.977   1
   2  -4  -6 129.820 68.7272   1
   2  -4  -5 659.319 100.841   1
   2  -4  -4 2839.63 164.483   1
   2  -4  -3 262.563 67.1880   1
   2  -4  -3 320.443 75.3611   3
   2  -4  -2-79.7005 70.9514   1
   2  -4  -2 19.7187 55.7154   3
   2  -4  -1 877.749 53.9307   2
   2  -4  -1 919.965 100.261   3
   2  -4   0 3924.36 193.831   3
   2  -4   1 2981.08 181.757   3
   2  -4   2 3183.96 192.226   3
   2  -4   3 1618.01 152.225   3
  -2   4  -4 1230.09 62.4155   2
   2  -4   4 1345.66 154.776   3
   2  -4   5 1251.86 149.067   3
  -2   4  -5 1217.14 80.0401   2
   2  -4   6 792.347 132.980   3
  -2   4  -6 895.299 83.6273   2
   2  -4   7 895.418 153.279   3
   2  -4   8 395.971 119.791   3
   2  -4   9 35.4232 95.3332   3
   2  -4  10 433.778 129.606   3
   2  -3 -11 441.717 129.427   2
   2  -3 -10-28.3214 63.7282   1
   2  -3 -10 82.4382 97.3772   2
   2  -3  -9 95.1161 92.7438   2
   2  -3  -9 96.8854 76.3915   1
   2  -3  -8 67.0328 72.4089   1
   2  -3  -7 3425.39 177.990   1
   2  -3  -6 2982.74 158.488   1
   2  -3  -5 6461.02 216.932   1
  -2   3   5 6508.23 210.188   1
  -2   3   4 2450.64 129.910   1
   2  -3  -4 2433.10 139.431   1
   2  -3  -3 8901.03 241.772   1
  -2   3   3 9249.36 237.020   1
   2  -3  -2 1871.81 114.580   1
  -2   3   2 1976.39 115.268   1
  -2   3   1 2106.92 122.886   1
   2  -3  -1 2090.97 81.4327   2
   2  -3  -1 2071.40 128.984   3
  -2   3   0 1464.70 106.865   1
   2  -3   0 1247.10 111.625   3
   2  -3   1 626.572 89.8876   3
   2  -3   2 608.555 91.7906   3
  -2   3  -3 256.536 28.7577   2
   2  -3   3 317.015 81.6072   3
  -2   3  -4 5214.82 137.943   2
   2  -3   4 4992.52 235.406   3
  -2   3  -5 3029.20 128.792   2
   2  -3   5 3156.98 204.184   3
   2  -3   6 1853.67 167.732   3
  -2   3  -6 1991.36 120.573   2
  -2   3  -7 307.899 65.4898   2
   2  -3   7 316.487 99.6106   3
  -2   3  -8 197.395 64.5600   2
   2  -3   8 241.306 95.9923   3
   2  -3   9 825.420 143.792   3
   2  -3  10 632.529 145.123   3
   2  -3  11-15.2952 95.1504   3
  -2   3 -11-271.824 125.426   1
   2  -2 -11 952.181 164.433   2
   2  -2 -10 746.979 115.003   1
   2  -2 -10 588.865 132.686   2
   2  -2  -9 38.8040 85.2847   2
   2  -2  -9 242.333 83.2700   1
   2  -2  -8 185.084 88.5657   2
   2  -2  -8 235.381 78.9369   1
   2  -2  -7 45.4232 78.0040   2
   2  -2  -7 105.771 60.0764   1
  -2   2   6 950.590 84.1249   1
   2  -2  -6 781.032 84.7152   1
   2  -2  -5 5753.00 183.324   1
  -2   2   5 5816.20 182.826   1
   2  -2  -4 4109.30 149.626   1
  -2   2   4 4272.08 147.611   1
  -2   2   3 12739.7 235.912   1
   2  -2  -3 12093.7 236.257   1
   2  -2  -3 12636.1 281.543   2
   2  -2  -2-18.4632 48.9101   1
   2  -2  -2-20.1511 45.3829   2
  -2   2   2-9.45805 41.0748   1
  -2   2   1 86.4613 44.5808   1
   2  -2  -1 28.0837 35.5100   2
   2  -2   0 5.72007 51.1780   3
   2  -2   0 83.7396 24.8637   2
  -2   2  -1 6649.79 199.707   3
   2  -2   1 6763.53 209.171   3
   2  -2   2 45494.0 565.104   3
  -2   2  -2 44888.5 520.581   3
  -2   2  -3-0.52771 49.8866   3
   2  -2   3 3.76040 54.9580   3
   2  -2   4 1615.61 134.744   3
   2  -2   5 16.9818 58.3188   3
   2  -2   6 83.1751 79.6573   3
   2  -2   7 159.041 86.7209   3
  -2   2  -8 3058.24 186.192   2
   2  -2   8 3048.78 215.082   3
  -2   2  -9 1435.73 146.076   2
   2  -2   9 1463.52 162.072   3
   2  -2  10 914.601 150.966   3
  -2   2 -10 1111.36 143.016   2
   2  -2  11 555.135 133.308   3
  -2   2 -11 502.666 118.409   1
   2  -1 -11 743.624 143.263   2
   2  -1 -10-46.5125 61.6096   1
   2  -1 -10 89.7975 98.4175   2
   2  -1  -9 2043.81 194.285   2
   2  -1  -9 2117.88 146.902   1
   2  -1  -8 133.612 61.9141   1
   2  -1  -8 63.1638 80.6591   2
   2  -1  -7 1186.19 141.647   2
   2  -1  -7 1306.11 104.097   1
   2  -1  -6 3796.04 148.983   1
   2  -1  -6 3874.02 219.056   2
  -2   1   5 9433.95 210.853   1
   2  -1  -5 9278.30 210.246   1
   2  -1  -5 9497.40 312.436   2
  -2   1   4 1287.08 77.2162   1
   2  -1  -4 1323.64 80.4648   1
   2  -1  -4 1252.85 111.472   2
   2  -1  -3 1634.97 113.214   2
   2  -1  -3 1736.92 78.9688   1
  -2   1   3 1926.68 79.9043   1
   2  -1  -2 900.209 56.9286   1
  -2   1   2 936.392 58.3263   1
   2  -1  -2 1004.66 83.8512   2
  -2   1   1 1325.95 66.8247   1
   2  -1  -1 1165.60 74.0819   2
  -2   1   1 1269.97 72.2801   2
   2  -1   0 3042.60 83.7012   2
  -2   1   0 2848.16 85.3596   2
   2  -1   1 21086.5 198.493   2
  -2   1  -1 20391.1 189.612   2
   2  -1   1 20935.7 303.477   3
  -2   1  -2 15485.9 269.181   3
  -2   1  -2 14768.7 187.620   2
   2  -1   2 15030.4 284.530   3
   2  -1   3 12237.1 276.651   3
  -2   1  -3 12755.5 265.504   3
  -2   1  -4 2760.14 136.709   3
   2  -1   4 2587.41 143.438   3
   2  -1   5 1617.37 127.270   3
   2  -1   6 1636.37 133.341   3
   2  -1   7 6721.27 273.488   3
   2  -1   8 2847.83 193.719   3
   2  -1   9 1458.80 154.521   3
  -2   1  -9 1447.19 162.835   1
  -2   1 -10 1286.42 163.251   1
   2  -1  10 1617.77 176.166   3
   2  -1  11 770.188 133.142   3
  -2   1 -11 691.667 122.342   2
  -2   1 -11 749.040 145.570   1
  -2   1 -12 825.994 153.004   1
  -2   1 -12 495.093 108.087   2
   2   0 -11 154.998 108.241   2
   2   0 -10 55.5202 88.1421   2
   2   0  -9 756.175 132.501   2
   2   0  -9 903.229 105.196   1
   2   0  -8 4235.03 258.383   2
   2   0  -8 4264.58 189.762   1
   2   0  -7 1626.24 155.526   2
   2   0  -7 1583.45 112.906   1
   2   0  -6 1131.39 137.200   2
   2   0  -6 1154.90 88.0878   1
   2   0  -5 161.861 68.6928   2
   2   0  -5 283.276 51.7132   1
   2   0  -4 11114.0 297.748   2
   2   0  -4 11247.2 187.827   1
   2   0  -3 7087.36 219.014   2
   2   0  -3 7196.44 119.562   1
   2   0  -2 500.604 74.9256   2
  -2   0   2 547.184 66.8130   2
  -2   0   2 555.509 29.0661   1
   2   0  -2 552.373 29.9705   1
  -2   0   1 1321.24 83.3484   2
  -2   0   1 1206.86 40.3603   1
   2   0  -1 1174.23 78.1638   2
   2   0   0 8016.05 155.918   2
  -2   0   0 7511.72 152.185   2
   2   0   1 626.587 55.4836   2
  -2   0  -1 512.921 47.0027   2
   2   0   2 9386.21 183.321   3
  -2   0  -2 9488.01 173.844   2
  -2   0  -2 9573.29 182.314   3
  -2   0  -3 7407.60 169.627   3
   2   0   3 7368.97 178.647   3
  -2   0  -4 7071.43 185.429   3
   2   0   4 7079.00 193.520   3
  -2   0  -5 3285.28 142.381   3
   2   0   5 3216.76 149.992   3
   2   0   6 1434.60 114.163   3
  -2   0  -6 1516.42 108.405   3
   2   0   7 1236.13 115.244   3
  -2   0  -8-65.2305 76.8075   1
   2   0   8-86.3627 67.2863   3
   2   0   9 2084.53 162.517   3
  -2   0  -9 1861.26 175.856   1
   2   0  10 35.2260 73.6120   3
  -2   0 -10 97.4822 83.0956   1
  -2   0 -11-45.9860 97.3300   1
  -2   0 -12 819.489 131.012   2
  -2   0 -12 1164.90 174.437   1
   2   1 -11 684.960 150.321   2
   2   1 -10 1151.14 161.985   2
   2   1  -9 159.514 98.6235   2
   2   1  -9 135.085 67.6463   1
   2   1  -8 949.412 101.289   1
   2   1  -8 763.686 123.522   2
   2   1  -7 345.827 87.0289   2
   2   1  -7 328.968 67.6513   1
   2   1  -6 1321.06 131.055   2
   2   1  -6 1267.63 96.7605   1
   2   1  -5 1177.87 119.201   2
   2   1  -5 1042.34 77.2705   1
   2   1  -4 244.172 40.9994   1
   2   1  -4 275.659 74.9370   2
   2   1  -3 34390.5 481.993   2
  -2  -1   3 35198.5 476.263   2
   2   1  -3 35096.9 482.739   3
   2   1  -2 251.139 55.3180   3
   2   1  -2 108.236 54.0955   2
  -2  -1   2 138.610 49.5219   2
   2   1  -1 12041.8 239.475   2
  -2  -1   1 12322.9 224.962   2
   2   1   0 29309.7 333.415   2
  -2  -1   0 28608.5 307.447   2
  -2  -1   0 27519.4 210.675   1
  -2  -1  -1 415.222 52.4610   1
   2   1   1 517.301 69.1775   2
  -2  -1  -1 346.024 52.1702   2
  -2  -1  -2 8519.89 184.432   2
  -2  -1  -2 8490.15 192.248   1
   2   1   3 26.5923 31.3167   3
  -2  -1  -3 48.9385 29.0508   3
  -2  -1  -3-3.36903 59.3306   1
  -2  -1  -4 1757.50 78.2700   3
  -2  -1  -4 1867.89 125.052   1
   2   1   4 1797.84 83.9983   3
  -2  -1  -5 5302.98 149.985   3
  -2  -1  -5 5477.86 218.075   1
   2   1   5 5177.36 157.623   3
   2   1   6 4833.22 165.599   3
  -2  -1  -6 4602.96 157.692   3
  -2  -1  -6 4886.76 230.149   1
  -2  -1  -7 2814.30 188.814   1
   2   1   7 2805.85 146.341   3
  -2  -1  -7 2628.70 131.767   3
   2   1   8 1622.24 122.367   3
  -2  -1  -8 1655.70 157.767   1
  -2  -1  -9 715.299 124.074   1
  -2  -1 -10 38.8148 90.8898   1
  -2  -1 -11 541.447 128.232   1
  -2  -1 -12 185.537 110.552   1
  -2  -1 -13 1102.56 164.245   1
   2   2 -11 399.702 131.118   2
   2   2 -10 704.986 141.367   2
   2   2  -9 711.271 133.072   2
   2   2  -8 966.828 137.780   2
   2   2  -8 848.310 99.6823   1
   2   2  -7 1767.11 165.548   2
   2   2  -7 1812.07 128.575   1
   2   2  -6 648.481 110.594   2
   2   2  -5 75.8849 72.1537   2
   2   2  -4 627.019 86.4351   2
   2   2  -3 5202.94 200.730   3
   2   2  -3 4798.03 191.901   2
  -2  -2   3 5204.63 190.183   2
   2   2  -2 5463.64 120.423   1
   2   2  -2 5849.93 193.190   3
   2   2  -2 6042.74 195.363   2
  -2  -2   2 6046.33 186.603   2
   2   2  -1 3290.66 133.442   2
  -2  -2   1 3572.62 138.573   2
   2   2  -1 3406.71 91.0055   1
   2   2  -1 3538.53 138.544   3
   2   2   0 1350.72 92.9069   2
  -2  -2   0 1345.80 84.0443   2
  -2  -2   0 1286.67 67.2269   1
   2   2   0 1290.44 65.2963   1
   2   2   0 1386.82 82.5875   3
   2   2   1 80678.0 581.425   2
  -2  -2  -1 82768.3 572.188   2
  -2  -2  -1 78095.7 515.084   1
   2   2   1 78683.9 454.100   3
   2   2   1 80346.9 506.603   1
  -2  -2  -2 47588.8 460.705   2
   2   2   2 47065.5 480.536   2
  -2  -2  -2 46659.0 458.580   1
   2   2   2 47397.6 444.676   1
  -2  -2  -3 17849.0 303.471   2
  -2  -2  -3 16928.3 316.356   1
   2   2   3 17488.7 299.227   1
   2   2   4 6141.33 200.292   1
  -2  -2  -4 6287.27 214.296   1
   2   2   4 5336.51 86.3690   3
   2   2   5 2603.82 83.4371   3
  -2  -2  -5 2554.37 160.447   1
  -2  -2  -5 2400.52 77.0515   3
  -2  -2  -6 744.189 105.300   1
  -2  -2  -6 653.922 53.2383   3
  -2  -2  -7 484.953 101.012   1
  -2  -2  -7 321.766 48.0568   3
  -2  -2  -8 386.018 94.7333   1
  -2  -2  -8 385.550 58.1740   3
  -2  -2  -9 178.685 94.8887   1
  -2  -2 -10 1262.35 155.459   1
  -2  -2 -11 1494.21 176.820   1
  -2  -2 -12 405.682 114.337   1
  -2  -2 -13 237.510 107.457   1
   2   3 -11 1183.29 165.658   2
   2   3 -10 113.355 89.2100   2
   2   3  -9 697.556 130.001   2
   2   3  -8-39.0033 83.8023   2
   2   3  -7 542.016 110.533   2
   2   3  -6 3824.42 216.794   2
  -2  -3   5 3259.97 209.995   3
   2   3  -5 2931.45 182.101   2
  -2  -3   4 5194.56 241.800   3
   2   3  -4 5035.93 214.994   2
  -2  -3   3 2590.17 168.290   3
   2   3  -3 2336.26 109.670   1
   2   3  -3 2584.87 150.154   2
  -2  -3   3 2469.68 136.492   2
   2   3  -2 43.8018 35.5623   1
  -2  -3   2 32.5213 44.3968   2
   2   3  -2 59.0554 50.7443   3
  -2  -3   2 34.9191 69.1673   3
   2   3  -2 35.7663 50.8949   2
   2   3  -1 1337.22 79.0777   1
   2   3  -1 1384.33 101.782   2
  -2  -3   1 1357.38 94.4846   2
  -2  -3   1 1369.98 110.420   3
   2   3  -1 1401.58 103.473   3
   2   3   0 1621.63 97.5766   3
  -2  -3   0 1412.04 91.9377   1
   2   3   0 1399.63 99.6124   2
   2   3   0 1457.24 84.3319   1
  -2  -3   0 1302.83 88.5110   2
  -2  -3   0 1394.37 96.4908   3
   2   3   1 8624.62 222.568   2
  -2  -3  -1 8895.36 207.803   2
  -2  -3  -1 8746.89 202.885   1
   2   3   1 8941.64 199.195   1
   2   3   1 8668.99 181.671   3
  -2  -3  -1 8543.62 187.419   3
   2   3   2 7719.20 214.795   2
  -2  -3  -2 8132.32 208.085   2
  -2  -3  -2 7781.89 208.142   1
  -2  -3  -2 7684.15 136.952   3
   2   3   2 8183.46 203.027   1
   2   3   2 7700.26 137.220   3
  -2  -3  -3 10720.3 252.789   2
  -2  -3  -3 10000.6 258.773   1
   2   3   3 10561.8 247.604   1
  -2  -3  -4 12660.8 313.354   1
   2   3   4 13702.3 309.414   1
  -2  -3  -5 6534.64 246.244   1
  -2  -3  -6 1161.39 46.1180   3
  -2  -3  -6 1417.18 134.428   1
  -2  -3  -7 2322.04 172.811   1
  -2  -3  -7 2258.05 83.6532   3
  -2  -3  -8 180.656 39.3747   3
  -2  -3  -8-2.38483 77.2021   1
  -2  -3  -9-38.1404 96.2266   1
  -2  -3 -10-174.385 100.057   1
  -2  -3 -11 162.070 91.6166   1
  -2  -3 -12 1414.17 186.184   1
  -2  -3 -13 759.025 154.848   1
   2   4 -10 607.226 132.239   2
   2   4  -9 38.5080 79.7135   2
   2   4  -8 230.430 90.6122   2
   2   4  -7 43.6035 77.1729   2
  -2  -4   6 118.985 98.3286   3
   2   4  -6 106.108 82.0977   2
   2   4  -5 13648.0 383.643   2
  -2  -4   5 13810.2 445.017   3
   2   4  -4 4313.25 202.732   2
  -2  -4   4 4291.55 247.864   3
   2   4  -3 2254.13 121.692   1
   2   4  -3 2434.57 144.658   2
  -2  -4   3 2514.46 176.007   3
  -2  -4   2 469.707 70.9679   2
   2   4  -2 512.905 71.0036   1
  -2  -4   2 389.071 85.3317   3
   2   4  -2 393.884 69.0792   2
  -2  -4   1 35.3287 44.8912   2
  -2  -4   1 67.2268 61.2804   3
   2   4  -1 21.3031 46.6685   1
   2   4  -1 42.6317 51.8079   2
   2   4   0 746.917 78.7238   1
   2   4   0 524.398 78.9522   2
   2   4   0 660.076 78.5834   3
  -2  -4   0 621.380 68.4457   2
  -2  -4   0 675.451 86.2703   3
  -2  -4   0 688.628 79.3063   1
  -2  -4  -1 9.77361 42.5553   3
   2   4   1 29.0719 49.5091   1
   2   4   1 10.0956 38.8864   3
  -2  -4  -1 138.294 61.3867   1
   2   4   1 56.6376 53.8802   2
  -2  -4  -1 75.4215 47.2698   2
  -2  -4  -2 913.150 84.0593   2
   2   4   2 835.513 87.4560   1
   2   4   2 700.209 82.0683   2
  -2  -4  -2 856.566 97.8903   1
   2   4   2 748.934 60.7026   3
  -2  -4  -2 738.755 63.9026   3
   2   4   3 1132.07 56.6634   3
  -2  -4  -3 1200.33 99.5244   2
  -2  -4  -3 1201.11 119.161   1
   2   4   3 1452.07 112.393   1
  -2  -4  -3 1251.06 60.2627   3
  -2  -4  -4 3562.01 185.048   1
  -2  -4  -5 7167.54 263.822   1
  -2  -4  -6 1884.00 158.185   1
  -2  -4  -7 318.675 94.4004   1
  -2  -4  -8 457.539 35.5305   3
  -2  -4  -8 667.679 116.707   1
  -2  -4  -9 459.723 114.315   1
  -2  -4 -10 1341.08 174.437   1
  -2  -4 -11-72.0721 95.2939   1
  -2  -4 -12 181.019 106.063   1
  -2  -4 -13 229.663 121.842   1
   2   5  -8 1444.11 161.389   2
   2   5  -7 387.288 103.039   2
  -2  -5   7 496.525 138.083   3
  -2  -5   6 64.6236 105.836   3
   2   5  -6 78.6614 75.2718   2
  -2  -5   5 350.914 112.969   3
   2   5  -5 583.403 99.6699   2
  -2  -5   4 10996.2 400.739   3
   2   5  -4 10359.3 313.187   2
  -2  -5   3 82.9997 84.5389   3
   2   5  -3 133.563 64.1949   2
   2   5  -2 6610.06 230.182   2
  -2  -5   2 7128.74 286.456   3
   2   5  -1 5952.27 208.828   2
  -2  -5   1 6317.00 206.636   2
  -2  -5   1 6205.80 255.995   3
  -2  -5   0 67.0230 58.0198   1
   2   5   0 258.573 63.5632   2
  -2  -5   0 304.218 57.4507   2
  -2  -5   0 177.438 61.7142   3
  -2  -5  -1 44.8552 62.6854   1
  -2  -5  -1 134.244 48.8289   2
  -2  -5  -1 76.4361 51.6911   3
   2   5   1 16.2058 42.2365   3
   2   5   1 58.0437 48.5317   2
   2   5   2 968.579 80.5698   3
  -2  -5  -2 992.872 85.6898   3
  -2  -5  -2 1002.06 88.3142   2
  -2  -5  -2 1127.14 119.387   1
  -2  -5  -3 6327.69 241.616   1
  -2  -5  -3 6337.91 168.334   3
   2   5   3 6233.41 161.385   3
  -2  -5  -3 6667.68 228.995   2
  -2  -5  -4 86.8883 90.8245   1
  -2  -5  -4 22.6537 25.5646   3
  -2  -5  -5 33.9372 13.8202   3
  -2  -5  -5-76.0811 78.6293   1
  -2  -5  -6 468.252 101.409   1
  -2  -5  -7 926.508 138.251   1
  -2  -5  -8 2280.56 196.237   1
  -2  -5  -9 1378.24 162.520   1
  -2  -5 -10 805.301 149.017   1
  -2  -5 -11 424.667 123.946   1
  -2  -5 -12 100.207 105.600   1
  -2  -5 -13 1002.76 170.289   1
  -2  -6   7 411.278 136.770   3
   2   6  -6 111.687 82.9611   2
  -2  -6   6 266.951 119.783   3
  -2  -6   5 2.57706 89.6472   3
   2   6  -5 71.4249 73.7865   2
   2   6  -4 1720.27 139.475   2
  -2  -6   4 1774.13 186.432   3
  -2  -6   3 141.368 89.9438   3
   2   6  -3 123.443 63.0299   2
  -2  -6   2 951.851 138.514   3
   2   6  -2 844.280 100.245   2
   2   6  -1 1974.43 133.101   2
  -2  -6   1 1849.74 157.369   3
   2   6   0 10069.5 283.298   2
  -2  -6   0 10451.3 265.272   2
  -2  -6   0 9620.23 324.624   3
  -2  -6  -1 37.3201 55.1973   3
  -2  -6  -1-75.0781 73.8004   1
   2   6   1 3.19610 53.6045   2
  -2  -6  -1 20.3222 44.4586   2
  -2  -6  -2 658.002 82.3034   3
  -2  -6  -2 719.177 105.259   1
   2   6   2 692.155 78.5198   3
   2   6   3 484.754 62.9685   3
  -2  -6  -3 688.247 116.187   1
  -2  -6  -3 565.832 68.7626   3
   2   6   4 1781.36 95.9243   3
  -2  -6  -4 1552.23 148.036   1
  -2  -6  -4 1794.17 99.0371   3
  -2  -6  -5 2483.60 182.983   1
  -2  -6  -5 2287.16 91.9741   3
  -2  -6  -6 768.319 43.3769   3
  -2  -6  -6 884.890 131.483   1
  -2  -6  -7 1267.48 151.136   1
  -2  -6  -8-34.2362 93.1560   1
  -2  -6  -9 112.899 102.214   1
  -2  -6 -10 244.330 108.132   1
  -2  -6 -11 202.683 114.163   1
  -2  -6 -12 575.526 145.189   1
  -2  -7   6 270.339 127.120   3
  -2  -7   5 162.861 107.486   3
  -2  -7   4 195.016 104.629   3
   2   7  -4 229.070 75.0527   2
   2   7  -3 1541.01 129.848   2
  -2  -7   3 1683.80 186.535   3
   2   7  -2 2274.77 148.987   2
  -2  -7   2 2290.26 196.129   3
   2   7  -1 1264.10 113.345   2
  -2  -7   1 1283.42 150.583   3
   2   7   0 1166.05 108.350   2
  -2  -7   0 1111.87 134.177   3
  -2  -7  -1 216.535 84.0322   1
  -2  -7  -1 260.309 73.5908   3
   2   7   1 237.352 58.9761   2
  -2  -7  -2-46.1847 67.4662   3
  -2  -7  -2 76.5835 80.7741   1
  -2  -7  -3 115.755 55.5517   3
  -2  -7  -3 165.131 88.7410   1
  -2  -7  -4 1943.44 170.455   1
   2   7   4 1745.13 106.801   3
  -2  -7  -4 1791.18 118.570   3
  -2  -7  -5 8490.86 340.571   1
  -2  -7  -5 8376.05 212.528   3
  -2  -7  -6 267.730 40.3744   3
  -2  -7  -6 288.362 106.332   1
  -2  -7  -7 2890.48 225.839   1
  -2  -7  -8 413.440 123.836   1
  -2  -7  -9 173.292 111.303   1
  -2  -7 -10 254.411 113.557   1
  -2  -7 -11 194.891 115.340   1
  -2  -7 -12 28.6912 110.991   1
  -2  -8   5 480.233 129.026   3
  -2  -8   4 379.313 124.066   3
  -2  -8   3 818.994 148.419   3
   2   8  -2 1801.80 142.433   2
  -2  -8   2 1956.12 200.943   3
  -2  -8   1 680.249 127.629   3
   2   8  -1 684.801 93.5845   2
  -2  -8   0 979.834 135.324   3
   2   8   0 922.213 105.003   2
  -2  -8  -1 304.876 93.0396   3
  -2  -8  -2 66.3484 64.0858   3
  -2  -8  -2-13.8601 82.9018   1
  -2  -8  -3 58.1437 60.5003   3
  -2  -8  -3-31.2311 82.8856   1
  -2  -8  -4 164.845 61.6580   3
  -2  -8  -4 51.5285 81.7135   1
  -2  -8  -5 638.634 78.7583   3
  -2  -8  -5 675.096 131.704   1
  -2  -8  -6 1089.63 161.554   1
  -2  -8  -6 1350.34 94.8264   3
  -2  -8  -7 356.454 118.532   1
  -2  -8  -8 2609.95 234.889   1
  -2  -8  -9 1319.54 178.708   1
  -2  -8 -10 1159.83 183.244   1
  -2  -8 -11 597.875 159.890   1
  -2  -9   3 145.769 106.296   3
  -2  -9   2 188.286 108.418   3
  -2  -9   1 323.473 101.803   3
  -2  -9   0 1039.40 150.359   3
  -2  -9  -1 1311.15 153.041   3
  -2  -9  -2 1251.72 153.686   1
  -2  -9  -2 1356.40 146.604   3
  -2  -9  -3 99.5068 73.0036   3
  -2  -9  -3-103.267 97.5670   1
  -2  -9  -4 377.218 117.243   1
  -2  -9  -4 294.889 74.0613   3
  -2  -9  -5 223.417 112.514   1
  -2  -9  -5 104.757 60.0158   3
  -2  -9  -6 435.501 131.574   1
  -2  -9  -7 265.155 124.279   1
  -2  -9  -8 109.326 111.932   1
  -2  -9  -9 424.107 132.644   1
  -2  -9 -10 560.472 145.488   1
  -2 -10   2 211.465 117.550   3
  -2 -10   1 7.73159 93.5024   3
  -2 -10   0 680.071 141.761   3
  -2 -10  -1 72.3044 86.6375   3
  -2 -10  -2 1411.93 162.590   3
  -2 -10  -3 1352.76 170.843   1
  -2 -10  -3 1649.57 168.179   3
  -2 -10  -4 942.339 128.434   3
  -2 -10  -4 875.746 157.607   1
  -2 -10  -5-9.22426 102.196   1
  -2 -10  -6 250.125 120.134   1
  -2 -10  -7 221.072 123.346   1
  -2 -10  -8 406.568 143.291   1
  -2 -11   0 808.560 160.473   3
  -2 -11  -1 200.838 99.9662   3
  -2 -11  -2 121.045 93.8486   3
  -2 -11  -4 1420.98 195.847   1
  -2 -11  -5 63.5900 107.615   1
   3 -10  -5 34.0378 87.9769   3
   3 -10  -4 128.502 88.3842   3
   3 -10  -3 80.9555 94.4143   3
   3  -9  -8 193.186 97.8315   1
   3  -9  -6 209.756 94.0629   3
   3  -9  -5 99.2306 82.5477   3
   3  -9  -4 590.033 129.562   3
   3  -9  -3 246.200 108.262   3
   3  -9  -2-25.2304 101.873   3
   3  -9  -1 31.5065 99.9389   3
   3  -9   0 914.500 160.748   3
   3  -9   1 1704.07 218.860   3
   3  -8  -9 122.583 87.7491   1
   3  -8  -9 54.7946 83.5082   2
   3  -8  -8-26.3421 74.6706   2
   3  -8  -8 93.7690 95.1872   1
   3  -8  -7 711.975 121.946   3
   3  -8  -7 681.166 131.245   1
   3  -8  -6 701.715 125.888   3
   3  -8  -5 1440.71 166.336   3
   3  -8  -4 307.254 108.273   3
   3  -8  -3 253.060 101.225   3
   3  -8  -2-16.9481 83.0869   3
   3  -8  -1 11.9202 86.9142   3
   3  -8   0 1240.16 166.913   3
   3  -8   1 1094.53 168.667   3
   3  -8   2 1131.01 174.759   3
   3  -8   3 532.806 143.803   3
   3  -7 -10 142.597 98.9589   1
   3  -7 -10 87.4882 88.9038   2
   3  -7  -9 216.070 96.9456   1
   3  -7  -9 216.846 94.6983   2
   3  -7  -8-50.8305 74.0954   2
   3  -7  -8 157.254 88.8205   3
   3  -7  -8-43.1626 86.1360   1
   3  -7  -7 728.182 120.593   2
   3  -7  -7 727.142 116.308   3
   3  -7  -7 571.278 118.806   1
   3  -7  -6 221.237 75.3835   2
   3  -7  -6 263.517 95.4989   1
   3  -7  -6 183.363 88.1475   3
   3  -7  -5 3759.19 196.799   2
   3  -7  -5 3618.34 228.826   3
   3  -7  -4 388.039 66.5323   2
   3  -7  -4 469.729 105.488   3
   3  -7  -3 751.577 124.904   3
   3  -7  -2-15.8579 78.7071   3
   3  -7  -1 414.998 117.242   3
   3  -7   0-35.6942 83.2219   3
   3  -7   1 1529.39 177.918   3
   3  -7   2 1184.47 167.253   3
   3  -7   3 2246.77 226.653   3
   3  -7   4 1124.10 176.434   3
   3  -7   5 179.170 118.792   3
   3  -6 -10 151.728 89.2125   1
   3  -6 -10 1.34696 87.4105   2
   3  -6  -9 24.6142 87.6301   2
   3  -6  -9 251.186 94.6372   1
   3  -6  -8 1019.58 133.781   1
   3  -6  -8 868.592 142.364   2
   3  -6  -7 5.26042 72.5231   1
   3  -6  -7 52.7953 70.7023   2
   3  -6  -6 125.516 86.4651   3
   3  -6  -6 159.635 66.8419   2
   3  -6  -6 188.306 77.2838   1
   3  -6  -5 239.827 83.5303   1
   3  -6  -5 470.798 83.9606   2
   3  -6  -5 464.450 104.327   3
   3  -6  -4 2848.97 158.213   2
   3  -6  -4 2531.20 183.358   3
   3  -6  -3 554.521 108.008   3
   3  -6  -3 562.386 67.8652   2
   3  -6  -2 59.8594 78.1966   3
   3  -6  -2 48.0851 31.0639   2
   3  -6  -1 4593.30 252.304   3
   3  -6   0 380.995 103.149   3
   3  -6   1 1474.30 163.186   3
   3  -6   2 2581.54 213.186   3
   3  -6   3 1994.58 197.318   3
   3  -6   4 670.315 139.043   3
   3  -6   5 27.6922 94.9707   3
   3  -6   6 91.0149 95.3206   3
   3  -6   7 477.829 138.649   3
   3  -5 -11 277.933 115.981   2
   3  -5 -10 254.008 103.610   2
   3  -5  -9 481.966 119.845   2
   3  -5  -9 607.179 110.085   1
   3  -5  -8 1038.10 141.716   2
   3  -5  -8 1088.61 129.636   1
   3  -5  -7 970.721 135.113   2
   3  -5  -7 1075.97 123.573   1
   3  -5  -6 428.793 92.3469   1
   3  -5  -6 391.758 89.5446   2
   3  -5  -5 702.097 102.232   2
   3  -5  -5 573.639 94.2222   1
   3  -5  -4 40.8239 48.2359   2
   3  -5  -4-94.5972 74.7336   1
   3  -5  -3 44.1643 42.4320   2
   3  -5  -3-56.1108 75.0556   3
   3  -5  -2 661.189 108.627   3
   3  -5  -2 750.333 66.4261   2
   3  -5  -1 4355.62 233.103   3
   3  -5  -1 4406.00 105.431   2
   3  -5   0 9309.02 339.163   3
   3  -5   1 2356.53 187.869   3
   3  -5   2 955.781 132.104   3
   3  -5   3 1724.42 174.426   3
   3  -5   4 648.476 128.232   3
   3  -5   5 2023.42 204.538   3
   3  -5   6 1226.62 173.927   3
   3  -5   7 24.6629 87.4636   3
   3  -5   8 219.037 115.013   3
   3  -4 -11 342.286 124.188   2
   3  -4 -10 691.966 140.773   2
   3  -4  -9 235.333 100.767   2
   3  -4  -9 356.207 93.7084   1
   3  -4  -8 2938.27 183.468   1
   3  -4  -8 2876.43 222.001   2
   3  -4  -7 410.280 105.961   2
   3  -4  -7 603.761 95.1438   1
   3  -4  -6 805.943 102.029   1
   3  -4  -6 795.445 113.899   2
   3  -4  -5 699.648 93.2353   1
   3  -4  -5 856.637 114.832   2
   3  -4  -4 1910.14 138.921   1
   3  -4  -4 1848.51 131.337   2
   3  -4  -3 1933.69 118.648   2
   3  -4  -2 1678.20 142.445   3
   3  -4  -2 1777.96 98.5489   2
   3  -4  -1 1003.61 61.1685   2
   3  -4  -1 1014.30 116.513   3
   3  -4   0 1147.26 126.202   3
   3  -4   1 1167.23 129.996   3
   3  -4   2 391.120 102.901   3
   3  -4   3 1445.60 149.791   3
   3  -4   4 2015.64 178.454   3
   3  -4   5 84.2153 83.4005   3
   3  -4   6 4168.55 262.734   3
   3  -4   7 961.720 151.000   3
   3  -4   8 496.535 124.463   3
   3  -4   9-15.5152 93.9806   3
   3  -3 -11 708.408 150.904   2
   3  -3 -10 131.387 106.299   2
   3  -3  -9 42.9933 65.5165   1
   3  -3  -9-60.1501 83.7033   2
   3  -3  -8-32.1451 73.1599   2
   3  -3  -8-4.40874 58.3219   1
   3  -3  -7 1139.99 142.247   2
   3  -3  -7 1209.64 112.448   1
   3  -3  -6 13223.0 315.535   1
   3  -3  -6 13941.8 407.777   2
   3  -3  -5 1806.63 121.856   1
   3  -3  -5 1585.83 144.239   2
  -3   3   5 1615.28 109.937   1
   3  -3  -4 5420.92 198.496   1
  -3   3   4 6025.89 198.540   1
   3  -3  -4 6126.96 230.762   2
   3  -3  -3 248.299 57.5101   1
   3  -3  -3 319.943 62.8205   2
  -3   3   3 273.151 59.6799   1
  -3   3   2 1156.55 98.2653   1
   3  -3  -2 1010.24 80.5870   2
  -3   3   1 827.391 85.2562   1
   3  -3  -1 803.819 60.2948   2
   3  -3  -1 909.063 112.046   3
   3  -3   0 904.969 49.2833   2
   3  -3   0 919.548 105.945   3
   3  -3   1 2187.51 156.801   3
   3  -3   2 1188.75 122.960   3
  -3   3  -3 490.777 26.4743   2
  -3   3  -3 418.282 25.0995   2
   3  -3   3 679.810 101.073   3
  -3   3  -4 3669.20 104.008   2
  -3   3  -4 3788.03 106.380   2
   3  -3   4 3753.62 220.144   3
   3  -3   5 1010.84 127.920   3
  -3   3  -5 1044.96 72.6480   2
  -3   3  -5 896.415 67.9361   2
   3  -3   6 747.279 131.622   3
  -3   3  -6 656.179 71.7962   2
   3  -3   7 675.505 122.545   3
  -3   3  -7 756.175 85.1866   2
   3  -3   8 725.621 133.337   3
   3  -3   9 353.394 108.198   3
   3  -3  10 199.171 108.006   3
   3  -3  11 1477.57 189.023   3
   3  -2 -11 753.873 157.410   2
   3  -2 -10 466.981 129.732   2
   3  -2  -9 498.067 122.494   2
   3  -2  -9 385.199 83.0640   1
   3  -2  -8 269.143 95.0242   2
   3  -2  -8 324.272 72.2852   1
   3  -2  -7 192.003 80.4000   2
   3  -2  -7 163.874 57.7899   1
   3  -2  -6 729.130 112.750   2
   3  -2  -6 731.728 76.6259   1
  -3   2   6 771.967 76.4525   1
   3  -2  -5 6606.45 194.061   1
   3  -2  -5 6445.05 273.404   2
  -3   2   5 6487.67 186.569   1
   3  -2  -4 1859.63 102.508   1
   3  -2  -4 1793.78 132.288   2
  -3   2   4 1962.14 103.710   1
   3  -2  -3 1763.48 97.4276   1
  -3   2   3 1979.36 101.009   1
   3  -2  -3 1659.13 116.891   2
  -3   2   2 9340.42 213.344   1
   3  -2  -2 8835.42 227.393   2
  -3   2   1 1888.48 101.431   1
   3  -2  -1 1816.66 95.4649   2
   3  -2   0 57.6955 70.0874   3
  -3   2   0 32.0466 26.5689   2
   3  -2   0 36.6297 30.7766   2
   3  -2   1 2445.62 75.5358   2
  -3   2  -1 2161.25 69.9721   2
   3  -2   1 2285.05 144.138   3
  -3   2  -2 4553.26 97.9370   2
   3  -2   2 5146.00 211.152   3
  -3   2  -3 7204.16 143.211   2
   3  -2   3 7908.85 266.138   3
  -3   2  -4 3095.51 114.709   2
   3  -2   4 3264.41 184.911   3
   3  -2   5 1919.42 157.330   3
   3  -2   6 78.2348 75.1187   3
   3  -2   7 17.3965 69.9220   3
   3  -2   8 1032.23 135.478   3
   3  -2   9 377.754 96.9784   3
  -3   2  -9 474.540 94.0803   2
   3  -2  10 895.614 146.033   3
   3  -2  11 110.288 97.1092   3
  -3   2 -11 148.191 110.215   1
   3  -1 -11 283.541 116.709   2
   3  -1 -10 1810.29 204.483   2
   3  -1  -9 613.536 138.922   2
   3  -1  -8 508.738 123.371   2
   3  -1  -8 547.705 75.2314   1
   3  -1  -7 194.404 84.1523   2
   3  -1  -7 297.488 63.0298   1
   3  -1  -6 1875.02 100.231   1
   3  -1  -6 1683.98 159.288   2
   3  -1  -5 3747.15 126.368   1
   3  -1  -5 3620.18 199.672   2
  -3   1   5 3734.96 124.549   1
   3  -1  -4 5226.88 136.800   1
   3  -1  -4 5148.83 229.408   2
  -3   1   4 5360.03 136.030   1
   3  -1  -3 1736.15 75.5835   1
   3  -1  -3 2057.89 131.391   2
  -3   1   3 1981.44 81.0688   1
  -3   1   2 1211.91 68.3045   1
   3  -1  -2 1263.56 96.1184   2
  -3   1   2 1312.74 95.7641   2
   3  -1  -1 165.857 53.7163   2
  -3   1   1 128.188 42.0810   2
  -3   1   1 208.574 38.3237   1
   3  -1   0 2502.45 102.253   2
  -3   1   0 2323.20 98.0721   2
   3  -1   1 4380.09 174.289   3
   3  -1   1 3971.36 119.247   2
  -3   1  -1 3801.76 110.761   2
  -3   1  -2 10622.6 181.689   2
   3  -1   2 11286.8 267.258   3
  -3   1  -3 14357.0 234.461   2
  -3   1  -3 14690.3 312.598   3
   3  -1   3 14416.7 316.947   3
  -3   1  -4 2271.63 107.683   2
  -3   1  -4 2565.35 137.647   3
   3  -1   4 2465.65 144.870   3
   3  -1   5 428.332 83.6641   3
   3  -1   6 196.946 67.2392   3
   3  -1   7 654.518 99.4760   3
   3  -1   8 786.494 114.332   3
   3  -1   9 974.327 136.385   3
  -3   1 -10 332.015 111.905   1
   3  -1  10 500.338 111.415   3
  -3   1 -11 797.934 157.868   1
   3  -1  11 842.544 138.479   3
   3   0 -11 769.699 163.451   2
   3   0 -10 151.501 102.208   2
   3   0  -9 1080.55 152.835   2
   3   0  -8 413.518 59.9846   1
   3   0  -8 433.883 116.178   2
   3   0  -7 1145.80 139.995   2
   3   0  -7 1002.90 78.4304   1
   3   0  -6 1648.17 157.172   2
   3   0  -6 1576.99 84.7936   1
   3   0  -5 1319.57 66.0918   1
   3   0  -5 1532.24 141.636   2
   3   0  -4 2307.46 71.9268   1
   3   0  -4 2457.09 164.546   2
   3   0  -3 2836.80 156.155   2
  -3   0   3 2772.95 146.631   2
  -3   0   3 2228.57 58.6028   1
   3   0  -2 5286.71 188.621   2
  -3   0   2 4865.12 78.2080   1
  -3   0   2 5277.57 185.973   2
   3   0  -1 12219.1 263.451   2
  -3   0   1 12418.3 249.378   2
   3   0   0 2008.12 106.710   2
  -3   0   0 2023.25 100.105   2
  -3   0  -1 213.911 46.2632   2
   3   0   1 181.891 49.0503   2
   3   0   2 1489.25 85.6759   2
  -3   0  -2 1445.50 82.6888   2
   3   0   2 1512.64 98.4601   3
  -3   0  -3 1008.80 76.6627   2
   3   0   3 1328.25 94.4082   3
  -3   0  -4 17651.6 315.132   2
   3   0   4 17955.7 325.560   3
  -3   0  -4 18027.3 314.008   3
   3   0   5 488.066 71.2936   3
  -3   0  -5 510.716 65.3086   3
   3   0   6 5713.99 218.687   3
   3   0   7 436.717 84.4310   3
   3   0   8 15.8360 60.0906   3
  -3   0  -8-72.5839 82.8226   1
   3   0   9 55.8347 63.7116   3
  -3   0  -9 49.7573 85.7530   1
  -3   0 -10 2816.20 232.070   1
   3   0  10 3025.03 205.592   3
  -3   0 -11 807.080 155.910   1
  -3   0 -12 368.459 128.382   1
   3   1 -10 586.283 134.878   2
   3   1  -9 2145.06 209.689   2
   3   1  -8 314.073 112.123   2
   3   1  -8 261.318 60.5075   1
   3   1  -7 1288.21 159.936   2
   3   1  -7 1399.79 96.7663   1
   3   1  -6 355.760 93.5491   2
   3   1  -6 149.961 38.7495   1
   3   1  -5 475.707 110.069   2
   3   1  -5 355.554 39.7701   1
   3   1  -4 5339.27 235.837   2
   3   1  -4 5194.39 97.8284   1
   3   1  -3 5027.38 212.227   2
   3   1  -2 18492.8 371.656   2
  -3  -1   2 20581.4 356.612   2
  -3  -1   1 9364.50 227.990   2
   3   1  -1 9118.07 235.241   2
   3   1   0 1520.52 102.946   2
  -3  -1   0 1641.74 97.2222   2
  -3  -1   0 1685.87 68.3529   1
  -3  -1  -1 327.801 54.3691   1
   3   1   1 268.973 60.7150   2
  -3  -1  -1 364.954 55.9185   2
   3   1   2 37.6189 53.7885   2
  -3  -1  -2 60.9587 40.7606   2
  -3  -1  -3 1170.02 88.4008   2
   3   1   3 1092.29 70.4047   3
  -3  -1  -4 538.365 70.5350   2
  -3  -1  -4 537.109 83.4789   1
   3   1   4 606.120 63.6282   3
   3   1   5 2378.37 112.877   3
  -3  -1  -5 2403.26 108.792   3
  -3  -1  -5 2522.70 166.913   1
  -3  -1  -6 2829.72 185.643   1
  -3  -1  -6 2707.77 124.155   3
   3   1   6 2788.96 132.621   3
   3   1   7 5958.37 206.276   3
  -3  -1  -7 5976.92 192.873   3
  -3  -1  -7 5882.90 275.358   1
  -3  -1  -8 2851.65 208.466   1
   3   1   8 2979.90 161.951   3
   3   1   9 4266.88 200.875   3
  -3  -1  -9 4174.85 259.820   1
  -3  -1 -10 2059.06 200.012   1
   3   1  10 2332.45 165.296   3
  -3  -1 -11 7.53554 95.5799   1
  -3  -1 -12 850.402 158.264   1
   3   2 -10 1568.56 201.536   2
   3   2  -9 698.722 138.161   2
   3   2  -8 195.778 93.2190   2
   3   2  -7 501.626 112.593   2
   3   2  -7 417.682 66.5250   1
   3   2  -6 1002.14 130.928   2
   3   2  -6 1049.89 81.6420   1
   3   2  -5 740.939 107.672   2
   3   2  -5 667.595 58.9940   1
   3   2  -4 769.523 50.5614   1
   3   2  -4 769.547 111.332   2
   3   2  -3 105.083 70.0603   2
   3   2  -3 50.9602 21.0733   1
   3   2  -2 6020.64 223.384   2
   3   2  -2 5479.12 90.3318   1
  -3  -2   2 6561.76 214.782   2
   3   2  -2 6388.38 220.552   3
  -3  -2   1 5340.52 99.3684   1
   3   2  -1 5699.21 201.569   2
  -3  -2   1 5907.83 199.022   2
   3   2  -1 5404.34 98.6266   1
   3   2  -1 6113.65 193.885   3
   3   2   0 24864.7 383.273   2
  -3  -2   0 25562.1 365.129   2
  -3  -2   0 24235.1 251.337   1
   3   2   0 23942.2 253.555   1
  -3  -2  -1 780.183 77.9770   2
  -3  -2  -1 654.428 61.9688   1
   3   2   1 602.762 80.3792   2
   3   2   1 695.624 58.7183   1
  -3  -2  -2 424.370 69.1590   1
   3   2   2 406.747 72.6031   2
  -3  -2  -2 366.392 63.0953   2
   3   2   2 377.144 56.3950   1
  -3  -2  -3 74.3240 63.3611   1
  -3  -2  -3 60.2101 52.5759   2
  -3  -2  -4 2117.25 127.611   2
   3   2   4 1975.82 72.6175   3
  -3  -2  -4 2288.21 153.184   1
  -3  -2  -5 5765.60 240.791   1
   3   2   5 5776.00 131.851   3
   3   2   6 6070.24 153.455   3
  -3  -2  -6 5641.72 144.226   3
  -3  -2  -6 6354.40 264.802   1
  -3  -2  -7 2358.32 179.338   1
   3   2   7 2195.78 106.864   3
  -3  -2  -7 1933.55 97.7010   3
  -3  -2  -8 415.348 55.1566   3
   3   2   8 436.175 64.3109   3
  -3  -2  -8 390.694 115.373   1
  -3  -2  -9 58.5537 87.4061   1
  -3  -2 -10 145.778 99.2462   1
  -3  -2 -11 1025.69 159.844   1
  -3  -2 -12 277.353 114.681   1
   3   3 -10 634.599 143.718   2
   3   3  -9 344.195 118.850   2
   3   3  -8 246.437 99.9073   2
   3   3  -7 1887.54 174.675   2
   3   3  -7 2061.16 136.550   1
   3   3  -6 504.446 103.680   2
   3   3  -5 1866.63 101.669   1
   3   3  -5 2182.21 170.756   2
   3   3  -4 3221.07 118.305   1
   3   3  -4 3556.19 200.921   2
   3   3  -3 2586.75 100.309   1
   3   3  -3 2989.05 169.634   2
   3   3  -2 968.482 99.8973   2
   3   3  -2 931.709 64.4207   1
  -3  -3   1 1842.35 85.8994   1
   3   3  -1 1968.72 131.328   2
  -3  -3   1 1941.92 123.267   2
   3   3  -1 1847.58 82.0238   1
   3   3  -1 1967.27 125.069   3
   3   3   0 1448.48 113.245   2
  -3  -3   0 1320.07 80.9364   1
  -3  -3   0 1591.30 106.917   2
   3   3   0 1476.27 79.9617   1
   3   3   0 1561.20 102.547   3
   3   3   1 419.527 52.0592   3
  -3  -3  -1 402.049 60.1595   1
   3   3   1 564.624 87.9385   2
   3   3   1 387.192 53.0817   1
  -3  -3  -1 496.202 73.7517   2
   3   3   2 12850.8 305.428   2
  -3  -3  -2 12949.5 290.800   2
  -3  -3  -2 12839.6 267.874   1
   3   3   2 13014.6 264.114   1
   3   3   2 12560.3 205.340   3
  -3  -3  -3 5263.25 194.013   2
  -3  -3  -3 5252.97 194.638   1
   3   3   3 5192.52 189.549   1
   3   3   3 4960.14 102.712   3
  -3  -3  -4 1507.61 122.787   1
   3   3   4 1432.60 115.373   1
  -3  -3  -5 634.128 92.6964   1
  -3  -3  -6 2466.27 179.132   1
  -3  -3  -7 1236.18 136.965   1
  -3  -3  -8 1222.70 140.322   1
  -3  -3  -8 910.205 56.8889   3
  -3  -3  -9 460.720 108.936   1
  -3  -3 -10 187.460 94.0989   1
  -3  -3 -11-134.377 112.303   1
  -3  -3 -12 360.395 119.917   1
  -3  -3 -13 24.2178 106.546   1
   3   4 -10 288.989 112.265   2
   3   4  -9 1150.50 164.646   2
   3   4  -8 237.555 98.6256   2
   3   4  -7 62.4071 83.3357   2
   3   4  -6 2692.10 202.987   2
   3   4  -5 1952.78 171.008   2
   3   4  -4 3048.20 132.896   1
   3   4  -4 3206.56 198.255   2
   3   4  -3 2643.67 123.838   1
   3   4  -3 2256.10 155.810   2
   3   4  -2 1506.60 128.931   2
   3   4  -2 1516.06 93.7826   1
  -3  -4   2 1376.87 133.740   3
   3   4  -1 899.911 103.595   2
   3   4  -1 843.786 75.8800   1
  -3  -4   1 894.085 107.161   3
   3   4   0 141.966 54.1717   3
  -3  -4   0 186.183 52.0654   1
   3   4   0 171.070 67.6146   2
   3   4   0 150.272 48.7397   1
  -3  -4   0 165.898 54.3460   2
   3   4   1 1078.71 106.934   2
  -3  -4  -1 1092.43 98.3800   2
  -3  -4  -1 960.216 85.9793   1
   3   4   1 1099.60 89.1252   1
   3   4   1 1033.89 84.9586   3
   3   4   2 2087.18 138.306   2
  -3  -4  -2 2140.75 133.126   2
   3   4   2 2077.39 97.5475   3
  -3  -4  -2 2144.18 134.440   1
   3   4   2 2164.34 124.908   1
  -3  -4  -3 13191.3 318.521   1
   3   4   3 13668.5 312.677   1
   3   4   3 12475.7 188.065   3
  -3  -4  -4 3126.76 177.601   1
  -3  -4  -5 2946.30 180.171   1
  -3  -4  -6 494.768 101.425   1
  -3  -4  -7 969.771 129.266   1
  -3  -4  -8 794.531 130.727   1
  -3  -4  -9 2421.42 206.915   1
  -3  -4 -10 452.827 122.373   1
  -3  -4 -11 139.060 105.838   1
  -3  -4 -12 441.923 133.837   1
  -3  -4 -13 205.875 129.891   1
   3   5  -9 2109.29 198.147   2
   3   5  -8 399.736 113.499   2
   3   5  -7 453.849 113.308   2
   3   5  -6 45.3451 72.7762   2
   3   5  -5 1965.64 163.245   2
  -3  -5   4 770.302 130.115   3
   3   5  -4 812.955 114.651   2
   3   5  -3 2609.80 174.771   2
  -3  -5   3 2682.26 205.416   3
   3   5  -2 4169.34 204.013   2
   3   5  -2 4714.39 178.053   1
  -3  -5   2 4389.75 233.794   3
   3   5  -1 2717.78 165.526   2
   3   5  -1 2704.42 138.070   1
  -3  -5   1 2786.47 176.338   3
  -3  -5   0 3159.72 157.299   1
   3   5   0 3499.13 178.642   2
   3   5   0 3379.31 154.467   1
  -3  -5   0 3318.35 179.142   3
   3   5   1 1011.49 107.546   2
  -3  -5  -1 1191.39 108.910   1
   3   5   1 1067.28 102.451   1
   3   5   1 1034.88 95.5031   3
  -3  -5  -1 940.037 95.3513   3
   3   5   2 1587.38 130.625   2
  -3  -5  -2 1593.52 124.476   1
  -3  -5  -2 1655.27 106.227   3
   3   5   2 1587.46 97.1377   3
   3   5   3 173.733 36.9275   3
  -3  -5  -3 257.387 84.4260   1
   3   5   4 332.828 34.1312   3
  -3  -5  -4 298.423 82.5798   1
  -3  -5  -5 1071.67 126.676   1
  -3  -5  -6 747.152 123.328   1
  -3  -5  -7 1255.48 153.779   1
  -3  -5  -8 118.370 96.3707   1
  -3  -5  -9 2536.49 214.727   1
  -3  -5 -10 1312.04 184.296   1
  -3  -5 -11 350.055 120.556   1
  -3  -5 -12 172.500 125.789   1
   3   6  -7 1233.60 151.426   2
   3   6  -6 52.5515 72.1589   2
  -3  -6   5 414.228 120.212   3
   3   6  -5 255.864 91.1062   2
  -3  -6   4 1069.76 159.274   3
   3   6  -4 858.756 121.513   2
   3   6  -3 1881.73 153.035   2
  -3  -6   3 1971.07 187.717   3
   3   6  -2 1971.46 151.799   2
  -3  -6   2 2082.21 186.158   3
   3   6  -1 3879.48 199.889   2
  -3  -6   1 4526.05 238.742   3
  -3  -6   0 162.401 73.9464   3
   3   6   0 235.999 75.4989   2
  -3  -6   0 147.702 60.9825   1
   3   6   1 2079.13 147.172   2
  -3  -6  -1 1878.89 142.054   1
  -3  -6  -1 1847.09 137.698   3
  -3  -6  -2 405.064 70.9384   3
  -3  -6  -2 571.454 105.882   1
   3   6   2 467.729 87.3386   2
   3   6   2 460.461 67.3797   3
   3   6   3 1059.56 82.3628   3
  -3  -6  -3 1244.31 131.026   1
  -3  -6  -3 1208.37 91.3393   3
   3   6   4 250.113 40.4425   3
  -3  -6  -4 378.468 51.0738   3
  -3  -6  -4 409.346 104.558   1
  -3  -6  -5 858.280 131.280   1
  -3  -6  -6 1744.32 165.499   1
  -3  -6  -7 1602.84 166.920   1
  -3  -6  -8 862.987 144.235   1
  -3  -6  -9 220.393 121.331   1
  -3  -6 -10 70.8682 118.351   1
  -3  -6 -11 517.938 134.468   1
  -3  -6 -12 443.216 142.224   1
  -3  -7   5 388.014 130.952   3
   3   7  -5 417.926 99.9120   2
  -3  -7   4 371.248 128.835   3
   3   7  -4 377.287 94.5845   2
  -3  -7   3-41.9421 86.7727   3
   3   7  -3-64.6006 64.1495   2
   3   7  -2 2001.06 155.069   2
  -3  -7   2 2105.53 193.060   3
   3   7  -1 1483.60 135.730   2
  -3  -7   1 1448.91 159.790   3
   3   7   0 1648.89 142.210   2
  -3  -7   0 1655.26 153.241   3
   3   7   1 1730.04 142.509   2
  -3  -7  -1 1841.25 153.441   1
  -3  -7  -1 1930.87 149.731   3
  -3  -7  -2 133.272 91.8258   1
  -3  -7  -2 47.2248 56.0274   3
   3   7   2 98.7030 65.6594   2
   3   7   3 455.694 64.3406   3
  -3  -7  -3 537.676 78.2129   3
  -3  -7  -3 670.995 123.496   1
  -3  -7  -4 1176.22 145.099   1
   3   7   4 1132.55 82.6337   3
  -3  -7  -4 1253.92 94.8093   3
  -3  -7  -5 1635.35 169.042   1
  -3  -7  -5 1696.85 90.0277   3
  -3  -7  -6 3986.20 251.686   1
  -3  -7  -7 2308.09 204.801   1
  -3  -7  -8 36.9260 97.4679   1
  -3  -7  -9 83.8588 106.556   1
  -3  -7 -10-69.4065 114.640   1
  -3  -7 -11 114.192 115.234   1
  -3  -7 -12 222.437 128.659   1
  -3  -8   4 114.982 110.249   3
   3   8  -3 2027.61 166.808   2
  -3  -8   3 2181.41 219.825   3
  -3  -8   2 999.186 154.800   3
   3   8  -2 871.814 118.552   2
  -3  -8   1 517.629 116.258   3
   3   8  -1 741.699 110.078   2
  -3  -8   0 1137.11 147.893   3
   3   8   0 1097.96 124.682   2
  -3  -8  -1 168.354 83.0695   3
   3   8   1 70.1496 60.8328   2
  -3  -8  -1-67.7815 89.3071   1
  -3  -8  -2 1659.32 163.037   1
  -3  -8  -2 1710.22 149.194   3
  -3  -8  -3 78.5005 83.2522   1
  -3  -8  -3-16.4270 54.6476   3
  -3  -8  -4 154.302 55.3858   3
  -3  -8  -4 372.936 124.515   1
  -3  -8  -5 194.848 53.9366   3
  -3  -8  -5 79.0603 89.3793   1
  -3  -8  -6 91.7782 94.3761   1
  -3  -8  -7 2368.62 212.139   1
  -3  -8  -8 795.609 152.665   1
  -3  -8  -9 271.143 113.838   1
  -3  -8 -10 323.767 134.606   1
  -3  -8 -11 53.8773 108.897   1
  -3  -9   3-3.87223 98.7104   3
  -3  -9   2 154.496 106.993   3
  -3  -9   1 30.2565 84.6959   3
  -3  -9   0 864.129 144.018   3
   3   9   0 708.100 107.369   2
  -3  -9  -1 3281.06 227.183   3
  -3  -9  -2 763.798 119.177   3
  -3  -9  -2 629.537 117.708   1
  -3  -9  -3 772.558 135.344   1
  -3  -9  -3 846.218 110.616   3
  -3  -9  -4 158.085 96.0722   1
  -3  -9  -4 25.1156 55.0505   3
  -3  -9  -5 308.857 116.949   1
  -3  -9  -6 442.948 135.612   1
  -3  -9  -7 423.738 114.273   1
  -3  -9  -8 159.229 111.622   1
  -3  -9  -9 1380.05 202.550   1
  -3  -9 -10 231.077 127.789   1
  -3 -10   2 264.373 128.152   3
  -3 -10   1 527.172 135.908   3
  -3 -10   0 143.139 101.482   3
  -3 -10  -1 909.060 146.998   3
  -3 -10  -2 1619.49 170.502   3
  -3 -10  -3 199.815 108.259   1
  -3 -10  -3 428.588 99.9050   3
  -3 -10  -4 763.853 138.267   1
  -3 -10  -5 85.5630 100.626   1
  -3 -10  -6 187.708 124.293   1
  -3 -10  -7 30.6143 110.380   1
  -3 -10  -8 575.656 160.250   1
  -3 -11   0 245.262 105.002   3
  -3 -11  -1 51.8031 82.6298   3
  -3 -11  -2 541.361 117.509   3
  -3 -11  -4 196.218 97.9114   1
  -3 -11  -5 449.772 138.754   1
   4  -9  -6 570.190 125.658   3
   4  -9  -5 361.083 122.733   3
   4  -9  -4 65.3478 97.3192   3
   4  -9  -3 921.340 160.149   3
   4  -9  -2 39.6946 100.462   3
   4  -9  -1 584.711 140.662   3
   4  -8  -8 84.0367 83.5216   3
   4  -8  -7-45.3856 85.5893   3
   4  -8  -6 150.116 93.2491   3
   4  -8  -5 1065.38 158.360   3
   4  -8  -4 1275.24 172.129   3
   4  -8  -3 2008.84 203.276   3
   4  -8  -2 15.4689 90.2021   3
   4  -8  -1-68.6310 95.4380   3
   4  -8   0 15.9665 92.9521   3
   4  -8   1 64.8801 94.9844   3
   4  -8   2 975.016 174.773   3
   4  -7 -10 30.7815 88.7142   2
   4  -7  -9-35.5898 80.2686   2
   4  -7  -8 14.4841 73.8581   2
   4  -7  -8-143.681 102.827   1
   4  -7  -8 119.230 89.6511   3
   4  -7  -7 181.143 83.0582   2
   4  -7  -7 289.756 102.177   3
   4  -7  -6 1521.00 168.745   3
   4  -7  -5 291.441 99.7079   3
   4  -7  -4 249.786 101.023   3
   4  -7  -3 372.785 112.854   3
   4  -7  -2 562.737 124.131   3
   4  -7  -1 949.762 150.275   3
   4  -7   0 153.866 100.635   3
   4  -7   1 509.204 128.291   3
   4  -7   2 554.906 131.754   3
   4  -7   3 1314.47 180.341   3
   4  -7   4 32.3721 104.796   3
   4  -6 -10 381.365 123.409   2
   4  -6  -9 346.333 112.362   2
   4  -6  -8 679.608 108.683   1
   4  -6  -8 940.294 149.453   2
   4  -6  -7 247.334 90.2958   2
   4  -6  -7 164.948 80.0858   1
   4  -6  -6 594.917 105.274   2
   4  -6  -6 659.490 125.860   3
   4  -6  -5 1351.03 128.304   2
   4  -6  -5 1322.89 153.092   3
   4  -6  -4 34.4055 50.2096   2
   4  -6  -4-42.2132 78.3667   3
   4  -6  -3 526.010 115.397   3
   4  -6  -3 518.503 68.8555   2
   4  -6  -2 887.433 137.273   3
   4  -6  -1 154.946 102.963   3
   4  -6   0 337.431 104.512   3
   4  -6   1 2084.89 202.763   3
   4  -6   2 1929.41 198.392   3
   4  -6   3 856.042 149.068   3
   4  -6   4 971.316 161.259   3
   4  -6   5 387.956 130.588   3
   4  -6   6 509.714 129.869   3
   4  -5 -10 122.355 104.120   2
   4  -5  -9 320.243 115.877   2
   4  -5  -8 54.2036 63.8821   1
   4  -5  -8 54.1416 82.5796   2
   4  -5  -7 27.9069 66.4703   1
   4  -5  -7 138.856 89.2592   2
   4  -5  -6 1322.27 132.833   1
   4  -5  -6 1395.31 146.426   2
   4  -5  -5 1387.95 132.114   2
   4  -5  -4 674.593 89.8890   2
   4  -5  -4 754.957 125.750   3
   4  -5  -3 2056.20 129.990   2
   4  -5  -3 1910.73 176.986   3
   4  -5  -2 444.394 58.4712   2
   4  -5  -2 510.307 110.750   3
   4  -5  -1 2288.03 84.3307   2
   4  -5  -1 2151.38 182.201   3
   4  -5   0 1872.73 182.502   3
   4  -5   1 3620.92 237.824   3
   4  -5   2 159.414 90.5436   3
   4  -5   3 308.245 97.7144   3
   4  -5   4 996.124 143.844   3
   4  -5   5 1596.31 185.265   3
   4  -5   6 1440.36 188.689   3
   4  -5   7 532.613 140.392   3
   4  -4 -10 232.018 108.059   2
   4  -4  -9 469.999 122.837   2
   4  -4  -8 448.499 84.3207   1
   4  -4  -8 395.099 117.310   2
   4  -4  -7 57.7913 57.6886   1
   4  -4  -7 16.3469 77.1444   2
   4  -4  -6 49.6838 66.5797   2
   4  -4  -6-54.7446 68.2456   1
   4  -4  -5 557.997 102.246   2
   4  -4  -5 489.297 83.7775   1
   4  -4  -4 1399.86 121.765   2
   4  -4  -3 3575.43 171.386   2
   4  -4  -2 6780.84 203.134   2
   4  -4  -2 6536.60 285.282   3
   4  -4  -1 3584.08 122.208   2
   4  -4  -1 3289.18 204.335   3
   4  -4   0 3.95216 74.9140   3
   4  -4   0 86.6395 21.1885   2
   4  -4   1 988.940 133.064   3
   4  -4   2 1015.45 130.486   3
   4  -4   3 628.487 119.268   3
   4  -4   4 223.237 86.6473   3
   4  -4   5 4744.89 278.554   3
   4  -4   6 598.501 125.623   3
   4  -4   7 698.404 136.809   3
   4  -4   8 414.201 127.909   3
   4  -4   9 267.200 117.521   3
   4  -3 -10 2266.86 230.196   2
   4  -3  -9 849.187 151.773   2
   4  -3  -8 76.0234 61.3823   1
   4  -3  -8-123.696 86.8834   2
   4  -3  -7 3583.60 169.843   1
   4  -3  -7 3683.08 244.640   2
   4  -3  -6 1601.44 117.957   1
   4  -3  -6 1696.27 163.046   2
   4  -3  -5 194.371 73.8264   2
  -4   3   5 216.720 55.1916   1
   4  -3  -5 164.096 53.6693   1
  -4   3   4 2575.66 134.785   1
   4  -3  -4 2702.79 167.191   2
  -4   3   3 3977.68 167.084   1
   4  -3  -3 3779.76 183.180   2
   4  -3  -2 3263.91 150.571   2
   4  -3  -1 674.180 68.3729   2
   4  -3  -1 756.840 111.737   3
   4  -3   0 291.855 86.7358   3
   4  -3   0 310.945 45.6816   2
   4  -3   1 2867.36 83.3010   2
   4  -3   1 3151.04 188.858   3
  -4   3  -2 1798.79 52.0035   2
   4  -3   2 2628.80 184.445   3
   4  -3   3 970.941 125.831   3
  -4   3  -3 764.603 35.8820   2
   4  -3   4 725.517 116.871   3
  -4   3  -4 643.211 43.2401   2
   4  -3   5 1313.62 157.163   3
   4  -3   6 329.268 100.325   3
   4  -3   7 1220.98 153.473   3
   4  -3   8 653.177 135.214   3
   4  -3   9 118.891 90.3991   3
   4  -3  10 537.487 128.560   3
   4  -2 -10 696.551 147.810   2
   4  -2  -9-2.10273 95.7355   2
   4  -2  -8 57.4688 83.3927   2
   4  -2  -7 1677.50 111.485   1
   4  -2  -7 1559.58 167.907   2
   4  -2  -6 7507.09 205.297   1
   4  -2  -6 7480.01 324.645   2
  -4   2   6 7575.16 202.431   1
   4  -2  -5 29.4406 65.8468   2
  -4   2   5-35.2789 42.3793   1
   4  -2  -5-15.4883 43.4825   1
   4  -2  -4 2742.72 176.114   2
  -4   2   4 2745.09 120.425   1
  -4   2   3 1892.93 103.681   1
   4  -2  -3 1861.23 134.178   2
   4  -2  -2 263.879 60.1874   2
  -4   2   2 380.690 63.6545   1
  -4   2   1 1391.62 99.5100   1
   4  -2  -1 1491.77 99.2129   2
  -4   2   1 1311.20 92.0132   2
   4  -2   0 1320.19 83.3029   2
  -4   2   0 1152.48 75.6013   2
   4  -2   1 1321.20 77.2562   2
  -4   2  -1 1232.41 71.3276   2
   4  -2   1 1352.97 123.703   3
   4  -2   2 256.575 76.3425   3
  -4   2  -2 303.508 39.4906   2
  -4   2  -3 3393.81 110.475   2
   4  -2   3 3547.44 195.435   3
  -4   2  -4 4125.16 131.147   2
   4  -2   4 4442.01 224.216   3
  -4   2  -5 3098.39 128.253   2
   4  -2   5 3478.96 207.995   3
   4  -2   6 842.374 121.739   3
   4  -2   7 19.4099 71.4371   3
   4  -2   8 63.9478 80.6390   3
   4  -2   9 470.236 117.005   3
   4  -2  10 180.281 97.9363   3
   4  -2  11 454.304 114.083   3
   4  -1 -10 191.422 98.5549   2
   4  -1  -9 190.397 107.187   2
   4  -1  -8 1101.71 166.890   2
   4  -1  -7 523.575 125.491   2
   4  -1  -7 579.576 64.2906   1
   4  -1  -6 1625.10 84.3575   1
   4  -1  -6 1765.47 168.537   2
  -4   1   5 1.95293 25.6205   1
   4  -1  -5-24.5885 32.1773   1
   4  -1  -4 6453.54 257.915   2
  -4   1   4 6244.69 143.976   1
   4  -1  -3 4539.01 202.583   2
  -4   1   3 4582.10 123.893   1
  -4   1   2 7124.15 164.389   1
   4  -1  -2 7073.37 234.242   2
  -4   1   2 7441.89 229.996   2
  -4   1   1 885.332 66.2828   1
   4  -1  -1 929.260 89.3629   2
  -4   1   1 932.255 83.3704   2
   4  -1   0 2874.97 133.754   2
  -4   1   0 2837.92 122.125   2
  -4   1  -1 314.255 50.8480   2
   4  -1   1 269.724 49.4964   2
   4  -1   2 1718.10 94.4604   2
  -4   1  -2 1754.09 90.2159   2
   4  -1   2 1677.25 128.974   3
   4  -1   3 765.308 94.0244   3
  -4   1  -3 717.758 64.0013   2
   4  -1   4 509.215 83.6632   3
  -4   1  -4 467.032 66.1799   2
  -4   1  -5 2607.57 129.145   2
   4  -1   5 2895.21 171.076   3
   4  -1   6 1206.16 125.869   3
   4  -1   7 1968.69 165.998   3
   4  -1   8 786.608 117.853   3
   4  -1   9 568.096 108.825   3
   4  -1  10 879.795 142.350   3
  -4   1 -10 629.368 141.789   1
  -4   1 -11 208.846 117.577   1
   4   0 -10 1031.79 173.409   2
   4   0  -9 1085.05 160.449   2
   4   0  -8 261.286 106.429   2
   4   0  -7 808.211 133.186   2
   4   0  -7 638.329 55.4378   1
   4   0  -6 404.523 115.017   2
   4   0  -6 369.332 37.5103   1
   4   0  -5 734.312 113.796   2
   4   0  -5 483.340 30.0882   1
   4   0  -4 338.260 85.8664   2
   4   0  -3 242.673 74.9682   2
  -4   0   2 7017.27 112.783   1
   4   0  -2 7140.17 250.388   2
   4   0  -1 4310.72 177.917   2
  -4   0   1 4540.98 176.844   2
   4   0   0 19016.0 342.632   2
  -4   0   0 19378.3 332.184   2
   4   0   1 2228.59 118.589   2
  -4   0  -1 2129.09 109.224   2
   4   0   2 690.624 75.9361   2
  -4   0  -2 667.548 69.5430   2
  -4   0  -3 879.798 78.9967   2
   4   0   3 893.892 88.0870   3
  -4   0  -4 3976.83 161.743   2
   4   0   4 4090.44 176.088   3
   4   0   5 4109.37 181.375   3
  -4   0  -5 4073.69 170.117   2
   4   0   6 1020.47 103.983   3
   4   0   7 1293.45 121.285   3
   4   0   8 1469.89 134.457   3
   4   0   9 1952.18 157.740   3
  -4   0  -9 1876.36 203.552   1
  -4   0 -10 254.748 107.564   1
   4   0  10 188.575 78.3096   3
  -4   0 -11 232.902 117.660   1
   4   1 -10 154.014 114.532   2
   4   1  -9 1139.58 167.533   2
   4   1  -8 5254.36 312.768   2
   4   1  -7 297.688 103.098   2
   4   1  -6 204.282 90.4536   2
   4   1  -6 72.9686 16.2317   1
   4   1  -5-5.70286 80.3069   2
   4   1  -4 740.974 110.698   2
   4   1  -3 193.610 75.1739   2
   4   1  -2 3531.61 185.412   2
   4   1  -1 9377.35 266.832   2
  -4  -1   1 9724.32 260.195   2
  -4  -1   1 8703.43 120.932   1
   4   1   0 4753.21 188.170   2
  -4  -1   0 5391.78 186.922   2
  -4  -1   0 4901.81 127.630   1
   4   1   1 1421.45 110.475   2
  -4  -1  -1 1549.37 103.357   2
   4   1   2 1305.37 105.634   2
  -4  -1  -2 1153.13 94.0502   2
   4   1   3 197.343 60.7266   2
  -4  -1  -3 259.225 58.2639   2
   4   1   3 327.523 63.5586   3
  -4  -1  -4 1930.71 124.222   2
   4   1   4 1839.45 104.986   3
  -4  -1  -5 2604.01 171.569   1
   4   1   5 2570.56 128.453   3
   4   1   6 3650.48 158.964   3
  -4  -1  -6 3548.53 213.118   1
   4   1   7 1471.45 109.354   3
  -4  -1  -7 1340.18 97.2032   3
  -4  -1  -7 1411.52 152.781   1
  -4  -1  -8 742.313 124.147   1
   4   1   8 1006.41 102.672   3
  -4  -1  -9 4072.65 268.529   1
   4   1   9 4458.65 206.556   3
   4   1  10 40.3408 57.8807   3
  -4  -1 -10 41.7975 99.7027   1
  -4  -1 -11 155.437 106.953   1
  -4  -1 -12 664.585 157.325   1
   4   2 -10 435.810 132.338   2
   4   2  -9 617.467 140.493   2
   4   2  -8 1082.46 162.233   2
   4   2  -7 683.268 123.939   2
   4   2  -6 17.1593 76.1052   2
   4   2  -6 22.9147 19.6320   1
   4   2  -5 614.205 110.030   2
   4   2  -4 1751.78 156.434   2
   4   2  -3 8763.61 307.065   2
   4   2  -2 1092.84 113.060   2
  -4  -2   1 739.770 37.1546   1
   4   2  -1 813.084 96.3382   2
   4   2   0 1629.79 129.720   2
  -4  -2   0 1836.83 121.182   2
  -4  -2   0 1829.38 79.5367   1
  -4  -2  -1 859.041 90.0564   2
  -4  -2  -1 777.360 70.1538   1
   4   2   1 704.608 89.7054   2
   4   2   2 2310.22 141.792   2
  -4  -2  -2 2443.24 135.352   2
  -4  -2  -2 2522.08 130.758   1
  -4  -2  -3 873.511 96.0333   1
   4   2   3 641.505 83.4379   2
  -4  -2  -3 801.380 86.3618   2
  -4  -2  -4 848.323 101.857   1
   4   2   4 734.374 60.4913   3
   4   2   5 3293.74 121.829   3
  -4  -2  -5 3529.84 198.589   1
  -4  -2  -6 5254.06 254.019   1
   4   2   6 5090.68 154.802   3
  -4  -2  -7 3244.83 217.061   1
   4   2   7 3037.78 131.435   3
  -4  -2  -8 1610.24 172.909   1
   4   2   8 1510.50 101.098   3
   4   2   9 25.6152 43.5174   3
  -4  -2  -9-31.6475 89.3406   1
  -4  -2 -10 181.967 114.168   1
  -4  -2 -11 396.550 131.926   1
  -4  -2 -12 322.797 124.170   1
   4   3  -9 355.600 121.503   2
   4   3  -8 30.3005 90.6850   2
   4   3  -7 1288.44 164.243   2
   4   3  -6 162.628 92.8530   2
   4   3  -5 1070.59 139.811   2
   4   3  -5 1135.16 59.9352   1
   4   3  -5 1019.48 64.4446   1
   4   3  -4 427.377 98.6324   2
   4   3  -4 445.697 38.9210   1
   4   3  -3 1064.36 125.595   2
   4   3  -3 1041.91 52.1852   1
   4   3  -2 10664.5 324.361   2
   4   3  -2 10123.8 154.332   1
  -4  -3   1 17.5475 26.5110   1
   4   3  -1 7.28690 66.0326   2
   4   3  -1-37.8692 31.4179   1
   4   3   0 12828.4 329.725   2
  -4  -3   0 12749.2 218.459   1
   4   3   0 12668.8 219.427   1
   4   3   0 13496.5 306.018   3
   4   3   1 3510.41 181.323   2
  -4  -3  -1 3864.48 142.321   1
   4   3   1 3642.92 137.810   1
   4   3   2 2809.09 168.616   2
  -4  -3  -2 2819.62 137.458   1
   4   3   2 2754.34 131.116   1
   4   3   3 30.1943 65.7778   2
  -4  -3  -3-0.90801 68.4078   1
   4   3   3 83.3846 45.7196   1
  -4  -3  -4 2526.68 159.390   1
  -4  -3  -5 2208.21 154.623   1
   4   3   5 2067.50 72.9282   3
  -4  -3  -6 1417.57 144.100   1
   4   3   6 1137.48 53.4045   3
   4   3   7 839.803 50.5750   3
  -4  -3  -7 1061.86 143.077   1
  -4  -3  -8 1167.10 147.330   1
   4   3   8 1143.16 67.0391   3
  -4  -3  -9 1608.45 185.167   1
  -4  -3 -10 1192.84 169.220   1
  -4  -3 -11-25.5752 97.7083   1
  -4  -3 -12-9.00907 104.518   1
   4   4  -9 1215.66 174.317   2
   4   4  -8 1061.62 166.555   2
   4   4  -7 1440.20 167.861   2
   4   4  -6 1014.30 143.555   2
   4   4  -5 20.8420 73.9053   2
   4   4  -4 147.338 39.8106   1
   4   4  -4 133.516 78.0123   2
   4   4  -3 1192.94 130.062   2
   4   4  -3 1251.98 79.2941   1
   4   4  -2 1485.21 139.101   2
   4   4  -2 1575.51 85.5984   1
   4   4  -1 414.074 53.8283   1
   4   4  -1 426.206 89.6945   2
  -4  -4   1 351.212 49.6097   1
   4   4   0 1929.72 143.259   2
  -4  -4   0 1953.19 108.410   1
   4   4   0 1821.97 100.586   1
   4   4   1 8072.43 276.220   2
  -4  -4  -1 7777.77 215.214   1
   4   4   1 7875.19 213.750   1
   4   4   1 7894.93 227.975   3
   4   4   2 21354.7 441.244   2
  -4  -4  -2 21161.3 378.439   1
   4   4   2 21666.8 374.634   1
   4   4   2 21275.2 330.705   3
   4   4   3 4118.59 206.797   2
  -4  -4  -3 4331.90 190.860   1
   4   4   3 4127.38 125.937   3
  -4  -4  -4 10931.9 322.093   1
   4   4   4 10338.1 158.305   3
  -4  -4  -5 1346.48 137.139   1
  -4  -4  -6 224.938 85.5375   1
  -4  -4  -7 336.434 103.168   1
  -4  -4  -8 2069.78 186.935   1
  -4  -4  -9 1687.38 181.541   1
  -4  -4 -10 268.041 115.656   1
  -4  -4 -11 1019.03 166.665   1
  -4  -4 -12 273.749 138.207   1
   4   5  -8 1808.81 191.887   2
   4   5  -7 170.000 94.7146   2
   4   5  -6 2476.68 200.818   2
   4   5  -5 2908.43 207.887   2
   4   5  -4 86.3044 74.7231   2
   4   5  -3 90.7325 47.7806   1
   4   5  -3 97.3279 83.3320   2
   4   5  -2 11.0070 40.1792   1
   4   5  -2 70.9458 71.8586   2
   4   5  -1 727.305 75.7868   1
   4   5  -1 705.157 103.370   2
  -4  -5   0 3504.44 156.135   1
   4   5   0 3847.06 203.301   2
   4   5   0 3850.98 159.045   1
   4   5   1 4652.97 222.382   2
  -4  -5  -1 4687.04 188.782   1
   4   5   1 4266.40 177.101   1
   4   5   2 3755.43 205.615   2
  -4  -5  -2 3825.50 180.119   1
   4   5   2 3760.86 153.501   3
   4   5   3 20.6878 35.3992   3
   4   5   3-93.0946 71.8383   2
  -4  -5  -3-36.8418 64.4954   1
  -4  -5  -4 1833.24 150.275   1
   4   5   4 1647.65 72.4962   3
  -4  -5  -5 1727.95 160.471   1
  -4  -5  -6 749.902 123.096   1
  -4  -5  -7-16.2523 87.3879   1
  -4  -5  -8 2829.62 218.115   1
  -4  -5  -9 168.549 106.487   1
  -4  -5 -10 562.183 136.794   1
  -4  -5 -11 34.0473 117.294   1
  -4  -5 -12 469.102 145.249   1
   4   6  -8 713.352 131.259   2
   4   6  -7 2314.00 210.547   2
   4   6  -6 99.5677 94.9537   2
   4   6  -5 101.681 84.2394   2
   4   6  -4 3097.74 214.741   2
   4   6  -3 51.1550 76.9966   2
   4   6  -2 1660.77 153.859   2
   4   6  -1 1561.86 147.496   2
  -4  -6   0 1050.35 103.996   1
   4   6   0 1243.85 132.560   2
  -4  -6  -1 651.077 98.0696   1
   4   6   1 595.572 100.553   2
   4   6   2 162.068 51.6799   3
  -4  -6  -2 197.472 79.9408   1
   4   6   2 113.316 69.5452   2
   4   6   3 412.042 57.8084   3
  -4  -6  -3 497.940 99.9561   1
   4   6   3 288.430 78.5680   2
   4   6   4 127.649 36.6530   3
  -4  -6  -4 198.430 84.9500   1
  -4  -6  -5 1313.55 145.522   1
   4   6   5 855.467 40.9970   3
  -4  -6  -6 1369.32 153.221   1
  -4  -6  -7 1473.31 174.179   1
  -4  -6  -8 1627.53 179.835   1
  -4  -6  -9 516.507 129.767   1
  -4  -6 -10 243.144 117.555   1
  -4  -6 -11 276.266 129.377   1
  -4  -6 -12 183.716 122.780   1
   4   7  -6 25.7042 81.6344   2
   4   7  -5 145.850 98.7263   2
   4   7  -4 436.174 112.238   2
   4   7  -3 3322.27 219.273   2
   4   7  -2 502.852 97.7036   2
   4   7  -1 4486.80 239.511   2
  -4  -7   1 4396.89 256.276   3
  -4  -7   0 1938.36 147.416   1
   4   7   0 2287.16 175.817   2
  -4  -7   0 2331.95 178.306   3
  -4  -7  -1 306.139 86.7226   1
  -4  -7  -1 429.608 89.5878   3
   4   7   1 529.044 101.369   2
  -4  -7  -2 624.630 109.307   1
   4   7   2 452.534 95.2469   2
  -4  -7  -3 662.335 111.683   1
   4   7   4 519.849 61.4529   3
  -4  -7  -4 510.523 108.213   1
  -4  -7  -5 323.316 103.694   1
  -4  -7  -6 922.257 152.692   1
  -4  -7  -7 984.901 149.378   1
  -4  -7  -8 676.610 138.725   1
  -4  -7  -9 847.413 154.229   1
  -4  -7 -10 223.535 125.049   1
  -4  -7 -11 497.210 154.963   1
   4   8  -4 241.478 88.6478   2
   4   8  -3 881.219 124.659   2
  -4  -8   2 247.141 106.761   3
   4   8  -2 136.959 79.1208   2
  -4  -8   1 849.850 139.323   3
   4   8  -1 783.841 119.684   2
  -4  -8   0 786.377 127.068   3
   4   8   0 955.750 128.109   2
   4   8   1 1905.95 168.005   2
  -4  -8  -1 1652.31 154.111   1
  -4  -8  -1 2124.62 172.141   3
  -4  -8  -2-24.9012 73.1967   1
  -4  -8  -2 81.9950 75.1220   3
   4   8   2-87.6774 78.4645   2
  -4  -8  -3 2134.62 179.167   1
  -4  -8  -3 2202.97 148.353   3
  -4  -8  -4 1366.33 162.509   1
  -4  -8  -5 778.977 130.944   1
  -4  -8  -6 127.050 99.9765   1
  -4  -8  -7 127.421 109.107   1
  -4  -8  -8-3.54341 99.5999   1
  -4  -8  -9-73.9258 113.649   1
  -4  -8 -10 1014.20 167.549   1
  -4  -8 -11 222.776 123.234   1
  -4  -9   3 320.678 129.383   3
  -4  -9   2 382.814 114.305   3
  -4  -9   1 47.3908 90.7211   3
   4   9  -1-19.2141 68.9209   2
  -4  -9   0 103.531 85.6692   3
   4   9   0-59.3983 72.7416   2
  -4  -9  -1 572.899 114.017   3
   4   9   1 323.334 92.5648   2
  -4  -9  -2 378.292 103.835   1
  -4  -9  -2 605.520 107.913   3
  -4  -9  -3 2270.40 201.110   1
  -4  -9  -3 2548.55 176.629   3
  -4  -9  -4 697.665 131.250   1
  -4  -9  -4 505.135 83.2897   3
  -4  -9  -5 370.234 118.679   1
  -4  -9  -6 304.879 112.231   1
  -4  -9  -7 116.984 101.083   1
  -4  -9  -8 2176.70 225.541   1
  -4  -9  -9 192.915 122.551   1
  -4  -9 -10 203.115 144.410   1
  -4 -10   1 744.277 150.689   3
  -4 -10   0 414.600 120.593   3
  -4 -10  -1 1464.80 170.270   3
  -4 -10  -2 390.818 104.232   3
  -4 -10  -2 57.8141 99.4644   1
  -4 -10  -3 50.4982 84.3819   1
  -4 -10  -3 69.8399 69.8145   3
  -4 -10  -4 68.7994 97.4721   1
  -4 -10  -5 171.030 101.283   1
  -4 -10  -6 436.795 135.295   1
  -4 -10  -7 101.703 113.185   1
  -4 -10  -8-53.6883 122.889   1
  -4 -11   0 446.016 128.340   3
  -4 -11  -1 307.135 101.739   3
  -4 -11  -3 605.580 134.468   1
  -4 -11  -4 125.499 107.581   1
  -4 -11  -5 149.696 112.445   1
  -4 -11  -6-152.987 117.343   1
   5  -8  -7-9.86146 89.4215   3
   5  -8  -6 418.859 126.227   3
   5  -8  -5 8.25511 88.4844   3
   5  -8  -4 1113.99 176.172   3
   5  -8  -3 386.065 129.669   3
   5  -8  -2 359.938 127.673   3
   5  -8  -1 980.059 167.003   3
   5  -8   0-32.4089 102.076   3
   5  -7  -8 119.983 93.1120   3
   5  -7  -7 99.2184 98.8759   3
   5  -7  -6 276.361 114.465   3
   5  -7  -5 408.370 117.778   3
   5  -7  -4 490.058 122.259   3
   5  -7  -3 1042.76 160.086   3
   5  -7  -2 148.056 101.811   3
   5  -7  -1 144.818 102.368   3
   5  -7   0 790.615 158.968   3
   5  -7   1 1303.48 186.252   3
   5  -7   2 695.238 145.602   3
   5  -7   3 466.788 141.799   3
   5  -6  -9 686.666 139.222   2
   5  -6  -8 79.3652 87.1074   2
   5  -6  -7 1128.13 148.111   2
   5  -6  -6 1282.44 173.467   3
   5  -6  -6 1438.91 152.197   2
   5  -6  -5 444.835 91.5160   2
   5  -6  -5 606.179 132.170   3
   5  -6  -4 256.280 102.429   3
   5  -6  -3-34.9043 87.4029   3
   5  -6  -2 805.293 139.421   3
   5  -6  -1 470.654 122.925   3
   5  -6   0 1222.98 164.224   3
   5  -6   1 1796.49 198.405   3
   5  -6   2 76.6775 96.0641   3
   5  -6   3 399.921 128.074   3
   5  -6   4 350.934 121.387   3
   5  -6   5 396.138 125.999   3
   5  -5  -9 2035.82 217.311   2
   5  -5  -8 476.063 118.702   2
   5  -5  -7 27.7882 91.0554   2
   5  -5  -6 157.045 79.7504   2
   5  -5  -5 231.482 85.3450   2
   5  -5  -4 4363.61 214.491   2
   5  -5  -4 4285.54 266.883   3
   5  -5  -3 307.996 63.5876   2
   5  -5  -3 448.289 123.031   3
   5  -5  -2 1717.78 105.040   2
   5  -5  -2 1417.24 161.991   3
   5  -5  -1 43.5491 80.3157   3
   5  -5   0 465.548 118.228   3
   5  -5   1 488.011 117.344   3
   5  -5   2 1667.91 183.723   3
   5  -5   3 212.554 97.7771   3
   5  -5   4 518.670 123.745   3
   5  -5   5 332.420 110.702   3
   5  -5   6 479.036 134.882   3
   5  -5   7 404.568 133.666   3
   5  -4  -9 669.503 147.219   2
   5  -4  -8 246.276 99.9023   2
   5  -4  -7 93.6828 89.0489   2
   5  -4  -6 85.9925 73.8880   2
   5  -4  -5 191.190 85.2556   2
   5  -4  -4 673.714 97.9854   2
   5  -4  -3 3368.67 174.091   2
   5  -4  -2 1495.12 163.048   3
   5  -4  -2 1443.65 108.531   2
   5  -4  -1 3214.71 134.750   2
   5  -4  -1 2854.55 208.873   3
   5  -4   0 4759.91 129.759   2
   5  -4   0 4512.92 254.327   3
   5  -4   1 3131.34 221.331   3
   5  -4   2 701.318 131.876   3
   5  -4   3 583.219 128.621   3
   5  -4   4 1041.21 149.280   3
   5  -4   5 789.960 139.236   3
   5  -4   6 1467.74 173.699   3
   5  -4   7 689.281 148.668   3
   5  -4   8 469.036 126.350   3
   5  -3 -10 1040.31 179.517   2
   5  -3  -9 1627.14 207.409   2
   5  -3  -8 1963.18 205.855   2
   5  -3  -7 699.370 131.634   2
   5  -3  -6 270.835 89.3350   2
   5  -3  -5 113.014 75.9861   2
   5  -3  -4 1088.68 118.116   2
   5  -3  -3 1661.76 134.506   2
   5  -3  -2 2875.28 153.578   2
   5  -3  -1 2995.21 139.518   2
   5  -3   0 2548.35 115.879   2
   5  -3   0 2277.67 183.276   3
  -5   3  -1 496.034 47.9561   2
   5  -3   1 548.003 54.0218   2
   5  -3   1 381.548 94.8714   3
  -5   3  -2 2339.57 81.6117   2
   5  -3   2 3002.84 203.974   3
  -5   3  -3 4898.97 107.679   2
   5  -3   3 5707.95 281.113   3
   5  -3   4 1282.27 155.168   3
   5  -3   5 418.749 103.844   3
   5  -3   6 1910.65 185.406   3
   5  -3   7 663.435 140.649   3
   5  -3   8 212.785 101.882   3
   5  -3   9-0.10952 84.0785   3
   5  -3  10 414.672 118.166   3
   5  -2 -10 321.424 149.171   2
   5  -2  -9 2125.17 218.534   2
   5  -2  -8 130.041 93.1953   2
   5  -2  -7 2786.04 233.487   2
   5  -2  -6 1253.16 155.533   2
   5  -2  -5 1426.72 157.447   2
  -5   2   4 499.199 61.5784   1
   5  -2  -4 323.762 88.7765   2
   5  -2  -3 238.952 73.5489   2
  -5   2   3 413.413 63.9481   1
   5  -2  -2 293.395 71.3170   2
  -5   2   2 355.665 63.4715   1
  -5   2   1 1468.31 106.477   1
   5  -2  -1 1466.86 110.732   2
  -5   2   1 1445.64 103.128   2
   5  -2   0 2356.29 123.331   2
  -5   2   0 2219.50 118.543   2
   5  -2   1 2492.29 119.375   2
  -5   2  -1 2211.87 110.794   2
   5  -2   1 2584.90 175.094   3
   5  -2   2 725.302 110.858   3
   5  -2   2 756.842 66.0407   2
  -5   2  -2 694.054 62.0972   2
   5  -2   3 704.826 116.232   3
  -5   2  -3 575.799 56.8020   2
   5  -2   4 933.051 123.604   3
  -5   2  -4 821.849 68.6338   2
   5  -2   5 663.845 111.653   3
  -5   2  -5 793.339 68.4316   2
   5  -2   6 317.315 97.6957   3
   5  -2   7 3981.01 247.313   3
   5  -2   8 80.8670 88.2139   3
   5  -2   9 92.3191 82.3084   3
   5  -2  10 24.0185 85.7843   3
   5  -1  -9 112.125 110.125   2
   5  -1  -8 543.173 135.511   2
   5  -1  -7 1224.42 164.324   2
   5  -1  -6 410.726 99.4946   2
   5  -1  -5 11107.4 392.666   2
  -5   1   5 10342.6 173.302   1
   5  -1  -4 1828.79 160.040   2
  -5   1   4 1647.15 75.7870   1
   5  -1  -3 719.736 107.243   2
  -5   1   3 784.259 59.9325   1
   5  -1  -2 353.852 82.2099   2
  -5   1   2 323.330 51.3200   1
  -5   1   1 4607.34 162.037   1
   5  -1  -1 4593.27 193.864   2
   5  -1   0 4285.26 176.391   2
  -5   1   0 4384.08 169.454   2
   5  -1   1 2615.72 133.165   2
  -5   1  -1 2518.50 124.010   2
   5  -1   2 1036.80 85.8471   2
  -5   1  -2 996.962 79.3154   2
   5  -1   2 1096.11 121.687   3
   5  -1   3-12.2660 64.6669   3
  -5   1  -3 6.66339 38.9570   2
   5  -1   4 458.286 90.1447   3
  -5   1  -4 331.449 57.6985   2
  -5   1  -5 1512.05 103.669   2
   5  -1   5 1440.17 137.406   3
   5  -1   6 86.0400 69.7162   3
   5  -1   7 1183.51 135.513   3
   5  -1   8 1276.65 144.995   3
   5  -1   9 1244.27 154.117   3
   5  -1  10 284.111 100.286   3
  -5   1 -10 414.085 132.931   1
   5   0  -9 1117.32 170.362   2
   5   0  -8 1267.50 172.428   2
   5   0  -7 356.392 117.359   2
   5   0  -6-11.8929 87.2224   2
   5   0  -5 1451.38 158.935   2
   5   0  -4 1340.60 140.518   2
   5   0  -3 56.9772 64.9531   2
  -5   0   2 1616.05 65.4707   1
   5   0  -2 1469.43 134.727   2
   5   0  -1 4349.15 194.246   2
  -5   0   0 70.6272 48.8631   2
   5   0   0 84.7775 58.3037   2
   5   0   1 10126.5 272.685   2
  -5   0  -1 10392.8 263.923   2
   5   0   2 7986.03 242.221   2
  -5   0  -2 7723.37 220.502   2
   5   0   3 577.752 76.5561   2
   5   0   3 643.072 90.7390   3
  -5   0  -3 567.473 73.6727   2
   5   0   4 505.737 85.6012   3
  -5   0  -4 396.219 63.0182   2
   5   0   5 114.290 64.2615   3
   5   0   6 636.681 97.3862   3
   5   0   7 1506.67 135.017   3
   5   0   8 3343.93 200.993   3
   5   0   9 1572.19 150.127   3
  -5   0  -9 1306.99 173.614   1
  -5   0 -10 15.8483 102.367   1
  -5   0 -11-4.26671 101.180   1
   5   1  -9 1944.08 215.129   2
   5   1  -8 395.672 121.800   2
   5   1  -7 915.699 153.646   2
   5   1  -6 1167.37 154.491   2
   5   1  -5 1394.50 162.343   2
   5   1  -4 149.822 85.8821   2
   5   1  -3 27.1649 64.8188   2
   5   1  -2 786.342 106.983   2
   5   1  -1 5026.71 217.500   2
  -5  -1   1 4817.09 110.731   1
   5   1   0 3557.96 182.748   2
  -5  -1   0 3527.45 124.410   1
   5   1   1 320.560 72.3333   2
   5   1   2 2725.88 157.950   2
   5   1   3 1561.11 120.042   2
   5   1   4 2124.61 126.446   3
   5   1   5 254.316 66.9800   3
   5   1   6 861.279 92.1511   3
  -5  -1  -6 797.029 118.959   1
  -5  -1  -7 795.502 126.561   1
   5   1   7 498.241 76.7183   3
   5   1   8 690.202 90.3861   3
  -5  -1  -8 713.291 134.731   1
  -5  -1  -9 1462.98 177.663   1
   5   1   9 1397.12 126.469   3
  -5  -1 -10 656.214 147.585   1
  -5  -1 -11 364.401 136.982   1
   5   2  -9 284.216 115.659   2
   5   2  -8 1803.13 204.955   2
   5   2  -7 512.500 128.127   2
   5   2  -6 245.892 112.581   2
   5   2  -5 295.786 113.030   2
   5   2  -4 1913.49 169.607   2
   5   2  -3 5100.07 256.680   2
   5   2  -2 2570.99 174.043   2
   5   2  -1 1293.98 132.470   2
  -5  -2   1 1089.73 45.1382   1
  -5  -2   0 183.710 39.4355   1
   5   2   0 254.912 78.1068   2
  -5  -2  -1 104.350 43.4849   1
   5   2   1 69.7286 66.1419   2
  -5  -2  -2 916.658 90.8128   1
   5   2   2 862.338 109.985   2
   5   2   3 1539.89 129.173   2
  -5  -2  -3 1615.96 129.308   1
   5   2   4 4446.06 163.561   3
  -5  -2  -4 4566.99 214.282   1
   5   2   5 3370.01 142.775   3
  -5  -2  -5 3358.04 201.531   1
   5   2   6 38.5035 37.9899   3
  -5  -2  -6 71.9977 75.9437   1
   5   2   7 4149.93 163.475   3
  -5  -2  -7 4274.64 255.981   1
   5   2   8-4.61112 41.3131   3
  -5  -2  -8 68.5120 98.6971   1
  -5  -2  -9-110.464 102.845   1
  -5  -2 -10 899.150 158.781   1
  -5  -2 -11 1484.84 198.392   1
   5   3  -9 207.386 110.420   2
   5   3  -8 284.703 118.645   2
   5   3  -7 18.2258 98.5732   2
   5   3  -6 2330.82 212.313   2
   5   3  -5 18.3721 85.8809   2
   5   3  -4 456.322 104.556   2
   5   3  -3 2260.74 179.806   2
   5   3  -2 771.410 120.902   2
  -5  -3   1 3699.12 96.1832   1
   5   3  -1 4197.12 220.365   2
   5   3   0 2938.55 187.569   2
  -5  -3   0 2880.29 107.359   1
   5   3   1 1101.28 125.839   2
  -5  -3  -1 1192.26 89.3027   1
  -5  -3  -2 199.599 59.1049   1
   5   3   2 246.346 79.3433   2
  -5  -3  -3 873.059 92.3075   1
   5   3   3 1043.73 123.070   2
   5   3   4 1192.73 127.088   2
  -5  -3  -4 1530.03 136.887   1
   5   3   5 462.713 50.7652   3
  -5  -3  -5 442.444 93.2254   1
  -5  -3  -6 774.480 124.461   1
   5   3   6 672.694 56.4061   3
  -5  -3  -7 733.103 133.627   1
   5   3   7 774.314 60.3382   3
  -5  -3  -8 1556.62 172.260   1
   5   3   8 1491.14 82.2875   3
  -5  -3  -9 254.342 111.234   1
  -5  -3 -10 359.162 120.876   1
  -5  -3 -11 5546.42 339.526   1
  -5  -3 -12-63.0554 114.006   1
   5   4  -8 750.828 152.019   2
   5   4  -7 1817.63 193.774   2
   5   4  -6 1987.82 193.026   2
   5   4  -5 938.573 132.982   2
   5   4  -4 34.6409 79.3427   2
   5   4  -3-9.68583 23.1579   1
   5   4  -3-28.9282 75.4820   2
   5   4  -2 56.3379 79.6179   2
   5   4  -2 51.2615 24.4901   1
  -5  -4   1 3013.02 111.207   1
   5   4  -1 3249.98 199.236   2
   5   4  -1 3037.15 113.221   1
   5   4   0 2310.38 173.606   2
  -5  -4   0 2152.53 108.275   1
   5   4   0 2121.91 106.343   1
   5   4   1 9834.23 325.451   2
  -5  -4  -1 9350.46 233.971   1
   5   4   1 9098.42 232.673   1
  -5  -4  -2 884.504 93.2527   1
   5   4   2 756.752 114.066   2
   5   4   2 806.445 83.0627   1
   5   4   2 800.108 80.7404   3
   5   4   3 3102.96 194.651   2
  -5  -4  -3 3224.52 169.235   1
   5   4   3 3191.95 131.401   3
   5   4   4 252.717 79.0734   2
  -5  -4  -4 190.285 75.6902   1
  -5  -4  -5 162.159 78.1237   1
   5   4   5 241.467 35.4996   3
   5   4   6 91.6846 17.1770   3
  -5  -4  -6 50.1734 84.5063   1
  -5  -4  -7 338.289 100.844   1
  -5  -4  -8 347.186 108.969   1
  -5  -4  -9 864.823 137.440   1
  -5  -4 -10 409.098 113.131   1
  -5  -4 -11 365.085 127.068   1
  -5  -4 -12 446.853 132.414   1
   5   5  -8 182.739 105.661   2
   5   5  -7 1030.52 154.501   2
   5   5  -6 3850.73 265.142   2
   5   5  -5 1206.02 153.912   2
   5   5  -4 1211.27 154.306   2
   5   5  -3 106.768 82.6511   2
   5   5  -2 186.229 43.9101   1
   5   5  -2 184.080 89.2366   2
   5   5  -1 10.0912 37.4025   1
   5   5  -1-25.1576 74.1850   2
   5   5   0 1348.10 145.321   2
  -5  -5   0 1512.97 105.318   1
   5   5   0 1280.33 91.4728   1
   5   5   1 1092.95 131.118   2
  -5  -5  -1 1055.06 100.516   1
   5   5   1 1053.28 92.5633   1
   5   5   2 8892.57 329.448   2
  -5  -5  -2 9068.19 271.186   1
   5   5   2 9125.70 251.356   3
   5   5   3 5903.01 271.484   2
  -5  -5  -3 5849.16 238.905   1
   5   5   3 5564.49 181.399   3
  -5  -5  -4 371.825 101.369   1
   5   5   4 173.386 39.3496   3
   5   5   4 106.628 76.3541   2
   5   5   5 40.4512 17.7608   3
  -5  -5  -5 161.733 87.5428   1
  -5  -5  -6 313.922 101.082   1
  -5  -5  -7 1408.08 159.931   1
  -5  -5  -8 1048.24 148.159   1
  -5  -5  -9 990.044 152.139   1
  -5  -5 -10 364.327 123.111   1
  -5  -5 -11 265.611 126.342   1
  -5  -5 -12 169.287 123.674   1
   5   6  -7 88.7270 100.645   2
   5   6  -6 1204.18 167.627   2
   5   6  -5 2443.96 224.852   2
   5   6  -4 522.914 116.912   2
   5   6  -3 659.639 121.891   2
   5   6  -2 400.657 101.665   2
   5   6  -1 728.558 123.180   2
  -5  -6   0 961.940 97.1950   1
   5   6   0 1290.76 151.961   2
  -5  -6  -1 544.586 89.8710   1
   5   6   1 481.784 103.713   2
  -5  -6  -2 667.736 98.5241   1
   5   6   2 575.800 108.566   2
   5   6   3 587.457 68.3113   3
  -5  -6  -3 736.488 110.250   1
   5   6   3 634.808 113.301   2
  -5  -6  -4 1672.14 156.536   1
   5   6   4 1619.52 91.5257   3
   5   6   5 537.871 41.3287   3
  -5  -6  -5 701.423 119.528   1
  -5  -6  -6 4541.51 255.644   1
  -5  -6  -7 73.4326 96.7249   1
  -5  -6  -8 421.472 124.197   1
  -5  -6  -9 1086.74 172.319   1
  -5  -6 -10 1498.60 199.284   1
  -5  -6 -11 54.8095 107.457   1
   5   7  -6-3.22313 86.2606   2
   5   7  -5 120.228 97.0153   2
   5   7  -4 1522.99 182.157   2
   5   7  -3 239.628 97.7384   2
   5   7  -2 4353.97 258.890   2
   5   7  -1 305.592 99.7880   2
   5   7   0 57.3461 90.0583   2
  -5  -7   0-24.3904 60.2154   1
  -5  -7  -1 351.377 82.9044   1
   5   7   1 303.274 96.4632   2
  -5  -7  -2 1147.80 135.806   1
   5   7   2 1018.79 137.678   2
   5   7   3 2503.99 197.895   2
  -5  -7  -3 2604.12 184.836   1
  -5  -7  -4 499.959 111.777   1
  -5  -7  -5 95.9877 102.404   1
  -5  -7  -6 211.021 109.702   1
  -5  -7  -7-11.8834 98.3706   1
  -5  -7  -8 522.050 132.302   1
  -5  -7  -9 151.193 112.674   1
  -5  -7 -10 2007.23 222.326   1
  -5  -7 -11 338.855 135.106   1
   5   8  -5 700.183 131.442   2
   5   8  -4 635.311 124.050   2
   5   8  -3-3.04752 79.4357   2
   5   8  -2 1999.53 192.103   2
   5   8  -1 44.9572 82.5137   2
   5   8   0 403.138 110.534   2
  -5  -8  -1-25.3999 67.2824   1
   5   8   1 69.6230 80.3314   2
  -5  -8  -2 1058.89 139.533   1
   5   8   2 1046.40 143.927   2
  -5  -8  -3 815.470 133.971   1
   5   8   3 671.485 117.287   2
  -5  -8  -4 2209.30 188.330   1
  -5  -8  -5 927.954 143.684   1
  -5  -8  -6 469.404 118.588   1
  -5  -8  -7 23.4238 93.6775   1
  -5  -8  -8 204.233 113.224   1
  -5  -8  -9-153.117 118.008   1
  -5  -8 -10 80.8599 113.302   1
   5   9  -2 186.392 101.687   2
   5   9  -1 707.921 131.305   2
   5   9   0 50.1570 89.1275   2
  -5  -9  -1 24.4757 83.4930   1
   5   9   1 82.7994 76.9725   2
  -5  -9  -2 570.168 121.413   1
   5   9   2 519.950 111.435   2
  -5  -9  -3 164.680 93.4795   1
  -5  -9  -4 967.673 156.495   1
  -5  -9  -5 1902.14 195.606   1
  -5  -9  -6 111.416 99.4244   1
  -5  -9  -7 221.913 122.907   1
  -5  -9  -8 95.1843 115.800   1
  -5  -9  -9 27.4342 111.765   1
   5  10   0 200.775 87.2845   2
   5  10   1 921.185 142.608   2
  -5 -10  -2 54.6071 82.0055   1
  -5 -10  -3 694.855 135.043   1
  -5 -10  -4 60.5621 88.4974   1
  -5 -10  -5 276.431 123.108   1
  -5 -10  -6 357.224 124.164   1
  -5 -10  -7 289.322 111.077   1
  -5 -10  -8 1091.51 182.813   1
  -5 -11  -3-24.4620 94.5376   1
  -5 -11  -4 151.441 109.681   1
  -5 -11  -5 15.1177 98.2741   1
  -5 -11  -6 155.405 123.765   1
   6  -7  -6 673.933 136.348   3
   6  -7  -5 168.740 107.407   3
   6  -7  -4 213.578 116.650   3
   6  -7  -3 128.517 117.418   3
   6  -7  -2 599.236 150.105   3
   6  -7  -1 97.8324 107.749   3
   6  -7   0 1002.52 167.695   3
   6  -6  -6 742.160 154.931   3
   6  -6  -5 439.518 140.008   3
   6  -6  -4 628.685 132.629   3
   6  -6  -3 181.799 107.172   3
   6  -6  -2 812.055 145.617   3
   6  -6  -1 225.083 112.263   3
   6  -6   0 708.727 144.937   3
   6  -6   1 817.221 149.584   3
   6  -6   2 743.453 154.554   3
   6  -6   3 254.712 112.273   3
   6  -5  -9 354.279 118.556   2
   6  -5  -8 499.824 126.601   2
   6  -5  -7 300.224 90.8452   2
   6  -5  -6 34.6924 73.3130   2
   6  -5  -5 185.359 78.5604   2
   6  -5  -4 61.7106 58.8222   2
   6  -5  -4 75.0223 94.6204   3
   6  -5  -3 380.305 122.702   3
   6  -5  -2 1349.16 174.360   3
   6  -5  -1 1532.89 172.140   3
   6  -5   0 1431.00 180.132   3
   6  -5   1 378.454 121.569   3
   6  -5   2 518.711 128.582   3
   6  -5   3 412.989 121.213   3
   6  -5   4 114.916 91.4545   3
   6  -5   5 24.1749 93.3690   3
   6  -5   6 502.477 137.843   3
   6  -4  -9 1389.86 194.009   2
   6  -4  -8 662.793 136.068   2
   6  -4  -7 443.663 112.739   2
   6  -4  -6-125.616 99.0611   2
   6  -4  -5 99.3839 73.4805   2
   6  -4  -4 741.314 113.020   2
   6  -4  -3 95.6437 58.4395   2
   6  -4  -2 1910.99 127.020   2
   6  -4  -2 1643.24 183.451   3
   6  -4  -1 652.326 77.6932   2
   6  -4  -1 680.692 130.463   3
   6  -4   0 145.372 105.103   3
   6  -4   1 1266.59 161.672   3
   6  -4   2 1620.05 179.171   3
   6  -4   3 799.284 135.611   3
   6  -4   4 231.973 110.398   3
   6  -4   5 595.749 137.159   3
   6  -4   6 637.243 144.083   3
   6  -4   7 890.253 162.098   3
   6  -3  -9-125.720 122.281   2
   6  -3  -8 400.993 115.984   2
   6  -3  -7 574.691 130.698   2
   6  -3  -6 1345.21 157.662   2
   6  -3  -5 1143.89 147.930   2
   6  -3  -4 126.691 71.9345   2
   6  -3  -3 205.736 72.4638   2
   6  -3  -2 2537.38 154.504   2
   6  -3  -1 880.537 94.2288   2
   6  -3   0 1504.65 105.153   2
   6  -3   0 1675.68 169.100   3
   6  -3   1 805.614 72.1432   2
   6  -3   1 774.984 131.732   3
   6  -3   2 2184.36 192.103   3
   6  -3   3 81.0274 87.3721   3
   6  -3   4 1723.08 173.985   3
   6  -3   5 1988.74 194.657   3
   6  -3   6 1315.67 170.566   3
   6  -3   7 337.318 112.867   3
   6  -3   8 162.401 102.440   3
   6  -3   9-27.1559 96.0126   3
   6  -2  -9-80.9062 118.454   2
   6  -2  -8 697.006 140.679   2
   6  -2  -7 1059.86 159.968   2
   6  -2  -6-17.0457 80.3428   2
   6  -2  -5 939.444 137.896   2
   6  -2  -4 809.914 122.016   2
   6  -2  -3 953.362 117.729   2
   6  -2  -2 962.798 109.881   2
   6  -2  -1 1060.33 106.648   2
   6  -2   0 893.365 92.9267   2
   6  -2   1 1848.01 119.721   2
   6  -2   1 1873.19 168.487   3
  -6   2  -1 1662.54 104.073   2
   6  -2   2 4377.49 167.012   2
  -6   2  -2 4226.73 155.076   2
   6  -2   2 4286.08 241.038   3
   6  -2   3 356.376 95.7949   3
  -6   2  -3 365.367 53.9546   2
   6  -2   4 651.022 115.058   3
   6  -2   5 35.0545 72.2258   3
   6  -2   6 1737.77 171.956   3
   6  -2   7 248.317 99.3805   3
   6  -2   8 1216.31 164.435   3
   6  -2   9 371.984 120.473   3
   6  -2  10 255.833 102.319   3
   6  -1  -9 202.395 118.316   2
   6  -1  -8 186.120 103.879   2
   6  -1  -7 1310.34 180.066   2
   6  -1  -6 6864.90 344.829   2
   6  -1  -5 151.071 82.0624   2
   6  -1  -4 878.002 126.095   2
   6  -1  -3 131.550 77.0584   2
  -6   1   3 70.6112 36.1236   1
  -6   1   2 124.291 49.3359   1
   6  -1  -2 117.601 67.6672   2
  -6   1   1 1088.10 83.6046   1
   6  -1  -1 1062.13 116.432   2
   6  -1   0 3487.03 177.084   2
   6  -1   1 6578.69 229.362   2
   6  -1   2 5459.47 206.203   2
  -6   1  -2 5704.90 194.360   2
   6  -1   2 5797.29 259.806   3
  -6   1  -3 730.156 72.9393   2
   6  -1   3 720.623 105.676   3
   6  -1   4 44.7623 68.7376   3
   6  -1   5 56.2779 67.5556   3
   6  -1   6 97.0197 66.6205   3
   6  -1   7 197.188 88.4979   3
   6  -1   8 2220.16 189.823   3
   6  -1   9 1014.26 141.835   3
   6   0  -8 363.789 122.603   2
   6   0  -7 1895.00 203.629   2
   6   0  -6 2263.06 210.964   2
   6   0  -5 1319.11 158.614   2
   6   0  -4 126.641 86.1208   2
   6   0  -3 2286.21 181.951   2
  -6   0   2 129.017 34.6435   1
   6   0  -2 43.9495 69.8320   2
  -6   0   1 36.7151 32.8838   1
   6   0  -1 111.527 70.8866   2
   6   0   0 2462.91 161.908   2
   6   0   1 2477.00 155.435   2
   6   0   2 3793.19 186.550   2
   6   0   3 963.773 100.853   2
   6   0   3 1049.47 117.267   3
   6   0   4 1816.40 144.338   3
   6   0   5 291.098 86.5926   3
   6   0   6 191.136 75.0233   3
   6   0   7 205.812 77.6770   3
   6   0   8 525.445 98.9805   3
   6   0   9 1821.23 167.479   3
  -6   0  -9 1739.58 201.979   1
  -6   0 -10 717.736 154.920   1
   6   1  -8 162.540 105.759   2
   6   1  -7 619.212 144.528   2
   6   1  -6 478.002 133.866   2
   6   1  -5 1198.76 165.945   2
   6   1  -4 187.993 92.7468   2
   6   1  -3 6076.93 284.967   2
   6   1  -2 272.160 91.5112   2
  -6  -1   1 711.871 52.9939   1
   6   1  -1 705.246 108.834   2
  -6  -1   0 15.5599 36.3266   1
   6   1   0 21.9899 65.7272   2
   6   1   1 3761.91 194.473   2
   6   1   2 500.483 88.8996   2
   6   1   3 1496.39 129.097   2
   6   1   4 178.653 66.4573   3
   6   1   5 543.255 88.7770   3
   6   1   6 1561.67 127.673   3
  -6  -1  -6 1507.28 161.720   1
  -6  -1  -7 506.599 116.790   1
   6   1   7 694.517 93.9708   3
  -6  -1  -8 1322.84 177.138   1
   6   1   8 1319.91 123.818   3
  -6  -1  -9 508.449 132.731   1
  -6  -1 -10 520.467 137.395   1
   6   2  -8 269.892 114.600   2
   6   2  -7 271.425 120.198   2
   6   2  -6 483.712 125.104   2
   6   2  -5 250.645 102.597   2
   6   2  -4 719.633 131.139   2
   6   2  -3 578.022 117.260   2
   6   2  -2 2002.01 169.941   2
   6   2  -1 4067.73 228.690   2
  -6  -2   1 3925.07 87.7910   1
  -6  -2   0 562.849 53.8776   1
   6   2   0 636.225 108.694   2
   6   2   1 2200.95 166.719   2
  -6  -2  -1 2618.58 131.319   1
   6   2   2 251.236 93.0874   2
  -6  -2  -2 283.908 68.8609   1
   6   2   3 1921.77 154.614   2
  -6  -2  -3 1987.48 143.868   1
   6   2   4 3509.77 203.748   2
   6   2   4 3825.57 176.917   3
  -6  -2  -4 3809.52 210.319   1
   6   2   5 235.586 57.3488   3
  -6  -2  -5 356.089 99.3780   1
   6   2   6 3021.89 154.132   3
  -6  -2  -6 3075.69 216.001   1
   6   2   7 228.802 59.1172   3
  -6  -2  -7 176.405 100.475   1
   6   2   8 54.8333 49.2619   3
  -6  -2  -8-27.1830 91.2212   1
  -6  -2  -9 839.090 149.800   1
  -6  -2 -10 1791.96 208.922   1
  -6  -2 -11 518.449 154.606   1
   6   3  -8 780.279 167.429   2
   6   3  -7 1710.65 197.138   2
   6   3  -6 70.1950 92.1880   2
   6   3  -5 757.841 137.402   2
   6   3  -4 1717.66 181.314   2
   6   3  -3 2209.79 187.805   2
   6   3  -2-26.0941 78.3921   2
  -6  -3   1 201.695 26.3847   1
   6   3  -1 193.908 90.9738   2
   6   3   0 284.693 92.8852   2
  -6  -3   0 258.245 44.5793   1
  -6  -3  -1 807.524 80.3507   1
   6   3   1 797.836 112.259   2
   6   3   2 3967.39 224.513   2
  -6  -3  -2 3888.11 171.465   1
   6   3   3 3540.77 207.717   2
  -6  -3  -3 3715.76 184.542   1
   6   3   4 1518.57 148.655   2
  -6  -3  -4 1562.20 137.249   1
   6   3   5 1191.16 89.1590   3
  -6  -3  -5 1316.75 135.901   1
  -6  -3  -6 662.727 123.596   1
   6   3   6 686.829 70.3042   3
   6   3   7 243.574 46.7102   3
  -6  -3  -7 326.746 106.639   1
  -6  -3  -8 31.9383 94.1701   1
  -6  -3  -9 242.467 112.129   1
  -6  -3 -10 2474.60 240.573   1
  -6  -3 -11 302.419 126.981   1
   6   4  -7 963.847 159.332   2
   6   4  -6 1780.39 197.359   2
   6   4  -5 2066.91 199.873   2
   6   4  -4 1152.61 159.004   2
   6   4  -3 189.000 102.355   2
   6   4  -2 365.281 104.448   2
  -6  -4   1 36.2351 23.4583   1
   6   4  -1 46.0974 80.3244   2
   6   4   0 1664.05 158.059   2
  -6  -4   0 1482.19 88.4423   1
   6   4   1 1691.26 163.308   2
  -6  -4  -1 1583.02 107.430   1
  -6  -4  -2 103.769 58.6522   1
   6   4   2 81.5365 78.5407   2
   6   4   3 2952.52 205.310   2
  -6  -4  -3 3059.04 174.511   1
   6   4   4 729.658 120.236   2
  -6  -4  -4 607.122 99.5025   1
  -6  -4  -5 1199.72 137.658   1
   6   4   6 1067.65 68.7499   3
  -6  -4  -6 1129.70 142.017   1
  -6  -4  -7 360.495 93.5648   1
  -6  -4  -8-46.9672 98.5846   1
  -6  -4  -9 395.688 121.079   1
  -6  -4 -10 50.3841 108.634   1
  -6  -4 -11 71.9167 108.788   1
   6   5  -7 486.464 140.184   2
   6   5  -6 948.028 163.197   2
   6   5  -5 108.569 96.3491   2
   6   5  -4 1928.38 199.091   2
   6   5  -3 474.110 121.556   2
   6   5  -2 728.338 139.764   2
   6   5  -1 630.391 118.201   2
   6   5   0 158.772 45.7348   1
  -6  -5   0 237.680 56.1701   1
   6   5   0 303.372 99.1551   2
   6   5   1 7129.47 313.728   2
  -6  -5  -1 6814.13 219.265   1
   6   5   1 6552.12 208.401   1
  -6  -5  -2 1092.77 105.573   1
   6   5   2 1069.78 145.891   2
  -6  -5  -3 164.158 78.1148   1
   6   5   3-4.41990 39.0737   3
   6   5   3-1.21015 84.1764   2
  -6  -5  -4 896.917 116.971   1
   6   5   4 731.068 129.428   2
   6   5   4 807.057 71.7548   3
  -6  -5  -5 239.723 91.4063   1
  -6  -5  -6-12.8208 85.3738   1
  -6  -5  -7 369.739 106.471   1
  -6  -5  -8 1203.12 164.708   1
  -6  -5  -9 1427.23 184.306   1
  -6  -5 -10 665.127 148.873   1
  -6  -5 -11 214.334 119.871   1
   6   6  -6 435.902 124.073   2
   6   6  -5 754.594 145.612   2
   6   6  -4 196.164 105.748   2
   6   6  -3 830.897 138.995   2
   6   6  -2 636.029 128.121   2
   6   6  -1 422.477 113.479   2
  -6  -6   0 117.253 53.5762   1
   6   6   0 237.121 102.891   2
   6   6   1 1820.46 175.365   2
  -6  -6  -1 1958.70 137.323   1
   6   6   2 2263.92 196.091   2
  -6  -6  -2 2254.93 155.883   1
   6   6   3 1956.26 185.411   2
  -6  -6  -3 1747.66 149.221   1
   6   6   4 376.683 102.838   2
  -6  -6  -4 244.786 80.5538   1
  -6  -6  -5 5512.13 272.627   1
  -6  -6  -6 1242.54 159.022   1
  -6  -6  -7 401.759 115.763   1
  -6  -6  -8 762.346 138.006   1
  -6  -6  -9 923.111 163.408   1
  -6  -6 -10 162.185 124.209   1
  -6  -6 -11-39.7348 105.208   1
   6   7  -5 997.324 160.217   2
   6   7  -4 1030.61 160.071   2
   6   7  -3 252.404 103.658   2
   6   7  -2 1316.77 166.664   2
   6   7  -1 302.913 102.918   2
   6   7   0 195.329 97.2484   2
  -6  -7   0 80.8159 52.6977   1
  -6  -7  -1-54.8433 60.5607   1
   6   7   1 5.59956 83.3182   2
  -6  -7  -2 247.991 89.3455   1
   6   7   2 50.5337 83.3378   2
  -6  -7  -3 734.435 114.966   1
   6   7   3 573.796 119.537   2
   6   7   4 1162.44 159.214   2
  -6  -7  -4 1381.24 149.701   1
  -6  -7  -5 5502.96 276.214   1
  -6  -7  -6 381.968 107.267   1
  -6  -7  -7 20.3522 88.8224   1
  -6  -7  -8 265.808 122.794   1
  -6  -7  -9 461.151 137.076   1
  -6  -7 -10 140.777 117.184   1
   6   8  -4 1492.18 185.600   2
   6   8  -3 2896.45 240.124   2
   6   8  -2 62.6206 86.3889   2
   6   8  -1 970.077 155.691   2
   6   8   0 49.8467 89.0653   2
  -6  -8  -1-45.4957 61.7723   1
   6   8   1 50.3168 80.2781   2
  -6  -8  -2 39.2764 68.9188   1
   6   8   2 55.8204 84.1747   2
  -6  -8  -3 896.748 141.003   1
   6   8   3 641.798 133.484   2
  -6  -8  -4 1266.69 152.898   1
  -6  -8  -5 518.476 113.684   1
  -6  -8  -6 1486.08 174.756   1
  -6  -8  -7 279.759 112.658   1
  -6  -8  -8 89.5682 104.762   1
  -6  -8  -9-38.9170 115.054   1
  -6  -8 -10 3.45324 106.528   1
   6   9  -3 400.380 121.668   2
   6   9  -2 681.118 134.113   2
   6   9  -1 164.195 107.137   2
   6   9   0 3840.88 269.446   2
  -6  -9  -1-64.0967 81.7960   1
   6   9   1-2.49328 83.3084   2
  -6  -9  -2 89.3507 82.3831   1
   6   9   2 61.0162 88.1294   2
  -6  -9  -3 49.4818 90.2899   1
   6   9   3 71.7088 88.5010   2
  -6  -9  -4 817.354 148.183   1
  -6  -9  -5 645.611 133.939   1
  -6  -9  -6-24.8597 99.0887   1
  -6  -9  -7 677.428 149.589   1
  -6  -9  -8-61.0149 102.483   1
  -6  -9  -9 35.0682 103.287   1
   6  10  -1 141.304 86.2509   2
   6  10   0 1207.43 165.236   2
   6  10   1 83.2713 85.6545   2
   6  10   2 534.232 121.672   2
  -6 -10  -2 602.692 120.014   1
  -6 -10  -3 134.252 96.3378   1
  -6 -10  -4 848.774 149.684   1
  -6 -10  -5 280.791 114.192   1
  -6 -10  -6 261.588 128.147   1
  -6 -10  -7 10.1835 113.885   1
  -6 -10  -8 578.187 153.656   1
  -6 -11  -3-181.534 101.864   1
  -6 -11  -4 252.622 109.123   1
  -6 -11  -5 83.0953 100.264   1
   7  -6  -4 167.755 109.186   3
   7  -6  -3 558.695 145.081   3
   7  -6  -2-69.1023 95.4716   3
   7  -6  -1 185.878 112.818   3
   7  -6   0 1027.77 172.377   3
   7  -6   1 478.012 141.084   3
   7  -5  -4 26.5782 98.3032   3
   7  -5  -3 396.033 131.854   3
   7  -5  -2 737.120 146.487   3
   7  -5  -1 596.339 135.851   3
   7  -5   0 1207.42 168.836   3
   7  -5   1 1112.62 172.203   3
   7  -5   2 391.274 129.806   3
   7  -5   3 91.9918 104.496   3
   7  -5   4 133.707 121.799   3
   7  -4  -8 1540.05 190.029   2
   7  -4  -7 43.5231 83.9728   2
   7  -4  -6 1330.64 168.980   2
   7  -4  -5 462.090 110.181   2
   7  -4  -4 164.558 76.1228   2
   7  -4  -3 169.839 68.5921   2
   7  -4  -2 235.072 111.884   3
   7  -4  -1 733.342 147.450   3
   7  -4   0 190.081 100.547   3
   7  -4   1 1553.36 182.147   3
   7  -4   2 1049.22 159.134   3
   7  -4   3 113.226 102.487   3
   7  -4   4 939.043 169.359   3
   7  -4   5 190.072 104.583   3
   7  -4   6 112.592 93.1144   3
   7  -3  -8 353.167 118.029   2
   7  -3  -7-101.692 100.127   2
   7  -3  -6 671.379 130.394   2
   7  -3  -5 1583.38 171.820   2
   7  -3  -4 1634.06 155.467   2
   7  -3  -3 2124.19 164.136   2
   7  -3  -2 341.191 84.3407   2
   7  -3  -1 574.695 86.2667   2
   7  -3  -1 616.125 132.199   3
   7  -3   0-21.9520 48.1985   2
   7  -3   0 61.2414 95.6813   3
   7  -3   1 301.282 109.131   3
   7  -3   2 1230.32 167.625   3
   7  -3   3 1399.76 171.881   3
   7  -3   4 255.972 98.4081   3
   7  -3   5 603.734 134.326   3
   7  -3   6 190.571 99.8203   3
   7  -3   7 250.007 109.912   3
   7  -3   8 187.452 109.465   3
   7  -2  -8 66.8141 105.373   2
   7  -2  -7 145.129 110.246   2
   7  -2  -6 323.611 117.284   2
   7  -2  -5 492.958 117.922   2
   7  -2  -4 1288.23 146.097   2
   7  -2  -3 904.889 123.627   2
   7  -2  -2 880.307 118.778   2
   7  -2  -1 99.6330 61.2927   2
   7  -2   0 1563.03 126.000   2
   7  -2   1 701.475 90.4139   2
   7  -2   1 674.573 131.703   3
   7  -2   2 750.961 87.0942   2
   7  -2   2 897.579 128.931   3
   7  -2   3 6191.83 307.411   3
   7  -2   4 1057.73 147.954   3
   7  -2   5 409.333 111.575   3
   7  -2   6 42.0606 87.9426   3
   7  -2   7 3.57942 80.6287   3
   7  -2   8 144.687 98.7419   3
   7  -2   9 541.501 129.578   3
   7  -1  -8 696.107 155.145   2
   7  -1  -7 956.740 162.238   2
   7  -1  -6 221.124 103.452   2
   7  -1  -5 145.110 96.1638   2
   7  -1  -4 1145.75 148.794   2
   7  -1  -3 902.067 126.110   2
   7  -1  -2 11.5979 67.1847   2
   7  -1  -1 166.154 80.8985   2
   7  -1   0 853.207 105.731   2
   7  -1   1 3049.37 175.757   2
   7  -1   2 1623.33 129.854   2
   7  -1   2 1667.94 170.634   3
   7  -1   3 153.110 57.4749   2
   7  -1   3 113.178 78.1255   3
   7  -1   4 4907.59 265.119   3
   7  -1   5 505.016 105.953   3
   7  -1   6-50.0099 84.1525   3
   7  -1   7 940.996 132.021   3
   7  -1   8 228.363 93.8668   3
   7  -1   9 208.059 92.8586   3
   7   0  -8 2121.50 233.724   2
   7   0  -7 241.576 111.039   2
   7   0  -6 4761.07 301.671   2
   7   0  -5 1131.19 164.799   2
   7   0  -4 105.139 90.2151   2
   7   0  -3 55.0194 86.6045   2
   7   0  -2 244.862 96.7027   2
  -7   0   1 617.065 64.5954   1
   7   0  -1 880.907 126.555   2
   7   0   0 1670.45 149.349   2
   7   0   1 936.784 111.061   2
   7   0   2 480.294 86.8355   2
   7   0   3 616.492 96.3353   2
   7   0   3 743.018 112.337   3
   7   0   4 2362.94 175.374   3
   7   0   5 636.638 109.481   3
   7   0   6 197.273 79.9669   3
   7   0   7 126.950 78.2922   3
  -7   0  -8 1512.81 191.348   1
   7   0   8 1471.90 155.208   3
  -7   0  -9 1.91996 99.8549   1
   7   1  -7 301.743 127.151   2
   7   1  -6 3.22012 93.3269   2
   7   1  -5 619.183 135.613   2
   7   1  -4 6389.12 320.138   2
   7   1  -3 468.598 115.361   2
   7   1  -2 4797.77 263.146   2
  -7  -1   1 194.884 37.4995   1
   7   1  -1 232.266 86.1310   2
   7   1   0 571.399 102.787   2
  -7  -1   0 581.381 69.0146   1
  -7  -1  -1 182.325 60.9201   1
   7   1   1 138.606 78.0273   2
   7   1   2 829.124 116.898   2
   7   1   3 652.448 104.120   2
   7   1   4 144.965 67.0625   2
   7   1   4 445.060 93.4414   3
   7   1   5 1519.90 136.131   3
  -7  -1  -5 1523.10 160.216   1
   7   1   6 1128.92 122.071   3
  -7  -1  -6 1125.27 157.722   1
   7   1   7 115.555 64.1760   3
  -7  -1  -7 204.268 103.040   1
   7   1   8 977.161 121.855   3
  -7  -1  -8 861.563 153.608   1
  -7  -1  -9-30.0390 98.7371   1
  -7  -1 -10 514.700 151.095   1
   7   2  -7 107.405 107.354   2
   7   2  -6 140.085 114.148   2
   7   2  -5 742.724 142.918   2
   7   2  -4 2238.41 209.043   2
   7   2  -3 325.358 109.647   2
   7   2  -2 226.932 103.857   2
   7   2  -1 3018.12 218.336   2
  -7  -2   1 2709.99 78.2164   1
  -7  -2   0 772.594 65.8114   1
   7   2   0 795.716 124.810   2
  -7  -2  -1 99.8853 49.5384   1
   7   2   1-10.6872 74.4659   2
   7   2   2 3018.35 204.163   2
  -7  -2  -2 3421.05 175.283   1
   7   2   3 1127.85 132.134   2
  -7  -2  -3 1170.12 120.779   1
  -7  -2  -4 304.699 82.7792   1
   7   2   4 352.898 91.0977   2
  -7  -2  -5 267.560 88.4249   1
   7   2   5 263.683 66.2645   3
  -7  -2  -6 1161.43 151.984   1
   7   2   6 1287.34 118.357   3
   7   2   7 475.306 80.0982   3
  -7  -2  -7 286.006 100.626   1
  -7  -2  -8 126.401 103.942   1
  -7  -2  -9 299.490 118.208   1
  -7  -2 -10-190.313 117.695   1
   7   3  -7 279.874 128.963   2
   7   3  -6 604.309 142.494   2
   7   3  -5 864.068 145.052   2
   7   3  -4 1918.87 193.013   2
   7   3  -3 862.290 147.763   2
   7   3  -2 189.940 92.1998   2
   7   3  -1 446.140 107.631   2
   7   3   0 103.442 85.4525   2
  -7  -3   0 85.1705 36.5841   1
  -7  -3  -1 61.2332 46.6554   1
   7   3   1 17.4800 82.8434   2
   7   3   2 534.932 111.548   2
  -7  -3  -2 523.572 74.9089   1
   7   3   3 4760.17 254.246   2
  -7  -3  -3 4836.59 219.959   1
   7   3   4 2927.97 210.013   2
  -7  -3  -4 3055.14 196.211   1
   7   3   5 1822.93 128.643   3
  -7  -3  -5 1855.61 171.022   1
   7   3   6 3.79094 43.3225   3
  -7  -3  -6-43.0236 81.6608   1
   7   3   7 163.043 54.3071   3
  -7  -3  -7 101.763 94.8096   1
  -7  -3  -8 125.594 103.751   1
  -7  -3  -9 194.538 117.152   1
  -7  -3 -10 842.121 168.361   1
   7   4  -6 261.977 117.940   2
   7   4  -5 846.796 149.034   2
   7   4  -4 1985.43 210.530   2
   7   4  -3 2932.40 239.446   2
   7   4  -2 957.505 148.229   2
   7   4  -1-41.0697 88.8743   2
  -7  -4   0 6.03123 34.7602   1
   7   4   0 40.8111 86.5579   2
   7   4   1 184.936 89.1659   2
  -7  -4  -1 25.9223 44.1698   1
  -7  -4  -2 578.616 83.8153   1
   7   4   2 675.679 128.049   2
   7   4   3 2523.32 202.424   2
  -7  -4  -3 2575.02 168.071   1
   7   4   4 885.662 132.025   2
  -7  -4  -4 1007.29 123.467   1
  -7  -4  -5 1153.51 138.432   1
  -7  -4  -6 251.157 83.8683   1
   7   4   6 523.245 65.5054   3
  -7  -4  -7 54.6579 95.6257   1
  -7  -4  -8 2541.54 223.470   1
  -7  -4  -9 278.274 116.134   1
  -7  -4 -10-163.027 135.229   1
   7   5  -6 156.058 120.187   2
   7   5  -5 1074.62 175.625   2
   7   5  -4 224.336 114.304   2
   7   5  -3 702.677 141.009   2
   7   5  -2 2358.45 209.373   2
   7   5  -1 1399.26 167.709   2
   7   5   0 2160.88 195.797   2
  -7  -5   0 2054.67 109.297   1
  -7  -5  -1 390.948 70.1956   1
   7   5   1 603.907 125.303   2
   7   5   2 8.72300 75.9633   2
  -7  -5  -2-27.6787 55.9016   1
  -7  -5  -3 175.620 71.5302   1
   7   5   3 28.6718 81.1222   2
  -7  -5  -4 1121.00 126.718   1
   7   5   4 889.541 137.963   2
  -7  -5  -5 1017.04 132.689   1
  -7  -5  -6 284.999 103.979   1
  -7  -5  -7 418.056 117.741   1
  -7  -5  -8 663.959 131.688   1
  -7  -5  -9 756.202 147.120   1
  -7  -5 -10 51.5174 106.977   1
   7   6  -5 91.9067 107.456   2
   7   6  -4-90.4978 97.8097   2
   7   6  -3 333.704 111.528   2
   7   6  -2 842.225 148.214   2
   7   6  -1 539.658 131.227   2
   7   6   0 1694.21 186.937   2
  -7  -6  -1 321.315 74.7053   1
   7   6   1 264.410 111.989   2
   7   6   2 1845.64 186.387   2
  -7  -6  -2 2017.01 142.842   1
   7   6   3-13.9739 86.6551   2
  -7  -6  -3 90.5217 73.7585   1
   7   6   4 363.475 109.846   2
  -7  -6  -4 477.042 101.112   1
  -7  -6  -5 113.843 91.8668   1
  -7  -6  -6 730.078 124.373   1
  -7  -6  -7 677.294 138.297   1
  -7  -6  -8 483.514 128.894   1
  -7  -6  -9-0.85808 96.1281   1
  -7  -6 -10 53.9358 107.106   1
   7   7  -4 184.932 116.336   2
   7   7  -3 382.765 129.118   2
   7   7  -2 223.682 115.063   2
   7   7  -1 532.554 132.273   2
   7   7   0 561.398 123.997   2
  -7  -7  -1 74.7375 54.3035   1
   7   7   1 135.873 101.334   2
  -7  -7  -2 234.973 82.2736   1
   7   7   2-2.25220 89.2825   2
  -7  -7  -3 1076.57 128.299   1
   7   7   3 1344.81 171.805   2
   7   7   4 730.501 132.522   2
  -7  -7  -4 744.392 122.784   1
  -7  -7  -5 115.654 95.9246   1
  -7  -7  -6 2161.09 199.236   1
  -7  -7  -7 774.372 150.477   1
  -7  -7  -8 169.741 114.574   1
  -7  -7  -9 84.5449 104.990   1
  -7  -7 -10 125.606 114.543   1
   7   8  -3 902.782 158.023   2
   7   8  -2 1351.30 186.108   2
   7   8  -1 420.817 131.712   2
   7   8   0 164.788 98.7303   2
   7   8   1 107.901 98.4232   2
  -7  -8  -2 80.7460 67.7719   1
   7   8   2-66.5159 88.6071   2
  -7  -8  -3 538.203 115.222   1
   7   8   3 293.656 118.014   2
   7   8   4 226.527 107.042   2
  -7  -8  -4 461.094 106.400   1
  -7  -8  -5 741.670 138.880   1
  -7  -8  -6-13.0674 104.665   1
  -7  -8  -7 2886.86 235.428   1
  -7  -8  -8 192.870 106.034   1
  -7  -8  -9 241.222 110.441   1
   7   9  -2 467.500 145.029   2
   7   9  -1 1019.65 167.566   2
   7   9   0 38.7676 94.2241   2
   7   9   1 284.297 111.611   2
   7   9   2 514.588 131.772   2
  -7  -9  -3 663.784 128.889   1
   7   9   3 370.703 126.237   2
  -7  -9  -4 427.180 115.566   1
  -7  -9  -5-121.897 102.359   1
  -7  -9  -6 118.871 107.946   1
  -7  -9  -7 392.876 127.384   1
  -7  -9  -8 200.701 124.022   1
   7  10   0-137.342 105.730   2
   7  10   1 659.135 142.051   2
   7  10   2 58.6231 102.508   2
  -7 -10  -3 342.413 102.138   1
  -7 -10  -4 195.079 96.8168   1
  -7 -10  -5 803.917 146.130   1
  -7 -10  -6 43.2132 109.834   1
  -7 -10  -7-176.199 123.638   1
  -7 -11  -5 78.7338 101.134   1
   8  -5  -2 175.692 121.573   3
   8  -5  -1 332.778 131.957   3
   8  -5   0 123.795 98.2885   3
   8  -4  -3 724.435 163.082   3
   8  -4  -2 403.466 139.985   3
   8  -4  -1 774.153 156.775   3
   8  -4   0-71.2079 92.6885   3
   8  -4   1 337.500 120.472   3
   8  -4   2 263.213 122.303   3
   8  -4   3 486.697 128.609   3
   8  -4   4 256.253 109.588   3
   8  -3  -7 21.4458 88.4784   2
   8  -3  -6 7.11138 82.4526   2
   8  -3  -5 487.962 116.851   2
   8  -3  -4 2194.84 194.113   2
   8  -3  -3 683.618 119.131   2
   8  -3  -2 545.043 102.168   2
   8  -3  -1 89.8127 110.302   3
   8  -3   0 38.9527 100.170   3
   8  -3   1 418.452 124.749   3
   8  -3   2 708.131 142.879   3
   8  -3   3 1706.43 197.211   3
   8  -3   4 711.596 138.186   3
   8  -3   5 141.596 107.236   3
   8  -3   6 76.1502 102.120   3
   8  -2  -7 79.3519 110.405   2
   8  -2  -6 921.699 151.875   2
   8  -2  -5 251.854 98.0333   2
   8  -2  -4 1321.78 157.443   2
   8  -2  -3 932.769 135.067   2
   8  -2  -2 200.400 78.7827   2
   8  -2  -1 538.418 98.1236   2
   8  -2   0 63.4268 66.3514   2
   8  -2   1 66.1568 59.0937   2
   8  -2   1 35.9584 89.2907   3
   8  -2   2 1262.32 158.769   3
   8  -2   3 2089.62 204.750   3
   8  -2   4 1235.82 175.807   3
   8  -2   5 587.580 126.316   3
   8  -2   6 323.659 115.183   3
   8  -2   7-52.9740 91.3371   3
   8  -2   8-3.14378 79.3459   3
   8  -1  -7 458.307 131.320   2
   8  -1  -6 283.814 116.376   2
   8  -1  -5 491.412 121.605   2
   8  -1  -4 834.811 136.106   2
   8  -1  -3 430.013 110.806   2
   8  -1  -2 1213.62 145.563   2
   8  -1  -1 1346.08 139.076   2
   8  -1   0 55.4061 67.5535   2
   8  -1   1 385.046 86.5491   2
   8  -1   2 115.274 66.9827   2
   8  -1   2 135.213 89.1748   3
   8  -1   3 2296.98 156.105   2
   8  -1   3 2290.42 193.465   3
   8  -1   4 61.4398 87.7375   3
   8  -1   5 2512.64 203.544   3
   8  -1   6 583.574 119.495   3
   8  -1   7 135.831 82.7436   3
   8  -1   8 210.246 98.9360   3
   8   0  -6 598.361 142.716   2
   8   0  -5 37.4953 101.237   2
   8   0  -4 627.284 130.294   2
   8   0  -3 265.798 105.119   2
   8   0  -2 932.078 134.217   2
   8   0  -1 1293.98 151.560   2
   8   0   0 1194.62 138.729   2
   8   0   1 887.805 123.345   2
   8   0   2 796.677 119.489   2
   8   0   3 311.470 83.0865   2
   8   0   3 300.701 106.520   3
   8   0   4 1105.74 138.449   3
   8   0   5 2188.89 186.593   3
   8   0   6 565.289 114.538   3
   8   0   7 1757.01 174.490   3
   8   0   8-22.2065 71.0489   3
  -8   0  -8 132.397 105.002   1
   8   1  -6 1251.68 182.593   2
   8   1  -5 846.158 150.276   2
   8   1  -4 651.517 133.021   2
   8   1  -3 1241.20 165.847   2
   8   1  -2 542.303 120.009   2
   8   1  -1 1349.24 155.176   2
   8   1   0 1590.39 159.985   2
  -8  -1   0 1511.13 105.812   1
  -8  -1  -1 664.331 87.1371   1
   8   1   1 588.423 110.872   2
   8   1   2 505.165 103.250   2
  -8  -1  -2 471.697 90.3733   1
  -8  -1  -3 208.442 73.5665   1
   8   1   3 219.677 85.2943   2
   8   1   4 184.283 82.1263   2
  -8  -1  -4 225.085 86.3071   1
   8   1   4 153.090 70.2458   3
   8   1   5 679.416 111.289   3
  -8  -1  -5 668.802 122.225   1
  -8  -1  -6 1254.23 158.942   1
   8   1   6 1332.91 138.400   3
   8   1   7 332.658 93.1896   3
  -8  -1  -7 238.921 100.726   1
  -8  -1  -8 109.507 103.723   1
  -8  -1  -9 822.961 165.549   1
   8   2  -6 229.103 123.952   2
   8   2  -5 580.835 136.453   2
   8   2  -4 1376.44 177.726   2
   8   2  -3 1325.03 183.340   2
   8   2  -2 2411.35 207.301   2
   8   2  -1 286.314 101.360   2
   8   2   0 60.2588 79.8095   2
  -8  -2  -1 1271.31 103.605   1
   8   2   1 1209.28 150.077   2
   8   2   2 775.722 128.806   2
  -8  -2  -2 900.274 108.335   1
  -8  -2  -3 1014.21 121.790   1
   8   2   3 861.524 128.030   2
  -8  -2  -4 180.667 82.3048   1
   8   2   4 140.338 77.6040   2
   8   2   4 359.522 91.8826   3
   8   2   5 1421.41 133.282   3
  -8  -2  -5 1476.40 157.390   1
   8   2   6 760.287 105.804   3
  -8  -2  -6 567.606 124.436   1
   8   2   7 811.182 107.167   3
  -8  -2  -7 869.928 154.194   1
  -8  -2  -8 164.791 104.011   1
  -8  -2  -9 18.6864 105.401   1
   8   3  -5 500.003 142.173   2
   8   3  -4 870.656 163.518   2
   8   3  -3 454.803 131.600   2
   8   3  -2 4564.00 287.171   2
   8   3  -1-28.8942 86.0304   2
   8   3   0 549.157 125.411   2
  -8  -3  -1 32.1514 47.2035   1
   8   3   1 38.0835 79.4213   2
   8   3   2 492.958 111.680   2
  -8  -3  -2 410.015 73.5700   1
  -8  -3  -3 263.070 75.8811   1
   8   3   3 249.098 94.0892   2
   8   3   4 2226.48 195.884   2
  -8  -3  -4 2280.23 174.396   1
  -8  -3  -5 585.406 113.021   1
   8   3   5 512.829 89.3677   3
   8   3   6 624.636 87.8562   3
  -8  -3  -6 800.118 140.550   1
  -8  -3  -7 410.868 121.973   1
  -8  -3  -8 250.823 112.390   1
  -8  -3  -9 644.055 153.515   1
  -8  -3 -10 29.8328 105.896   1
   8   4  -5-26.1932 103.716   2
   8   4  -4 496.981 135.421   2
   8   4  -3 1621.65 191.794   2
   8   4  -2 1110.79 175.859   2
   8   4  -1 698.943 139.656   2
   8   4   0 436.146 118.745   2
   8   4   1 91.0299 83.7116   2
  -8  -4  -1 16.0898 44.7470   1
  -8  -4  -2 1228.43 110.045   1
   8   4   2 1111.90 156.201   2
  -8  -4  -3 26.5435 60.6326   1
   8   4   3 86.1153 79.3509   2
   8   4   4 2206.64 199.400   2
  -8  -4  -4 2315.29 173.302   1
  -8  -4  -5 576.688 107.726   1
  -8  -4  -6-151.043 117.361   1
  -8  -4  -7 539.999 124.250   1
  -8  -4  -8 81.7973 95.7367   1
  -8  -4  -9 399.601 133.359   1
  -8  -4 -10 925.550 175.128   1
   8   5  -4 488.455 137.952   2
   8   5  -3 129.636 99.6447   2
   8   5  -2 662.960 145.307   2
   8   5  -1 203.831 104.412   2
   8   5   0 2272.66 215.645   2
   8   5   1 702.168 142.035   2
   8   5   2 221.152 100.542   2
  -8  -5  -2 208.966 63.4455   1
  -8  -5  -3 473.002 94.7436   1
   8   5   3 427.297 115.818   2
  -8  -5  -4 122.670 82.3874   1
   8   5   4 77.6041 83.4629   2
   8   5   5 362.200 113.329   2
  -8  -5  -5 481.480 115.439   1
  -8  -5  -6 992.724 144.045   1
  -8  -5  -7 888.930 150.887   1
  -8  -5  -8 120.542 96.6300   1
  -8  -5  -9-92.5340 109.201   1
  -8  -5 -10 102.328 116.047   1
   8   6  -3-63.8715 112.953   2
   8   6  -2 299.698 116.135   2
   8   6  -1 1682.58 198.357   2
   8   6   0 859.401 158.605   2
   8   6   1 1433.76 181.562   2
  -8  -6  -2 38.4813 60.5505   1
   8   6   2 11.0869 87.9435   2
   8   6   3 374.825 119.993   2
  -8  -6  -3 220.697 76.4496   1
   8   6   4 400.642 118.099   2
  -8  -6  -4 398.602 103.288   1
  -8  -6  -5 417.420 105.194   1
  -8  -6  -6 1373.31 161.504   1
  -8  -6  -7 1103.51 159.054   1
  -8  -6  -8 440.990 133.823   1
  -8  -6  -9 283.426 129.878   1
  -8  -6 -10 129.206 119.719   1
   8   7  -2 96.8126 103.516   2
   8   7  -1 686.749 152.861   2
   8   7   0 546.661 143.618   2
   8   7   1 271.270 124.974   2
   8   7   2 2835.72 249.756   2
  -8  -7  -3 62.3182 71.6497   1
   8   7   3 47.4578 89.4742   2
   8   7   4 33.2720 92.9375   2
  -8  -7  -4 94.0693 84.0922   1
  -8  -7  -5 70.7159 83.7848   1
  -8  -7  -6 183.986 99.6461   1
  -8  -7  -7 988.568 164.690   1
  -8  -7  -8 1218.83 174.177   1
  -8  -7  -9 333.800 132.898   1
   8   8  -1 320.320 132.971   2
   8   8   0 330.884 132.223   2
   8   8   1 381.551 134.212   2
   8   8   2 537.492 134.823   2
   8   8   3 313.404 126.874   2
  -8  -8  -4 300.864 94.6618   1
   8   8   4 394.124 128.868   2
  -8  -8  -5 87.7195 99.7257   1
  -8  -8  -6 1491.44 182.245   1
  -8  -8  -7 665.930 139.978   1
  -8  -8  -8 656.171 135.960   1
  -8  -8  -9 334.682 129.664   1
   8   9   1 155.875 104.541   2
   8   9   2 262.392 118.361   2
   8   9   3 631.856 150.371   2
   8   9   4 115.223 100.502   2
  -8  -9  -4 458.122 120.219   1
  -8  -9  -5 135.003 98.8549   1
  -8  -9  -6 437.775 127.277   1
  -8  -9  -7 61.7020 106.087   1
  -8  -9  -8 364.615 131.422   1
  -8 -10  -5 265.669 110.332   1
  -8 -10  -6-13.0592 105.705   1
   9  -3  -1 938.954 180.273   3
   9  -3   0 41.3439 105.072   3
   9  -3   1 179.018 100.395   3
   9  -3   2 69.4144 106.617   3
   9  -3   3 531.378 144.275   3
   9  -3   4 684.852 152.012   3
   9  -2  -5 1237.58 166.964   2
   9  -2  -4 658.879 137.485   2
   9  -2  -3 465.871 113.487   2
   9  -2  -2 21.1233 78.6736   2
   9  -2   0 240.856 114.285   3
   9  -2   1 225.330 122.810   3
   9  -2   2 1383.33 178.100   3
   9  -2   3 335.613 116.416   3
   9  -2   4 453.988 132.508   3
   9  -2   5 1192.59 173.047   3
   9  -2   6 204.750 109.687   3
   9  -2   7 82.2677 89.4142   3
   9  -1  -5 1066.93 166.688   2
   9  -1  -4 225.204 107.850   2
   9  -1  -3 345.733 106.924   2
   9  -1  -2 1070.47 147.746   2
   9  -1  -1 61.3055 82.3248   2
   9  -1   0 1883.73 168.749   2
   9  -1   1 187.850 80.7791   2
   9  -1   2 75.8234 66.6861   2
   9  -1   2 164.603 105.090   3
   9  -1   3 410.671 113.817   3
   9  -1   4 546.317 125.258   3
   9  -1   5 802.511 146.264   3
   9  -1   6 694.859 137.338   3
   9  -1   7 215.122 103.306   3
   9   0  -5 106.298 97.1131   2
   9   0  -4 547.298 134.709   2
   9   0  -3 801.257 144.767   2
   9   0  -2 609.083 130.656   2
   9   0  -1 841.924 139.605   2
   9   0   0 809.268 133.086   2
   9   0   1 2070.55 182.114   2
   9   0   2 46.3820 74.7753   2
   9   0   3 300.588 91.8425   2
   9   0   3 547.144 120.891   3
   9   0   4 2380.97 206.992   3
   9   0   5-52.9195 79.6547   3
   9   0   6 699.467 124.797   3
   9   0   7 1058.84 152.689   3
  -9   0  -7 864.471 155.448   1
   9   1  -5-27.3114 96.2111   2
   9   1  -4-31.5557 91.8006   2
   9   1  -3 702.476 142.629   2
   9   1  -2 297.600 111.062   2
   9   1  -1 641.503 132.220   2
   9   1   0 1299.79 156.427   2
   9   1   1 1417.14 161.308   2
   9   1   2 454.597 110.466   2
  -9  -1  -2 152.321 62.9513   1
  -9  -1  -3-28.2807 72.3245   1
   9   1   3 32.7502 75.3940   2
  -9  -1  -4 135.150 82.5013   1
   9   1   4 32.8419 68.1977   2
   9   1   4 92.8267 87.2989   3
  -9  -1  -5 1407.15 168.715   1
   9   1   5 1345.46 154.287   3
   9   1   6 226.003 104.063   3
  -9  -1  -6 35.3767 83.8921   1
  -9  -1  -7 2280.35 228.151   1
  -9  -1  -8 1135.47 178.595   1
   9   2  -4 123.537 118.096   2
   9   2  -3 544.012 130.300   2
   9   2  -2 814.059 149.423   2
   9   2  -1 375.513 114.762   2
   9   2   0 154.153 93.8234   2
   9   2   1 117.824 94.6614   2
  -9  -2  -2 184.778 68.5887   1
   9   2   2 131.525 94.2787   2
   9   2   3 214.751 93.8491   2
  -9  -2  -3 316.902 85.1139   1
  -9  -2  -4 1126.42 134.277   1
   9   2   4 813.114 131.477   2
   9   2   4 1147.77 140.845   3
   9   2   5 1401.24 143.946   3
  -9  -2  -5 1573.08 169.456   1
   9   2   6 107.562 74.7432   3
  -9  -2  -6 24.1548 84.2676   1
  -9  -2  -7 323.346 111.870   1
  -9  -2  -8 467.748 140.088   1
   9   3  -4 1298.46 187.991   2
   9   3  -3 2075.45 218.379   2
   9   3  -2 217.546 103.865   2
   9   3  -1 3893.23 274.370   2
   9   3   0-52.5954 95.7998   2
   9   3   1 449.368 122.737   2
   9   3   2 367.924 122.148   2
  -9  -3  -3 544.742 93.6437   1
   9   3   3 417.813 118.945   2
  -9  -3  -4 131.541 72.4909   1
   9   3   4 77.4194 89.3814   2
  -9  -3  -5 213.816 98.9625   1
   9   3   5 241.750 82.0096   3
  -9  -3  -6 1003.49 150.135   1
  -9  -3  -7 445.590 123.074   1
  -9  -3  -8 251.803 117.896   1
  -9  -3  -9 546.478 149.389   1
   9   4  -3 185.944 122.107   2
   9   4  -2-44.9159 102.648   2
   9   4  -1 1501.42 191.397   2
   9   4   0 2367.09 222.849   2
   9   4   1 34.4934 97.4900   2
   9   4   2 226.611 107.687   2
   9   4   3 1832.54 204.124   2
  -9  -4  -3 1802.12 149.906   1
   9   4   4 58.2622 95.7312   2
  -9  -4  -4 206.071 80.5999   1
   9   4   5-71.3091 96.7413   2
  -9  -4  -5-124.528 91.4559   1
  -9  -4  -6-130.130 102.860   1
  -9  -4  -7 17.2281 97.4705   1
  -9  -4  -8 76.4203 101.277   1
  -9  -4  -9 482.944 139.477   1
   9   5  -3 258.091 138.117   2
   9   5  -2 90.9935 111.537   2
   9   5  -1-34.6104 100.722   2
   9   5   0 1402.86 193.742   2
   9   5   1 790.851 148.076   2
   9   5   2 970.283 162.398   2
   9   5   3 489.461 129.317   2
  -9  -5  -4 291.420 94.1076   1
   9   5   4 279.980 112.114   2
   9   5   5-56.5458 100.585   2
  -9  -5  -5 12.0787 76.8171   1
  -9  -5  -6 162.749 95.0838   1
  -9  -5  -7 51.7463 90.1929   1
  -9  -5  -8 772.013 159.192   1
  -9  -5  -9 74.3163 109.268   1
   9   6  -2 406.132 136.000   2
   9   6  -1 337.969 132.251   2
   9   6   0 600.613 149.975   2
   9   6   1 831.182 163.988   2
   9   6   2 46.9930 97.1249   2
   9   6   3 28.5956 92.3158   2
   9   6   4 275.339 107.948   2
  -9  -6  -4 106.487 81.3386   1
  -9  -6  -5 132.683 97.5426   1
   9   6   5 35.2081 94.9087   2
  -9  -6  -6 729.591 134.595   1
  -9  -6  -7 755.388 151.568   1
  -9  -6  -8 642.424 145.004   1
  -9  -6  -9 795.165 161.836   1
   9   7   0 329.258 131.173   2
   9   7   1 743.425 159.006   2
   9   7   2 349.642 132.545   2
   9   7   3-4.86518 100.701   2
   9   7   4 16.4960 94.6830   2
   9   7   5 205.695 105.639   2
  -9  -7  -5 154.484 86.1281   1
  -9  -7  -6-114.914 99.1894   1
  -9  -7  -7 381.943 123.259   1
  -9  -7  -8 836.943 162.590   1
   9   8   2 265.063 123.925   2
   9   8   3 1582.66 217.302   2
   9   8   4 91.6252 101.747   2
  -9  -8  -6 38.3567 86.5182   1
  -9  -8  -7 85.2391 103.117   1
  -9  -8  -8 70.1694 101.013   1
  -9  -9  -6 125.341 104.065   1
  -9  -9  -7 271.378 122.205   1
  10  -1  -4 643.719 145.395   2
  10  -1  -3 361.328 114.117   2
  10  -1  -2-22.7890 83.8260   2
  10  -1  -1 237.847 102.165   2
  10  -1   1 469.793 148.259   3
  10  -1   2 1191.81 174.007   3
  10  -1   3 184.356 98.1305   3
  10  -1   4-26.9292 97.8168   3
  10  -1   5 57.2417 93.1914   3
  10  -1   6 103.963 89.9910   3
  10   0  -3 545.847 135.069   2
  10   0  -2 361.791 119.381   2
  10   0  -1 502.237 122.473   2
  10   0   0 767.915 132.672   2
  10   0   1 37.8464 80.7828   2
  10   0   2 317.679 97.2659   2
  10   0   2 281.356 127.693   3
 -10   0  -3 898.971 134.903   1
  10   0   3 838.639 151.141   3
  10   0   4 395.236 113.727   3
 -10   0  -4 335.911 109.457   1
 -10   0  -5 132.329 108.532   1
  10   0   5 121.344 83.3814   3
  10   0   6 202.667 98.5223   3
 -10   0  -6 91.1222 93.4484   1
  10   1  -3 337.075 125.261   2
  10   1  -2 509.907 142.944   2
  10   1  -1 825.041 150.425   2
  10   1   0 675.778 134.114   2
  10   1   1 83.6076 89.9976   2
  10   1   2 674.184 130.345   2
  10   1   3 56.7752 79.4726   2
  10   1   3 185.987 111.879   3
  10   1   4 229.553 93.3293   2
 -10  -1  -4 523.358 115.299   1
  10   1   4 389.171 119.098   3
  10   1   5 72.0813 80.1864   3
 -10  -1  -5-124.873 89.8802   1
 -10  -1  -6 1678.37 192.302   1
  10   1   6 1665.84 170.494   3
 -10  -1  -7 342.507 121.881   1
  10   2  -3 203.639 118.597   2
  10   2  -2 438.391 136.970   2
  10   2  -1 1574.30 193.503   2
  10   2   0 639.910 139.303   2
  10   2   1 232.379 104.077   2
  10   2   2 195.994 106.866   2
  10   2   3 165.244 88.2142   2
  10   2   4 47.1364 86.9252   2
 -10  -2  -4 0.33755 75.4174   1
 -10  -2  -5 53.0803 93.0634   1
  10   2   5 65.6868 80.8822   3
 -10  -2  -6 2503.46 223.931   1
 -10  -2  -7 69.7299 107.227   1
  10   3  -2 1007.65 176.859   2
  10   3  -1 59.5374 101.405   2
  10   3   0 654.575 143.644   2
  10   3   1 1003.68 162.958   2
  10   3   2 930.836 159.205   2
  10   3   3 642.793 139.347   2
  10   3   4 33.1590 92.0290   2
 -10  -3  -5 235.468 97.8629   1
 -10  -3  -6 356.426 113.958   1
 -10  -3  -7 230.013 113.195   1
 -10  -3  -8-46.3573 93.8101   1
  10   4  -1 55.6518 105.054   2
  10   4   0 30.4091 103.537   2
  10   4   1 1547.61 204.839   2
  10   4   2 1554.58 194.182   2
  10   4   3 397.656 131.753   2
  10   4   4 42.7972 92.4592   2
  10   4   5-9.47534 94.0901   2
 -10  -4  -5-186.090 107.344   1
 -10  -4  -6 182.480 86.4711   1
 -10  -4  -7-17.0490 95.3413   1
 -10  -4  -8-193.293 138.090   1
  10   5   0 313.920 142.466   2
  10   5   1 1693.50 215.884   2
  10   5   2 296.476 123.650   2
  10   5   3 479.104 133.954   2
  10   5   4 162.801 107.707   2
  10   5   5 225.824 104.406   2
 -10  -5  -6 126.882 97.4761   1
 -10  -5  -7 178.038 106.340   1
 -10  -5  -8 184.841 107.156   1
  10   6   1 511.561 148.172   2
  10   6   2 393.635 138.239   2
  10   6   3 623.374 152.174   2
  10   6   4-61.4261 110.942   2
  10   6   5 804.026 163.580   2
 -10  -6  -6 76.9540 91.0974   1
 -10  -6  -7 158.025 100.137   1
 -10  -6  -8 473.816 129.633   1
 -10  -7  -7 188.827 105.743   1
 -10  -7  -8 130.762 107.390   1
  11   0  -1 20.9616 87.7370   2
  11   0   3 650.387 144.418   3
  11   0   4 58.2664 87.9959   3
  11   1  -1 436.507 129.513   2
  11   1   0 269.176 119.193   2
  11   1   1 719.546 143.303   2
  11   1   2 448.294 119.423   2
  11   1   3 223.820 105.066   3
  11   1   4 706.225 137.729   3
  11   2   0 518.183 140.103   2
  11   2   1 830.577 158.671   2
  11   2   2 416.885 112.532   2
  11   2   3 241.098 114.197   2
  11   2   4 22.9267 88.7360   2
  11   2   4 51.9546 81.9601   3
  11   3   1 609.900 148.940   2
  11   3   2 673.685 152.015   2
  11   3   3 203.182 101.939   2
  11   3   4 370.901 114.048   2
  11   4   2 817.734 166.282   2
  11   4   3 650.781 145.500   2
  11   4   4 221.889 110.981   2
;
_shelx_hkl_checksum              61460
_shelx_res_file
;
TITL BLUE26N_a.res in P-1             New: P-1
    blue26ok.res
    created by SHELXL-2016/6 at 07:38:37 on 26-Nov-2019
CELL  0.71073    8.6470    8.8190   10.1250    70.580    79.610    75.260
ZERR        1    0.0030    0.0030    0.0020     0.020     0.030     0.030
LATT   1
SFAC  C  H Cu  N  O
UNIT    30   26   1   4   8
L.S. 155
FMAP 2
PLAN 20
ACTA 51
LIST 4
temp -163
BOND $H
CONF
htab 3
size 0.20 0.18 0.15
WGHT    0.044800
FVAR       2.23066
CU1   3    0.500000    1.000000    0.000000    10.50000    0.01653    0.01429 =
         0.01072    0.00368    0.00064   -0.00122
O1    5    0.300997    0.951332    0.125017    11.00000    0.01821    0.01331 =
         0.01706    0.00086    0.00177   -0.00334
O2    5    0.285418    0.716738    0.092366    11.00000    0.04690    0.02662 =
         0.02411   -0.01121    0.01435   -0.01761
O1W   5    0.226129    0.404911    0.178810    11.00000    0.03484    0.02179 =
         0.03054   -0.00690    0.01491   -0.00735
AFIX   3
H1WA  2    0.237114    0.501935    0.166367    11.00000   -1.50000
H1WB  2    0.153431    0.389267    0.247677    11.00000   -1.50000
AFIX   0
O2W   5    0.505636    0.818825   -0.129585    11.00000    0.02155    0.02217 =
         0.01953   -0.00149    0.00322   -0.00420
AFIX   3
H2WA  2    0.444246    0.766755   -0.064635    11.00000   -1.50000
H2WB  2    0.585136    0.749325   -0.152145    11.00000   -1.50000
AFIX   0
N1    4    0.003303    0.686991    0.577518    11.00000    0.01611    0.01463 =
         0.01352   -0.00058   -0.00175   -0.00168
N2    4    0.366630    0.177752    0.856528    11.00000    0.01649    0.01624 =
         0.01231   -0.00050    0.00120   -0.00131
C1    1    0.157474    0.774991    0.302588    11.00000    0.01742    0.01654 =
         0.01156   -0.00196   -0.00161   -0.00486
C2    1    0.013494    0.879187    0.338823    11.00000    0.01553    0.01463 =
         0.01446   -0.00107   -0.00158   -0.00470
C3    1   -0.059889    1.027524    0.244113    11.00000    0.02104    0.01866 =
         0.01461   -0.00045   -0.00344   -0.00311
AFIX  43
H3    2   -0.012569    1.061998    0.149708    11.00000   -1.20000
AFIX   0
C4    1   -0.198644    1.121696    0.287640    11.00000    0.02301    0.01684 =
         0.02417   -0.00124   -0.00913   -0.00106
AFIX  43
H4    2   -0.247212    1.221336    0.223372    11.00000   -1.20000
AFIX   0
C5    1   -0.269666    1.071847    0.426829    11.00000    0.01721    0.01978 =
         0.02674   -0.00796   -0.00282    0.00055
AFIX  43
H5    2   -0.366016    1.138649    0.455546    11.00000   -1.20000
AFIX   0
C6    1   -0.203375    0.929908    0.521387    11.00000    0.01744    0.01843 =
         0.01711   -0.00417    0.00100   -0.00297
AFIX  43
H6    2   -0.253362    0.898440    0.615121    11.00000   -1.20000
AFIX   0
C7    1   -0.059213    0.828520    0.480020    11.00000    0.01654    0.01387 =
         0.01453   -0.00324   -0.00141   -0.00204
C8    1    0.139471    0.594015    0.539731    11.00000    0.01889    0.01447 =
         0.01188    0.00024    0.00000   -0.00636
C9    1    0.218106    0.634304    0.401887    11.00000    0.01790    0.01532 =
         0.01519   -0.00249   -0.00040   -0.00011
AFIX  43
H9    2    0.313843    0.562980    0.378152    11.00000   -1.20000
AFIX   0
C10   1    0.254319    0.817693    0.158659    11.00000    0.01638    0.01838 =
         0.01417    0.00028   -0.00246    0.00017
C11   1    0.212883    0.445601    0.650088    11.00000    0.01811    0.01632 =
         0.01298   -0.00014   -0.00379   -0.00495
C12   1    0.327004    0.317228    0.615080    11.00000    0.02133    0.01851 =
         0.01071   -0.00215    0.00093   -0.00260
AFIX  43
H12   2    0.354292    0.319308    0.519398    11.00000   -1.20000
AFIX   0
C13   1    0.399663    0.187775    0.719913    11.00000    0.01983    0.01612 =
         0.01384   -0.00249    0.00055   -0.00117
AFIX  43
H13   2    0.476818    0.101558    0.694121    11.00000   -1.20000
AFIX   0
C14   1    0.252459    0.297536    0.891252    11.00000    0.02222    0.01971 =
         0.01183   -0.00202    0.00092   -0.00277
AFIX  43
H14   2    0.224036    0.289304    0.988125    11.00000   -1.20000
AFIX   0
C15   1    0.175041    0.431176    0.793273    11.00000    0.01946    0.01757 =
         0.01452   -0.00271    0.00052    0.00035
AFIX  43
H15   2    0.095966    0.513638    0.822671    11.00000   -1.20000
AFIX   0
HKLF 4
REM  BLUE26N_a.res in P-1             New: P-1
REM R1 =  0.0533 for    2397 Fo > 4sig(Fo)  and  0.0793 for all    3141 data
REM    196 parameters refined using      0 restraints
END
WGHT      0.0399      0.0000
REM Instructions for potential hydrogen bonds
HTAB O1W O2
EQIV $5 -x, -y+1, -z+1
HTAB O1W N1_$5
HTAB O2W O1
HTAB O2W O2
EQIV $6 -x+1, -y+1, -z
HTAB O2W O1W_$6
EQIV $7 -x, -y+2, -z+1
HTAB C6 O1_$7
HTAB C6 O1W_$5
EQIV $8 x-1, y, z+1
HTAB C6 O2W_$8
HTAB C12 O1W
EQIV $1 x, y-1, z+1
HTAB C13 O2W_$1
EQIV $9 x, y, z+1
HTAB C14 O1W_$9
EQIV $4 -x+1, -y+1, -z+1
HTAB C14 O2W_$4
HTAB C15 O1W_$5
REM Highest difference peak  0.918,  deepest hole -0.360,  1-sigma level  0.089
Q1    1   0.4146  0.9480 -0.0224  11.00000  0.05    0.92
Q2    1   0.4517  1.0996  0.0641  11.00000  0.05    0.44
Q3    1   0.3486  0.8683  0.1976  11.00000  0.05    0.41
Q4    1  -0.1139  0.8897  0.5001  11.00000  0.05    0.40
Q5    1   0.3881  0.9808  0.0564  11.00000  0.05    0.39
Q6    1   0.1264  0.8372  0.3386  11.00000  0.05    0.39
Q7    1   0.3642  1.0053  0.1607  11.00000  0.05    0.36
Q8    1   0.2217  0.9176  0.1068  11.00000  0.05    0.36
Q9    1   0.3408  0.7643  0.1404  11.00000  0.05    0.35
Q10   1   0.0530  0.6346  0.5785  11.00000  0.05    0.34
Q11   1   0.5854  0.8739 -0.1177  11.00000  0.05    0.34
Q12   1   0.3171  0.3988  0.6165  11.00000  0.05    0.32
Q13   1   0.0633  0.8148  0.3207  11.00000  0.05    0.32
Q14   1   0.3251  1.0867  0.1242  11.00000  0.05    0.32
Q15   1   0.2120  0.6403  0.0794  11.00000  0.05    0.31
Q16   1  -0.0760  0.6476  0.6246  11.00000  0.05    0.30
Q17   1   0.3468  0.4365  0.1556  11.00000  0.05    0.30
Q18   1   0.2927  0.6021  0.3997  11.00000  0.05    0.29
Q19   1   0.1939  0.8051  0.2346  11.00000  0.05    0.29
Q20   1   0.2991  0.3446  0.9997  11.00000  0.05    0.29
;
_shelx_res_checksum              267
loop_
_space_group_symop_operation_xyz
'x, y, z'
'-x, -y, -z'
loop_
_atom_site_type_symbol
_atom_site_label
_atom_site_fract_x
_atom_site_fract_y
_atom_site_fract_z
_atom_site_U_iso_or_equiv
_atom_site_adp_type
_atom_site_calc_flag
_atom_site_occupancy
_atom_site_disorder_assembly
_atom_site_disorder_group
Cu Cu1 0.500000 1.000000 0.000000 0.01642(17) Uani d 1 . .
O O1 0.3010(2) 0.9513(2) 0.1250(2) 0.0181(5) Uani d 1 . .
O O2 0.2854(3) 0.7167(3) 0.0924(2) 0.0321(6) Uani d 1 . .
O O1W 0.2261(3) 0.4049(2) 0.1788(2) 0.0315(6) Uani d 1 . .
H H1WA 0.237114 0.501935 0.166367 0.047 Uiso d 1 . .
H H1WB 0.153431 0.389267 0.247677 0.047 Uiso d 1 . .
O O2W 0.5056(2) 0.8188(2) -0.1296(2) 0.0231(5) Uani d 1 . .
H H2WA 0.444246 0.766755 -0.064635 0.035 Uiso d 1 . .
H H2WB 0.585136 0.749325 -0.152145 0.035 Uiso d 1 . .
N N1 0.0033(3) 0.6870(3) 0.5775(2) 0.0160(5) Uani d 1 . .
N N2 0.3666(3) 0.1778(3) 0.8565(2) 0.0168(5) Uani d 1 . .
C C1 0.1575(3) 0.7750(3) 0.3026(3) 0.0155(6) Uani d 1 . .
C C2 0.0135(3) 0.8792(3) 0.3388(3) 0.0154(6) Uani d 1 . .
C C3 -0.0599(3) 1.0275(3) 0.2441(3) 0.0193(7) Uani d 1 . .
H H3 -0.012569 1.061998 0.149708 0.023 Uiso calc 1 . .
C C4 -0.1986(4) 1.1217(4) 0.2876(3) 0.0223(7) Uani d 1 . .
H H4 -0.247212 1.221336 0.223372 0.027 Uiso calc 1 . .
C C5 -0.2697(4) 1.0718(4) 0.4268(3) 0.0218(7) Uani d 1 . .
H H5 -0.366016 1.138649 0.455546 0.026 Uiso calc 1 . .
C C6 -0.2034(3) 0.9299(3) 0.5214(3) 0.0185(6) Uani d 1 . .
H H6 -0.253362 0.898440 0.615121 0.022 Uiso calc 1 . .
C C7 -0.0592(3) 0.8285(3) 0.4800(3) 0.0155(6) Uani d 1 . .
C C8 0.1395(3) 0.5940(3) 0.5397(3) 0.0158(6) Uani d 1 . .
C C9 0.2181(3) 0.6343(3) 0.4019(3) 0.0175(6) Uani d 1 . .
H H9 0.313843 0.562980 0.378152 0.021 Uiso calc 1 . .
C C10 0.2543(3) 0.8177(4) 0.1587(3) 0.0183(7) Uani d 1 . .
C C11 0.2129(3) 0.4456(3) 0.6501(3) 0.0164(6) Uani d 1 . .
C C12 0.3270(3) 0.3172(3) 0.6151(3) 0.0181(6) Uani d 1 . .
H H12 0.354292 0.319308 0.519398 0.022 Uiso calc 1 . .
C C13 0.3997(3) 0.1878(3) 0.7199(3) 0.0179(6) Uani d 1 . .
H H13 0.476818 0.101558 0.694121 0.022 Uiso calc 1 . .
C C14 0.2525(3) 0.2975(3) 0.8913(3) 0.0193(7) Uani d 1 . .
H H14 0.224036 0.289304 0.988125 0.023 Uiso calc 1 . .
C C15 0.1750(3) 0.4312(3) 0.7933(3) 0.0188(6) Uani d 1 . .
H H15 0.095966 0.513638 0.822671 0.023 Uiso calc 1 . .
loop_
_atom_site_aniso_label
_atom_site_aniso_U_11
_atom_site_aniso_U_22
_atom_site_aniso_U_33
_atom_site_aniso_U_12
_atom_site_aniso_U_13
_atom_site_aniso_U_23
Cu1 0.0165(3) 0.0143(3) 0.0107(3) -0.0012(2) 0.0006(2) 0.0037(2)
O1 0.0182(11) 0.0133(10) 0.0171(10) -0.0033(9) 0.0018(8) 0.0009(8)
O2 0.0469(15) 0.0266(12) 0.0241(12) -0.0176(11) 0.0144(11) -0.0112(11)
O1W 0.0348(14) 0.0218(12) 0.0305(13) -0.0074(10) 0.0149(11) -0.0069(10)
O2W 0.0216(11) 0.0222(11) 0.0195(11) -0.0042(9) 0.0032(9) -0.0015(9)
N1 0.0161(13) 0.0146(12) 0.0135(12) -0.0017(10) -0.0018(10) -0.0006(10)
N2 0.0165(13) 0.0162(12) 0.0123(12) -0.0013(10) 0.0012(10) -0.0005(10)
C1 0.0174(15) 0.0165(15) 0.0116(14) -0.0049(12) -0.0016(12) -0.0020(12)
C2 0.0155(15) 0.0146(14) 0.0145(14) -0.0047(12) -0.0016(12) -0.0011(12)
C3 0.0210(16) 0.0187(15) 0.0146(14) -0.0031(13) -0.0034(13) -0.0004(12)
C4 0.0230(17) 0.0168(15) 0.0242(16) -0.0011(13) -0.0091(14) -0.0012(13)
C5 0.0172(16) 0.0198(16) 0.0267(17) 0.0006(13) -0.0028(13) -0.0080(14)
C6 0.0174(15) 0.0184(15) 0.0171(15) -0.0030(12) 0.0010(12) -0.0042(12)
C7 0.0165(15) 0.0139(14) 0.0145(14) -0.0020(12) -0.0014(12) -0.0032(12)
C8 0.0189(15) 0.0145(14) 0.0119(14) -0.0064(12) 0.0000(12) 0.0002(12)
C9 0.0179(15) 0.0153(15) 0.0152(14) -0.0001(12) -0.0004(12) -0.0025(12)
C10 0.0164(15) 0.0184(16) 0.0142(14) 0.0002(12) -0.0025(12) 0.0003(12)
C11 0.0181(15) 0.0163(15) 0.0130(14) -0.0049(12) -0.0038(12) -0.0001(12)
C12 0.0213(16) 0.0185(15) 0.0107(14) -0.0026(13) 0.0009(12) -0.0022(12)
C13 0.0198(16) 0.0161(15) 0.0138(14) -0.0012(12) 0.0006(12) -0.0025(12)
C14 0.0222(16) 0.0197(15) 0.0118(14) -0.0028(13) 0.0009(13) -0.0020(12)
C15 0.0195(16) 0.0176(15) 0.0145(14) 0.0004(12) 0.0005(12) -0.0027(12)
loop_
_atom_type_symbol
_atom_type_description
_atom_type_scat_dispersion_real
_atom_type_scat_dispersion_imag
_atom_type_scat_source
C C 0.0033 0.0016 'International Tables Vol C Tables 4.2.6.8 and 6.1.1.4'
H H 0.0000 0.0000 'International Tables Vol C Tables 4.2.6.8 and 6.1.1.4'
Cu Cu 0.3201 1.2651 'International Tables Vol C Tables 4.2.6.8 and 6.1.1.4'
N N 0.0061 0.0033 'International Tables Vol C Tables 4.2.6.8 and 6.1.1.4'
O O 0.0106 0.0060 'International Tables Vol C Tables 4.2.6.8 and 6.1.1.4'
loop_
_geom_angle_atom_site_label_1
_geom_angle_atom_site_label_2
_geom_angle_atom_site_label_3
_geom_angle_site_symmetry_1
_geom_angle_site_symmetry_3
_geom_angle
_geom_angle_publ_flag
O1 Cu1 O1 . 2_675 180.0 ?
O1 Cu1 N2 . 2_666 89.53(9) ?
O1 Cu1 N2 2_675 2_666 90.47(9) ?
O1 Cu1 N2 . 1_564 90.47(9) ?
O1 Cu1 N2 2_675 1_564 89.53(9) ?
N2 Cu1 N2 2_666 1_564 180.0 ?
O1 Cu1 O2W . . 95.24(8) ?
O1 Cu1 O2W 2_675 . 84.76(8) ?
N2 Cu1 O2W 2_666 . 92.18(9) ?
N2 Cu1 O2W 1_564 . 87.82(9) ?
O1 Cu1 O2W . 2_675 84.76(8) ?
O1 Cu1 O2W 2_675 2_675 95.24(8) ?
N2 Cu1 O2W 2_666 2_675 87.82(9) ?
N2 Cu1 O2W 1_564 2_675 92.18(9) ?
O2W Cu1 O2W . 2_675 180.0 ?
C10 O1 Cu1 . . 125.15(19) ?
H1WA O1W H1WB . . 104.1 ?
Cu1 O2W H2WA . . 91.1 ?
Cu1 O2W H2WB . . 128.4 ?
H2WA O2W H2WB . . 108.3 ?
C8 N1 C7 . . 118.3(2) ?
C13 N2 C14 . . 117.5(2) ?
C13 N2 Cu1 . 1_546 120.14(19) ?
C14 N2 Cu1 . 1_546 122.07(19) ?
C9 C1 C2 . . 119.3(3) ?
C9 C1 C10 . . 117.8(3) ?
C2 C1 C10 . . 122.9(2) ?
C3 C2 C1 . . 123.9(3) ?
C3 C2 C7 . . 119.2(3) ?
C1 C2 C7 . . 116.8(2) ?
C4 C3 C2 . . 120.3(3) ?
C4 C3 H3 . . 119.8 ?
C2 C3 H3 . . 119.8 ?
C3 C4 C5 . . 120.3(3) ?
C3 C4 H4 . . 119.8 ?
C5 C4 H4 . . 119.8 ?
C6 C5 C4 . . 121.3(3) ?
C6 C5 H5 . . 119.3 ?
C4 C5 H5 . . 119.3 ?
C5 C6 C7 . . 120.0(3) ?
C5 C6 H6 . . 120.0 ?
C7 C6 H6 . . 120.0 ?
N1 C7 C6 . . 118.3(2) ?
N1 C7 C2 . . 122.9(3) ?
C6 C7 C2 . . 118.8(2) ?
N1 C8 C9 . . 122.3(2) ?
N1 C8 C11 . . 117.8(2) ?
C9 C8 C11 . . 119.8(3) ?
C1 C9 C8 . . 120.3(3) ?
C1 C9 H9 . . 119.8 ?
C8 C9 H9 . . 119.8 ?
O2 C10 O1 . . 127.6(3) ?
O2 C10 C1 . . 117.9(2) ?
O1 C10 C1 . . 114.5(3) ?
C15 C11 C12 . . 116.9(3) ?
C15 C11 C8 . . 121.5(3) ?
C12 C11 C8 . . 121.6(3) ?
C13 C12 C11 . . 119.7(3) ?
C13 C12 H12 . . 120.2 ?
C11 C12 H12 . . 120.2 ?
N2 C13 C12 . . 123.0(3) ?
N2 C13 H13 . . 118.5 ?
C12 C13 H13 . . 118.5 ?
N2 C14 C15 . . 123.0(3) ?
N2 C14 H14 . . 118.5 ?
C15 C14 H14 . . 118.5 ?
C14 C15 C11 . . 119.8(3) ?
C14 C15 H15 . . 120.1 ?
C11 C15 H15 . . 120.1 ?
loop_
_geom_bond_atom_site_label_1
_geom_bond_atom_site_label_2
_geom_bond_site_symmetry_2
_geom_bond_distance
_geom_bond_publ_flag
Cu1 O1 . 1.994(2) ?
Cu1 O1 2_675 1.994(2) ?
Cu1 N2 2_666 2.017(2) ?
Cu1 N2 1_564 2.017(2) ?
Cu1 O2W . 2.368(2) ?
Cu1 O2W 2_675 2.368(2) ?
O1 C10 . 1.262(3) ?
O2 C10 . 1.235(3) ?
O1W H1WA . 0.8499 ?
O1W H1WB . 0.8500 ?
O2W H2WA . 0.8500 ?
O2W H2WB . 0.8500 ?
N1 C8 . 1.327(4) ?
N1 C7 . 1.362(3) ?
N2 C13 . 1.339(4) ?
N2 C14 . 1.344(4) ?
C1 C9 . 1.362(4) ?
C1 C2 . 1.416(4) ?
C1 C10 . 1.524(4) ?
C2 C3 . 1.413(4) ?
C2 C7 . 1.426(4) ?
C3 C4 . 1.367(4) ?
C3 H3 . 0.9500 ?
C4 C5 . 1.403(4) ?
C4 H4 . 0.9500 ?
C5 C6 . 1.359(4) ?
C5 H5 . 0.9500 ?
C6 C7 . 1.422(4) ?
C6 H6 . 0.9500 ?
C8 C9 . 1.410(4) ?
C8 C11 . 1.492(4) ?
C9 H9 . 0.9500 ?
C11 C15 . 1.397(4) ?
C11 C12 . 1.398(4) ?
C12 C13 . 1.376(4) ?
C12 H12 . 0.9500 ?
C13 H13 . 0.9500 ?
C14 C15 . 1.372(4) ?
C14 H14 . 0.9500 ?
C15 H15 . 0.9500 ?
loop_
_geom_torsion_atom_site_label_1
_geom_torsion_atom_site_label_2
_geom_torsion_atom_site_label_3
_geom_torsion_atom_site_label_4
_geom_torsion_site_symmetry_1
_geom_torsion_site_symmetry_2
_geom_torsion_site_symmetry_3
_geom_torsion_site_symmetry_4
_geom_torsion
_geom_torsion_publ_flag
C9 C1 C2 C3 . . . . -179.9(3) ?
C10 C1 C2 C3 . . . . 3.8(4) ?
C9 C1 C2 C7 . . . . 0.2(4) ?
C10 C1 C2 C7 . . . . -176.2(3) ?
C1 C2 C3 C4 . . . . -179.7(3) ?
C7 C2 C3 C4 . . . . 0.3(4) ?
C2 C3 C4 C5 . . . . -0.1(5) ?
C3 C4 C5 C6 . . . . -0.1(5) ?
C4 C5 C6 C7 . . . . 0.0(4) ?
C8 N1 C7 C6 . . . . -178.7(3) ?
C8 N1 C7 C2 . . . . 1.3(4) ?
C5 C6 C7 N1 . . . . -179.8(3) ?
C5 C6 C7 C2 . . . . 0.3(4) ?
C3 C2 C7 N1 . . . . 179.6(3) ?
C1 C2 C7 N1 . . . . -0.4(4) ?
C3 C2 C7 C6 . . . . -0.4(4) ?
C1 C2 C7 C6 . . . . 179.6(3) ?
C7 N1 C8 C9 . . . . -1.9(4) ?
C7 N1 C8 C11 . . . . 175.7(2) ?
C2 C1 C9 C8 . . . . -0.8(4) ?
C10 C1 C9 C8 . . . . 175.7(3) ?
N1 C8 C9 C1 . . . . 1.8(4) ?
C11 C8 C9 C1 . . . . -175.9(2) ?
Cu1 O1 C10 O2 . . . . -25.3(4) ?
Cu1 O1 C10 C1 . . . . 150.54(18) ?
C9 C1 C10 O2 . . . . 58.0(4) ?
C2 C1 C10 O2 . . . . -125.6(3) ?
C9 C1 C10 O1 . . . . -118.3(3) ?
C2 C1 C10 O1 . . . . 58.1(4) ?
N1 C8 C11 C15 . . . . -20.8(4) ?
C9 C8 C11 C15 . . . . 156.9(3) ?
N1 C8 C11 C12 . . . . 161.5(3) ?
C9 C8 C11 C12 . . . . -20.7(4) ?
C15 C11 C12 C13 . . . . -2.1(4) ?
C8 C11 C12 C13 . . . . 175.6(2) ?
C14 N2 C13 C12 . . . . 2.7(4) ?
Cu1 N2 C13 C12 1_546 . . . -171.7(2) ?
C11 C12 C13 N2 . . . . -0.1(4) ?
C13 N2 C14 C15 . . . . -3.0(4) ?
Cu1 N2 C14 C15 1_546 . . . 171.2(2) ?
N2 C14 C15 C11 . . . . 0.8(5) ?
C12 C11 C15 C14 . . . . 1.8(4) ?
C8 C11 C15 C14 . . . . -176.0(3) ?

_cod_database_fobs_code 2022101
