#------------------------------------------------------------------------------
#$Date: 2020-07-31 08:09:57 +0300 (Fri, 31 Jul 2020) $
#$Revision: 254703 $
#$URL: file:///home/coder/svn-repositories/cod/cif/2/02/22/2022214.cif $
#------------------------------------------------------------------------------
#
# This file is available in the Crystallography Open Database (COD),
# http://www.crystallography.net/. The original data for this entry
# were provided by IUCr Journals, http://journals.iucr.org/.
#
# The file may be used within the scientific community so long as
# proper attribution is given to the journal article from which the
# data were obtained.
#
data_2022214
loop_
_publ_author_name
'Shishkina, Svitlana V.'
'Konovalova, Irina S.'
'Karpina, Veronika R.'
'Kovalenko, Svitlana S.'
'Kovalenko, Sergiy M.'
'Bunyatyan, Natalya D.'
_publ_section_title
;
 Concomitant polymorphic forms of
 3-cyclopropyl-5-(2-hydrazinylpyridin-3-yl)-1,2,4-oxadiazole
;
_journal_coeditor_code           KU3265
_journal_issue                   8
_journal_name_full               'Acta Crystallographica Section C'
_journal_page_first
;
;
_journal_paper_doi               10.1107/S2053229620010414
_journal_volume                  76
_journal_year                    2020
_chemical_formula_iupac          'C10 H11 N5 O'
_chemical_formula_moiety         'C10 H11 N5 O'
_chemical_formula_sum            'C10 H11 N5 O'
_chemical_formula_weight         217.24
_chemical_name_systematic
;
3-Cyclopropyl-5-(2-hydrazinylpyridin-3-yl)-1,2,4-oxadiazole
;
_space_group_crystal_system      triclinic
_space_group_IT_number           2
_space_group_name_Hall           '-P 1'
_space_group_name_H-M_alt        'P -1'
_atom_sites_solution_hydrogens   mixed
_audit_creation_method           SHELXL-2016/6
_cell_angle_alpha                110.812(9)
_cell_angle_beta                 115.048(11)
_cell_angle_gamma                92.854(9)
_cell_formula_units_Z            2
_cell_length_a                   8.4476(10)
_cell_length_b                   8.5662(8)
_cell_length_c                   8.6125(8)
_cell_measurement_reflns_used    846
_cell_measurement_temperature    293(2)
_cell_measurement_theta_max      25.738
_cell_measurement_theta_min      4.207
_cell_volume                     512.82(12)
_computing_cell_refinement
;
CrysAlis PRO (Rigaku OD, 2018)
;
_computing_data_collection
;
CrysAlis PRO (Rigaku OD, 2018)
;
_computing_data_reduction
;
CrysAlis PRO (Rigaku OD, 2018)
;
_computing_molecular_graphics
;
Mercury (Macrae <i>et al.</i>,  2020)
;
_computing_publication_material
;
SHELXL2016 (Sheldrick, 2015b)
;
_computing_structure_refinement
;
SHELXL2016 (Sheldrick, 2015b)
;
_computing_structure_solution
;
SHELXT2014 (Sheldrick, 2015a)
;
_diffrn_ambient_temperature      293(2)
_diffrn_detector_area_resol_mean 16.1827
_diffrn_measured_fraction_theta_full 0.997
_diffrn_measured_fraction_theta_max 0.997
_diffrn_measurement_device_type  'Rigaku Xcalibur Sapphire3'
_diffrn_measurement_method       '\w scans'
_diffrn_radiation_type           MoK\a
_diffrn_radiation_wavelength     0.71073
_diffrn_reflns_av_R_equivalents  0.0427
_diffrn_reflns_av_unetI/netI     0.0523
_diffrn_reflns_limit_h_max       10
_diffrn_reflns_limit_h_min       -5
_diffrn_reflns_limit_k_max       10
_diffrn_reflns_limit_k_min       -10
_diffrn_reflns_limit_l_max       9
_diffrn_reflns_limit_l_min       -10
_diffrn_reflns_number            3563
_diffrn_reflns_theta_full        25.000
_diffrn_reflns_theta_max         25.000
_diffrn_reflns_theta_min         3.312
_diffrn_source                   'Enhance (Mo) X-ray Source'
_exptl_absorpt_coefficient_mu    0.098
_exptl_absorpt_correction_T_max  1.00000
_exptl_absorpt_correction_T_min  0.18773
_exptl_absorpt_correction_type   multi-scan
_exptl_absorpt_process_details
;
(CrysAlis PRO; Rigaku OD, 2018)
;
_exptl_crystal_colour            colorless
_exptl_crystal_density_diffrn    1.407
_exptl_crystal_description       block
_exptl_crystal_F_000             228
_exptl_crystal_size_max          0.200
_exptl_crystal_size_mid          0.170
_exptl_crystal_size_min          0.100
_refine_diff_density_max         0.203
_refine_diff_density_min         -0.211
_refine_ls_extinction_method     none
_refine_ls_goodness_of_fit_ref   1.056
_refine_ls_hydrogen_treatment    mixed
_refine_ls_matrix_type           full
_refine_ls_number_parameters     157
_refine_ls_number_reflns         1795
_refine_ls_number_restraints     0
_refine_ls_restrained_S_all      1.056
_refine_ls_R_factor_all          0.0679
_refine_ls_R_factor_gt           0.0529
_refine_ls_shift/su_max          0.000
_refine_ls_shift/su_mean         0.000
_refine_ls_structure_factor_coef Fsqd
_refine_ls_weighting_details
'w=1/[\s^2^(Fo^2^)+(0.0858P)^2^] where P=(Fo^2^+2Fc^2^)/3'
_refine_ls_weighting_scheme      calc
_refine_ls_wR_factor_gt          0.1455
_refine_ls_wR_factor_ref         0.1637
_reflns_number_gt                1337
_reflns_number_total             1795
_reflns_threshold_expression     'I > 2\s(I)'
_cod_data_source_file            ku3265sup1.cif
_cod_data_source_block           1t
_cod_original_cell_volume        512.82(10)
_cod_database_code               2022214
_shelx_space_group_comment
;
The symmetry employed for this shelxl refinement is uniquely defined
by the following loop, which should always be used as a source of
symmetry information in preference to the above space-group names.
They are only intended as comments.
;
_shelx_estimated_absorpt_t_min   0.981
_shelx_estimated_absorpt_t_max   0.990
_shelx_hkl_file
;
   0   0   2  468.49   18.48
   0   0  -2  497.49   18.41
   0   0   3  266.88   11.33
   0   0  -3  266.62   11.13
   0   0   4  231.15   10.33
   0   0  -4  224.26    9.95
   0   0   5    9.00    1.35
   0   0   6    2.75    0.74
   0   0  -6    3.19    0.92
   0   0   7   21.46    2.60
   0   0  -7   21.06    2.71
   0   0  -8   -0.17    0.65
   0   0   8    0.02    0.01
   0   0  -9   -0.16    0.56
   0   0 -10   -0.25    0.41
   0   1 -10   -0.40    0.52
   0   1  -9    1.45    0.80
   0   1  -8    6.06    1.40
   0   1  -7    1.27    0.60
   0  -1   7    2.65    0.80
   0   1  -6    0.37    0.32
   0  -1   6   -0.06    0.32
   0   1  -6    0.22    0.31
   0  -1   5   30.19    2.51
   0   1  -5   37.65    2.90
   0   1  -5   43.78    3.30
   0   1  -4  119.83    6.33
   0  -1   4  116.66    5.71
   0   1  -4  125.55    6.20
   0   1  -3  205.29    8.86
   0   1  -3  199.16    8.97
   0  -1   3  196.91    8.33
   0   1  -2 1155.21   46.14
   0   1  -2 1257.70   46.82
   0   1  -2 1216.60   46.71
   0  -1   2 1321.56   46.26
   0  -1  -1 2615.99  101.17
   0  -1  -1 2725.14  100.56
   0  -1  -2   61.02    3.41
   0  -1  -3  100.86    5.36
   0   1   4   19.02    2.10
   0   1   5  127.63    7.37
   0   1   6   21.00    2.58
   0  -1  -7   11.22    2.04
   0   1   7   12.58    2.09
   0  -1  -8    0.25    0.37
   0   1   8    0.62    0.40
   0  -1  -9    0.60    0.47
   0   2 -10    0.25    0.12
   0   2  -9    0.78    0.61
   0   2  -8    2.60    1.01
   0  -2   7    1.20    0.43
   0   2  -7    1.38    0.60
   0   2  -7    1.05    0.56
   0  -2   6   21.21    1.94
   0   2  -6   18.18    2.15
   0   2  -6   14.25    1.92
   0   2  -5   13.99    1.73
   0  -2   5   13.87    1.40
   0   2  -5   13.58    1.68
   0   2  -4    2.43    0.64
   0  -2   4    2.77    0.51
   0   2  -4    2.69    0.73
   0   2  -3  229.89   10.46
   0  -2   3  246.69    9.57
   0   2  -3  240.00   10.39
   0   2  -3  241.35    9.53
   0   2  -2  577.62   22.78
   0   2  -2  596.84   23.29
   0   2  -2  607.60   23.10
   0  -2   1    0.18    0.10
   0   2  -1    0.18    0.03
   0   2  -1    0.20    0.15
   0   2   0   78.82    3.48
   0  -2   0   68.90    3.53
   0  -2  -1    3.60    0.59
   0  -2  -1    2.98    0.38
   0   2   1    3.75    0.42
   0  -2  -2   48.88    2.30
   0  -2  -2   47.65    3.20
   0  -2  -3    4.54    0.85
   0  -2  -3    3.03    0.42
   0  -2  -4    6.30    1.16
   0   2   5    3.98    1.11
   0   2   6   11.89    2.09
   0   2   7    3.96    1.25
   0  -2  -8    2.13    1.01
   0   2   8    2.12    1.12
   0  -2  -9    1.23    0.95
   0   3 -10   -0.14    0.29
   0   3  -9    0.93    0.43
   0   3  -8    1.54    0.62
   0   3  -8    1.43    0.76
   0   3  -7    4.49    1.15
   0   3  -7    3.72    1.04
   0  -3   6   24.38    1.88
   0   3  -6   22.88    2.52
   0   3  -6   23.42    2.51
   0   3  -5    0.15    0.33
   0  -3   5    0.12    0.11
   0   3  -5    0.04    0.20
   0   3  -4   42.55    2.20
   0   3  -4   43.52    2.76
   0   3  -4   41.10    2.94
   0   3  -4   42.25    3.12
   0   3  -3   11.30    0.85
   0   3  -3   12.65    1.26
   0   3  -3   12.24    1.11
   0   3  -3   11.80    1.35
   0  -3   2  440.12   17.49
   0  -3   1  135.51    6.19
   0  -3   0   36.47    2.42
   0   3   0   38.51    2.33
   0  -3  -1    2.69    0.60
   0   3   1    1.74    0.37
   0   3   1    1.87    0.28
   0  -3  -2   30.51    1.78
   0  -3  -2   35.60    2.76
   0  -3  -3    0.60    0.35
   0  -3  -3    1.04    0.24
   0  -3  -4    0.67    0.44
   0   3   5   50.17    4.68
   0   3   6    5.59    1.49
   0   3   7    0.34    0.49
   0  -3  -8    3.25    1.27
   0   3   8    2.49    1.15
   0   4 -11    0.26    0.42
   0   4 -10    1.59    0.86
   0   4  -9    3.37    1.01
   0   4  -9    2.28    0.84
   0   4  -8    3.16    1.00
   0   4  -8    3.06    1.04
   0   4  -8    1.95    0.73
   0   4  -7    8.18    1.57
   0   4  -7    9.87    1.69
   0   4  -7    9.29    1.54
   0   4  -6   19.85    2.30
   0   4  -6   20.00    2.38
   0   4  -6   20.94    2.15
   0   4  -5   93.12    5.49
   0   4  -5   94.50    4.94
   0   4  -5   92.79    5.19
   0   4  -5   78.74    3.89
   0   4  -4   55.18    3.73
   0   4  -4   46.97    2.57
   0  -4   4   63.45    3.80
   0  -4   3   49.83    3.04
   0   4  -3   47.25    3.26
   0  -4   2   17.56    1.54
   0   4  -2   18.58    1.56
   0   4  -2   15.51    1.49
   0  -4   1   70.11    4.06
   0   4   0   68.28    3.63
   0   4   0   85.11    4.34
   0  -4   0   89.40    4.62
   0   4   1  131.62    6.37
   0   4   1  142.67    5.74
   0  -4  -1  140.76    7.25
   0   4   2   14.81    1.23
   0  -4  -2   20.35    2.20
   0  -4  -3  254.15   12.47
   0  -4  -4   -0.08    0.37
   0   4   5   26.19    3.47
   0  -4  -5   18.68    2.55
   0   4   6   -0.48    0.49
   0   4   7    2.72    1.37
   0  -4  -8    2.08    1.14
   0   4   8    2.58    1.36
   0   5 -11    0.15    0.14
   0   5 -10    0.86    0.65
   0   5  -9    1.58    0.69
   0   5  -9    2.64    1.11
   0   5  -8   39.54    3.61
   0   5  -8   33.47    3.66
   0   5  -8   31.16    3.39
   0   5  -7    8.57    1.54
   0   5  -7   11.39    1.69
   0   5  -7    9.09    1.71
   0   5  -6    0.09    0.05
   0   5  -6   -0.09    0.10
   0   5  -6   -0.12    0.18
   0   5  -5    1.80    0.69
   0  -5   5    2.04    0.69
   0  -5   4   13.73    1.57
   0   5  -4   14.56    1.80
   0  -5   3    1.58    0.44
   0   5  -3    1.63    0.59
   0   5  -3    1.31    0.44
   0  -5   2   -0.09    0.11
   0   5  -2    0.26    0.37
   0   5  -1    7.03    1.01
   0  -5   1   11.13    1.39
   0   5  -1   10.95    1.44
   0  -5   0   62.15    3.92
   0   5   0   53.46    3.01
   0   5   0   38.65    3.12
   0   5   1    4.60    0.50
   0   5   1    4.86    0.83
   0  -5  -1    5.40    1.14
   0  -5  -2   31.03    2.98
   0   5   2   22.09    1.72
   0  -5  -3   90.79    6.22
   0  -5  -4    7.15    1.55
   0  -5  -5    4.44    1.28
   0   5   5    6.39    1.80
   0   5   6   13.00    2.82
   0   5   7   -0.15    0.43
   0   6 -11    1.20    0.80
   0   6 -10    0.25    0.41
   0   6  -9    1.48    0.71
   0   6  -9    0.76    0.63
   0   6  -8    0.32    0.32
   0  -6   7    2.61    1.02
   0   6  -7    2.37    0.89
   0  -6   6    4.56    1.13
   0   6  -6    4.00    1.07
   0   6  -5    8.52    1.54
   0  -6   5    8.96    1.77
   0   6  -4    0.04    0.25
   0  -6   4   -0.01    0.17
   0   6  -4   -0.12    0.28
   0  -6   3    0.04    0.28
   0   6  -3    0.18    0.12
   0  -6   2   70.19    4.47
   0   6  -2   79.29    5.01
   0   6  -2   55.77    4.13
   0  -6   1   50.30    3.72
   0   6  -1   51.82    3.86
   0   6  -1   45.42    3.32
   0   6   0    0.62    0.31
   0   6   0    1.07    0.51
   0  -6   0    0.07    0.42
   0   6   1   55.84    3.67
   0  -6  -1   52.65    4.28
   0  -6  -2  145.00    8.61
   0  -6  -3    0.82    0.83
   0  -6  -4    4.16    1.35
   0   6   4    4.67    1.68
   0   6   5    6.46    2.02
   0  -6  -5    3.32    1.19
   0   6   6   -0.10    0.39
   0  -7  11    0.72    0.54
   0   7 -10    4.53    1.46
   0  -7  10    2.82    1.29
   0  -7   9    6.10    1.83
   0   7  -9    4.78    1.41
   0  -7   8    2.23    0.99
   0   7  -8    1.95    0.80
   0  -7   7    0.28    0.27
   0   7  -7    0.83    0.50
   0  -7   6   18.64    2.27
   0   7  -6   20.98    2.73
   0   7  -6   20.93    2.40
   0   7  -5    4.45    1.16
   0  -7   5    3.91    0.87
   0   7  -5    4.64    1.01
   0   7  -4    0.32    0.40
   0  -7   4    0.44    0.43
   0   7  -4    0.10    0.13
   0   7  -3   22.29    2.76
   0   7  -3   22.13    2.52
   0  -7   3   18.74    2.17
   0   7  -2    6.89    1.39
   0   7  -2    5.82    1.22
   0  -7   2    5.93    1.17
   0  -7   1    0.44    0.35
   0   7  -1   -0.05    0.20
   0   7  -1    0.13    0.16
   0  -7   0    3.21    0.94
   0   7   0    4.03    1.02
   0  -7  -1   13.40    2.13
   0  -7  -2    8.79    1.81
   0  -7  -3    7.23    1.69
   0   7   4   -0.25    0.42
   0  -7  -4    0.35    0.57
   0  -7  -5    1.35    0.68
   0   7   5    2.07    1.19
   0  -8  10    1.73    1.06
   0   8 -10    0.71    0.60
   0  -8   9    4.60    1.54
   0   8  -9    5.26    1.57
   0  -8   8    0.13    0.43
   0   8  -8    0.56    0.53
   0   8  -7    1.10    0.64
   0  -8   7    0.74    0.31
   0   8  -7    0.55    0.30
   0   8  -6   -0.32    0.31
   0  -8   6    0.25    0.14
   0   8  -6   -0.18    0.43
   0   8  -5    2.75    1.02
   0  -8   5    1.46    0.55
   0   8  -5    2.27    0.79
   0   8  -4    0.93    0.76
   0   8  -4    0.19    0.25
   0  -8   4    0.12    0.15
   0   8  -3   13.74    2.12
   0  -8   3   11.01    1.73
   0   8  -3   13.14    2.30
   0  -8   2    8.99    1.61
   0   8  -2   12.96    1.96
   0   8  -2   12.90    2.15
   0   8  -1    1.21    0.76
   0  -8   1    1.25    0.70
   0   8   0   -0.06    0.16
   0  -8   0    0.09    0.33
   0  -8  -1    0.30    0.37
   0  -8  -2    4.02    1.37
   0  -8  -3    1.18    0.73
   0  -8  -4   -0.18    0.35
   0   8   4    1.97    1.24
   0   9 -10    0.37    0.43
   0   9 -10    0.84    0.73
   0  -9   9    1.37    0.83
   0   9  -9    0.11    0.15
   0   9  -8    0.16    0.06
   0  -9   8    0.29    0.35
   0   9  -8    0.21    0.37
   0   9  -7    0.79    0.62
   0   9  -7    1.37    0.71
   0  -9   7    0.56    0.44
   0   9  -6   -0.18    0.40
   0   9  -6    0.20    0.35
   0  -9   6   -0.07    0.20
   0   9  -6    0.41    0.48
   0   9  -5    0.21    0.23
   0  -9   5    0.05    0.15
   0   9  -5    0.51    0.49
   0   9  -4    2.93    1.17
   0   9  -4    2.29    0.95
   0  -9   4    2.51    0.83
   0  -9   3   -0.13    0.27
   0   9  -3    0.75    0.60
   0   9  -3   -0.24    0.41
   0   9  -2    3.99    1.25
   0  -9   2    4.16    1.14
   0  -9   1    0.03    0.04
   0   9  -1    0.42    0.56
   0  -9   0   -0.04    0.21
   0  -9  -1    0.00    0.36
   0  -9  -2    0.33    0.25
   0   9   3    0.97    0.81
   0  -9  -3    0.65    0.67
   0  10  -9   -0.06    0.07
   0  10  -9   -0.33    0.78
   0  10  -8    0.64    0.55
   0  10  -8    0.22    0.11
   0  10  -7    0.06    0.35
   0  10  -7    0.22    0.48
   0 -10   7    0.80    0.51
   0  10  -6    0.51    0.79
   0 -10   6   -0.24    0.28
   0  10  -6    0.73    0.78
   0  10  -5    5.05    1.55
   0  10  -5    4.54    1.61
   0 -10   5    3.58    1.05
   0  10  -4    0.24    0.62
   0  10  -4    0.70    0.68
   0 -10   4    0.18    0.35
   0  10  -3   -0.09    0.30
   0 -10   3    0.25    0.23
   0 -10   2    1.89    0.93
   0  10  -2   -0.43    0.71
   0 -10   1    0.65    0.54
   0 -10   0   -0.38    0.46
   0 -10  -1    1.57    0.92
   0 -10  -2    0.80    0.69
   0  11  -8    0.06    0.26
   0  11  -8   -0.19    0.35
   0  11  -7    2.39    1.17
   0  11  -7    3.09    1.53
   0  11  -6    4.18    1.56
   0  11  -6    2.79    1.57
   0  11  -5    0.33    0.57
   0  11  -5   -0.41    0.59
   0 -11   4    0.21    0.26
   0  11  -4    1.01    0.81
   0  11  -3    3.59    1.46
   0 -11   3    2.27    0.93
   0 -11   2    0.25    0.29
   0 -11   1   -0.16    0.33
   0 -11   0   -0.37    0.47
   0 -11  -1   -0.34    0.50
   0  12  -7   -0.49    0.54
   0  12  -6    0.27    0.52
   0  12  -6   -0.02    0.41
   0  12  -5   -0.33    0.73
   0  12  -4   -0.17    0.52
   1 -12   1    0.05    0.24
   1 -12   2    0.32    0.39
   1 -12   3    0.41    0.46
  -1  12  -4    0.35    0.49
  -1  12  -5   -0.02    0.26
  -1  12  -6    1.52    1.36
  -1  12  -6    2.02    1.24
  -1  12  -7   -0.85    0.75
   1 -11  -1   -0.46    0.44
   1 -11   0   -0.13    0.38
   1 -11   1    0.60    0.53
   1 -11   2    0.00    0.21
   1 -11   3    0.27    0.36
  -1  11  -3   -0.08    0.42
   1 -11   4    0.09    0.13
  -1  11  -4    0.58    0.55
  -1  11  -4    0.30    0.22
   1 -11   5    0.26    0.24
  -1  11  -5   -0.34    0.50
  -1  11  -5    0.15    0.55
  -1  11  -6   -0.29    0.51
   1 -11   6    0.51    0.39
  -1  11  -6    0.03    0.38
  -1  11  -7   -0.01    0.18
  -1  11  -7    0.00    0.57
   1 -11   7    0.71    0.56
  -1  11  -8    0.70    0.64
   1 -10  -2    0.21    0.27
   1 -10  -1    1.77    0.88
   1 -10   0    0.77    0.66
   1 -10   1    0.04    0.09
   1 -10   2    0.51    0.47
  -1  10  -2    1.66    1.03
  -1  10  -3    2.51    1.18
   1 -10   3    0.91    0.50
  -1  10  -3    1.07    0.91
  -1  10  -4    0.52    0.61
   1 -10   4    0.34    0.19
  -1  10  -4   -0.32    0.55
   1 -10   5    0.13    0.25
  -1  10  -5    0.32    0.51
  -1  10  -5    0.15    0.42
  -1  10  -6    0.03    0.38
   1 -10   6   -0.01    0.10
   1 -10   7    0.68    0.54
  -1  10  -7    0.75    0.81
  -1  10  -8    0.41    0.51
   1 -10   8    0.13    0.72
   1 -10   9    0.06    0.35
   1  -9  -4    0.27    0.32
   1  -9  -3    0.47    0.13
   1  -9  -2    1.46    0.85
   1  -9  -1    0.63    0.50
   1  -9   0    7.81    1.78
   1  -9   1    1.19    0.68
  -1   9  -1    2.01    0.99
  -1   9  -2   -0.30    0.41
   1  -9   2   -0.20    0.05
  -1   9  -2    0.51    0.57
  -1   9  -3    0.63    0.35
   1  -9   3    0.18    0.32
  -1   9  -3    0.74    0.45
  -1   9  -4    0.73    0.65
   1  -9   4    0.16    0.10
   1  -9   5    0.04    0.11
  -1   9  -5    0.43    0.22
  -1   9  -6    1.88    0.95
   1  -9   6    1.46    0.66
   1  -9   7    0.67    0.55
  -1   9  -7    0.22    0.49
   1  -9   8    0.81    0.72
  -1   9  -8   -0.04    0.17
  -1   9  -9    0.60    0.66
   1  -9   9    0.18    0.19
   1  -9  10   -0.29    0.30
   1  -8  -5    0.26    0.55
   1  -8  -4    1.57    0.97
   1  -8  -3    0.41    0.52
   1  -8  -2    1.01    0.72
   1  -8  -1   42.37    4.24
   1  -8   0   14.04    2.22
  -1   8   0   13.73    2.22
   1  -8   1    2.63    0.85
  -1   8  -1    2.61    0.90
  -1   8  -1    3.11    1.10
  -1   8  -2    6.06    1.43
  -1   8  -2    5.71    1.55
   1  -8   2    4.27    1.04
  -1   8  -3    5.68    1.38
   1  -8   3    5.14    1.17
  -1   8  -4    2.03    0.77
   1  -8   4    0.34    0.26
   1  -8   5    0.21    0.13
  -1   8  -5    0.53    0.39
  -1   8  -5    0.44    0.43
  -1   8  -6    2.01    0.93
   1  -8   6    1.21    0.59
  -1   8  -6    0.44    0.36
  -1   8  -7   -0.30    0.18
   1  -8   7   -0.08    0.17
  -1   8  -8   -0.33    0.32
   1  -8   8    0.00    0.30
  -1   8  -9   -0.09    0.45
   1  -8   9   -0.50    0.73
  -1   8 -10    0.54    0.52
   1  -8  10    1.74    1.10
  -1   7   6    0.15    0.62
   1  -7  -6   -0.15    0.36
   1  -7  -5    7.86    1.89
   1  -7  -4    0.69    0.53
   1  -7  -3    7.40    1.73
   1  -7  -2   29.25    3.33
   1  -7  -1    4.19    1.17
  -1   7   1    3.19    0.80
   1  -7   0    1.23    0.63
  -1   7   0    1.49    0.75
  -1   7  -1    1.36    0.79
   1  -7   1    0.23    0.13
   1  -7   2    0.82    0.37
   1  -7   3    0.29    0.30
   1  -7   4    1.29    0.52
  -1   7  -4    1.44    0.52
  -1   7  -4    1.23    0.59
   1  -7   5    5.11    1.10
  -1   7  -5    6.30    1.15
  -1   7  -5    5.15    1.33
   1  -7   6    4.88    1.21
  -1   7  -6    5.40    1.39
   1  -7   7    0.26    0.36
  -1   7  -7    0.01    0.41
  -1   7  -8    0.16    0.14
   1  -7   8   -0.48    0.38
   1  -7   9   12.03    2.69
  -1   7  -9   12.53    2.59
  -1   7 -10   -0.38    0.35
   1  -7  10   -0.38    0.45
   1  -6  -7    0.65    0.48
  -1   6   7    0.62    0.95
   1  -6  -6    0.41    0.61
  -1   6   6    1.84    1.10
   1  -6  -5    0.30    0.34
   1  -6  -4    3.53    1.14
   1  -6  -3    5.87    1.39
   1  -6  -2  186.73   10.18
  -1   6   1   13.84    1.70
   1  -6  -1   14.26    2.01
   1  -6   0   17.98    2.17
  -1   6   0   22.49    2.35
   1  -6   1   80.87    5.11
   1  -6   2   52.15    3.70
   1  -6   3    6.13    1.07
  -1   6  -3   11.40    1.42
   1  -6   4    3.05    0.75
  -1   6  -4    3.71    0.83
  -1   6  -5   33.49    3.27
   1  -6   5   31.45    3.01
  -1   6  -6   10.55    1.90
   1  -6   6   10.18    1.86
  -1   6  -7    2.72    0.98
   1  -6   7    3.35    1.26
  -1   6  -7    2.49    0.86
  -1   6  -8    2.15    0.88
  -1   6  -8    1.34    0.76
  -1   6  -9   -0.22    0.46
  -1   6  -9    0.94    0.72
  -1   6 -10    0.59    0.52
  -1   6 -10    0.99    0.89
  -1   6 -11    0.20    0.46
  -1   5   8    3.11    1.53
  -1   5   7   12.84    3.02
   1  -5  -7    8.18    1.90
   1  -5  -6    3.50    1.22
  -1   5   6    5.67    2.09
   1  -5  -5    2.39    0.92
   1  -5  -4   27.24    3.13
   1  -5  -3   23.82    2.70
  -1   5   2    6.91    0.83
   1  -5  -2    8.58    1.47
   1  -5  -1    0.42    0.34
  -1   5   1    0.47    0.27
   1  -5   0    0.55    0.19
   1  -5   1    0.52    0.41
   1  -5   2   -0.03    0.14
   1  -5   3  175.86    7.85
  -1   5  -3  147.16    7.41
   1  -5   4    1.85    0.55
  -1   5  -5   20.43    2.39
  -1   5  -5   20.58    2.15
   1  -5   5   24.35    2.65
  -1   5  -6    0.01    0.15
  -1   5  -6   -0.04    0.02
  -1   5  -6    0.11    0.28
  -1   5  -7    3.84    1.00
  -1   5  -7    2.98    1.04
  -1   5  -7    2.72    0.86
  -1   5  -8    0.15    0.34
  -1   5  -8    0.34    0.14
  -1   5  -9    1.78    0.99
  -1   5  -9    1.47    0.75
  -1   5 -10   -0.20    0.51
  -1   5 -10    1.14    0.78
  -1   5 -11   -0.54    0.47
   1  -4  -8    1.04    0.73
  -1   4   8    1.38    1.02
   1  -4  -7    3.68    1.28
  -1   4   7    6.74    2.04
   1  -4  -6    7.29    1.61
   1  -4  -5   15.33    2.23
   1  -4  -4    3.34    0.95
   1  -4  -3   20.17    2.28
  -1   4   2   35.67    1.93
   1  -4  -2   36.28    2.98
  -1   4   2   32.06    2.03
   1  -4  -1    0.09    0.15
  -1   4   1   -0.13    0.16
   1  -4   0   30.79    1.55
   1  -4   0   37.13    2.61
   1  -4   1    6.73    0.95
  -1   4  -2    1.58    0.38
   1  -4   2    1.11    0.37
   1  -4   3  134.44    6.80
  -1   4  -4   77.29    4.52
  -1   4  -4   79.82    4.12
  -1   4  -5    0.37    0.22
  -1   4  -5    0.01    0.16
  -1   4  -5   -0.07    0.27
  -1   4  -6    0.24    0.47
  -1   4  -6    0.79    0.50
  -1   4  -6    0.68    0.50
  -1   4  -7    4.60    1.30
  -1   4  -7    2.68    0.99
  -1   4  -8   -0.17    0.23
  -1   4  -8    0.00    0.20
  -1   4  -9    0.61    0.62
  -1   4  -9    0.30    0.51
  -1   4 -10    0.09    0.55
   1  -3  -9    2.40    1.12
   1  -3  -8    0.83    0.59
  -1   3   8    1.20    0.87
  -1   3   7    1.05    0.58
   1  -3  -7    1.65    1.13
   1  -3  -5   17.76    2.26
   1  -3  -4   86.28    5.53
   1  -3  -3    8.37    1.31
  -1   3   2   86.32    3.53
   1  -3  -2   77.83    4.73
   1  -3  -1   69.04    3.92
   1  -3   0  701.06   27.61
  -1   3  -1    0.57    0.13
   1  -3   1    0.38    0.23
  -1   3  -2   75.82    3.40
   1  -3   2   67.25    3.73
   1  -3   2   59.12    2.95
  -1   3  -3  251.89   10.72
  -1   3  -3  245.23   10.13
  -1   3  -4  185.56    8.77
   1  -3   4  183.45    8.19
   1  -3   5    5.12    0.83
  -1   3  -5    4.77    1.02
  -1   3  -5    4.11    0.93
  -1   3  -6    4.06    1.01
  -1   3  -6    4.04    1.06
   1  -3   6    3.12    0.74
  -1   3  -7    2.98    1.05
   1  -3   7    2.15    0.66
  -1   3  -7    1.68    0.63
  -1   3  -8    1.35    0.75
  -1   3  -8    1.66    0.75
  -1   3  -9    1.19    0.91
  -1   3  -9    0.37    0.63
  -1   3 -10    0.13    0.43
   1  -2  -9    1.07    0.96
   1  -2  -8    0.12    0.18
  -1   2   8    0.54    0.47
   1  -2  -7    0.60    0.51
  -1   2   7    2.18    0.98
  -1   2   6   23.56    3.05
   1  -2  -5    0.20    0.31
   1  -2  -4    0.17    0.13
   1  -2  -3   95.42    5.34
   1  -2  -2  299.88   12.71
   1  -2  -1  159.29    6.51
   1  -2  -1  149.78    6.99
  -1   2   1  164.71    6.57
   1  -2   0  117.27    5.30
   1  -2   1 9280.27  364.78
  -1   2  -1 9999.00  364.25
   1  -2   1 9827.98  364.25
  -1   2  -2    0.45    0.19
   1  -2   2    0.61    0.23
  -1   2  -3   42.25    2.83
   1  -2   3   41.24    2.54
  -1   2  -4   66.75    4.36
   1  -2   4   77.54    4.24
  -1   2  -5  136.67    7.21
  -1   2  -5  138.57    7.25
   1  -2   5  114.26    6.53
  -1   2  -6   22.00    2.52
  -1   2  -6   25.78    2.79
   1  -2   6   19.09    2.15
   1  -2   7    5.60    1.20
  -1   2  -7    7.93    1.60
  -1   2  -7    5.82    1.38
  -1   2  -8   14.09    2.28
  -1   2  -8   11.18    2.11
  -1   2  -9    0.06    0.03
  -1   2 -10   -0.20    0.42
   1  -1 -10    2.06    1.04
   1  -1  -9   -0.26    0.47
  -1   1   8    3.86    1.24
   1  -1  -8    2.20    0.81
   1  -1  -7   20.88    2.67
  -1   1   7   29.99    3.29
   1  -1  -6    1.71    0.78
  -1   1   6    1.18    0.57
   1  -1  -5   20.37    2.15
   1  -1  -4  138.75    7.05
   1  -1  -3  361.74   14.64
   1  -1  -3  306.38   13.22
   1  -1  -2    2.70    0.51
   1  -1  -1  586.40   22.50
  -1   1   1  581.10   22.58
   1  -1  -1  600.84   22.67
  -1   1   0   14.29    1.05
   1  -1   1  345.75   13.59
  -1   1  -1  346.95   13.65
   1  -1   2  835.75   32.26
   1  -1   3   20.84    1.73
   1  -1   4  152.92    7.55
  -1   1  -4  161.61    7.70
   1  -1   5    1.36    0.45
  -1   1  -5    1.65    0.56
  -1   1  -6   84.21    5.40
  -1   1  -6   75.51    5.52
   1  -1   6   75.41    5.08
  -1   1  -7   13.90    2.00
   1  -1   7   11.91    1.85
  -1   1  -7   14.47    2.26
  -1   1  -8   15.93    2.57
  -1   1  -9    0.32    0.51
   1   0 -10    4.39    1.39
   1   0  -9    0.56    0.53
  -1   0   8    0.77    0.64
   1   0  -8    0.92    0.45
  -1   0   7   13.65    1.97
   1   0  -7   10.46    1.77
  -1   0   6   16.13    2.01
   1   0  -6   18.88    2.18
   1   0  -5    3.93    0.89
   1   0  -4  368.13   15.69
   1   0  -3    6.85    0.86
   1   0  -3    7.92    0.99
   1   0  -2   32.98    1.97
   1   0  -2   35.71    1.77
   1   0  -2   38.47    2.16
   1   0   1   49.91    2.60
   1   0   2   14.74    1.34
   1   0   3  117.40    5.97
  -1   0  -4    0.38    0.24
   1   0   4    0.10    0.28
  -1   0  -5    9.89    1.36
   1   0   5   10.07    1.53
  -1   0  -6   10.37    1.48
   1   0   6    9.21    1.62
   1   0   7    2.51    0.85
  -1   0  -7    3.93    1.28
  -1   0  -8    0.43    0.26
   1   0   8   -0.11    0.34
  -1   0  -9    0.08    0.37
   1   1 -10    0.25    0.56
   1   1  -9    0.00    0.12
   1   1  -8    3.52    1.08
  -1  -1   7   15.94    1.85
   1   1  -7   10.48    1.74
   1   1  -6   27.31    2.69
  -1  -1   6   29.53    2.41
  -1  -1   5   63.90    3.54
   1   1  -5   53.75    3.90
   1   1  -4    6.06    0.97
  -1  -1   4    4.93    0.66
   1   1  -3   39.89    2.57
   1   1  -2  121.37    5.31
   1   1  -2  120.19    5.25
   1   1  -2  116.43    5.23
   1   1  -1    1.13    0.26
  -1  -1   1    0.88    0.21
  -1  -1   1    0.77    0.18
  -1  -1   1    1.54    0.29
  -1  -1   1    1.31    0.30
   1   1  -1    1.24    0.26
   1   1   0  923.44   34.04
  -1  -1   0  843.88   34.10
  -1  -1   0  897.58   33.96
   1   1   0  883.21   34.22
   1   1   0  937.72   34.13
   1   1   1   78.59    4.05
   1   1   2   11.55    1.33
   1   1   3   14.73    1.75
  -1  -1  -3   17.34    1.40
   1   1   4   27.18    2.62
  -1  -1  -4   25.46    1.93
   1   1   5    0.12    0.28
   1   1   6   29.50    3.25
   1   1   7    5.13    1.43
  -1  -1  -8    0.58    0.59
   1   1   8   -0.06    0.52
  -1  -1  -9    1.64    1.10
   1   2 -11    1.29    0.68
   1   2 -10    1.12    0.62
   1   2  -9    6.50    1.46
   1   2  -8    4.76    1.17
   1   2  -7   22.96    2.51
  -1  -2   7   16.92    1.74
   1   2  -6    5.72    1.11
  -1  -2   6    5.18    0.78
  -1  -2   5   60.08    2.97
   1   2  -5   53.32    3.81
   1   2  -5   55.87    3.82
   1   2  -4  286.67   12.18
   1   2  -4  265.55   11.99
   1   2  -3    7.05    0.87
   1   2  -3   10.14    1.16
   1   2  -3    7.89    0.96
  -1  -2   2    0.75    0.19
   1   2  -2    0.78    0.31
   1   2  -2    0.82    0.16
   1   2  -2    0.81    0.24
   1   2  -1    2.11    0.40
  -1  -2   1    1.63    0.31
   1   2  -1    2.15    0.30
  -1  -2   1    2.53    0.42
  -1  -2   1    2.94    0.37
   1   2  -1    2.61    0.37
  -1  -2   0   69.54    3.48
  -1  -2   0   68.72    3.03
   1   2   0   67.19    3.43
   1   2   1   28.45    2.26
  -1  -2  -1   24.27    1.94
   1   2   2  259.82   11.04
  -1  -2  -2  210.60   10.31
   1   2   3   38.10    3.26
   1   2   4  133.88    7.85
   1   2   5    2.59    1.07
   1   2   6   19.49    2.79
   1   2   7    0.62    0.34
  -1  -2  -8    1.36    1.01
   1   2   8    0.64    0.52
   1   3 -11    1.33    0.72
   1   3 -10    0.71    0.52
   1   3  -9    8.39    1.75
   1   3  -8    3.01    0.90
   1   3  -7   44.78    3.82
   1   3  -6   91.75    5.58
   1   3  -6   87.43    5.26
   1   3  -6   85.73    5.46
   1   3  -5    3.92    0.82
   1   3  -5    4.31    0.94
   1   3  -5    4.05    0.80
   1   3  -4    4.09    0.78
   1   3  -4    4.51    0.74
   1   3  -4    4.14    0.87
  -1  -3   3    0.05    0.12
   1   3  -3    0.62    0.39
   1   3  -2  363.78   15.69
  -1  -3   2  393.73   15.17
   1   3  -2  388.57   15.65
   1   3  -2  375.29   15.55
  -1  -3   1   29.68    1.79
   1   3  -1   46.80    2.64
  -1  -3   1   50.95    2.48
  -1  -3   0   50.18    2.98
   1   3   0   47.10    2.81
   1   3   0   47.28    2.21
   1   3   1  265.13   10.66
  -1  -3  -1  228.17   11.06
  -1  -3  -2   28.79    2.64
   1   3   2   34.81    3.08
   1   3   3   65.80    4.75
  -1  -3  -3   50.00    3.98
   1   3   4  122.04    7.82
   1   3   5    0.41    0.64
   1   3   6    8.09    1.96
   1   3   7    5.40    1.65
   1   3   8    0.24    0.17
  -1  -3  -8    0.61    0.57
   1   4 -11    0.53    0.29
   1   4 -10    1.67    0.60
   1   4 -10    1.67    0.77
   1   4  -9    2.73    1.06
   1   4  -9    3.50    0.97
   1   4  -8    3.19    0.94
   1   4  -8    2.10    0.78
   1   4  -7    1.40    0.61
   1   4  -7    1.14    0.50
   1   4  -7    0.92    0.42
   1   4  -6   23.55    2.40
   1   4  -6   24.97    2.36
   1   4  -6   23.34    2.50
   1   4  -5   14.26    1.80
   1   4  -5   14.56    1.60
  -1  -4   4   38.97    2.66
   1   4  -4   38.45    3.03
   1   4  -3   14.38    1.53
   1   4  -3   13.60    1.57
   1   4  -3   14.76    1.65
  -1  -4   3   14.13    1.27
   1   4  -2   35.79    2.75
   1   4  -2   36.92    2.61
  -1  -4   2   43.84    2.73
   1   4  -1  520.68   21.35
  -1  -4   1  581.79   21.83
   1   4  -1  530.57   21.91
   1   4   0  141.12    6.71
  -1  -4   0  136.27    6.90
   1   4   1    9.88    1.17
  -1  -4  -1   11.64    1.56
  -1  -4  -2  101.79    6.17
  -1  -4  -3  200.79   11.00
   1   4   3  253.68   12.31
   1   4   4    4.51    1.46
   1   4   5    5.45    1.49
   1   4   6    5.78    1.71
   1   4   7   -0.38    0.36
   1   4   8   -0.03    0.38
   1   5 -11    0.42    0.51
   1   5 -10    1.54    0.77
   1   5 -10    1.67    0.78
   1   5  -9   21.54    2.79
   1   5  -9   23.15    2.83
   1   5  -8   41.36    3.61
   1   5  -8   34.66    3.61
   1   5  -8   33.67    3.44
   1   5  -7    8.67    1.44
   1   5  -7    9.09    1.63
   1   5  -6   10.14    1.62
   1   5  -5  110.92    4.81
  -1  -5   5  118.63    6.25
   1   5  -4   21.15    2.13
   1   5  -4   18.30    1.89
  -1  -5   4   13.19    1.42
   1   5  -3    4.87    0.95
  -1  -5   3    3.26    0.68
   1   5  -3    4.74    1.01
   1   5  -3    5.57    1.02
   1   5  -2   37.99    2.96
  -1  -5   2   29.98    2.48
   1   5  -2   36.84    2.66
   1   5  -1    3.84    0.84
  -1  -5   1    4.19    0.83
   1   5   0    7.05    1.12
  -1  -5   0   10.47    1.44
   1   5   1    0.38    0.22
  -1  -5  -1    0.78    0.45
  -1  -5  -2    5.45    1.19
  -1  -5  -3   10.34    1.83
   1   5   3   13.79    2.35
   1   5   4   16.03    2.75
   1   5   5   -0.20    0.38
   1   5   6    3.48    1.48
   1   5   7    4.40    1.70
   1   6 -11   -0.01    0.31
   1   6  -9    5.41    1.43
   1   6  -8    9.46    1.78
   1   6  -7    0.12    0.12
  -1  -6   7    0.08    0.11
  -1  -6   6    0.25    0.31
   1   6  -6    0.04    0.34
  -1  -6   5    1.43    0.47
   1   6  -5    2.82    0.88
   1   6  -5    2.32    0.70
   1   6  -4   24.65    2.46
   1   6  -4   24.80    2.66
   1   6  -4   25.44    2.46
  -1  -6   4   16.26    1.77
   1   6  -3    2.45    0.81
  -1  -6   3    1.48    0.48
   1   6  -3    1.88    0.59
  -1  -6   2   49.35    3.45
  -1  -6   2   40.57    2.27
   1   6  -2   43.51    3.17
   1   6  -1   20.34    2.24
  -1  -6   1   19.33    2.13
   1   6   0    1.98    0.66
  -1  -6   0    0.74    0.49
   1   6   1   14.26    1.69
  -1  -6  -1   15.32    2.12
   1   6   2    5.99    1.61
  -1  -6  -2    5.10    1.31
   1   6   3    1.52    1.07
  -1  -6  -3    1.05    0.66
   1   6   4    4.39    1.49
   1   6   5    0.39    0.18
   1   6   6    1.20    0.93
   1   7 -11    0.45    0.48
   1   7 -10    0.52    0.35
  -1  -7  10    0.76    0.68
  -1  -7   9    2.11    1.06
   1   7  -9    0.65    0.46
  -1  -7   8    0.87    0.60
   1   7  -8    1.68    0.83
   1   7  -7    0.37    0.52
  -1  -7   7    0.25    0.38
   1   7  -6   14.06    2.20
   1   7  -6   13.20    2.04
   1   7  -6   12.34    1.81
  -1  -7   6   10.75    1.54
   1   7  -5    2.99    0.86
   1   7  -5    3.49    0.86
   1   7  -5    3.78    1.10
  -1  -7   5    2.75    0.76
   1   7  -4    0.38    0.42
   1   7  -4    0.16    0.14
  -1  -7   4   -0.13    0.18
   1   7  -3   10.05    1.77
   1   7  -3    7.31    1.37
  -1  -7   3    8.39    1.35
   1   7  -2   -0.14    0.23
  -1  -7   2   -0.19    0.01
   1   7  -2    0.01    0.28
  -1  -7   1   20.70    2.40
   1   7  -1   20.45    2.45
  -1  -7   0    2.71    0.89
   1   7   0    2.50    0.82
  -1  -7  -1    1.78    0.78
  -1  -7  -2    5.50    1.43
   1   7   2    4.86    1.62
  -1  -7  -3   -0.43    0.49
   1   7   3    0.67    0.89
   1   7   4    1.34    0.89
   1   7   5    1.68    1.06
   1   8 -11    1.29    0.83
   1   8 -10    0.29    0.20
   1   8  -9    0.32    0.37
  -1  -8   9    0.07    0.03
   1   8  -9   -0.09    0.24
   1   8  -8    2.59    1.14
   1   8  -8    1.90    0.85
   1   8  -8    1.26    0.66
  -1  -8   8    1.83    0.79
   1   8  -7   -0.26    0.45
   1   8  -7   -0.37    0.35
   1   8  -7    0.29    0.61
  -1  -8   7   -0.17    0.29
  -1  -8   6    9.20    1.48
   1   8  -6   13.28    2.37
   1   8  -6   10.89    1.94
   1   8  -6   16.16    2.18
   1   8  -5    1.38    0.74
  -1  -8   5    1.23    0.54
   1   8  -5    1.46    0.82
   1   8  -4    4.85    1.24
  -1  -8   4    4.54    1.05
   1   8  -4    4.92    1.20
  -1  -8   3    6.01    1.20
   1   8  -3    4.91    1.14
   1   8  -3    6.04    1.51
  -1  -8   2   -0.08    0.22
   1   8  -2    0.78    0.61
   1   8  -1    1.31    0.71
  -1  -8   1    0.87    0.49
  -1  -8   0    0.64    0.39
   1   8   0    2.08    0.77
  -1  -8  -1    0.45    0.54
   1   8   1    0.14    0.57
   1   8   2    5.41    1.79
  -1  -8  -2    3.34    1.18
  -1  -8  -3    1.86    0.95
   1   8   3    3.55    1.52
   1   9 -11    0.18    0.34
   1   9 -10    0.27    0.46
   1   9 -10   -0.64    0.49
   1   9  -9   -0.15    0.07
   1   9  -9    0.01    0.11
   1   9  -8   -0.24    0.45
   1   9  -8    0.10    0.22
   1   9  -8    0.16    0.43
   1   9  -7    0.49    0.28
   1   9  -7    0.06    0.34
   1   9  -7    1.01    0.62
   1   9  -6    6.90    1.77
   1   9  -6    4.12    1.28
  -1  -9   6    4.10    1.05
  -1  -9   5   13.38    1.94
   1   9  -5   15.12    2.35
   1   9  -5   17.22    2.81
   1   9  -4   -0.22    0.27
   1   9  -4   -0.22    0.35
  -1  -9   4    0.42    0.35
  -1  -9   3    2.14    0.78
   1   9  -3    1.80    0.84
  -1  -9   2   17.34    2.40
   1   9  -2   23.15    3.11
   1   9  -1    0.01    0.50
  -1  -9   1   -0.01    0.14
  -1  -9   0    4.16    1.26
  -1  -9  -1    0.96    0.72
   1   9   1    0.57    1.03
   1   9   2    0.42    0.05
  -1  -9  -2    0.07    0.05
  -1  -9  -3    0.65    0.58
   1  10  -9    0.55    1.52
   1  10  -8   -0.20    0.37
   1  10  -8    1.01    0.93
   1  10  -7   -0.24    0.58
   1  10  -7    0.79    0.38
   1  10  -6    0.99    0.69
   1  10  -6    0.02    0.48
   1  10  -5   -0.82    0.90
   1  10  -4    0.00    0.12
  -1 -10   4    0.19    0.31
  -1 -10   3    0.15    0.26
   1  10  -3    0.12    0.22
   1  10  -2    8.31    2.04
  -1 -10   2    4.49    1.22
  -1 -10   1    1.70    0.78
   1  10  -1    2.23    1.06
   1  10   0    0.71    0.51
  -1 -10   0    0.65    0.57
  -1 -10  -1    1.94    1.01
   1  10   1    6.32    2.13
  -1 -10  -2   -0.01    0.24
   1  11  -8   -0.36    0.69
   1  11  -7    2.62    1.25
   1  11  -6    4.79    1.79
   1  11  -5    3.62    1.47
   1  11  -4    1.64    0.94
   1  11  -3    0.61    0.61
   1  11  -3    1.02    0.96
   1  11  -2    0.76    0.71
   1  11  -1    0.09    0.14
   1  12  -7   -0.10    0.34
   1  12  -6   -0.01    0.17
   1  12  -5    0.95    0.81
   1  12  -4    1.09    0.99
   1  12  -2   -0.64    0.71
   2 -12   1   -0.45    0.16
   2 -12   2    0.01    0.24
   2 -12   3    0.04    0.33
   2 -12   4   -0.20    0.31
  -2  12  -4   -0.50    0.84
  -2  12  -5   -0.13    0.56
  -2  12  -5    0.40    0.53
   2 -12   5   -0.12    0.13
   2 -12   6   -0.33    0.46
  -2  12  -6   -0.21    0.33
  -2  12  -6   -1.53    1.07
   2 -11  -1    0.09    0.23
   2 -11   0    0.03    0.25
   2 -11   1    1.25    0.70
   2 -11   2   -0.30    0.37
   2 -11   3    0.07    0.59
  -2  11  -3    0.33    0.67
   2 -11   4    0.00    0.12
  -2  11  -4   -0.14    0.50
  -2  11  -5   -0.28    0.39
   2 -11   5    0.23    0.21
   2 -11   6    0.22    0.24
  -2  11  -6   -0.07    0.49
   2 -11   7    0.17    0.29
  -2  11  -7   -0.11    0.20
   2 -11   8    0.05    0.30
   2 -10  -3    0.05    0.32
   2 -10  -2    0.02    0.22
   2 -10  -1    0.40    0.33
   2 -10   0    2.45    1.06
   2 -10   1    1.24    0.75
  -2  10  -2   -0.27    0.41
  -2  10  -2    0.63    0.76
   2 -10   2   -0.15    0.36
  -2  10  -3    1.66    0.97
   2 -10   3   -0.09    0.14
  -2  10  -4    0.79    0.58
   2 -10   4    0.64    0.49
  -2  10  -5    0.91    0.75
   2 -10   5    0.43    0.39
   2 -10   6    0.44    0.31
  -2  10  -6   -0.05    0.51
  -2  10  -7   -0.44    0.47
   2 -10   7   -0.04    0.10
   2 -10   8    0.29    0.37
  -2  10  -8    0.12    0.44
   2 -10   9    0.37    0.40
   2  -9  -4    3.61    1.45
   2  -9  -3   -0.72    0.70
   2  -9  -2    3.29    1.20
   2  -9  -1    2.47    1.00
   2  -9   0    0.10    0.12
   2  -9   1    0.04    0.09
  -2   9  -1    0.66    0.60
   2  -9   2   -0.21    0.45
   2  -9   3    2.36    0.86
  -2   9  -4    1.82    0.83
   2  -9   4    1.96    0.78
   2  -9   5    0.51    0.44
  -2   9  -5   -0.06    0.25
  -2   9  -6    0.89    0.76
   2  -9   6    0.92    0.53
  -2   9  -7    2.42    1.19
   2  -9   7    1.88    0.91
   2  -9   8    0.11    0.08
  -2   9  -8   -0.29    0.24
  -2   9  -9    0.78    0.85
   2  -9   9    0.69    0.75
   2  -8  -5   -0.07    0.40
   2  -8  -4    0.14    0.40
   2  -8  -3   -0.68    0.60
   2  -8  -2    3.96    1.27
   2  -8  -1   66.69    5.43
   2  -8   0    9.14    1.70
  -2   8   0    7.72    1.78
   2  -8   1    4.30    1.10
   2  -8   2   23.92    2.65
   2  -8   3    6.37    1.29
   2  -8   4   -0.01    0.15
  -2   8  -5   -0.17    0.22
   2  -8   5    0.30    0.23
  -2   8  -6    5.00    1.56
   2  -8   6    3.27    0.99
  -2   8  -7    0.60    0.54
   2  -8   7    0.68    0.58
   2  -8   8   -0.07    0.11
  -2   8  -8   -0.66    0.91
  -2   8  -9    0.17    0.37
   2  -8   9   -0.10    0.28
   2  -8  10   -0.04    0.20
   2  -7  -6    8.04    1.95
   2  -7  -6    4.33    1.27
   2  -7  -5    1.38    0.76
   2  -7  -4    2.72    1.16
   2  -7  -3    7.96    1.70
   2  -7  -2   48.84    4.43
  -2   7   1    6.52    1.35
   2  -7  -1    4.37    1.17
   2  -7   0    6.47    1.31
   2  -7   1    0.60    0.36
   2  -7   2    0.60    0.41
   2  -7   3    0.54    0.36
   2  -7   4   14.79    1.90
  -2   7  -4   18.05    1.94
   2  -7   5    0.88    0.59
  -2   7  -6    4.87    1.49
   2  -7   6    2.84    1.02
  -2   7  -7    0.59    0.76
   2  -7   7    0.53    0.30
   2  -7   8    0.11    0.14
  -2   7  -8    0.59    0.52
  -2   7  -9    0.43    0.29
   2  -7   9    1.69    1.04
  -2   7  -9    1.57    1.25
   2  -7  10    1.83    1.16
   2  -6  -7   -0.12    0.34
  -2   6   7    0.92    1.34
   2  -6  -7    0.31    0.35
   2  -6  -6    4.27    1.38
   2  -6  -5    3.98    1.22
   2  -6  -4   14.01    2.24
   2  -6  -3   12.57    2.03
   2  -6  -2   34.05    3.32
  -2   6   1   59.01    4.01
   2  -6  -1   42.17    3.73
   2  -6   0    3.55    0.48
   2  -6   0    4.43    1.01
   2  -6   1   11.92    1.62
   2  -6   2    1.52    0.50
   2  -6   3    3.42    0.79
  -2   6  -3    3.61    0.74
   2  -6   4   18.22    2.10
   2  -6   5    0.10    0.26
   2  -6   6    1.41    0.75
  -2   6  -6    0.40    0.47
  -2   6  -6   -0.15    0.43
  -2   6  -7    0.67    0.53
  -2   6  -7   -0.21    0.34
   2  -6   7   -0.30    0.71
  -2   6  -8   -0.23    0.28
  -2   6  -8   -0.40    0.57
  -2   6  -9    1.01    0.78
  -2   6  -9   -0.68    0.53
  -2   6 -10    0.68    0.73
  -2   6 -10   -0.29    0.65
   2  -5  -8   -0.20    0.46
  -2   5   8    0.71    0.96
   2  -5  -7    0.36    0.48
   2  -5  -7   -0.13    0.26
   2  -5  -6    2.52    0.89
   2  -5  -6    1.10    0.63
   2  -5  -5    0.31    0.65
   2  -5  -4   15.69    2.25
   2  -5  -3   29.52    2.95
  -2   5   2    1.04    0.39
   2  -5  -2    1.04    0.33
   2  -5  -1   49.25    3.53
   2  -5  -1   42.74    2.31
   2  -5   0   45.02    3.32
   2  -5   1   20.38    1.32
   2  -5   1   26.10    2.21
   2  -5   2    1.33    0.47
  -2   5  -2    1.98    0.40
   2  -5   3    2.01    0.60
  -2   5  -4   49.14    3.43
   2  -5   4   51.03    3.99
  -2   5  -5   34.42    3.03
   2  -5   5   32.38    3.42
  -2   5  -6    1.73    0.78
  -2   5  -6    1.53    0.77
  -2   5  -7    0.17    0.35
  -2   5  -7    2.07    1.06
  -2   5  -8   -0.34    0.65
  -2   5  -8    0.46    0.40
  -2   5  -9    0.16    0.31
  -2   5  -9    0.26    0.54
  -2   5 -10    1.29    0.82
  -2   5 -10   -0.55    0.73
  -2   4   9    1.92    1.29
   2  -4  -8    0.16    0.09
  -2   4   8    0.95    1.01
   2  -4  -7    0.60    0.51
   2  -4  -7    0.76    0.41
   2  -4  -6    1.52    0.65
   2  -4  -6    0.87    0.46
   2  -4  -5    3.99    1.02
   2  -4  -4    1.55    0.59
   2  -4  -3    0.50    0.37
   2  -4  -2   20.37    2.08
   2  -4  -1   94.24    4.55
   2  -4  -1  118.84    5.74
   2  -4   0   11.15    1.35
   2  -4   0    7.56    0.59
   2  -4   1    5.21    0.87
   2  -4   1    4.55    0.43
   2  -4   2  816.12   32.27
   2  -4   3   -0.03    0.34
  -2   4  -3    0.26    0.16
  -2   4  -4   13.97    1.24
  -2   4  -4   15.59    1.74
  -2   4  -5    8.27    1.18
  -2   4  -5    4.99    1.07
   2  -4   6   17.81    1.94
  -2   4  -6   17.94    2.28
  -2   4  -6   19.74    2.66
  -2   4  -7   10.33    1.86
  -2   4  -7   13.44    2.41
  -2   4  -8    0.90    0.71
  -2   4  -8    0.60    0.58
  -2   4  -9    1.77    0.84
  -2   4  -9    3.45    1.66
  -2   4 -10    1.16    0.74
   2  -3  -9    0.83    0.60
  -2   3   8   -0.23    0.25
   2  -3  -8   -0.03    0.28
   2  -3  -7    2.60    0.86
   2  -3  -6   23.69    2.71
   2  -3  -6   23.13    2.53
   2  -3  -5   16.37    2.13
   2  -3  -4   32.85    2.91
   2  -3  -3  121.53    6.48
   2  -3  -2  103.57    5.44
   2  -3  -2  101.58    4.89
   2  -3  -1    4.85    0.62
   2  -3  -1    6.26    0.91
   2  -3   0    0.55    0.30
   2  -3   1  147.59    6.87
   2  -3   2  237.67   11.38
  -2   3  -2  272.70   10.78
   2  -3   3    9.95    1.22
  -2   3  -3   14.22    1.48
   2  -3   4    0.18    0.18
  -2   3  -4   -0.05    0.10
   2  -3   5   79.31    4.85
  -2   3  -5   81.52    5.26
  -2   3  -6    0.28    0.26
  -2   3  -6    0.14    0.27
   2  -3   6   -0.05    0.18
  -2   3  -7   12.90    2.09
   2  -3   7   11.78    1.73
  -2   3  -7   21.15    3.08
  -2   3  -8    9.54    2.24
  -2   3  -8    6.89    1.66
  -2   3  -9    5.80    1.69
  -2   3 -10   -0.46    0.60
   2  -2  -9    1.44    0.76
  -2   2   8    1.71    0.99
   2  -2  -8    1.04    0.60
   2  -2  -7    7.95    1.49
   2  -2  -6   15.65    1.97
   2  -2  -6   15.67    2.03
   2  -2  -5   29.60    2.73
   2  -2  -5   24.92    2.40
   2  -2  -4   23.90    2.10
   2  -2  -4   22.70    2.21
   2  -2  -3  443.89   18.50
   2  -2  -3  452.45   18.22
   2  -2  -2    5.73    0.78
   2  -2  -2    6.17    0.75
   2  -2  -2    7.54    0.93
   2  -2  -1   14.26    1.15
   2  -2  -1   15.54    0.94
   2  -2  -1   16.40    1.41
   2  -2   0 2005.83   75.69
   2  -2   1 1563.79   59.69
   2  -2   2   36.51    2.43
   2  -2   3   49.78    3.30
   2  -2   4   36.11    2.91
  -2   2  -5    1.44    0.58
   2  -2   5    0.35    0.09
  -2   2  -6    8.68    1.63
   2  -2   6    8.59    1.50
  -2   2  -6    9.04    1.86
   2  -2   7    8.19    1.54
  -2   2  -7    9.96    2.02
  -2   2  -7   10.25    1.94
  -2   2  -8    0.10    0.51
  -2   2  -8    0.54    0.65
  -2   2  -9   -0.40    0.48
   2  -1 -10    3.02    1.07
   2  -1  -9    1.30    0.67
  -2   1   8    0.36    0.24
   2  -1  -8    0.18    0.15
   2  -1  -7    6.17    1.29
   2  -1  -6   43.47    3.49
   2  -1  -6   39.65    2.14
   2  -1  -6   46.79    3.52
   2  -1  -5   67.71    4.28
   2  -1  -5   66.63    4.24
   2  -1  -5   62.83    2.95
   2  -1  -4   83.63    3.74
   2  -1  -4  101.04    5.17
   2  -1  -4   95.16    4.98
   2  -1  -3   86.27    4.48
   2  -1  -3   83.74    4.43
   2  -1  -3   87.32    3.66
   2  -1  -2  141.58    5.96
   2  -1  -2  126.64    5.75
   2  -1  -2  149.03    5.74
  -2   1   2  110.56    5.44
  -2   1   1  184.24    8.02
   2  -1  -1  214.52    8.43
   2  -1  -1  219.08    8.39
   2  -1   0   68.25    3.45
   2  -1   0   74.19    3.59
  -2   1   0   69.81    3.06
   2  -1   1  791.84   30.73
   2  -1   2   36.13    2.58
   2  -1   3    0.46    0.40
   2  -1   4    7.28    1.23
   2  -1   5   17.65    2.15
  -2   1  -5   21.00    2.36
   2  -1   6    1.47    0.94
  -2   1  -6   -0.01    0.18
   2  -1   7    8.84    1.73
  -2   1  -7   10.71    2.17
  -2   1  -7   11.10    2.00
  -2   1  -8    1.00    0.44
  -2   1  -9   -0.52    0.70
   2   0 -10    2.81    1.06
   2   0  -9    0.77    0.55
   2   0  -8   19.56    2.46
  -2   0   8   22.29    2.68
  -2   0   7    8.24    1.50
   2   0  -7    4.11    0.71
   2   0  -7    4.71    1.10
   2   0  -6   38.34    3.18
   2   0  -6   36.55    2.38
   2   0  -5   11.42    1.49
   2   0  -5   10.96    1.40
   2   0  -5   10.98    1.07
   2   0  -4   91.84    4.95
   2   0  -4   88.87    4.25
   2   0  -4   95.94    4.86
   2   0  -3  118.13    5.35
   2   0  -3  115.77    5.46
   2   0  -3  108.93    4.93
   2   0  -2  264.85   10.60
   2   0  -2  264.21   10.72
  -2   0   2  277.21   10.85
   2   0  -2  247.21   10.45
   2   0  -2  259.35   10.90
  -2   0   2  283.09   10.77
   2   0  -1  146.03    6.06
  -2   0   1  144.63    6.03
  -2   0   1  118.34    5.90
   2   0  -1  151.42    5.83
   2   0  -1  147.10    6.20
   2   0  -1  141.24    5.89
   2   0  -1  154.96    6.07
   2   0  -1  143.99    6.08
   2   0   0    0.82    0.33
   2   0   1  106.04    5.22
   2   0   2    2.20    0.60
   2   0   3   47.28    3.38
   2   0   4   18.13    2.09
   2   0   5    8.64    1.50
  -2   0  -5   10.59    1.62
   2   0   6    1.47    0.72
  -2   0  -6    1.67    0.68
   2   0   7    4.17    1.19
  -2   0  -8   -0.01    0.59
   2   0   8    0.74    0.61
  -2   0  -9   -0.11    0.10
   2   1 -11   -0.29    0.48
   2   1 -10   -0.11    0.41
   2   1  -9    3.51    1.04
   2   1  -8   29.48    3.11
   2   1  -7    2.29    0.72
  -2  -1   7    3.47    0.81
   2   1  -7    2.25    0.58
   2   1  -6   27.68    2.19
   2   1  -6   26.77    2.59
   2   1  -5   91.06    4.68
   2   1  -5   87.75    5.23
   2   1  -4    1.96    0.46
   2   1  -4    2.39    0.58
  -2  -1   3   45.30    2.64
  -2  -1   3   66.03    3.10
   2   1  -3   59.57    3.23
   2   1  -3   57.40    3.17
   2   1  -3   59.41    3.07
  -2  -1   2  201.15    9.05
   2   1  -2  211.75    9.19
   2   1  -2  227.31    8.83
   2   1  -2  235.53    9.34
   2   1  -2  230.30    9.25
   2   1  -1 1135.82   40.76
   2   1  -1 1079.00   40.84
   2   1  -1 1002.20   40.63
   2   1   0  275.50   11.45
   2   1   1   17.96    1.70
   2   1   2  213.01    9.91
   2   1   3   28.31    2.68
   2   1   4   17.12    2.16
  -2  -1  -4   20.08    1.90
   2   1   5   51.84    4.38
   2   1   6    1.40    0.71
   2   1   7    6.47    1.59
  -2  -1  -8    4.23    1.67
   2   1   8    1.93    0.99
   2   2 -11    0.49    0.54
   2   2 -10    2.86    1.04
   2   2  -9    2.11    0.82
   2   2  -8   19.81    2.50
   2   2  -8   19.19    2.05
  -2  -2   7   17.94    1.57
   2   2  -7   16.82    1.83
   2   2  -7   17.17    2.20
   2   2  -6   42.88    3.48
   2   2  -6   41.90    3.10
  -2  -2   6   50.93    2.61
  -2  -2   5   84.22    3.44
   2   2  -5   67.12    4.46
   2   2  -5   69.02    4.27
   2   2  -4   15.87    1.51
   2   2  -4   13.42    1.44
   2   2  -4   12.38    1.37
   2   2  -3   24.07    1.81
  -2  -2   3   17.36    1.19
  -2  -2   3   16.08    1.16
   2   2  -3   21.67    1.67
   2   2  -3   22.08    1.12
   2   2  -2  300.81   12.62
   2   2  -2  307.64   12.18
   2   2  -2  302.95   12.46
   2   2  -2  309.04   12.67
   2   2  -1  292.43   12.20
   2   2  -1  284.00   11.66
   2   2  -1  289.45   12.33
  -2  -2   1  332.68   11.80
   2   2  -1  282.02   11.98
   2   2   0  929.99   36.20
   2   2   0  915.44   35.96
   2   2   1  161.38    7.92
   2   2   2   38.96    3.21
   2   2   3  101.78    5.81
  -2  -2  -3   71.50    3.72
   2   2   4  189.13   10.30
   2   2   5   15.64    2.39
   2   2   6    0.01    0.32
   2   2   7    0.99    0.81
  -2  -2  -8   -0.76    0.98
   2   2   8   -0.18    0.23
   2   3 -12    0.62    0.51
   2   3 -11    0.24    0.57
   2   3 -11    0.15    0.28
   2   3 -10    1.41    0.76
   2   3 -10    2.74    1.22
   2   3  -9    1.42    0.68
   2   3  -9    1.41    0.59
   2   3  -8   53.41    3.96
   2   3  -8   58.60    4.61
   2   3  -8   58.21    4.40
   2   3  -7   84.87    5.60
   2   3  -7   81.79    5.08
   2   3  -7   87.08    5.41
   2   3  -6    0.61    0.43
   2   3  -6    0.45    0.29
   2   3  -6    0.38    0.27
   2   3  -5    5.09    0.90
   2   3  -5    4.82    0.90
   2   3  -4  391.84   16.26
   2   3  -4  378.74   15.97
   2   3  -3  124.83    6.44
   2   3  -3  126.76    6.41
   2   3  -3  127.50    5.61
  -2  -3   3  137.94    5.54
   2   3  -2   11.50    1.10
   2   3  -2    9.68    0.76
   2   3  -2   11.26    1.10
   2   3  -2   11.18    1.25
  -2  -3   2   13.80    0.95
   2   3  -2   11.75    1.31
   2   3  -1    9.70    1.19
   2   3  -1   11.09    1.26
  -2  -3   1   12.78    1.18
   2   3  -1   10.24    0.98
   2   3   0    0.60    0.31
   2   3   0   -0.03    0.19
  -2  -3   0   -0.05    0.10
  -2  -3   0    0.11    0.20
   2   3   1   12.69    1.66
  -2  -3  -1   13.90    1.59
   2   3   2   19.76    2.37
   2   3   3    3.68    1.04
   2   3   4    1.36    0.61
   2   3   5   14.82    2.47
   2   3   6   -0.12    0.37
   2   3   7    2.40    1.11
   2   3   8    3.16    1.43
   2   4 -11    2.67    1.00
   2   4 -11    1.00    0.59
   2   4 -10    1.96    0.73
   2   4 -10    4.30    1.17
   2   4 -10    4.79    1.29
   2   4  -9   24.91    2.96
   2   4  -9   22.18    2.54
   2   4  -9   28.67    3.01
   2   4  -8   15.18    2.03
   2   4  -8   12.10    1.91
   2   4  -8   10.75    1.68
   2   4  -7   12.22    1.71
   2   4  -7   11.52    1.74
   2   4  -7   14.26    1.84
   2   4  -6    0.43    0.32
   2   4  -6    0.31    0.23
   2   4  -5    0.36    0.30
   2   4  -4    7.83    1.22
  -2  -4   4    7.79    0.88
   2   4  -4    9.35    1.29
   2   4  -4    8.48    0.76
   2   4  -3    3.53    0.80
  -2  -4   3    5.49    0.72
   2   4  -3    3.95    0.64
   2   4  -3    4.03    0.84
  -2  -4   2    9.93    1.02
   2   4  -2   10.42    1.21
   2   4  -2    9.92    1.32
   2   4  -1  154.78    6.77
   2   4  -1  169.24    7.95
  -2  -4   1  160.36    7.41
   2   4  -1  154.47    7.67
   2   4   0    1.17    0.34
   2   4   0    1.21    0.48
  -2  -4   0    1.41    0.54
   2   4   0    1.19    0.31
   2   4   1    9.87    1.59
  -2  -4  -1    9.67    1.46
  -2  -4  -2  102.66    6.41
   2   4   2  105.11    6.81
   2   4   3   31.06    3.51
   2   4   4    2.06    1.01
   2   4   5    2.92    1.11
   2   4   6   -0.01    0.31
   2   4   7    0.55    0.63
   2   5 -11    0.34    0.46
   2   5 -11   -0.31    0.52
   2   5 -11    0.36    0.28
   2   5 -10    1.99    0.81
   2   5 -10    1.11    0.56
   2   5 -10    1.61    0.79
   2   5  -9   15.00    2.17
   2   5  -9   15.55    2.22
   2   5  -8    1.24    0.59
   2   5  -8    1.15    0.57
   2   5  -7    2.65    0.76
   2   5  -7    2.43    0.78
   2   5  -6    0.97    0.49
  -2  -5   6    0.29    0.36
   2   5  -5   98.49    5.91
   2   5  -5  106.43    6.32
  -2  -5   5  103.72    5.30
   2   5  -5  106.94    4.53
   2   5  -4    4.36    0.95
   2   5  -4    4.64    0.98
  -2  -5   4    5.57    0.82
   2   5  -4    4.36    0.66
   2   5  -3   12.91    1.37
   2   5  -3   12.70    1.68
  -2  -5   3   14.57    1.39
   2   5  -2   20.11    1.97
  -2  -5   2   20.55    1.80
   2   5  -2   19.25    2.05
  -2  -5   1    0.29    0.27
   2   5  -1    0.44    0.30
   2   5  -1    0.28    0.21
  -2  -5   0   27.56    2.53
   2   5   0   16.55    1.24
   2   5   0   29.88    2.87
   2   5   0   17.78    1.94
  -2  -5  -1    2.91    0.84
   2   5   1    3.73    1.18
   2   5   1    1.80    0.57
   2   5   2    2.10    0.85
  -2  -5  -2    1.38    0.63
   2   5   3   26.60    3.39
   2   5   4    1.11    0.71
   2   5   5   -0.64    0.68
   2   5   6    0.98    0.76
   2   6 -11    0.03    0.20
   2   6 -10    1.16    0.73
   2   6 -10    2.30    0.86
   2   6  -9    7.27    1.58
   2   6  -9    6.18    1.45
  -2  -6   8    5.95    1.45
   2   6  -8    5.23    1.32
   2   6  -7   21.55    2.65
  -2  -6   7   26.25    2.68
  -2  -6   6    0.94    0.39
   2   6  -6    1.34    0.57
   2   6  -6    1.67    0.75
   2   6  -5   53.95    4.02
  -2  -6   5   48.14    2.99
   2   6  -5   55.30    3.81
   2   6  -4   33.03    3.14
   2   6  -4   28.68    2.22
   2   6  -4   36.15    3.16
  -2  -6   4   35.07    2.62
   2   6  -3   16.94    1.77
  -2  -6   3   17.00    1.70
   2   6  -3   17.65    2.15
  -2  -6   2   11.86    1.49
   2   6  -2   11.54    1.62
   2   6  -2   14.26    1.85
   2   6  -1   13.31    1.88
  -2  -6   1   14.23    1.73
   2   6  -1   13.40    1.83
   2   6   0   13.79    2.08
  -2  -6   0   14.31    1.95
   2   6   0   13.28    1.79
  -2  -6  -1    0.98    0.54
   2   6   1    1.12    0.68
   2   6   1    0.32    0.14
   2   6   2    0.30    0.50
  -2  -6  -2    0.18    0.42
   2   6   3    3.17    1.29
   2   6   4    1.30    0.91
   2   6   5    2.36    1.22
   2   7 -12    0.05    0.19
   2   7 -11   -0.01    0.12
   2   7 -10    0.14    0.24
   2   7  -9    2.64    1.03
   2   7  -8    0.33    0.37
  -2  -7   8    0.48    0.40
   2   7  -7    4.31    1.08
   2   7  -7    3.96    1.19
  -2  -7   7    3.06    0.83
   2   7  -6    5.97    1.23
  -2  -7   6    5.98    1.04
   2   7  -6    6.15    1.43
   2   7  -5    0.08    0.10
   2   7  -5    0.35    0.18
  -2  -7   5    0.77    0.35
   2   7  -4   31.71    3.21
   2   7  -4   26.85    2.32
  -2  -7   4   30.28    2.52
  -2  -7   3   13.42    1.65
   2   7  -3   16.74    2.22
   2   7  -3   13.65    1.75
   2   7  -2   20.85    2.40
  -2  -7   2   14.35    1.83
   2   7  -2   22.11    2.57
   2   7  -1   32.75    3.34
  -2  -7   1   29.32    2.89
   2   7  -1   32.63    3.20
   2   7   0    0.09    0.14
   2   7   0    0.07    0.31
  -2  -7   0   -0.10    0.24
   2   7   1   12.32    2.24
  -2  -7  -1    8.42    1.63
  -2  -7  -2    0.11    0.35
   2   7   2    1.38    0.84
   2   7   3    2.44    1.17
   2   7   4    0.30    0.25
   2   8 -11    0.26    0.45
   2   8 -10    0.03    0.36
   2   8  -9   -0.16    0.15
   2   8  -9   -0.14    0.24
   2   8  -8    1.90    0.80
   2   8  -8    1.37    0.69
   2   8  -7    1.47    0.61
   2   8  -7    3.06    1.12
   2   8  -6    3.16    0.98
   2   8  -6    3.58    1.14
  -2  -8   6    3.40    0.85
   2   8  -5    3.82    1.19
  -2  -8   5    3.64    0.87
  -2  -8   4    4.71    0.97
   2   8  -4    5.96    1.12
   2   8  -4    6.40    1.48
   2   8  -3    0.30    0.47
   2   8  -3   -0.06    0.31
  -2  -8   3    0.28    0.28
  -2  -8   2   -0.34    0.27
   2   8  -2   -0.63    0.56
   2   8  -2    0.12    0.24
   2   8  -1   17.83    2.62
   2   8  -1   19.88    2.65
  -2  -8   1   14.87    2.11
   2   8   0    4.14    1.34
  -2  -8   0    3.00    0.91
   2   8   1    4.01    1.44
  -2  -8  -1    4.38    1.21
   2   8   2    9.54    2.31
  -2  -8  -2    6.36    1.60
   2   8   3   -0.12    0.42
   2   9 -11    0.26    0.38
   2   9 -10   -0.56    0.52
   2   9 -10    0.21    0.21
   2   9  -9    0.54    0.52
   2   9  -9   -0.22    0.30
   2   9  -8    1.71    0.73
   2   9  -8    4.13    1.46
   2   9  -7    1.07    0.83
   2   9  -7   -0.31    0.42
   2   9  -6   38.27    4.36
   2   9  -5    9.35    2.01
   2   9  -4    4.64    1.11
   2   9  -4    3.72    1.30
   2   9  -3    5.15    1.26
  -2  -9   3    3.79    0.96
   2   9  -3    4.10    1.34
   2   9  -2    6.17    1.52
   2   9  -2    6.07    1.55
  -2  -9   2    4.85    1.14
  -2  -9   1    0.32    0.34
   2   9  -1    0.02    0.18
   2   9   0   -0.23    0.30
  -2  -9   0    0.05    0.12
   2   9   1    0.54    0.38
  -2  -9  -1    0.23    0.32
   2   9   2   -0.98    0.85
  -2  -9  -2    0.28    0.42
   2  10 -11   -0.56    0.52
   2  10 -10    1.61    0.94
   2  10  -9    0.53    0.40
   2  10  -9    1.03    0.70
   2  10  -8   -0.33    0.52
   2  10  -8    0.20    0.41
   2  10  -7    3.77    1.41
   2  10  -6    2.59    1.21
   2  10  -5    0.51    0.56
   2  10  -4    0.58    0.30
   2  10  -4    0.42    0.41
   2  10  -3    1.94    0.87
   2  10  -3    1.21    0.74
   2  10  -2   -0.54    0.59
   2  10  -1   -0.16    0.31
   2  10   0    0.08    0.18
   2  11  -8    0.45    0.40
   2  11  -7    2.45    1.27
   2  11  -6    1.25    1.05
   2  11  -5    0.85    0.67
   2  11  -4    0.33    0.27
   2  11  -3    0.55    0.44
   2  11  -2   -0.45    0.27
   2  11  -1   -0.44    0.52
   2  12  -6    0.50    0.78
   2  12  -5    0.55    0.53
   3 -12   1   -0.62    0.56
   3 -12   2   -0.22    0.46
   3 -12   3   -0.21    0.29
  -3  12  -4   -0.71    0.89
   3 -12   4   -0.12    0.35
  -3  12  -4   -0.43    1.04
   3 -12   5   -0.26    0.25
  -3  12  -5    0.06    0.15
   3 -12   6   -0.24    0.36
   3 -11  -1    0.20    0.19
   3 -11   0    0.45    0.52
   3 -11   1   -0.34    0.41
   3 -11   2    0.52    0.48
  -3  11  -3    0.73    0.87
   3 -11   3    0.46    0.41
   3 -11   4    0.59    0.38
  -3  11  -4    2.16    1.20
   3 -11   5    0.42    0.40
  -3  11  -5    0.35    0.66
   3 -11   6    0.18    0.27
  -3  11  -6   -1.62    1.09
   3 -11   7   -0.10    0.26
   3 -10  -3    0.74    0.68
   3 -10  -2    0.38    0.53
   3 -10  -1    2.18    0.91
   3 -10   0   10.88    2.04
   3 -10   1    1.02    0.52
   3 -10   2    2.19    0.85
   3 -10   3    1.33    0.67
   3 -10   4   -0.22    0.28
  -3  10  -4    0.68    0.79
   3 -10   5   -0.35    0.32
  -3  10  -5    0.61    0.55
  -3  10  -6    0.08    0.15
   3 -10   6   -0.25    0.25
  -3  10  -7    0.50    0.45
   3 -10   7   -0.02    0.26
   3 -10   8   -0.30    0.52
   3  -9  -4    2.38    1.08
   3  -9  -3    0.33    0.36
   3  -9  -2    1.84    0.79
   3  -9  -1   18.22    2.66
   3  -9   0    0.38    0.54
   3  -9   1    1.32    0.61
   3  -9   2    0.30    0.39
   3  -9   3    0.02    0.23
   3  -9   4   -0.34    0.37
   3  -9   5    0.23    0.26
  -3   9  -6   -0.59    0.69
   3  -9   6    0.18    0.32
  -3   9  -7    0.00    0.41
   3  -9   7    0.23    0.10
  -3   9  -8   -0.66    0.72
   3  -9   8   -0.16    0.45
   3  -8  -5    1.61    0.87
   3  -8  -4    0.42    0.50
   3  -8  -3    3.78    1.17
   3  -8  -2   12.72    2.15
   3  -8  -1   15.77    2.28
   3  -8   0   12.35    1.93
   3  -8   1    2.44    0.80
   3  -8   2   -0.15    0.25
   3  -8   3    1.41    0.60
   3  -8   4    1.69    0.64
   3  -8   5    3.73    1.06
  -3   8  -6    2.26    1.02
   3  -8   6    1.39    0.66
  -3   8  -7    0.86    0.84
   3  -8   7   -0.37    0.21
  -3   8  -8    1.12    0.81
   3  -8   8    0.39    0.47
   3  -8   9    0.60    0.65
   3  -7  -6    0.24    0.05
   3  -7  -5    0.65    0.51
   3  -7  -4   -0.02    0.06
   3  -7  -3    6.43    1.48
   3  -7  -2    2.02    0.83
   3  -7  -1    5.80    1.26
   3  -7   0    9.77    1.56
   3  -7   1   12.01    1.79
   3  -7   2    0.13    0.13
   3  -7   3    0.47    0.31
   3  -7   4    0.26    0.38
   3  -7   5    9.14    1.75
   3  -7   6    2.11    0.93
   3  -7   7    1.85    1.00
  -3   7  -7    2.63    1.19
   3  -7   8    0.23    0.26
  -3   7  -8    0.06    0.43
  -3   7  -9   -0.24    0.45
   3  -7   9    0.71    1.29
   3  -6  -7    0.15    0.24
   3  -6  -7   -0.40    0.46
   3  -6  -6    0.15    0.16
   3  -6  -6    0.04    0.34
   3  -6  -5   -0.12    0.17
   3  -6  -5   -0.24    0.61
   3  -6  -4   -0.19    0.43
   3  -6  -3    0.19    0.08
   3  -6  -2    1.15    0.56
   3  -6  -1    3.12    0.87
   3  -6  -1    3.13    0.55
   3  -6   0   15.52    1.91
   3  -6   0   12.09    1.20
   3  -6   1    7.25    1.21
   3  -6   2   -0.01    0.18
  -3   6  -3   72.19    3.88
   3  -6   3   53.98    4.19
   3  -6   4    0.00    0.12
  -3   6  -5   10.22    1.64
   3  -6   5    7.84    1.67
   3  -6   6   -0.74    0.56
  -3   6  -6    0.18    0.22
   3  -6   7    0.24    0.58
  -3   6  -7    0.07    0.54
  -3   6  -7   -0.09    0.54
   3  -6   8    1.94    1.03
  -3   6  -8    1.60    0.87
  -3   6  -8    2.45    1.48
  -3   6  -9    0.81    0.85
  -3   5   9   -0.28    1.09
   3  -5  -8   -0.01    0.28
   3  -5  -8    1.48    0.95
   3  -5  -7    0.10    0.28
   3  -5  -7    0.45    0.21
   3  -5  -6    0.65    0.38
   3  -5  -6    0.46    0.52
   3  -5  -5    8.81    1.38
   3  -5  -5   11.65    1.93
   3  -5  -4   12.65    1.90
   3  -5  -3    7.68    1.41
   3  -5  -2   16.31    1.90
   3  -5  -2   11.50    1.22
   3  -5  -1    7.60    0.90
   3  -5  -1    8.01    1.27
   3  -5   0   13.02    1.63
   3  -5   1    2.77    0.71
  -3   5  -2   32.77    1.94
   3  -5   2   24.23    2.36
   3  -5   3   85.27    5.36
   3  -5   4   -0.10    0.32
  -3   5  -4   -0.05    0.17
   3  -5   5    3.66    1.05
  -3   5  -5    3.88    1.02
  -3   5  -6   12.39    2.02
  -3   5  -7    0.42    0.37
  -3   5  -7    1.02    0.81
  -3   5  -8    0.08    0.20
  -3   5  -8   -0.02    0.44
  -3   5  -9    0.74    0.82
  -3   5  -9    0.56    1.00
  -3   5 -10   -0.26    0.45
   3  -4  -9    3.37    1.12
  -3   4   9    8.85    2.90
   3  -4  -8    0.02    0.10
   3  -4  -8   -0.16    0.32
   3  -4  -7    0.58    0.57
   3  -4  -7    0.22    0.24
   3  -4  -6   10.88    1.86
   3  -4  -6    8.59    1.42
   3  -4  -5   13.09    1.95
   3  -4  -5   11.48    1.52
   3  -4  -4    2.31    0.76
   3  -4  -4    2.00    0.59
   3  -4  -3   25.98    1.95
   3  -4  -3   29.85    2.63
  -3   4   3   22.51    1.32
   3  -4  -2   89.59    4.33
   3  -4  -2   92.61    5.27
   3  -4  -2   90.57    4.63
   3  -4  -1   74.28    3.18
   3  -4  -1   86.43    4.70
   3  -4  -1   64.22    3.73
   3  -4   0    0.98    0.40
   3  -4   1  875.37   34.50
  -3   4  -2  504.46   19.64
   3  -4   2  483.24   20.76
  -3   4  -3   34.10    2.57
   3  -4   3   31.79    2.98
  -3   4  -4    7.87    0.86
  -3   4  -4    8.99    1.44
   3  -4   5    7.12    1.27
  -3   4  -5    9.41    1.64
   3  -4   6   -0.39    0.33
  -3   4  -6   -0.20    0.25
  -3   4  -7    0.57    0.47
  -3   4  -7    0.88    0.64
  -3   4  -8    3.57    1.72
  -3   4  -8    1.93    0.89
  -3   4  -9   -0.57    0.92
  -3   4  -9   -0.08    0.53
   3  -3  -9    1.28    0.75
  -3   3   9    2.75    1.82
   3  -3  -8    1.15    0.60
   3  -3  -7    0.11    0.37
   3  -3  -7   -0.29    0.30
   3  -3  -6    6.22    1.17
   3  -3  -6    8.17    1.52
   3  -3  -5   37.39    2.95
   3  -3  -5   40.78    3.43
   3  -3  -4   43.55    3.37
   3  -3  -4   44.01    2.98
   3  -3  -3  141.47    7.74
   3  -3  -3  170.99    7.65
  -3   3   3  178.60    7.12
   3  -3  -3  190.51    8.49
   3  -3  -2   29.63    2.14
   3  -3  -2   32.76    1.91
   3  -3  -2   33.06    2.45
   3  -3  -1    1.01    0.28
   3  -3  -1    1.49    0.37
   3  -3   0   32.85    2.38
  -3   3  -1    1.24    0.26
   3  -3   1    0.32    0.27
  -3   3  -2  185.81    8.77
   3  -3   2  221.42    9.77
   3  -3   3   49.54    3.38
  -3   3  -3   39.21    3.06
   3  -3   4    0.40    0.15
  -3   3  -4    0.37    0.43
   3  -3   5    5.62    1.17
  -3   3  -5    5.48    1.28
   3  -3   6    5.97    1.26
  -3   3  -6    7.11    1.58
   3  -3   7   -1.12    0.55
  -3   3  -7   -0.34    0.49
  -3   3  -7   -0.19    0.07
  -3   3  -8    3.16    1.23
  -3   3  -8    5.76    2.04
  -3   3  -9    0.36    0.19
   3  -2 -10    6.11    1.52
   3  -2  -9    2.45    0.93
   3  -2  -8   -0.25    0.42
   3  -2  -7   22.46    2.51
   3  -2  -7   28.22    2.90
   3  -2  -6    0.89    0.29
   3  -2  -6    0.87    0.55
   3  -2  -5   19.26    1.95
   3  -2  -5   22.02    2.28
   3  -2  -4   21.64    1.89
   3  -2  -4   21.36    2.03
   3  -2  -3  105.15    5.20
   3  -2  -3  106.70    5.57
   3  -2  -3  118.38    5.70
  -3   2   3  110.93    5.06
   3  -2  -2  103.08    5.07
   3  -2  -2  105.55    4.59
   3  -2  -2   98.57    5.05
   3  -2  -1   58.06    2.46
  -3   2   1   51.89    2.60
   3  -2  -1   68.28    3.39
   3  -2   0   20.05    1.60
  -3   2   0   11.18    0.75
   3  -2   1    1.11    0.41
   3  -2   1    1.30    0.50
  -3   2  -1    1.40    0.24
   3  -2   2   -0.22    0.16
   3  -2   3    0.99    0.45
   3  -2   4    0.64    0.37
   3  -2   5    6.70    1.35
   3  -2   6   -0.12    0.10
  -3   2  -6   -0.12    0.44
  -3   2  -6    0.23    0.24
   3  -2   7    0.27    0.32
  -3   2  -7    0.17    0.65
  -3   2  -7   -0.13    0.07
  -3   2  -8    0.78    0.85
  -3   2  -9   -0.18    0.40
   3  -1 -10   -0.31    0.36
   3  -1  -9    0.08    0.24
   3  -1  -8    0.89    0.44
   3  -1  -7   37.82    3.26
   3  -1  -7   34.87    3.23
   3  -1  -6   27.29    2.44
   3  -1  -6   30.36    2.59
   3  -1  -6   16.29    1.24
   3  -1  -5   14.25    1.67
   3  -1  -5   10.68    0.92
   3  -1  -5   11.10    1.42
   3  -1  -4    4.67    0.82
   3  -1  -4    4.92    0.82
   3  -1  -4    4.79    0.59
   3  -1  -3   22.81    1.89
   3  -1  -3   20.84    1.63
   3  -1  -3   22.59    1.73
   3  -1  -2    0.48    0.21
   3  -1  -2   -0.08    0.15
   3  -1  -1   34.25    2.08
   3  -1  -1   33.82    1.93
   3  -1   0   77.19    4.25
   3  -1   0   86.29    4.42
  -3   1   0   85.36    4.01
   3  -1   1  107.82    5.57
   3  -1   2    0.30    0.07
   3  -1   3   26.97    2.57
   3  -1   4    7.14    1.37
   3  -1   5    0.56    0.56
   3  -1   6   12.88    2.11
  -3   1  -6   16.31    2.67
   3  -1   7    2.32    0.96
  -3   1  -7    3.31    1.35
  -3   1  -8    4.34    1.70
   3   0 -11    0.59    0.46
   3   0 -10    1.00    0.55
   3   0  -9    6.26    1.41
   3   0  -8    0.64    0.58
   3   0  -7   14.71    1.99
   3   0  -7   15.11    1.38
   3   0  -6   49.39    3.72
   3   0  -6   49.18    2.89
   3   0  -6   54.65    3.68
   3   0  -5  227.13   10.41
   3   0  -5  230.27   10.17
   3   0  -5  219.17    9.46
   3   0  -4  174.89    7.60
   3   0  -4  169.71    7.98
   3   0  -4  177.04    7.87
   3   0  -3  155.78    7.39
   3   0  -3  163.42    6.90
   3   0  -3  158.42    7.00
   3   0  -2   22.22    1.62
   3   0  -2   22.71    1.58
   3   0  -2   22.49    1.76
   3   0  -2   20.66    1.57
   3   0  -2   21.81    1.37
   3   0  -1  168.99    7.76
   3   0  -1  183.93    7.54
   3   0   0  176.03    8.05
   3   0   1  236.78   10.66
   3   0   2   69.03    4.36
   3   0   3   10.17    1.54
   3   0   4   57.48    4.42
   3   0   5   64.11    5.24
  -3   0  -5   91.45    5.94
   3   0   6   23.11    2.96
   3   0   7   -0.26    0.28
  -3   0  -8    0.72    0.81
   3   1 -11    0.05    0.22
   3   1 -10    0.77    0.63
   3   1  -9    2.87    1.02
   3   1  -8   -0.14    0.09
   3   1  -8    0.58    0.35
   3   1  -7   71.85    4.22
   3   1  -7   75.15    5.09
   3   1  -6   28.61    2.23
   3   1  -6   29.94    2.68
   3   1  -5   22.20    2.07
   3   1  -5   22.77    1.85
   3   1  -4   70.92    3.58
   3   1  -4   67.72    4.05
   3   1  -4   71.65    3.82
   3   1  -3  454.64   15.07
   3   1  -3  414.92   16.04
   3   1  -3  393.85   15.77
   3   1  -3  423.58   15.86
   3   1  -2  133.12    5.67
   3   1  -2  123.86    5.85
   3   1  -2  129.07    5.88
   3   1  -2  120.05    5.67
   3   1  -2  117.79    4.87
   3   1  -1   32.03    2.21
   3   1  -1   27.57    2.09
   3   1   0    0.48    0.25
   3   1   1    2.06    0.62
   3   1   2    0.90    0.41
   3   1   3   33.07    3.05
   3   1   4   18.48    2.40
   3   1   5    1.61    0.90
   3   1   6   11.14    2.11
   3   1   7   -0.01    0.18
   3   2 -11    3.48    1.17
   3   2 -10    1.45    0.86
   3   2  -9   13.19    2.12
   3   2  -8   26.52    2.47
   3   2  -8   29.64    3.04
   3   2  -7   23.05    2.24
  -3  -2   7   28.48    2.00
   3   2  -7   25.31    2.64
   3   2  -6   20.62    2.20
  -3  -2   6   29.18    1.95
   3   2  -6   22.19    2.31
   3   2  -6   21.00    2.06
   3   2  -5    9.26    1.26
  -3  -2   5   12.13    1.08
   3   2  -5    8.47    1.23
  -3  -2   4   10.80    1.08
   3   2  -4    7.35    1.04
  -3  -2   4   10.23    0.97
   3   2  -4    8.85    1.15
   3   2  -3    0.03    0.16
   3   2  -3   -0.05    0.17
   3   2  -3    0.11    0.03
   3   2  -3    0.01    0.23
   3   2  -2   64.14    3.48
   3   2  -2   64.27    3.73
   3   2  -2   59.14    3.47
   3   2  -1    0.76    0.32
   3   2  -1    1.95    0.51
   3   2  -1    0.32    0.11
   3   2   0  263.66   11.72
   3   2   1    5.34    1.02
   3   2   2    0.69    0.38
   3   2   3  110.94    6.98
   3   2   4   40.08    3.94
   3   2   5    2.22    1.01
   3   2   6   -0.09    0.35
   3   2   7    0.16    0.27
   3   2   8    0.85    0.80
   3   3 -12    0.14    0.19
   3   3 -11    0.25    0.51
   3   3 -11   -0.71    0.67
   3   3 -10    0.95    0.58
   3   3 -10   -0.06    0.29
   3   3  -9    0.91    0.52
   3   3  -9    0.88    0.52
   3   3  -9    0.85    0.42
   3   3  -8   97.20    5.87
   3   3  -8   95.70    6.30
   3   3  -8  101.03    6.24
   3   3  -7   10.26    1.49
   3   3  -7   10.80    1.63
   3   3  -7   10.21    1.55
   3   3  -6    2.83    0.74
   3   3  -6    2.81    0.79
   3   3  -5   47.23    3.36
   3   3  -5   44.84    3.19
   3   3  -4  448.49   18.22
  -3  -3   4  476.98   16.64
   3   3  -4  424.35   18.05
   3   3  -4  442.91   16.92
   3   3  -3    8.34    1.15
   3   3  -3    8.59    1.20
   3   3  -3    7.50    1.03
   3   3  -3    7.67    0.91
   3   3  -2   43.46    2.18
   3   3  -2   52.16    3.01
   3   3  -2   52.30    3.06
   3   3  -2   48.19    3.21
   3   3  -1  276.53   12.38
   3   3  -1  274.09   12.39
   3   3  -1  292.59   11.98
   3   3   0    3.85    0.80
   3   3   0    3.94    0.88
   3   3   1   45.39    3.66
   3   3   2    1.06    0.45
   3   3   3    2.03    0.58
   3   3   4   23.52    3.14
   3   3   5    1.17    0.63
   3   3   6    0.52    0.65
   3   3   7    0.12    0.20
   3   4 -12    0.70    0.49
   3   4 -11    5.93    1.47
   3   4 -11    4.65    1.34
   3   4 -10    0.13    0.28
   3   4 -10   -0.10    0.09
   3   4 -10    0.06    0.25
   3   4  -9   12.65    1.87
   3   4  -9   14.84    2.11
   3   4  -8   44.99    3.71
   3   4  -8   43.09    3.61
   3   4  -7   23.79    2.48
   3   4  -7   21.78    2.34
   3   4  -6   62.00    4.27
   3   4  -6   55.80    3.95
   3   4  -5    5.84    1.08
   3   4  -5    5.34    0.53
  -3  -4   5    5.89    0.75
   3   4  -5    5.33    1.02
   3   4  -4   23.82    2.30
   3   4  -4   24.45    2.34
   3   4  -4   23.82    1.75
  -3  -4   4   25.93    1.47
   3   4  -3  205.16    9.50
  -3  -4   3  234.96    8.87
   3   4  -3  216.13    8.78
   3   4  -3  207.65    9.72
   3   4  -3  206.19   10.12
   3   4  -2   95.26    5.18
  -3  -4   2  109.52    4.98
   3   4  -2   85.82    4.74
   3   4  -2   87.74    5.28
   3   4  -1    6.64    1.13
   3   4  -1    6.85    1.15
  -3  -4   1    6.51    1.05
   3   4  -1    7.96    0.98
   3   4   0   73.33    4.90
   3   4   0   68.75    4.43
   3   4   1   47.08    4.02
   3   4   2    6.35    1.46
   3   4   3    1.45    0.91
   3   4   4    0.90    0.68
   3   4   5    0.41    0.58
   3   4   6    1.32    0.90
   3   5 -12   -0.07    0.30
   3   5 -11    1.66    0.77
   3   5 -11    2.70    1.00
   3   5 -10   -0.22    0.46
   3   5 -10    0.25    0.40
   3   5  -9    2.04    0.74
   3   5  -9    3.19    0.99
   3   5  -8    5.48    1.24
   3   5  -8    6.81    1.32
   3   5  -7    6.06    1.23
   3   5  -6   18.43    2.23
   3   5  -6   19.00    2.23
  -3  -5   6   20.78    1.78
   3   5  -5    2.89    0.86
   3   5  -5    2.53    0.72
   3   5  -5    2.18    0.45
  -3  -5   5    2.09    0.47
   3   5  -4    4.04    0.98
   3   5  -4    2.61    0.52
  -3  -5   4    1.66    0.35
   3   5  -4    1.94    0.67
   3   5  -3    7.30    1.24
  -3  -5   3    7.50    0.89
   3   5  -3    7.38    1.07
   3   5  -2   81.46    5.04
   3   5  -2   85.58    5.31
   3   5  -2   80.56    4.46
  -3  -5   2   97.66    4.94
   3   5  -1  100.12    6.20
  -3  -5   1  115.66    6.11
   3   5  -1   99.29    5.15
   3   5  -1  114.34    6.31
   3   5   0   17.21    2.20
  -3  -5   0   17.44    2.06
   3   5   0    9.10    1.13
   3   5   0   14.78    1.82
   3   5   1    1.98    0.66
   3   5   2   12.02    2.20
   3   5   3    2.79    1.07
   3   5   4    3.59    1.34
   3   5   5    1.02    0.77
   3   6 -11    0.88    0.56
   3   6 -11    0.71    0.50
   3   6 -10    0.75    0.38
   3   6 -10    0.30    0.40
   3   6  -9    1.56    0.69
   3   6  -8    0.97    0.70
   3   6  -7    9.94    1.76
   3   6  -7    7.34    1.44
  -3  -6   7    7.23    1.16
   3   6  -6   12.92    1.91
   3   6  -6   12.19    1.80
  -3  -6   6    6.63    0.98
   3   6  -5    3.68    0.98
   3   6  -5    2.22    0.51
  -3  -6   5    3.58    0.65
   3   6  -5    3.23    0.96
   3   6  -4    1.76    0.49
  -3  -6   4    2.19    0.46
   3   6  -4    3.21    1.00
   3   6  -3   13.40    1.64
  -3  -6   3   13.68    1.41
   3   6  -3   14.73    1.95
   3   6  -2    0.48    0.36
   3   6  -2    1.19    0.54
  -3  -6   2    1.42    0.53
  -3  -6   1   10.05    1.53
   3   6  -1   14.86    2.05
   3   6  -1   15.40    2.02
   3   6   0   34.34    3.53
  -3  -6   0   31.38    3.08
   3   6   0   32.44    3.02
   3   6   1    1.87    0.80
   3   6   2    6.30    1.65
   3   6   3    7.51    1.95
   3   6   4   -0.14    0.53
   3   7 -12    0.37    0.47
   3   7 -11   -0.28    0.36
   3   7 -10    1.56    0.75
   3   7  -9    0.19    0.33
   3   7  -9    0.46    0.38
   3   7  -8    6.31    1.48
   3   7  -8    5.84    1.32
   3   7  -7    9.07    1.78
   3   7  -7    9.59    1.64
   3   7  -6    7.43    1.52
   3   7  -6    8.15    1.57
   3   7  -5   99.42    5.39
   3   7  -5  112.71    6.97
   3   7  -4   10.17    1.37
   3   7  -4   12.91    1.99
  -3  -7   4    9.38    1.16
   3   7  -3    6.56    1.45
   3   7  -3    6.09    1.20
  -3  -7   3    5.28    0.92
   3   7  -2   14.27    2.02
   3   7  -2   15.05    2.20
  -3  -7   2   13.03    1.69
   3   7  -1   19.96    2.61
   3   7  -1   20.47    2.56
  -3  -7   1   17.44    2.15
   3   7   0    1.88    0.67
   3   7   0    3.30    1.09
  -3  -7   0    2.19    0.83
   3   7   1   -0.18    0.59
   3   7   2    0.26    0.26
   3   7   3    1.37    1.07
   3   8 -11    0.09    0.20
   3   8 -11    0.88    0.50
   3   8 -10    0.36    0.51
   3   8 -10   -0.04    0.01
   3   8  -9    8.82    1.96
   3   8  -9    6.87    1.58
   3   8  -8   -0.38    0.61
   3   8  -8   -0.06    0.23
   3   8  -7    0.48    0.11
   3   8  -7    0.77    0.60
   3   8  -6    4.83    1.25
   3   8  -5   10.61    1.95
   3   8  -4    1.58    0.57
   3   8  -4    2.32    0.85
   3   8  -3    4.13    1.02
   3   8  -3    5.69    1.39
   3   8  -2   10.56    1.86
   3   8  -2   10.22    1.95
  -3  -8   2    7.81    1.36
   3   8  -1    0.23    0.30
   3   8  -1    0.79    0.41
  -3  -8   1    0.40    0.34
   3   8   0    0.77    0.53
  -3  -8   0    0.16    0.27
   3   8   1    0.53    0.63
   3   8   2    1.25    0.85
   3   9 -11    0.91    0.66
   3   9 -10    0.12    0.35
   3   9 -10   -0.45    0.60
   3   9  -9    0.69    0.58
   3   9  -9    0.28    0.34
   3   9  -8    0.90    0.67
   3   9  -8    0.75    0.56
   3   9  -7   -0.42    0.53
   3   9  -6   28.59    3.59
   3   9  -5    8.16    1.84
   3   9  -4    4.75    1.11
   3   9  -4    4.82    1.42
   3   9  -3    5.60    1.34
   3   9  -3    6.60    1.65
   3   9  -2    0.88    0.63
   3   9  -2    0.71    0.54
   3   9  -1    0.19    0.31
   3   9   0   -0.12    0.43
   3   9   1    1.74    0.98
   3  10 -11    0.77    0.71
   3  10 -10   -0.07    0.35
   3  10  -9    0.00    0.30
   3  10  -9    0.19    0.27
   3  10  -8    1.45    0.90
   3  10  -7    0.94    0.87
   3  10  -6   -0.10    0.27
   3  10  -5    0.65    0.64
   3  10  -4    0.30    0.46
   3  10  -3   -0.20    0.34
   3  10  -3    0.26    0.42
   3  10  -2   -0.03    0.36
   3  10  -1    8.29    1.99
   3  11 -10   -0.09    0.36
   3  11  -8    0.56    0.50
   3  11  -7    0.21    0.29
   3  11  -6    0.33    0.58
   3  11  -5    0.00    0.34
   3  11  -4   -0.48    0.33
   3  11  -3    0.05    0.28
   3  11  -2   -0.56    0.52
   3  12  -6    0.45    0.55
   3  12  -5    0.01    0.45
   4 -12   3    0.30    0.32
  -4  12  -4    0.21    0.61
   4 -11  -1   -0.21    0.40
   4 -11   0    2.64    1.01
   4 -11   1   -0.07    0.03
   4 -11   2    0.75    0.58
   4 -11   3    0.18    0.26
   4 -11   4    0.01    0.29
  -4  11  -5   -0.52    0.60
   4 -11   5    0.82    0.61
   4 -11   6    0.09    0.08
   4 -10  -2    0.46    0.51
   4 -10  -1    1.61    0.63
   4 -10   0    3.47    1.12
   4 -10   1    0.50    0.44
   4 -10   2    0.35    0.28
   4 -10   3    0.16    0.31
   4 -10   4    0.01    0.26
   4 -10   5    0.33    0.28
  -4  10  -6    0.93    0.65
   4 -10   6    0.18    0.36
   4 -10   7    0.81    0.59
   4  -9  -4   -0.21    0.07
   4  -9  -3    0.04    0.08
   4  -9  -2    5.40    1.46
   4  -9  -1    0.46    0.52
   4  -9   0    0.79    0.47
   4  -9   1    0.17    0.43
   4  -9   2    0.17    0.14
   4  -9   3   -0.28    0.19
   4  -9   4    0.62    0.48
   4  -9   5    0.91    0.67
   4  -9   6    1.17    0.61
  -4   9  -7    0.85    0.88
   4  -9   7    0.09    0.36
   4  -8  -5    1.81    1.01
   4  -8  -4   -0.38    0.28
   4  -8  -3   -0.31    0.48
   4  -8  -2    0.30    0.46
   4  -8  -1    0.27    0.30
   4  -8   0   -0.43    0.08
   4  -8   1    0.45    0.07
   4  -8   2   -0.46    0.37
   4  -8   3    0.07    0.22
   4  -8   4    6.11    1.34
   4  -8   5   -0.02    0.11
   4  -8   6    1.02    0.62
  -4   8  -7    0.28    0.75
   4  -8   7    0.38    0.20
  -4   8  -8   -1.08    1.16
   4  -8   8   -0.18    0.26
   4  -7  -6    0.29    0.51
   4  -7  -5   -0.24    0.20
   4  -7  -4    2.65    1.01
   4  -7  -3    3.85    1.20
   4  -7  -2   -0.12    0.21
   4  -7  -1    0.27    0.08
   4  -7   0    0.63    0.35
   4  -7   0    0.40    0.21
   4  -7   1    1.09    0.52
   4  -7   2    0.29    0.23
   4  -7   3   -0.13    0.26
   4  -7   4   16.11    2.23
   4  -7   5    0.12    0.26
   4  -7   6    0.60    0.52
   4  -7   7    0.25    0.41
  -4   7  -7    1.24    1.19
   4  -7   8    0.81    0.85
  -4   7  -8    0.47    0.17
   4  -6  -7    0.22    0.35
   4  -6  -6    0.48    0.37
   4  -6  -5    6.39    1.45
   4  -6  -4    2.23    0.83
   4  -6  -3    1.00    0.48
   4  -6  -2    6.06    1.22
   4  -6  -2    4.17    0.75
   4  -6  -1    8.29    1.41
   4  -6  -1    6.65    0.95
   4  -6   0   30.90    2.88
   4  -6   1    0.47    0.19
   4  -6   2  122.26    6.88
   4  -6   3   53.53    4.15
   4  -6   4    5.09    1.21
   4  -6   5    1.19    0.64
   4  -6   6    3.84    1.26
   4  -6   7    0.72    0.53
  -4   6  -7   -0.67    0.89
   4  -6   8    0.62    0.57
  -4   6  -8   -0.03    0.04
   4  -5  -8    0.93    0.63
   4  -5  -8    0.86    0.54
   4  -5  -7    0.85    0.46
   4  -5  -7    0.61    0.48
   4  -5  -6    0.08    0.19
   4  -5  -6    0.61    0.37
   4  -5  -5    2.26    0.67
   4  -5  -5    1.37    0.63
   4  -5  -4    6.34    0.97
   4  -5  -4    9.16    1.56
   4  -5  -3    3.22    0.61
   4  -5  -3    5.82    0.95
   4  -5  -3    7.13    1.26
   4  -5  -2  104.46    5.23
   4  -5  -2   88.50    4.17
   4  -5  -1    5.31    1.06
   4  -5  -1    2.72    0.62
   4  -5   0   10.81    1.49
   4  -5   1    2.83    0.71
   4  -5   2    0.25    0.13
   4  -5   3   12.51    1.85
  -4   5  -3   14.64    1.63
   4  -5   4    3.34    1.04
  -4   5  -4    3.38    0.99
   4  -5   5   -0.10    0.16
  -4   5  -5    0.63    0.44
  -4   5  -6    0.24    0.45
  -4   5  -7    2.39    1.09
  -4   5  -7    1.92    1.08
  -4   5  -8    0.30    0.44
  -4   5  -8   -0.19    0.53
  -4   5  -9    0.24    1.33
   4  -4  -9    4.66    1.25
   4  -4  -8    0.82    0.41
   4  -4  -8    0.50    0.44
   4  -4  -7    0.09    0.17
   4  -4  -7    0.39    0.37
   4  -4  -6   10.16    1.47
   4  -4  -6   14.91    2.16
   4  -4  -5    1.35    0.44
   4  -4  -5    2.59    0.77
   4  -4  -4    0.55    0.29
   4  -4  -4    0.27    0.11
   4  -4  -3   -0.01    0.09
   4  -4  -3    0.14    0.19
   4  -4  -3   -0.18    0.25
   4  -4  -2   46.73    2.33
   4  -4  -2   52.68    3.50
   4  -4  -2   46.00    3.02
   4  -4  -1   57.00    3.77
   4  -4  -1   53.58    3.40
   4  -4   0   -0.19    0.06
   4  -4   0    0.79    0.19
   4  -4   1   16.29    1.84
  -4   4  -2   15.05    1.48
   4  -4   2   14.58    1.85
   4  -4   3    0.70    0.42
  -4   4  -3    0.91    0.40
  -4   4  -4    1.65    0.65
   4  -4   5    0.95    0.56
  -4   4  -5    1.01    0.62
   4  -4   6    2.22    0.80
  -4   4  -6    1.69    0.83
  -4   4  -7    0.58    0.53
  -4   4  -7    0.40    0.38
  -4   4  -8   -0.08    0.30
  -4   4  -8    0.25    0.32
  -4   4  -9    0.44    0.56
   4  -3 -10    1.58    0.79
   4  -3  -9    0.30    0.33
   4  -3  -8    0.67    0.41
   4  -3  -8    0.38    0.53
   4  -3  -7    0.18    0.28
   4  -3  -7   -0.14    0.57
   4  -3  -6   32.89    2.84
   4  -3  -6   42.64    3.62
   4  -3  -5   21.19    1.99
   4  -3  -5   23.69    2.39
   4  -3  -4    0.08    0.07
   4  -3  -4    0.83    0.41
   4  -3  -3    6.67    0.80
   4  -3  -3    6.95    1.03
   4  -3  -3    6.51    1.04
   4  -3  -2    2.22    0.54
   4  -3  -2    2.62    0.61
   4  -3  -1   33.47    2.51
   4  -3   0   40.16    2.89
   4  -3   1   21.12    2.13
   4  -3   2   13.07    1.65
   4  -3   2   12.92    1.78
   4  -3   3    0.27    0.04
   4  -3   4    0.47    0.29
   4  -3   5    0.10    0.12
  -4   3  -5    0.49    0.29
   4  -3   6   -0.03    0.17
  -4   3  -6   -0.02    0.46
  -4   3  -7    2.33    1.42
  -4   3  -7    2.18    1.10
  -4   3  -8    0.68    0.87
  -4   3  -9    0.22    0.60
   4  -2 -10    3.44    1.11
   4  -2  -9    0.99    0.55
   4  -2  -8    4.12    1.11
   4  -2  -8    3.41    0.93
   4  -2  -7    0.71    0.45
   4  -2  -7    1.07    0.53
   4  -2  -6    4.19    0.92
   4  -2  -6    5.02    1.08
   4  -2  -5   44.75    3.34
   4  -2  -5   48.52    3.27
   4  -2  -4  119.46    5.95
   4  -2  -4  120.96    6.31
   4  -2  -4  131.60    6.64
   4  -2  -3   84.98    4.69
   4  -2  -3   88.93    4.20
   4  -2  -3   80.31    4.51
   4  -2  -2   12.17    0.98
   4  -2  -2   14.04    1.40
   4  -2  -2   12.23    1.37
   4  -2  -1   11.86    1.28
   4  -2  -1   12.06    1.04
   4  -2   0   -0.08    0.11
   4  -2   1    1.73    0.65
   4  -2   1    1.84    0.56
   4  -2   2    0.65    0.35
   4  -2   3   29.88    2.88
   4  -2   4    0.11    0.07
   4  -2   5   24.28    2.85
   4  -2   6    8.46    1.72
   4  -2   7    5.96    1.53
  -4   2  -7    8.81    2.28
  -4   2  -8    0.33    0.30
   4  -1 -10    0.08    0.32
   4  -1  -9    0.81    0.63
   4  -1  -8    0.79    0.49
   4  -1  -7   10.97    1.63
   4  -1  -7   11.59    1.66
   4  -1  -6   13.65    1.65
   4  -1  -6   15.53    1.81
   4  -1  -6    8.16    0.91
   4  -1  -5    0.11    0.18
   4  -1  -5   -0.07    0.02
   4  -1  -4   28.16    2.08
   4  -1  -4   25.00    2.05
   4  -1  -4   28.78    2.42
   4  -1  -3   67.73    3.56
   4  -1  -3   64.19    3.88
   4  -1  -2  118.58    5.37
   4  -1  -2  120.13    5.62
   4  -1  -2  126.85    6.16
   4  -1  -2  121.65    5.66
   4  -1  -1    4.88    0.82
   4  -1  -1    5.08    0.76
   4  -1   0   21.48    1.96
   4  -1   0   22.32    2.02
   4  -1   1    9.43    1.36
   4  -1   2    1.86    0.62
   4  -1   3   22.76    2.51
   4  -1   4   23.27    2.71
   4  -1   5   20.59    2.67
   4  -1   6    2.09    0.93
   4  -1   7    1.70    0.81
  -4   1  -7    4.54    1.87
  -4   1  -8   -0.41    0.72
   4   0 -11    0.47    0.51
   4   0 -10    3.46    1.13
   4   0  -9    0.45    0.40
   4   0  -8   35.17    3.31
   4   0  -7    9.56    1.50
   4   0  -7   10.15    1.49
   4   0  -7    7.84    1.02
   4   0  -6   55.00    3.81
   4   0  -6   55.43    3.67
   4   0  -6   53.84    3.23
   4   0  -5    3.37    0.64
   4   0  -5    3.06    0.70
   4   0  -5    3.44    0.68
   4   0  -4   27.01    1.86
   4   0  -4   22.00    2.10
   4   0  -4   23.27    2.10
   4   0  -4   24.28    1.90
   4   0  -3    4.50    0.76
   4   0  -3    4.28    0.57
   4   0  -3    5.04    0.77
   4   0  -3    4.07    0.77
   4   0  -3    4.47    0.78
   4   0  -2    3.32    0.54
   4   0  -2    4.10    0.70
   4   0  -2    3.03    0.47
   4   0  -2    2.90    0.60
   4   0  -1   96.60    5.33
   4   0  -1  111.11    5.21
   4   0   0   27.47    2.33
   4   0   1  185.76    9.17
   4   0   2    1.44    0.59
   4   0   3   16.82    2.18
   4   0   4   39.39    3.76
   4   0   5   17.81    2.56
   4   0   6    1.07    0.67
   4   0   7    0.32    0.44
   4   1 -11   -0.31    0.26
   4   1 -10    0.36    0.28
   4   1  -9   -0.01    0.41
   4   1  -8    0.52    0.49
   4   1  -8    0.94    0.40
   4   1  -7  246.94   11.74
   4   1  -7  241.96   10.85
   4   1  -6   48.49    3.54
   4   1  -6   48.32    3.67
   4   1  -6   48.53    3.18
   4   1  -5    1.39    0.52
   4   1  -5    1.76    0.52
   4   1  -5    1.08    0.38
   4   1  -4  197.80    9.61
   4   1  -4  229.38    9.00
   4   1  -4  208.75    9.91
   4   1  -4  216.03    9.65
   4   1  -3  515.95   20.05
   4   1  -3  501.63   19.66
   4   1  -3  474.27   18.87
  -4  -1   3  455.30   19.31
   4   1  -3  515.99   20.27
   4   1  -3  512.56   20.14
   4   1  -2   26.80    2.07
   4   1  -2   26.75    1.57
   4   1  -2   26.86    2.20
   4   1  -2   24.55    2.08
   4   1  -1   40.81    2.93
   4   1   0  350.35   15.19
   4   1   1    4.23    0.98
   4   1   2   36.51    3.27
   4   1   3    1.99    0.85
   4   1   4   12.39    2.06
   4   1   5    6.66    1.63
   4   1   6   -0.25    0.39
   4   1   7   -0.36    0.38
   4   2 -12    0.31    0.36
   4   2 -11    3.02    1.09
   4   2 -11    2.56    1.00
   4   2 -10    8.42    1.66
   4   2 -10    8.70    1.71
   4   2  -9    0.64    0.50
   4   2  -9    0.21    0.35
   4   2  -9    0.21    0.26
   4   2  -8   67.23    4.89
   4   2  -8   69.24    4.95
   4   2  -8   65.64    4.32
   4   2  -7   71.84    4.80
   4   2  -7   68.48    4.37
   4   2  -6   24.95    2.41
   4   2  -6   25.74    2.29
   4   2  -5   30.57    2.44
   4   2  -5   28.33    2.40
   4   2  -4    8.84    0.95
   4   2  -4    9.94    1.28
   4   2  -4    9.45    1.27
  -4  -2   4    7.29    0.62
   4   2  -4    9.13    1.24
   4   2  -3    2.70    0.62
   4   2  -3    2.30    0.57
   4   2  -3    1.95    0.53
   4   2  -3    2.16    0.52
   4   2  -2  261.17   11.10
   4   2  -2  243.23    9.95
   4   2  -2  262.51   11.17
   4   2  -2  243.02   11.16
   4   2  -1   92.81    5.26
   4   2  -1   98.42    5.33
   4   2   0    0.60    0.37
   4   2   1   67.79    4.67
   4   2   2   37.99    3.49
   4   2   3   32.59    3.46
   4   2   4    0.81    0.47
   4   2   5    0.49    0.53
   4   2   6    0.10    0.30
   4   2   7    0.48    0.51
   4   3 -12   -0.40    0.38
   4   3 -11    1.63    0.82
   4   3 -11    2.09    0.84
   4   3 -10   13.39    2.19
   4   3 -10   14.45    2.20
   4   3  -9    0.33    0.41
   4   3  -9   -0.04    0.20
   4   3  -8   12.87    1.75
   4   3  -8   13.74    1.92
   4   3  -7    2.57    0.77
   4   3  -7    1.67    0.65
   4   3  -6    7.46    1.25
   4   3  -6    7.53    1.24
   4   3  -5   22.56    2.22
  -4  -3   5   21.63    1.26
   4   3  -5   21.94    2.15
   4   3  -4   25.24    2.32
   4   3  -4   26.40    1.95
   4   3  -4   24.33    2.25
   4   3  -4   24.73    2.27
   4   3  -3   24.58    2.03
   4   3  -3   22.84    2.10
   4   3  -3   24.93    2.30
   4   3  -2   -0.04    0.08
   4   3  -2    0.21    0.18
   4   3  -2    0.05    0.05
   4   3  -2    0.00    0.07
   4   3  -1   65.06    4.24
   4   3  -1   65.00    3.94
   4   3  -1   67.91    4.33
   4   3   0  151.67    8.11
   4   3   1    1.80    0.62
   4   3   2   10.57    1.88
   4   3   3    5.58    1.42
   4   3   4    8.07    1.80
   4   3   5    0.93    0.55
   4   3   6    1.73    0.99
   4   4 -12    0.78    0.64
   4   4 -11    0.92    0.87
   4   4 -10    4.01    1.16
   4   4 -10    2.92    0.89
   4   4  -9    0.17    0.33
   4   4  -9    0.11    0.32
   4   4  -8    0.58    0.39
   4   4  -8    0.18    0.29
   4   4  -7    1.69    0.68
   4   4  -7    1.70    0.68
  -4  -4   6    1.90    0.44
   4   4  -6    1.40    0.51
   4   4  -6    1.73    0.66
   4   4  -5   34.40    2.98
   4   4  -5   36.64    2.31
   4   4  -5   33.56    2.93
   4   4  -4    0.01    0.15
   4   4  -4    0.33    0.28
   4   4  -4    0.22    0.23
   4   4  -4    0.30    0.16
   4   4  -3    2.74    0.65
   4   4  -3    3.23    0.81
   4   4  -3    2.87    0.68
   4   4  -2    8.80    1.40
   4   4  -2    9.45    1.36
   4   4  -2    9.76    1.27
   4   4  -1    8.45    1.34
   4   4  -1    9.40    1.46
   4   4  -1    7.42    1.11
   4   4   0   48.58    4.02
   4   4   1   39.72    3.80
   4   4   2   -0.44    0.42
   4   4   3    1.77    0.90
   4   4   4    4.94    1.53
   4   4   5    0.30    0.63
   4   5 -12   -0.16    0.42
   4   5 -11   -0.15    0.15
   4   5 -11   -0.04    0.41
   4   5 -10    0.45    0.38
   4   5 -10    1.03    0.62
   4   5  -9    3.12    1.03
   4   5  -9    2.39    0.84
   4   5  -8    2.71    0.87
   4   5  -7    6.58    1.31
   4   5  -7    7.56    1.43
   4   5  -6   16.07    2.05
   4   5  -6   14.77    2.01
   4   5  -5    5.01    1.12
   4   5  -5    4.34    0.78
   4   5  -5    4.23    0.96
   4   5  -4  137.25    6.88
   4   5  -4  142.97    7.70
   4   5  -3   22.06    2.16
   4   5  -3   24.43    2.19
   4   5  -3   24.01    2.54
   4   5  -2    3.61    0.75
   4   5  -2    3.83    0.93
   4   5  -2    4.33    1.07
   4   5  -1   38.22    3.43
   4   5  -1   34.08    2.65
   4   5  -1   35.55    3.18
   4   5   0   29.11    3.11
   4   5   0   22.08    2.01
   4   5   1   27.79    3.34
   4   5   2    1.02    0.87
   4   5   3   -0.76    0.63
   4   5   4    0.26    0.52
   4   6 -12   -0.17    0.17
   4   6 -12   -0.19    0.44
   4   6 -11    0.82    0.70
   4   6 -11    1.73    0.75
   4   6 -10    0.86    0.59
   4   6  -9    0.52    0.39
   4   6  -8   15.38    2.26
   4   6  -8   15.28    2.18
   4   6  -7    1.22    0.57
   4   6  -7    2.43    0.86
   4   6  -6    8.66    1.57
   4   6  -6    7.69    1.49
   4   6  -5   11.23    1.86
   4   6  -5    9.34    1.23
   4   6  -5    8.27    1.52
   4   6  -4    1.96    0.57
   4   6  -4    3.26    0.98
   4   6  -3    1.69    0.63
   4   6  -3    1.69    0.56
  -4  -6   3    1.93    0.55
   4   6  -2    1.55    0.48
   4   6  -2    3.10    0.93
   4   6  -2    1.46    0.66
   4   6  -1   29.48    3.18
   4   6  -1   29.84    3.05
   4   6   0    4.67    1.27
   4   6   1   -0.17    0.29
   4   6   2    6.31    1.72
   4   6   3    1.20    0.68
   4   7 -12   -0.06    0.22
   4   7 -11    0.02    0.12
   4   7 -10    1.11    0.68
   4   7 -10    0.67    0.54
   4   7  -9    0.17    0.49
   4   7  -9    0.87    0.54
   4   7  -8    0.64    0.42
   4   7  -8    1.74    0.86
   4   7  -7    1.96    0.82
   4   7  -7    2.42    0.96
   4   7  -6   -0.33    0.60
   4   7  -6    0.40    0.48
   4   7  -5  116.42    6.40
   4   7  -5  136.56    7.88
   4   7  -4   13.94    1.77
   4   7  -4   15.54    2.22
   4   7  -3    7.00    1.30
   4   7  -3    7.72    1.55
   4   7  -2    9.75    1.81
   4   7  -2    8.94    1.62
   4   7  -1    6.12    1.36
   4   7  -1    4.01    1.19
   4   7   0    1.65    0.99
   4   7   1    1.69    0.92
   4   7   2    1.27    0.88
   4   8 -11   -0.27    0.52
   4   8 -11    0.04    0.13
   4   8 -10    4.13    1.28
   4   8 -10    4.55    1.36
   4   8  -9    1.01    0.63
   4   8  -9    0.24    0.23
   4   8  -8    2.39    0.95
   4   8  -8    3.14    1.14
   4   8  -7   10.49    1.91
   4   8  -7   10.28    1.98
   4   8  -6    9.57    1.83
   4   8  -5   -0.52    0.47
   4   8  -4    3.58    0.93
   4   8  -4    5.09    1.38
   4   8  -3    1.87    0.72
   4   8  -3    2.39    0.97
   4   8  -2   -0.21    0.53
   4   8  -2    0.18    0.23
   4   8  -1    0.31    0.30
   4   8  -1    0.71    0.70
   4   8   0    5.32    1.51
   4   8   1    0.51    0.47
   4   9 -11    0.26    0.46
   4   9 -10    0.19    0.34
   4   9 -10   -0.01    0.27
   4   9  -9    0.23    0.43
   4   9  -9    1.36    0.75
   4   9  -8   -0.31    0.52
   4   9  -8    0.83    0.65
   4   9  -7    5.42    1.51
   4   9  -6    0.45    0.52
   4   9  -5    4.17    1.29
   4   9  -4    0.40    0.32
   4   9  -4    0.42    0.39
   4   9  -3    0.56    0.52
   4   9  -3    0.66    0.52
   4   9  -2    0.29    0.42
   4   9  -2   -0.29    0.41
   4   9  -1    0.28    0.50
   4   9   0    0.57    0.29
   4  10 -10    0.10    0.05
   4  10  -9   -0.97    0.81
   4  10  -9    0.20    0.27
   4  10  -8    0.26    0.23
   4  10  -7    1.40    0.84
   4  10  -6    0.40    0.31
   4  10  -5   -0.21    0.46
   4  10  -4    0.38    0.37
   4  10  -3    0.17    0.23
   4  10  -3    0.76    0.49
   4  10  -2    0.18    0.28
   4  10  -1    0.79    0.55
   4  11  -8    0.60    0.77
   4  11  -7    0.22    0.35
   4  11  -6   -0.14    0.41
   4  11  -5    0.66    0.32
   4  11  -4    0.22    0.20
   4  11  -3    0.13    0.15
   5 -11   0    0.19    0.25
   5 -11   1   -0.04    0.15
   5 -11   2    0.14    0.17
   5 -11   3    0.16    0.41
   5 -11   4   -0.29    0.28
   5 -10  -2    0.36    0.47
   5 -10  -1    0.08    0.27
   5 -10   0   -0.09    0.24
   5 -10   1    0.29    0.23
   5 -10   2   -0.16    0.28
   5 -10   3    0.52    0.51
   5 -10   4   -0.07    0.08
   5 -10   5    0.33    0.15
   5 -10   6    0.00    0.24
   5  -9  -4    0.14    0.41
   5  -9  -3    0.87    0.73
   5  -9  -2    1.20    0.81
   5  -9  -1   -0.25    0.25
   5  -9   0    1.23    0.64
   5  -9   1   -0.06    0.26
   5  -9   2    0.13    0.07
   5  -9   3   -0.27    0.34
   5  -9   4   -0.06    0.43
   5  -9   5    1.29    0.74
   5  -9   6   -0.14    0.29
   5  -8  -5   -0.14    0.23
   5  -8  -4    0.11    0.27
   5  -8  -3    0.06    0.01
   5  -8  -2   -0.34    0.51
   5  -8  -1    0.93    0.63
   5  -8   0    1.00    0.43
   5  -8   1    2.83    0.91
   5  -8   2    0.82    0.50
   5  -8   3   11.44    1.88
   5  -8   4    3.49    1.11
   5  -8   5    0.16    0.25
   5  -8   6   -0.12    0.38
  -5   8  -7    2.81    1.80
   5  -8   7    1.55    0.92
   5  -7  -6   -0.10    0.36
   5  -7  -5    1.50    0.71
   5  -7  -4   -0.30    0.17
   5  -7  -3    0.08    0.05
   5  -7  -2    0.51    0.40
   5  -7  -1   19.22    2.32
   5  -7  -1   13.20    1.57
   5  -7   0    0.60    0.37
   5  -7   1    1.71    0.60
   5  -7   2    0.46    0.32
   5  -7   3   -0.12    0.32
   5  -7   4    0.41    0.45
   5  -7   5    0.33    0.43
   5  -7   6    1.17    0.76
   5  -7   7    0.36    0.53
   5  -6  -7    0.05    0.06
   5  -6  -6    0.17    0.36
   5  -6  -5    3.14    0.99
   5  -6  -4    2.54    0.86
   5  -6  -3    1.64    0.53
   5  -6  -3    1.45    0.63
   5  -6  -2    2.38    0.79
   5  -6  -2    0.93    0.39
   5  -6  -1   15.68    2.02
   5  -6  -1   11.52    1.50
   5  -6   0    5.54    1.17
   5  -6   1    2.78    0.84
   5  -6   2   18.74    2.30
   5  -6   3    7.67    1.52
   5  -6   4    0.64    0.51
   5  -6   5    1.60    0.91
   5  -6   6    0.67    0.26
   5  -6   7    0.45    0.70
  -5   6  -8    1.40    1.41
   5  -5  -8   -0.06    0.27
   5  -5  -7    0.50    0.55
   5  -5  -6   -0.04    0.15
   5  -5  -5   29.77    3.08
   5  -5  -4    3.77    0.97
   5  -5  -3    0.03    0.13
   5  -5  -3    0.26    0.27
   5  -5  -2   14.81    1.86
   5  -5  -2   12.52    1.50
   5  -5  -1    4.97    0.95
   5  -5  -1    5.35    1.08
   5  -5   0    4.25    0.46
   5  -5   0    7.49    1.26
   5  -5   1   28.13    2.68
   5  -5   2   16.93    2.12
   5  -5   3    5.29    1.19
   5  -5   4   -0.16    0.22
   5  -5   5    1.18    0.60
   5  -5   6    0.63    0.63
   5  -5   7    1.10    0.70
  -5   5  -8    1.44    1.56
   5  -4  -9    4.33    1.15
   5  -4  -9    5.54    1.42
   5  -4  -8   -0.13    0.30
   5  -4  -8    0.37    0.35
   5  -4  -7    2.58    0.77
   5  -4  -7    3.37    1.10
   5  -4  -6    2.23    0.66
   5  -4  -6    2.54    0.85
   5  -4  -5    1.07    0.39
   5  -4  -5    1.53    0.60
   5  -4  -4   21.69    1.75
   5  -4  -4   24.79    2.45
   5  -4  -4   24.56    2.31
   5  -4  -3    8.28    1.27
   5  -4  -3    8.19    1.19
   5  -4  -2   10.10    1.31
   5  -4  -2   10.28    1.42
   5  -4  -1    0.10    0.10
   5  -4  -1    0.13    0.11
   5  -4   0    1.58    0.58
  -5   4  -1    4.56    0.69
   5  -4   1    3.06    0.82
   5  -4   2    1.73    0.70
  -5   4  -2    2.21    0.60
   5  -4   3    0.27    0.20
  -5   4  -3    0.74    0.57
   5  -4   4    2.43    0.97
  -5   4  -4    3.21    1.03
   5  -4   5    0.88    0.58
  -5   4  -5    0.66    0.61
   5  -4   6    1.70    0.78
  -5   4  -6    2.64    1.15
  -5   4  -7   -0.47    0.24
  -5   4  -7    1.08    1.24
   5  -3 -10    0.50    0.47
   5  -3  -9    0.02    0.18
   5  -3  -9   -0.71    0.48
   5  -3  -8   -0.28    0.31
   5  -3  -8    0.42    0.37
   5  -3  -7    0.35    0.22
   5  -3  -7    0.54    0.40
   5  -3  -6    9.25    1.34
   5  -3  -6   12.42    1.71
   5  -3  -5    0.91    0.37
   5  -3  -5    1.25    0.51
   5  -3  -4    0.28    0.18
   5  -3  -4    0.19    0.19
   5  -3  -4    0.76    0.42
   5  -3  -3    9.38    1.26
   5  -3  -3    9.21    1.30
   5  -3  -2    1.09    0.23
   5  -3  -2    1.34    0.44
   5  -3  -2    1.58    0.61
   5  -3  -2    1.09    0.44
  -5   3   1    7.87    0.75
   5  -3  -1    6.32    1.03
   5  -3  -1    6.67    0.77
  -5   3   0   26.96    1.87
   5  -3   0   25.10    2.34
   5  -3   1    0.27    0.24
   5  -3   2   10.39    1.72
   5  -3   2    8.53    1.46
   5  -3   3    3.21    0.95
   5  -3   4    7.08    1.39
   5  -3   5    4.67    1.22
   5  -3   6    2.97    1.02
  -5   3  -6    7.14    2.00
  -5   3  -7    0.51    0.61
  -5   3  -8   -0.06    0.16
   5  -2 -10    0.14    0.12
   5  -2  -9    0.71    0.44
   5  -2  -9    0.65    0.38
   5  -2  -8    1.55    0.59
   5  -2  -8    1.16    0.58
   5  -2  -7   29.36    2.68
   5  -2  -7   27.28    2.80
   5  -2  -6    2.99    0.75
   5  -2  -6    2.01    0.64
   5  -2  -5   22.08    1.96
   5  -2  -5   25.52    2.32
   5  -2  -5   28.09    2.62
   5  -2  -4    6.88    1.03
   5  -2  -4    6.95    1.12
   5  -2  -3    1.29    0.42
   5  -2  -3    0.98    0.28
   5  -2  -3    1.21    0.46
   5  -2  -3    1.44    0.46
   5  -2  -2    0.85    0.33
   5  -2  -2    0.78    0.30
   5  -2  -2    1.08    0.53
   5  -2  -1    2.90    0.68
   5  -2   0   22.23    2.22
   5  -2   0   24.39    2.27
   5  -2   1   51.36    3.76
   5  -2   1   47.19    3.66
   5  -2   2   51.04    3.99
   5  -2   3    0.44    0.51
   5  -2   4   15.71    2.27
   5  -2   5   10.25    1.90
   5  -2   6    2.86    1.07
   5  -2   7   -0.25    0.24
  -5   2  -7   -0.19    0.80
  -5   2  -8    0.61    0.36
   5  -1 -11    1.66    0.79
   5  -1 -10    0.25    0.30
   5  -1  -9    0.41    0.37
   5  -1  -8   -0.03    0.18
   5  -1  -8   -0.17    0.32
   5  -1  -7    0.23    0.35
   5  -1  -7    0.46    0.41
   5  -1  -6  217.47   10.56
   5  -1  -6  246.82   10.90
   5  -1  -5   42.53    3.34
   5  -1  -5   38.32    2.81
   5  -1  -4    2.54    0.59
   5  -1  -4    2.06    0.49
   5  -1  -4    2.18    0.62
   5  -1  -3   86.90    4.45
   5  -1  -3   90.75    4.77
   5  -1  -3   89.19    4.57
   5  -1  -3   92.33    5.17
   5  -1  -2  235.09   10.37
   5  -1  -2  255.24   11.24
   5  -1  -1    0.38    0.15
   5  -1  -1    0.17    0.18
   5  -1   0   28.79    2.55
   5  -1   0   28.44    2.48
   5  -1   1   86.28    5.39
   5  -1   2   -0.36    0.46
   5  -1   3   15.51    2.17
   5  -1   4    0.70    0.46
   5  -1   5    5.04    1.35
   5  -1   6    0.62    0.48
   5  -1   7   -0.28    0.44
  -5   1  -7    0.59    0.95
   5   0 -11    0.48    0.43
   5   0 -10   10.53    1.81
   5   0  -9    8.48    1.53
   5   0  -8    0.21    0.08
   5   0  -7  105.75    6.19
   5   0  -7  111.22    6.01
   5   0  -7  105.33    5.51
   5   0  -6   35.06    2.70
   5   0  -6   35.93    3.10
   5   0  -6   33.65    2.51
   5   0  -5   12.36    1.29
   5   0  -5   12.00    1.63
   5   0  -5   11.18    1.49
   5   0  -5   12.43    1.37
   5   0  -4    7.66    1.10
   5   0  -4    6.78    0.98
   5   0  -4    6.46    0.80
   5   0  -4    8.06    1.12
   5   0  -4    8.00    1.20
   5   0  -3    7.51    1.00
   5   0  -3    7.22    1.01
   5   0  -3    7.75    0.86
   5   0  -3    6.95    1.11
   5   0  -2   -0.12    0.10
   5   0  -2    0.22    0.12
   5   0  -2    0.51    0.34
   5   0  -1   61.77    4.06
   5   0  -1   67.69    3.92
   5   0   0   19.83    2.11
   5   0   1   12.03    1.73
   5   0   2    6.15    1.25
   5   0   3    5.77    1.28
   5   0   4   45.92    4.34
   5   0   5    1.17    0.66
   5   0   6    1.22    0.81
   5   0   7   -0.64    0.59
   5   1 -11    0.70    0.58
   5   1 -11    0.43    0.45
   5   1 -10    1.38    0.64
   5   1 -10    1.09    0.67
   5   1  -9   12.59    1.92
   5   1  -9   16.11    2.28
   5   1  -8    4.97    1.23
   5   1  -8    5.57    1.19
   5   1  -8    5.24    0.97
   5   1  -7   29.99    2.91
   5   1  -7   31.25    2.56
   5   1  -6    0.36    0.29
   5   1  -6   -0.04    0.36
   5   1  -6    0.68    0.33
   5   1  -5    0.87    0.41
   5   1  -5    0.04    0.08
   5   1  -5    0.21    0.16
   5   1  -5    0.15    0.18
   5   1  -4   49.02    3.30
   5   1  -4   48.85    2.55
   5   1  -4   49.20    3.46
   5   1  -4   48.74    3.33
   5   1  -4   47.88    3.30
   5   1  -3   73.30    4.27
   5   1  -3   75.57    4.28
   5   1  -3   75.17    3.51
   5   1  -3   80.62    4.71
   5   1  -3   74.16    4.45
   5   1  -2   59.08    3.80
   5   1  -2   60.19    3.23
   5   1  -2   59.95    3.99
   5   1  -1    1.49    0.52
   5   1   0    1.94    0.58
   5   1   1   71.14    4.91
   5   1   2    1.02    0.63
   5   1   3    5.02    1.29
   5   1   4    0.00    0.36
   5   1   5    9.86    2.13
   5   1   6    0.24    0.45
   5   1   7   -0.12    0.34
   5   2 -12    1.90    0.88
   5   2 -11    2.01    0.84
   5   2 -11    1.71    0.76
   5   2 -10    0.62    0.49
   5   2  -9    4.79    1.24
   5   2  -9    3.74    0.90
   5   2  -8    3.57    0.85
   5   2  -8    3.00    0.78
   5   2  -7   24.67    2.55
   5   2  -7   24.77    2.36
   5   2  -6    9.16    1.35
   5   2  -6    9.98    1.44
   5   2  -5    5.75    1.05
   5   2  -5    7.78    1.24
   5   2  -5    7.17    1.18
  -5  -2   5    8.19    0.86
   5   2  -5    6.84    1.21
   5   2  -4   26.39    2.38
   5   2  -4   26.02    2.07
   5   2  -4   25.69    2.37
   5   2  -4   27.82    2.45
   5   2  -3    0.11    0.23
   5   2  -3    0.34    0.33
   5   2  -3    0.22    0.08
   5   2  -3    0.47    0.36
   5   2  -2   30.02    2.51
   5   2  -2   30.13    1.96
   5   2  -2   25.61    2.42
   5   2  -2   23.88    2.36
   5   2  -1   10.30    1.49
   5   2   0   15.91    1.99
   5   2   1   23.64    2.67
   5   2   2   12.01    1.98
   5   2   3    0.30    0.65
   5   2   4    1.17    0.71
   5   2   5    1.60    0.95
   5   2   6    0.23    0.41
   5   3 -12    0.41    0.16
   5   3 -11   -0.15    0.21
   5   3 -10   -0.07    0.02
   5   3 -10   -0.11    0.42
   5   3  -9    0.04    0.07
   5   3  -9    0.09    0.23
   5   3  -8    9.70    1.62
   5   3  -8   10.41    1.59
   5   3  -7   13.71    1.84
   5   3  -7   14.59    1.85
   5   3  -6    1.25    0.60
   5   3  -6    1.19    0.57
   5   3  -5   18.97    2.14
   5   3  -5   21.03    1.76
   5   3  -5   22.11    2.28
   5   3  -5   21.92    2.25
   5   3  -4    0.58    0.41
   5   3  -4    0.20    0.19
   5   3  -4    0.48    0.22
   5   3  -4    0.42    0.18
   5   3  -3   45.44    3.23
   5   3  -3   41.90    3.22
   5   3  -3   43.61    3.38
   5   3  -2   16.58    1.90
   5   3  -2   16.88    1.87
   5   3  -2   15.73    1.89
   5   3  -1    0.28    0.39
   5   3  -1    0.03    0.23
   5   3   0   22.31    2.54
   5   3   1   20.89    2.63
   5   3   2   25.69    3.15
   5   3   3    0.36    0.53
   5   3   4    0.55    0.55
   5   3   5   -0.10    0.19
   5   4 -12    0.34    0.42
   5   4 -11    0.54    0.34
   5   4 -10    0.50    0.41
   5   4 -10    0.24    0.30
   5   4  -9    5.13    1.19
   5   4  -9    3.90    1.04
   5   4  -8    1.89    0.71
   5   4  -8    1.59    0.55
   5   4  -7   35.40    3.27
   5   4  -7   39.87    3.40
   5   4  -6    1.75    0.67
   5   4  -6    1.30    0.54
   5   4  -5   10.53    1.27
   5   4  -5    9.52    1.53
   5   4  -5   10.43    1.56
   5   4  -5    9.62    1.49
   5   4  -4   24.46    2.22
   5   4  -4   19.98    2.13
   5   4  -4   23.14    2.43
   5   4  -3    7.55    1.21
   5   4  -3    8.63    1.49
   5   4  -3    7.96    1.25
   5   4  -2   24.83    2.50
   5   4  -2   27.82    2.48
   5   4  -2   26.51    2.67
   5   4  -1   -0.29    0.29
   5   4  -1   -0.16    0.10
   5   4   0   28.92    3.09
   5   4   1    2.03    0.97
   5   4   2    0.51    0.63
   5   4   3    4.11    1.34
   5   4   4    0.72    0.77
   5   5 -12    0.51    0.48
   5   5 -11    0.05    0.11
   5   5 -11   -0.16    0.24
   5   5 -10    3.45    1.10
   5   5 -10    4.73    1.24
   5   5  -9    0.22    0.35
   5   5  -8    1.88    0.71
   5   5  -8    2.32    0.83
   5   5  -7   13.18    1.92
   5   5  -7   14.43    2.02
   5   5  -6    0.18    0.28
   5   5  -6    0.11    0.07
   5   5  -6    0.09    0.24
   5   5  -5   16.54    2.23
   5   5  -5   16.18    1.75
   5   5  -5   15.21    2.05
   5   5  -4  274.22   12.35
   5   5  -4  267.08   12.49
   5   5  -4  269.31   13.05
   5   5  -3    5.27    1.06
   5   5  -3    6.62    1.38
   5   5  -3    5.90    1.10
   5   5  -2    3.70    0.97
   5   5  -2    2.70    0.79
   5   5  -2    3.64    0.83
   5   5  -1    6.10    1.06
   5   5  -1    6.47    1.38
   5   5   0    9.27    1.79
   5   5   1    1.01    0.76
   5   5   2    1.22    0.82
   5   5   3    3.68    1.28
   5   6 -12    1.96    0.90
   5   6 -11   -0.19    0.22
   5   6 -10    4.00    1.20
   5   6 -10    5.40    1.35
   5   6  -9   14.91    2.23
   5   6  -9   17.33    2.41
   5   6  -8    6.66    1.44
   5   6  -8    6.28    1.43
   5   6  -7    7.13    1.44
   5   6  -7    8.54    1.61
   5   6  -6   14.98    2.15
   5   6  -6   11.83    1.91
   5   6  -5   38.60    3.07
   5   6  -5   38.03    3.56
   5   6  -4    5.66    1.08
   5   6  -4    5.19    1.25
   5   6  -3    8.63    1.65
   5   6  -3    5.93    1.20
   5   6  -3    7.66    1.25
   5   6  -2   -0.33    0.17
   5   6  -2    0.06    0.18
   5   6  -1    0.19    0.16
   5   6   0   -0.48    0.51
   5   6   1    7.80    1.86
   5   6   2   -0.07    0.18
   5   7 -12   -0.08    0.26
   5   7 -11    3.16    1.06
   5   7 -11    3.17    1.11
   5   7 -10    0.27    0.18
   5   7 -10    1.58    0.78
   5   7  -9    3.77    1.13
   5   7  -9    3.46    1.16
   5   7  -8    1.01    0.66
   5   7  -8    0.35    0.54
   5   7  -7    2.40    1.91
   5   7  -7    1.89    0.70
   5   7  -6   17.64    2.47
   5   7  -5    0.10    0.07
   5   7  -5    0.77    0.70
   5   7  -4    7.06    1.32
   5   7  -4    5.78    1.38
   5   7  -3    2.40    0.89
   5   7  -3    2.37    0.79
   5   7  -2   -0.11    0.24
   5   7  -2   -0.15    0.43
   5   7  -1   -0.13    0.10
   5   7   0    0.11    0.39
   5   7   1    2.85    1.33
   5   8 -11    0.29    0.32
   5   8 -11    0.01    0.15
   5   8 -10    0.05    0.51
   5   8 -10   -0.27    0.29
   5   8  -9    0.20    0.31
   5   8  -9    0.04    0.22
   5   8  -8    0.33    0.54
   5   8  -8    0.35    0.54
   5   8  -7    0.20    0.22
   5   8  -6    1.64    0.79
   5   8  -5    4.19    1.29
   5   8  -4    1.11    0.60
   5   8  -4    1.46    0.66
   5   8  -3    0.21    0.27
   5   8  -3    0.85    0.59
   5   8  -2    0.19    0.40
   5   8  -2   -0.28    0.36
   5   8  -1    1.12    0.81
   5   8   0    0.48    0.29
   5   9 -11    0.13    0.42
   5   9 -10    0.71    0.57
   5   9 -10    0.40    0.53
   5   9  -9    0.62    0.72
   5   9  -9    0.26    0.23
   5   9  -8    0.62    0.60
   5   9  -7    0.13    0.17
   5   9  -6    0.94    0.76
   5   9  -5    0.88    0.65
   5   9  -4    0.71    0.44
   5   9  -4    2.23    1.05
   5   9  -3    0.92    0.61
   5   9  -3    0.58    0.67
   5   9  -2    0.54    0.63
   5   9  -2    0.86    0.63
   5   9  -1    8.10    1.92
   5  10 -10   -0.03    0.08
   5  10  -9    1.53    0.87
   5  10  -8   -0.18    0.32
   5  10  -7    1.30    0.67
   5  10  -6    0.49    0.47
   5  10  -5    1.50    0.81
   5  10  -4    0.39    0.53
   5  10  -3   -0.26    0.42
   5  10  -3   -0.03    0.14
   5  10  -2    0.54    0.51
   5  11  -6    1.99    0.96
   5  11  -5    0.09    0.37
   5  11  -4   -0.38    0.45
   6 -10  -2   -0.45    0.56
   6 -10  -1   -0.40    0.42
   6 -10   0    0.22    0.23
   6 -10   1   -0.06    0.07
   6 -10   2   -0.06    0.40
   6 -10   3    0.06    0.39
   6 -10   4    0.56    0.47
   6  -9  -4    0.74    0.67
   6  -9  -3    0.72    0.56
   6  -9  -2    0.10    0.06
   6  -9  -1   -0.03    0.18
   6  -9   0    0.28    0.12
   6  -9   1    0.14    0.28
   6  -9   2    0.49    0.35
   6  -9   3   -0.36    0.40
   6  -9   4    0.24    0.25
   6  -9   5   -0.01    0.26
   6  -8  -5    0.00    0.36
   6  -8  -4    0.58    0.67
   6  -8  -3    1.08    0.55
   6  -8  -2    1.46    0.67
   6  -8  -1    0.16    0.26
   6  -8   0    2.75    0.91
   6  -8   1    0.31    0.37
   6  -8   2    2.36    0.93
   6  -8   3    8.58    1.71
   6  -8   4    0.64    0.49
   6  -8   5    0.61    0.41
   6  -8   6    0.59    0.60
   6  -7  -6    0.08    0.32
   6  -7  -5   -0.15    0.18
   6  -7  -4   10.17    1.86
   6  -7  -3   -0.11    0.34
   6  -7  -2   -0.28    0.06
   6  -7  -1    9.37    1.64
   6  -7  -1    7.45    1.28
   6  -7   0    0.73    0.43
   6  -7   1    0.35    0.36
   6  -7   2    4.93    1.22
   6  -7   3    2.17    0.86
   6  -7   4    2.30    0.87
   6  -7   5   -0.02    0.28
   6  -7   6    0.17    0.16
   6  -6  -7    0.50    0.55
   6  -6  -6    3.23    1.05
   6  -6  -5    2.00    0.81
   6  -6  -4    0.58    0.40
   6  -6  -3    5.89    1.27
   6  -6  -3    4.51    0.92
   6  -6  -2    0.75    0.43
   6  -6  -2    0.32    0.27
   6  -6  -1    1.10    0.52
   6  -6  -1    0.07    0.20
   6  -6   0   -0.45    0.37
   6  -6   1    0.48    0.35
   6  -6   2    0.32    0.22
   6  -6   3    0.13    0.22
   6  -6   4   -0.30    0.49
   6  -6   5   -0.09    0.48
   6  -6   6    0.35    0.36
   6  -5  -8    0.23    0.34
   6  -5  -7    0.24    0.29
   6  -5  -6    1.00    0.60
   6  -5  -5    2.44    0.79
   6  -5  -4    5.20    1.02
   6  -5  -4    4.65    1.09
   6  -5  -3    2.68    0.81
   6  -5  -3    2.52    0.66
   6  -5  -2    0.63    0.34
   6  -5  -2    0.09    0.08
   6  -5  -1    0.51    0.30
   6  -5  -1   -0.15    0.23
   6  -5   0    0.07    0.25
   6  -5   1    0.19    0.05
   6  -5   2    0.67    0.46
   6  -5   3   -0.19    0.34
   6  -5   4    0.24    0.42
   6  -5   5    0.33    0.12
   6  -5   6   -0.20    0.50
   6  -4  -9    0.08    0.23
   6  -4  -8   -0.31    0.34
   6  -4  -7    0.30    0.38
   6  -4  -6    7.32    1.41
   6  -4  -5    0.74    0.34
   6  -4  -5    1.54    0.60
   6  -4  -4    1.64    0.59
   6  -4  -4    1.63    0.57
   6  -4  -3    7.50    1.26
   6  -4  -3    7.48    1.22
   6  -4  -2   12.75    1.66
   6  -4  -2   12.03    1.67
   6  -4  -2    9.49    1.12
   6  -4  -1    1.11    0.50
   6  -4   0    3.28    0.88
   6  -4   1    5.01    1.06
   6  -4   2    7.27    1.47
   6  -4   3    3.82    1.19
   6  -4   4    0.48    0.53
   6  -4   5    4.92    1.44
   6  -4   5    2.86    1.04
   6  -4   6    1.73    0.82
  -6   4  -7   -0.29    0.71
   6  -3 -10    2.60    0.89
   6  -3  -9    1.05    0.52
   6  -3  -9    0.88    0.56
   6  -3  -8    0.14    0.19
   6  -3  -8    0.19    0.28
   6  -3  -7    0.14    0.29
   6  -3  -7    0.06    0.15
   6  -3  -6    0.70    0.34
   6  -3  -6    0.00    0.15
   6  -3  -5   68.19    4.57
   6  -3  -5   70.50    4.71
   6  -3  -4    6.45    1.09
   6  -3  -4    7.18    1.20
   6  -3  -3   -0.03    0.07
   6  -3  -3    0.16    0.16
   6  -3  -3    0.00    0.16
   6  -3  -3    0.11    0.09
   6  -3  -2    6.05    1.04
   6  -3  -2    7.51    0.96
   6  -3  -2    7.90    1.33
   6  -3  -1   66.80    4.33
   6  -3   0    1.11    0.70
   6  -3   1   12.56    1.81
   6  -3   2    9.66    1.68
   6  -3   2   11.49    1.81
   6  -3   3    0.09    0.40
   6  -3   3    0.17    0.36
   6  -3   4    2.10    0.80
   6  -3   5    0.54    0.42
   6  -3   6   -0.33    0.16
  -6   3  -6    0.99    0.79
   6  -2 -10    0.31    0.16
   6  -2  -9    9.67    1.62
   6  -2  -9   10.71    1.79
   6  -2  -8    4.45    1.03
   6  -2  -8    4.11    1.04
   6  -2  -7   -0.09    0.17
   6  -2  -7    0.11    0.23
   6  -2  -6   82.26    5.07
   6  -2  -5   12.18    1.52
   6  -2  -5   11.99    1.64
   6  -2  -4    0.02    0.02
   6  -2  -4    0.02    0.02
   6  -2  -4   -0.02    0.15
   6  -2  -4   -0.12    0.36
   6  -2  -3   12.21    1.16
   6  -2  -3   14.28    1.56
   6  -2  -3   14.30    1.77
   6  -2  -3   13.99    1.47
   6  -2  -2    1.20    0.53
   6  -2  -2    0.19    0.32
   6  -2  -1   16.97    1.85
   6  -2   0    3.26    0.82
   6  -2   0    4.16    0.99
   6  -2   1    0.83    0.56
   6  -2   1   -0.06    0.23
   6  -2   2   14.28    2.06
   6  -2   3   -0.04    0.33
   6  -2   4   -0.12    0.19
   6  -2   5   14.98    2.41
   6  -2   6    1.50    0.84
  -6   2  -7   -0.04    0.55
   6  -1 -11    0.30    0.32
   6  -1 -10   -0.17    0.31
   6  -1  -9   -0.21    0.31
   6  -1  -9   -0.04    0.15
   6  -1  -8    5.45    1.13
   6  -1  -8    5.38    1.12
   6  -1  -7   18.84    2.10
   6  -1  -6   44.94    3.25
   6  -1  -6   48.86    3.92
   6  -1  -6   47.97    3.78
   6  -1  -5    0.40    0.30
   6  -1  -5    0.06    0.18
   6  -1  -5    0.00    0.22
   6  -1  -4    3.26    0.72
   6  -1  -4    3.01    0.61
   6  -1  -4    3.31    0.63
   6  -1  -4    3.69    0.83
   6  -1  -3   86.02    4.78
   6  -1  -3   83.00    4.57
   6  -1  -3   88.80    5.37
   6  -1  -2   22.98    1.97
   6  -1  -2   23.06    2.41
   6  -1  -1   38.62    3.16
   6  -1  -1   41.35    3.02
   6  -1   0   24.18    2.39
   6  -1   0   23.03    2.41
   6  -1   1    7.18    1.36
   6  -1   2    3.81    1.05
   6  -1   3   -0.31    0.32
   6  -1   4    3.37    1.10
   6  -1   5    1.16    0.66
   6  -1   6    1.61    0.94
   6   0 -11    5.67    1.48
   6   0 -11    3.01    1.03
   6   0 -10    4.78    1.28
   6   0 -10    3.78    1.07
   6   0  -9    1.90    0.79
   6   0  -8    3.47    0.98
   6   0  -8    2.64    0.73
   6   0  -7   38.59    2.96
   6   0  -7   42.49    3.58
   6   0  -7   37.61    2.85
   6   0  -6   70.24    4.11
   6   0  -6   74.00    5.00
   6   0  -6   67.20    4.62
   6   0  -6   71.19    4.30
   6   0  -5   16.45    1.74
   6   0  -5   17.59    1.55
   6   0  -5   15.99    1.94
   6   0  -5   15.82    1.82
   6   0  -4    6.37    1.00
   6   0  -4    7.46    1.14
   6   0  -4    6.38    0.82
   6   0  -4    7.40    1.26
   6   0  -3    2.49    0.50
   6   0  -3    2.24    0.68
   6   0  -2   13.71    1.70
   6   0  -2   14.86    1.45
   6   0  -2   15.02    1.86
   6   0  -1   18.62    2.11
   6   0  -1   20.36    2.00
   6   0   0   13.11    1.84
   6   0   1   19.60    2.37
   6   0   2    2.60    0.95
   6   0   3   -0.03    0.41
   6   0   4    0.53    0.56
   6   0   5    0.51    0.55
   6   0   6   -0.28    0.45
   6   1 -11    0.56    0.57
   6   1 -10    0.95    0.62
   6   1  -9    2.45    0.87
   6   1  -8    0.14    0.17
   6   1  -8    0.27    0.27
   6   1  -7   20.16    1.83
   6   1  -7   23.91    2.50
   6   1  -7   20.39    2.09
   6   1  -6   19.37    1.75
   6   1  -6   34.14    3.04
   6   1  -6   30.79    2.55
   6   1  -6   30.25    2.64
   6   1  -5   18.16    1.92
   6   1  -5   14.65    1.27
   6   1  -5   18.14    2.06
   6   1  -5   18.75    1.95
   6   1  -5   18.52    1.96
   6   1  -4   16.81    1.78
   6   1  -4   14.60    1.16
   6   1  -4   18.77    2.11
   6   1  -4   15.43    1.74
   6   1  -3    1.13    0.46
   6   1  -3    0.62    0.20
   6   1  -3    0.55    0.12
   6   1  -2    0.43    0.20
   6   1  -2    2.03    0.65
   6   1  -2    1.26    0.36
   6   1  -1    1.15    0.59
   6   1   0    0.19    0.29
   6   1   1    0.32    0.36
   6   1   2   11.60    2.03
   6   1   3    3.79    1.19
   6   1   4   -0.71    0.58
   6   1   5   -0.04    0.46
   6   1   6   -0.12    0.27
   6   2 -11    0.77    0.51
   6   2 -10    0.71    0.60
   6   2  -9   -0.18    0.31
   6   2  -9    0.30    0.25
   6   2  -8   12.05    1.79
   6   2  -8    9.75    1.50
   6   2  -7    6.89    1.21
   6   2  -7    6.93    1.28
   6   2  -6   61.42    4.31
   6   2  -6   61.06    4.29
   6   2  -6   65.23    4.62
   6   2  -6   65.68    4.38
   6   2  -5    0.30    0.34
   6   2  -5    0.19    0.43
   6   2  -5    0.05    0.04
   6   2  -4    2.57    0.66
   6   2  -4    2.30    0.74
   6   2  -4    1.17    0.19
   6   2  -4    2.00    0.56
   6   2  -3   13.52    1.65
   6   2  -3    7.95    0.77
   6   2  -3   13.32    1.71
   6   2  -3   14.22    1.75
   6   2  -2   14.46    1.84
   6   2  -2   13.54    1.39
   6   2  -2   15.41    1.90
   6   2  -1   29.47    2.87
   6   2   0    0.39    0.30
   6   2   1   13.98    2.19
   6   2   2    0.70    0.61
   6   2   3    0.65    0.67
   6   2   4    0.35    0.55
   6   2   5    0.71    0.47
   6   3 -12   -0.18    0.41
   6   3 -11    0.09    0.15
   6   3 -10    0.45    0.36
   6   3 -10    0.45    0.35
   6   3  -9    6.82    1.32
   6   3  -9    8.93    1.63
   6   3  -8   -0.08    0.14
   6   3  -8   -0.15    0.20
   6   3  -7    2.21    0.79
   6   3  -7    2.51    0.78
   6   3  -6   64.10    4.55
   6   3  -6   66.06    4.75
   6   3  -6   64.81    4.58
   6   3  -5    7.07    1.33
   6   3  -5    7.89    1.17
   6   3  -5    6.92    1.27
   6   3  -5    7.64    1.34
   6   3  -4   55.26    3.79
   6   3  -4   56.98    4.07
   6   3  -4   52.87    4.01
   6   3  -3  246.50   11.48
   6   3  -3  246.73   11.64
   6   3  -3  233.17   11.63
   6   3  -2    0.80    0.45
   6   3  -2    1.04    0.41
   6   3  -1    2.90    0.77
   6   3  -1    4.51    1.07
   6   3   0   11.86    1.94
   6   3   1    2.21    0.82
   6   3   2    0.29    0.28
   6   3   3   -0.16    0.48
   6   3   4    4.22    1.50
   6   4 -12   -0.28    0.24
   6   4 -11   13.47    2.25
   6   4 -10    0.56    0.42
   6   4 -10    0.67    0.50
   6   4  -9   10.06    1.78
   6   4  -9   11.69    1.87
   6   4  -8   35.89    3.47
   6   4  -8   41.44    3.63
   6   4  -7    3.08    0.90
   6   4  -7    3.01    0.92
   6   4  -6    4.89    1.17
   6   4  -6    4.07    0.79
   6   4  -6    5.11    1.21
   6   4  -5    0.22    0.14
   6   4  -5    0.78    0.47
   6   4  -5    0.39    0.26
   6   4  -4   67.43    4.39
   6   4  -4   60.01    4.36
   6   4  -4   64.91    4.67
   6   4  -3    7.84    1.44
   6   4  -3    8.55    1.43
   6   4  -3    8.72    1.40
   6   4  -2    1.69    0.57
   6   4  -2    1.56    0.57
   6   4  -1    0.66    0.53
   6   4  -1   -0.01    0.05
   6   4   0    0.51    0.30
   6   4   0    0.42    0.24
   6   4   1    0.97    0.50
   6   4   2    3.00    1.22
   6   4   3    1.35    0.80
   6   5 -12    0.19    0.10
   6   5 -11   -0.28    0.30
   6   5 -11    0.83    0.59
   6   5 -10    6.25    1.46
   6   5 -10    5.48    1.31
   6   5  -9    0.78    0.53
   6   5  -9    1.65    0.82
   6   5  -8   10.50    1.78
   6   5  -8   10.77    1.86
   6   5  -7    1.67    0.70
   6   5  -7    0.92    0.49
   6   5  -6   10.77    1.43
   6   5  -6   11.02    1.85
   6   5  -6   12.78    1.96
   6   5  -5   45.39    3.45
   6   5  -5   44.03    3.70
   6   5  -5   42.53    3.85
   6   5  -4   30.43    2.85
   6   5  -4   29.14    2.79
   6   5  -4   27.21    2.95
   6   5  -3    4.76    1.14
   6   5  -3    4.51    1.04
   6   5  -3    4.87    1.05
   6   5  -2   14.28    2.04
   6   5  -2   14.82    2.10
   6   5  -2   12.79    1.74
   6   5  -1    2.20    0.74
   6   5  -1    1.62    0.59
   6   5   0    0.06    0.27
   6   5   1    0.74    0.89
   6   5   2    2.56    1.16
   6   6 -12    0.13    0.36
   6   6 -11    0.06    0.32
   6   6 -11    0.03    0.44
   6   6 -10    1.22    0.73
   6   6 -10    0.26    0.47
   6   6  -9   -0.20    0.40
   6   6  -9   -0.15    0.16
   6   6  -8   -0.27    0.31
   6   6  -8    0.16    0.45
   6   6  -7   -0.13    0.29
   6   6  -7    0.30    0.13
   6   6  -6    1.36    0.79
   6   6  -5    0.19    0.20
   6   6  -5    0.81    0.64
   6   6  -4   10.63    1.67
   6   6  -4    9.73    1.77
   6   6  -4    9.85    1.59
   6   6  -3    4.94    1.26
   6   6  -3    4.91    1.20
   6   6  -3    4.16    0.97
   6   6  -2    0.00    0.24
   6   6  -2    0.20    0.26
   6   6  -1    3.08    1.13
   6   6   0    3.06    1.12
   6   6   1   -0.12    0.32
   6   7 -12    0.07    0.26
   6   7 -11   -0.08    0.35
   6   7 -11    0.36    0.60
   6   7 -10    0.25    0.08
   6   7 -10    0.78    0.61
   6   7  -9    1.46    0.80
   6   7  -9    1.80    0.80
   6   7  -8    0.48    0.38
   6   7  -8    0.81    0.59
   6   7  -7    0.28    0.30
   6   7  -6    0.00    0.26
   6   7  -5    0.14    0.20
   6   7  -5    0.07    0.24
   6   7  -4    0.04    0.27
   6   7  -4    0.57    0.48
   6   7  -3    4.70    1.29
   6   7  -3    6.37    1.38
   6   7  -2   -0.41    0.52
   6   7  -2    0.24    0.29
   6   7  -1    3.83    1.24
   6   7   0    2.33    1.13
   6   8 -11    0.51    0.57
   6   8 -11   -0.01    0.29
   6   8 -10   -0.05    0.26
   6   8 -10   -0.40    0.43
   6   8  -9   -0.10    0.21
   6   8  -9    0.07    0.26
   6   8  -8    6.31    1.58
   6   8  -7    0.15    0.29
   6   8  -6    3.59    1.19
   6   8  -5    0.95    0.55
   6   8  -4    0.49    0.37
   6   8  -4    0.29    0.26
   6   8  -3    1.18    0.67
   6   8  -3    1.43    0.72
   6   8  -2    1.31    0.76
   6   8  -1   -0.26    0.46
   6   9 -10    0.38    0.34
   6   9 -10    0.79    0.66
   6   9  -9    0.17    0.35
   6   9  -8    1.15    0.67
   6   9  -7    0.10    0.28
   6   9  -6    0.20    0.23
   6   9  -5    7.47    1.89
   6   9  -4    0.96    0.78
   6   9  -4    1.01    0.51
   6   9  -3   -0.05    0.33
   6   9  -3   -0.18    0.38
   6   9  -2    3.67    1.27
   6  10  -8    0.87    0.62
   6  10  -7    0.53    0.58
   6  10  -6    1.31    0.92
   6  10  -5    0.66    0.51
   6  10  -4    0.56    0.59
   7 -10   0   -0.20    0.29
   7 -10   1    0.25    0.34
   7  -9  -3    0.58    0.53
   7  -9  -2   -0.09    0.22
   7  -9  -1    0.15    0.18
   7  -9   0    0.86    0.62
   7  -9   1    0.00    0.22
   7  -9   2    0.14    0.22
   7  -9   3    0.41    0.44
   7  -8  -5    0.44    0.56
   7  -8  -4    0.57    0.49
   7  -8  -3    0.31    0.34
   7  -8  -2    0.27    0.31
   7  -8  -1   -0.05    0.24
   7  -8   0   -0.31    0.26
   7  -8   1   -0.17    0.42
   7  -8   2    0.44    0.39
   7  -8   3    0.49    0.45
   7  -8   4    0.25    0.27
   7  -7  -6    0.33    0.42
   7  -7  -5    0.27    0.04
   7  -7  -4    0.05    0.20
   7  -7  -3    1.36    0.70
   7  -7  -2    0.76    0.56
   7  -7  -2    0.60    0.36
   7  -7  -1    0.21    0.15
   7  -7  -1    0.60    0.46
   7  -7   0   -0.25    0.39
   7  -7   1    0.82    0.71
   7  -7   2    0.90    0.50
   7  -7   3   -0.22    0.38
   7  -7   4    0.31    0.44
   7  -7   5    0.08    0.12
   7  -6  -7    0.11    0.23
   7  -6  -6    0.83    0.56
   7  -6  -5    0.42    0.50
   7  -6  -4    0.05    0.15
   7  -6  -4   -0.02    0.23
   7  -6  -3   -0.29    0.28
   7  -6  -3    0.18    0.13
   7  -6  -2    1.73    0.70
   7  -6  -2    0.69    0.40
   7  -6  -1    2.46    0.90
   7  -6  -1    3.08    0.92
   7  -6   0   -0.43    0.40
   7  -6   1    0.16    0.21
   7  -6   2    0.65    0.41
   7  -6   3    0.27    0.30
   7  -6   4   -0.06    0.28
   7  -6   5    0.67    0.93
   7  -5  -8    1.29    0.75
   7  -5  -7   19.04    2.73
   7  -5  -6    0.49    0.45
   7  -5  -5    0.00    0.06
   7  -5  -5    0.14    0.28
   7  -5  -4    4.86    1.10
   7  -5  -4    4.60    1.01
   7  -5  -3    0.68    0.37
   7  -5  -3    0.95    0.49
   7  -5  -3    0.58    0.35
   7  -5  -2    0.16    0.05
   7  -5  -2   -0.21    0.19
   7  -5  -1    0.77    0.51
   7  -5   0    7.92    1.45
   7  -5   1    0.43    0.41
   7  -5   2    1.34    0.75
   7  -5   3    1.25    0.67
   7  -5   4    0.28    0.43
   7  -5   5    0.57    0.56
   7  -4  -9    0.13    0.14
   7  -4  -8    5.65    1.38
   7  -4  -7    1.17    0.61
   7  -4  -6   -0.13    0.27
   7  -4  -5   31.36    2.95
   7  -4  -5   28.77    2.81
   7  -4  -4    2.32    0.67
   7  -4  -4    2.12    0.66
   7  -4  -4    1.65    0.60
   7  -4  -3    1.72    0.51
   7  -4  -3    2.37    0.65
   7  -4  -3    1.06    0.39
   7  -4  -2    5.55    1.15
   7  -4  -2    6.61    1.31
   7  -4  -1    0.57    0.48
   7  -4   0   12.28    1.79
   7  -4   1   -0.25    0.32
   7  -4   2    0.55    0.49
   7  -4   3    4.66    1.27
   7  -4   4    0.14    0.31
   7  -4   5   -0.88    0.61
   7  -3 -10    0.14    0.20
   7  -3  -9    0.13    0.20
   7  -3  -8    0.36    0.28
   7  -3  -7    1.66    0.73
   7  -3  -6   20.98    2.32
   7  -3  -6   19.31    2.38
   7  -3  -5   48.62    3.54
   7  -3  -5   48.46    3.70
   7  -3  -5   35.01    3.17
   7  -3  -4    1.06    0.42
   7  -3  -4    2.43    0.66
   7  -3  -4    2.20    0.75
   7  -3  -3    9.26    1.41
   7  -3  -3    9.75    1.24
   7  -3  -3   10.72    1.63
   7  -3  -2   46.17    3.49
   7  -3  -2   41.15    3.62
   7  -3  -1    0.23    0.20
   7  -3   0    5.31    1.17
   7  -3   1   17.12    2.24
   7  -3   2    4.00    1.17
   7  -3   2    5.43    1.34
   7  -3   3    0.72    0.48
   7  -3   3    0.42    0.30
   7  -3   4   -0.27    0.37
   7  -3   4   -0.01    0.32
   7  -3   5    2.37    1.03
   7  -3   6   -0.29    0.45
   7  -2 -10    5.29    1.31
   7  -2  -9    2.36    0.81
   7  -2  -8    1.05    0.57
   7  -2  -7    7.67    1.47
   7  -2  -7    6.16    1.19
   7  -2  -6   49.01    3.66
   7  -2  -6   47.81    3.97
   7  -2  -6   58.42    4.16
   7  -2  -5   28.22    2.21
   7  -2  -5   28.91    2.47
   7  -2  -5   33.84    2.99
   7  -2  -5   25.72    2.50
   7  -2  -4    3.65    0.67
   7  -2  -4    3.15    0.71
   7  -2  -4    4.62    0.88
   7  -2  -4    5.79    1.15
   7  -2  -3   -0.01    0.09
   7  -2  -3    0.02    0.15
   7  -2  -2    0.77    0.36
   7  -2  -2    1.51    0.68
   7  -2  -1   19.38    2.09
   7  -2   0    0.45    0.12
   7  -2   0    0.25    0.38
   7  -2   1    3.71    0.97
   7  -2   1    5.25    1.23
   7  -2   2    4.60    1.21
   7  -2   2    6.62    1.60
   7  -2   3    0.57    0.59
   7  -2   4    0.31    0.41
   7  -2   5    0.68    0.57
   7  -2   6   -0.49    0.45
   7  -1 -10    0.02    0.24
   7  -1  -9    0.28    0.23
   7  -1  -9    0.01    0.19
   7  -1  -8    4.75    1.19
   7  -1  -8    3.65    0.90
   7  -1  -7    1.16    0.64
   7  -1  -7    0.90    0.42
   7  -1  -6    9.29    1.30
   7  -1  -6   10.02    1.34
   7  -1  -6   11.98    1.67
   7  -1  -6    9.52    1.57
   7  -1  -5   19.65    1.90
   7  -1  -5   21.92    1.94
   7  -1  -5   23.30    2.49
   7  -1  -5   23.01    2.25
   7  -1  -4    9.95    1.22
   7  -1  -4    9.49    1.34
   7  -1  -4   10.03    1.22
   7  -1  -4   10.02    1.60
   7  -1  -3    4.40    0.81
   7  -1  -3    4.94    1.14
   7  -1  -2    1.14    0.60
   7  -1  -2    2.44    0.62
   7  -1  -1    1.39    0.52
   7  -1  -1    1.74    0.58
   7  -1   0    1.06    0.54
   7  -1   0    0.83    0.31
   7  -1   1    2.69    0.82
   7  -1   1    4.17    1.14
   7  -1   2    0.29    0.24
   7  -1   3    3.31    1.09
   7  -1   4    1.08    0.59
   7  -1   5    0.21    0.42
   7  -1   6    0.44    0.25
   7   0 -11    1.71    0.92
   7   0 -10    0.32    0.36
   7   0  -9    0.68    0.58
   7   0  -8    0.17    0.23
   7   0  -8   -0.11    0.22
   7   0  -7    1.79    0.54
   7   0  -7    3.05    0.91
   7   0  -6    2.16    0.67
   7   0  -6    1.90    0.65
   7   0  -6    2.89    0.65
   7   0  -6    2.75    0.87
   7   0  -5   29.26    2.50
   7   0  -5   29.70    2.18
   7   0  -5   31.89    2.98
   7   0  -5   31.54    2.72
   7   0  -4    0.85    0.32
   7   0  -4    1.57    0.64
   7   0  -3    0.18    0.23
   7   0  -3    0.23    0.28
   7   0  -2    0.27    0.35
   7   0  -2    0.76    0.33
   7   0  -2    0.91    0.47
   7   0  -1    0.26    0.18
   7   0  -1    0.08    0.23
   7   0   0   12.90    1.93
   7   0   0   11.90    1.69
   7   0   1    1.72    0.78
   7   0   2    5.05    1.33
   7   0   3    1.54    0.83
   7   0   4    0.42    0.52
   7   0   5   -0.50    0.52
   7   1 -11    0.09    0.37
   7   1 -10    0.95    0.46
   7   1  -9    0.16    0.27
   7   1  -8    5.24    1.24
   7   1  -8    4.53    0.96
   7   1  -7    0.77    0.41
   7   1  -7    0.81    0.42
   7   1  -7    1.26    0.67
   7   1  -6   -0.06    0.13
   7   1  -6    0.33    0.34
   7   1  -6    0.16    0.24
   7   1  -6   -0.15    0.07
   7   1  -5   65.86    4.29
   7   1  -5   61.16    3.26
   7   1  -5   69.13    4.74
   7   1  -4    6.58    0.78
   7   1  -4   12.37    1.75
   7   1  -3   23.65    2.38
   7   1  -3   17.05    1.52
   7   1  -3   28.33    2.78
   7   1  -2   98.17    5.95
   7   1  -2   98.18    5.23
   7   1  -2   95.29    6.07
   7   1  -1    1.53    0.60
   7   1  -1    1.90    0.71
   7   1   0   20.34    2.48
   7   1   1   10.90    1.90
   7   1   2    0.02    0.14
   7   1   3    0.82    0.39
   7   1   4    0.59    0.62
   7   2 -11   -0.23    0.32
   7   2 -10    7.76    1.61
   7   2  -9    0.37    0.27
   7   2  -9    0.99    0.56
   7   2  -8    6.04    1.25
   7   2  -8    6.75    1.26
   7   2  -8    6.87    1.38
   7   2  -7   42.86    3.60
   7   2  -7   38.17    3.33
   7   2  -7   39.35    3.38
   7   2  -6    0.08    0.15
   7   2  -6    0.63    0.36
   7   2  -6    0.23    0.36
   7   2  -5    1.10    0.44
   7   2  -5    0.92    0.48
   7   2  -5    0.45    0.30
   7   2  -4    1.85    0.62
   7   2  -4    0.96    0.56
   7   2  -3   45.88    3.69
   7   2  -3   53.06    4.13
   7   2  -2    0.33    0.27
   7   2  -2   -0.04    0.21
   7   2  -2    0.24    0.30
   7   2  -1    0.11    0.10
   7   2   0    2.90    0.94
   7   2   1    0.08    0.13
   7   2   2    1.05    0.69
   7   2   3    0.14    0.21
   7   2   4    0.33    0.37
   7   3 -11    0.72    0.58
   7   3 -10    0.96    0.50
   7   3 -10   -0.12    0.20
   7   3  -9    0.20    0.37
   7   3  -9   -0.21    0.30
   7   3  -8   -0.12    0.43
   7   3  -8   -0.24    0.33
   7   3  -7   10.95    1.72
   7   3  -7   10.60    1.72
   7   3  -6    1.24    0.49
   7   3  -6    0.77    0.51
   7   3  -6    1.73    0.68
   7   3  -5    9.83    1.42
   7   3  -5   11.43    1.77
   7   3  -5   10.28    1.67
   7   3  -4   74.61    4.86
   7   3  -4   73.41    5.07
   7   3  -4   68.83    4.93
   7   3  -3   70.46    4.84
   7   3  -3   70.63    4.98
   7   3  -2    3.81    1.02
   7   3  -2    4.00    0.98
   7   3  -1    8.02    1.57
   7   3  -1    8.38    1.42
   7   3   0    0.61    0.15
   7   3   1    1.08    0.69
   7   3   2   -0.05    0.19
   7   3   3    0.35    0.35
   7   4 -12    0.51    0.58
   7   4 -11    1.20    0.67
   7   4 -10   -0.39    0.45
   7   4 -10    0.40    0.19
   7   4 -10    0.45    0.54
   7   4  -9   -0.37    0.43
   7   4  -9    0.26    0.25
   7   4  -8    8.89    1.64
   7   4  -8   10.48    1.80
   7   4  -7    1.85    0.76
   7   4  -7    1.32    0.56
   7   4  -6    0.58    0.26
   7   4  -6    0.16    0.16
   7   4  -6    0.40    0.37
   7   4  -6    0.44    0.32
   7   4  -5   19.40    2.18
   7   4  -5   17.70    2.23
   7   4  -5   17.83    2.32
   7   4  -4    0.56    0.33
   7   4  -4    1.03    0.48
   7   4  -4    1.40    0.61
   7   4  -3   14.73    2.00
   7   4  -3   14.42    1.98
   7   4  -2   10.19    1.76
   7   4  -2    9.12    1.51
   7   4  -1    0.15    0.31
   7   4  -1    0.45    0.41
   7   4   0    6.10    1.55
   7   4   0    3.28    0.88
   7   4   1    2.49    1.10
   7   4   2    0.64    0.82
   7   5 -11   -0.07    0.08
   7   5 -11   -0.24    0.34
   7   5 -10    0.37    0.31
   7   5 -10    0.57    0.51
   7   5  -9    1.86    0.85
   7   5  -9    1.03    0.59
   7   5  -8    1.30    0.67
   7   5  -8    0.75    0.32
   7   5  -7    3.43    1.09
   7   5  -7    3.50    1.05
   7   5  -6    0.33    0.26
   7   5  -6    0.09    0.18
   7   5  -6    0.53    0.52
   7   5  -5    0.13    0.18
   7   5  -5   -0.16    0.22
   7   5  -5    0.28    0.28
   7   5  -4    6.95    1.46
   7   5  -4    7.16    1.39
   7   5  -4    6.40    1.30
   7   5  -3    3.21    0.96
   7   5  -3    2.01    0.68
   7   5  -3    2.12    0.74
   7   5  -2    5.96    1.45
   7   5  -2    4.08    1.04
   7   5  -1    0.01    0.02
   7   5   0    3.33    1.18
   7   5   1   -0.50    0.59
   7   6 -12    0.59    0.52
   7   6 -11    0.32    0.45
   7   6 -11   -0.03    0.07
   7   6 -10    0.21    0.45
   7   6 -10   -0.23    0.43
   7   6  -9    0.63    0.47
   7   6  -9    0.99    0.62
   7   6  -8    0.24    0.41
   7   6  -8    0.61    0.66
   7   6  -7    0.83    0.55
   7   6  -6    0.87    0.54
   7   6  -5    1.22    0.55
   7   6  -5    1.32    0.66
   7   6  -5    0.68    0.46
   7   6  -4    2.46    0.91
   7   6  -4    1.55    0.68
   7   6  -4    2.29    0.81
   7   6  -3    0.04    0.27
   7   6  -3    0.40    0.36
   7   6  -2    7.26    1.63
   7   6  -1    3.97    1.31
   7   6   0   -0.34    0.43
   7   7 -11    0.01    0.15
   7   7 -11    0.74    0.58
   7   7 -10    1.70    0.82
   7   7 -10    0.56    0.51
   7   7  -9   -0.16    0.30
   7   7  -9    0.04    0.04
   7   7  -8    0.22    0.43
   7   7  -7    1.25    0.62
   7   7  -6    0.63    0.61
   7   7  -5    1.24    0.71
   7   7  -5    0.72    0.46
   7   7  -4    8.89    1.86
   7   7  -4    7.88    1.56
   7   7  -3    0.38    0.20
   7   7  -3    0.72    0.47
   7   7  -2    0.01    0.08
   7   7  -1    3.39    1.19
   7   8 -10    0.71    0.53
   7   8 -10    1.39    0.80
   7   8  -9    0.08    0.27
   7   8  -8    1.57    0.81
   7   8  -7   -0.05    0.16
   7   8  -6    0.61    0.48
   7   8  -5    0.89    0.49
   7   8  -4    0.32    0.42
   7   8  -4   -0.19    0.32
   7   8  -3    0.32    0.39
   7   8  -2    0.67    0.58
   7   9  -8    1.14    0.70
   7   9  -7   -0.06    0.09
   7   9  -6    0.26    0.56
   7   9  -5   -0.30    0.58
   7   9  -4    0.25    0.55
   7   9  -3    0.42    0.45
   8  -9  -2   -0.24    0.25
   8  -9  -1    0.50    0.50
   8  -9   0    0.01    0.38
   8  -9   1    0.62    0.47
   8  -8  -4   -0.46    0.33
   8  -8  -3    0.24    0.41
   8  -8  -2    0.14    0.28
   8  -8  -1   -0.03    0.11
   8  -8   0    0.02    0.22
   8  -8   0    0.20    0.24
   8  -8   1    0.37    0.48
   8  -8   2    0.28    0.30
   8  -8   3    0.11    0.03
   8  -7  -6    0.16    0.35
   8  -7  -5    0.54    0.46
   8  -7  -4   -0.26    0.34
   8  -7  -3    0.16    0.24
   8  -7  -2    0.48    0.38
   8  -7  -2    0.05    0.13
   8  -7  -1    0.34    0.39
   8  -7  -1    0.00    0.39
   8  -7   0    0.59    0.64
   8  -7   1    0.55    0.53
   8  -7   2    0.30    0.24
   8  -7   3    0.11    0.16
   8  -7   4    0.63    0.45
   8  -6  -7    0.26    0.29
   8  -6  -6    0.25    0.36
   8  -6  -5   -0.09    0.16
   8  -6  -4    5.96    1.33
   8  -6  -4    4.18    1.04
   8  -6  -3   -0.50    0.37
   8  -6  -3    0.18    0.37
   8  -6  -2    0.87    0.52
   8  -6  -2    1.29    0.68
   8  -6  -1    0.96    0.78
   8  -6  -1    0.45    0.33
   8  -6   0    0.38    0.04
   8  -6   1    1.31    0.63
   8  -6   2   -0.07    0.40
   8  -6   3    0.01    0.20
   8  -6   4    0.14    0.32
   8  -5  -8    0.14    0.21
   8  -5  -7    0.38    0.54
   8  -5  -6   -0.13    0.27
   8  -5  -6    0.23    0.23
   8  -5  -5    6.22    1.20
   8  -5  -5    6.16    1.28
   8  -5  -5    9.82    1.67
   8  -5  -4   18.64    2.30
   8  -5  -4   16.01    2.13
   8  -5  -3    1.44    0.68
   8  -5  -3    1.47    0.60
   8  -5  -2    3.86    1.01
   8  -5  -2    3.23    1.03
   8  -5  -1    8.70    1.66
   8  -5  -1    9.34    1.69
   8  -5   0    0.31    0.34
   8  -5   1   -0.02    0.37
   8  -5   2    1.58    0.75
   8  -5   3    0.20    0.40
   8  -5   4   -0.43    0.50
   8  -4  -9    3.90    1.16
   8  -4  -8    4.06    1.16
   8  -4  -7    0.06    0.24
   8  -4  -7    0.24    0.29
   8  -4  -6    6.48    1.28
   8  -4  -6    6.69    1.39
   8  -4  -6    7.66    1.45
   8  -4  -5   22.48    2.43
   8  -4  -5   17.92    2.27
   8  -4  -5   18.31    2.09
   8  -4  -4    4.06    0.85
   8  -4  -4    4.01    0.99
   8  -4  -4    5.63    1.23
   8  -4  -3    1.11    0.51
   8  -4  -3    0.62    0.37
   8  -4  -2    0.12    0.14
   8  -4  -2    0.30    0.28
   8  -4  -1    0.27    0.36
   8  -4   0    2.02    0.74
   8  -4   1    0.18    0.28
   8  -4   2    0.24    0.29
   8  -4   3    0.18    0.46
   8  -4   4   -0.12    0.24
   8  -3  -9    1.19    0.99
   8  -3  -9   -0.46    0.37
   8  -3  -8   -0.31    0.15
   8  -3  -8    0.15    0.17
   8  -3  -7    0.74    0.31
   8  -3  -7    0.61    0.49
   8  -3  -6    1.17    0.64
   8  -3  -6    2.14    0.80
   8  -3  -6    1.25    0.52
   8  -3  -5    1.74    0.62
   8  -3  -5    2.11    0.80
   8  -3  -5    2.17    0.67
   8  -3  -4    4.40    0.90
   8  -3  -4    4.80    0.98
   8  -3  -4    5.72    1.26
   8  -3  -3    3.22    0.85
   8  -3  -3    1.83    0.71
   8  -3  -2    0.02    0.04
   8  -3  -2    0.25    0.44
   8  -3  -1    2.00    0.68
   8  -3   0    1.36    0.61
   8  -3   1    0.11    0.29
   8  -3   2    1.34    0.66
   8  -3   3   -0.26    0.42
   8  -3   3    0.18    0.52
   8  -3   4    0.54    0.44
   8  -3   4    0.80    0.58
   8  -3   5   -0.44    0.60
   8  -2 -10    1.55    0.70
   8  -2  -9   -0.38    0.22
   8  -2  -8    0.06    0.19
   8  -2  -8   -0.03    0.05
   8  -2  -7    0.41    0.20
   8  -2  -7    0.21    0.07
   8  -2  -7    0.37    0.34
   8  -2  -7    0.53    0.34
   8  -2  -6    2.93    0.67
   8  -2  -6    2.23    0.69
   8  -2  -6    3.61    1.03
   8  -2  -6    3.00    0.85
   8  -2  -5   -0.22    0.22
   8  -2  -5    0.02    0.09
   8  -2  -5   -0.06    0.23
   8  -2  -5    0.05    0.35
   8  -2  -4    2.15    0.60
   8  -2  -4    2.86    0.92
   8  -2  -3    1.92    0.61
   8  -2  -3    1.70    0.77
   8  -2  -2    0.35    0.17
   8  -2  -2   -0.22    0.23
   8  -2  -1    0.76    0.42
   8  -2   0    0.82    0.63
   8  -2   0    0.90    0.52
   8  -2   1    2.69    0.91
   8  -2   1    1.79    0.82
   8  -2   2    0.27    0.25
   8  -2   2   -0.05    0.29
   8  -2   3    1.20    0.66
   8  -2   3    0.97    0.67
   8  -2   4    0.70    0.57
   8  -2   4    0.07    0.22
   8  -2   5   -0.03    0.37
   8  -1 -10    0.40    0.43
   8  -1  -9    2.62    1.01
   8  -1  -8    0.36    0.34
   8  -1  -7    2.10    0.81
   8  -1  -7    1.38    0.49
   8  -1  -7    1.87    0.58
   8  -1  -7    2.51    0.85
   8  -1  -6    1.06    0.42
   8  -1  -6    1.31    0.48
   8  -1  -6    0.98    0.39
   8  -1  -6    0.79    0.40
   8  -1  -5    3.91    0.79
   8  -1  -5    2.57    0.74
   8  -1  -5    3.11    0.71
   8  -1  -5    2.78    0.87
   8  -1  -4   23.42    2.13
   8  -1  -4   23.83    2.74
   8  -1  -3    0.35    0.20
   8  -1  -3    0.64    0.31
   8  -1  -2    1.82    0.57
   8  -1  -2    1.80    0.80
   8  -1  -1   28.81    2.98
   8  -1  -1   24.31    2.49
   8  -1   0    0.72    0.36
   8  -1   0    1.24    0.64
   8  -1   1    7.81    1.55
   8  -1   1    7.52    1.61
   8  -1   2    1.56    0.63
   8  -1   2    2.50    1.10
   8  -1   3    0.36    0.21
   8  -1   4    0.37    0.51
   8   0 -11   -0.03    0.24
   8   0 -10    0.18    0.18
   8   0  -9    2.23    0.83
   8   0  -8    0.28    0.33
   8   0  -8    0.76    0.49
   8   0  -7    2.54    0.77
   8   0  -7    2.52    0.71
   8   0  -7    3.46    1.03
   8   0  -6   19.15    2.21
   8   0  -6   17.49    1.96
   8   0  -6   18.48    2.34
   8   0  -5    0.57    0.57
   8   0  -4    0.33    0.25
   8   0  -4    0.01    0.19
   8   0  -3   -0.03    0.07
   8   0  -3   -0.19    0.23
   8   0  -2   10.80    1.70
   8   0  -2   10.98    1.42
   8   0  -2   10.94    1.77
   8   0  -1   14.89    2.11
   8   0  -1   14.44    1.81
   8   0   0    0.43    0.36
   8   0   0    0.88    0.57
   8   0   1    2.92    0.98
   8   0   1    4.27    1.22
   8   0   2   -0.19    0.39
   8   0   3    0.06    0.37
   8   0   4   -0.05    0.23
   8   1 -11    0.67    0.50
   8   1 -10    0.61    0.50
   8   1  -9    0.49    0.35
   8   1  -9    0.98    0.71
   8   1  -8    1.18    0.55
   8   1  -8    2.61    0.82
   8   1  -7    0.47    0.30
   8   1  -7    0.50    0.49
   8   1  -7    1.55    0.71
   8   1  -6    8.32    1.36
   8   1  -6    9.17    1.62
   8   1  -5   -0.16    0.20
   8   1  -4    0.13    0.30
   8   1  -4    0.25    0.22
   8   1  -3   70.63    5.00
   8   1  -3   79.07    5.55
   8   1  -2   40.64    3.59
   8   1  -2   38.46    3.60
   8   1  -1    1.71    0.60
   8   1  -1    2.68    0.93
   8   1   0    0.26    0.35
   8   1   0    0.36    0.62
   8   1   1    1.94    0.79
   8   1   2    1.61    0.79
   8   1   3    0.31    0.54
   8   2 -11    1.69    0.85
   8   2 -10    5.06    1.31
   8   2 -10    3.53    1.02
   8   2  -9   -0.03    0.25
   8   2  -9    0.17    0.28
   8   2  -9    0.17    0.23
   8   2  -8   -0.14    0.28
   8   2  -8    0.11    0.17
   8   2  -7   27.96    2.85
   8   2  -7   30.95    3.25
   8   2  -7   26.98    2.83
   8   2  -6    4.96    1.15
   8   2  -6    6.35    1.30
   8   2  -6    4.22    1.09
   8   2  -5    0.03    0.34
   8   2  -4   22.92    2.50
   8   2  -4   25.37    2.84
   8   2  -3    7.78    1.45
   8   2  -3    8.95    1.64
   8   2  -2   14.26    2.07
   8   2  -2   16.69    2.20
   8   2  -1    1.06    0.52
   8   2  -1    2.17    0.87
   8   2   0   -0.28    0.12
   8   2   1    0.86    0.39
   8   2   2    0.42    0.52
   8   3 -11    2.00    0.78
   8   3 -11    3.60    1.18
   8   3 -10    1.90    0.85
   8   3 -10    1.28    0.60
   8   3 -10    0.76    0.51
   8   3  -9    2.97    0.95
   8   3  -9    1.83    0.78
   8   3  -8    1.02    0.68
   8   3  -8    1.86    0.74
   8   3  -7   -0.21    0.46
   8   3  -7    0.44    0.33
   8   3  -7    0.16    0.08
   8   3  -6    4.83    1.17
   8   3  -6    5.31    1.23
   8   3  -5    0.67    0.59
   8   3  -5    0.45    0.25
   8   3  -5    0.60    0.42
   8   3  -4    1.09    0.59
   8   3  -4    0.85    0.43
   8   3  -3    5.96    1.25
   8   3  -3    5.49    1.27
   8   3  -2    5.13    1.27
   8   3  -2    5.13    1.18
   8   3  -1    1.61    0.82
   8   3  -1    0.54    0.47
   8   3   0    0.05    0.02
   8   3   0    0.24    0.31
   8   3   1   -0.25    0.46
   8   3   2   -0.28    0.42
   8   4 -11    2.74    1.04
   8   4 -11    2.43    0.91
   8   4 -10    0.52    0.20
   8   4 -10    1.23    0.67
   8   4  -9    0.26    0.39
   8   4  -9    0.48    0.46
   8   4  -8    2.12    0.82
   8   4  -8    2.30    0.91
   8   4  -7    0.08    0.22
   8   4  -7   -0.18    0.21
   8   4  -7    0.40    0.29
   8   4  -6    0.61    0.40
   8   4  -6    0.50    0.38
   8   4  -6    0.43    0.44
   8   4  -5    1.16    0.68
   8   4  -5    0.75    0.41
   8   4  -5    1.12    0.59
   8   4  -4    1.12    0.58
   8   4  -4    0.55    0.44
   8   4  -3    4.00    1.12
   8   4  -3    3.51    0.98
   8   4  -2    0.93    0.56
   8   4  -2   -0.02    0.14
   8   4  -1    8.81    1.79
   8   4  -1    3.59    1.02
   8   4   0    0.01    0.25
   8   4   1    0.54    0.61
   8   5 -11    0.91    0.60
   8   5 -11   -0.07    0.20
   8   5 -10    0.71    0.52
   8   5 -10    0.40    0.35
   8   5  -9    2.60    0.90
   8   5  -9    2.58    0.92
   8   5  -8    1.20    0.50
   8   5  -8   -0.04    0.23
   8   5  -7   -0.12    0.29
   8   5  -6   -0.14    0.13
   8   5  -6    0.60    0.57
   8   5  -6    0.24    0.26
   8   5  -5    2.36    0.89
   8   5  -5    1.20    0.59
   8   5  -5    1.34    0.64
   8   5  -4    0.43    0.29
   8   5  -4    1.58    0.71
   8   5  -3    3.80    1.21
   8   5  -3    1.98    0.74
   8   5  -2    1.11    0.81
   8   5  -1   -0.14    0.28
   8   5   0    2.44    1.12
   8   6 -11    2.95    1.12
   8   6 -11    1.53    0.85
   8   6 -10    1.00    0.57
   8   6 -10    0.27    0.46
   8   6  -9   -0.16    0.31
   8   6  -9    0.08    0.35
   8   6  -8    1.18    0.56
   8   6  -7    3.83    1.18
   8   6  -6    0.71    0.60
   8   6  -6   -0.05    0.24
   8   6  -5    0.14    0.08
   8   6  -5    0.09    0.22
   8   6  -5   -0.17    0.22
   8   6  -4    3.86    1.08
   8   6  -3    0.17    0.05
   8   6  -2    0.70    0.56
   8   6  -1    0.14    0.17
   8   7 -10    0.49    0.22
   8   7 -10    0.36    0.39
   8   7  -9    0.07    0.19
   8   7  -8   -0.08    0.20
   8   7  -7    1.38    0.69
   8   7  -6   -0.02    0.24
   8   7  -5    1.61    0.76
   8   7  -5    1.55    0.65
   8   7  -4    0.54    0.46
   8   7  -3    0.25    0.44
   8   7  -2    0.61    0.30
   8   8  -9    0.98    0.74
   8   8  -8    1.91    0.93
   8   8  -7    0.29    0.48
   8   8  -6    0.38    0.20
   8   8  -5    0.50    0.49
   8   8  -4    0.30    0.23
   8   8  -3   -0.19    0.41
   9  -8  -3    0.67    0.49
   9  -8  -2    0.16    0.36
   9  -8  -1   -0.03    0.26
   9  -8   0   -0.80    0.64
   9  -8   0    0.10    0.18
   9  -8   1   -0.16    0.24
   9  -7  -5    0.14    0.33
   9  -7  -4    1.56    0.64
   9  -7  -3    3.15    1.06
   9  -7  -2   -0.10    0.19
   9  -7  -2    0.19    0.26
   9  -7  -1    0.31    0.30
   9  -7  -1    0.21    0.32
   9  -7   0    1.16    0.68
   9  -7   0    1.36    0.69
   9  -7   1    0.08    0.37
   9  -7   2    0.12    0.35
   9  -6  -7    0.60    0.51
   9  -6  -6   -0.27    0.30
   9  -6  -5    2.68    0.99
   9  -6  -4    4.30    1.16
   9  -6  -4    4.02    1.10
   9  -6  -3    0.58    0.48
   9  -6  -3    0.34    0.25
   9  -6  -2    0.54    0.37
   9  -6  -2    0.43    0.34
   9  -6  -1    0.15    0.21
   9  -6  -1   -0.06    0.27
   9  -6   0    0.09    0.20
   9  -6   1    0.19    0.38
   9  -6   2   -0.05    0.07
   9  -6   3   -0.47    0.54
   9  -5  -8    0.27    0.43
   9  -5  -7   -0.07    0.15
   9  -5  -6    0.01    0.07
   9  -5  -6    0.36    0.34
   9  -5  -5    1.70    0.76
   9  -5  -5    0.55    0.46
   9  -5  -4    0.68    0.47
   9  -5  -4    0.89    0.57
   9  -5  -3   -0.39    0.33
   9  -5  -3    0.37    0.21
   9  -5  -2    0.51    0.46
   9  -5  -2    0.58    0.53
   9  -5  -1   -0.21    0.18
   9  -5  -1   -0.04    0.32
   9  -5   0   -0.07    0.28
   9  -5   1    0.12    0.21
   9  -5   2    0.45    0.54
   9  -5   3    0.53    0.58
   9  -4  -9    2.07    0.85
   9  -4  -8   -0.02    0.26
   9  -4  -8    0.18    0.28
   9  -4  -7   -0.17    0.06
   9  -4  -7    0.04    0.22
   9  -4  -6    1.77    0.69
   9  -4  -6    1.76    0.72
   9  -4  -6    1.82    0.66
   9  -4  -5   10.49    1.68
   9  -4  -5   10.27    1.80
   9  -4  -4   -0.07    0.28
   9  -4  -4   -0.24    0.39
   9  -4  -3   -0.05    0.19
   9  -4  -3    0.06    0.07
   9  -4  -2    0.50    0.43
   9  -4  -2    0.04    0.13
   9  -4  -1    0.35    0.40
   9  -4  -1    0.80    0.55
   9  -4   0    0.08    0.11
   9  -4   1    0.22    0.36
   9  -4   2    0.24    0.41
   9  -4   3    0.08    0.28
   9  -3  -9    0.09    0.30
   9  -3  -8    0.37    0.34
   9  -3  -7    0.36    0.40
   9  -3  -7    0.37    0.39
   9  -3  -7    0.88    0.55
   9  -3  -6    0.74    0.44
   9  -3  -6    0.76    0.41
   9  -3  -6    1.44    0.66
   9  -3  -5    0.28    0.22
   9  -3  -5    0.83    0.38
   9  -3  -5    1.18    0.60
   9  -3  -4    7.61    1.41
   9  -3  -4    6.70    1.48
   9  -3  -3    4.14    1.07
   9  -3  -3    5.64    1.37
   9  -3  -2   -0.13    0.03
   9  -3  -2   -0.12    0.31
   9  -3  -1   -0.17    0.26
   9  -3   0    2.38    0.90
   9  -3   1    0.73    0.57
   9  -3   2    1.52    0.74
   9  -3   3   -0.11    0.20
   9  -2 -10    0.22    0.08
   9  -2  -9    0.22    0.25
   9  -2  -8    0.18    0.20
   9  -2  -7    0.75    0.51
   9  -2  -7    0.37    0.35
   9  -2  -6    1.12    0.50
   9  -2  -6    1.75    0.72
   9  -2  -5    6.16    1.11
   9  -2  -5    7.20    1.52
   9  -2  -4    1.37    0.55
   9  -2  -4    0.87    0.64
   9  -2  -3    1.52    0.54
   9  -2  -3    1.69    0.78
   9  -2  -2    1.12    0.56
   9  -2  -2    0.46    0.25
   9  -2  -1    0.29    0.36
   9  -2   0    7.43    1.43
   9  -2   1   -0.18    0.25
   9  -2   1    0.19    0.27
   9  -2   2    1.40    0.74
   9  -2   2    2.00    0.94
   9  -2   3   -0.12    0.11
   9  -2   3    0.01    0.26
   9  -1 -10    0.07    0.29
   9  -1  -9    1.14    0.59
   9  -1  -8    0.07    0.27
   9  -1  -7    0.88    0.38
   9  -1  -7    1.00    0.43
   9  -1  -7    0.94    0.52
   9  -1  -6    0.00    0.13
   9  -1  -6    0.07    0.34
   9  -1  -5   11.31    1.94
   9  -1  -4    1.15    0.63
   9  -1  -3    3.25    0.79
   9  -1  -3    4.48    1.21
   9  -1  -2   29.33    2.70
   9  -1  -2   32.37    3.34
   9  -1  -1    7.81    1.62
   9  -1  -1    8.63    1.44
   9  -1   0    0.05    0.19
   9  -1   0   -0.15    0.26
   9  -1   1    0.26    0.32
   9  -1   1   -0.45    0.39
   9  -1   2    0.25    0.33
   9  -1   2    0.04    0.40
   9  -1   3   -0.12    0.30
   9  -1   3   -0.14    0.19
   9   0 -10    0.86    0.53
   9   0 -10    0.49    0.36
   9   0  -9    1.05    0.53
   9   0  -9    2.17    0.76
   9   0  -8    0.30    0.34
   9   0  -8    0.45    0.47
   9   0  -7   -0.22    0.27
   9   0  -7    0.20    0.19
   9   0  -6   27.20    3.08
   9   0  -5    1.67    0.70
   9   0  -4    0.20    0.41
   9   0  -3    6.93    1.60
   9   0  -2   13.43    2.03
   9   0  -2   11.26    1.91
   9   0  -1    5.21    1.33
   9   0   0    0.08    0.13
   9   0   1    0.00    0.11
   9   0   1   -0.11    0.33
   9   0   2   -0.18    0.25
   9   0   2    0.55    0.62
   9   0   3    0.06    0.43
   9   1 -11   -0.11    0.17
   9   1 -11    0.00    0.38
   9   1 -10    1.56    0.69
   9   1 -10    4.00    1.28
   9   1  -9    2.75    0.85
   9   1  -9    3.47    1.02
   9   1  -8    1.25    0.57
   9   1  -8    0.57    0.18
   9   1  -7    0.50    0.27
   9   1  -7    0.54    0.42
   9   1  -6    0.22    0.34
   9   1  -5    2.43    0.90
   9   1  -4   -0.03    0.26
   9   1  -3    5.19    1.23
   9   1  -3    6.18    1.43
   9   1  -2   -0.26    0.48
   9   1  -2   -0.18    0.38
   9   1  -1    2.41    0.83
   9   1  -1    4.51    1.28
   9   1   0   -0.49    0.51
   9   1   1   -0.44    0.55
   9   1   2   -0.26    0.40
   9   2 -11    0.38    0.46
   9   2 -11    0.27    0.32
   9   2 -10    1.74    0.73
   9   2 -10    3.00    1.06
   9   2  -9    0.43    0.43
   9   2  -8   -0.18    0.25
   9   2  -8    0.01    0.30
   9   2  -7    0.51    0.36
   9   2  -7    0.79    0.54
   9   2  -6    0.64    0.45
   9   2  -5    2.60    0.94
   9   2  -4    0.66    0.50
   9   2  -4    0.18    0.23
   9   2  -3    3.47    1.02
   9   2  -3    3.33    1.03
   9   2  -2    3.98    1.15
   9   2  -2    2.71    0.87
   9   2  -1   -0.04    0.32
   9   2  -1    0.05    0.09
   9   2   0    2.07    0.80
   9   2   0    3.14    1.14
   9   2   1    0.86    0.75
   9   3 -11   -0.09    0.26
   9   3 -10   -0.19    0.19
   9   3 -10   -0.01    0.22
   9   3  -9    0.63    0.43
   9   3  -9   -0.27    0.40
   9   3  -8    0.62    0.46
   9   3  -8    0.13    0.09
   9   3  -7    4.82    1.28
   9   3  -7    5.72    1.41
   9   3  -6   -0.08    0.35
   9   3  -5    0.21    0.08
   9   3  -5    0.10    0.13
   9   3  -4    0.43    0.44
   9   3  -4    0.75    0.53
   9   3  -3    0.15    0.34
   9   3  -3    0.01    0.18
   9   3  -2    0.70    0.50
   9   3  -2    0.57    0.50
   9   3  -1    1.37    0.80
   9   3  -1    0.16    0.12
   9   3   0    1.22    0.83
   9   3   0    0.28    0.16
   9   4 -11    0.08    0.39
   9   4 -11    0.48    0.45
   9   4 -10    0.72    0.47
   9   4 -10    0.71    0.59
   9   4  -9   -0.14    0.16
   9   4  -9    0.47    0.50
   9   4  -8    0.99    0.66
   9   4  -8    0.05    0.16
   9   4  -7    1.47    0.67
   9   4  -7    1.42    0.71
   9   4  -6    5.33    1.23
   9   4  -6    5.64    1.42
   9   4  -5    2.83    0.89
   9   4  -5    2.34    0.84
   9   4  -4    1.00    0.61
   9   4  -4    0.80    0.56
   9   4  -3    1.85    0.78
   9   4  -3    1.98    0.78
   9   4  -2    0.24    0.38
   9   4  -2   -0.04    0.21
   9   4  -1   -0.36    0.55
   9   5 -11    1.15    0.70
   9   5 -10    2.28    0.90
   9   5 -10    1.96    0.92
   9   5  -9   -0.09    0.26
   9   5  -9   -0.02    0.34
   9   5  -8    0.91    0.73
   9   5  -7    1.49    0.78
   9   5  -7    0.35    0.30
   9   5  -6    0.97    0.45
   9   5  -6    0.12    0.26
   9   5  -5    0.45    0.46
   9   5  -5   -0.02    0.15
   9   5  -4    2.55    0.90
   9   5  -4    1.34    0.64
   9   5  -3    2.76    1.00
   9   5  -2    0.11    0.11
   9   6 -10    2.57    1.02
   9   6 -10    2.87    1.08
   9   6  -9    0.30    0.49
   9   6  -8    1.43    0.81
   9   6  -7    3.16    1.05
   9   6  -6    0.68    0.66
   9   6  -6    0.02    0.16
   9   6  -5   -0.29    0.36
   9   6  -4    0.71    0.43
   9   6  -3    0.23    0.31
   9   7  -8    1.16    0.72
   9   7  -7    0.11    0.03
   9   7  -6   -0.01    0.10
   9   7  -4    0.20    0.35
  10  -8   0   -0.04    0.31
  10  -7  -4    0.19    0.27
  10  -7  -3    0.42    0.37
  10  -7  -2   -0.55    0.44
  10  -7  -2    0.15    0.21
  10  -7  -1    0.12    0.45
  10  -7  -1    0.41    0.41
  10  -7   0   -0.39    0.47
  10  -7   0    0.06    0.13
  10  -6  -6   -0.53    0.48
  10  -6  -5    1.44    0.72
  10  -6  -5    1.33    0.68
  10  -6  -4    1.60    0.77
  10  -6  -4    2.46    0.93
  10  -6  -3    0.31    0.42
  10  -6  -3   -0.58    0.60
  10  -6  -2    0.06    0.08
  10  -6  -2    0.12    0.19
  10  -6  -1    0.23    0.34
  10  -6  -1    0.55    0.45
  10  -6   0    0.31    0.15
  10  -6   0    0.11    0.19
  10  -6   1   -0.38    0.36
  10  -5  -7   -0.43    0.38
  10  -5  -6   -0.12    0.34
  10  -5  -6    0.15    0.30
  10  -5  -5   -0.50    0.38
  10  -5  -5    0.15    0.06
  10  -5  -4    0.00    0.24
  10  -5  -4    0.11    0.14
  10  -5  -3    1.50    0.71
  10  -5  -3    1.69    0.84
  10  -5  -2    1.11    0.69
  10  -5  -2    0.49    0.34
  10  -5  -1    0.23    0.18
  10  -5  -1    0.16    0.35
  10  -5   0    0.08    0.24
  10  -5   1    0.16    0.20
  10  -4  -7    0.08    0.15
  10  -4  -6    0.08    0.22
  10  -4  -6    0.05    0.13
  10  -4  -5    0.07    0.18
  10  -4  -5    0.14    0.09
  10  -4  -4    1.11    0.57
  10  -4  -4    2.14    0.88
  10  -4  -3   -0.11    0.40
  10  -4  -3    0.00    0.24
  10  -4  -2    0.79    0.39
  10  -4  -2    1.51    0.77
  10  -4  -1    0.08    0.13
  10  -4  -1   -0.14    0.33
  10  -4   0    0.35    0.52
  10  -4   1    0.49    0.40
  10  -4   2   -0.01    0.13
  10  -3  -9   -0.11    0.22
  10  -3  -8   -0.65    0.42
  10  -3  -7    0.39    0.37
  10  -3  -7   -0.09    0.10
  10  -3  -6   -0.31    0.45
  10  -3  -5   -0.43    0.42
  10  -3  -4    4.25    1.06
  10  -3  -4    4.84    1.30
  10  -3  -3    0.10    0.09
  10  -3  -3   -0.19    0.41
  10  -3  -2    1.92    0.71
  10  -3  -2    1.17    0.60
  10  -3  -1    5.49    1.34
  10  -3  -1    2.70    0.88
  10  -3   0    0.71    0.45
  10  -3   1   -0.02    0.03
  10  -3   2    0.17    0.12
  10  -2  -9    0.55    0.43
  10  -2  -8    0.20    0.33
  10  -2  -8    0.38    0.37
  10  -2  -7    0.16    0.32
  10  -2  -7    0.08    0.29
  10  -2  -6    0.28    0.34
  10  -2  -5    5.31    1.37
  10  -2  -4   -0.12    0.32
  10  -2  -3   -0.05    0.25
  10  -2  -2    1.92    0.85
  10  -2  -1    3.00    1.04
  10  -2  -1    2.42    0.77
  10  -2   0   -0.05    0.16
  10  -2   1   -0.13    0.17
  10  -2   2    0.03    0.15
  10  -1 -10   -0.06    0.34
  10  -1  -9    1.41    0.65
  10  -1  -8    1.93    0.95
  10  -1  -8    0.19    0.05
  10  -1  -7    0.21    0.39
  10  -1  -6    0.50    0.43
  10  -1  -5    0.27    0.34
  10  -1  -4    0.25    0.03
  10  -1  -3   -0.45    0.60
  10  -1  -2    8.10    1.70
  10  -1  -1    0.28    0.16
  10  -1   0    1.56    0.87
  10  -1   1    0.07    0.18
  10   0 -10   -0.05    0.19
  10   0  -9    1.97    0.77
  10   0  -8    0.03    0.31
  10   0  -7    0.07    0.30
  10   0  -6    1.42    0.76
  10   0  -5    0.50    0.49
  10   0  -4    0.51    0.63
  10   0  -3    3.31    1.09
  10   0  -2    3.56    1.10
  10   0  -2    2.13    0.84
  10   0  -1    1.79    0.81
  10   0  -1    4.16    1.23
  10   0   0   -0.04    0.05
  10   1 -11    0.25    0.25
  10   1 -10    1.14    0.61
  10   1  -9   -0.03    0.12
  10   1  -8   -0.10    0.16
  10   1  -8   -0.29    0.41
  10   1  -7   -0.26    0.33
  10   1  -6    6.21    1.47
  10   1  -5    0.15    0.39
  10   1  -4    0.03    0.31
  10   1  -3   -0.13    0.19
  10   1  -3   -0.20    0.49
  10   1  -2    1.91    0.74
  10   1  -2    1.02    0.59
  10   1  -1    0.33    0.26
  10   1  -1    0.97    0.54
  10   1   0    0.38    0.45
  10   1   0    0.10    0.20
  10   2 -11    0.51    0.45
  10   2 -10    0.04    0.24
  10   2  -9    0.50    0.58
  10   2  -8   -0.07    0.04
  10   2  -7    0.73    0.54
  10   2  -6    0.51    0.13
  10   2  -5    0.98    0.60
  10   2  -4    0.54    0.48
  10   2  -4    1.17    0.73
  10   2  -3    0.06    0.24
  10   2  -3    0.01    0.19
  10   2  -2    0.32    0.28
  10   2  -2    0.40    0.42
  10   2  -1    1.39    0.64
  10   2  -1    1.09    0.56
  10   2   0   -0.15    0.17
  10   3 -10    1.11    0.64
  10   3  -9    0.50    0.42
  10   3  -8    1.48    0.77
  10   3  -7    1.27    0.73
  10   3  -6    0.78    0.54
  10   3  -5    0.30    0.31
  10   3  -5    0.21    0.39
  10   3  -4    1.05    0.62
  10   3  -4    1.23    0.70
  10   3  -3    3.14    1.02
  10   3  -3    2.12    0.87
  10   3  -2   -0.20    0.34
  10   3  -2    0.03    0.05
  10   3  -1    0.46    0.47
  10   3  -1   -0.13    0.24
  10   4 -10    3.80    1.22
  10   4 -10    2.25    0.98
  10   4  -9    1.90    0.81
  10   4  -8    0.01    0.18
  10   4  -7    0.76    0.55
  10   4  -6    1.18    0.65
  10   4  -6    1.31    0.66
  10   4  -5    0.04    0.23
  10   4  -5    0.95    0.63
  10   4  -4    0.38    0.30
  10   4  -4    0.14    0.27
  10   4  -3    0.84    0.45
  10   4  -3    0.88    0.58
  10   4  -2    0.77    0.59
  10   4  -2    0.34    0.42
  10   5 -10    4.03    1.25
  10   5  -9    0.34    0.48
  10   5  -8    0.32    0.28
  10   5  -7    3.54    1.19
  10   5  -6    0.31    0.43
  10   5  -5    0.27    0.34
  10   5  -5    0.18    0.33
  10   5  -4    0.58    0.56
  10   5  -4    0.26    0.34
  10   5  -3   -0.08    0.26
  10   6  -7    0.72    0.49
  10   6  -5   -0.04    0.14
  10   6  -4    1.17    0.61
  11  -6  -5   -0.02    0.22
  11  -6  -4    0.25    0.15
  11  -6  -4   -0.01    0.15
  11  -6  -3    0.00    0.17
  11  -6  -3    0.10    0.20
  11  -6  -2    0.37    0.45
  11  -6  -2   -0.21    0.34
  11  -5  -7   -0.03    0.28
  11  -5  -6   -0.25    0.43
  11  -5  -5    0.18    0.30
  11  -5  -4   -0.19    0.21
  11  -5  -4    0.05    0.28
  11  -5  -3    0.18    0.07
  11  -5  -3    0.14    0.42
  11  -5  -2    0.06    0.16
  11  -5  -2    0.19    0.42
  11  -5  -1    0.07    0.04
  11  -5  -1    0.11    0.19
  11  -5   0   -0.14    0.23
  11  -4  -7   -0.22    0.44
  11  -4  -6   -0.14    0.16
  11  -4  -5   -0.38    0.42
  11  -4  -4    0.56    0.46
  11  -4  -3    0.21    0.15
  11  -4  -2    0.09    0.07
  11  -4  -1    0.20    0.31
  11  -4  -1    0.22    0.35
  11  -4   0   -0.05    0.31
  11  -3  -8    0.13    0.47
  11  -3  -7    0.10    0.16
  11  -3  -6    0.39    0.40
  11  -3  -5   -0.26    0.43
  11  -3  -4   -0.21    0.32
  11  -3  -3   -0.26    0.55
  11  -3  -2    0.68    0.54
  11  -3  -1    1.95    0.83
  11  -2  -9   -0.30    0.36
  11  -2  -8    0.62    0.57
  11  -2  -7    0.09    0.21
  11  -2  -6    0.36    0.63
  11  -2  -5    3.76    1.22
  11  -2  -4   -0.28    0.43
  11  -2  -3    0.24    0.09
  11  -2  -2    0.53    0.34
  11  -2  -1    1.21    0.71
  11  -1  -8    0.36    0.43
  11  -1  -7   -0.03    0.25
  11  -1  -6   -0.05    0.12
  11  -1  -5    1.21    0.69
  11  -1  -4   -0.09    0.12
  11  -1  -3    0.29    0.26
  11  -1  -2    0.45    0.54
  11  -1  -1    0.38    0.36
  11   0  -8    0.98    0.67
  11   0  -7   -0.15    0.17
  11   0  -6    0.00    0.28
  11   0  -5   -0.01    0.36
  11   0  -4    0.32    0.47
  11   0  -3    0.16    0.29
  11   0  -2    0.31    0.39
  11   0  -1   -0.13    0.10
  11   1  -8   -0.04    0.21
  11   1  -7    1.13    0.63
  11   1  -6    0.13    0.29
  11   1  -5    0.02    0.22
  11   1  -4    0.21    0.35
  11   1  -3    1.96    0.82
  11   1  -3    0.95    0.66
  11   1  -2    0.33    0.18
  11   1  -2    0.33    0.41
  11   2 -10    0.20    0.25
  11   2  -8    1.34    0.71
  11   2  -7    0.38    0.34
  11   2  -6    1.16    0.78
  11   2  -5    0.30    0.41
  11   2  -4   -0.28    0.29
  11   2  -4    0.10    0.22
  11   2  -3    0.32    0.27
  11   2  -3    0.06    0.09
  11   2  -2    1.37    0.74
  11   3  -8    0.73    0.67
  11   3  -7    0.54    0.31
  11   3  -6    1.45    0.77
  11   3  -5   -0.05    0.15
  11   3  -5    0.03    0.17
  11   3  -4    0.08    0.09
  11   3  -4   -0.34    0.48
  11   3  -3    0.34    0.48
  11   4  -8    0.51    0.49
  11   4  -7    1.63    0.84
  11   4  -6    0.46    0.48
  11   4  -5    2.69    1.02
  11   4  -5    1.05    0.68
  11   4  -4   -0.02    0.22
  11   4  -4    0.01    0.09
  11   5  -7    0.86    0.72
  11   5  -6    0.45    0.45
  11   5  -5    0.35    0.31
   0   0   0    0.00    0.00
_computing_structure_solution     'SHELXT 2014/5 (Sheldrick, 2014)'
;
_shelx_hkl_checksum              62277
_shelx_res_file
;
TITL is186_a.res in P-1
    is186.res
    created by SHELXL-2016/6 at 14:49:14 on 19-Mar-2020
CELL 0.71073 8.4476 8.5662 8.6125 110.812 115.048 92.854
ZERR 2 0.001 0.0008 0.0008 0.009 0.011 0.009
LATT 1
SFAC C H N O
UNIT 20 22 10 2
L.S. 4
PLAN  20
BOND $H
list 4
fmap 2
ACTA
OMIT 0 50
conf
size 0.2 0.17 0.1
temp 20
htab n4 n2
eqiv $1 1-x,-y,1-z
htab n5 c8_$1
eqiv $2 1-x,1-y,1-z
htab n5 n1_$2
htab n5 n3
WGHT    0.085800
FVAR       0.81239
O1    4    0.667180    0.560033    0.905622    11.00000    0.08106    0.06258 =
         0.04381    0.00770    0.03125   -0.00213
N1    3    0.828854    0.686317    0.985315    11.00000    0.08352    0.06458 =
         0.04724    0.00310    0.02748   -0.01302
N2    3    0.771141    0.488327    0.701294    11.00000    0.05773    0.05105 =
         0.04130    0.00770    0.02048   -0.00149
N3    3    0.308331    0.051531    0.338535    11.00000    0.05473    0.05423 =
         0.05271    0.01016    0.02173    0.00040
N4    3    0.531788    0.226856    0.350125    11.00000    0.06524    0.05807 =
         0.04205    0.00353    0.02783   -0.00484
H4    2    0.636924    0.302470    0.409409    11.00000    0.08626
N5    3    0.494475    0.115669    0.166361    11.00000    0.07513    0.06595 =
         0.04531    0.00125    0.03178   -0.00409
H5NA  2    0.478520    0.004894    0.161641    11.00000    0.10574
H5NB  2    0.382164    0.124541    0.087783    11.00000    0.08872
C1    1    0.645316    0.448560    0.738030    11.00000    0.06125    0.04814 =
         0.03597    0.01084    0.01965    0.00696
C2    1    0.881732    0.634256    0.858076    11.00000    0.06490    0.05527 =
         0.04246    0.01188    0.01604   -0.00170
C3    1    1.047809    0.724305    0.881570    11.00000    0.07002    0.06092 =
         0.05324    0.01192    0.02011   -0.00941
AFIX  13
H3    2    1.115238    0.830316    0.996389    11.00000   -1.20000
AFIX   0
C4    1    1.053528    0.718416    0.708444    11.00000    0.07051    0.07506 =
         0.07031    0.03450    0.02646    0.00125
AFIX  23
H4A   2    0.946671    0.655610    0.588201    11.00000   -1.20000
H4B   2    1.120473    0.819869    0.718224    11.00000   -1.20000
AFIX   0
C5    1    1.156017    0.618830    0.806506    11.00000    0.05975    0.08017 =
         0.07834    0.03499    0.02315    0.00612
AFIX  23
H5A   2    1.285910    0.659122    0.876536    11.00000   -1.20000
H5B   2    1.112103    0.494859    0.746510    11.00000   -1.20000
AFIX   0
C6    1    0.492328    0.302004    0.628280    11.00000    0.05355    0.05089 =
         0.04425    0.01688    0.02097    0.00893
C7    1    0.391056    0.260669    0.704908    11.00000    0.06493    0.06484 =
         0.04786    0.02239    0.02992    0.01424
AFIX  43
H7    2    0.416969    0.330972    0.827516    11.00000   -1.20000
AFIX   0
C8    1    0.252363    0.116372    0.601057    11.00000    0.05600    0.06959 =
         0.06372    0.02901    0.02812    0.00494
AFIX  43
H8    2    0.183345    0.087335    0.651314    11.00000   -1.20000
AFIX   0
C9    1    0.218656    0.016175    0.420593    11.00000    0.05895    0.05973 =
         0.06740    0.01768    0.02930   -0.00120
AFIX  43
H9    2    0.126635   -0.083141    0.351538    11.00000   -1.20000
AFIX   0
C10   1    0.444249    0.192221    0.437357    11.00000    0.05077    0.05112 =
         0.04410    0.01656    0.02029    0.00814
HKLF 4
REM  is186_a.res in P-1
REM R1 =  0.0529 for    1337 Fo > 4sig(Fo)  and  0.0679 for all    1795 data
REM    157 parameters refined using      0 restraints
END
WGHT      0.0858      0.0000
REM Highest difference peak  0.203,  deepest hole -0.211,  1-sigma level  0.043
Q1    1   0.5000  0.5000  0.5000  10.50000  0.05    0.15
Q2    1   1.0649  0.5585  0.8695  11.00000  0.05    0.14
Q3    1   0.5985  0.1511  0.1336  11.00000  0.05    0.14
Q4    1   0.5997  0.6580  0.9770  11.00000  0.05    0.13
Q5    1   0.5825 -0.0048  0.1861  11.00000  0.05    0.12
Q6    1   0.5719  0.5215  0.9645  11.00000  0.05    0.12
Q7    1   0.8449  0.3026  0.6354  11.00000  0.05    0.12
Q8    1   0.4178  0.0309  0.3586  11.00000  0.05    0.12
Q9    1   0.8160  0.3473  0.8051  11.00000  0.05    0.11
Q10   1   0.3410  0.3375  0.4550  11.00000  0.05    0.11
Q11   1   1.0523  0.5879  1.0409  11.00000  0.05    0.11
Q12   1   1.3790  0.5134  0.7510  11.00000  0.05    0.11
Q13   1   0.3509  0.4229  0.5839  11.00000  0.05    0.10
Q14   1   1.1962  0.7045  1.0651  11.00000  0.05    0.10
Q15   1   0.8406  0.8229  1.0591  11.00000  0.05    0.10
Q16   1   0.5485 -0.0360  0.3516  11.00000  0.05    0.10
Q17   1   0.1412  0.1445  0.2590  11.00000  0.05    0.10
Q18   1   0.1860 -0.1610  0.3367  11.00000  0.05    0.10
Q19   1   0.7083  0.6247  0.6936  11.00000  0.05    0.10
Q20   1   0.2476  0.1871  0.3507  11.00000  0.05    0.10
;
_shelx_res_checksum              18919
loop_
_space_group_symop_operation_xyz
'x, y, z'
'-x, -y, -z'
loop_
_atom_site_type_symbol
_atom_site_label
_atom_site_fract_x
_atom_site_fract_y
_atom_site_fract_z
_atom_site_U_iso_or_equiv
_atom_site_adp_type
_atom_site_calc_flag
_atom_site_occupancy
_atom_site_disorder_assembly
_atom_site_disorder_group
O O1 0.6672(2) 0.56003(19) 0.9056(2) 0.0672(5) Uani d 1 . .
N N1 0.8289(3) 0.6863(3) 0.9853(3) 0.0741(6) Uani d 1 . .
N N2 0.7711(2) 0.4883(2) 0.7013(2) 0.0554(5) Uani d 1 . .
N N3 0.3083(2) 0.0515(2) 0.3385(3) 0.0597(5) Uani d 1 . .
N N4 0.5318(3) 0.2269(2) 0.3501(3) 0.0604(5) Uani d 1 . .
H H4 0.637(4) 0.302(3) 0.409(4) 0.086(8) Uiso d 1 . .
N N5 0.4945(3) 0.1157(3) 0.1664(3) 0.0686(6) Uani d 1 . .
H H5NA 0.479(4) 0.005(4) 0.162(4) 0.106(10) Uiso d 1 . .
H H5NB 0.382(4) 0.125(3) 0.088(4) 0.089(9) Uiso d 1 . .
C C1 0.6453(3) 0.4486(3) 0.7380(3) 0.0521(5) Uani d 1 . .
C C2 0.8817(3) 0.6343(3) 0.8581(3) 0.0612(6) Uani d 1 . .
C C3 1.0478(3) 0.7243(3) 0.8816(3) 0.0697(7) Uani d 1 . .
H H3 1.115238 0.830316 0.996389 0.084 Uiso calc 1 . .
C C4 1.0535(3) 0.7184(3) 0.7084(4) 0.0739(7) Uani d 1 . .
H H4A 0.946671 0.655610 0.588201 0.089 Uiso calc 1 . .
H H4B 1.120473 0.819869 0.718224 0.089 Uiso calc 1 . .
C C5 1.1560(3) 0.6188(3) 0.8065(4) 0.0762(7) Uani d 1 . .
H H5A 1.285910 0.659122 0.876536 0.091 Uiso calc 1 . .
H H5B 1.112103 0.494859 0.746510 0.091 Uiso calc 1 . .
C C6 0.4923(3) 0.3020(2) 0.6283(3) 0.0515(5) Uani d 1 . .
C C7 0.3911(3) 0.2607(3) 0.7049(3) 0.0583(6) Uani d 1 . .
H H7 0.416969 0.330972 0.827516 0.070 Uiso calc 1 . .
C C8 0.2524(3) 0.1164(3) 0.6011(3) 0.0632(6) Uani d 1 . .
H H8 0.183345 0.087335 0.651314 0.076 Uiso calc 1 . .
C C9 0.2187(3) 0.0162(3) 0.4206(4) 0.0656(6) Uani d 1 . .
H H9 0.126635 -0.083141 0.351538 0.079 Uiso calc 1 . .
C C10 0.4442(3) 0.1922(3) 0.4374(3) 0.0507(5) Uani d 1 . .
loop_
_atom_site_aniso_label
_atom_site_aniso_U_11
_atom_site_aniso_U_22
_atom_site_aniso_U_33
_atom_site_aniso_U_12
_atom_site_aniso_U_13
_atom_site_aniso_U_23
O1 0.0811(11) 0.0626(10) 0.0438(9) -0.0021(8) 0.0312(9) 0.0077(8)
N1 0.0835(14) 0.0646(12) 0.0472(11) -0.0130(10) 0.0275(11) 0.0031(10)
N2 0.0577(10) 0.0510(10) 0.0413(10) -0.0015(8) 0.0205(9) 0.0077(9)
N3 0.0547(11) 0.0542(11) 0.0527(12) 0.0004(8) 0.0217(9) 0.0102(9)
N4 0.0652(12) 0.0581(11) 0.0421(10) -0.0048(9) 0.0278(9) 0.0035(9)
N5 0.0751(14) 0.0660(14) 0.0453(11) -0.0041(11) 0.0318(11) 0.0012(10)
C1 0.0612(12) 0.0481(11) 0.0360(11) 0.0070(9) 0.0197(10) 0.0108(9)
C2 0.0649(14) 0.0553(13) 0.0425(12) -0.0017(10) 0.0160(11) 0.0119(11)
C3 0.0700(15) 0.0609(14) 0.0532(14) -0.0094(11) 0.0201(12) 0.0119(12)
C4 0.0705(15) 0.0751(16) 0.0703(17) 0.0012(12) 0.0265(13) 0.0345(14)
C5 0.0598(14) 0.0802(17) 0.0783(18) 0.0061(12) 0.0232(13) 0.0350(15)
C6 0.0535(12) 0.0509(12) 0.0442(12) 0.0089(9) 0.0210(10) 0.0169(10)
C7 0.0649(13) 0.0648(13) 0.0479(13) 0.0142(11) 0.0299(11) 0.0224(11)
C8 0.0560(12) 0.0696(15) 0.0637(15) 0.0049(11) 0.0281(11) 0.0290(13)
C9 0.0590(13) 0.0597(14) 0.0674(16) -0.0012(11) 0.0293(12) 0.0177(13)
C10 0.0508(11) 0.0511(12) 0.0441(12) 0.0081(9) 0.0203(10) 0.0166(10)
loop_
_atom_type_symbol
_atom_type_description
_atom_type_scat_dispersion_real
_atom_type_scat_dispersion_imag
_atom_type_scat_source
C C 0.0033 0.0016 'International Tables Vol C Tables 4.2.6.8 and 6.1.1.4'
H H 0.0000 0.0000 'International Tables Vol C Tables 4.2.6.8 and 6.1.1.4'
N N 0.0061 0.0033 'International Tables Vol C Tables 4.2.6.8 and 6.1.1.4'
O O 0.0106 0.0060 'International Tables Vol C Tables 4.2.6.8 and 6.1.1.4'
loop_
_geom_angle_atom_site_label_1
_geom_angle_atom_site_label_2
_geom_angle_atom_site_label_3
_geom_angle_site_symmetry_1
_geom_angle_site_symmetry_3
_geom_angle
_geom_angle_publ_flag
C1 O1 N1 . . 105.88(15) ?
C2 N1 O1 . . 102.95(18) ?
C1 N2 C2 . . 103.20(17) ?
C9 N3 C10 . . 118.7(2) ?
C10 N4 N5 . . 122.60(18) ?
C10 N4 H4 . . 124.1(18) ?
N5 N4 H4 . . 111.1(18) ?
N4 N5 H5NA . . 105.2(19) ?
N4 N5 H5NB . . 105.1(17) ?
H5NA N5 H5NB . . 106(3) ?
N2 C1 O1 . . 113.07(18) ?
N2 C1 C6 . . 129.37(18) ?
O1 C1 C6 . . 117.54(17) ?
N1 C2 N2 . . 114.88(19) ?
N1 C2 C3 . . 122.4(2) ?
N2 C2 C3 . . 122.7(2) ?
C2 C3 C4 . . 117.8(2) ?
C2 C3 C5 . . 118.1(2) ?
C4 C3 C5 . . 58.81(16) ?
C2 C3 H3 . . 116.6 ?
C4 C3 H3 . . 116.6 ?
C5 C3 H3 . . 116.6 ?
C5 C4 C3 . . 60.61(17) ?
C5 C4 H4A . . 117.7 ?
C3 C4 H4A . . 117.7 ?
C5 C4 H4B . . 117.7 ?
C3 C4 H4B . . 117.7 ?
H4A C4 H4B . . 114.8 ?
C4 C5 C3 . . 60.58(16) ?
C4 C5 H5A . . 117.7 ?
C3 C5 H5A . . 117.7 ?
C4 C5 H5B . . 117.7 ?
C3 C5 H5B . . 117.7 ?
H5A C5 H5B . . 114.8 ?
C7 C6 C10 . . 117.7(2) ?
C7 C6 C1 . . 121.45(19) ?
C10 C6 C1 . . 120.79(18) ?
C8 C7 C6 . . 120.3(2) ?
C8 C7 H7 . . 119.8 ?
C6 C7 H7 . . 119.8 ?
C7 C8 C9 . . 117.93(18) ?
C7 C8 H8 . . 121.0 ?
C9 C8 H8 . . 121.0 ?
N3 C9 C8 . . 124.3(2) ?
N3 C9 H9 . . 117.8 ?
C8 C9 H9 . . 117.8 ?
N3 C10 N4 . . 117.64(19) ?
N3 C10 C6 . . 120.90(18) ?
N4 C10 C6 . . 121.46(19) ?
loop_
_geom_bond_atom_site_label_1
_geom_bond_atom_site_label_2
_geom_bond_site_symmetry_2
_geom_bond_distance
_geom_bond_publ_flag
O1 C1 . 1.344(2) ?
O1 N1 . 1.428(2) ?
N1 C2 . 1.299(3) ?
N2 C1 . 1.293(3) ?
N2 C2 . 1.369(3) ?
N3 C9 . 1.322(3) ?
N3 C10 . 1.342(3) ?
N4 C10 . 1.344(3) ?
N4 N5 . 1.410(3) ?
N4 H4 . 0.89(3) ?
N5 H5NA . 0.94(3) ?
N5 H5NB . 0.93(3) ?
C1 C6 . 1.449(3) ?
C2 C3 . 1.465(3) ?
C3 C4 . 1.495(3) ?
C3 C5 . 1.496(4) ?
C3 H3 . 0.9800 ?
C4 C5 . 1.469(3) ?
C4 H4A . 0.9700 ?
C4 H4B . 0.9700 ?
C5 H5A . 0.9700 ?
C5 H5B . 0.9700 ?
C6 C7 . 1.381(3) ?
C6 C10 . 1.432(3) ?
C7 C8 . 1.372(3) ?
C7 H7 . 0.9300 ?
C8 C9 . 1.373(3) ?
C8 H8 . 0.9300 ?
C9 H9 . 0.9300 ?
loop_
_geom_hbond_atom_site_label_D
_geom_hbond_atom_site_label_H
_geom_hbond_atom_site_label_A
_geom_hbond_site_symmetry_A
_geom_hbond_distance_DH
_geom_hbond_distance_HA
_geom_hbond_distance_DA
_geom_hbond_angle_DHA
N4 H4 N2 . 0.89(3) 2.17(3) 2.795(3) 127(2)
N5 H5NA C8 2_656 0.94(3) 2.87(3) 3.487(3) 125(2)
N5 H5NB N1 2_666 0.93(3) 2.50(3) 3.325(4) 148(2)
N5 H5NA N3 . 0.94(3) 2.45(3) 2.728(2) 97(2)
loop_
_geom_torsion_atom_site_label_1
_geom_torsion_atom_site_label_2
_geom_torsion_atom_site_label_3
_geom_torsion_atom_site_label_4
_geom_torsion_site_symmetry_1
_geom_torsion_site_symmetry_2
_geom_torsion_site_symmetry_3
_geom_torsion_site_symmetry_4
_geom_torsion
_geom_torsion_publ_flag
C1 O1 N1 C2 . . . . -0.3(2) ?
C2 N2 C1 O1 . . . . 0.8(2) ?
C2 N2 C1 C6 . . . . -177.3(2) ?
N1 O1 C1 N2 . . . . -0.3(2) ?
N1 O1 C1 C6 . . . . 177.99(17) ?
O1 N1 C2 N2 . . . . 0.9(3) ?
O1 N1 C2 C3 . . . . -178.65(19) ?
C1 N2 C2 N1 . . . . -1.1(3) ?
C1 N2 C2 C3 . . . . 178.5(2) ?
N1 C2 C3 C4 . . . . -149.0(2) ?
N2 C2 C3 C4 . . . . 31.5(3) ?
N1 C2 C3 C5 . . . . 143.4(3) ?
N2 C2 C3 C5 . . . . -36.1(3) ?
C2 C3 C4 C5 . . . . -107.6(3) ?
C2 C3 C5 C4 . . . . 107.2(2) ?
N2 C1 C6 C7 . . . . 166.7(2) ?
O1 C1 C6 C7 . . . . -11.2(3) ?
N2 C1 C6 C10 . . . . -11.5(3) ?
O1 C1 C6 C10 . . . . 170.48(17) ?
C10 C6 C7 C8 . . . . 1.6(3) ?
C1 C6 C7 C8 . . . . -176.74(18) ?
C6 C7 C8 C9 . . . . 0.0(3) ?
C10 N3 C9 C8 . . . . 1.5(4) ?
C7 C8 C9 N3 . . . . -1.6(4) ?
C9 N3 C10 N4 . . . . -179.08(19) ?
C9 N3 C10 C6 . . . . 0.3(3) ?
N5 N4 C10 N3 . . . . -4.6(3) ?
N5 N4 C10 C6 . . . . 176.1(2) ?
C7 C6 C10 N3 . . . . -1.8(3) ?
C1 C6 C10 N3 . . . . 176.59(18) ?
C7 C6 C10 N4 . . . . 177.56(19) ?
C1 C6 C10 N4 . . . . -4.1(3) ?

_cod_database_fobs_code 2022214
