#------------------------------------------------------------------------------
#$Date: 2020-04-10 08:16:22 +0300 (Fri, 10 Apr 2020) $
#$Revision: 250616 $
#$URL: file:///home/coder/svn-repositories/cod/cif/2/02/20/2022037.cif $
#------------------------------------------------------------------------------
#
# This file is available in the Crystallography Open Database (COD),
# http://www.crystallography.net/. The original data for this entry
# were provided by IUCr Journals, http://journals.iucr.org/.
#
# The file may be used within the scientific community so long as
# proper attribution is given to the journal article from which the
# data were obtained.
#
data_2022037
loop_
_publ_author_name
'Jha, Kunal Kumar'
'Gruza, Barbara'
'Kumar, Prashant'
'Chodkiewicz, Michal Leszek'
'Dominiak, Paulina Maria'
_publ_section_title
;
 TAAM: a reliable and user friendly tool for hydrogen-atom location using
 routine X-ray diffraction data
;
_journal_issue                   3
_journal_name_full
'Acta Crystallographica Section B Structural Science, Crystal Engineering and Materials'
_journal_paper_doi               10.1107/S2052520620002917
_journal_volume                  76
_journal_year                    2020
_chemical_absolute_configuration unk
_chemical_formula_moiety         'C5 H10 N2 O3'
_chemical_formula_sum            'C5 H10 N2 O3'
_chemical_formula_weight         146.15
_space_group_crystal_system      orthorhombic
_space_group_IT_number           19
_space_group_name_Hall           'P 2ac 2ab'
_space_group_name_H-M_alt        'P 21 21 21'
_symmetry_Int_Tables_number      19
_audit_creation_date             2019-09-26
_audit_creation_method
;
Olex2 1.2
(compiled 2018.05.29 svn.r3508 for OlexSys, GUI svn.r5506)
;
_cell_angle_alpha                90
_cell_angle_beta                 90
_cell_angle_gamma                90
_cell_formula_units_Z            4
_cell_length_a                   7.4587(7)
_cell_length_b                   9.4928(9)
_cell_length_c                   9.7250(9)
_cell_measurement_temperature    100(2)
_cell_volume                     688.57(11)
_computing_molecular_graphics    'Olex2 (Dolomanov et al., 2009)'
_computing_publication_material  'Olex2 (Dolomanov et al., 2009)'
_computing_structure_refinement  'olex2.refine (Bourhis et al., 2015)'
_diffrn_ambient_temperature      100(2)
_diffrn_measured_fraction_theta_full 0.9937
_diffrn_measured_fraction_theta_max 0.9937
_diffrn_measurement_device_type  'Bruker Smart CCD'
_diffrn_radiation_type           synchrotron
_diffrn_radiation_wavelength     0.52590
_diffrn_reflns_av_R_equivalents  0.0284
_diffrn_reflns_av_unetI/netI     0.0239
_diffrn_reflns_limit_h_max       11
_diffrn_reflns_limit_h_min       -11
_diffrn_reflns_limit_k_max       13
_diffrn_reflns_limit_k_min       -13
_diffrn_reflns_limit_l_max       14
_diffrn_reflns_limit_l_min       -14
_diffrn_reflns_number            12938
_diffrn_reflns_theta_full        26.4991
_diffrn_reflns_theta_max         26.50
_diffrn_reflns_theta_min         3.00
_exptl_absorpt_coefficient_mu    0.116
_exptl_crystal_density_diffrn    1.4097
_exptl_crystal_F_000             312.1923
_refine_diff_density_max         0.1108
_refine_diff_density_min         -0.1689
_refine_diff_density_rms         0.0440
_refine_ls_abs_structure_details
'Flack, H. D. (1983). Acta Cryst. A39, 876-881.'
_refine_ls_abs_structure_Flack   0.0(3)
_refine_ls_d_res_high            0.7965
_refine_ls_d_res_low             6.7930
_refine_ls_goodness_of_fit_ref   1.1898
_refine_ls_hydrogen_treatment    refall
_refine_ls_matrix_type           full
_refine_ls_number_constraints    0
_refine_ls_number_parameters     131
_refine_ls_number_reflns         1422
_refine_ls_number_restraints     0
_refine_ls_restrained_S_all      1.1898
_refine_ls_R_factor_all          0.0154
_refine_ls_R_factor_gt           0.0152
_refine_ls_shift/su_max          0.0008
_refine_ls_shift/su_mean         0.0000
_refine_ls_structure_factor_coef Fsqd
_refine_ls_weighting_details
'w=1/[\s^2^(Fo^2^)+(0.0218P)^2^] where P=(Fo^2^+2Fc^2^)/3'
_refine_ls_weighting_scheme      calc
_refine_ls_wR_factor_gt          0.0345
_refine_ls_wR_factor_ref         0.0346
_reflns_Friedel_coverage         0.991
_reflns_limit_h_max              9
_reflns_limit_h_min              -9
_reflns_limit_k_max              11
_reflns_limit_k_min              -11
_reflns_limit_l_max              12
_reflns_limit_l_min              -12
_reflns_number_gt                1398
_reflns_number_total             1422
_reflns_threshold_expression     I>=2u(I)
_iucr_refine_instructions_details
;
TITL GLYALB02
CELL 0.71073 7.4587 9.4928 9.725 90 90 90
ZERR 4 0.0007 0.0009 0.0009 0 0 0
LATT -1
SYMM 0.5-X,-Y,0.5+Z
SYMM -X,0.5+Y,0.5-Z
SYMM 0.5+X,0.5-Y,-Z
SFAC C H N O
UNIT 20 40 8 12

ACTA 
BOND $H
OMIT -10 53
WGHT 0.021832 0
FVAR 0.480135
REM <olex2.extras>
REM <HklSrc "%.\\5ff3336543da0e96b9451a921a484f5c.hkl">
REM </olex2.extras>

O1    4     0.26838  0.96288  0.77800  11.00000  0.01498  0.00847  0.00761 =
 -0.00269  0.00338 -0.00500 
O2    4     0.43044  1.12572  0.88343  11.00000  0.01091  0.01017  0.00636 =
 -0.00286  0.00066 -0.00285 
O3    4     0.70887  0.94904  0.59995  11.00000  0.01147  0.00760  0.00893 =
 -0.00203 -0.00279  0.00234 
N1    3     0.44311  1.03594  0.52559  11.00000  0.00915  0.00527  0.00510 =
 -0.00102  0.00012  0.00067 
H1    2     0.35897  1.03914  0.44968  11.00000  0.01508 
N2    3     0.73442  0.75560  0.40097  11.00000  0.00940  0.00424  0.00774 =
 -0.00014  0.00133  0.00176 
H2a   2     0.73696  0.68256  0.32587  11.00000  0.03164 
H2b   2     0.86060  0.79880  0.40702  11.00000  0.02732 
H2c   2     0.70614  0.70491  0.48996  11.00000  0.02775 
C1    1     0.37350  1.06550  0.77670  11.00000  0.00699  0.00451  0.00584 =
 -0.00192 -0.00021  0.00071 
C2    1     0.42658  1.13454  0.63934  11.00000  0.01048  0.00351  0.00641 =
 -0.00079  0.00026  0.00084 
H2    2     0.55466  1.18346  0.65504  11.00000  0.02177 
C3    1     0.28484  1.24480  0.60407  11.00000  0.02614  0.00988  0.01127 =
 -0.00042 -0.00131  0.01074 
H3a   2     0.32284  1.30180  0.51195  11.00000  0.04458 
H3b   2     0.15569  1.19457  0.58380  11.00000  0.03748 
H3c   2     0.27005  1.31459  0.69053  11.00000  0.04035 
C4    1     0.58925  0.95481  0.51368  11.00000  0.00850  0.00354  0.00487 =
 0.00002  0.00010 -0.00022 
C5    1     0.59879  0.86686  0.38187  11.00000  0.01071  0.00618  0.00559 =
 -0.00153 -0.00021  0.00132 
H5a   2     0.63744  0.93320  0.29427  11.00000  0.03635 
H5b   2     0.47171  0.81719  0.35843  11.00000  0.02412 
HKLF 4

END
Q1 1 0.458333 1.233333 0.5 11 0.05 0.11
Q2 1 0.75 0.533333 0.46875 11 0.05 0.11
Q3 1 0.708333 0.8 0.21875 11 0.05 0.11
Q4 1 0.208333 1.1 0.46875 11 0.05 0.1
Q5 1 0.333333 1.4 0.75 11 0.05 0.09
Q6 1 0.625 1.066667 0.28125 11 0.05 0.09
Q7 1 0.375 1.133333 0.96875 11 0.05 0.08
Q8 1 0.916667 0.9 0.34375 11 0.05 0.08
Q9 1 0.541667 1 0.6875 11 0.05 0.08
Q10 1 0.708333 0.533333 0.34375 11 0.05 0.07
Q11 1 0.583333 0.566667 0.4375 11 0.05 0.07
Q12 1 0.416667 1.266667 0.59375 11 0.05 0.07
Q13 1 0.625 0.9 0.21875 11 0.05 0.06
Q14 1 0.541667 1 0.125 11 0.05 0.06
Q15 1 0.5 1 0.90625 11 0.05 0.06
Q16 1 0.25 0.833333 0.84375 11 0.05 0.05
Q17 1 0.416667 1.066667 0.40625 11 0.05 0.05
Q18 1 0.541667 1.2 0.78125 11 0.05 0.05
Q19 1 0.041667 1.1 0.59375 11 0.05 0.05
Q20 1 0.291667 1.266667 0.8125 11 0.05 0.04

  REM The information below was added by Olex2.
  REM
  REM R1 = 0.0152 for 1398 Fo > 4sig(Fo) and 0.0154 for all 1422 data
  REM 131 parameters refined using 0 restraints
  REM Highest difference peak 0.1108, deepest hole -0.1689
  REM Mean Shift 0.0000, Max Shift 0.0008.

  REM +++ Tabular Listing of Refinement Information +++
  REM R1_all = 0.0154
  REM R1_gt = 0.0152
  REM wR_ref = 0.0346
  REM GOOF = 1.1898
  REM Shift_max = 0.0008
  REM Shift_mean = 0.0000
  REM Reflections_all = 1422
  REM Reflections_gt = 1398
  REM Parameters = 131
  REM Hole = -0.1689
  REM Peak = 0.1108
  REM Flack = 0.0(3)

  
;
_cod_data_source_file            25_TAAM_iso_0.8.cif
_cod_data_source_block           25_TAAM_iso_0.8
_cod_original_sg_symbol_Hall     ' P 2ac 2ab'
_cod_database_code               2022037
_olex2_refinement_description
;
;
_iucr_refine_fcf_details
;
data_GLYALB02
_computing_structure_refinement   'olex2.refine (Bourhis et al., 2015)'
_shelx_refln_list_code            4
loop_
  _space_group_symop_id
  _space_group_symop_operation_xyz
  1  x,y,z
  2  x+1/2,-y+1/2,-z
  3  -x,y+1/2,-z+1/2
  4  -x+1/2,-y,z+1/2

_space_group_crystal_system       orthorhombic
_space_group_IT_number            19
_space_group_name_H-M_alt         'P 21 21 21'
_space_group_name_Hall            ' P 2ac 2ab'
_symmetry_space_group_name_H-M    'P 21 21 21'
_symmetry_space_group_name_Hall   ' P 2ac 2ab'
_symmetry_Int_Tables_number       19
_cell_length_a                    7.4587(7)
_cell_length_b                    9.4928(9)
_cell_length_c                    9.7250(9)
_cell_angle_alpha                 90
_cell_angle_beta                  90
_cell_angle_gamma                 90
_cell_volume                      688.57(11)
loop_
  _refln_index_h
  _refln_index_k
  _refln_index_l
  _refln_F_squared_calc
  _refln_F_squared_meas
  _refln_F_squared_sigma
  _refln_F_squared_weight
  _refln_observed_status
-9 -3 -1 23.514 22.241 0.575 111.396 o
-9 -2 -2 18.783 19.069 0.499 155.404 o
-9 -2 -1 100.670 99.675 1.387 9.687 o
-9 -1 -3 72.069 71.273 0.982 19.041 o
-9 -1 -2 69.322 72.785 1.003 19.312 o
-9 -1 -1 28.303 28.188 0.497 103.820 o
-8 -6 -1 50.907 48.855 0.804 35.222 o
-8 -5 -3 23.611 24.139 0.455 136.626 o
-8 -5 -2 123.646 121.370 1.562 6.759 o
-8 -5 -1 29.688 30.197 0.539 90.997 o
-8 -4 -4 119.358 118.832 1.547 7.108 o
-8 -4 -3 15.024 14.979 0.390 250.825 o
-8 -4 -2 72.184 72.065 1.030 18.386 o
-8 -4 -1 18.672 18.205 0.408 197.247 o
-8 -3 -5 158.520 158.537 1.901 4.178 o
-8 -3 -4 13.315 13.991 0.387 274.414 o
-8 -3 -3 169.228 174.813 2.259 3.418 o
-8 -3 -2 46.947 47.288 0.727 41.119 o
-8 -3 -1 38.608 38.330 0.649 57.708 o
-8 -2 -6 30.719 31.408 0.538 87.357 o
-8 -2 -5 47.887 47.816 0.738 39.787 o
-8 -2 -4 24.247 24.680 0.474 128.145 o
-8 -2 -3 53.682 55.152 0.864 30.358 o
-8 -2 -2 191.315 197.986 3.322 2.254 o
-8 -2 -1 91.083 90.235 1.579 10.141 o
-8 -1 -6 122.208 124.323 1.980 5.857 o
-8 -1 -5 22.039 21.894 0.415 161.758 o
-8 -1 -4 204.991 211.097 2.466 2.457 o
-8 -1 -3 31.922 31.558 0.527 85.766 o
-8 -1 -2 76.668 77.861 1.031 16.727 o
-8 -1 -1 42.982 43.170 0.681 48.336 o
-7 -7 -3 53.664 54.033 0.895 29.867 o
-7 -7 -2 61.890 62.617 0.954 23.686 o
-7 -7 -1 21.239 21.005 0.520 134.600 o
-7 -6 -5 34.860 34.169 0.649 65.588 o
-7 -6 -4 76.183 77.492 1.188 15.476 o
-7 -6 -3 26.317 26.175 0.521 108.566 o
-7 -6 -2 40.439 39.611 0.689 52.382 o
-7 -6 -1 15.742 15.505 0.385 245.692 o
-7 -5 -6 63.718 62.656 0.971 22.796 o
-7 -5 -5 21.518 22.637 0.493 138.142 o
-7 -5 -4 15.966 15.513 0.403 231.561 o
-7 -5 -3 17.906 17.685 0.498 163.043 o
-7 -5 -2 15.110 15.154 0.351 280.168 o
-7 -5 -1 16.411 16.526 0.359 252.309 o
-7 -4 -7 30.364 30.973 0.586 82.601 o
-7 -4 -6 39.220 39.327 0.669 55.107 o
-7 -4 -5 127.991 125.421 1.530 6.485 o
-7 -4 -4 2.977 3.075 0.257 923.023 o
-7 -4 -3 32.027 32.938 0.531 83.443 o
-7 -4 -2 45.356 44.838 0.759 42.037 o
-7 -4 -1 12.795 12.353 0.309 379.470 o
-7 -3 -7 2.009 1.930 0.293 741.282 o
-7 -3 -6 278.996 285.195 3.190 1.362 o
-7 -3 -5 5.949 5.968 0.271 719.734 o
-7 -3 -4 190.017 193.516 2.502 2.750 o
-7 -3 -3 56.358 57.426 0.807 29.830 o
-7 -3 -2 218.256 216.380 2.797 2.143 o
-7 -3 -1 84.629 81.545 1.459 11.927 o
-7 -2 -7 20.258 19.992 0.404 182.471 o
-7 -2 -6 86.082 87.322 1.097 13.655 o
-7 -2 -5 55.687 56.178 0.772 31.279 o
-7 -2 -4 127.392 129.626 1.716 6.047 o
-7 -2 -3 67.444 67.947 0.944 21.214 o
-7 -2 -2 80.827 81.362 1.227 14.056 o
-7 -2 -1 61.947 63.235 0.882 24.742 o
-7 -1 -8 21.953 23.123 0.467 142.873 o
-7 -1 -7 77.325 77.927 1.012 16.745 o
-7 -1 -6 71.871 71.909 1.014 18.661 o
-7 -1 -5 4.203 4.228 0.335 539.990 o
-7 -1 -4 4.899 4.553 0.318 582.004 o
-7 -1 -3 119.381 120.690 1.434 7.320 o
-7 -1 -2 319.009 332.681 3.843 1.007 o
-7 -1 -1 226.212 227.482 3.071 1.921 o
-6 -9 -1 69.517 67.975 1.301 16.439 o
-6 -8 -4 422.236 421.343 7.440 0.465 o
-6 -8 -3 33.795 32.708 0.712 62.669 o
-6 -8 -2 53.686 52.429 1.038 26.805 o
-6 -8 -1 18.819 18.110 0.580 129.901 o
-6 -7 -6 33.639 34.535 0.722 60.868 o
-6 -7 -5 36.098 35.581 0.779 53.286 o
-6 -7 -4 18.857 19.072 0.648 110.328 o
-6 -7 -3 47.606 48.001 0.906 34.169 o
-6 -7 -2 75.849 74.766 1.239 15.319 o
-6 -7 -1 88.667 87.520 2.515 6.486 o
-6 -6 -7 84.000 83.213 1.228 13.428 o
-6 -6 -6 68.777 68.811 1.286 16.667 o
-6 -6 -5 62.061 62.763 1.012 22.670 o
-6 -6 -4 10.459 10.405 0.344 383.230 o
-6 -6 -3 19.729 19.939 0.416 180.833 o
-6 -6 -2 101.105 99.595 1.500 9.209 o
-6 -6 -1 262.973 266.606 3.770 1.372 o
-6 -5 -7 31.990 32.078 0.564 80.688 o
-6 -5 -6 46.147 46.680 0.743 41.342 o
-6 -5 -5 27.921 27.543 0.498 105.696 o
-6 -5 -4 256.052 251.281 3.575 1.492 o
-6 -5 -3 42.428 43.119 0.702 47.898 o
-6 -5 -2 340.500 342.825 4.803 0.829 o
-6 -5 -1 17.004 16.744 0.328 267.238 o
-6 -4 -8 156.762 155.709 2.155 3.995 o
-6 -4 -7 21.578 21.999 0.460 149.238 o
-6 -4 -6 67.973 67.258 0.996 20.485 o
-6 -4 -5 6.099 6.366 0.275 695.311 o
-6 -4 -4 295.157 299.145 3.336 1.228 o
-6 -4 -3 45.903 46.691 0.625 46.327 o
-6 -4 -2 163.839 162.732 2.073 3.823 o
-6 -4 -1 48.586 48.477 0.683 40.981 o
-6 -3 -8 3.935 3.665 0.319 598.062 o
-6 -3 -7 121.057 121.426 1.528 6.978 o
-6 -3 -6 49.222 50.636 0.642 41.001 o
-6 -3 -5 38.001 37.464 0.569 64.803 o
-6 -3 -4 124.476 128.712 1.475 6.695 o
-6 -3 -3 37.523 37.154 0.631 61.174 o
-6 -3 -2 158.405 159.841 2.174 3.887 o
-6 -3 -1 4.844 4.781 0.205 1228.120 o
-6 -2 -9 55.596 56.159 0.776 31.245 o
-6 -2 -8 35.143 34.563 0.541 74.439 o
-6 -2 -7 111.120 110.369 1.681 7.500 o
-6 -2 -6 67.421 69.269 0.879 21.862 o
-6 -2 -5 285.724 288.323 3.230 1.314 o
-6 -2 -4 333.189 339.514 4.109 0.924 o
-6 -2 -3 358.586 354.997 7.071 0.587 o
-6 -2 -2 101.321 107.107 1.382 9.318 o
-6 -2 -1 108.221 108.507 1.743 7.547 o
-6 -1 -9 144.558 145.000 1.771 4.966 o
-6 -1 -8 221.350 224.096 2.646 2.132 o
-6 -1 -7 133.068 131.510 1.586 5.981 o
-6 -1 -6 57.607 59.118 0.765 29.678 o
-6 -1 -5 122.026 118.485 1.581 6.885 o
-6 -1 -4 208.919 208.502 2.892 2.235 o
-6 -1 -3 3.956 4.289 0.186 1531.520 o
-6 -1 -2 110.848 112.894 1.335 8.446 o
-6 -1 -1 122.110 120.401 1.443 7.139 o
-5 -10 -1 54.485 53.430 1.639 15.958 o
-5 -9 -4 36.343 35.151 0.734 56.388 o
-5 -9 -3 93.870 89.511 2.429 6.531 o
-5 -9 -2 1.618 2.121 0.439 335.942 o
-5 -9 -1 3.855 3.606 0.419 357.641 o
-5 -8 -6 47.975 47.932 0.880 34.818 o
-5 -8 -5 102.895 101.319 1.628 8.518 o
-5 -8 -4 26.737 25.709 0.668 83.669 o
-5 -8 -3 37.924 36.486 0.739 53.620 o
-5 -8 -2 51.016 51.627 1.000 28.936 o
-5 -8 -1 69.417 68.122 2.046 10.094 o
-5 -7 -7 54.028 53.090 1.345 20.451 o
-5 -7 -6 118.279 115.353 2.597 4.895 o
-5 -7 -5 81.754 80.301 1.456 12.366 o
-5 -7 -4 120.799 119.088 2.036 5.902 o
-5 -7 -3 212.286 214.288 4.297 1.625 o
-5 -7 -2 81.298 80.931 1.567 11.642 o
-5 -7 -1 88.746 89.647 1.545 10.564 o
-5 -6 -8 121.461 119.331 1.672 6.684 o
-5 -6 -7 38.560 38.381 0.726 52.823 o
-5 -6 -6 170.889 168.996 2.654 3.123 o
-5 -6 -5 34.536 33.473 0.639 67.515 o
-5 -6 -4 10.935 10.169 0.329 399.883 o
-5 -6 -3 48.983 49.466 0.906 33.041 o
-5 -6 -2 106.577 110.553 2.598 5.295 o
-5 -6 -1 242.733 240.089 5.679 1.083 o
-5 -5 -8 14.291 14.534 0.388 261.746 o
-5 -5 -7 214.267 214.516 2.929 2.137 o
-5 -5 -6 10.795 10.347 0.305 443.059 o
-5 -5 -5 39.191 38.335 0.688 54.491 o
-5 -5 -4 181.427 181.144 2.974 2.657 o
-5 -5 -3 39.954 42.163 0.998 36.501 o
-5 -5 -2 73.994 70.891 1.237 16.010 o
-5 -5 -1 306.870 302.087 4.572 0.997 o
-5 -4 -9 82.736 83.644 1.209 13.717 o
-5 -4 -8 16.452 16.905 0.459 190.603 o
-5 -4 -7 59.829 58.146 0.869 26.801 o
-5 -4 -6 229.525 228.385 3.062 1.893 o
-5 -4 -5 169.164 166.820 3.078 2.833 o
-5 -4 -4 189.354 190.306 2.581 2.736 o
-5 -4 -3 2.518 2.709 0.221 1249.370 o
-5 -4 -2 246.607 246.766 3.154 1.672 o
-5 -4 -1 217.430 221.298 2.988 2.053 o
-5 -3 -9 12.198 11.468 1.167 45.532 o
-5 -3 -8 55.548 55.394 0.905 28.487 o
-5 -3 -7 2.488 2.632 0.264 894.520 o
-5 -3 -6 334.216 335.216 4.022 0.937 o
-5 -3 -5 186.038 185.472 2.098 3.122 o
-5 -3 -4 419.432 421.847 4.694 0.613 o
-5 -3 -3 741.881 741.602 8.812 0.192 o
-5 -3 -2 326.070 320.280 4.285 0.952 o
-5 -3 -1 8.502 8.172 0.233 741.923 o
-5 -2 -10 5.063 5.193 0.388 398.763 o
-5 -2 -9 50.725 50.055 0.695 38.345 o
-5 -2 -8 218.280 219.738 2.580 2.210 o
-5 -2 -7 62.555 62.341 0.812 25.838 o
-5 -2 -6 119.737 119.652 1.501 7.171 o
-5 -2 -5 128.541 133.258 1.585 6.156 o
-5 -2 -4 46.838 48.246 0.640 44.124 o
-5 -2 -3 23.068 22.804 0.367 168.616 o
-5 -2 -2 222.080 220.987 3.128 1.961 o
-5 -2 -1 61.103 60.874 0.830 26.442 o
-5 -1 -10 8.601 8.701 0.447 276.987 o
-5 -1 -9 54.226 54.337 0.733 33.572 o
-5 -1 -8 80.616 81.268 1.020 15.675 o
-5 -1 -7 83.808 81.121 1.471 11.969 o
-5 -1 -6 18.538 18.535 0.327 240.694 o
-5 -1 -5 300.798 305.066 6.067 0.811 o
-5 -1 -4 5.348 4.962 0.220 1063.370 o
-5 -1 -3 120.838 123.792 2.120 5.630 o
-5 -1 -2 27.464 27.186 0.388 128.254 o
-5 -1 -1 16.657 16.765 0.320 277.215 o
-4 -10 -4 61.482 58.731 3.839 3.951 o
-4 -10 -3 18.631 17.518 1.011 55.165 o
-4 -10 -2 5.958 5.775 0.650 148.255 o
-4 -10 -1 15.783 15.434 0.743 97.417 o
-4 -9 -6 97.634 91.892 3.049 4.767 o
-4 -9 -5 17.273 16.377 0.598 131.560 o
-4 -9 -4 1.966 2.139 0.316 639.635 o
-4 -9 -3 9.053 7.480 0.751 108.789 o
-4 -9 -2 13.626 13.851 0.650 127.157 o
-4 -9 -1 15.235 15.308 0.477 192.594 o
-4 -8 -7 117.568 115.774 2.271 5.577 o
-4 -8 -6 49.799 51.330 1.140 25.994 o
-4 -8 -5 168.990 164.818 3.089 2.840 o
-4 -8 -4 69.399 67.369 2.615 7.164 o
-4 -8 -3 40.449 40.058 1.152 30.986 o
-4 -8 -2 1.265 1.330 0.301 713.003 o
-4 -8 -1 173.108 182.033 2.960 2.767 o
-4 -7 -8 19.600 21.294 1.111 45.621 o
-4 -7 -7 42.739 42.032 0.780 44.310 o
-4 -7 -6 69.408 67.882 1.124 18.472 o
-4 -7 -5 219.227 220.878 3.379 1.891 o
-4 -7 -4 373.517 373.900 5.668 0.660 o
-4 -7 -3 35.119 35.247 0.889 47.207 o
-4 -7 -2 71.061 71.595 1.376 15.105 o
-4 -7 -1 99.766 100.226 2.752 5.281 o
-4 -6 -9 50.331 49.758 0.793 35.633 o
-4 -6 -8 74.508 70.402 1.675 12.163 o
-4 -6 -7 10.299 10.401 0.347 379.547 o
-4 -6 -6 46.672 46.063 0.792 39.324 o
-4 -6 -5 91.546 89.390 1.716 9.474 o
-4 -6 -4 375.551 369.878 5.670 0.660 o
-4 -6 -3 274.797 283.890 4.982 1.057 o
-4 -6 -2 119.970 124.589 2.772 4.425 o
-4 -6 -1 67.455 70.277 1.212 17.615 o
-4 -5 -9 20.191 19.541 0.443 168.618 o
-4 -5 -8 147.152 147.868 2.020 4.513 o
-4 -5 -7 120.337 121.295 1.910 6.152 o
-4 -5 -6 295.665 294.860 4.504 1.053 o
-4 -5 -5 766.525 756.256 11.250 0.161 o
-4 -5 -4 1757.970 1709.610 25.808 0.031 o
-4 -5 -3 45.143 43.312 0.725 44.288 o
-4 -5 -2 54.560 53.398 1.050 26.041 o
-4 -5 -1 128.639 132.211 2.404 4.715 o
-4 -4 -10 103.066 105.084 1.701 8.118 o
-4 -4 -9 130.862 131.692 2.204 4.990 o
-4 -4 -8 293.177 292.266 4.155 1.120 o
-4 -4 -7 140.664 137.064 1.875 5.095 o
-4 -4 -6 258.406 253.648 3.419 1.510 o
-4 -4 -5 105.151 104.260 1.633 8.238 o
-4 -4 -4 267.206 260.999 3.963 1.324 o
-4 -4 -3 109.461 111.099 1.724 7.452 o
-4 -4 -2 83.063 81.735 1.526 11.666 o
-4 -4 -1 624.448 630.138 9.636 0.233 o
-4 -3 -10 60.290 60.552 1.193 20.606 o
-4 -3 -9 203.770 202.315 2.906 2.315 o
-4 -3 -8 184.597 187.510 2.893 2.628 o
-4 -3 -7 119.709 117.583 1.961 6.147 o
-4 -3 -6 25.056 24.411 0.483 123.433 o
-4 -3 -5 237.986 231.725 3.132 1.793 o
-4 -3 -4 22.337 21.639 0.324 192.853 o
-4 -3 -3 24.435 25.463 0.337 160.298 o
-4 -3 -2 95.879 93.804 1.170 11.451 o
-4 -3 -1 380.202 368.563 8.473 0.468 o
-4 -2 -10 42.383 42.943 0.751 45.599 o
-4 -2 -9 40.152 43.038 0.721 49.141 o
-4 -2 -8 307.614 316.757 3.807 1.077 o
-4 -2 -7 179.009 177.461 2.390 3.117 o
-4 -2 -6 184.845 187.997 2.411 2.923 o
-4 -2 -5 18.573 18.495 0.338 234.340 o
-4 -2 -4 65.767 66.586 0.881 22.811 o
-4 -2 -3 19.393 20.986 0.316 225.518 o
-4 -2 -2 442.713 433.841 7.593 0.435 o
-4 -2 -1 933.379 881.361 25.203 0.063 o
-4 -1 -10 27.633 28.232 0.436 116.481 o
-4 -1 -9 70.476 71.586 0.902 20.315 o
-4 -1 -8 106.111 106.789 1.309 9.171 o
-4 -1 -7 103.738 103.909 1.251 9.721 o
-4 -1 -6 126.638 124.209 1.474 6.702 o
-4 -1 -5 122.632 124.100 1.477 6.925 o
-4 -1 -4 67.541 66.531 0.998 20.689 o
-4 -1 -3 1292.360 1270.660 18.132 0.058 o
-4 -1 -2 137.616 135.275 1.984 5.064 o
-4 -1 -1 331.548 336.310 4.250 0.918 o
-3 -11 -2 7.393 7.312 0.945 70.890 o
-3 -11 -1 11.924 10.953 0.723 111.029 o
-3 -10 -5 47.057 47.611 1.591 18.123 o
-3 -10 -4 18.520 18.282 1.887 17.496 o
-3 -10 -3 13.050 11.471 0.874 77.701 o
-3 -10 -2 8.243 8.334 0.778 102.075 o
-3 -10 -1 64.951 68.017 1.538 14.665 o
-3 -9 -6 39.227 38.904 1.161 31.352 o
-3 -9 -5 47.996 46.933 2.097 11.890 o
-3 -9 -4 6.396 6.441 0.614 164.449 o
-3 -9 -3 17.972 18.362 1.236 38.664 o
-3 -9 -2 33.199 32.276 1.068 39.309 o
-3 -9 -1 91.956 91.654 3.986 3.271 o
-3 -8 -8 218.640 218.607 4.005 1.678 o
-3 -8 -7 223.005 217.413 4.034 1.646 o
-3 -8 -6 58.081 56.031 1.728 14.294 o
-3 -8 -5 0.334 0.674 0.544 220.335 o
-3 -8 -4 150.126 149.184 3.577 2.772 o
-3 -8 -3 101.151 99.231 5.987 1.602 o
-3 -8 -2 114.739 112.964 2.798 4.640 o
-3 -8 -1 295.582 304.541 8.627 0.557 o
-3 -7 -9 126.725 128.839 2.796 4.186 o
-3 -7 -8 26.826 28.171 0.766 69.228 o
-3 -7 -7 188.297 184.436 3.472 2.267 o
-3 -7 -6 131.038 128.279 2.427 4.666 o
-3 -7 -5 230.079 228.091 4.821 1.348 o
-3 -7 -4 108.236 110.622 2.324 5.885 o
-3 -7 -3 236.970 234.568 9.391 0.567 o
-3 -7 -2 240.750 239.718 6.155 0.996 o
-3 -7 -1 5.680 5.876 0.259 785.296 o
-3 -6 -9 49.208 50.069 0.881 33.511 o
-3 -6 -8 88.377 87.331 1.415 11.437 o
-3 -6 -7 194.662 198.293 3.267 2.249 o
-3 -6 -6 13.429 13.798 0.404 260.074 o
-3 -6 -5 126.930 129.183 2.050 5.440 o
-3 -6 -4 34.193 34.867 0.826 52.212 o
-3 -6 -3 757.871 772.075 12.528 0.150 o
-3 -6 -2 306.678 310.315 5.936 0.810 o
-3 -6 -1 65.784 66.877 1.145 19.170 o
-3 -5 -10 33.708 34.331 0.665 65.730 o
-3 -5 -9 21.405 21.120 0.431 161.855 o
-3 -5 -8 27.224 27.238 0.578 94.724 o
-3 -5 -7 101.166 98.748 1.792 8.131 o
-3 -5 -6 14.991 15.624 0.351 278.898 o
-3 -5 -5 513.303 510.267 20.822 0.117 o
-3 -5 -4 36.370 35.162 0.604 66.345 o
-3 -5 -3 300.623 302.056 4.598 1.012 o
-3 -5 -2 130.673 137.119 2.233 4.863 o
-3 -5 -1 126.085 129.867 2.348 4.918 o
-3 -4 -10 27.649 28.831 0.741 70.469 o
-3 -4 -9 65.619 63.934 1.093 20.281 o
-3 -4 -8 3.811 3.816 0.275 790.553 o
-3 -4 -7 359.456 352.338 5.040 0.756 o
-3 -4 -6 249.328 246.732 3.746 1.499 o
-3 -4 -5 80.586 79.837 1.262 13.951 o
-3 -4 -4 61.304 63.700 1.005 22.867 o
-3 -4 -3 786.217 761.130 11.554 0.154 o
-3 -4 -2 290.163 295.589 4.900 1.008 o
-3 -4 -1 145.796 143.345 2.622 3.856 o
-3 -3 -11 69.195 69.732 1.390 15.408 o
-3 -3 -10 21.701 20.929 0.489 142.014 o
-3 -3 -9 217.977 216.235 3.376 1.920 o
-3 -3 -8 84.845 85.138 1.374 12.229 o
-3 -3 -7 53.331 53.454 0.887 30.378 o
-3 -3 -6 8.147 8.217 0.255 671.067 o
-3 -3 -5 105.247 105.347 1.788 7.681 o
-3 -3 -4 96.666 95.823 1.494 9.779 o
-3 -3 -3 259.817 256.004 3.859 1.393 o
-3 -3 -2 507.540 488.836 8.675 0.334 o
-3 -3 -1 359.348 374.519 6.048 0.652 o
-3 -2 -11 3.643 4.469 0.351 497.826 o
-3 -2 -10 29.821 30.186 0.579 85.371 o
-3 -2 -9 101.499 101.782 1.498 9.094 o
-3 -2 -8 305.871 300.856 5.010 0.941 o
-3 -2 -7 418.779 417.776 5.884 0.552 o
-3 -2 -6 7.759 7.923 0.188 1008.800 o
-3 -2 -5 102.116 102.832 2.466 5.880 o
-3 -2 -4 285.187 292.261 3.364 1.284 o
-3 -2 -3 203.096 193.702 2.170 2.740 o
-3 -2 -2 1629.530 1400.330 44.059 0.021 o
-3 -2 -1 249.053 249.891 3.199 1.634 o
-3 -1 -11 83.460 86.909 1.264 13.002 o
-3 -1 -10 1.982 1.951 0.237 1122.610 o
-3 -1 -9 30.817 32.087 0.467 95.334 o
-3 -1 -8 27.353 27.374 0.429 120.438 o
-3 -1 -7 24.210 25.187 0.393 147.694 o
-3 -1 -6 58.860 61.015 0.836 27.246 o
-3 -1 -5 526.632 531.793 6.164 0.381 o
-3 -1 -4 661.158 652.427 7.547 0.247 o
-3 -1 -3 51.859 49.813 1.442 19.579 o
-3 -1 -2 323.396 315.966 3.657 1.043 o
-3 -1 -1 396.072 407.500 8.188 0.455 o
-2 -11 -3 48.685 46.107 1.550 18.649 o
-2 -11 -2 51.471 49.613 1.562 17.741 o
-2 -11 -1 102.352 103.501 4.381 2.689 o
-2 -10 -6 467.824 462.760 10.153 0.315 o
-2 -10 -5 6.325 5.198 0.718 122.455 o
-2 -10 -4 132.356 137.295 6.013 1.457 o
-2 -10 -3 0.550 0.734 0.703 131.562 o
-2 -10 -2 29.469 31.051 1.475 25.012 o
-2 -10 -1 104.801 103.587 4.468 2.589 o
-2 -9 -7 38.000 35.818 1.141 33.163 o
-2 -9 -6 53.096 54.885 1.546 17.296 o
-2 -9 -5 54.191 53.752 2.322 9.598 o
-2 -9 -4 220.719 224.373 5.812 1.138 o
-2 -9 -3 237.338 235.958 5.689 1.102 o
-2 -9 -2 169.087 170.703 5.401 1.519 o
-2 -9 -1 12.419 14.445 0.911 71.453 o
-2 -8 -8 29.913 28.369 0.803 61.628 o
-2 -8 -7 62.641 60.171 1.270 18.960 o
-2 -8 -6 45.160 42.904 1.141 29.054 o
-2 -8 -5 151.469 156.324 3.228 3.017 o
-2 -8 -4 42.041 43.696 1.084 31.947 o
-2 -8 -3 19.406 19.086 0.685 100.735 o
-2 -8 -2 79.051 81.326 2.069 8.903 o
-2 -8 -1 274.844 277.318 11.365 0.394 o
-2 -7 -9 53.430 51.274 1.416 19.562 o
-2 -7 -8 3.744 3.917 0.452 308.771 o
-2 -7 -7 97.852 98.305 2.094 7.268 o
-2 -7 -6 74.070 74.945 1.468 13.592 o
-2 -7 -5 316.072 312.167 6.308 0.748 o
-2 -7 -4 375.053 359.458 8.386 0.481 o
-2 -7 -3 521.693 551.233 18.457 0.137 o
-2 -7 -2 151.270 165.841 3.336 2.863 o
-2 -7 -1 122.396 124.589 4.750 2.187 o
-2 -6 -10 209.973 203.231 2.524 2.418 o
-2 -6 -9 23.424 23.275 0.572 110.743 o
-2 -6 -8 38.736 39.848 0.900 42.339 o
-2 -6 -7 35.276 34.938 0.802 52.854 o
-2 -6 -6 121.522 118.390 2.245 5.447 o
-2 -6 -5 304.515 295.973 8.033 0.604 o
-2 -6 -4 558.693 552.507 10.972 0.243 o
-2 -6 -3 136.332 139.022 2.862 3.794 o
-2 -6 -2 416.254 427.953 12.367 0.275 o
-2 -6 -1 78.968 79.405 2.541 6.901 o
-2 -5 -10 111.223 112.632 1.694 7.388 o
-2 -5 -9 19.259 19.622 0.396 193.808 o
-2 -5 -8 25.084 24.925 0.497 119.473 o
-2 -5 -7 71.162 68.911 1.178 17.370 o
-2 -5 -6 5.942 5.707 0.489 255.222 o
-2 -5 -5 587.441 562.044 8.506 0.281 o
-2 -5 -4 650.236 632.683 12.551 0.183 o
-2 -5 -3 82.837 80.870 1.665 10.868 o
-2 -5 -2 299.481 303.845 5.871 0.839 o
-2 -5 -1 751.064 765.616 16.473 0.120 o
-2 -4 -11 49.279 49.387 0.866 34.110 o
-2 -4 -10 145.938 145.520 2.696 3.743 o
-2 -4 -9 94.685 94.875 1.407 10.408 o
-2 -4 -8 224.763 224.396 3.208 1.896 o
-2 -4 -7 98.961 105.150 3.449 3.887 o
-2 -4 -6 451.499 440.774 7.317 0.437 o
-2 -4 -5 340.629 334.747 6.022 0.716 o
-2 -4 -4 1412.170 1357.040 23.052 0.045 o
-2 -4 -3 59.143 56.780 0.992 24.978 o
-2 -4 -2 151.360 162.307 2.614 3.562 o
-2 -4 -1 623.919 645.830 16.105 0.145 o
-2 -3 -11 46.864 46.489 0.904 35.054 o
-2 -3 -10 180.458 181.122 2.663 2.875 o
-2 -3 -9 65.880 66.027 1.015 20.993 o
-2 -3 -8 194.657 188.589 3.146 2.361 o
-2 -3 -7 222.392 219.143 3.335 1.890 o
-2 -3 -6 170.467 174.587 2.484 3.217 o
-2 -3 -5 358.441 355.628 5.706 0.697 o
-2 -3 -4 13.929 13.720 0.286 375.690 o
-2 -3 -3 741.479 725.503 14.540 0.139 o
-2 -3 -2 80.915 82.574 1.271 13.628 o
-2 -3 -1 197.672 202.679 3.534 2.072 o
-2 -2 -11 69.729 69.338 1.001 19.679 o
-2 -2 -10 75.537 74.646 1.157 16.136 o
-2 -2 -9 173.051 176.084 2.534 3.122 o
-2 -2 -8 192.581 187.932 3.092 2.416 o
-2 -2 -7 162.196 162.390 2.334 3.620 o
-2 -2 -6 112.399 110.740 1.903 6.797 o
-2 -2 -5 69.068 67.708 1.393 15.561 o
-2 -2 -4 50.144 47.493 0.909 32.844 o
-2 -2 -3 550.955 533.944 8.692 0.300 o
-2 -2 -2 2073.620 1834.530 97.648 0.006 o
-2 -2 -1 2030.330 2049.350 40.103 0.018 o
-2 -1 -11 48.265 50.057 0.755 38.144 o
-2 -1 -10 157.810 161.805 2.101 3.951 o
-2 -1 -9 88.980 88.194 0.995 13.737 o
-2 -1 -8 382.124 379.041 4.398 0.735 o
-2 -1 -7 53.871 53.932 0.670 35.528 o
-2 -1 -6 989.216 987.716 11.387 0.109 o
-2 -1 -5 16.759 16.681 0.280 307.329 o
-2 -1 -4 783.513 760.044 8.902 0.178 o
-2 -1 -3 44.844 45.155 0.548 51.580 o
-2 -1 -2 252.182 253.150 5.061 1.163 o
-1 -11 -4 44.825 43.053 2.950 6.761 o
-1 -11 -3 67.636 62.161 2.386 8.397 o
-1 -11 -2 92.891 91.875 4.034 3.199 o
-1 -11 -1 229.159 236.933 9.717 0.543 o
-1 -10 -6 136.462 136.832 2.928 3.729 o
-1 -10 -5 25.337 25.137 1.590 23.001 o
-1 -10 -4 80.213 78.779 2.005 9.238 o
-1 -10 -3 28.019 27.070 1.050 44.365 o
-1 -10 -2 47.183 47.456 2.256 10.585 o
-1 -10 -1 110.497 114.953 4.728 2.299 o
-1 -9 -7 76.738 73.063 1.800 10.931 o
-1 -9 -6 0.113 0.074 0.650 154.065 o
-1 -9 -5 37.978 37.910 1.048 36.510 o
-1 -9 -4 109.376 110.092 2.433 5.593 o
-1 -9 -3 165.617 164.956 5.401 1.543 o
-1 -9 -2 194.004 199.193 8.415 0.731 o
-1 -9 -1 160.010 173.470 6.767 1.110 o
-1 -8 -8 285.394 276.671 5.060 1.023 o
-1 -8 -7 13.702 11.923 0.511 189.951 o
-1 -8 -6 54.917 56.541 1.366 19.550 o
-1 -8 -5 188.255 184.525 7.537 0.886 o
-1 -8 -4 36.085 36.255 0.944 43.012 o
-1 -8 -3 48.231 48.431 1.396 21.282 o
-1 -8 -2 624.492 643.007 14.797 0.159 o
-1 -8 -1 116.182 127.272 5.162 1.944 o
-1 -7 -9 2.261 1.430 0.486 273.304 o
-1 -7 -8 15.457 15.748 0.651 120.769 o
-1 -7 -7 0.294 0.611 0.353 522.286 o
-1 -7 -6 8.082 8.122 0.376 378.137 o
-1 -7 -5 3.849 4.490 0.451 308.556 o
-1 -7 -4 104.403 106.329 2.234 6.356 o
-1 -7 -3 422.282 431.432 8.586 0.407 o
-1 -7 -2 76.890 78.662 2.325 7.879 o
-1 -7 -1 20.546 20.735 1.041 50.636 o
-1 -6 -10 14.331 14.278 0.442 222.425 o
-1 -6 -9 193.217 185.918 3.499 2.201 o
-1 -6 -8 107.597 106.947 2.072 6.655 o
-1 -6 -7 89.433 89.368 1.708 9.682 o
-1 -6 -6 49.226 47.049 0.989 31.018 o
-1 -6 -5 21.996 22.809 0.840 69.109 o
-1 -6 -4 288.097 292.052 5.824 0.882 o
-1 -6 -3 8.855 8.974 0.367 378.229 o
-1 -6 -2 87.570 89.069 1.853 9.136 o
-1 -6 -1 526.042 527.958 22.166 0.104 o
-1 -5 -11 57.001 55.745 0.947 26.874 o
-1 -5 -10 11.646 11.465 0.367 328.017 o
-1 -5 -9 23.215 22.189 0.416 154.194 o
-1 -5 -8 1.567 1.259 0.249 1033.700 o
-1 -5 -7 4.551 5.323 0.340 513.926 o
-1 -5 -6 16.865 15.953 0.540 154.282 o
-1 -5 -5 4.684 5.073 0.267 789.556 o
-1 -5 -4 92.717 93.073 1.988 8.083 o
-1 -5 -3 328.129 335.187 6.790 0.664 o
-1 -5 -2 46.990 50.141 1.077 28.820 o
-1 -5 -1 91.798 96.170 3.904 3.360 o
-1 -4 -11 42.111 42.666 0.777 44.711 o
-1 -4 -10 24.077 24.042 0.561 110.278 o
-1 -4 -9 44.441 44.586 0.708 45.092 o
-1 -4 -8 46.618 43.945 0.643 46.188 o
-1 -4 -7 89.321 89.868 1.682 9.800 o
-1 -4 -6 133.306 138.973 2.271 4.696 o
-1 -4 -5 287.351 276.928 4.186 1.165 o
-1 -4 -4 434.773 430.974 7.774 0.434 o
-1 -4 -3 17.519 16.801 0.504 164.283 o
-1 -4 -2 223.127 227.429 4.610 1.438 o
-1 -3 -11 74.864 78.441 1.224 15.305 o
-1 -3 -10 10.859 10.941 0.370 336.428 o
-1 -3 -9 11.932 12.373 0.401 282.847 o
-1 -3 -8 149.342 146.833 2.133 4.324 o
-1 -3 -7 68.454 71.625 0.963 20.160 o
-1 -3 -6 18.645 19.055 0.444 178.527 o
-1 -3 -5 35.893 36.324 1.084 36.285 o
-1 -3 -4 614.690 599.436 10.749 0.223 o
-1 -3 -3 1745.790 1555.430 44.739 0.019 o
-1 -3 -2 569.487 584.993 10.349 0.246 o
-1 -3 -1 646.396 664.133 13.258 0.172 o
-1 -2 -11 108.465 108.825 1.370 8.688 o
-1 -2 -10 135.827 134.946 1.995 5.115 o
-1 -2 -9 108.713 109.987 1.684 7.650 o
-1 -2 -8 1057.050 1066.170 23.294 0.060 o
-1 -2 -7 39.913 39.584 0.582 59.526 o
-1 -2 -6 22.627 21.498 0.392 167.287 o
-1 -2 -5 330.003 339.107 4.565 0.884 o
-1 -2 -4 251.641 243.239 5.804 1.031 o
-1 -2 -3 53.220 54.049 1.692 15.412 o
-1 -2 -1 994.007 958.928 46.155 0.025 o
-1 -1 -12 72.694 72.495 1.024 18.284 o
-1 -1 -11 13.527 13.786 0.364 295.027 o
-1 -1 -10 69.318 70.951 0.919 20.537 o
-1 -1 -9 16.287 15.466 0.318 291.459 o
-1 -1 -8 45.600 45.887 0.519 51.504 o
-1 -1 -7 328.033 323.453 3.497 1.033 o
-1 -1 -6 16.581 15.502 0.234 361.887 o
-1 -1 -5 121.945 123.424 1.610 6.689 o
-1 -1 -4 1026.970 999.270 13.977 0.095 o
-1 -1 -3 755.027 738.026 13.268 0.147 o
-1 -1 -2 2014.170 1502.800 115.668 0.004 o
0 0 2 543.637 524.006 29.801 0.064 o
0 0 4 1647.060 1413.960 40.125 0.023 o
0 0 6 624.988 603.299 9.815 0.234 o
0 0 8 1684.080 1698.310 23.967 0.034 o
0 0 10 711.227 737.831 10.429 0.183 o
0 0 12 157.539 166.292 3.507 2.651 o
0 1 1 879.281 617.621 18.045 0.104 o
0 1 2 8.607 7.845 0.159 1115.400 o
0 1 3 124.614 117.470 1.506 6.938 o
0 1 4 1592.870 1530.530 17.672 0.044 o
0 1 5 652.500 642.260 7.404 0.255 o
0 1 6 21.817 20.044 0.380 181.223 o
0 1 7 4.868 4.794 0.202 1255.680 o
0 1 8 743.697 738.587 8.507 0.195 o
0 1 9 218.717 222.425 2.619 2.177 o
0 1 10 49.240 50.404 0.696 39.271 o
0 1 11 33.752 34.901 0.558 75.167 o
0 1 12 267.483 261.820 3.102 1.506 o
0 2 2 53.730 54.469 1.005 27.145 o
0 2 3 1000.590 943.850 23.873 0.063 o
0 2 4 3638.090 3399.730 92.801 0.004 o
0 2 5 585.942 578.643 6.965 0.309 o
0 2 6 53.689 53.594 0.703 34.907 o
0 2 7 207.848 214.024 3.404 1.999 o
0 2 8 13.174 12.271 0.295 392.923 o
0 2 9 202.908 204.966 2.423 2.542 o
0 2 10 0.420 0.307 0.267 913.708 o
0 2 11 79.740 81.900 1.124 14.976 o
0 2 12 13.005 13.289 0.424 249.000 o
0 3 1 663.920 731.866 39.756 0.036 o
0 3 2 786.470 811.370 22.713 0.080 o
0 3 3 176.718 168.122 4.192 2.037 o
0 3 4 1241.070 1211.220 29.200 0.041 o
0 3 5 463.012 447.013 6.310 0.466 o
0 3 6 251.265 251.722 4.652 1.258 o
0 3 7 3.947 4.716 0.180 1590.470 o
0 3 8 17.662 19.278 0.413 198.091 o
0 3 9 289.508 289.655 3.389 1.266 o
0 3 10 45.524 44.836 0.783 40.933 o
0 3 11 28.155 28.085 0.520 100.635 o
0 4 0 402.891 427.927 17.091 0.175 o
0 4 1 510.105 532.547 14.907 0.186 o
0 4 2 291.148 311.065 8.711 0.551 o
0 4 3 560.653 573.730 11.429 0.230 o
0 4 4 955.437 923.612 26.114 0.059 o
0 4 5 38.810 39.966 0.803 47.306 o
0 4 6 131.789 125.066 2.442 4.666 o
0 4 7 327.168 325.769 5.330 0.822 o
0 4 8 73.360 71.628 1.130 17.132 o
0 4 9 18.570 18.105 0.359 224.095 o
0 4 10 164.137 162.977 1.965 3.914 o
0 4 11 27.918 27.303 0.760 69.064 o
0 5 1 17.739 18.309 1.041 52.651 o
0 5 2 176.314 183.865 5.574 1.406 o
0 5 3 0.070 0.014 0.241 1119.580 o
0 5 4 63.945 60.475 1.315 18.051 o
0 5 5 31.373 28.537 0.624 78.438 o
0 5 6 12.743 14.527 0.500 194.823 o
0 5 7 0.055 0.008 0.314 660.811 o
0 5 8 0.011 0.598 0.359 504.935 o
0 5 9 3.905 3.863 0.242 989.337 o
0 5 10 66.066 62.312 0.917 22.907 o
0 5 11 78.532 75.193 1.268 14.585 o
0 6 0 414.700 486.835 19.260 0.141 o
0 6 1 1245.630 1332.370 52.835 0.018 o
0 6 2 5.571 4.978 0.321 557.715 o
0 6 3 345.832 370.005 10.367 0.390 o
0 6 4 51.537 50.774 1.143 25.454 o
0 6 5 181.434 175.249 3.581 2.313 o
0 6 6 290.388 290.918 5.246 0.961 o
0 6 7 410.567 405.789 8.179 0.444 o
0 6 8 1.845 1.436 0.397 409.527 o
0 6 9 26.468 25.962 0.783 69.129 o
0 6 10 202.595 206.703 2.845 2.332 o
0 7 1 36.215 40.168 1.692 18.433 o
0 7 2 121.497 132.202 3.742 3.035 o
0 7 3 13.426 15.304 0.598 144.366 o
0 7 4 191.181 196.766 4.008 1.925 o
0 7 5 18.015 18.020 0.628 118.663 o
0 7 6 209.885 208.875 3.815 1.836 o
0 7 7 36.445 34.395 0.816 51.073 o
0 7 8 11.955 11.546 0.537 183.572 o
0 7 9 17.915 17.014 0.661 111.373 o
0 8 0 65.874 66.195 2.689 6.997 o
0 8 1 123.788 138.420 5.552 1.682 o
0 8 2 24.697 26.114 1.258 34.563 o
0 8 3 29.016 31.509 1.042 43.151 o
0 8 4 1257.950 1257.370 24.999 0.047 o
0 8 5 66.110 63.249 1.462 15.655 o
0 8 6 34.662 34.255 0.810 53.232 o
0 8 7 93.028 90.540 2.079 7.779 o
0 8 8 127.380 121.536 3.826 2.943 o
0 8 9 94.725 91.138 1.860 8.536 o
0 9 1 8.760 9.435 0.500 225.886 o
0 9 2 152.576 159.719 6.420 1.237 o
0 9 3 0.366 0.355 0.479 283.356 o
0 9 4 266.309 272.177 5.874 0.947 o
0 9 5 323.113 316.359 6.436 0.720 o
0 9 6 136.664 137.393 4.093 2.536 o
0 9 7 23.364 21.448 0.701 88.361 o
0 9 8 9.501 9.196 0.783 99.494 o
0 10 0 1851.480 1844.750 72.876 0.009 o
0 10 1 22.407 24.804 0.871 64.199 o
0 10 2 47.346 49.538 2.212 10.863 o
0 10 3 658.698 683.599 27.111 0.069 o
0 10 4 32.309 30.952 0.941 47.599 o
0 10 5 188.247 182.644 7.551 0.885 o
0 10 6 62.755 61.080 1.580 15.005 o
0 11 1 20.581 20.246 0.852 70.329 o
0 11 2 0.882 2.082 1.084 55.345 o
0 11 3 0.207 0.220 0.843 91.629 o
0 11 4 59.871 55.322 3.622 4.418 o
1 0 2 293.517 289.633 3.517 1.227 o
1 0 3 491.948 495.484 5.517 0.445 o
1 0 4 464.467 439.179 10.043 0.326 o
1 0 5 32.380 32.314 0.451 92.754 o
1 0 6 519.750 513.955 5.134 0.422 o
1 0 7 0.098 0.097 0.135 3571.600 o
1 0 8 174.020 181.068 1.846 3.572 o
1 0 9 240.169 249.359 2.532 1.882 o
1 0 10 77.811 77.198 0.841 18.201 o
1 0 11 179.041 179.898 2.151 3.264 o
1 0 12 91.712 96.762 1.361 10.839 o
1 1 0 392.508 373.322 33.119 0.056 o
1 1 1 2200.060 1721.820 49.278 0.015 o
1 1 2 2016.880 1464.580 55.785 0.014 o
1 1 3 754.698 746.065 9.422 0.182 o
1 1 4 1027.270 981.806 11.416 0.105 o
1 1 5 122.041 124.736 1.622 6.623 o
1 1 6 16.616 16.039 0.405 222.778 o
1 1 7 328.169 328.751 3.957 0.971 o
1 1 8 45.527 45.226 0.609 48.090 o
1 1 9 16.205 15.777 0.331 280.001 o
1 1 10 69.571 72.179 0.945 19.997 o
1 1 11 13.533 13.584 0.372 288.254 o
1 1 12 72.745 72.654 1.107 17.393 o
1 2 0 921.304 953.011 31.498 0.046 o
1 2 1 993.762 928.697 22.878 0.067 o
1 2 2 5194.380 4337.830 171.518 0.002 o
1 2 3 53.254 53.887 2.283 9.909 o
1 2 4 251.184 258.568 3.655 1.480 o
1 2 5 330.361 340.151 4.117 0.930 o
1 2 6 22.648 21.878 0.376 171.265 o
1 2 7 39.697 40.605 0.640 55.577 o
1 2 8 1056.380 1064.830 14.206 0.088 o
1 2 9 108.873 112.634 1.366 8.517 o
1 2 10 136.164 135.181 2.749 3.984 o
1 2 11 108.500 110.046 1.378 8.613 o
1 3 0 25.127 25.470 0.601 97.950 o
1 3 1 646.502 650.422 21.087 0.101 o
1 3 2 569.978 567.372 10.259 0.251 o
1 3 3 1742.300 1561.100 61.467 0.013 o
1 3 4 614.612 607.390 9.093 0.249 o
1 3 5 36.038 37.681 0.739 55.019 o
1 3 6 18.463 19.192 0.298 254.578 o
1 3 7 68.353 72.377 0.936 20.405 o
1 3 8 149.376 148.040 1.767 4.757 o
1 3 9 11.987 12.228 0.306 399.972 o
1 3 10 10.819 11.349 0.468 235.451 o
1 3 11 74.555 77.464 1.129 16.308 o
1 4 0 13.548 14.391 0.325 330.633 o
1 4 1 817.270 855.551 33.965 0.044 o
1 4 2 222.957 236.069 5.334 1.227 o
1 4 3 17.696 17.965 0.583 132.810 o
1 4 4 434.682 441.191 6.611 0.484 o
1 4 5 286.771 277.948 4.231 1.157 o
1 4 6 133.660 134.427 2.138 4.965 o
1 4 7 88.898 89.522 1.100 13.042 o
1 4 8 46.551 45.208 0.614 46.847 o
1 4 9 44.481 44.178 0.636 48.500 o
1 4 10 24.029 23.666 0.453 136.384 o
1 4 11 42.230 43.465 0.637 51.211 o
1 5 0 1.986 1.654 0.239 1111.530 o
1 5 1 91.947 98.010 2.254 7.012 o
1 5 2 46.799 51.930 1.046 29.386 o
1 5 3 327.788 349.543 9.260 0.468 o
1 5 4 92.491 90.673 2.287 7.037 o
1 5 5 4.676 5.775 0.463 287.196 o
1 5 6 16.881 15.332 0.453 195.688 o
1 5 7 4.528 5.065 0.330 546.218 o
1 5 8 1.564 1.377 0.256 980.618 o
1 5 9 23.312 22.085 0.450 143.937 o
1 5 10 11.600 12.343 0.431 257.387 o
1 5 11 56.975 54.247 0.813 30.167 o
1 6 0 138.629 144.924 4.294 2.336 o
1 6 1 525.769 570.758 12.798 0.215 o
1 6 2 87.670 93.925 2.145 7.715 o
1 6 3 8.720 9.362 0.492 232.290 o
1 6 4 288.677 282.810 6.578 0.790 o
1 6 5 22.049 22.805 0.640 100.630 o
1 6 6 48.974 48.016 0.985 31.036 o
1 6 7 89.195 88.544 1.927 8.698 o
1 6 8 107.813 110.589 2.086 6.522 o
1 6 9 193.503 191.302 2.636 2.641 o
1 6 10 14.461 13.553 0.467 207.454 o
1 7 0 47.647 51.101 1.472 19.721 o
1 7 1 20.697 23.704 0.720 87.626 o
1 7 2 77.120 82.362 1.919 9.799 o
1 7 3 423.488 428.830 13.211 0.250 o
1 7 4 104.354 104.894 3.496 3.737 o
1 7 5 3.912 4.438 0.330 558.309 o
1 7 6 8.176 8.099 0.417 317.437 o
1 7 7 0.281 -0.096 0.408 391.999 o
1 7 8 15.377 16.116 0.770 91.811 o
1 7 9 2.338 2.384 0.732 120.970 o
1 8 0 0.903 0.723 0.321 630.130 o
1 8 1 115.981 128.779 3.635 3.240 o
1 8 2 624.180 647.932 14.843 0.159 o
1 8 3 48.063 47.457 1.778 15.312 o
1 8 4 36.012 39.948 1.328 26.822 o
1 8 5 188.309 188.134 3.438 2.269 o
1 8 6 55.030 56.052 1.187 22.684 o
1 8 7 13.799 12.855 0.564 160.988 o
1 8 8 285.565 276.803 5.068 1.021 o
1 9 0 7.719 8.126 0.475 255.686 o
1 9 1 159.884 166.878 4.785 1.838 o
1 9 2 193.428 215.313 9.999 0.547 o
1 9 3 166.138 177.471 5.974 1.317 o
1 9 4 109.324 114.127 2.894 4.574 o
1 9 5 37.786 37.392 0.958 40.875 o
1 9 6 0.126 0.091 0.449 323.605 o
1 9 7 76.761 74.743 1.566 12.496 o
1 10 0 38.213 41.199 1.497 21.913 o
1 10 1 110.639 117.027 3.328 3.801 o
1 10 2 47.503 50.967 3.817 4.149 o
1 10 3 27.957 30.571 0.842 58.901 o
1 10 4 80.042 79.713 2.407 7.371 o
1 10 5 25.204 24.660 1.089 43.892 o
1 10 6 136.539 131.535 3.206 3.438 o
1 11 0 0.013 -0.070 0.598 182.418 o
1 11 1 228.903 244.114 6.855 0.891 o
1 11 2 92.723 97.496 3.514 3.927 o
1 11 3 67.601 72.674 2.203 9.122 o
1 11 4 44.683 46.079 2.321 10.245 o
2 0 0 1348.910 1328.160 67.258 0.012 o
2 0 1 933.450 876.432 24.882 0.064 o
2 0 2 690.535 660.700 13.206 0.165 o
2 0 3 512.429 499.827 6.032 0.408 o
2 0 4 74.906 79.737 0.881 18.266 o
2 0 5 90.706 85.764 1.128 12.889 o
2 0 6 1415.590 1368.440 14.556 0.057 o
2 0 7 54.641 55.404 0.609 36.051 o
2 0 8 43.624 46.558 0.534 52.831 o
2 0 9 633.390 618.331 6.183 0.288 o
2 0 10 264.621 270.046 3.170 1.484 o
2 0 11 0.975 1.224 0.304 698.854 o
2 1 1 1506.140 1291.340 27.741 0.037 o
2 1 2 252.370 248.770 3.327 1.583 o
2 1 3 44.912 44.627 0.631 48.070 o
2 1 4 783.103 784.277 9.757 0.168 o
2 1 5 16.700 17.824 0.529 155.578 o
2 1 6 988.948 987.553 11.894 0.107 o
2 1 7 53.803 53.010 0.668 35.946 o
2 1 8 382.206 381.212 4.415 0.732 o
2 1 9 88.871 87.171 1.095 13.248 o
2 1 10 157.796 160.431 1.943 4.129 o
2 1 11 48.094 49.750 0.730 39.228 o
2 2 0 295.866 290.567 4.752 1.021 o
2 2 1 2030.070 1994.040 46.282 0.016 o
2 2 2 2073.690 2052.880 57.390 0.012 o
2 2 3 550.976 537.869 6.795 0.345 o
2 2 4 50.098 48.343 0.648 41.004 o
2 2 5 69.181 71.021 0.869 21.166 o
2 2 6 112.470 114.276 1.256 8.490 o
2 2 7 162.097 162.666 1.786 4.137 o
2 2 8 192.451 187.249 2.220 2.926 o
2 2 9 173.195 175.945 1.948 3.570 o
2 2 10 75.859 74.987 1.031 17.210 o
2 2 11 69.749 69.456 0.946 20.314 o
2 3 0 3217.180 2896.980 78.380 0.006 o
2 3 1 197.610 209.955 3.136 2.228 o
2 3 2 80.992 83.429 1.402 12.632 o
2 3 3 741.991 741.162 16.680 0.121 o
2 3 4 13.940 13.217 0.235 450.114 o
2 3 5 358.631 350.528 4.089 0.845 o
2 3 6 170.255 173.549 2.050 3.579 o
2 3 7 222.349 217.505 2.680 2.142 o
2 3 8 194.795 194.191 2.123 2.888 o
2 3 9 65.604 65.491 0.803 24.173 o
2 3 10 180.574 186.528 2.060 3.236 o
2 3 11 47.119 45.669 0.658 44.321 o
2 4 0 3347.420 3119.990 208.390 0.001 o
2 4 1 624.642 648.009 17.913 0.127 o
2 4 2 151.275 155.958 2.609 3.631 o
2 4 3 59.169 57.772 1.218 20.836 o
2 4 4 1412.270 1388.750 24.443 0.042 o
2 4 5 340.601 346.938 7.780 0.559 o
2 4 6 451.344 455.099 5.446 0.512 o
2 4 7 99.222 101.289 1.904 7.768 o
2 4 8 224.175 224.783 2.654 2.098 o
2 4 9 94.688 93.369 1.100 11.964 o
2 4 10 146.066 148.881 2.150 4.365 o
2 4 11 49.372 50.150 0.711 38.780 o
2 5 0 227.858 241.960 4.793 1.336 o
2 5 1 752.238 773.785 17.681 0.111 o
2 5 2 299.190 306.572 6.093 0.809 o
2 5 3 82.784 82.373 1.867 9.664 o
2 5 4 650.295 628.907 11.210 0.202 o
2 5 5 587.619 573.560 10.113 0.246 o
2 5 6 5.927 6.095 0.262 762.010 o
2 5 7 70.907 67.938 0.921 20.494 o
2 5 8 25.050 25.515 0.599 98.531 o
2 5 9 19.323 19.152 0.451 171.426 o
2 5 10 110.894 112.794 1.825 7.036 o
2 6 0 575.036 582.270 11.517 0.223 o
2 6 1 79.125 80.403 1.856 10.080 o
2 6 2 415.990 438.043 9.926 0.354 o
2 6 3 136.352 141.332 2.825 3.818 o
2 6 4 558.644 549.348 12.656 0.212 o
2 6 5 305.117 306.943 6.887 0.708 o
2 6 6 121.365 122.021 2.259 5.362 o
2 6 7 35.339 35.433 0.730 57.717 o
2 6 8 38.973 39.471 0.723 51.965 o
2 6 9 23.401 22.905 0.507 126.549 o
2 6 10 209.790 204.889 2.590 2.381 o
2 7 0 0.187 0.153 0.205 1546.400 o
2 7 1 122.361 127.815 2.980 4.013 o
2 7 2 151.335 163.780 3.832 2.486 o
2 7 3 521.399 566.132 12.990 0.213 o
2 7 4 374.857 367.328 14.618 0.233 o
2 7 5 315.424 314.498 10.103 0.436 o
2 7 6 74.034 75.877 1.593 12.542 o
2 7 7 97.968 97.509 1.911 7.931 o
2 7 8 3.705 3.790 0.517 237.452 o
2 7 9 53.523 55.396 0.913 29.198 o
2 8 0 29.839 31.717 1.012 44.401 o
2 8 1 275.248 288.638 6.700 0.793 o
2 8 2 79.147 86.502 2.003 9.063 o
2 8 3 19.352 19.797 0.593 122.161 o
2 8 4 41.983 44.765 1.503 20.772 o
2 8 5 151.934 150.677 6.304 1.285 o
2 8 6 44.935 44.722 1.722 16.599 o
2 8 7 62.597 59.764 1.306 18.523 o
2 8 8 30.119 27.978 0.854 57.059 o
2 9 0 484.626 510.150 15.226 0.187 o
2 9 1 12.477 13.510 0.737 104.688 o
2 9 2 168.952 178.584 4.132 2.087 o
2 9 3 237.014 255.104 5.785 1.057 o
2 9 4 221.134 224.346 5.234 1.279 o
2 9 5 54.009 54.705 1.706 15.098 o
2 9 6 53.240 53.367 1.384 19.932 o
2 9 7 37.869 35.425 0.975 40.571 o
2 10 0 152.197 153.825 4.386 2.145 o
2 10 1 104.951 110.852 4.078 2.950 o
2 10 2 29.352 31.707 1.099 39.692 o
2 10 3 0.533 0.409 0.443 332.382 o
2 10 4 132.436 139.804 4.293 2.403 o
2 10 5 6.384 6.854 0.900 78.480 o
2 10 6 467.834 454.456 9.097 0.352 o
2 11 0 8.859 10.523 0.736 111.496 o
2 11 1 102.020 105.608 3.083 4.467 o
2 11 2 51.239 51.875 3.362 5.184 o
2 11 3 48.892 48.944 1.357 21.851 o
3 0 1 284.602 289.738 3.497 1.270 o
3 0 2 9.797 9.444 0.219 702.293 o
3 0 3 76.118 77.148 1.005 17.159 o
3 0 4 93.915 96.517 1.065 12.028 o
3 0 5 44.234 46.385 0.544 51.716 o
3 0 6 105.447 104.236 1.524 8.590 o
3 0 7 123.118 124.909 1.488 6.851 o
3 0 8 54.498 52.450 0.691 35.062 o
3 0 9 68.519 70.092 0.978 20.175 o
3 0 10 26.778 28.697 0.518 103.944 o
3 0 11 0.532 0.538 0.341 560.742 o
3 1 0 417.041 408.349 5.155 0.601 o
3 1 1 395.761 402.767 7.457 0.497 o
3 1 2 323.728 318.586 4.008 0.995 o
3 1 4 660.815 648.228 9.119 0.226 o
3 1 5 526.784 539.746 6.459 0.370 o
3 1 6 58.860 60.050 0.870 26.790 o
3 1 7 24.070 25.191 0.392 148.574 o
3 1 8 27.199 27.360 0.431 120.657 o
3 1 9 30.700 30.913 0.890 52.416 o
3 1 10 2.020 1.808 0.311 660.866 o
3 1 11 83.766 86.045 1.224 13.281 o
3 2 0 503.459 516.469 15.790 0.175 o
3 2 1 250.156 255.278 4.330 1.330 o
3 2 2 1629.810 1579.410 43.403 0.021 o
3 2 3 203.576 195.762 2.475 2.567 o
3 2 4 285.300 288.654 4.241 1.141 o
3 2 5 102.058 103.260 1.545 8.814 o
3 2 6 7.672 7.828 0.210 900.315 o
3 2 7 418.131 414.874 4.825 0.613 o
3 2 8 305.844 310.575 3.592 1.124 o
3 2 9 101.361 99.993 1.167 10.479 o
3 2 10 29.927 29.660 0.654 76.447 o
3 2 11 3.600 4.217 0.370 452.786 o
3 3 0 148.551 157.679 2.602 3.675 o
3 3 1 359.690 367.028 5.596 0.694 o
3 3 2 507.205 491.641 14.076 0.205 o
3 3 3 259.931 255.778 4.027 1.355 o
3 3 4 96.633 97.651 1.529 9.552 o
3 3 5 105.339 108.709 1.405 8.828 o
3 3 6 8.215 8.208 0.205 877.900 o
3 3 7 53.370 53.530 0.789 32.848 o
3 3 8 84.706 85.464 0.999 14.678 o
3 3 9 217.825 222.134 2.524 2.224 o
3 3 10 21.683 21.295 0.418 164.448 o
3 3 11 69.122 70.637 0.910 20.750 o
3 4 0 192.389 195.000 3.497 2.169 o
3 4 1 146.116 147.312 2.229 4.285 o
3 4 2 290.820 304.740 4.540 1.047 o
3 4 3 786.175 776.626 11.591 0.153 o
3 4 4 61.262 63.279 1.029 22.552 o
3 4 5 80.636 82.002 1.157 14.566 o
3 4 6 249.827 248.001 3.204 1.634 o
3 4 7 359.616 358.308 3.998 0.841 o
3 4 8 3.745 3.530 0.217 1216.020 o
3 4 9 65.609 64.687 0.810 24.228 o
3 4 10 27.977 27.901 0.488 106.759 o
3 5 0 208.759 225.704 3.695 1.832 o
3 5 1 126.027 128.487 2.337 4.960 o
3 5 2 130.933 131.817 2.428 4.618 o
3 5 3 300.677 306.971 4.617 1.002 o
3 5 4 36.373 37.134 0.716 56.571 o
3 5 5 513.253 516.837 8.515 0.328 o
3 5 6 14.815 15.207 0.370 267.412 o
3 5 7 101.058 97.047 2.354 6.335 o
3 5 8 27.246 27.142 0.516 105.155 o
3 5 9 21.476 20.935 0.468 149.802 o
3 5 10 33.807 34.097 0.608 71.012 o
3 6 0 49.549 53.190 0.925 31.268 o
3 6 1 65.809 66.417 1.242 18.000 o
3 6 2 306.723 310.646 6.720 0.721 o
3 6 3 757.700 773.966 15.318 0.127 o
3 6 4 34.174 34.703 0.632 67.739 o
3 6 5 126.878 125.829 1.753 6.085 o
3 6 6 13.324 13.581 0.366 296.864 o
3 6 7 194.389 197.982 2.484 2.669 o
3 6 8 88.423 87.433 1.194 12.708 o
3 6 9 49.184 48.867 0.799 36.447 o
3 7 0 2.605 2.299 0.241 1065.320 o
3 7 1 5.717 6.429 0.388 388.646 o
3 7 2 241.014 242.037 5.568 1.108 o
3 7 3 237.131 242.977 5.635 1.104 o
3 7 4 108.251 110.581 2.646 5.141 o
3 7 5 230.062 229.886 6.744 0.921 o
3 7 6 130.728 130.336 2.389 4.707 o
3 7 7 187.971 185.288 2.567 2.799 o
3 7 8 26.878 26.535 0.560 99.512 o
3 7 9 126.959 127.558 1.707 6.132 o
3 8 0 112.979 115.504 2.675 4.886 o
3 8 1 295.014 298.870 6.255 0.804 o
3 8 2 114.591 116.631 2.730 4.725 o
3 8 3 100.848 105.822 2.496 5.797 o
3 8 4 150.166 152.849 4.257 2.246 o
3 8 5 0.332 0.160 0.515 245.382 o
3 8 6 58.162 57.248 1.517 16.718 o
3 8 7 223.279 219.788 3.424 1.848 o
3 8 8 218.760 214.746 2.995 2.068 o
3 9 0 4.582 4.145 0.445 313.733 o
3 9 1 92.009 95.859 2.342 6.762 o
3 9 2 33.009 33.622 0.924 47.217 o
3 9 3 17.943 17.907 0.669 108.451 o
3 9 4 6.430 5.761 0.503 240.003 o
3 9 5 48.019 47.428 1.333 22.724 o
3 9 6 39.243 40.055 1.219 29.206 o
3 10 0 101.374 100.144 2.317 6.368 o
3 10 1 64.567 66.982 2.085 10.202 o
3 10 2 8.303 7.794 0.467 261.228 o
3 10 3 13.024 13.626 0.648 129.353 o
3 10 4 18.501 19.159 0.761 87.281 o
3 10 5 47.094 49.298 1.807 14.959 o
3 11 0 11.403 11.068 1.116 49.873 o
3 11 1 11.835 13.500 0.864 79.439 o
3 11 2 7.456 8.360 0.813 94.454 o
4 0 0 192.691 183.426 3.543 2.194 o
4 0 1 30.912 33.423 0.426 98.448 o
4 0 2 5.969 5.580 0.186 1278.380 o
4 0 3 1.478 1.421 0.128 3759.370 o
4 0 4 79.618 80.442 0.971 16.341 o
4 0 5 68.349 68.403 0.783 22.931 o
4 0 6 207.066 212.309 2.302 2.497 o
4 0 7 52.559 54.193 1.160 24.224 o
4 0 8 19.437 18.406 0.418 186.816 o
4 0 9 30.942 29.222 0.519 91.896 o
4 0 10 61.616 60.129 0.921 24.773 o
4 0 11 26.627 28.551 0.604 90.626 o
4 1 0 120.065 124.534 1.526 6.950 o
4 1 1 331.700 338.383 4.306 0.909 o
4 1 2 137.587 139.565 1.990 4.984 o
4 1 3 1292.120 1275.730 19.854 0.055 o
4 1 4 67.624 68.219 0.901 21.678 o
4 1 5 122.676 124.071 1.617 6.618 o
4 1 6 126.975 123.061 1.486 6.690 o
4 1 7 103.797 103.070 1.553 8.657 o
4 1 8 105.776 108.633 1.324 9.069 o
4 1 9 70.544 68.641 1.046 19.027 o
4 1 10 27.427 27.977 0.544 98.827 o
4 2 0 131.628 132.949 2.048 5.208 o
4 2 1 934.000 892.293 25.290 0.062 o
4 2 2 442.579 443.181 12.360 0.265 o
4 2 3 19.414 21.451 0.372 196.797 o
4 2 4 65.732 65.549 0.891 22.864 o
4 2 5 18.604 18.722 0.344 229.580 o
4 2 6 184.562 188.214 2.429 2.914 o
4 2 7 179.064 176.008 2.100 3.337 o
4 2 8 307.961 309.975 3.660 1.108 o
4 2 9 40.197 41.223 0.677 52.485 o
4 2 10 42.069 43.158 0.659 50.393 o
4 3 0 1445.040 1494.080 34.127 0.030 o
4 3 1 379.990 362.706 6.458 0.601 o
4 3 2 95.947 96.703 1.402 10.214 o
4 3 3 24.339 25.217 0.492 122.694 o
4 3 4 22.465 21.855 0.393 166.781 o
4 3 5 238.011 235.583 2.988 1.822 o
4 3 6 25.190 24.299 0.417 138.923 o
4 3 7 119.727 118.261 1.502 7.210 o
4 3 8 184.353 188.387 2.248 3.031 o
4 3 9 203.802 201.141 2.410 2.561 o
4 3 10 60.516 61.059 0.865 26.004 o
4 4 0 1172.730 1224.580 21.681 0.057 o
4 4 1 625.102 643.565 9.592 0.231 o
4 4 2 83.024 83.019 1.301 13.083 o
4 4 3 109.772 112.308 1.540 7.939 o
4 4 4 267.165 262.345 3.522 1.415 o
4 4 5 105.034 106.220 1.480 8.698 o
4 4 6 258.336 258.413 3.952 1.373 o
4 4 7 140.449 139.314 1.682 5.347 o
4 4 8 292.751 290.891 3.429 1.242 o
4 4 9 130.587 130.576 1.628 6.044 o
4 4 10 103.255 105.568 1.359 9.297 o
4 5 0 332.040 327.767 5.866 0.753 o
4 5 1 128.403 130.944 2.397 4.751 o
4 5 2 54.748 54.942 0.891 29.267 o
4 5 3 45.110 43.807 0.821 40.085 o
4 5 4 1757.970 1736.040 39.278 0.022 o
4 5 5 766.297 736.953 11.396 0.162 o
4 5 6 295.720 298.978 4.531 1.042 o
4 5 7 120.381 124.254 2.182 5.512 o
4 5 8 147.099 147.613 1.899 4.672 o
4 5 9 20.188 20.264 0.504 145.063 o
4 6 0 30.136 30.042 0.593 83.092 o
4 6 1 67.280 68.904 1.318 16.575 o
4 6 2 120.034 126.758 2.303 5.239 o
4 6 3 274.649 284.750 4.318 1.174 o
4 6 4 375.633 383.332 5.729 0.645 o
4 6 5 91.706 90.953 1.578 10.058 o
4 6 6 46.901 45.411 0.890 35.823 o
4 6 7 10.354 9.617 0.442 266.971 o
4 6 8 74.644 72.605 1.333 14.859 o
4 6 9 50.440 49.671 0.832 34.418 o
4 7 0 36.027 31.992 0.639 66.326 o
4 7 1 99.761 98.634 2.273 6.597 o
4 7 2 71.054 71.757 2.327 8.313 o
4 7 3 35.218 35.218 0.769 55.106 o
4 7 4 373.981 376.522 7.504 0.528 o
4 7 5 219.442 221.022 3.783 1.743 o
4 7 6 69.190 68.778 1.846 11.467 o
4 7 7 42.598 43.365 0.951 36.614 o
4 7 8 19.463 19.733 0.613 116.616 o
4 8 0 26.345 28.247 0.610 90.608 o
4 8 1 173.023 173.297 3.214 2.646 o
4 8 2 1.266 1.103 0.452 318.249 o
4 8 3 40.572 40.486 1.052 34.464 o
4 8 4 69.329 70.680 1.515 14.112 o
4 8 5 168.637 168.331 3.079 2.830 o
4 8 6 49.900 50.890 1.126 26.355 o
4 8 7 117.798 119.553 2.265 5.515 o
4 9 0 265.207 263.445 4.338 1.248 o
4 9 1 15.268 15.549 0.487 186.338 o
4 9 2 13.696 13.760 0.519 181.180 o
4 9 3 8.999 9.372 0.870 81.713 o
4 9 4 2.014 2.076 0.573 197.050 o
4 9 5 17.338 17.842 0.798 83.155 o
4 9 6 97.325 92.095 1.831 8.452 o
4 10 0 35.069 35.483 0.767 55.243 o
4 10 1 15.838 16.151 0.538 158.706 o
4 10 2 5.942 5.607 0.462 283.896 o
4 10 3 18.768 18.074 0.643 112.773 o
4 10 4 61.409 57.209 1.757 13.560 o
5 0 1 20.389 19.159 0.490 151.357 o
5 0 2 13.506 13.722 0.250 432.447 o
5 0 3 33.170 35.230 0.512 80.524 o
5 0 4 53.468 51.157 0.651 37.287 o
5 0 5 0.497 0.541 0.169 2272.440 o
5 0 6 8.032 8.535 0.224 790.876 o
5 0 7 146.687 151.667 1.679 4.894 o
5 0 8 50.726 52.454 0.787 34.766 o
5 0 9 123.941 120.307 1.626 6.630 o
5 0 10 4.824 5.123 0.383 411.263 o
5 1 0 419.345 418.914 5.301 0.582 o
5 1 1 16.727 16.204 0.274 316.592 o
5 1 2 27.583 27.205 0.463 113.509 o
5 1 3 120.910 121.588 1.518 7.005 o
5 1 4 5.284 5.434 0.209 1141.780 o
5 1 5 301.177 303.892 6.062 0.812 o
5 1 6 18.531 18.571 0.344 231.047 o
5 1 7 83.748 83.332 1.122 14.189 o
5 1 8 80.832 81.347 1.040 15.472 o
5 1 9 54.421 53.002 0.772 32.843 o
5 1 10 8.529 9.154 0.412 315.690 o
5 2 0 279.930 290.085 3.884 1.221 o
5 2 1 60.857 63.050 0.945 24.116 o
5 2 2 221.729 218.525 3.627 1.791 o
5 2 3 23.066 23.493 0.411 152.976 o
5 2 4 46.857 47.362 0.681 42.900 o
5 2 5 128.322 133.130 1.745 5.872 o
5 2 6 119.391 119.989 1.589 6.972 o
5 2 7 62.671 64.444 0.837 24.966 o
5 2 8 218.752 219.235 2.606 2.198 o
5 2 9 50.931 51.056 0.734 36.639 o
5 2 10 5.162 4.879 0.357 465.904 o
5 3 0 4.690 5.002 0.196 1317.690 o
5 3 1 8.477 8.355 0.272 604.847 o
5 3 2 325.735 321.430 4.905 0.878 o
5 3 3 742.845 723.350 10.347 0.178 o
5 3 4 419.649 425.445 5.663 0.558 o
5 3 5 185.963 187.117 2.548 2.827 o
5 3 6 334.117 330.387 4.247 0.919 o
5 3 7 2.521 2.404 0.271 853.519 o
5 3 8 55.532 56.296 0.782 31.098 o
5 3 9 12.126 11.332 0.367 323.009 o
5 4 0 193.573 202.665 2.597 2.588 o
5 4 1 217.204 222.423 3.395 1.895 o
5 4 2 247.027 248.380 3.535 1.562 o
5 4 3 2.496 2.382 0.330 582.508 o
5 4 4 189.296 193.322 2.618 2.694 o
5 4 5 169.161 169.632 2.651 3.148 o
5 4 6 229.018 228.774 3.152 1.865 o
5 4 7 59.775 59.457 1.122 22.036 o
5 4 8 16.394 16.177 0.392 232.004 o
5 4 9 82.682 82.027 1.195 13.950 o
5 5 0 0.003 -0.217 0.199 1637.230 o
5 5 1 307.071 301.173 4.521 1.005 o
5 5 2 74.256 72.027 1.028 17.926 o
5 5 3 40.085 41.014 0.709 50.882 o
5 5 4 181.064 178.358 2.624 2.913 o
5 5 5 39.259 38.212 0.657 56.459 o
5 5 6 10.714 10.265 0.386 321.804 o
5 5 7 214.014 214.752 2.965 2.124 o
5 5 8 14.197 14.062 0.505 185.580 o
5 6 0 63.298 60.722 1.267 18.800 o
5 6 1 242.909 240.595 4.340 1.392 o
5 6 2 106.557 109.137 1.731 7.668 o
5 6 3 49.237 49.333 0.957 31.428 o
5 6 4 10.925 10.412 0.720 113.557 o
5 6 5 34.474 33.799 0.616 69.382 o
5 6 6 170.899 176.811 2.965 2.828 o
5 6 7 38.587 38.126 0.732 52.564 o
5 6 8 121.400 117.580 1.591 6.923 o
5 7 0 181.076 178.089 2.964 2.687 o
5 7 1 88.627 86.951 1.691 9.934 o
5 7 2 81.538 81.011 1.569 11.595 o
5 7 3 211.728 204.558 4.952 1.434 o
5 7 4 120.685 117.323 2.048 5.917 o
5 7 5 81.826 82.985 1.407 12.524 o
5 7 6 118.352 115.234 1.895 6.416 o
5 7 7 54.084 51.130 0.921 29.718 o
5 8 0 11.586 11.897 0.452 241.730 o
5 8 1 69.872 69.449 1.252 16.763 o
5 8 2 50.872 52.802 1.111 26.063 o
5 8 3 38.110 37.803 0.890 43.978 o
5 8 4 26.727 26.248 0.875 59.146 o
5 8 5 102.968 97.760 2.199 6.700 o
5 8 6 48.264 47.002 1.246 24.640 o
5 9 0 38.237 36.292 1.415 24.355 o
5 9 1 3.829 3.785 0.445 317.874 o
5 9 2 1.592 0.551 0.521 239.390 o
5 9 3 93.462 87.974 1.768 9.138 o
5 9 4 36.594 36.018 1.094 35.632 o
5 10 0 0.228 0.132 0.471 293.320 o
5 10 1 54.743 53.409 1.168 23.519 o
6 0 0 2254.550 2284.820 40.244 0.016 o
6 0 1 0.030 0.101 0.211 1465.500 o
6 0 2 38.485 38.417 0.511 67.407 o
6 0 3 56.076 58.345 0.771 30.531 o
6 0 4 97.309 95.837 1.164 11.185 o
6 0 5 183.697 182.838 2.159 3.148 o
6 0 6 3.605 3.275 0.224 1163.360 o
6 0 7 35.545 34.959 0.493 77.644 o
6 0 8 372.801 369.740 4.521 0.755 o
6 0 9 2.307 2.516 0.363 483.764 o
6 1 0 171.002 164.194 1.933 3.763 o
6 1 1 122.426 122.546 1.516 6.895 o
6 1 2 110.552 110.746 1.477 8.128 o
6 1 3 3.954 3.828 0.234 1046.600 o
6 1 4 208.811 209.738 2.688 2.320 o
6 1 5 122.007 122.075 1.596 6.753 o
6 1 6 57.681 56.798 0.843 28.573 o
6 1 7 132.903 130.397 1.604 5.983 o
6 1 8 221.241 223.673 2.665 2.128 o
6 1 9 144.643 146.360 1.790 4.913 o
6 2 0 58.001 59.434 1.098 22.964 o
6 2 1 108.020 111.538 1.895 7.023 o
6 2 2 101.633 102.973 1.565 8.783 o
6 2 3 358.729 360.387 14.228 0.247 o
6 2 4 333.354 339.803 4.574 0.873 o
6 2 5 285.861 289.083 3.946 1.188 o
6 2 6 67.607 67.556 1.036 20.036 o
6 2 7 110.805 111.106 1.457 8.155 o
6 2 8 35.113 34.924 0.575 71.137 o
6 2 9 55.333 55.832 0.822 30.390 o
6 3 0 71.273 68.994 0.899 20.494 o
6 3 1 4.829 5.065 0.271 766.897 o
6 3 2 158.537 157.789 2.495 3.585 o
6 3 3 37.262 38.775 0.677 57.233 o
6 3 4 124.772 128.045 1.917 5.803 o
6 3 5 38.128 37.504 0.644 59.223 o
6 3 6 48.850 49.091 0.987 30.780 o
6 3 7 121.070 120.379 1.631 6.771 o
6 3 8 3.869 3.419 0.315 617.097 o
6 4 0 5.774 5.578 0.245 863.975 o
6 4 1 48.560 46.717 0.734 39.840 o
6 4 2 164.181 156.938 2.346 3.624 o
6 4 3 45.797 48.323 0.808 38.560 o
6 4 4 295.488 297.517 4.597 1.035 o
6 4 5 6.125 6.270 0.363 433.364 o
6 4 6 68.049 68.362 1.051 19.628 o
6 4 7 21.668 21.482 0.543 125.894 o
6 4 8 156.891 156.419 2.024 4.121 o
6 5 0 65.062 65.072 0.909 22.901 o
6 5 1 17.100 17.793 0.749 92.463 o
6 5 2 340.625 334.260 4.836 0.835 o
6 5 3 42.406 42.867 0.765 44.943 o
6 5 4 255.993 249.795 4.010 1.391 o
6 5 5 28.031 26.749 0.660 81.597 o
6 5 6 46.267 46.428 0.814 38.665 o
6 5 7 32.092 29.014 1.155 36.295 o
6 6 0 4.172 4.873 0.312 611.317 o
6 6 1 262.602 260.007 3.546 1.440 o
6 6 2 100.897 101.731 1.432 9.398 o
6 6 3 19.755 19.786 0.551 132.854 o
6 6 4 10.470 10.524 0.432 272.372 o
6 6 5 61.912 62.720 1.147 20.629 o
6 6 6 68.691 67.703 1.626 13.368 o
6 6 7 83.759 84.324 1.318 12.779 o
6 7 0 30.688 29.350 0.853 55.993 o
6 7 1 88.927 87.289 1.338 11.812 o
6 7 2 75.873 73.224 1.792 11.057 o
6 7 3 47.939 46.543 1.039 30.232 o
6 7 4 18.804 19.943 0.564 131.940 o
6 7 5 36.027 36.300 0.793 52.076 o
6 7 6 33.764 33.288 0.792 55.884 o
6 8 0 202.003 203.308 3.407 2.092 o
6 8 1 18.899 17.725 0.701 99.482 o
6 8 2 53.529 51.348 1.157 24.427 o
6 8 3 33.876 32.460 1.694 19.145 o
6 8 4 422.195 399.163 10.663 0.333 o
6 9 0 163.000 164.541 2.810 3.155 o
6 9 1 69.476 68.171 1.335 16.069 o
7 0 1 249.190 244.655 2.992 1.706 o
7 0 2 73.479 71.857 0.943 19.015 o
7 0 3 299.852 304.298 3.875 1.117 o
7 0 4 26.026 27.333 0.420 127.766 o
7 0 5 9.289 9.632 0.282 535.459 o
7 0 6 425.496 431.041 5.004 0.581 o
7 0 7 14.403 14.958 0.394 253.892 o
7 0 8 21.939 21.449 0.502 136.125 o
7 1 0 0.952 0.886 0.198 1638.230 o
7 1 1 226.371 227.587 2.888 1.983 o
7 1 2 319.907 328.975 4.073 0.982 o
7 1 3 119.121 117.282 1.582 7.083 o
7 1 4 4.870 5.150 0.330 540.959 o
7 1 5 4.158 4.835 0.368 450.435 o
7 1 6 71.464 70.019 1.022 18.900 o
7 1 7 77.276 77.205 1.032 16.657 o
7 1 8 21.936 23.454 0.502 132.424 o
7 2 0 2.498 3.101 0.253 965.067 o
7 2 1 61.603 63.300 0.941 23.874 o
7 2 2 80.918 80.773 1.440 12.549 o
7 2 3 67.441 69.288 1.099 19.073 o
7 2 4 127.289 131.244 1.953 5.569 o
7 2 5 55.867 55.034 0.888 28.804 o
7 2 6 86.018 87.039 1.224 12.891 o
7 2 7 20.422 22.147 1.001 53.705 o
7 3 0 18.723 18.851 0.387 205.093 o
7 3 1 84.834 84.494 1.395 12.136 o
7 3 2 218.559 219.045 3.157 1.988 o
7 3 3 56.253 55.160 0.937 27.514 o
7 3 4 190.342 194.250 2.841 2.546 o
7 3 5 5.779 5.460 0.393 383.055 o
7 3 6 278.707 280.872 3.865 1.249 o
7 3 7 1.988 1.618 0.436 339.723 o
7 4 0 252.632 241.255 2.953 1.703 o
7 4 1 12.822 12.570 0.489 205.714 o
7 4 2 45.455 45.959 1.158 27.909 o
7 4 3 32.216 31.496 0.646 72.033 o
7 4 4 2.924 2.350 0.377 446.040 o
7 4 5 128.080 129.105 3.262 3.520 o
7 4 6 39.136 38.617 0.750 50.659 o
7 4 7 30.177 29.378 0.678 73.460 o
7 5 0 2.288 2.502 0.284 780.567 o
7 5 1 16.501 17.370 0.426 206.370 o
7 5 2 15.172 14.329 0.458 206.568 o
7 5 3 17.938 18.318 0.519 153.156 o
7 5 4 16.097 15.637 0.514 168.853 o
7 5 5 21.532 22.942 0.682 93.668 o
7 5 6 63.755 62.599 1.113 20.660 o
7 6 0 444.017 430.565 6.112 0.503 o
7 6 1 15.708 15.010 0.418 225.481 o
7 6 2 40.356 39.526 0.828 44.895 o
7 6 3 26.409 24.973 0.793 68.666 o
7 6 4 76.407 74.978 1.270 14.939 o
7 6 5 34.886 33.377 0.764 56.753 o
7 7 0 38.161 35.561 0.697 56.733 o
7 7 1 21.127 20.093 0.766 82.130 o
7 7 2 61.866 61.328 1.226 19.639 o
7 7 3 53.904 53.783 0.978 27.844 o
8 0 0 36.770 36.171 0.767 53.140 o
8 0 1 290.574 298.156 3.643 1.201 o
8 0 2 224.329 227.767 2.803 2.030 o
8 0 3 0.519 0.444 0.261 951.036 o
8 0 4 95.718 96.688 1.474 9.917 o
8 0 5 4.179 3.681 0.279 759.408 o
8 0 6 91.968 94.582 1.370 10.884 o
8 1 0 308.964 316.754 3.695 1.087 o
8 1 1 43.147 44.586 0.646 49.183 o
8 1 2 76.772 77.034 1.030 16.800 o
8 1 3 32.172 31.722 0.518 85.996 o
8 1 4 205.070 204.816 3.747 1.912 o
8 1 5 22.141 22.503 0.628 103.299 o
8 1 6 122.261 123.435 2.635 4.615 o
8 2 0 14.011 14.255 0.382 270.976 o
8 2 1 90.869 89.143 1.694 9.640 o
8 2 2 191.160 193.358 3.331 2.274 o
8 2 3 53.533 53.978 0.876 30.425 o
8 2 4 24.286 23.514 0.586 105.246 o
8 2 5 47.876 47.752 0.949 32.704 o
8 2 6 30.672 30.848 0.720 67.263 o
8 3 0 3.376 3.487 0.302 673.735 o
8 3 1 38.384 39.606 0.699 54.038 o
8 3 2 46.786 47.149 0.787 39.064 o
8 3 3 169.685 169.985 2.562 3.208 o
8 3 4 13.210 12.969 0.638 133.312 o
8 3 5 158.506 155.160 2.365 3.743 o
8 4 0 83.114 82.230 1.172 14.030 o
8 4 1 18.594 18.273 0.452 177.293 o
8 4 2 72.094 73.590 1.247 16.016 o
8 4 3 15.104 14.429 0.521 172.733 o
8 4 4 119.377 116.529 2.552 4.935 o
8 5 0 11.037 11.414 0.364 339.493 o
8 5 1 29.768 30.790 0.647 76.594 o
8 5 2 123.272 121.009 1.871 6.112 o
8 5 3 23.592 23.226 0.636 97.610 o
8 6 0 49.287 46.979 1.047 29.355 o
8 6 1 50.983 47.044 0.852 34.249 o
9 0 1 2.162 2.115 0.302 698.621 o
9 0 2 1.465 1.269 0.306 688.382 o
9 0 3 166.686 168.066 2.120 3.657 o
9 1 0 102.756 104.607 1.314 9.550 o
9 1 1 28.248 27.776 0.498 104.442 o
9 1 2 69.432 71.680 0.995 19.516 o
9 1 3 72.153 69.681 0.977 19.277 o
9 2 0 219.498 217.267 3.176 1.980 o
9 2 1 101.058 99.089 1.671 8.572 o
9 2 2 18.754 19.207 0.509 151.552 o
9 3 0 133.439 127.429 1.834 5.617 o
9 3 1 23.340 23.259 0.529 120.768 o
;
_olex2_submission_special_instructions 'No special instructions were received'
loop_
_space_group_symop_id
_space_group_symop_operation_xyz
1 x,y,z
2 x+1/2,-y+1/2,-z
3 -x,y+1/2,-z+1/2
4 -x+1/2,-y,z+1/2
loop_
_atom_site_label
_atom_site_type_symbol
_atom_site_fract_x
_atom_site_fract_y
_atom_site_fract_z
_atom_site_U_iso_or_equiv
_atom_site_adp_type
_atom_site_occupancy
_atom_site_refinement_flags_posn
O1 O 0.26838(5) 0.96288(4) 0.77800(3) 0.01035(9) Uani 1.000000 .
O2 O 0.43044(5) 1.12572(4) 0.88343(3) 0.00914(9) Uani 1.000000 .
O3 O 0.70887(4) 0.94904(4) 0.59995(3) 0.00933(9) Uani 1.000000 .
N1 N 0.44311(5) 1.03594(5) 0.52559(4) 0.00650(10) Uani 1.000000 .
H1 H 0.3590(10) 1.0391(9) 0.4497(8) 0.0151(17) Uiso 1.000000 .
N2 N 0.73442(5) 0.75560(5) 0.40097(4) 0.00713(10) Uani 1.000000 .
H2a H 0.7370(13) 0.6826(14) 0.3259(10) 0.032(2) Uiso 1.000000 .
H2b H 0.8606(13) 0.7988(11) 0.4070(9) 0.027(2) Uiso 1.000000 .
H2c H 0.7061(13) 0.7049(12) 0.4900(10) 0.028(2) Uiso 1.000000 .
C1 C 0.37350(6) 1.06550(6) 0.77670(5) 0.00578(10) Uani 1.000000 .
C2 C 0.42658(6) 1.13454(5) 0.63934(5) 0.00680(11) Uani 1.000000 .
H2 H 0.5547(11) 1.1835(11) 0.6550(7) 0.0218(18) Uiso 1.000000 .
C3 C 0.28484(8) 1.24480(6) 0.60407(5) 0.01576(12) Uani 1.000000 .
H3a H 0.3228(13) 1.3018(12) 0.5119(11) 0.045(3) Uiso 1.000000 .
H3b H 0.1557(12) 1.1946(11) 0.5838(9) 0.037(2) Uiso 1.000000 .
H3c H 0.2701(12) 1.3146(12) 0.6905(10) 0.040(2) Uiso 1.000000 .
C4 C 0.58925(6) 0.95481(5) 0.51368(4) 0.00564(10) Uani 1.000000 .
C5 C 0.59879(6) 0.86686(5) 0.38187(5) 0.00749(11) Uani 1.000000 .
H5a H 0.6374(12) 0.9332(11) 0.2943(9) 0.036(2) Uiso 1.000000 .
H5b H 0.4717(10) 0.8172(10) 0.3584(7) 0.0241(19) Uiso 1.000000 .
loop_
_atom_site_aniso_label
_atom_site_aniso_U_11
_atom_site_aniso_U_22
_atom_site_aniso_U_33
_atom_site_aniso_U_12
_atom_site_aniso_U_13
_atom_site_aniso_U_23
O1 0.01498(16) 0.0085(2) 0.00761(16) -0.00500(14) 0.00338(13) -0.00269(14)
O2 0.01091(16) 0.0102(2) 0.00636(16) -0.00285(15) 0.00066(12) -0.00286(14)
O3 0.01147(16) 0.0076(2) 0.00893(16) 0.00234(14) -0.00279(12) -0.00203(14)
N1 0.00915(17) 0.0053(2) 0.00510(17) 0.00067(17) 0.00012(15) -0.00102(16)
N2 0.00940(19) 0.0042(2) 0.00774(19) 0.00176(16) 0.00133(15) -0.00014(16)
C1 0.00699(19) 0.0045(3) 0.00584(19) 0.00071(17) -0.00021(15) -0.00192(18)
C2 0.0105(2) 0.0035(3) 0.0064(2) 0.00084(19) 0.00026(17) -0.00079(17)
C3 0.0261(3) 0.0099(3) 0.0113(2) 0.0107(2) -0.0013(2) -0.0004(2)
C4 0.0085(2) 0.0035(2) 0.00487(19) -0.00022(19) 0.00010(15) 0.00002(17)
C5 0.0107(2) 0.0062(3) 0.0056(2) 0.00132(18) -0.00021(16) -0.00153(19)
loop_
_atom_type_symbol
_atom_type_description
_atom_type_scat_dispersion_real
_atom_type_scat_dispersion_imag
_atom_type_scat_source
_atom_type_scat_dispersion_source
C C 0.00347 0.00161
'Clementi & Roetti, C., At. Data Nucl. Data Tables 1974, 14, (177-478); Clementi & Raimondi, J. Chem. Phys., 1963, 38, (2686-2689)'
'Henke, Gullikson and Davis, At. Data and Nucl. Data Tables, 1993, 54, 2'
H H 0.00000 0.00000
'Clementi & Roetti, C., At. Data Nucl. Data Tables 1974, 14, (177-478); Clementi & Raimondi, J. Chem. Phys., 1963, 38, (2686-2689)'
'Henke, Gullikson and Davis, At. Data and Nucl. Data Tables, 1993, 54, 2'
N N 0.00653 0.00323
'Clementi & Roetti, C., At. Data Nucl. Data Tables 1974, 14, (177-478); Clementi & Raimondi, J. Chem. Phys., 1963, 38, (2686-2689)'
'Henke, Gullikson and Davis, At. Data and Nucl. Data Tables, 1993, 54, 2'
O O 0.01158 0.00611
'Clementi & Roetti, C., At. Data Nucl. Data Tables 1974, 14, (177-478); Clementi & Raimondi, J. Chem. Phys., 1963, 38, (2686-2689)'
'Henke, Gullikson and Davis, At. Data and Nucl. Data Tables, 1993, 54, 2'
loop_
_geom_angle_atom_site_label_1
_geom_angle_atom_site_label_2
_geom_angle_atom_site_label_3
_geom_angle
_geom_angle_site_symmetry_1
_geom_angle_site_symmetry_3
_geom_angle_publ_flag
C2 N1 H1 120.3(5) . . ?
C4 N1 H1 118.6(4) . . ?
C4 N1 C2 120.31(4) . . ?
H2b N2 H2a 107.4(8) . . ?
H2c N2 H2a 107.3(8) . . ?
H2c N2 H2b 109.3(8) . . ?
C5 N2 H2a 114.5(6) . . ?
C5 N2 H2b 110.5(6) . . ?
C5 N2 H2c 107.8(6) . . ?
O2 C1 O1 123.85(4) . . ?
C2 C1 O1 120.10(4) . . ?
C2 C1 O2 115.81(4) . . ?
C1 C2 N1 114.07(4) . . ?
H2 C2 N1 108.1(4) . . ?
H2 C2 C1 106.8(4) . . ?
C3 C2 N1 109.21(4) . . ?
C3 C2 C1 107.98(4) . . ?
C3 C2 H2 110.6(5) . . ?
H3a C3 C2 110.3(5) . . ?
H3b C3 C2 110.6(5) . . ?
H3b C3 H3a 107.4(7) . . ?
H3c C3 C2 108.5(5) . . ?
H3c C3 H3a 111.4(8) . . ?
H3c C3 H3b 108.6(7) . . ?
N1 C4 O3 123.97(4) . . ?
C5 C4 O3 120.98(4) . . ?
C5 C4 N1 115.06(4) . . ?
C4 C5 N2 108.48(4) . . ?
H5a C5 N2 109.2(5) . . ?
H5a C5 C4 110.4(5) . . ?
H5b C5 N2 108.4(5) . . ?
H5b C5 C4 111.9(4) . . ?
H5b C5 H5a 108.4(6) . . ?
loop_
_geom_bond_atom_site_label_1
_geom_bond_atom_site_label_2
_geom_bond_distance
_geom_bond_site_symmetry_2
_geom_bond_publ_flag
O1 C1 1.2506(6) . ?
O2 C1 1.2588(6) . ?
O3 C4 1.2259(6) . ?
N1 H1 0.969(8) . ?
N1 C2 1.4543(6) . ?
N1 C4 1.3396(6) . ?
N2 H2a 1.007(12) . ?
N2 H2b 1.028(10) . ?
N2 H2c 1.012(11) . ?
N2 C5 1.4743(6) . ?
C1 C2 1.5397(6) . ?
C2 H2 1.073(9) . ?
C2 C3 1.5267(7) . ?
C3 H3a 1.084(11) . ?
C3 H3b 1.093(9) . ?
C3 H3c 1.076(11) . ?
C4 C5 1.5315(6) . ?
C5 H5a 1.098(10) . ?
C5 H5b 1.083(8) . ?
loop_
_refln_index_h
_refln_index_k
_refln_index_l
_refln_F_squared_meas
_refln_F_squared_sigma
1 0 0 0.02 0.01
-1 0 0 0.03 0.02
2 0 0 286.46 11.35
3 0 0 0 0.04
4 0 0 42.1 1.67
5 0 0 0.13 0.08
6 0 0 503.85 20.32
6 0 0 523.78 20.3
7 0 0 -0.13 0.12
7 0 0 0.2 0.24
8 0 0 8.55 0.48
8 0 0 8.39 0.39
9 0 0 -0.37 0.38
9 0 0 0.15 0.19
10 0 0 0.78 0.25
10 0 0 0.16 0.49
11 0 0 -0.2 0.33
1 1 0 96.53 3.83
3 1 0 96.22 3.8
-3 -1 0 96.01 3.8
4 -1 0 29.06 1.14
4 1 0 28.72 1.14
-4 -1 0 28.15 1.14
5 -1 0 97.09 3.81
5 1 0 95.27 3.81
6 -1 0 38.28 1.5
6 1 0 37.25 1.53
6 -1 0 37.65 1.53
6 1 0 36.84 1.5
7 -1 0 0.23 0.24
7 1 0 0.15 0.13
7 1 0 -0.04 0.23
7 -1 0 0.17 0.12
8 -1 0 76.87 2.86
8 -1 0 71.33 2.89
8 1 0 66.74 2.89
8 1 0 71.96 2.86
9 -1 0 23.73 0.99
9 1 0 25.27 1.07
9 1 0 24.46 1
9 -1 0 22.36 1.07
10 -1 0 -0.23 0.53
10 1 0 0.38 0.48
10 -1 0 -0.03 0.23
10 1 0 -0.14 0.26
11 1 0 28.43 1.23
11 -1 0 28.61 1.21
1 -2 0 234.31 8.76
1 2 0 206.31 8.69
-1 -2 0 216.89 8.7
2 2 0 67.75 2.69
-2 -2 0 68.11 2.69
3 2 0 115.31 4.7
-3 -2 0 122.59 4.7
-4 -2 0 30.65 1.22
5 -2 0 65.57 2.65
-5 -2 0 68.46 2.65
5 -2 0 66.43 2.67
6 2 0 14.2 0.58
6 -2 0 13.03 0.62
6 2 0 15.18 0.62
6 -2 0 13.24 0.57
7 -2 0 0.63 0.26
7 2 0 0.83 0.15
7 2 0 0.35 0.25
7 -2 0 0.65 0.12
8 -2 0 3.93 0.37
8 -2 0 3.31 0.21
8 2 0 3.25 0.23
8 2 0 2.91 0.34
9 -2 0 49.24 2.08
9 -2 0 49.9 2.02
9 2 0 51.36 2.07
9 2 0 50.41 2.03
10 -2 0 -0.2 0.55
10 2 0 0.66 0.29
10 2 0 -0.02 0.47
10 -2 0 0.1 0.23
11 -2 0 5.68 0.38
11 2 0 4.59 0.46
0 -3 0 0.04 0.04
-1 -3 0 5.83 0.24
1 3 0 5.78 0.24
1 -3 0 6 0.24
2 -3 0 712.18 27.45
2 3 0 675.08 27.44
3 -3 0 37.48 1.48
-3 -3 0 36.77 1.48
4 -3 0 347.24 13.61
-4 -3 0 341.86 13.6
4 3 0 344.15 13.67
-5 -3 0 1.07 0.1
5 3 0 1.22 0.11
5 -3 0 1.2 0.18
6 3 0 15.84 0.7
6 -3 0 15.89 0.66
-6 -3 0 17.05 0.67
6 3 0 15.86 0.67
6 -3 0 16.16 0.71
7 3 0 4.3 0.24
7 -3 0 4.33 0.34
7 -3 0 4.49 0.21
7 3 0 3.88 0.31
8 -3 0 0.69 0.35
8 3 0 0.81 0.19
8 -3 0 0.69 0.14
8 3 0 0.71 0.3
9 3 0 27.77 1.26
9 -3 0 29.79 1.3
9 -3 0 30.59 1.2
10 -3 0 25.55 1.22
10 3 0 23.52 1.12
11 3 0 0.25 0.43
11 -3 0 0.76 0.3
0 -4 0 98.65 3.94
1 4 0 3.43 0.15
1 -4 0 3.25 0.15
1 4 0 3.44 0.15
-1 -4 0 3.13 0.15
-2 -4 0 668.09 28.32
2 -4 0 764.17 28.38
3 4 0 44.71 1.78
-3 -4 0 45.44 1.78
3 -4 0 44.01 1.78
4 4 0 251.82 10.72
-4 -4 0 281.84 10.77
4 -4 0 280.46 10.73
-5 -4 0 46.98 1.86
5 -4 0 47.01 1.88
5 4 0 46.25 1.86
5 4 0 46.63 1.88
-6 -4 0 1.26 0.13
6 4 0 1.29 0.15
6 -4 0 1.43 0.24
6 4 0 1.36 0.22
7 4 0 53.9 2.28
-7 -4 0 58.3 2.26
7 -4 0 57.78 2.3
7 -4 0 57.42 2.25
7 4 0 55.38 2.26
8 4 0 18.99 0.84
8 4 0 18.21 0.8
8 -4 0 19.04 0.88
8 -4 0 19.01 0.77
9 -4 0 17.89 0.74
9 4 0 17.69 0.83
9 -4 0 17.17 0.91
9 4 0 17.11 0.77
10 -4 0 4.5 0.3
10 4 0 4.53 0.42
10 -4 0 5.22 0.72
10 4 0 4.6 0.5
0 -5 0 0.07 0.06
1 -5 0 0.31 0.07
-1 -5 0 0.42 0.06
2 5 0 53.01 2.21
2 5 0 57.65 2.21
2 -5 0 56.32 2.21
-2 -5 0 55.93 2.21
-3 -5 0 52.56 2.09
3 5 0 52.3 2.09
3 5 0 52.32 2.09
3 -5 0 52.87 2.09
4 -5 0 75.01 3.01
4 5 0 75.34 3
-4 -5 0 76.69 3
5 5 0 -0.07 0.12
5 5 0 -0.16 0.18
-5 -5 0 -0.17 0.11
5 -5 0 0.13 0.19
6 5 0 14.91 0.63
6 5 0 14.93 0.65
6 -5 0 14.66 0.67
-6 -5 0 14.79 0.62
-7 -5 0 0.64 0.16
7 5 0 0.5 0.19
7 -5 0 0.59 0.32
7 5 0 1.07 0.26
8 -5 0 2.45 0.44
8 -5 0 2.33 0.18
8 5 0 2.63 0.35
-8 -5 0 3.19 0.23
8 5 0 2.64 0.27
9 5 0 1.51 0.31
9 -5 0 1.59 0.18
9 -5 0 0.96 0.55
9 5 0 0.98 0.38
10 -5 0 26.12 1.31
10 -5 0 25.56 1.04
10 5 0 23.31 1.14
0 -6 0 112.23 4.44
-1 -6 0 32.39 1.33
1 -6 0 34.37 1.33
2 -6 0 138.41 5.31
2 6 0 127.46 5.31
2 6 0 135.83 5.31
-2 -6 0 134.73 5.31
-3 -6 0 12.1 0.51
3 -6 0 12.67 0.52
3 6 0 12.38 0.52
3 6 0 12.64 0.51
4 6 0 7.08 0.34
-4 -6 0 7.12 0.32
4 6 0 6.62 0.31
4 -6 0 7.31 0.34
5 -6 0 15.28 0.63
-5 -6 0 14.27 0.6
5 6 0 13.28 0.61
5 6 0 14.08 0.6
-6 -6 0 1.13 0.17
6 6 0 1.21 0.19
6 -6 0 0.99 0.29
6 6 0 1.11 0.23
7 6 0 99.47 3.99
7 -6 0 102.67 4.01
-7 -6 0 103.72 3.98
7 6 0 93.99 3.98
8 6 0 11.44 0.59
8 -6 0 11.03 0.49
-8 -6 0 11.53 0.54
8 6 0 10.95 0.55
8 -6 0 11.89 0.69
9 6 0 2.01 0.36
9 6 0 1.95 0.4
9 -6 0 1.66 0.2
9 -6 0 1.22 0.62
10 6 0 -0.25 0.48
10 6 0 0.34 0.47
10 -6 0 0.51 0.24
0 -7 0 -0.08 0.09
1 -7 0 11.73 0.48
-1 -7 0 11.83 0.48
2 7 0 0.08 0.09
-2 -7 0 -0.07 0.1
2 -7 0 0.13 0.1
2 7 0 0 0.09
3 7 0 0.59 0.14
3 -7 0 0.35 0.14
3 7 0 0.54 0.11
-3 -7 0 0.53 0.12
-4 -7 0 7.53 0.34
4 -7 0 7.91 0.37
4 7 0 7.29 0.34
4 7 0 7.25 0.36
-5 -7 0 38.84 1.63
5 7 0 41.97 1.64
5 -7 0 40.34 1.65
5 7 0 41.4 1.63
6 7 0 7.01 0.35
6 7 0 6.26 0.38
6 -7 0 6.54 0.42
7 7 0 9.1 0.46
7 7 0 7.96 0.43
7 -7 0 7.71 0.54
-7 -7 0 8.08 0.41
8 7 0 13.49 0.65
8 7 0 13.64 0.66
-8 -7 0 13.02 0.63
8 -7 0 13.98 0.78
9 7 0 21.05 0.95
9 -7 0 22.01 0.85
9 7 0 18.82 0.93
-9 -7 0 18.41 0.9
9 -7 0 21.53 1.13
0 -8 0 15.26 0.62
1 -8 0 0.24 0.11
-1 -8 0 0.1 0.1
-2 -8 0 7.42 0.33
2 -8 0 7.2 0.33
3 -8 0 28.41 1.08
-3 -8 0 25.88 1.08
3 8 0 27.91 1.08
3 8 0 24.61 1.07
-4 -8 0 6.89 0.32
4 8 0 6.62 0.32
4 8 0 6.38 0.33
4 -8 0 6.69 0.35
-5 -8 0 2.58 0.22
5 -8 0 2.91 0.28
5 8 0 2.64 0.24
5 8 0 2.69 0.22
6 8 0 48.16 1.89
-6 -8 0 45.14 1.89
6 8 0 45.77 1.89
6 -8 0 48.35 1.92
7 8 0 2.26 0.3
7 8 0 2.27 0.32
7 -8 0 2.41 0.46
-7 -8 0 2.3 0.28
8 8 0 5.27 0.43
8 -8 0 6.57 0.65
-8 -8 0 6.18 0.41
8 8 0 5.67 0.45
9 8 0 35.51 1.53
9 -8 0 33.74 1.44
9 8 0 37.14 1.5
0 -9 0 -0.07 0.13
-1 -9 0 1.92 0.16
1 -9 0 1.83 0.15
2 -9 0 121.01 4.66
-2 -9 0 113.99 4.66
3 -9 0 1 0.2
-3 -9 0 0.96 0.16
4 -9 0 64.22 2.45
4 9 0 60.44 2.43
4 9 0 58.64 2.43
-4 -9 0 61.09 2.44
5 9 0 8.46 0.42
5 -9 0 8.96 0.48
-5 -9 0 9.03 0.44
5 9 0 8.94 0.43
-6 -9 0 36.56 1.54
6 9 0 37.24 1.54
6 9 0 38.32 1.53
6 -9 0 38.53 1.57
7 9 0 1.27 0.3
-7 -9 0 1.24 0.32
7 -9 0 1.29 0.49
7 9 0 1.15 0.32
8 9 0 38.19 1.46
8 -9 0 36.71 1.6
8 9 0 31.57 1.48
-8 -9 0 33.51 1.48
0 -10 0 425.27 16.8
-1 -10 0 9.14 0.42
1 -10 0 9.83 0.42
-2 -10 0 35.25 1.43
2 -10 0 35.67 1.43
-3 -10 0 22.78 0.97
3 -10 0 24.44 0.98
4 -10 0 8.18 0.44
-4 -10 0 8.25 0.42
4 10 0 8.21 0.37
4 10 0 8.14 0.38
5 10 0 -0.08 0.23
-5 -10 0 0.16 0.27
5 10 0 0.15 0.2
5 -10 0 -0.12 0.32
6 10 0 75.4 2.99
6 10 0 75.11 2.98
-6 -10 0 72.45 2.99
6 -10 0 74.94 3.02
7 10 0 22.39 1
7 10 0 22.14 1.02
-7 -10 0 22.49 1.03
7 -10 0 26.08 1.14
8 10 0 0.69 0.48
0 -11 0 0.06 0.19
1 -11 0 -0.06 0.19
-1 -11 0 0.03 0.2
-2 -11 0 2.47 0.24
2 -11 0 2.38 0.24
-3 -11 0 2.46 0.26
3 -11 0 3.02 0.28
-4 -11 0 57.06 2.36
4 -11 0 59.94 2.36
5 11 0 20.09 0.88
5 11 0 20.4 0.86
-5 -11 0 20.44 0.92
5 -11 0 22.45 0.96
-6 -11 0 -0.09 0.38
6 -11 0 -0.39 0.49
6 11 0 -0.77 0.31
6 11 0 -0.17 0.25
7 11 0 6.03 0.51
0 -12 0 128.38 5.1
-1 -12 0 0 0.25
1 -12 0 -0.06 0.24
2 -12 0 32.84 1.34
-2 -12 0 32.79 1.35
-3 -12 0 0.01 0.28
3 -12 0 -0.23 0.27
-4 -12 0 7.51 0.49
4 -12 0 8.34 0.5
-5 -12 0 3.96 0.46
5 -12 0 3.85 0.51
6 12 0 48.58 2.06
6 12 0 54.19 2.09
0 -13 0 0.08 0.29
-1 -13 0 0.42 0.3
1 -13 0 1.03 0.32
2 -13 0 56.54 2.27
-2 -13 0 55.96 2.28
3 -13 0 1.78 0.35
-3 -13 0 1.81 0.4
0 0 -1 0.03 0.02
0 0 1 0.01 0.02
3 0 -1 69.05 2.69
-3 0 -1 66.85 2.68
3 0 1 67.52 2.69
4 0 1 7.53 0.31
4 0 -1 7.24 0.34
-4 0 -1 7.77 0.31
4 0 -1 7.64 0.31
5 0 1 4.22 0.2
5 0 -1 5.04 0.2
5 0 -1 3.7 0.25
6 0 1 -0.04 0.1
6 0 -1 0.24 0.09
6 0 -1 0 0.19
7 0 1 55.81 2.29
7 0 -1 59.52 2.29
7 0 -1 56.67 2.31
8 0 -1 68.55 2.7
8 0 1 68.77 2.7
8 0 -1 66.16 2.74
9 0 1 0.2 0.41
9 0 -1 0.72 0.19
9 0 1 0.23 0.2
9 0 -1 0.56 0.38
10 0 1 2.78 0.54
10 0 -1 3.02 0.5
10 0 1 3.04 0.29
10 0 -1 2.94 0.29
11 0 1 9.07 0.53
11 0 -1 9.78 0.53
4 1 1 75.76 3.03
4 1 -1 74.95 3.04
-4 -1 -1 78.58 3.03
4 1 -1 78.86 3.03
4 -1 1 74.92 3.03
4 -1 -1 75.83 3.04
5 1 -1 4.04 0.18
5 -1 1 3.52 0.17
5 1 1 3.76 0.18
5 1 -1 3.5 0.23
5 -1 -1 3.88 0.17
5 -1 -1 3.3 0.23
-5 -1 -1 3.74 0.17
6 1 -1 28.13 1.13
-6 -1 -1 26.95 1.12
6 1 -1 27.74 1.15
6 1 1 27.8 1.13
6 -1 1 28.37 1.13
6 -1 -1 28.64 1.13
6 -1 -1 28.66 1.16
7 -1 1 53.68 2.11
7 -1 -1 53.68 2.11
7 1 1 54.16 2.11
7 1 -1 54.6 2.11
7 -1 -1 49.05 2.14
7 1 -1 52.41 2.14
8 1 -1 10.12 0.52
8 1 -1 10.3 0.45
8 -1 1 9.41 0.55
8 1 1 9.11 0.45
8 -1 -1 10.67 0.54
8 -1 -1 10.56 0.44
8 -1 1 9.99 0.44
9 1 -1 6.4 0.35
9 -1 -1 6.09 0.33
9 1 1 6.91 0.51
9 -1 1 6.15 0.51
9 -1 1 6.6 0.33
9 -1 -1 6.54 0.49
9 1 1 6.15 0.35
9 1 -1 6.39 0.47
10 1 -1 1.29 0.48
10 1 -1 1.6 0.28
10 1 1 1.75 0.5
10 1 1 1.42 0.28
10 -1 1 1.27 0.25
10 -1 -1 1.55 0.25
10 -1 -1 1.54 0.52
10 -1 1 1.46 0.54
11 -1 -1 1.43 0.33
11 1 -1 1.74 0.37
11 -1 1 1.46 0.33
11 1 1 1.46 0.36
-1 -2 -1 206.52 8.63
-1 -2 1 212.83 8.64
1 2 1 222.4 8.62
1 -2 -1 228.69 8.64
2 2 1 464.6 18.49
2 -2 -1 462 18.48
-2 2 1 465.5 18.51
-2 -2 1 452.29 18.47
2 2 -1 466.77 18.47
2 2 -1 485.79 18.49
-2 -2 -1 471.13 18.49
3 -2 1 55.97 2.35
-3 -2 -1 59.64 2.35
3 2 -1 59.13 2.36
-3 -2 1 62 2.35
3 2 -1 58.52 2.35
3 -2 -1 60.14 2.36
-5 -2 -1 14.37 0.58
5 -2 -1 14.33 0.61
5 2 -1 13.67 0.58
5 2 1 14.47 0.59
5 -2 1 14.74 0.58
5 2 -1 14 0.61
6 2 -1 25.32 1.05
-7 -2 -1 14.54 0.59
7 2 -1 13.66 0.6
7 2 1 13.92 0.6
7 -2 1 14.63 0.59
7 -2 -1 14.26 0.65
7 2 -1 13.63 0.64
7 -2 -1 14.61 0.59
8 2 1 19.02 0.85
8 2 -1 22.14 0.86
8 -2 -1 20.73 0.84
8 -2 1 19.83 0.92
8 2 -1 19.66 0.9
8 -2 1 20.54 0.84
8 -2 -1 21.69 0.92
9 -2 -1 23.78 0.94
9 2 -1 24.07 0.96
9 2 1 20.94 1.03
9 -2 -1 22.9 1.05
9 2 1 22.3 0.96
9 2 -1 23.56 1.02
9 -2 1 21.75 0.94
9 -2 1 23.05 1.05
10 -2 -1 -0.06 0.54
10 -2 1 0.4 0.23
10 2 -1 0.54 0.46
10 -2 1 0.39 0.57
10 2 1 -0.49 0.49
10 2 -1 0.71 0.29
10 -2 -1 0.12 0.22
10 2 1 0.01 0.29
11 -2 -1 12.55 0.59
11 2 1 11.57 0.64
11 -2 1 11.6 0.58
11 2 -1 11.77 0.65
0 -3 -1 177.41 6.68
0 3 1 159.08 6.66
1 3 1 161.68 6.08
-1 -3 1 137.96 6.06
1 3 -1 160.63 6.1
-1 3 1 153.87 6.06
-1 -3 -1 158.83 6.08
1 -3 -1 153.97 6.08
-1 -3 1 144.01 6.08
2 3 -1 48.09 1.89
-2 3 1 48.98 1.89
2 -3 -1 46 1.89
2 3 -1 44.59 1.89
2 3 1 47.58 1.89
-2 -3 1 50 1.89
-2 -3 -1 47.67 1.89
-3 -3 1 87.64 3.43
3 3 -1 86.57 3.43
-3 -3 -1 86.94 3.43
3 -3 -1 86.35 3.43
3 3 1 85.25 3.43
-4 -3 -1 82.08 3.38
4 -3 -1 84.75 3.39
-4 -3 1 85.01 3.38
4 3 -1 86.58 3.39
4 3 1 86.99 3.38
4 3 -1 86.1 3.38
5 3 1 1.86 0.14
-5 -3 -1 1.98 0.13
5 -3 -1 1.7 0.2
-5 -3 1 2.06 0.13
5 3 -1 1.88 0.13
5 3 -1 1.98 0.19
5 -3 1 1.67 0.11
6 -3 -1 0.97 0.23
6 3 -1 1.33 0.2
6 3 -1 1.23 0.14
-6 -3 -1 1 0.12
6 -3 1 1.1 0.1
6 3 1 1.14 0.14
7 -3 -1 19.92 0.84
7 3 -1 18.15 0.82
-7 -3 -1 19.37 0.79
-8 -3 -1 9.33 0.4
8 3 -1 8.49 0.48
8 3 1 9.59 0.51
8 -3 1 8.79 0.39
8 3 -1 8.27 0.42
8 -3 -1 8.22 0.52
8 -3 1 8.54 0.54
8 -3 -1 9.55 0.4
9 3 -1 5.46 0.43
9 -3 -1 4.67 0.51
9 3 1 5.64 0.46
9 -3 1 5.68 0.29
9 3 -1 5.13 0.34
9 -3 -1 5.56 0.28
9 -3 1 4.66 0.52
9 3 1 5.08 0.34
10 -3 -1 43.33 1.89
10 -3 1 43.43 1.76
10 -3 1 43.04 1.91
10 3 1 45.08 1.79
10 3 -1 42.04 1.83
10 3 -1 44.53 1.79
10 -3 -1 47.24 1.77
10 3 1 40.23 1.84
11 -3 1 0.85 0.3
11 -3 -1 1.28 0.3
11 3 1 0.83 0.44
11 3 -1 0.57 0.44
0 4 1 121.77 4.86
0 -4 -1 123.75 4.86
1 4 1 197.23 7.83
2 4 1 149.18 5.84
-2 4 1 156.49 5.85
2 4 -1 136.47 5.84
2 4 -1 153.43 5.87
2 -4 -1 149.59 5.84
-2 -4 -1 140.2 5.83
-3 -4 1 34.13 1.32
3 -4 -1 32.63 1.33
3 4 -1 32.02 1.33
3 4 -1 33.7 1.33
3 4 1 33.92 1.33
-3 -4 -1 33.01 1.33
4 4 -1 139.24 5.76
4 4 -1 145.47 5.77
4 4 1 147.59 5.76
4 -4 -1 144.36 5.77
-4 -4 1 150 5.76
-4 -4 -1 146.89 5.76
5 4 -1 51.51 2.05
5 4 -1 50.61 2.07
-5 -4 -1 53.45 2.06
-5 -4 1 50.5 2.05
5 -4 -1 50.27 2.07
5 4 1 53.02 2.06
6 -4 -1 11 0.52
-6 -4 -1 11.01 0.47
6 4 -1 10.65 0.47
6 4 -1 10.37 0.5
6 4 1 10.68 0.47
6 -4 1 11.12 0.45
-6 -4 1 11.2 0.46
7 4 -1 2.85 0.27
-7 -4 -1 3.01 0.2
7 -4 -1 2.55 0.32
7 -4 1 3.06 0.17
7 -4 1 2.8 0.34
7 4 1 3.23 0.22
7 4 -1 2.73 0.21
8 -4 1 4.18 0.23
8 -4 -1 4.06 0.43
8 4 -1 4.02 0.28
8 -4 1 3.99 0.43
-8 -4 -1 4.14 0.26
8 -4 -1 4.52 0.23
8 4 1 3.41 0.37
8 4 -1 4.05 0.35
8 4 1 4.01 0.28
9 4 -1 24.75 1.06
9 -4 1 23.83 1.13
9 4 1 24.62 1.03
9 -4 -1 24.59 0.99
9 -4 -1 24.37 1.13
9 4 1 21.51 1.06
9 4 -1 24.04 1.03
9 -4 1 25.28 0.99
10 -4 -1 4.53 0.3
10 4 -1 4.58 0.41
10 -4 1 4.32 0.29
10 4 1 4.35 0.41
10 4 -1 3.39 0.49
10 4 1 4.23 0.52
10 -4 -1 3.35 0.68
10 -4 1 3.85 0.74
0 -5 -1 4.46 0.19
0 5 1 3.98 0.18
1 -5 -1 23.15 0.9
-1 -5 1 22.43 0.9
-1 -5 -1 22.17 0.9
1 5 1 22.18 0.9
2 5 1 174.93 7.05
2 5 -1 189.29 7.08
2 5 -1 167.24 7.05
2 -5 -1 183.04 7.05
-2 -5 1 176.96 7.08
-2 -5 -1 177.75 7.05
3 5 1 30.28 1.21
3 5 -1 31.86 1.2
3 -5 -1 29.6 1.21
3 5 -1 29.82 1.21
-3 -5 1 29.27 1.2
-3 -5 -1 29.96 1.21
4 -5 -1 31.42 1.24
-4 -5 -1 29.77 1.23
-4 -5 1 30.02 1.22
4 5 1 31.11 1.23
4 5 -1 30.57 1.23
4 5 -1 30.44 1.22
-5 -5 1 68.21 2.77
5 -5 -1 71.04 2.79
5 5 -1 69.2 2.78
-5 -5 -1 70.88 2.77
5 5 1 71.98 2.78
5 5 -1 67.19 2.77
6 -5 1 4.12 0.32
6 5 -1 3.96 0.23
6 -5 1 3.7 0.19
6 5 1 3.81 0.23
-6 -5 -1 3.7 0.22
6 -5 -1 3.66 0.31
6 5 -1 3.94 0.27
-6 -5 1 3.9 0.22
7 5 -1 4.15 0.25
7 -5 1 3.56 0.37
-7 -5 1 4.27 0.24
7 -5 -1 4.27 0.37
7 5 -1 3.71 0.3
-7 -5 -1 3.85 0.24
7 -5 1 3.59 0.2
7 5 1 3.82 0.26
8 -5 1 7.05 0.33
8 5 -1 6.84 0.38
8 5 1 7.3 0.4
8 -5 -1 7.18 0.53
8 5 1 7.01 0.45
-8 -5 -1 6.89 0.36
8 -5 1 7.03 0.54
8 5 -1 7.12 0.43
9 -5 1 2.57 0.59
9 -5 -1 2.96 0.56
9 5 1 2.75 0.35
9 -5 -1 2.51 0.22
9 5 -1 2.71 0.4
9 5 1 2.77 0.42
9 -5 1 2.97 0.22
-9 -5 -1 2.96 0.28
9 5 -1 3.03 0.33
10 -5 1 7.37 0.84
10 5 1 7.49 0.53
10 5 -1 6.43 0.56
10 5 -1 6.46 0.52
10 -5 -1 7.15 0.82
10 -5 1 7.63 0.38
10 -5 -1 7.67 0.38
10 5 1 5.83 0.6
0 -6 -1 307.15 12.18
1 6 1 133.13 5.11
-1 -6 -1 121.71 5.11
-1 -6 1 131.66 5.11
1 -6 -1 129.9 5.11
-2 -6 -1 18.92 0.74
2 6 1 17.97 0.74
2 6 -1 16.85 0.73
2 -6 -1 19.41 0.74
-2 -6 1 18.16 0.74
-3 -6 -1 15.34 0.63
3 6 -1 14.63 0.63
-3 -6 1 14.79 0.63
3 6 1 16.05 0.63
3 6 -1 15.14 0.63
3 -6 -1 15.34 0.64
3 -6 1 16.67 0.64
4 6 1 16.28 0.68
4 6 -1 16.39 0.67
-4 -6 -1 16.18 0.68
4 -6 1 17.52 0.69
4 -6 -1 15.66 0.69
-4 -6 1 16.43 0.67
4 6 -1 16.07 0.68
5 6 -1 57.6 2.27
5 6 1 57.78 2.28
5 -6 -1 56.92 2.29
-5 -6 -1 55.24 2.28
-5 -6 1 55.56 2.27
5 -6 1 59.07 2.29
6 6 1 61.69 2.47
-6 -6 1 63.82 2.46
6 -6 1 62.29 2.49
6 -6 -1 60.66 2.49
6 6 -1 63.34 2.47
-6 -6 -1 60.01 2.46
6 6 -1 60.02 2.46
7 6 1 3.61 0.28
7 6 -1 3.62 0.31
7 6 -1 3.44 0.26
7 -6 1 3.32 0.39
7 -6 1 3.91 0.19
-7 -6 -1 3.4 0.25
-7 -6 1 3.48 0.25
7 6 1 3.81 0.32
7 -6 -1 3.57 0.39
8 -6 1 11.31 0.49
8 6 -1 11.48 0.55
8 6 1 11.01 0.56
8 -6 -1 11.27 0.68
8 6 1 10.93 0.58
8 6 -1 12.02 0.57
8 -6 1 11.17 0.69
-8 -6 -1 11.81 0.53
9 6 1 6.52 0.49
9 -6 1 5.86 0.71
-9 -6 -1 6.13 0.41
9 -6 1 6.66 0.33
9 6 -1 6.31 0.44
9 -6 -1 7.04 0.33
9 6 -1 6.13 0.47
9 -6 -1 6.89 0.68
9 6 1 5.91 0.47
10 -6 1 2.76 0.26
10 -6 -1 2.66 0.27
10 6 1 2.41 0.52
10 6 1 3.27 0.54
10 6 -1 2.46 0.47
10 6 -1 2.58 0.49
0 -7 -1 9.26 0.39
-1 -7 -1 4.78 0.24
-1 -7 1 5.54 0.23
1 -7 -1 5.38 0.24
-2 -7 -1 30.17 1.19
2 -7 -1 29.64 1.19
-2 -7 1 29.14 1.19
2 7 1 29.61 1.19
3 7 -1 1.19 0.12
3 -7 1 1.53 0.16
3 7 1 1.57 0.14
-3 -7 -1 1.29 0.14
3 -7 -1 1.29 0.16
3 7 -1 1.39 0.12
-3 -7 1 1.66 0.13
4 7 -1 25.01 0.96
4 7 -1 22.04 0.96
4 -7 -1 24.1 0.97
-4 -7 1 22.34 0.96
-4 -7 -1 23.28 0.96
4 -7 1 24.76 0.97
4 7 1 23.64 0.96
5 7 1 20.66 0.85
-5 -7 1 20.26 0.85
5 -7 -1 20.22 0.88
-5 -7 -1 19.92 0.85
5 -7 1 21.14 0.88
5 7 -1 20.68 0.85
5 7 -1 21.08 0.85
6 -7 1 20.74 0.91
6 7 -1 20.96 0.87
6 7 1 20.67 0.88
6 7 1 19.92 0.89
6 -7 -1 20.67 0.91
-6 -7 -1 20.02 0.87
-6 -7 1 20.15 0.86
6 7 -1 23.59 0.88
-7 -7 -1 4.71 0.31
7 7 1 4.1 0.36
7 7 -1 4.54 0.33
7 -7 -1 5.41 0.46
7 -7 1 5.23 0.45
7 7 1 4.84 0.33
7 7 -1 5.25 0.34
-7 -7 1 5 0.31
8 7 -1 7.03 0.43
8 7 1 6.12 0.44
8 7 -1 6.79 0.44
8 -7 1 6.82 0.62
8 7 1 6.62 0.46
-8 -7 -1 7.82 0.4
8 -7 1 7.6 0.33
-8 -7 1 7.01 0.4
8 -7 -1 6.75 0.59
9 -7 1 0.02 0.71
9 -7 -1 0.16 0.19
9 7 -1 -0.33 0.37
9 -7 -1 -0.39 0.69
9 -7 1 0.35 0.19
9 7 1 -0.03 0.42
9 7 1 0.53 0.43
-9 -7 -1 0.04 0.33
9 7 -1 -0.27 0.4
0 -8 -1 31.91 1.28
1 -8 -1 30.1 1.19
-1 -8 1 29.27 1.18
-1 -8 -1 29.34 1.19
2 8 1 60.88 2.62
2 -8 -1 68.12 2.62
2 8 1 68.85 2.62
-2 -8 -1 63.93 2.62
-2 -8 1 67.69 2.62
-3 -8 1 70.35 2.81
3 -8 -1 72.26 2.82
3 8 -1 73.9 2.81
-3 -8 -1 71.15 2.82
3 -8 1 74.69 2.81
3 8 1 66.3 2.81
3 8 1 66.32 2.81
4 -8 -1 40.5 1.68
4 -8 1 43.13 1.68
4 8 1 41.56 1.68
4 8 1 40.69 1.68
-4 -8 -1 42.55 1.68
4 8 -1 39.98 1.66
4 8 -1 43.13 1.67
-4 -8 1 41.89 1.67
5 -8 -1 16.97 0.73
-5 -8 1 15.75 0.69
-5 -8 -1 16.96 0.7
5 8 1 16.32 0.71
5 -8 1 16.94 0.73
5 8 -1 16.15 0.69
5 8 -1 15.63 0.69
5 8 1 16.37 0.7
6 8 -1 4.08 0.29
6 8 1 3.65 0.3
-6 -8 -1 4.25 0.28
6 8 -1 3.66 0.28
6 -8 1 4.2 0.39
-6 -8 1 4.63 0.29
6 8 1 4.06 0.31
6 -8 -1 4.32 0.39
7 -8 -1 5.81 0.51
7 8 1 4.81 0.38
7 8 -1 7.76 0.38
7 8 1 5.16 0.4
-7 -8 1 5.15 0.35
7 -8 1 6.03 0.54
-7 -8 -1 5.3 0.36
7 8 -1 5.09 0.37
8 -8 -1 11.74 0.78
-8 -8 -1 10.96 0.59
8 8 -1 11.75 0.61
8 8 1 12.2 0.63
8 -8 1 11.1 0.5
8 8 1 11.96 0.62
-8 -8 1 11.65 0.59
8 8 -1 12.07 0.58
8 -8 1 11.02 0.8
9 8 1 36.61 1.65
9 8 1 39.77 1.67
9 8 -1 38.8 1.66
9 -8 1 39.74 1.58
9 8 -1 40.13 1.63
0 -9 -1 2.21 0.18
0 -9 1 2.15 0.15
-1 -9 1 39.43 1.56
1 -9 -1 37.46 1.56
-1 -9 -1 39.99 1.56
-2 -9 1 2.96 0.19
2 -9 -1 3.3 0.22
-2 -9 -1 3.33 0.21
3 -9 1 23.45 0.9
3 -9 -1 22.92 0.92
-3 -9 -1 20.72 0.91
-3 -9 1 23.09 0.91
3 9 1 21.52 0.9
3 9 1 20.75 0.9
4 9 -1 3.43 0.22
4 9 -1 3.25 0.21
4 9 1 3.55 0.25
4 -9 -1 3.94 0.3
4 -9 1 3.61 0.27
4 9 1 3.63 0.25
-4 -9 1 3.71 0.24
-4 -9 -1 4.04 0.26
5 -9 1 0.89 0.29
-5 -9 -1 0.77 0.23
-5 -9 1 0.59 0.2
5 9 -1 0.84 0.18
5 -9 -1 1.11 0.3
5 9 1 0.92 0.23
5 9 -1 0.89 0.2
5 9 1 0.95 0.24
6 9 -1 15.68 0.7
-6 -9 1 15.76 0.71
6 9 1 15.72 0.72
6 9 1 16.37 0.72
-6 -9 -1 15.7 0.71
6 -9 -1 15.96 0.78
6 -9 1 15.77 0.77
6 9 -1 16.33 0.69
7 9 1 40.82 1.57
-7 -9 -1 36.05 1.57
-7 -9 1 36.13 1.57
7 -9 1 40.87 1.64
7 9 -1 39.51 1.56
7 9 1 37.51 1.58
7 -9 -1 37.44 1.63
7 9 -1 36.03 1.56
8 9 1 9.7 0.63
8 -9 1 12.15 0.87
-8 -9 -1 11.13 0.62
-8 -9 1 11.14 0.62
8 -9 1 10.93 0.48
8 9 1 10.78 0.62
8 -9 -1 10.97 0.85
8 9 -1 10.68 0.62
0 -10 1 5.7 0.27
0 -10 -1 5.74 0.3
-1 -10 -1 26.5 1.09
-1 -10 1 26.53 1.08
1 -10 -1 27.42 1.09
-2 -10 1 26.46 1.02
2 -10 -1 24.58 1.02
-2 -10 -1 23.88 1.03
-3 -10 1 15.48 0.67
-3 -10 -1 15.68 0.68
3 -10 1 16.35 0.67
3 -10 -1 15.4 0.69
4 -10 1 3.88 0.3
-4 -10 -1 3.4 0.3
4 -10 -1 3.7 0.34
4 10 1 3.58 0.25
4 10 1 3.76 0.26
-4 -10 1 3.46 0.27
5 10 -1 12.29 0.55
5 -10 -1 11.97 0.65
5 10 -1 13.59 0.56
5 10 1 13.11 0.58
-5 -10 1 12.95 0.58
5 -10 1 13.01 0.62
-5 -10 -1 11.55 0.59
5 10 1 12.19 0.57
6 -10 -1 11.14 0.64
6 10 1 9.66 0.56
6 -10 1 11.36 0.64
6 10 1 11.48 0.55
6 10 -1 10.8 0.51
6 10 -1 11.57 0.54
-6 -10 1 11.46 0.57
-6 -10 -1 10.62 0.57
-7 -10 -1 13.41 0.71
7 10 1 12.98 0.71
7 10 -1 12.88 0.68
7 10 -1 13.59 0.63
7 -10 1 14.38 0.83
7 10 1 13.88 0.66
7 -10 -1 15.14 0.84
-7 -10 1 13.53 0.69
8 10 1 36.53 1.66
8 10 -1 41.19 1.65
0 -11 1 4.65 0.26
0 -11 -1 4.69 0.3
1 -11 -1 57.17 2.24
-1 -11 -1 54.62 2.24
-1 -11 1 55.36 2.23
-2 -11 1 24.74 1
-2 -11 -1 23.86 1.01
2 -11 -1 23.93 1.01
-3 -11 -1 2.42 0.29
3 -11 -1 3.01 0.31
-3 -11 1 3.18 0.26
3 -11 1 2.66 0.27
4 11 1 17.09 0.75
4 -11 1 19.76 0.8
-4 -11 -1 17.25 0.81
-4 -11 1 18.7 0.8
4 -11 -1 18.17 0.82
5 -11 -1 11.61 0.67
5 11 1 12.3 0.57
5 11 1 11 0.54
-5 -11 1 11.85 0.59
5 -11 1 11.99 0.61
-5 -11 -1 12.16 0.61
6 11 1 2.4 0.31
6 -11 1 2.38 0.49
6 11 1 2.16 0.37
-6 -11 1 1.99 0.41
6 -11 -1 2.93 0.59
6 11 -1 2.71 0.27
6 11 -1 2.52 0.31
-6 -11 -1 2.28 0.43
7 11 1 30.74 1.36
7 11 -1 31.8 1.34
0 -12 1 31.45 1.26
0 -12 -1 30.59 1.28
-1 -12 -1 17.79 0.78
1 -12 -1 17.74 0.78
-1 -12 1 17.49 0.75
2 -12 -1 12.37 0.58
-2 -12 1 12.19 0.56
-2 -12 -1 12.52 0.59
-3 -12 1 1.01 0.29
3 -12 -1 1.11 0.32
3 -12 1 1.1 0.27
-3 -12 -1 1.14 0.31
-4 -12 -1 3.35 0.4
-4 -12 1 3.24 0.38
4 -12 -1 3.44 0.42
4 -12 1 4.02 0.38
5 12 1 5.74 0.34
-5 -12 1 6.69 0.47
5 -12 1 6.47 0.54
5 -12 -1 5.92 0.59
6 12 1 10.47 0.6
0 -13 -1 22.01 0.98
0 -13 1 23.36 0.96
1 -13 -1 22.14 1.01
-1 -13 1 24.17 0.99
-1 -13 -1 23.51 1.01
2 -13 -1 0.12 0.35
-2 -13 1 0.54 0.3
-2 -13 -1 -0.02 0.36
-3 -13 -1 1.3 0.4
-3 -13 1 1.44 0.36
3 -13 -1 0.71 0.38
0 0 2 113.58 4.77
0 0 -2 127.32 4.8
1 0 2 64.9 2.58
-1 0 -2 64.94 2.58
-1 0 2 65.75 2.59
2 0 -2 150.71 5.88
-2 0 2 146.46 5.88
-3 0 2 1.9 0.14
3 0 2 2.11 0.11
-3 0 -2 2.3 0.1
3 0 -2 2.24 0.13
-4 0 2 1.56 0.16
4 0 -2 1.12 0.14
4 0 2 1.26 0.09
-4 0 -2 1.33 0.09
5 0 -2 3.33 0.21
-5 0 -2 2.99 0.15
5 0 -2 3.31 0.16
5 0 2 3.07 0.16
6 0 -2 8.76 0.38
6 0 2 9.24 0.38
6 0 -2 8.39 0.42
-6 0 -2 9.07 0.37
7 0 -2 16.95 0.7
7 0 2 17.01 0.7
7 0 -2 16.76 0.74
8 0 -2 52.8 2.11
8 0 -2 52.76 2.15
8 0 2 52.88 2.12
9 0 2 0.4 0.2
9 0 -2 0.36 0.2
9 0 -2 0.04 0.36
10 0 -2 1.18 0.27
10 0 -2 0.67 0.46
10 0 2 1.45 0.26
10 0 2 1.03 0.53
11 0 2 2.47 0.36
11 0 -2 2.43 0.36
0 -1 -2 1.9 0.09
0 -1 2 1.7 0.08
0 1 -2 1.78 0.08
1 -1 2 312.09 12.88
1 1 2 337.63 12.86
2 -1 -2 56.64 2.26
-2 1 -2 57.11 2.25
-2 -1 2 56.75 2.26
3 -1 2 71.05 2.93
-3 -1 2 72.65 2.94
3 1 -2 72.92 2.94
-3 1 -2 74.1 2.93
-3 1 2 75.16 2.94
3 1 2 77.3 2.93
3 -1 -2 73.58 2.94
-3 -1 -2 75.15 2.93
5 1 2 6.16 0.28
5 -1 -2 6.19 0.31
5 1 -2 6.59 0.31
-5 -1 -2 6.45 0.27
5 1 -2 5.95 0.27
5 -1 2 5.9 0.27
-6 -1 -2 26.18 1.03
6 1 -2 25.2 1.06
6 -1 2 26.24 1.03
6 1 2 24.87 1.03
6 -1 -2 25.52 1.06
6 1 -2 25.59 1.03
-7 -1 -2 78.83 3.04
7 1 -2 76.46 3.07
7 -1 -2 79.68 3.04
7 -1 2 75.09 3.04
7 1 -2 76.24 3.04
7 -1 -2 72.9 3.07
7 1 2 76.7 3.05
8 -1 -2 17.8 0.73
8 -1 -2 16.45 0.8
8 1 -2 18.39 0.74
8 -1 2 17.98 0.74
8 1 -2 18.01 0.79
8 1 2 17.11 0.74
9 1 2 16.43 0.71
9 -1 2 16.51 0.7
9 1 -2 15.93 0.78
9 -1 -2 15.65 0.79
9 1 -2 16.74 0.71
9 -1 -2 16.35 0.69
10 1 -2 0.76 0.46
10 1 2 1.53 0.55
10 -1 -2 0.02 0.49
10 -1 -2 0.39 0.24
10 1 2 0.58 0.27
10 1 -2 0.79 0.27
10 -1 2 0.68 0.57
10 -1 2 0.59 0.25
11 -1 -2 5.31 0.4
11 -1 2 4.67 0.4
11 1 2 5.78 0.43
11 1 -2 4.84 0.44
0 -2 -2 12.79 0.51
0 -2 2 11.82 0.5
0 2 2 12.95 0.51
1 2 2 1000 39.54
2 2 -2 413.15 15.56
2 -2 2 372.91 15.55
-3 -2 2 363.26 14.15
3 -2 -2 364.94 14.15
3 2 -2 355 14.18
-3 -2 -2 346.69 14.17
3 2 -2 360.83 14.15
4 2 -2 95.6 3.92
4 -2 -2 94.71 3.92
4 -2 2 99.71 3.91
4 2 2 96.7 3.91
-4 -2 -2 99.43 3.91
-4 2 2 104.15 3.92
4 2 -2 100.8 3.91
5 2 2 51.93 2.02
5 2 -2 48.78 2.03
5 -2 2 50.99 2.02
5 2 -2 51.73 2.02
5 -2 -2 50.5 2.04
-5 -2 -2 50.79 2.02
6 -2 2 23.9 0.98
6 -2 -2 24.25 1.01
6 2 -2 24.12 1
6 2 2 23.88 0.99
6 2 -2 24.91 0.98
-6 -2 -2 24.52 0.98
7 2 -2 18.31 0.78
7 -2 -2 17.73 0.82
7 2 2 19.17 0.78
-7 -2 -2 18.92 0.77
7 2 -2 19.75 0.81
7 -2 2 18.75 0.77
9 -2 -2 4.3 0.26
9 -2 -2 4.33 0.46
9 2 -2 4.16 0.4
9 -2 2 4.35 0.26
9 2 -2 3.97 0.29
9 2 2 4.06 0.3
10 -2 2 1.65 0.63
10 2 -2 1.78 0.31
10 2 2 2.13 0.31
10 -2 -2 1.47 0.54
10 -2 2 1.31 0.25
10 2 -2 1.61 0.45
10 2 2 1.97 0.53
10 -2 -2 1.96 0.25
11 -2 -2 3.91 0.36
11 2 2 3.61 0.44
11 2 -2 3.67 0.45
11 -2 2 3.88 0.36
0 -3 -2 182.58 7.39
0 3 2 191.34 7.42
-1 -3 2 123.59 5.26
-1 3 2 138.9 5.26
1 -3 -2 130.98 5.26
-1 -3 -2 130.93 5.26
1 3 -2 138.12 5.3
1 3 2 134.72 5.26
2 -3 2 17.64 0.76
2 3 -2 20.06 0.76
-2 -3 2 20.52 0.76
2 3 -2 18.36 0.76
-2 -3 -2 19.08 0.77
-2 -3 2 18.03 0.77
2 -3 -2 19.61 0.77
-2 3 2 19.05 0.77
3 3 -2 112.84 4.47
-3 3 2 112.87 4.47
-3 -3 2 110 4.47
3 -3 2 112.25 4.49
3 -3 -2 116.49 4.47
3 3 -2 112.81 4.46
-3 -3 -2 112.68 4.47
4 -3 -2 21.29 0.88
-4 3 2 21.08 0.88
4 3 2 22.37 0.87
4 -3 2 21.5 0.86
-4 -3 -2 21.27 0.87
4 3 -2 21.94 0.86
4 3 -2 20.89 0.87
-5 -3 -2 74.44 2.89
5 3 -2 71.79 2.9
5 -3 -2 74.51 2.9
5 3 -2 70.09 2.88
6 3 -2 36.96 1.48
6 -3 2 36.32 1.46
-6 -3 -2 36.48 1.46
6 -3 -2 36 1.49
7 -3 2 47.51 1.99
7 3 2 49.07 2
7 3 -2 50.53 2.02
7 -3 -2 52.75 2.03
7 3 -2 49.53 2
-7 -3 -2 50.37 2
8 -3 -2 11.2 0.58
-8 -3 -2 10.54 0.49
8 -3 2 11.17 0.48
8 3 -2 11.14 0.55
8 3 2 11.47 0.51
8 -3 -2 10.94 0.48
8 3 -2 10.76 0.5
9 3 -2 11.44 0.55
9 -3 -2 11.24 0.67
9 3 -2 11.28 0.6
9 -3 2 11.41 0.51
9 -3 2 11.95 0.72
9 -3 -2 11.53 0.51
9 3 2 11.67 0.55
10 3 -2 10.6 0.64
10 -3 2 10.85 0.5
10 3 2 10.3 0.69
10 -3 -2 11.24 0.5
10 -3 2 8.4 0.81
10 -3 -2 10.81 0.75
10 3 -2 11.49 0.57
10 3 2 11.17 0.57
11 -3 2 10.89 0.56
11 3 2 10.53 0.66
11 -3 -2 11.48 0.56
11 3 -2 11.21 0.68
0 -4 -2 72.88 2.84
0 4 2 70.5 2.84
-1 4 2 50.63 2.13
1 -4 -2 53.77 2.13
1 4 2 53.02 2.13
-1 -4 -2 54.56 2.13
-1 -4 2 56.36 2.13
-2 4 2 37.65 1.47
2 4 -2 39.04 1.46
2 4 2 36.62 1.47
-2 -4 2 33.76 1.47
2 -4 -2 36.56 1.47
-2 -4 -2 37.16 1.47
2 4 -2 35.86 1.46
-2 -4 2 37.52 1.46
3 -4 -2 69.09 2.76
3 4 -2 67.24 2.76
3 4 -2 68.29 2.75
-3 4 2 69.82 2.76
-3 -4 -2 71.41 2.76
-3 -4 2 69.04 2.75
3 4 2 71.73 2.76
4 4 2 19.02 0.77
4 4 -2 19.72 0.77
-4 -4 -2 18.2 0.77
4 -4 -2 19.09 0.78
-4 -4 2 18.7 0.76
4 -4 2 18.76 0.76
5 4 -2 57.5 2.3
5 -4 -2 59.58 2.31
5 -4 2 54.5 2.29
5 4 -2 56.1 2.3
5 4 2 58.62 2.3
-5 -4 -2 59.85 2.3
6 4 -2 36.73 1.48
6 -4 -2 35.41 1.5
-6 -4 -2 37.13 1.48
6 4 -2 38.15 1.5
6 4 2 36.87 1.49
6 -4 2 36.9 1.47
7 -4 -2 11.66 0.53
7 4 -2 10.49 0.47
7 -4 2 10.19 0.44
7 4 -2 9.95 0.5
7 4 2 10.08 0.47
-7 -4 -2 10.17 0.46
8 4 2 16.68 0.72
8 4 -2 16.57 0.71
-8 -4 -2 16.62 0.7
8 -4 2 16.48 0.68
8 4 -2 16.14 0.74
8 -4 -2 15.66 0.78
9 -4 2 14.72 0.85
9 -4 -2 15.59 0.63
9 -4 -2 14.33 0.78
-9 -4 -2 15.56 0.65
9 -4 2 14.57 0.62
9 4 -2 13.58 0.68
9 4 -2 13.66 0.7
9 4 2 14.74 0.68
10 -4 -2 -0.38 0.63
10 4 2 0.81 0.52
10 -4 2 0.28 0.23
10 -4 -2 0.57 0.22
10 4 -2 0.56 0.44
10 4 -2 1.01 0.37
10 4 2 0.14 0.38
10 -4 2 0.56 0.71
0 -5 -2 43.64 1.69
0 5 2 41.07 1.68
-1 -5 2 12.12 0.48
-1 -5 -2 11.5 0.49
1 5 2 12.06 0.48
-1 -5 2 11.94 0.48
-1 5 2 11.56 0.48
1 -5 -2 11.75 0.49
-2 5 2 70.54 2.8
2 5 2 70.92 2.8
2 5 -2 64.34 2.79
2 -5 -2 73.52 2.8
-2 -5 2 72.2 2.79
-2 -5 -2 73.12 2.8
2 5 -2 73.34 2.79
-2 -5 2 65.56 2.79
3 5 2 31.45 1.26
3 -5 -2 30.1 1.26
-3 -5 -2 31.04 1.26
3 5 -2 32.55 1.25
3 5 -2 30.95 1.25
-3 -5 2 31.08 1.25
-3 5 2 32.46 1.26
4 -5 -2 12.79 0.55
4 5 -2 12.1 0.52
4 5 -2 12.18 0.53
-4 -5 -2 12.87 0.53
-4 -5 2 13.44 0.52
4 5 2 12.67 0.53
5 -5 -2 16.55 0.71
-5 -5 2 16.58 0.68
5 5 2 16.86 0.69
5 5 -2 16.86 0.69
5 -5 2 16.21 0.67
5 5 -2 16.46 0.68
-5 -5 -2 16.58 0.69
6 5 -2 78.5 3.12
6 5 -2 79.95 3.11
6 -5 -2 78.45 3.13
6 5 2 75.69 3.12
-6 -5 -2 77.09 3.11
6 -5 2 79.63 3.1
7 5 -2 3.59 0.29
7 5 2 3.23 0.27
7 5 -2 3.43 0.25
7 -5 2 3.6 0.19
7 -5 -2 3.55 0.36
-7 -5 -2 3.67 0.23
8 5 -2 28.54 1.19
-8 -5 -2 28.73 1.16
8 -5 -2 28.03 1.24
8 5 2 28.64 1.18
8 5 -2 26.33 1.17
8 -5 2 27.87 1.25
8 -5 2 29.29 1.14
9 -5 -2 0.72 0.18
9 5 -2 0.47 0.31
9 -5 2 0.86 0.58
9 5 2 0.53 0.43
-9 -5 -2 0.82 0.25
9 5 -2 0.7 0.35
9 5 2 1.09 0.33
9 -5 2 0.75 0.18
9 -5 -2 0.69 0.54
10 -5 -2 1.14 0.24
10 5 -2 1.39 0.43
10 5 -2 1.24 0.42
-10 -5 -2 1.34 0.3
10 -5 2 1.2 0.24
10 5 2 1.56 0.54
10 5 2 1.25 0.44
0 6 2 1.11 0.1
0 -6 -2 1.19 0.11
1 6 2 21.73 0.86
1 -6 -2 21.07 0.86
-1 6 2 20.69 0.86
-1 -6 -2 20.94 0.86
-1 -6 2 22.12 0.85
-2 -6 -2 92.9 3.96
-2 -6 2 105.04 3.96
2 -6 -2 100.47 3.97
-2 6 2 104.58 3.97
2 6 2 97.12 3.96
3 6 -2 76 2.91
-3 -6 -2 72.71 2.92
3 6 2 72.59 2.92
-3 -6 2 75.8 2.91
3 6 -2 69.63 2.91
3 -6 -2 73.62 2.92
-4 -6 -2 31.06 1.2
4 -6 -2 29.72 1.2
-4 -6 2 29.91 1.19
4 6 -2 28.89 1.19
4 6 -2 29.06 1.19
4 6 2 28.82 1.2
5 6 2 26.73 1.04
-5 -6 -2 24.52 1.03
5 -6 -2 25.02 1.05
-5 -6 2 25.4 1.03
5 6 -2 24 1.03
5 6 -2 26.48 1.03
6 6 -2 24.48 0.97
-6 -6 2 24.66 0.97
6 6 -2 23.16 0.98
-6 -6 -2 23.65 0.97
6 -6 2 22.99 0.95
6 -6 -2 23.08 1
6 6 2 23.09 0.98
7 -6 2 9.36 0.4
7 -6 -2 9.79 0.54
7 6 -2 9.59 0.45
7 6 2 9.04 0.46
-7 -6 -2 9.12 0.44
7 6 -2 8.86 0.46
8 -6 -2 22.65 1.08
8 6 -2 24.24 1
8 6 -2 21.86 0.99
8 6 2 24.09 1
8 -6 2 23.13 0.95
-8 -6 -2 23.35 0.98
8 -6 2 23.51 1.1
9 6 -2 8.82 0.52
9 6 2 7.87 0.58
9 6 2 8.42 0.55
9 -6 2 9.35 0.41
-9 -6 -2 8.51 0.47
9 -6 2 9.09 0.77
9 6 -2 9.12 0.52
9 -6 -2 8.76 0.73
10 -6 2 0.46 0.24
10 -6 -2 0.3 0.25
10 6 2 0.39 0.5
10 6 -2 0.05 0.47
0 7 2 31.17 1.22
0 -7 -2 29.75 1.22
-1 7 2 19.52 0.76
-1 -7 2 19.88 0.76
-1 -7 -2 17.87 0.77
1 7 2 18.72 0.76
1 -7 -2 18.27 0.77
-2 -7 -2 38.2 1.54
2 -7 -2 37.47 1.54
-2 7 2 40.11 1.53
2 7 2 37.12 1.53
-2 -7 2 38.63 1.52
3 7 2 54.82 2.22
3 -7 -2 56.36 2.23
3 7 -2 51.5 2.21
3 7 -2 59.75 2.21
-3 -7 -2 55.84 2.22
-3 -7 2 56.19 2.22
4 7 2 17.62 0.71
-4 -7 2 17.56 0.69
4 -7 -2 16.79 0.72
4 7 -2 16.15 0.69
4 7 -2 16.99 0.69
-4 -7 -2 16.11 0.7
5 7 2 18.93 0.79
-5 -7 -2 18.81 0.79
-5 -7 2 18.84 0.78
5 7 -2 18.08 0.78
5 -7 -2 19.02 0.81
5 7 -2 19.26 0.78
6 -7 -2 17.48 0.79
6 -7 2 16.72 0.71
6 7 -2 17.3 0.74
-6 -7 -2 16.57 0.74
6 7 2 16.52 0.75
-6 -7 2 18.73 0.74
6 -7 2 18.41 0.79
6 7 -2 17.65 0.74
7 7 -2 13.97 0.63
7 7 -2 14.23 0.63
7 -7 -2 14.23 0.72
7 -7 2 14.96 0.74
-7 -7 -2 14.17 0.63
7 7 2 13.14 0.65
7 -7 2 14.41 0.59
8 7 2 7.61 0.52
8 -7 2 8.01 0.65
-8 -7 -2 8.18 0.44
8 7 -2 8.53 0.46
8 7 2 7.92 0.49
8 7 -2 7.37 0.46
8 -7 -2 8.06 0.64
8 -7 2 8.21 0.37
9 7 -2 30.35 1.28
9 -7 2 30.3 1.47
-9 -7 -2 29.36 1.27
9 -7 2 30.46 1.23
9 7 2 30.24 1.32
9 7 -2 28.08 1.29
9 -7 -2 31.67 1.44
9 7 2 30.23 1.31
0 -8 -2 6.02 0.29
-1 -8 -2 150.99 5.93
-1 -8 2 148.07 5.92
1 -8 -2 149.84 5.93
1 8 2 150.18 5.93
2 8 2 19.52 0.8
2 -8 -2 19.36 0.81
-2 -8 2 20.84 0.79
-2 -8 -2 18.63 0.81
-3 -8 -2 26.39 1.09
3 8 2 27.07 1.09
3 -8 -2 26.61 1.1
-3 -8 2 26.97 1.08
4 -8 -2 -0.16 0.23
4 8 -2 0.34 0.13
4 8 -2 0.35 0.13
4 -8 2 0.41 0.21
-4 -8 2 0.29 0.15
4 8 2 0.49 0.18
-4 -8 -2 0.29 0.16
-5 -8 -2 12.14 0.55
5 -8 -2 12.77 0.58
5 8 2 12.23 0.55
5 -8 2 12.7 0.57
5 8 -2 11.65 0.53
-5 -8 2 12.1 0.53
5 8 -2 11.37 0.52
6 8 2 11.62 0.57
-6 -8 2 12.21 0.55
6 -8 -2 11.93 0.63
6 -8 2 13.31 0.62
6 8 -2 11.97 0.54
-6 -8 -2 11.7 0.56
6 8 -2 12.23 0.55
-7 -8 -2 20.92 0.88
7 -8 2 20.62 0.98
7 8 2 19.6 0.9
7 8 -2 21.28 0.88
7 -8 2 20.46 0.83
7 -8 -2 21.18 0.97
-7 -8 2 20.51 0.88
7 8 2 17.75 0.89
7 8 -2 21.52 0.88
8 8 -2 15.57 0.68
-8 -8 -2 14.44 0.69
8 -8 2 14.15 0.89
8 -8 2 14.45 0.61
8 -8 -2 13.16 0.86
8 8 -2 14.2 0.71
8 8 2 15.23 0.72
8 8 2 14.18 0.73
9 8 2 2.59 0.52
9 -8 2 2.65 0.24
9 8 -2 2.74 0.51
9 8 -2 2.46 0.39
9 8 2 2.64 0.49
0 -9 -2 36.82 1.48
-1 -9 -2 45.92 1.94
-1 -9 2 51.81 1.92
1 -9 -2 47.2 1.94
2 9 2 41.21 1.65
-2 -9 -2 41 1.66
2 -9 -2 40.6 1.66
-2 -9 2 41.67 1.64
-3 -9 2 7.59 0.35
-3 -9 -2 7.23 0.37
3 9 2 7.79 0.37
3 -9 -2 7.9 0.39
4 -9 -2 3.34 0.31
-4 -9 -2 2.96 0.25
4 9 2 3.33 0.25
4 -9 2 3.31 0.27
-4 -9 2 3.2 0.22
5 9 -2 0.54 0.17
5 -9 2 0.12 0.31
5 9 -2 0.68 0.19
-5 -9 2 0 0.21
5 9 2 0.2 0.24
-5 -9 -2 0.66 0.24
5 -9 -2 0.24 0.34
6 -9 2 7.1 0.51
6 9 2 7.1 0.44
-6 -9 2 6.94 0.39
-6 -9 -2 6.45 0.42
6 9 -2 7.38 0.38
6 9 -2 7.57 0.39
6 -9 -2 8.44 0.53
7 9 2 26.95 1.19
-7 -9 -2 25.6 1.17
-7 -9 2 28.37 1.17
7 -9 -2 26.8 1.26
7 -9 2 28.7 1.26
7 -9 2 27.92 1.11
7 9 -2 27.42 1.16
7 9 -2 27.69 1.15
7 9 2 28.96 1.18
8 9 2 13.75 0.71
-8 -9 -2 11.05 0.7
8 9 -2 14.68 0.65
8 9 2 14.51 0.75
8 -9 2 13.35 0.96
8 -9 2 14.13 0.58
8 9 -2 13.69 0.7
0 -10 -2 11.42 0.51
1 -10 -2 10.75 0.51
-1 -10 -2 10.94 0.52
-1 -10 2 12.51 0.48
-2 -10 -2 7.53 0.38
2 -10 -2 7.37 0.38
-2 -10 2 7.26 0.34
-3 -10 2 1.88 0.2
3 10 2 1.86 0.21
3 -10 -2 1.46 0.27
-3 -10 -2 1.93 0.24
3 10 2 1.8 0.2
4 10 2 1.43 0.24
4 10 2 1.26 0.23
4 -10 2 1.39 0.26
-4 -10 -2 1.12 0.25
4 -10 -2 1.46 0.31
-4 -10 2 1.15 0.21
5 -10 -2 12.34 0.65
-5 -10 -2 11.53 0.59
5 10 -2 12.33 0.53
-5 -10 2 10.72 0.56
5 10 2 12.35 0.58
5 10 2 12.1 0.57
5 -10 2 13.2 0.6
-6 -10 2 6.79 0.42
-6 -10 -2 5.61 0.45
6 10 2 6.95 0.45
6 -10 2 7.74 0.54
6 10 -2 6.88 0.36
6 10 -2 7.07 0.4
6 10 2 6.58 0.42
6 -10 -2 7.34 0.6
7 -10 2 1.91 0.17
-7 -10 -2 1.93 0.41
7 -10 -2 1.14 0.66
7 10 -2 1.61 0.3
7 10 2 2.38 0.38
7 -10 2 2.46 0.6
-7 -10 2 1.82 0.4
7 10 2 1.62 0.45
7 10 -2 2.14 0.34
8 10 2 8.58 0.69
8 10 -2 8.22 0.57
0 -11 -2 0.48 0.25
-1 -11 2 23.23 0.9
1 -11 -2 21.61 0.93
-1 -11 -2 21.18 0.93
2 -11 -2 11.09 0.55
-2 -11 -2 11.64 0.56
-2 -11 2 12.64 0.52
3 -11 -2 1.74 0.3
-3 -11 2 2.03 0.24
-3 -11 -2 1.82 0.29
-4 -11 2 8.6 0.43
4 -11 2 8.99 0.44
4 -11 -2 8.1 0.51
4 11 2 7.97 0.42
-4 -11 -2 8.27 0.47
4 11 2 8.5 0.44
5 11 2 6.16 0.41
5 -11 -2 5.56 0.53
-5 -11 -2 5.82 0.45
5 11 2 5.35 0.38
-5 -11 2 5.76 0.41
5 -11 2 5.39 0.44
6 -11 -2 2.84 0.63
6 11 2 3.43 0.36
-6 -11 2 3.11 0.4
-6 -11 -2 2.81 0.44
6 -11 2 3.42 0.5
6 11 2 2.58 0.41
6 11 -2 3.12 0.25
7 11 -2 23.44 0.99
7 11 2 21.25 1.05
0 -12 -2 5.6 0.39
1 -12 -2 46.07 1.86
-1 -12 -2 42.86 1.86
-1 -12 2 47.95 1.83
-2 -12 -2 29.8 1.3
-2 -12 2 33.17 1.27
2 -12 -2 30.43 1.31
-3 -12 2 55.17 2.11
-3 -12 -2 48.07 2.13
3 -12 -2 53.21 2.13
-4 -12 2 19.61 0.82
4 -12 -2 18.14 0.88
-4 -12 -2 17.39 0.86
5 -12 -2 15.7 0.86
-5 -12 2 15.18 0.77
5 12 2 16.51 0.74
5 -12 2 15.71 0.76
5 12 2 15.15 0.69
6 12 2 8.53 0.59
0 -13 -2 0.1 0.38
-1 -13 2 3.35 0.29
1 -13 -2 3.61 0.41
-1 -13 -2 2.7 0.41
-2 -13 2 1.38 0.29
2 -13 -2 1.32 0.41
-2 -13 -2 1.92 0.42
3 -13 -2 17.31 0.86
-3 -13 2 18.62 0.81
-3 -13 -2 17.27 0.87
0 0 3 0.06 0.05
0 0 -3 0.02 0.05
-1 0 3 117.14 4.62
1 0 3 115.9 4.62
1 0 -3 117.31 4.62
-2 0 3 116.57 4.66
2 0 -3 119.26 4.66
2 0 3 116.99 4.65
3 0 -3 17.27 0.72
-3 0 -3 18.12 0.71
-3 0 3 17.57 0.72
3 0 3 18 0.71
4 0 3 0.24 0.08
-4 0 3 0.59 0.14
-4 0 -3 0.29 0.07
4 0 -3 0.34 0.12
5 0 3 8.37 0.35
-5 0 -3 8.35 0.34
-5 0 3 7.92 0.38
5 0 -3 7.66 0.37
6 0 -3 13.78 0.59
-6 0 -3 13.76 0.56
6 0 3 13.12 0.56
-7 0 -3 66.34 2.78
7 0 -3 69.54 2.81
7 0 3 71.92 2.79
7 0 -3 72.11 2.79
8 0 -3 0.02 0.29
8 0 3 0.15 0.17
8 0 -3 0.2 0.16
9 0 3 39.58 1.56
9 0 -3 38.56 1.56
9 0 -3 36.8 1.6
10 0 -3 10.83 0.52
10 0 -3 9.79 0.66
10 0 3 11.02 0.52
11 0 3 4.36 0.41
11 0 -3 4.93 0.43
0 -1 3 25.78 1.07
0 1 -3 27.38 1.07
0 -1 -3 27 1.07
0 1 3 27 1.07
1 1 3 166.91 6.71
1 -1 -3 178.38 6.76
-1 1 -3 163.6 6.73
-1 -1 3 173.53 6.74
1 -1 3 162.54 6.73
-1 -1 -3 170.32 6.71
1 1 -3 172.7 6.75
-2 -1 -3 10.47 0.42
-2 1 -3 10.33 0.42
2 -1 3 10.47 0.42
2 1 -3 10.44 0.42
-2 1 3 9.84 0.43
2 1 3 10.4 0.42
2 -1 -3 10.05 0.43
3 -1 3 11.68 0.47
3 1 -3 11.28 0.47
5 1 -3 27.91 1.14
5 -1 -3 28.8 1.14
-5 1 -3 27 1.12
-5 -1 3 28.67 1.15
6 1 3 0.89 0.13
6 1 -3 1.04 0.19
6 -1 3 0.9 0.12
6 -1 -3 1.17 0.2
6 1 -3 1.08 0.12
-6 -1 -3 0.97 0.11
7 -1 -3 26.55 1.14
7 1 -3 27.05 1.11
7 1 3 28.73 1.12
7 1 -3 27.44 1.14
-7 -1 -3 26.17 1.11
7 -1 3 28.93 1.11
8 1 -3 7.04 0.35
8 -1 -3 7.66 0.44
8 -1 -3 7.23 0.34
8 1 3 7.23 0.35
-8 -1 -3 7.46 0.33
8 1 -3 6.13 0.42
8 -1 3 7.11 0.34
9 1 -3 16.31 0.71
9 -1 -3 15.2 0.79
9 1 -3 16.93 0.77
9 -1 -3 16.1 0.7
9 1 3 16.22 0.71
9 -1 3 16.77 0.7
10 -1 3 41.11 1.63
10 1 3 41.06 1.64
10 -1 -3 37.56 1.71
10 -1 -3 40.14 1.63
10 1 -3 37.94 1.69
10 1 -3 40.93 1.64
11 -1 -3 3.95 0.38
11 1 -3 3.39 0.42
11 1 3 3.8 0.41
11 -1 3 3.11 0.37
0 2 3 224.67 8.29
0 2 -3 194.97 8.32
0 -2 3 209.67 8.32
-1 2 -3 11.1 0.44
2 -2 -3 127.89 4.89
2 2 3 124.12 4.89
-2 2 3 122.86 4.89
-2 2 -3 119.15 4.9
-2 -2 3 126.08 4.89
-2 -2 -3 125.82 4.89
2 2 -3 124.32 4.89
2 -2 3 118.04 4.88
-3 -2 3 43.91 1.77
-3 2 -3 42.1 1.75
3 2 -3 45.37 1.76
3 -2 3 44.03 1.76
3 2 3 45.65 1.76
3 2 -3 44.04 1.76
3 -2 -3 44.57 1.77
-3 -2 -3 44.89 1.76
-3 2 3 44.12 1.77
-4 2 3 5 0.26
4 2 -3 4.59 0.24
4 2 3 4.92 0.23
-4 -2 3 4.46 0.25
4 2 -3 4.73 0.21
-4 -2 -3 5.02 0.22
4 -2 -3 4.76 0.24
4 -2 3 4.75 0.21
-5 -2 3 5.4 0.29
-5 -2 -3 5.12 0.24
5 2 3 5.22 0.25
5 2 -3 5.19 0.27
5 -2 -3 5.41 0.28
5 -2 3 5.13 0.23
5 2 -3 5.26 0.24
-5 2 3 5.34 0.3
6 -2 3 81.34 3.25
6 -2 -3 83.08 3.28
6 2 -3 81.91 3.26
-6 -2 -3 84 3.26
6 2 -3 79.99 3.27
7 2 3 15.53 0.66
7 2 -3 15.79 0.65
-7 -2 -3 15.76 0.65
7 2 -3 14.36 0.68
7 -2 3 16.46 0.65
7 -2 -3 15.6 0.7
8 -2 -3 12.37 0.53
8 2 3 12.05 0.55
8 -2 3 13.03 0.53
-8 -2 -3 12.93 0.53
8 -2 -3 12.56 0.62
8 2 -3 11.46 0.54
8 2 -3 12.03 0.59
9 -2 -3 2.11 0.21
9 -2 -3 1.68 0.42
-9 -2 -3 2.09 0.2
9 -2 3 1.79 0.22
9 2 -3 1.51 0.25
9 2 -3 1.48 0.36
9 2 3 1.56 0.25
10 -2 -3 4.18 0.56
10 -2 3 4.3 0.32
10 2 3 4.19 0.37
10 -2 -3 4.21 0.31
10 2 -3 4.12 0.49
10 2 -3 4.06 0.37
11 -2 3 0.44 0.32
11 2 -3 0.36 0.43
11 2 3 0.81 0.42
11 -2 -3 0.6 0.33
0 3 3 39.56 1.52
0 -3 -3 40.19 1.52
0 -3 3 34.93 1.52
-1 -3 3 359.88 14.17
1 -3 3 345.45 14.21
-1 3 3 392.04 14.19
-1 -3 -3 349.02 14.17
1 3 -3 343.26 14.19
2 3 3 176.11 6.66
2 -3 3 156.95 6.66
-2 3 3 168.38 6.66
2 3 -3 159.88 6.65
2 -3 -3 172.86 6.66
2 3 -3 179.67 6.68
-2 -3 3 163.07 6.66
-2 -3 -3 169.55 6.66
3 -3 3 57.37 2.33
-3 -3 3 57.65 2.34
3 -3 -3 57.5 2.35
3 3 -3 57.2 2.34
3 3 3 61.4 2.34
-3 -3 -3 60.3 2.34
3 3 -3 59.91 2.34
-3 3 3 59.93 2.35
4 3 -3 5.96 0.26
4 -3 3 5.86 0.25
4 3 -3 6.39 0.28
-4 3 3 6.17 0.3
4 -3 -3 5.44 0.28
-4 -3 -3 5.51 0.26
-4 -3 3 5.64 0.29
-5 3 3 176.85 6.73
5 3 3 164.64 6.72
5 3 -3 169.79 6.72
5 -3 3 166.15 6.71
-5 -3 -3 167.62 6.71
5 3 -3 168.88 6.71
5 -3 -3 173.76 6.72
6 -3 3 8.64 0.37
6 3 -3 8.67 0.41
-6 -3 -3 8.36 0.38
6 -3 -3 8.45 0.42
6 3 3 8.48 0.39
6 3 -3 8.62 0.38
-7 -3 -3 12.8 0.55
7 3 -3 13.18 0.59
7 -3 3 12.71 0.54
7 3 3 12.95 0.56
7 -3 -3 12.96 0.61
7 3 -3 12.71 0.55
-8 -3 -3 38.72 1.6
8 3 -3 39.72 1.63
8 -3 -3 40.01 1.65
8 3 -3 38.51 1.61
8 -3 3 40.51 1.6
8 3 3 40.78 1.62
9 3 3 2.76 0.3
9 -3 3 2.69 0.22
9 -3 -3 2.12 0.46
9 3 -3 2.6 0.29
-9 -3 -3 2.28 0.24
9 3 -3 2.15 0.37
9 -3 -3 2.2 0.21
10 -3 -3 1.22 0.24
10 3 3 0.99 0.36
10 3 -3 1.55 0.43
10 3 -3 0.91 0.34
10 -3 -3 0.99 0.59
10 -3 3 0.8 0.24
0 4 3 131.58 5.25
0 -4 -3 133.79 5.25
-1 -4 -3 4.13 0.19
1 4 3 4.22 0.19
1 -4 -3 4.06 0.19
-1 4 3 3.75 0.19
-2 4 3 13.68 0.55
2 4 3 12.82 0.54
-2 -4 -3 13.07 0.54
2 -4 3 12.7 0.53
2 4 -3 14.07 0.53
2 -4 -3 13.71 0.55
2 4 -3 12.3 0.53
3 4 3 175.07 7.06
-3 -4 3 178.21 7.06
3 4 -3 175.59 7.05
3 -4 -3 186.72 7.06
-3 4 3 182.53 7.06
3 -4 3 170.44 7.05
3 4 -3 186.96 7.09
-3 -4 -3 171.43 7.05
4 4 3 26.53 1.04
4 4 -3 25.84 1.03
-4 4 3 26.04 1.06
-4 -4 3 26.52 1.05
-4 -4 -3 26.3 1.04
4 -4 -3 25.17 1.05
4 4 -3 23.99 1.04
4 -4 3 25.32 1.02
5 4 -3 0.66 0.15
5 4 -3 0.58 0.12
5 -4 3 0.43 0.08
5 -4 -3 0.46 0.2
5 4 3 0.67 0.14
-5 4 3 0.39 0.22
-5 -4 -3 0.57 0.12
6 -4 3 11.05 0.45
6 4 -3 11.26 0.47
6 4 3 11.39 0.48
6 4 -3 10.24 0.49
-6 -4 -3 10.36 0.47
6 -4 -3 10.8 0.52
7 4 3 7.51 0.38
7 -4 -3 7.51 0.44
7 4 -3 7.87 0.4
7 4 -3 7.52 0.37
-7 -4 -3 7.33 0.36
7 -4 3 7.54 0.34
8 4 -3 3.85 0.32
8 4 3 2.85 0.29
8 -4 -3 3.33 0.41
-8 -4 -3 3.54 0.25
8 -4 3 3.37 0.21
8 4 -3 3.18 0.27
9 -4 3 4.47 0.28
9 -4 -3 4.83 0.53
9 4 -3 4.24 0.39
-9 -4 -3 4.05 0.3
9 4 -3 4.49 0.35
10 -4 -3 8.69 0.43
10 4 -3 7.62 0.54
-10 -4 -3 7.89 0.45
10 -4 3 8.92 0.88
10 -4 3 9.04 0.44
10 4 -3 8.73 0.57
10 -4 -3 8.24 0.75
0 5 3 0 0.09
0 -5 -3 0.03 0.1
1 5 3 76.77 3.15
1 -5 -3 76.65 3.15
-1 5 3 78.34 3.15
-1 -5 3 85.36 3.15
-1 -5 -3 76.57 3.15
-1 -5 3 82.85 3.17
-2 5 3 18.74 0.76
2 -5 -3 19.43 0.76
-2 -5 -3 18.6 0.76
2 5 -3 17.02 0.74
-2 -5 3 17.43 0.75
-2 -5 3 19.43 0.75
2 5 3 19.53 0.76
3 -5 3 65.69 2.78
3 5 -3 72.61 2.78
-3 -5 3 68.54 2.79
3 -5 -3 72.13 2.79
-3 -5 -3 71.38 2.79
3 5 3 72.77 2.79
3 5 -3 68.25 2.78
-3 5 3 69.87 2.79
-4 5 3 10.39 0.46
-4 -5 -3 10.28 0.43
4 -5 -3 10.02 0.45
4 5 3 9.63 0.44
4 -5 3 10.02 0.41
4 5 -3 9.97 0.43
4 5 -3 9.78 0.42
5 -5 -3 9.06 0.45
5 5 -3 10.33 0.43
5 5 -3 10.29 0.42
5 5 3 9.17 0.43
5 -5 3 9.23 0.4
-5 -5 -3 9.29 0.42
6 5 -3 10.29 0.46
6 -5 3 9.48 0.42
6 5 -3 9.92 0.44
6 -5 -3 9.97 0.5
6 5 3 10.01 0.46
-6 -5 -3 10.02 0.44
-7 -5 -3 4.52 0.26
7 5 3 4.16 0.29
7 -5 -3 4.26 0.37
7 5 -3 3.8 0.3
7 5 -3 4.4 0.27
7 -5 3 3.95 0.22
-8 -5 -3 4.86 0.32
8 -5 3 5.43 0.28
8 5 -3 5.95 0.38
8 5 3 5.56 0.37
8 5 -3 5.59 0.35
8 -5 -3 5.31 0.48
9 5 -3 10.14 0.58
9 5 -3 11.25 0.6
-9 -5 -3 11.24 0.54
9 -5 3 11.76 0.51
9 -5 -3 11.48 0.75
9 5 3 12.75 0.61
10 5 -3 14.93 0.79
10 -5 3 15.44 0.69
10 5 -3 15.89 0.79
10 -5 -3 17.2 0.69
10 5 3 16.91 0.81
-10 -5 -3 13.21 0.73
0 6 3 85.72 3.38
0 -6 -3 84.87 3.38
1 6 3 2.05 0.15
-1 6 3 2.2 0.15
-1 -6 3 2.4 0.1
1 -6 -3 1.94 0.15
-1 -6 -3 1.98 0.15
-1 -6 3 1.94 0.12
-2 6 3 32.54 1.31
-2 -6 -3 32.35 1.31
2 -6 -3 32.57 1.31
-2 -6 3 31.26 1.3
-2 -6 3 33.38 1.29
2 6 3 33.03 1.31
-3 -6 3 168.94 7.04
-3 6 3 183.56 7.05
-3 -6 -3 175.22 7.05
3 6 -3 166.6 7.04
-3 -6 3 186.84 7.11
3 6 3 176.65 7.05
3 -6 -3 180.49 7.05
3 6 -3 186.27 7.08
-4 6 3 70.09 2.63
-4 -6 3 63.45 2.61
4 6 3 65.35 2.62
4 -6 -3 66.28 2.63
4 6 -3 65.17 2.61
4 6 -3 67.26 2.61
-4 -6 -3 62.85 2.62
5 6 -3 11.62 0.49
5 6 3 11.89 0.51
5 -6 3 11.07 0.47
-5 -6 -3 11.11 0.5
5 -6 -3 11.2 0.53
5 6 -3 11.83 0.5
6 6 -3 4.69 0.27
6 -6 -3 3.79 0.35
6 6 -3 4.65 0.26
6 6 3 4.82 0.29
6 -6 3 4.6 0.22
-6 -6 -3 4.42 0.27
7 6 -3 5.76 0.34
7 6 -3 6.63 0.36
7 6 3 5.64 0.37
-7 -6 -3 6.19 0.34
7 -6 -3 6.82 0.47
7 -6 3 5.88 0.28
8 6 -3 9.19 0.48
8 6 -3 9.2 0.49
8 -6 -3 8.82 0.62
-8 -6 -3 9.59 0.46
8 6 3 9.98 0.52
8 -6 3 9.15 0.42
9 6 -3 7.84 0.49
9 6 -3 7.92 0.48
9 -6 -3 7.31 0.71
-9 -6 -3 8.01 0.44
9 -6 3 7.21 0.38
9 -6 3 7.57 0.81
9 6 3 7.2 0.53
10 -6 -3 19.17 0.79
10 6 3 17.74 0.95
10 -6 3 17.9 0.79
0 7 3 3.62 0.19
0 -7 -3 3.42 0.2
-1 -7 3 106.12 3.92
-1 7 3 102.09 3.93
1 -7 -3 101.47 3.93
1 7 3 95.58 3.93
-1 -7 -3 98.26 3.93
-1 -7 3 90.91 3.92
-2 -7 3 135.14 5.18
2 7 3 124.27 5.19
-2 7 3 132.76 5.19
2 -7 -3 131.63 5.19
3 7 3 53.93 2.25
-3 -7 -3 55.72 2.25
3 -7 -3 57.18 2.26
-3 -7 3 56.82 2.24
-3 7 3 58.58 2.26
-4 -7 -3 8.61 0.38
4 7 3 7.62 0.39
-4 -7 3 8.37 0.36
4 7 -3 7.96 0.36
4 -7 -3 8.42 0.42
4 7 -3 8.42 0.36
-5 -7 -3 48.74 1.94
-5 -7 3 47.83 1.92
5 7 -3 47.72 1.92
6 7 3 9.77 0.51
-6 -7 -3 10.91 0.5
6 -7 -3 10.61 0.56
6 -7 3 11.08 0.45
6 7 -3 11.43 0.5
6 7 -3 11.07 0.48
7 7 -3 13.12 0.58
7 7 3 12.85 0.6
7 -7 -3 12.72 0.68
7 -7 3 12.34 0.53
7 7 -3 12.73 0.57
-7 -7 -3 11.3 0.57
8 -7 3 19.6 0.81
8 7 3 19.3 0.89
8 7 -3 20.65 0.86
8 -7 -3 18.7 0.99
-8 -7 -3 19.2 0.86
8 7 -3 20.33 0.87
9 -7 3 3.42 0.25
9 7 3 2.21 0.48
9 7 -3 3.95 0.44
9 7 -3 3.18 0.39
-9 -7 -3 2.88 0.38
0 8 3 7.03 0.33
0 -8 -3 7.51 0.35
1 8 3 11.28 0.47
-1 -8 3 9.99 0.46
1 -8 -3 10.34 0.49
-1 -8 3 11.89 0.46
-1 8 3 11.79 0.48
-1 -8 -3 11.35 0.49
-2 8 3 4.75 0.26
2 -8 -3 4.5 0.26
2 8 3 4.57 0.25
-2 -8 -3 4.37 0.25
-2 -8 3 4.6 0.21
3 8 3 24.95 1
-3 -8 -3 22.23 1
-3 -8 3 24.27 0.98
-3 8 3 26.38 1
3 -8 -3 23.94 1.01
4 8 -3 9.91 0.4
4 8 3 8.87 0.44
-4 -8 3 9.53 0.41
4 8 -3 8.71 0.39
4 -8 -3 10.07 0.47
-4 -8 -3 8.75 0.44
-5 -8 -3 8.43 0.43
5 -8 -3 8.68 0.49
5 8 3 8.43 0.44
5 8 -3 8.66 0.39
5 -8 3 8.1 0.36
-5 -8 3 9.32 0.4
5 8 -3 8.81 0.39
-6 -8 -3 7.97 0.41
6 8 -3 7.71 0.38
6 -8 -3 8.08 0.51
6 -8 3 7.23 0.33
6 8 3 6.62 0.43
6 8 -3 7.09 0.38
-7 -8 -3 1.12 0.29
7 -8 3 1.4 0.48
7 8 3 1.17 0.34
7 8 -3 1.46 0.28
7 8 -3 1.52 0.28
7 -8 3 1.42 0.16
7 -8 -3 1.9 0.47
-8 -8 -3 1.85 0.35
8 -8 3 1.84 0.66
8 8 -3 2.55 0.33
8 -8 -3 1.21 0.63
8 -8 3 2.03 0.19
8 8 -3 1.87 0.35
8 8 3 1.16 0.41
9 8 3 5.96 0.61
9 8 -3 6.3 0.55
0 -9 -3 0.02 0.18
0 9 3 0.13 0.14
-1 -9 -3 39.69 1.64
1 -9 -3 40.18 1.64
1 9 3 38.53 1.62
-1 -9 3 43.64 1.61
2 9 3 57.04 2.31
-2 -9 3 59.98 2.3
2 -9 -3 59.32 2.32
-2 -9 -3 55.32 2.32
-3 -9 3 4.15 0.23
3 9 3 3.87 0.28
-3 -9 -3 4.52 0.28
3 -9 -3 4.37 0.31
-4 -9 3 2.27 0.19
4 9 3 2.66 0.25
-4 -9 -3 1.69 0.24
4 -9 -3 1.74 0.3
5 9 -3 21.55 0.84
-5 -9 3 20.34 0.85
-5 -9 -3 19.71 0.87
5 -9 -3 21.17 0.92
5 9 -3 19.34 0.83
5 9 3 19.63 0.88
6 -9 3 3.81 0.47
6 9 -3 3.67 0.29
6 9 3 4.25 0.37
-6 -9 3 4.5 0.31
6 -9 -3 4.13 0.51
6 9 -3 4.16 0.28
6 -9 3 3.75 0.2
-6 -9 -3 3.8 0.35
7 9 -3 4.07 0.35
7 9 3 3.27 0.45
7 -9 3 3.45 0.22
-7 -9 -3 3.38 0.39
7 -9 3 4.33 0.57
7 9 -3 3.23 0.31
7 -9 -3 3.86 0.63
8 9 3 20.51 1.06
8 9 -3 24.36 0.98
8 9 3 22.06 1.02
8 9 -3 22.61 1.01
8 -9 3 22.59 0.92
0 -10 -3 157.59 6.25
1 -10 -3 6.85 0.38
-1 -10 -3 6.37 0.37
1 10 3 6.93 0.33
-1 -10 3 7.27 0.31
2 10 3 0.09 0.19
-2 -10 -3 0.26 0.22
2 -10 -3 0.09 0.24
-2 -10 3 0.1 0.14
3 -10 -3 2.86 0.31
-3 -10 3 3.26 0.22
3 10 3 3.15 0.27
-3 -10 -3 2.72 0.29
-4 -10 -3 4.07 0.34
4 -10 -3 4.25 0.39
-4 -10 3 4.24 0.27
4 10 3 4.3 0.33
5 10 3 5.57 0.4
-5 -10 -3 5.36 0.4
-5 -10 3 5.47 0.34
5 -10 -3 5.73 0.5
5 -10 3 5.74 0.43
6 10 3 41.55 1.8
6 10 -3 43.79 1.76
-6 -10 -3 40.99 1.8
6 10 -3 43.49 1.75
6 -10 3 41.1 1.74
-6 -10 3 44.91 1.79
6 -10 3 46.91 1.83
6 -10 -3 46.89 1.87
7 -10 3 18.49 0.99
-7 -10 -3 18.3 0.87
7 10 3 17.79 0.83
7 10 3 16.26 0.89
7 10 -3 17.52 0.8
7 10 -3 18.2 0.77
7 -10 3 17.68 0.73
0 -11 -3 0.09 0.27
-1 -11 3 16.79 0.69
1 -11 -3 16.71 0.75
2 -11 -3 10.52 0.55
-2 -11 -3 10.89 0.55
-2 -11 3 11.51 0.49
2 11 3 11.62 0.5
-3 -11 -3 3.54 0.35
3 11 3 4.02 0.3
-3 -11 3 3.38 0.26
3 -11 -3 3.53 0.37
4 -11 -3 42.25 1.77
-4 -11 -3 41.38 1.76
4 11 3 43.09 1.74
-4 -11 3 44.07 1.73
-5 -11 -3 9.34 0.57
5 -11 -3 9.66 0.64
5 -11 3 9.99 0.54
-5 -11 3 8.27 0.49
5 11 3 9.07 0.54
6 -11 3 1.41 0.15
6 -11 3 0.87 0.52
6 11 3 1.23 0.35
6 11 3 1.12 0.44
7 11 -3 10.34 0.56
7 11 3 9.01 0.71
0 -12 -3 2.22 0.35
-1 -12 -3 11.52 0.61
-1 -12 3 12.74 0.52
1 -12 -3 11.67 0.62
-2 -12 -3 0.55 0.35
-2 -12 3 0.8 0.21
2 -12 -3 0.9 0.36
-3 -12 3 1.88 0.27
-3 -12 -3 1.92 0.38
3 -12 -3 2.04 0.42
4 12 3 2.15 0.29
4 -12 -3 2.3 0.48
-4 -12 -3 2.23 0.43
4 12 3 2.11 0.33
-4 -12 3 2.19 0.32
5 12 3 7.11 0.52
5 12 3 7.09 0.45
5 -12 3 7.78 0.53
0 -13 -3 0.33 0.41
1 -13 -3 14.46 0.77
-1 -13 3 15.01 0.65
-1 -13 -3 15.6 0.77
2 -13 -3 2.79 0.49
-2 -13 -3 3.55 0.47
-2 -13 3 3.63 0.29
3 -13 -3 5.86 0.58
-3 -13 3 6.34 0.42
1 0 -4 102 4.01
-1 0 4 97.92 4.01
1 0 4 103.64 4.01
2 0 -4 17.33 0.73
2 0 4 17.95 0.72
-2 0 -4 17.97 0.72
-2 0 4 18.5 0.73
3 0 -4 22.26 0.89
3 0 4 21.2 0.89
-3 0 4 22.58 0.9
-3 0 -4 22.15 0.88
4 0 -4 18.27 0.76
-4 0 -4 18.67 0.74
4 0 4 18.64 0.75
-4 0 4 17.85 0.76
5 0 4 12.23 0.51
5 0 -4 12.44 0.53
-5 0 4 11.74 0.54
-5 0 -4 12.34 0.5
-6 0 -4 22.58 0.89
-6 0 4 20.96 0.93
6 0 4 22.66 0.9
6 0 -4 21.94 0.92
7 0 -4 6.25 0.36
7 0 4 5.66 0.3
-7 0 -4 6.23 0.28
7 0 -4 6.07 0.29
8 0 -4 21.21 0.97
8 0 4 22.74 0.93
8 0 -4 22.95 0.93
-8 0 -4 22.62 0.91
9 0 4 20.67 0.85
9 0 -4 19.57 0.91
9 0 -4 19.95 0.85
10 0 -4 8.73 0.48
10 0 -4 8.93 0.61
10 0 4 8.95 0.47
0 1 -4 347.25 14.08
0 -1 -4 352.47 14.08
0 -1 4 360.3 14.09
0 1 4 363.09 14.1
-1 -1 -4 230.54 9.02
1 -1 -4 223.88 9.02
-1 1 -4 226.65 9.04
1 -1 4 232.99 9.06
-1 1 4 236.93 9.02
-1 -1 4 227.01 9.02
1 1 4 225.56 9.02
1 1 -4 222.1 9.02
2 -1 4 172.46 6.94
-2 1 4 176.13 6.94
-2 -1 -4 173 6.94
-2 -1 4 179.66 6.94
-2 1 -4 172.96 6.93
2 1 -4 178.69 6.94
3 1 4 149.9 5.84
3 1 -4 151.44 5.84
3 -1 -4 149.48 5.85
-3 1 -4 145.78 5.84
3 -1 4 150.29 5.84
-3 1 4 139.43 5.85
-3 -1 4 149.88 5.85
-3 -1 -4 145.19 5.84
-4 1 4 14.95 0.65
4 -1 4 15.51 0.63
4 -1 -4 15.59 0.65
4 1 4 15.8 0.63
-4 -1 -4 15.86 0.63
4 1 -4 15.1 0.64
-4 -1 4 14.66 0.65
-4 1 -4 16.56 0.63
-5 -1 -4 1.18 0.11
5 -1 -4 1.37 0.17
-5 1 4 0.72 0.2
5 -1 4 0.98 0.11
-5 1 -4 1.13 0.1
-5 -1 4 1.5 0.19
5 1 -4 0.94 0.16
5 1 4 1.26 0.13
6 -1 4 47.81 1.93
-6 -1 -4 49.68 1.92
-6 1 -4 49.83 1.92
6 1 -4 50.02 1.94
6 1 4 49.5 1.93
6 1 -4 44.89 1.92
6 -1 -4 47.75 1.95
-6 -1 4 46.59 1.95
7 -1 4 1.1 0.15
7 1 -4 1.19 0.23
7 1 4 0.99 0.16
7 -1 -4 1.35 0.25
-7 -1 -4 1.03 0.13
7 1 -4 0.06 0.14
8 -1 4 48.12 1.98
8 -1 -4 50.91 1.98
8 -1 -4 49.54 2.02
8 1 -4 48.39 1.98
8 1 -4 50.65 2.01
-8 -1 -4 48.92 1.97
8 1 4 48.7 1.99
9 1 4 19.98 0.84
9 1 -4 19.41 0.89
9 1 -4 19.65 0.84
9 -1 -4 19.25 0.83
9 -1 4 19.7 0.83
9 -1 -4 19.77 0.91
10 -1 4 0.18 0.27
10 1 -4 -0.1 0.3
10 1 4 0.15 0.3
10 -1 -4 0 0.26
10 1 -4 0.78 0.45
10 -1 -4 0.22 0.49
0 -2 4 738.11 29.34
0 2 -4 745.31 29.35
1 2 -4 55.22 2.19
2 2 -4 10.79 0.45
2 -2 4 10.68 0.45
-2 2 -4 10.61 0.44
-2 -2 4 11.13 0.46
2 2 4 11.39 0.46
-2 -2 -4 11.22 0.46
2 -2 -4 11.6 0.46
3 2 -4 64.98 2.59
-3 2 -4 64.06 2.58
-3 -2 -4 66.36 2.59
3 -2 4 66.65 2.58
-3 -2 4 67.88 2.59
3 -2 -4 62.04 2.59
-3 2 4 65.14 2.59
3 2 4 63.92 2.59
-4 -2 -4 14.91 0.62
-4 2 4 14.95 0.64
4 -2 -4 14.78 0.63
4 2 -4 15.23 0.63
-4 2 -4 15.3 0.61
4 2 4 15.6 0.62
-4 -2 4 14.45 0.63
4 -2 4 15.41 0.61
5 2 4 11.03 0.47
-5 2 4 11.51 0.51
-5 -2 4 10.59 0.49
-5 -2 -4 11.22 0.46
-5 2 -4 10.92 0.45
5 2 -4 11.23 0.48
5 -2 -4 10.87 0.49
5 2 -4 11.16 0.46
5 -2 4 10.81 0.46
-6 -2 4 75.69 3.11
6 2 4 81.49 3.09
6 2 -4 78.23 3.1
6 -2 -4 75.19 3.1
6 2 -4 77.75 3.08
-6 2 4 78.87 3.11
-6 -2 -4 76.96 3.08
6 -2 4 76.87 3.08
7 -2 4 29.95 1.21
7 2 -4 29.8 1.21
7 -2 -4 31.71 1.25
7 2 -4 29.59 1.23
7 2 4 30.16 1.22
-7 -2 -4 27.95 1.21
-8 -2 -4 5.65 0.29
8 2 -4 5.87 0.32
8 2 4 5.73 0.33
8 2 -4 5.6 0.38
8 -2 4 5.75 0.3
8 -2 -4 5.39 0.41
9 2 -4 20.63 0.87
9 -2 4 19.65 0.85
9 -2 -4 20.02 0.94
9 -2 -4 21.12 0.85
-9 -2 -4 20.93 0.85
9 2 -4 19.88 0.91
9 2 4 19.67 0.88
10 -2 -4 6.9 0.64
10 -2 4 8.38 0.43
10 2 -4 7.44 0.48
10 2 4 7.13 0.48
10 2 -4 7.74 0.55
10 -2 -4 8.55 0.43
0 3 4 283.56 10.75
0 3 -4 250.42 10.8
0 -3 -4 282.26 10.75
-1 -3 4 137.68 5.53
-1 -3 -4 143.81 5.53
1 -3 -4 140.64 5.53
-1 3 4 140.9 5.53
1 3 4 143.28 5.53
1 3 -4 132.44 5.53
-2 -3 -4 3.28 0.16
2 3 -4 3.27 0.14
-2 3 -4 2.77 0.13
2 -3 -4 3.07 0.17
2 3 4 3.04 0.17
2 3 -4 3.26 0.15
-2 -3 4 2.95 0.16
2 -3 4 2.98 0.14
-3 -3 4 22.56 0.9
-3 -3 -4 22.51 0.9
3 -3 4 22.24 0.89
3 3 -4 22.3 0.89
3 3 -4 21.85 0.9
-3 3 4 22.24 0.91
-4 -3 -4 4.84 0.23
4 3 -4 4.93 0.25
4 3 -4 5.01 0.22
4 3 4 5.03 0.24
4 -3 4 5.04 0.22
4 -3 -4 5.05 0.27
-4 3 4 5.26 0.28
-4 -3 4 4.63 0.26
5 3 4 96.89 3.86
-5 -3 4 92.08 3.86
-5 -3 -4 100.97 3.85
5 -3 4 97.3 3.85
5 -3 -4 96.87 3.86
-5 3 4 99.93 3.87
5 3 -4 95.04 3.85
5 3 -4 97.62 3.86
6 -3 -4 28.98 1.21
6 -3 4 28.79 1.17
6 3 -4 29.37 1.18
6 3 -4 28.75 1.19
-6 3 4 29.39 1.22
-6 -3 -4 29.55 1.18
6 3 4 29.15 1.19
7 3 -4 43.22 1.78
-7 -3 -4 44.43 1.77
7 -3 4 43.54 1.77
7 3 -4 44.83 1.79
7 3 4 45.09 1.79
7 -3 -4 44.26 1.81
8 -3 4 2.96 0.23
8 3 4 3.4 0.28
-8 -3 -4 3.37 0.23
8 3 -4 3.38 0.31
8 -3 -4 3.38 0.38
8 3 -4 3.09 0.26
9 3 -4 8.69 0.51
9 -3 4 8.52 0.42
9 3 -4 8.82 0.47
-9 -3 -4 8.87 0.42
9 3 4 9.34 0.49
9 -3 -4 8.16 0.6
-10 -3 -4 10.2 0.49
10 3 -4 9.25 0.61
10 -3 -4 10.01 0.49
10 3 4 10.31 0.57
10 -3 -4 9.83 0.74
10 3 -4 9.25 0.56
10 -3 4 9.95 0.49
-1 4 4 101.58 3.96
1 -4 -4 103.26 3.96
-1 -4 -4 101.29 3.96
-1 -4 4 100.85 3.95
1 -4 4 92.32 3.95
1 4 4 99.42 3.95
2 4 -4 300.27 12.66
2 -4 -4 317.68 12.72
-2 -4 -4 315.72 12.64
2 4 -4 329.83 12.68
-2 4 4 323.73 12.64
-2 -4 4 322.58 12.64
2 4 4 329.58 12.64
3 4 -4 14.17 0.6
3 4 -4 15.1 0.59
-3 -4 4 14.66 0.61
-3 4 4 14.95 0.62
3 -4 4 14.22 0.59
3 4 4 14.71 0.61
-3 -4 -4 14.65 0.6
3 -4 -4 14.56 0.61
4 -4 4 60.39 2.39
4 4 -4 61.2 2.4
-4 -4 -4 56.95 2.4
-4 -4 4 60.53 2.41
4 -4 -4 61.21 2.41
-4 4 4 61.23 2.41
4 4 4 60.52 2.4
4 4 -4 60.48 2.4
-5 -4 -4 44.58 1.76
5 4 -4 43.89 1.76
-5 4 4 44.39 1.79
5 4 4 43.08 1.77
5 4 -4 44.77 1.77
-5 -4 4 43.38 1.78
5 -4 4 44.53 1.75
5 -4 -4 44.07 1.78
6 -4 -4 68.46 2.77
-6 -4 -4 68.98 2.75
6 4 -4 67.6 2.74
-6 4 4 70.08 2.78
6 -4 4 70.58 2.74
6 4 -4 68 2.75
7 -4 4 0.54 0.14
-7 -4 -4 0.72 0.17
7 4 -4 0.57 0.23
7 4 4 0.08 0.2
7 4 -4 0.88 0.18
7 -4 -4 0.54 0.3
8 4 -4 28.43 1.13
8 4 4 25.92 1.12
8 -4 4 28.94 1.09
8 4 -4 26.5 1.12
8 -4 -4 25.08 1.17
-8 -4 -4 26.02 1.1
9 4 4 1.88 0.34
-9 -4 -4 1.68 0.25
9 4 -4 1.15 0.36
9 4 -4 1.62 0.31
9 -4 4 1.66 0.22
9 -4 -4 1.8 0.51
-10 -4 -4 -0.19 0.3
10 -4 4 -0.05 0.26
10 4 4 -0.06 0.41
10 4 -4 -0.05 0.4
10 4 -4 -0.04 0.44
10 -4 -4 0.09 0.25
0 -5 -4 13.81 0.57
0 5 4 13.56 0.57
-1 -5 4 19.75 0.86
1 -5 -4 21.6 0.87
-1 -5 -4 22.02 0.87
1 5 4 21.29 0.87
-1 5 4 22.14 0.87
2 5 -4 134.63 5.75
2 -5 -4 148.83 5.76
-2 -5 4 144.54 5.75
2 5 -4 158.22 5.78
2 5 4 143.43 5.76
-2 5 4 144.84 5.76
2 -5 4 137.38 5.75
-2 -5 -4 151.47 5.76
-3 5 4 7.81 0.38
-3 -5 -4 7.82 0.36
-3 -5 4 8.27 0.37
3 5 4 7.94 0.37
3 -5 -4 9.1 0.38
3 5 -4 8.26 0.34
3 -5 4 8.05 0.33
3 5 -4 8.01 0.34
-4 -5 -4 390.31 15.68
4 -5 -4 412.7 15.69
4 5 -4 404.42 15.74
4 5 4 394.18 15.68
4 -5 4 374.65 15.7
-4 -5 4 393.16 15.68
-4 5 4 410.34 15.69
4 5 -4 395.63 15.73
5 -5 -4 41.87 1.67
5 -5 4 41.78 1.64
-5 -5 -4 42.22 1.66
-5 5 4 40.82 1.68
5 5 -4 40.62 1.65
-5 -5 4 39.85 1.67
6 5 -4 59.44 2.32
-6 -5 -4 56.13 2.32
6 5 -4 56.51 2.31
6 -5 -4 60.8 2.35
6 -5 4 58.08 2.31
6 5 4 56.97 2.33
-7 -5 -4 3.69 0.25
7 -5 4 3.45 0.21
7 5 4 3.63 0.29
7 -5 -4 3.42 0.37
7 5 -4 4.03 0.3
7 5 -4 3.63 0.26
8 -5 4 3.42 0.23
-8 -5 -4 3.16 0.27
8 5 -4 3.67 0.34
8 5 -4 3.89 0.31
8 -5 -4 3.65 0.46
8 5 4 3.22 0.33
9 5 -4 5.52 0.43
9 -5 4 5.28 0.31
9 5 -4 6.07 0.44
9 -5 -4 5.08 0.61
9 5 4 5.68 0.45
-9 -5 -4 4.7 0.36
10 -5 4 54.1 2.15
10 5 4 52.33 2.21
0 6 4 11.56 0.49
0 -6 -4 11.72 0.5
1 -6 -4 67.42 2.63
1 6 4 65.95 2.63
-1 6 4 66.62 2.63
-1 -6 -4 67.85 2.63
-1 -6 4 62 2.62
-2 6 4 131.73 5.06
-2 -6 4 120.97 5.05
2 -6 -4 131.37 5.06
2 6 4 127.17 5.05
-2 -6 -4 126.36 5.05
3 6 4 7.6 0.37
-3 6 4 8.44 0.38
3 6 -4 7.68 0.34
-3 -6 -4 7.72 0.36
-3 -6 4 8.18 0.37
3 -6 -4 8.32 0.38
3 6 -4 8.87 0.34
3 -6 4 7.43 0.33
4 6 -4 87.61 3.42
4 6 -4 79.84 3.42
4 6 4 87.31 3.43
-4 -6 -4 88.09 3.43
-4 6 4 88.17 3.44
-4 -6 4 84.76 3.43
4 -6 -4 88.33 3.44
4 -6 4 85.47 3.41
5 6 -4 2.61 0.18
5 -6 4 2.29 0.14
5 -6 -4 2.22 0.28
5 6 4 2.73 0.22
5 6 -4 2.38 0.19
-5 6 4 2.3 0.3
-5 -6 -4 2.23 0.2
6 6 -4 2.34 0.21
6 -6 4 2.48 0.15
6 6 4 2.58 0.25
-6 -6 -4 2.34 0.22
6 -6 -4 2.27 0.33
7 -6 4 18.14 0.73
7 -6 -4 17.59 0.84
7 6 -4 18.69 0.77
7 6 -4 17.51 0.77
-7 -6 -4 17.92 0.77
7 6 4 17.14 0.79
8 6 -4 1.66 0.31
8 6 4 1.06 0.34
-8 -6 -4 1.28 0.26
8 -6 4 1.05 0.19
8 -6 -4 2.09 0.49
8 6 -4 1.88 0.3
9 -6 -4 29.64 1.46
-9 -6 -4 31.31 1.32
9 6 -4 29.72 1.34
9 6 4 32.6 1.36
9 6 -4 32.79 1.34
9 -6 4 33.5 1.29
0 7 4 45.9 1.83
0 -7 -4 45.52 1.83
1 -7 -4 24.74 0.99
1 7 4 25.27 0.99
-1 7 4 24.03 0.99
-1 -7 4 22.41 0.97
-1 -7 -4 24.93 0.99
2 -7 -4 84.68 3.37
-2 -7 -4 84.52 3.37
-3 -7 4 24.88 1.05
-3 7 4 26.51 1.06
-3 -7 -4 25.86 1.05
3 7 4 26.07 1.06
3 -7 -4 25.51 1.06
4 7 -4 84.09 3.43
-4 -7 -4 85.78 3.45
4 -7 4 80 3.42
4 7 -4 86.49 3.43
4 -7 -4 89.6 3.46
4 7 4 86.79 3.45
-4 7 4 93.45 3.46
5 7 -4 27.64 1.12
5 7 -4 27.78 1.12
-5 7 4 28.28 1.16
-5 -7 -4 27.27 1.13
5 -7 -4 26.94 1.16
5 7 4 27.36 1.14
6 7 -4 4.76 0.28
6 -7 4 4.05 0.22
-6 -7 -4 4.87 0.31
6 -7 -4 4.45 0.42
6 7 -4 4.4 0.28
6 7 4 4.78 0.34
7 -7 4 11.62 0.52
7 -7 -4 12.71 0.7
7 7 -4 12.83 0.56
7 7 4 10.8 0.61
7 7 -4 12.47 0.57
-7 -7 -4 13.07 0.58
-8 -7 -4 7.18 0.44
8 7 -4 7.14 0.43
8 -7 4 7.38 0.35
8 7 -4 7.26 0.45
8 7 4 7.44 0.5
8 -7 -4 7.09 0.66
9 7 -4 25.24 1.16
9 -7 4 25.18 1.08
9 7 4 26.7 1.2
9 7 -4 27.51 1.13
0 8 4 285.4 11.54
0 -8 -4 298.36 11.54
-1 -8 4 9.33 0.37
-1 8 4 8.35 0.4
1 8 4 9.96 0.41
-1 -8 -4 8.55 0.42
1 -8 -4 9.37 0.42
-1 -8 4 8.12 0.38
-2 8 4 10.02 0.46
2 8 4 10.66 0.46
2 -8 -4 10.06 0.47
-2 -8 4 11.07 0.43
-2 -8 -4 10.13 0.46
-2 -8 4 9.27 0.44
3 -8 -4 36.13 1.45
-3 -8 4 33.08 1.43
-3 8 4 36.38 1.44
3 8 4 36.35 1.44
-3 -8 -4 34.68 1.44
4 -8 -4 16.44 0.73
4 -8 4 15.03 0.66
-4 8 4 17.01 0.73
4 8 -4 17.06 0.67
4 8 4 16.61 0.71
-4 -8 -4 15.99 0.71
-5 -8 -4 5.77 0.34
5 -8 -4 6.23 0.43
5 8 4 6.06 0.37
5 8 -4 6.64 0.31
5 8 -4 5.9 0.3
5 -8 4 5.78 0.27
6 8 -4 101.49 3.89
-6 -8 -4 97.5 3.91
6 -8 -4 102.38 3.94
6 8 -4 95.15 3.89
6 8 4 92.9 3.92
7 8 4 0.3 0.36
7 8 -4 0.69 0.26
7 8 -4 0.44 0.26
-7 -8 -4 0.98 0.31
7 -8 4 0.4 0.15
7 -8 -4 0.62 0.52
-8 -8 -4 0.29 0.35
8 -8 -4 0.05 0.69
8 8 -4 0 0.34
8 8 4 0.16 0.45
8 8 -4 0.02 0.31
8 -8 4 0.21 0.19
0 9 4 63.56 2.58
0 -9 -4 65.74 2.59
1 -9 -4 26.41 1.09
-1 -9 4 27.53 1.05
-1 9 4 26.88 1.07
-1 -9 -4 25.37 1.08
1 9 4 24.8 1.07
2 -9 -4 50.86 2.1
-2 9 4 55.07 2.09
-2 -9 -4 50.79 2.1
2 9 4 50.48 2.09
-2 -9 4 53.67 2.08
-3 -9 4 1.18 0.15
3 9 4 1.44 0.24
-3 9 4 1.68 0.27
-3 -9 -4 1.27 0.23
3 -9 -4 1.56 0.27
-4 -9 -4 0.46 0.24
4 -9 4 0.49 0.08
4 -9 -4 0.67 0.31
4 9 4 0.35 0.25
5 9 -4 8.78 0.38
5 9 -4 7.8 0.36
5 9 4 8.24 0.46
5 -9 4 8.16 0.35
-5 -9 -4 7.81 0.44
5 -9 -4 8.25 0.52
-6 -9 -4 9.95 0.53
6 9 4 9.8 0.55
6 9 -4 10.75 0.47
6 -9 -4 9.79 0.64
6 9 -4 9.49 0.45
6 -9 4 9.13 0.42
-7 -9 -4 3.62 0.41
7 9 -4 3.99 0.32
7 9 4 3.9 0.48
7 -9 -4 3.75 0.64
7 -9 4 4.12 0.23
7 9 -4 4.09 0.35
8 9 4 35.54 1.54
8 9 -4 33.3 1.46
0 -10 -4 6.99 0.4
0 10 4 7.5 0.36
1 -10 -4 18.5 0.8
-1 10 4 19.14 0.77
-1 -10 -4 17.45 0.8
1 10 4 18.26 0.77
-2 -10 4 34.17 1.31
2 -10 -4 30.64 1.35
-2 10 4 35.22 1.33
-2 -10 -4 31.34 1.35
2 10 4 31.56 1.33
3 -10 -4 3.98 0.37
3 10 4 4.69 0.33
-3 -10 -4 3.76 0.33
-3 -10 4 4.43 0.25
4 -10 -4 14.23 0.7
4 10 4 12.83 0.65
-4 -10 -4 14.56 0.66
-5 -10 -4 5.14 0.4
5 -10 -4 4.99 0.5
5 -10 4 4.67 0.23
5 10 4 5.2 0.42
6 10 -4 1.82 0.25
6 -10 4 1.5 0.15
6 -10 -4 1.56 0.54
6 10 -4 1.3 0.19
-6 -10 -4 1.5 0.4
6 10 4 1.32 0.42
7 10 -4 5.2 0.34
7 10 -4 5.6 0.39
7 10 4 4.75 0.57
7 -10 4 5.14 0.28
0 -11 -4 11.82 0.59
-1 -11 -4 10.68 0.55
1 -11 -4 9.99 0.56
1 11 4 11.06 0.49
2 -11 -4 7.09 0.47
-2 -11 -4 7.47 0.46
-2 -11 4 7.96 0.35
2 11 4 7.95 0.42
3 11 4 36.16 1.46
-3 -11 -4 34.56 1.49
-3 -11 4 37.01 1.44
3 -11 -4 34.67 1.5
-4 -11 4 14.38 0.64
4 11 4 14.21 0.69
4 -11 -4 14.94 0.75
-4 -11 -4 13.76 0.71
5 -11 -4 0.45 0.53
5 11 4 0.69 0.41
5 -11 4 0.36 0.41
-5 -11 -4 -0.23 0.39
5 -11 4 0.11 0.13
6 11 4 21.41 1.02
6 -11 4 23.66 1.06
6 -11 4 18.94 0.87
0 -12 -4 2.51 0.41
-1 -12 -4 5.42 0.46
1 -12 -4 5.75 0.48
2 -12 -4 17.26 0.88
-2 -12 -4 16.78 0.87
-2 -12 4 20.53 0.78
2 12 4 19.87 0.8
3 -12 -4 9.14 0.61
3 12 4 9.95 0.5
-3 -12 -4 8.08 0.58
-3 -12 4 8.43 0.44
4 -12 -4 21.3 1.11
4 12 4 23.73 1.02
-4 -12 4 24.7 1
5 12 4 0.64 0.47
0 -13 -4 9.6 0.64
-1 -13 -4 1.66 0.49
1 -13 -4 1.75 0.49
-2 -13 4 8.63 0.44
0 0 5 -0.02 0.08
0 0 -5 -0.09 0.07
-1 0 -5 7.09 0.3
2 0 -5 19.29 0.78
-2 0 -5 19.38 0.78
-3 0 -5 10.7 0.43
3 0 -5 10.12 0.44
3 0 5 10.85 0.44
-3 0 5 10.34 0.45
-4 0 5 15.4 0.65
-4 0 -5 15.88 0.63
4 0 5 14.95 0.63
4 0 -5 15.62 0.64
-5 0 5 -0.05 0.19
5 0 5 0.15 0.12
-5 0 -5 0.15 0.09
5 0 -5 -0.15 0.17
-6 0 -5 41.31 1.69
-6 0 5 42.66 1.73
6 0 5 43.22 1.7
6 0 -5 42.29 1.71
7 0 -5 1.84 0.25
-7 0 -5 2.44 0.16
-7 0 5 2.05 0.32
7 0 5 2.23 0.19
-8 0 -5 0.81 0.16
8 0 -5 0.83 0.19
8 0 -5 0.78 0.3
8 0 5 0.69 0.21
9 0 -5 10.5 0.5
9 0 5 11.09 0.52
9 0 -5 10.15 0.6
10 0 5 2.26 0.34
10 0 -5 2.1 0.32
10 0 -5 1.95 0.48
0 -1 5 143.11 5.79
0 1 -5 143.47 5.78
0 -1 -5 147.16 5.79
0 1 5 151.46 5.79
2 1 -5 3.82 0.19
-2 1 -5 3.89 0.18
2 -1 -5 3.96 0.2
-2 -1 -5 4.11 0.19
2 1 5 3.82 0.19
3 -1 5 128.36 4.84
3 1 5 125.75 4.84
-3 -1 5 119.41 4.85
3 1 -5 118.33 4.84
-3 1 5 121.83 4.85
-3 -1 -5 123.62 4.84
3 -1 -5 118.79 4.85
4 1 5 28.23 1.14
-4 1 5 26.58 1.15
-4 -1 -5 28.78 1.13
-4 -1 5 28.18 1.15
4 -1 5 28.53 1.13
4 1 -5 29.05 1.14
-4 1 -5 28.03 1.13
4 -1 -5 28.28 1.14
-5 1 -5 69.95 2.78
-5 1 5 71.22 2.81
5 1 -5 70.06 2.8
-5 -1 5 71.21 2.81
5 1 5 69.59 2.79
-5 -1 -5 70.68 2.79
5 -1 5 69.33 2.79
5 -1 -5 69.46 2.8
-6 -1 5 27.99 1.16
6 1 -5 28.14 1.15
-6 -1 -5 26.5 1.12
-6 1 -5 26.43 1.12
6 -1 -5 28.45 1.15
6 -1 5 29.15 1.13
-6 1 5 27.25 1.17
6 1 5 29.33 1.14
7 -1 -5 0.66 0.25
-7 1 5 -0.14 0.31
-7 -1 -5 1.14 0.14
7 -1 5 0.85 0.16
7 1 5 0.83 0.19
7 1 -5 1.04 0.24
7 1 -5 0.73 0.16
-7 1 -5 1.34 0.13
-7 -1 5 1.05 0.31
8 -1 -5 4.89 0.38
8 1 -5 5.13 0.29
8 1 -5 4.77 0.37
8 -1 5 5.08 0.29
8 1 5 4.61 0.3
-8 -1 -5 5.09 0.26
9 1 5 51.89 2.02
9 1 -5 48.93 2.04
9 -1 5 48.47 2.01
9 -1 -5 51.67 2.06
9 -1 -5 47.77 2.01
-9 -1 -5 50.25 2
10 1 -5 14.3 0.78
10 -1 -5 14.63 0.81
10 -1 -5 15.46 0.68
10 -1 5 14.06 0.68
10 1 5 14.79 0.7
0 -2 -5 136.9 5.2
0 2 -5 129.88 5.19
0 -2 5 127.2 5.19
-1 2 5 76 3.04
-1 2 -5 76.84 3.03
1 2 -5 75.74 3.03
-1 -2 5 77.5 3.03
1 -2 5 74.33 3.03
1 2 5 75.83 3.03
-1 -2 -5 78.9 3.03
-2 -2 -5 15.96 0.64
2 2 5 16.84 0.65
-2 2 -5 15.54 0.63
-2 2 5 15.98 0.65
2 2 -5 15.63 0.64
2 -2 5 14.82 0.64
3 2 -5 22.17 0.9
-4 2 5 4.22 0.24
-4 -2 -5 3.98 0.2
4 -2 5 4.55 0.2
4 2 5 4.29 0.22
4 2 -5 4.05 0.22
-4 2 -5 4.22 0.19
-4 -2 5 3.89 0.24
4 -2 -5 4.18 0.24
5 -2 -5 30.64 1.25
5 2 5 31.36 1.24
5 -2 5 29.57 1.23
5 2 -5 30.25 1.25
-5 2 -5 30.39 1.23
-5 2 5 31.7 1.26
-5 -2 -5 31.24 1.24
-5 -2 5 30.67 1.26
-6 -2 -5 67.33 2.64
6 -2 -5 65.77 2.66
6 2 5 68.92 2.65
-6 -2 5 65.24 2.67
6 2 -5 65.04 2.65
6 2 -5 67.22 2.64
6 -2 5 66.27 2.64
-6 2 5 65.33 2.67
7 -2 5 12.5 0.54
-7 -2 -5 12.38 0.54
-7 -2 5 11.99 0.62
7 2 -5 12.62 0.58
-7 2 5 12.72 0.64
7 2 5 13.21 0.56
7 -2 -5 12.53 0.6
7 2 -5 13.48 0.55
8 -2 -5 10.27 0.57
8 2 -5 10.98 0.5
8 -2 5 11.41 0.49
8 2 -5 11.14 0.54
-8 -2 -5 10.75 0.48
8 2 5 10.44 0.51
9 -2 -5 1.15 0.41
9 2 -5 0.77 0.27
-9 -2 -5 0.63 0.2
9 2 5 0.67 0.28
9 2 -5 0.35 0.35
9 -2 5 0.49 0.23
-10 -2 -5 4.77 0.32
10 2 5 3.86 0.41
10 2 -5 4.15 0.43
10 -2 5 4.82 0.35
10 2 -5 4.25 0.49
10 -2 -5 4.61 0.35
10 -2 -5 4.51 0.58
0 3 5 104.05 3.99
0 -3 5 99.41 3.98
0 -3 -5 103.74 3.99
0 3 -5 95.05 3.98
-1 -3 -5 8.07 0.35
-2 -3 5 80.58 3.18
2 3 5 79.93 3.18
-2 -3 -5 83.33 3.18
2 3 -5 80.81 3.17
-2 3 5 83.21 3.18
2 -3 5 78.48 3.17
2 -3 -5 79.7 3.18
-2 3 -5 74.75 3.17
-3 -3 5 24.86 1
-3 -3 -5 24.25 0.99
3 3 5 24.45 1
3 3 -5 24.48 0.99
-3 3 -5 23.78 0.98
-3 3 5 24.72 1
3 -3 5 24.49 0.99
3 -3 -5 25.8 1
-4 3 5 53.57 2.17
4 -3 5 54.77 2.16
4 -3 -5 55.11 2.17
-4 -3 -5 55.03 2.16
4 3 5 55 2.17
-4 3 -5 52.57 2.15
-4 -3 5 53.79 2.17
4 3 -5 53.44 2.16
4 3 -5 55.06 2.16
5 3 -5 41.57 1.7
-5 3 5 42.14 1.73
5 3 5 41.08 1.71
5 3 -5 44.08 1.71
5 -3 5 43.29 1.7
-5 -3 -5 43.1 1.7
5 -3 -5 42.13 1.72
-5 -3 5 42.63 1.72
-6 -3 -5 9.15 0.39
6 3 -5 8.54 0.38
6 -3 -5 8.26 0.44
-6 -3 5 8.27 0.44
6 3 -5 8.24 0.41
-6 3 5 8.11 0.47
6 -3 5 9.1 0.38
6 3 5 9.06 0.4
7 3 5 1.3 0.22
7 -3 5 1.42 0.16
7 3 -5 1.14 0.2
-7 3 5 1.63 0.37
-7 -3 -5 1.65 0.17
7 3 -5 1.13 0.23
7 -3 -5 1.33 0.3
8 3 5 36.13 1.49
8 -3 5 36.89 1.47
8 3 -5 36.39 1.5
-8 -3 -5 37.52 1.47
8 3 -5 35.42 1.48
8 -3 -5 35.49 1.52
9 3 -5 2.44 0.32
-9 -3 -5 2.86 0.25
9 3 5 2.88 0.34
9 3 -5 2.56 0.37
9 -3 5 3 0.25
9 -3 -5 2.6 0.47
10 3 5 3.89 0.44
10 -3 -5 3.24 0.32
10 3 -5 4.16 0.44
10 -3 5 3.87 0.32
10 3 -5 3.25 0.48
-10 -3 -5 3.55 0.33
0 4 5 9.3 0.4
0 -4 -5 9.24 0.4
0 -4 5 8.92 0.38
1 4 5 63.58 2.53
-1 4 5 65.25 2.53
1 -4 -5 63.26 2.53
1 -4 5 61.58 2.52
-1 -4 -5 63.63 2.53
1 4 -5 67.71 2.52
1 4 -5 60.15 2.52
-1 -4 5 63.19 2.52
-2 -4 5 81.59 3.1
-2 -4 -5 76.17 3.11
-2 4 5 79.41 3.11
2 -4 5 74.14 3.1
2 -4 -5 78.57 3.11
2 4 -5 78.87 3.1
2 4 5 79.71 3.11
2 4 -5 77.03 3.1
3 4 5 17.63 0.76
-3 -4 5 18.44 0.75
3 4 -5 18.53 0.74
3 -4 -5 18.4 0.76
-3 4 5 18.76 0.77
3 -4 5 18.46 0.74
-3 -4 -5 17.72 0.75
3 4 -5 18.81 0.74
-4 4 5 23.59 1
4 4 -5 24.42 0.98
4 4 -5 24.88 0.97
4 -4 -5 24.15 0.99
-4 -4 -5 23.8 0.98
4 -4 5 23.51 0.96
-4 -4 5 24.08 0.99
4 4 5 24.18 0.99
-5 -4 -5 37.08 1.52
5 -4 -5 38.44 1.54
6 4 5 1.6 0.2
6 -4 -5 1.43 0.28
6 -4 5 1.52 0.14
-6 4 5 1.26 0.32
-6 -4 5 1.1 0.26
6 4 -5 1.61 0.17
-6 -4 -5 1.52 0.18
6 4 -5 1.35 0.2
7 4 -5 28.97 1.18
7 -4 5 29.24 1.16
7 4 -5 27.75 1.17
-7 -4 -5 26.52 1.16
7 -4 -5 31.08 1.22
7 4 5 27.61 1.18
8 -4 -5 11.52 0.61
8 4 -5 9.65 0.52
8 4 5 10.88 0.53
8 -4 5 10.29 0.47
8 4 -5 10.34 0.51
-8 -4 -5 9.39 0.48
9 4 -5 10.58 0.56
9 4 -5 10.68 0.56
9 -4 5 10.61 0.49
9 -4 -5 9.66 0.67
9 4 5 9.77 0.56
-9 -4 -5 10.42 0.5
10 -4 5 4.4 0.34
10 4 -5 4.23 0.5
10 4 5 3.8 0.48
0 5 5 6.62 0.31
0 -5 5 6.17 0.28
0 -5 -5 6.98 0.31
-1 5 5 1.07 0.15
1 -5 -5 0.99 0.15
-1 -5 5 1.5 0.11
-1 -5 -5 1.39 0.14
1 -5 5 1.1 0.09
1 5 5 1.17 0.14
2 5 5 129.86 5.13
-2 5 5 130.84 5.13
2 5 -5 122.43 5.12
2 -5 5 128.47 5.12
2 -5 -5 133.23 5.13
-2 -5 -5 133.3 5.13
-2 -5 5 131.75 5.13
2 5 -5 126.04 5.12
3 5 -5 111.44 4.41
4 -5 -5 175.73 6.9
-4 5 5 177.66 6.9
4 -5 5 168.13 6.88
4 5 -5 177.81 6.88
-4 -5 -5 174.51 6.89
-4 -5 5 173.98 6.89
4 5 5 177.18 6.89
4 5 -5 166.88 6.88
5 5 -5 8.91 0.39
5 5 5 8.56 0.42
-5 -5 5 8.27 0.43
-5 -5 -5 8.62 0.4
-5 5 5 8.78 0.47
5 -5 5 8.96 0.38
5 5 -5 9.41 0.4
5 -5 -5 9.09 0.46
-6 -5 5 6.08 0.38
6 5 5 6.04 0.35
-6 5 5 6.93 0.46
6 -5 5 6.21 0.29
6 5 -5 6.27 0.32
6 5 -5 6.23 0.34
6 -5 -5 6.45 0.41
-6 -5 -5 6.28 0.33
-7 -5 -5 4.95 0.31
7 5 -5 4.88 0.33
7 5 -5 5.7 0.31
7 -5 5 5.07 0.27
7 5 5 4.86 0.34
7 -5 -5 5.3 0.44
8 5 -5 2.07 0.3
8 -5 -5 2.57 0.48
-8 -5 -5 1.62 0.25
8 -5 5 1.83 0.21
8 5 -5 1.61 0.29
8 5 5 1.97 0.32
9 -5 -5 3.76 0.62
-9 -5 -5 3.18 0.32
9 5 -5 4.23 0.41
9 -5 5 3.6 0.29
9 5 -5 3.89 0.39
9 5 5 3.73 0.43
10 5 5 15.41 0.85
0 -6 -5 42.92 1.65
0 6 5 41.04 1.64
0 -6 5 38.67 1.62
-1 6 5 4.8 0.27
-1 -6 5 5.18 0.24
1 6 5 5.39 0.27
-1 -6 -5 5.47 0.27
2 -6 -5 70.66 2.76
-2 -6 5 68.77 2.74
2 6 5 72.75 2.75
-2 6 5 64.72 2.75
-2 -6 -5 72.75 2.75
2 -6 5 64.52 2.73
3 -6 5 27.79 1.17
3 6 -5 32.01 1.17
3 6 5 28.04 1.2
3 6 -5 28.45 1.17
-3 -6 -5 29.7 1.2
3 -6 -5 30.13 1.2
-3 -6 5 28.69 1.19
-3 6 5 30.33 1.2
-4 -6 5 19.9 0.85
4 6 -5 20.79 0.82
4 -6 -5 20.3 0.86
-4 -6 -5 20.82 0.85
-4 6 5 22.02 0.87
4 6 -5 19.96 0.82
4 -6 5 18.36 0.82
4 6 5 20.39 0.85
-5 6 5 7.2 0.46
5 6 -5 7.86 0.36
5 -6 -5 7.87 0.43
5 -6 5 8.07 0.34
5 6 -5 8.05 0.36
-5 -6 -5 7.61 0.38
-5 -6 5 7.4 0.4
5 6 5 8.21 0.4
-6 6 5 15.58 0.74
6 -6 5 14.34 0.61
6 6 -5 15.47 0.64
-6 -6 -5 14.26 0.64
6 6 -5 13.91 0.63
6 6 5 14.91 0.67
7 6 -5 8.09 0.42
7 -6 5 8.11 0.37
7 6 -5 7.86 0.42
-7 -6 -5 7.85 0.41
7 -6 -5 8.24 0.55
7 6 5 7.28 0.46
8 6 5 14.85 0.75
8 -6 -5 16.89 0.87
8 6 -5 16.54 0.72
8 -6 5 15.8 0.67
8 6 -5 15.75 0.73
-8 -6 -5 13.62 0.7
-9 -6 -5 1.97 0.33
9 6 -5 2.1 0.43
9 6 -5 1.72 0.37
9 6 5 2.31 0.47
9 -6 5 1.12 0.25
0 -7 -5 4.47 0.26
0 7 5 4.01 0.25
-1 -7 5 0.99 0.11
-1 7 5 1.04 0.18
1 7 5 1.16 0.17
1 -7 -5 1.06 0.18
-1 -7 -5 1.08 0.18
-2 7 5 72.16 2.89
-2 -7 -5 72.94 2.89
-2 -7 5 68.84 2.88
2 -7 -5 77.21 2.9
2 7 5 70.99 2.89
-3 -7 5 51.79 2.08
-3 7 5 53.5 2.1
3 -7 -5 56.16 2.1
3 7 5 50.77 2.09
-3 -7 -5 50.41 2.09
3 -7 5 50.04 2.07
4 7 -5 50.92 2.03
4 7 -5 52.54 2.03
4 -7 -5 51.46 2.06
-4 -7 5 48.76 2.04
4 7 5 49.53 2.05
-4 -7 -5 50.69 2.05
4 -7 5 49.93 2.02
-4 7 5 53.41 2.06
5 7 5 19.05 0.81
-5 -7 5 17.72 0.8
-5 7 5 19.32 0.85
5 7 -5 18.34 0.77
-5 -7 -5 17.34 0.79
5 -7 -5 19.26 0.83
5 7 -5 18.64 0.77
6 7 -5 8.43 0.41
6 -7 5 7.82 0.37
-6 7 5 9.29 0.57
6 7 5 8.7 0.47
6 7 -5 7.86 0.4
-6 -7 -5 8.38 0.43
6 -7 -5 7.89 0.53
7 -7 5 3.94 0.23
7 -7 -5 3.94 0.51
7 7 -5 3.38 0.3
-7 -7 -5 3.61 0.32
7 7 5 3.52 0.39
7 7 -5 3.52 0.3
-8 -7 -5 7.49 0.46
8 7 -5 7.94 0.47
8 -7 5 8.48 0.39
8 7 5 8.4 0.55
8 7 -5 8.06 0.47
8 -7 -5 6.87 0.71
9 7 -5 4.47 0.51
9 7 5 5.16 0.6
0 8 5 14.53 0.63
0 -8 -5 14.98 0.64
-1 -8 -5 43.64 1.77
1 8 5 44.97 1.76
1 -8 -5 43.12 1.77
-1 -8 5 40.66 1.74
-1 8 5 46.09 1.76
2 8 5 32.92 1.43
2 -8 -5 37.66 1.44
-2 8 5 37.11 1.44
-2 -8 -5 35.15 1.44
-2 -8 5 33.31 1.41
-3 -8 -5 0.3 0.21
-3 8 5 0.14 0.25
3 -8 -5 0.01 0.24
3 8 5 0.01 0.21
-3 -8 5 0.08 0.18
4 -8 -5 38.73 1.59
4 -8 5 36.88 1.53
-4 -8 5 38.35 1.57
-4 8 5 40.05 1.59
4 8 5 39.03 1.58
-4 -8 -5 38.48 1.57
5 8 5 23.09 1
5 -8 5 23.79 0.94
5 8 -5 23.91 0.96
-5 -8 -5 22.11 0.99
5 -8 -5 22.84 1.02
5 8 -5 23.36 0.95
-5 8 5 24.66 1.04
6 8 5 24.9 1.12
6 8 -5 26.86 1.07
-6 -8 -5 25.16 1.1
6 -8 -5 26.73 1.16
6 8 -5 26.19 1.06
7 8 -5 12.82 0.58
7 8 5 10.76 0.66
7 -8 -5 11.64 0.78
-7 -8 -5 12.08 0.61
7 -8 5 13.01 0.53
7 8 -5 13.23 0.57
8 8 5 6.66 0.62
-8 -8 -5 7.89 0.52
8 -8 5 8.55 0.4
8 8 -5 9.17 0.48
0 -9 -5 74.94 2.97
0 9 5 73.28 2.96
-1 9 5 8.82 0.43
1 9 5 8.72 0.43
-1 -9 5 8 0.38
1 -9 -5 9.35 0.45
-1 -9 -5 8.56 0.44
2 -9 -5 12.96 0.6
2 9 5 13.11 0.58
-2 -9 -5 12.09 0.58
-2 9 5 13.64 0.58
-2 -9 5 11.79 0.55
-3 -9 -5 11.24 0.54
3 -9 -5 10.97 0.56
-3 -9 5 11.06 0.51
3 9 5 10.76 0.53
-3 9 5 11.62 0.55
4 -9 -5 4.37 0.39
4 9 5 4.11 0.35
-4 9 5 3.78 0.41
4 -9 5 3.75 0.19
-4 -9 -5 4.07 0.33
5 9 5 14.58 0.68
5 -9 5 13.08 0.57
-5 -9 -5 12.95 0.65
5 -9 -5 14.87 0.72
-6 -9 -5 23.66 1.04
6 -9 -5 24.51 1.11
6 -9 5 24.15 0.96
6 9 -5 23.27 0.97
6 9 5 22.09 1.05
6 9 -5 24.17 0.98
7 9 5 1.92 0.51
7 -9 -5 3.12 0.67
7 -9 5 2.14 0.21
-7 -9 -5 1.25 0.41
7 9 -5 1.93 0.27
7 9 -5 2.39 0.32
8 9 -5 3.25 0.45
0 10 5 46.21 1.75
0 -10 -5 40.38 1.77
1 -10 -5 5.52 0.41
1 10 5 6.14 0.36
-1 10 5 6.5 0.37
-1 -10 -5 5.39 0.38
2 -10 -5 1.4 0.32
-2 -10 5 1.3 0.21
-2 10 5 1.01 0.28
-2 -10 -5 1.34 0.29
2 10 5 2 0.28
-3 -10 -5 10.62 0.57
3 10 5 11.57 0.57
3 -10 -5 11.12 0.61
-3 10 5 11.8 0.58
-4 -10 -5 5.45 0.42
4 10 5 5.34 0.43
-4 10 5 5.92 0.47
4 -10 -5 6.02 0.48
5 10 5 2.17 0.41
5 -10 5 2 0.15
5 -10 -5 1.54 0.49
-5 -10 -5 2.18 0.36
6 10 5 18.94 0.95
6 -10 5 20.67 0.8
6 -10 -5 19.88 1.03
-6 -10 -5 18.36 0.92
7 10 -5 2.22 0.33
7 10 -5 1.6 0.25
7 10 5 1.72 0.58
0 -11 -5 17.97 0.84
0 11 5 18.95 0.8
1 11 5 4.06 0.33
-1 11 5 4.2 0.34
-1 -11 -5 4.02 0.39
1 -11 -5 4.1 0.42
-2 -11 -5 16.94 0.81
2 -11 -5 17.41 0.83
2 11 5 17.54 0.79
-2 11 5 18.42 0.79
-3 -11 -5 15.41 0.77
-3 11 5 17.39 0.75
3 11 5 15.53 0.75
3 -11 -5 15.82 0.79
4 11 5 23.93 0.98
-4 -11 -5 21.09 0.98
4 -11 -5 19.23 1.02
5 11 5 16.28 0.83
-5 -11 -5 15.41 0.81
5 -11 5 16.16 0.66
6 11 5 1.56 0.59
0 -12 -5 2.14 0.45
-1 -12 -5 29.22 1.35
1 -12 -5 31.3 1.36
1 12 5 32.56 1.29
2 12 5 13.35 0.63
2 -12 -5 13.33 0.75
-2 -12 -5 11.86 0.71
3 12 5 0.79 0.39
-3 -12 -5 0.87 0.47
3 -12 -5 1.06 0.54
4 12 5 1.19 0.45
5 12 5 5.14 0.61
3 13 5 3.1 0.46
0 0 6 140.46 5.49
0 0 -6 136.72 5.48
1 0 -6 113.04 4.58
1 0 6 118.76 4.58
-1 0 6 115.99 4.58
-1 0 -6 114.76 4.58
2 0 6 323.17 12.45
-2 0 -6 315.52 12.49
-2 0 6 315.58 12.45
2 0 -6 306.2 12.45
-3 0 -6 24.44 0.97
3 0 6 23.87 0.98
3 0 -6 23.86 0.98
-3 0 6 24.35 0.98
-4 0 -6 48.01 1.9
4 0 -6 47.49 1.91
-4 0 6 47.65 1.92
4 0 6 47.73 1.9
5 0 -6 2.17 0.2
-5 0 6 1.52 0.22
-5 0 -6 1.97 0.14
5 0 6 2.17 0.16
6 0 -6 0.72 0.21
-6 0 -6 0.8 0.12
6 0 6 0.7 0.16
-6 0 6 0.66 0.27
7 0 6 98.44 3.89
-7 0 6 95.21 3.92
7 0 -6 97.65 3.9
-7 0 -6 99.59 3.88
8 0 6 21.45 0.91
-8 0 -6 21.73 0.89
8 0 -6 21.73 0.95
9 0 -6 3.48 0.44
9 0 6 3.88 0.33
-9 0 -6 3.75 0.25
9 0 -6 4.13 0.33
10 0 -6 -0.06 0.33
10 0 6 -0.08 0.34
10 0 -6 0.75 0.5
0 -1 6 4.7 0.21
0 -1 -6 4.37 0.22
-1 -1 -6 3.58 0.18
-1 -1 6 3.42 0.18
1 1 -6 3.53 0.18
1 -1 -6 3.32 0.18
-1 1 -6 4.06 0.17
1 -1 6 3.4 0.18
-1 1 6 3.75 0.19
2 -1 -6 222.59 9.07
2 -1 6 233.25 9.07
-2 1 6 236.27 9.07
-2 -1 6 231.59 9.07
2 1 6 228.11 9.07
-2 -1 -6 223.63 9.06
2 1 -6 230.02 9.07
-3 -1 -6 14.14 0.56
3 1 -6 13.69 0.56
3 -1 -6 13.51 0.56
-3 -1 6 13.3 0.56
3 -1 6 12.48 0.55
3 1 6 13.5 0.56
4 -1 -6 27.4 1.14
4 1 -6 29.53 1.14
4 1 6 27.97 1.14
-4 -1 -6 27.99 1.13
-4 1 6 27.18 1.15
-4 -1 6 28.3 1.15
-4 1 -6 28.33 1.13
4 -1 6 28.39 1.13
5 1 -6 4.5 0.25
-5 -1 6 4.03 0.28
5 -1 -6 4.1 0.26
-5 1 6 4.33 0.29
5 -1 6 4.32 0.22
-5 -1 -6 4.27 0.22
-5 1 -6 4.28 0.2
5 1 6 4.17 0.23
-6 -1 6 13.21 0.62
-6 1 -6 12.96 0.56
-6 1 6 13 0.63
6 1 6 13.42 0.58
-6 -1 -6 14.36 0.56
6 1 -6 12.92 0.59
6 -1 -6 13.4 0.61
6 -1 6 14.16 0.57
-7 1 -6 16.48 0.68
-7 -1 6 15.89 0.77
7 -1 6 15.48 0.69
-7 -1 -6 17.08 0.69
7 1 6 16.11 0.7
-7 1 6 17.14 0.78
7 1 -6 17.69 0.73
7 -1 -6 15.6 0.74
8 -1 6 29.28 1.2
8 1 -6 28.41 1.23
8 1 6 28.87 1.21
8 -1 -6 30.56 1.24
-8 -1 -6 28.61 1.19
9 1 6 14.6 0.69
9 1 -6 14.68 0.68
9 -1 -6 16.11 0.67
9 -1 6 14.27 0.67
-9 -1 -6 14.75 0.64
9 1 -6 15.25 0.74
9 -1 -6 14.12 0.76
10 -1 -6 9.68 0.51
10 1 -6 9.37 0.54
-10 -1 -6 7.32 0.44
10 -1 6 8.88 0.5
10 1 -6 8.93 0.63
10 1 6 9.51 0.54
0 2 -6 12.1 0.5
0 -2 -6 12.14 0.51
0 2 6 12.38 0.51
1 2 -6 5.04 0.23
1 2 6 4.91 0.24
-1 2 6 4.96 0.25
-1 2 -6 5.3 0.22
-1 -2 6 5.14 0.23
-1 -2 -6 5.03 0.24
1 -2 6 4.86 0.23
-2 -2 6 25.65 1.06
2 -2 -6 27.85 1.06
-2 -2 -6 25.17 1.06
-2 2 6 25.69 1.06
2 2 6 27.19 1.06
-2 2 -6 25.94 1.05
-3 2 6 1.49 0.17
-3 2 -6 1.88 0.11
3 -2 6 1.86 0.13
-3 -2 -6 1.87 0.14
3 -2 -6 1.74 0.16
3 2 6 1.82 0.15
-3 -2 6 1.75 0.15
3 2 -6 1.97 0.14
-4 2 6 38.98 1.7
-4 -2 6 42.53 1.7
4 -2 6 43.4 1.69
4 -2 -6 42.76 1.7
-4 2 -6 41.41 1.68
-4 -2 -6 42.83 1.69
4 2 -6 43.86 1.69
4 2 6 41.9 1.69
5 -2 6 28.65 1.11
5 2 6 27.68 1.12
-5 -2 -6 27.76 1.12
-5 -2 6 26.84 1.14
5 2 -6 27.48 1.12
-5 2 -6 26.39 1.1
5 -2 -6 28.29 1.14
6 -2 -6 14.66 0.68
6 -2 6 15.54 0.65
-6 -2 6 15.89 0.69
-6 -2 -6 15.77 0.65
6 2 -6 15.57 0.67
6 2 6 15.72 0.66
-6 2 6 15.04 0.71
-7 -2 -6 19.2 0.82
7 -2 6 20.22 0.82
7 2 -6 18.51 0.85
7 -2 -6 20.05 0.87
7 2 -6 20.92 0.83
7 2 6 20.04 0.84
-7 2 -6 20.05 0.81
-7 -2 6 20.66 0.89
-7 2 6 18.83 0.91
8 -2 6 7.38 0.37
8 2 6 7.01 0.4
8 2 -6 7.24 0.38
8 2 -6 6.93 0.44
8 -2 -6 7.33 0.48
-8 -2 -6 6.52 0.35
9 -2 -6 3.12 0.49
9 2 6 3.91 0.35
-9 -2 -6 3.2 0.26
9 2 -6 3.71 0.42
9 -2 6 3.67 0.3
9 2 -6 3.05 0.34
10 -2 6 3.78 0.37
10 2 6 3.99 0.43
10 2 -6 3.94 0.45
10 -2 -6 3.51 0.36
1 3 -6 4.28 0.2
1 -3 6 4.43 0.2
-1 -3 6 4.43 0.21
-1 3 -6 4.19 0.19
1 -3 -6 4.37 0.23
-1 -3 -6 4.41 0.22
1 3 6 4.18 0.22
2 3 6 38.96 1.59
-2 3 -6 37.83 1.57
2 -3 6 40.87 1.58
-2 -3 6 40.57 1.59
-2 -3 -6 38.32 1.59
2 3 -6 39.25 1.58
2 -3 -6 40.92 1.59
-2 3 6 40.73 1.6
3 3 -6 2.15 0.14
-3 -3 6 1.84 0.16
3 -3 6 1.72 0.12
3 -3 -6 1.93 0.17
-3 3 6 1.68 0.18
-3 -3 -6 1.96 0.15
-3 3 -6 1.76 0.1
3 3 6 2 0.16
4 -3 -6 5.95 0.3
-4 3 -6 5.73 0.24
4 3 6 5.08 0.28
-4 -3 6 5.67 0.3
4 -3 6 5.79 0.26
4 3 -6 5.43 0.27
-4 -3 -6 6.17 0.28
-4 3 6 5.23 0.31
5 3 -6 77.13 3.03
5 -3 6 78.04 3.03
-5 -3 -6 78.04 3.03
-5 -3 6 79.47 3.05
5 -3 -6 73.33 3.05
-5 3 -6 76.55 3.02
5 3 -6 71.68 3.03
5 3 6 75.26 3.04
-5 3 6 76.38 3.05
6 -3 6 11.92 0.49
-6 -3 -6 11.24 0.49
-6 -3 6 10.75 0.54
6 3 -6 11.38 0.51
-6 3 6 10.83 0.57
6 -3 -6 11.27 0.54
6 3 -6 11.81 0.49
6 3 6 11.14 0.51
-7 -3 6 64.64 2.61
7 3 -6 63.53 2.58
7 -3 -6 63.83 2.61
7 -3 6 65.35 2.58
7 3 6 61.2 2.59
-7 3 6 66.85 2.63
-7 -3 -6 67.11 2.58
7 3 -6 63.87 2.59
8 3 6 14.78 0.67
-8 -3 -6 14.4 0.63
8 3 -6 14.21 0.68
8 -3 -6 13.92 0.73
8 3 -6 14.92 0.66
8 -3 6 15.5 0.64
9 -3 -6 -0.4 0.49
9 -3 6 -0.02 0.23
9 3 6 -0.19 0.33
-9 -3 -6 0.26 0.24
9 3 -6 -0.18 0.37
9 3 -6 0.68 0.33
10 3 -6 2.95 0.48
10 3 6 3.56 0.46
10 -3 6 3.27 0.34
0 4 6 29.04 1.15
0 -4 6 28.19 1.14
0 4 -6 26.28 1.13
0 -4 -6 30.31 1.15
-1 -4 -6 32.47 1.26
1 4 -6 30.97 1.25
1 4 6 31.65 1.26
-1 -4 6 30.18 1.25
1 -4 -6 30.41 1.26
1 -4 6 31.78 1.25
-1 4 6 31.41 1.26
-2 -4 6 105.54 4.1
2 -4 6 104.6 4.1
2 4 -6 101.54 4.1
-2 4 6 101.95 4.11
-2 -4 -6 97.02 4.11
2 -4 -6 106.3 4.11
2 4 6 107.73 4.11
3 4 -6 56.35 2.25
3 -4 -6 56.8 2.27
-3 -4 6 56.55 2.26
-3 -4 -6 56.31 2.26
3 4 -6 57.55 2.25
3 -4 6 56.69 2.25
-3 4 6 55.57 2.27
4 -4 6 59.97 2.33
-4 4 6 59.71 2.35
4 4 -6 57.11 2.33
-4 -4 -6 59.92 2.34
4 4 -6 56.06 2.32
-4 -4 6 58.18 2.34
-5 4 6 52.67 2.09
5 4 6 51.55 2.07
-5 -4 6 49.08 2.08
-5 -4 -6 50.17 2.06
5 4 -6 51.1 2.06
5 -4 6 52.91 2.05
5 -4 -6 52.49 2.08
5 4 -6 52.54 2.06
6 -4 6 15.72 0.65
6 4 -6 14.8 0.66
6 4 -6 16.48 0.67
6 4 6 15.94 0.68
6 -4 -6 15.8 0.71
-6 -4 -6 15.15 0.67
-6 -4 6 15.27 0.7
-6 4 6 15.33 0.74
7 4 -6 9.55 0.46
-7 -4 6 8.61 0.53
-7 -4 -6 9.42 0.43
-7 4 6 8.28 0.58
7 -4 6 9 0.41
7 4 -6 8.99 0.44
7 -4 -6 8.8 0.53
7 4 6 9.75 0.47
-8 -4 -6 4.03 0.3
8 4 -6 4.51 0.38
8 -4 -6 4.7 0.49
8 -4 6 5.28 0.29
8 4 6 4.91 0.37
8 4 -6 4.45 0.34
9 4 6 3.25 0.41
9 4 -6 3.82 0.41
9 -4 6 4.03 0.3
9 4 -6 3.31 0.41
-9 -4 -6 4.18 0.31
9 -4 -6 4.31 0.59
0 -5 -6 3.33 0.21
0 -5 6 3.32 0.17
0 5 6 2.98 0.2
1 5 6 3.38 0.22
-1 5 6 3.82 0.23
-1 -5 -6 3.56 0.22
1 -5 -6 3.74 0.22
-1 -5 6 3.63 0.19
2 -5 -6 1.47 0.18
2 -5 6 0.38 0.1
-2 -5 -6 1.43 0.15
2 5 -6 1.27 0.09
-2 5 6 1.15 0.18
-2 -5 6 1.24 0.14
2 5 6 1.3 0.17
2 5 -6 1.54 0.09
3 -5 6 3.39 0.17
3 5 -6 3.31 0.19
-3 -5 -6 3.7 0.22
-3 -5 6 3.53 0.21
3 -5 -6 3.11 0.25
-3 5 6 3.73 0.25
3 5 6 3.34 0.23
3 5 -6 3.88 0.18
4 -5 6 67.19 2.72
4 5 6 69.29 2.74
-4 -5 6 66.46 2.74
-4 5 6 68.94 2.75
4 -5 -6 70.78 2.75
4 5 -6 67.29 2.72
-4 -5 -6 70.19 2.74
4 5 -6 68.43 2.73
-5 5 6 3.01 0.32
-5 -5 -6 2.32 0.2
5 5 6 2.23 0.24
5 5 -6 2.25 0.18
5 5 -6 2.36 0.19
5 -5 6 2.5 0.16
-5 -5 6 2.76 0.26
5 -5 -6 2.45 0.28
-6 -5 6 10.53 0.54
6 5 -6 10.74 0.48
6 -5 6 11.08 0.46
6 -5 -6 9.63 0.55
-6 -5 -6 10.33 0.49
6 5 6 10.54 0.52
-6 5 6 11.58 0.61
6 5 -6 10.96 0.49
7 5 -6 14.14 0.64
7 5 6 14.32 0.67
-7 5 6 14.31 0.8
7 -5 6 14.74 0.62
7 -5 -6 14.63 0.73
-7 -5 -6 14.6 0.64
7 5 -6 15.02 0.65
8 -5 6 2.52 0.23
8 5 6 1.63 0.36
8 5 -6 2.2 0.33
8 5 -6 2.32 0.33
-8 -5 -6 2.43 0.27
8 -5 -6 2.5 0.51
9 5 -6 1.13 0.42
9 5 -6 1.6 0.39
9 -5 -6 1.82 0.63
9 5 6 0.45 0.43
9 -5 6 1.2 0.25
-9 -5 -6 0.77 0.3
0 6 6 66.46 2.66
0 -6 6 66.48 2.64
0 -6 -6 67.03 2.66
-1 -6 6 10.86 0.45
1 -6 6 10.24 0.44
-1 6 6 10.55 0.48
1 6 6 10.64 0.48
1 -6 -6 11.6 0.49
-1 -6 -6 10.96 0.48
-2 -6 -6 27.44 1.14
2 6 6 27.99 1.14
2 -6 6 26.64 1.11
2 -6 -6 28.81 1.14
-2 -6 6 28.61 1.12
-2 6 6 27.33 1.14
3 -6 6 2.92 0.16
-3 -6 6 3.15 0.21
-3 -6 -6 3.23 0.23
3 6 -6 3.39 0.16
3 6 6 2.79 0.23
3 -6 -6 2.96 0.26
3 6 -6 2.9 0.17
-3 6 6 3.3 0.27
-4 -6 -6 10.65 0.48
4 -6 6 11.36 0.44
4 -6 -6 9.55 0.51
4 6 -6 10.76 0.45
-4 6 6 10.83 0.52
4 6 -6 10.48 0.45
4 6 6 10.15 0.49
-4 -6 6 10.79 0.48
5 6 6 40.95 1.6
5 -6 -6 38.98 1.61
-5 -6 6 37.3 1.6
-5 -6 -6 37.53 1.59
5 -6 6 38.8 1.57
5 6 -6 40.1 1.57
5 6 -6 40.08 1.57
-5 6 6 39.96 1.63
-6 -6 6 16.44 0.74
6 -6 -6 14.04 0.77
-6 6 6 16.91 0.81
-6 -6 -6 15.93 0.71
6 -6 6 16.3 0.67
6 6 -6 16.47 0.69
6 6 -6 17.02 0.69
6 6 6 16.91 0.74
7 6 6 7.71 0.49
-7 6 6 8.36 0.65
-7 -6 -6 8.15 0.44
7 6 -6 9.18 0.44
7 -6 -6 8.52 0.57
7 6 -6 7.9 0.43
7 -6 6 7.79 0.38
8 6 -6 1.33 0.34
8 -6 -6 0.78 0.56
8 6 6 0.66 0.4
8 -6 6 1 0.22
8 6 -6 1.21 0.31
-8 -6 -6 0.92 0.29
9 6 -6 3.13 0.49
9 -6 6 3.2 0.3
9 6 6 3.79 0.53
0 -7 6 46.47 1.92
0 -7 -6 50.73 1.95
0 7 6 48.12 1.95
-1 -7 6 1.91 0.15
-1 7 6 1.83 0.22
1 -7 -6 1.84 0.22
-1 -7 -6 2.02 0.22
1 -7 6 1.88 0.12
1 7 6 1.79 0.21
-2 -7 6 16.96 0.71
2 7 6 16.65 0.73
2 -7 -6 17.34 0.74
-2 7 6 17.42 0.73
2 -7 6 16.16 0.69
-2 -7 -6 17.99 0.73
-3 -7 6 29.23 1.21
3 7 6 31.53 1.23
3 -7 6 29.84 1.19
-3 7 6 27.52 1.23
-3 -7 -6 31.03 1.22
3 -7 -6 29.18 1.23
4 -7 6 15.6 0.63
4 7 -6 14.94 0.63
-4 -7 6 14.87 0.67
4 7 6 14.5 0.69
-4 7 6 15.44 0.71
4 -7 -6 15.43 0.71
-4 -7 -6 15.92 0.68
4 7 -6 16.76 0.63
5 -7 -6 26.92 1.16
-5 7 6 28.56 1.18
5 7 6 26.06 1.14
-5 -7 6 27.08 1.13
-5 -7 -6 26.07 1.13
5 7 -6 27.52 1.1
5 7 -6 27.33 1.1
6 7 6 8.35 0.48
6 -7 6 7.79 0.36
6 -7 -6 7.39 0.53
-6 -7 -6 7.71 0.44
-6 7 6 8.42 0.61
6 7 -6 8.01 0.39
6 7 -6 8.12 0.4
7 -7 6 30.36 1.18
7 -7 -6 29.01 1.31
7 7 -6 30.73 1.2
7 7 -6 28.63 1.21
-7 -7 -6 27.29 1.23
7 7 6 28.66 1.26
-8 -7 -6 9.48 0.58
8 -7 -6 9.54 0.83
8 7 6 11.17 0.67
8 7 -6 13.22 0.56
8 7 -6 9.53 0.58
8 -7 6 11.45 0.5
0 -8 -6 7.83 0.41
0 8 6 8.11 0.41
0 -8 6 8.3 0.34
-1 -8 -6 13.69 0.59
-1 -8 6 12.65 0.54
1 -8 -6 12.67 0.6
-1 8 6 12.82 0.59
1 8 6 13.13 0.58
2 -8 -6 8.86 0.49
-2 -8 6 11.31 0.44
2 8 6 10.09 0.49
-2 -8 -6 10.25 0.48
-2 8 6 9.44 0.49
3 -8 6 12.54 0.54
-3 8 6 13.96 0.63
3 -8 -6 12.99 0.63
3 8 6 13.75 0.61
-3 -8 6 12.84 0.58
-3 -8 -6 13.5 0.61
-4 -8 6 11.9 0.55
-4 -8 -6 12.19 0.56
-4 8 6 11.98 0.62
4 -8 6 11.45 0.49
4 8 6 11.53 0.57
4 -8 -6 11.69 0.6
-5 -8 -6 11.01 0.54
5 -8 6 10.74 0.46
5 8 6 9.77 0.57
5 -8 -6 10.98 0.6
5 8 -6 10.97 0.47
-5 8 6 11.34 0.65
5 8 -6 11.05 0.47
-5 -8 6 10.64 0.55
6 8 -6 12.4 0.54
6 8 -6 12.29 0.55
6 -8 -6 11.82 0.69
-6 -8 -6 12.08 0.6
6 8 6 11.43 0.64
-6 8 6 13.1 0.77
7 -8 -6 4.76 0.63
7 8 6 4.53 0.52
7 -8 6 4.8 0.28
7 8 -6 3.95 0.35
7 8 -6 4.63 0.33
-7 -8 -6 4.4 0.42
8 8 -6 2.01 0.4
8 8 6 1.7 0.59
0 -9 -6 33.77 1.33
0 9 6 30.22 1.31
-1 -9 6 -0.04 0.14
-1 -9 -6 0.09 0.27
-1 9 6 0.1 0.26
1 9 6 0.15 0.25
1 -9 -6 0 0.28
-2 -9 -6 12.64 0.59
-2 -9 6 11.39 0.54
2 9 6 12.09 0.58
2 -9 -6 12.78 0.61
-2 9 6 13.5 0.6
-3 9 6 9.16 0.51
3 -9 -6 9.44 0.53
-3 -9 -6 9.22 0.49
3 9 6 9.03 0.49
-3 -9 6 9.25 0.45
-4 -9 -6 22.16 0.93
-4 -9 6 20.06 0.9
4 -9 6 19.89 0.85
-4 9 6 22.94 0.98
4 9 6 21.34 0.94
4 -9 -6 20.64 0.96
5 -9 6 3.19 0.2
-5 9 6 4.13 0.53
-5 -9 -6 3.2 0.37
5 -9 -6 3.3 0.49
5 9 6 3.19 0.41
-6 -9 -6 3 0.39
6 -9 -6 2.59 0.56
6 9 -6 2.56 0.22
6 -9 6 2.57 0.21
6 9 -6 2.65 0.26
6 9 6 2.45 0.46
7 9 -6 9.28 0.52
7 9 -6 10 0.48
7 -9 6 11.51 0.46
7 9 6 8.79 0.7
0 10 6 13.54 0.66
0 -10 -6 14.82 0.68
1 -10 -6 30.71 1.33
1 10 6 32.49 1.3
-1 -10 6 27.96 1.25
-1 10 6 32.87 1.3
-1 -10 -6 31.92 1.31
-2 10 6 111.81 4.23
2 10 6 105.26 4.23
2 -10 -6 111.47 4.24
-2 -10 6 98.11 4.2
-2 -10 -6 102.69 4.23
-3 -10 6 0.54 0.25
-3 -10 -6 0.58 0.34
3 10 6 0.34 0.34
-3 10 6 0.22 0.38
3 -10 -6 0.34 0.39
4 -10 -6 30.52 1.36
-4 10 6 34.12 1.36
-4 -10 -6 29.04 1.32
4 10 6 30.19 1.33
-5 -10 -6 2.68 0.43
5 10 6 2.38 0.48
5 -10 6 2.86 0.2
-5 10 6 3.61 0.59
5 -10 -6 2.86 0.57
6 -10 6 0.38 0.18
6 10 6 0.09 0.54
0 -11 -6 0.84 0.41
0 11 6 1.09 0.34
-1 -11 6 12.71 0.61
-1 -11 -6 14.3 0.73
1 -11 -6 14.72 0.74
1 11 6 13.72 0.68
-1 11 6 15.26 0.69
2 -11 -6 33.65 1.49
-2 11 6 36.47 1.45
-2 -11 6 33.55 1.41
2 11 6 36.1 1.46
-2 -11 -6 33.92 1.48
3 11 6 1.93 0.4
3 -11 -6 1.28 0.49
-3 11 6 1.56 0.45
-3 -11 -6 1.54 0.43
-4 11 6 17.98 0.86
4 11 6 16.38 0.84
-4 -11 -6 14.83 0.84
4 -11 -6 16.73 0.91
5 -11 6 1.3 0.18
5 11 6 1.62 0.56
0 12 6 15.62 0.74
0 -12 -6 14.46 0.81
1 12 6 0.54 0.39
-1 -12 -6 0.69 0.51
-1 12 6 1.1 0.38
1 -12 -6 0.35 0.51
2 12 6 7.29 0.53
-2 12 6 8.08 0.53
-3 12 6 2.14 0.47
3 12 6 2.16 0.48
4 12 6 0.82 0.52
1 13 6 9.68 0.59
0 0 7 0.15 0.12
0 0 -7 0.06 0.1
1 0 -7 0.1 0.11
-1 0 -7 0.14 0.1
1 0 7 -0.03 0.11
-1 0 7 0 0.12
-2 0 -7 12.95 0.52
2 0 -7 12.11 0.53
-2 0 7 12.85 0.53
2 0 7 12.15 0.53
3 0 -7 28.77 1.16
-3 0 7 27.22 1.16
3 0 7 29.11 1.15
-3 0 -7 29 1.15
-4 0 7 12.49 0.55
4 0 7 12.77 0.53
4 0 -7 12.06 0.54
-4 0 -7 12.61 0.52
5 0 7 34.91 1.38
-5 0 7 32.55 1.4
5 0 -7 35.21 1.39
-5 0 -7 34.18 1.37
6 0 7 8.33 0.38
6 0 -7 7.48 0.41
-6 0 -7 8.36 0.36
-6 0 7 8.07 0.45
-7 0 7 3.2 0.4
-7 0 -7 3.23 0.2
7 0 7 3.45 0.25
7 0 -7 3.23 0.31
8 0 -7 0.36 0.33
8 0 7 0.24 0.24
-8 0 7 -0.21 0.46
-8 0 -7 0.07 0.16
-9 0 -7 0.37 0.2
9 0 -7 0.06 0.41
9 0 -7 0.33 0.29
9 0 7 0.25 0.3
10 0 7 14.44 0.67
10 0 -7 11.59 0.67
0 1 7 1.17 0.14
0 1 -7 1.05 0.11
0 -1 -7 1.1 0.12
0 -1 7 1.09 0.12
1 1 -7 72.22 2.95
-1 -1 -7 74.43 2.96
1 -1 7 74.53 2.96
-1 1 7 73.94 2.96
-1 -1 7 74.3 2.96
1 1 7 76.67 2.96
1 -1 -7 75.2 2.96
2 1 -7 12.3 0.51
-2 1 7 11.91 0.52
2 1 7 12.46 0.52
2 -1 -7 12.11 0.52
2 -1 7 12.02 0.51
-2 -1 -7 12.15 0.51
-2 -1 7 11.97 0.51
3 -1 7 6.09 0.28
3 -1 -7 5.5 0.29
-3 1 -7 5.98 0.26
3 1 -7 5.85 0.28
-3 -1 7 5.68 0.29
3 1 7 5.79 0.28
-3 -1 -7 5.7 0.27
4 1 7 24.5 0.96
-4 1 -7 24.57 0.94
-4 -1 7 22.33 0.96
4 -1 7 24.01 0.95
4 -1 -7 21.91 0.96
4 1 -7 23.22 0.95
-4 -1 -7 23.22 0.94
-4 1 7 22.73 0.97
-5 -1 7 18.95 0.79
-5 1 7 16.93 0.79
5 -1 7 19.05 0.76
5 1 7 18.8 0.77
5 1 -7 17.46 0.77
-5 -1 -7 18.47 0.76
-5 1 -7 19.55 0.75
5 -1 -7 18.15 0.78
6 1 -7 30.01 1.23
-6 1 7 28.96 1.26
6 -1 -7 30.65 1.24
6 1 7 29.06 1.22
-6 -1 -7 29.73 1.21
-6 -1 7 31.15 1.26
-6 1 -7 30.15 1.21
6 -1 7 30.39 1.22
-7 1 7 17.25 0.84
7 1 -7 18.65 0.78
7 -1 7 17.19 0.75
-7 -1 7 17.15 0.82
7 1 7 18.32 0.76
-7 -1 -7 18.22 0.73
7 -1 -7 16.27 0.79
-7 1 -7 18 0.73
8 -1 -7 4.06 0.41
-8 1 -7 4.67 0.25
-8 1 7 4.01 0.52
8 1 -7 4.49 0.31
8 1 -7 4.78 0.38
-8 -1 -7 4.57 0.27
-8 -1 7 3.93 0.49
8 -1 7 4.78 0.31
8 1 7 3.88 0.32
9 -1 7 7.84 0.45
9 1 -7 8.43 0.47
9 1 7 7.76 0.47
9 1 -7 7.75 0.53
-9 -1 -7 8.15 0.4
9 -1 -7 7.2 0.57
10 -1 7 3.25 0.39
10 -1 -7 2.4 0.4
10 1 -7 2.65 0.44
10 1 7 2.71 0.43
0 -2 -7 45.62 1.89
0 -2 7 47.63 1.89
0 2 -7 47.62 1.88
0 2 7 48.32 1.89
1 2 -7 9.09 0.38
1 -2 -7 8.98 0.4
-1 2 7 8.83 0.4
1 -2 7 8.63 0.38
-1 2 -7 9.19 0.38
1 2 7 8.38 0.39
-1 -2 7 9.17 0.39
-1 -2 -7 9.25 0.39
2 2 -7 37.95 1.5
-2 -2 7 37.69 1.51
2 2 7 36.02 1.51
-2 -2 -7 38.14 1.5
2 -2 -7 37.96 1.51
-2 2 -7 37.33 1.49
2 -2 7 37.84 1.5
-2 2 7 37.09 1.51
-3 -2 -7 96.29 3.81
-3 -2 7 96.15 3.81
-3 2 -7 94.76 3.8
3 -2 7 96.52 3.81
-3 2 7 95.53 3.82
3 -2 -7 95.27 3.82
3 2 -7 96.26 3.81
3 2 7 97.03 3.81
-4 2 -7 39.84 1.63
4 2 -7 41.02 1.64
4 2 7 41.78 1.65
-4 -2 -7 42.32 1.64
4 -2 7 41.09 1.64
-4 -2 7 39.21 1.65
4 -2 -7 41.38 1.65
5 2 7 14.29 0.61
5 -2 -7 14.26 0.62
-5 2 -7 14.34 0.58
-5 2 7 13.26 0.64
5 -2 7 14.24 0.59
-5 -2 -7 13.95 0.59
-5 -2 7 14.62 0.63
5 2 -7 13.67 0.6
6 -2 -7 24.28 1.07
6 2 7 26.12 1.06
-6 -2 7 26.24 1.09
-7 -2 7 4.87 0.41
-7 -2 -7 4.48 0.27
7 2 -7 4.41 0.33
-7 2 7 4.51 0.46
7 2 -7 4.5 0.29
-7 2 -7 6.31 0.24
7 2 7 5.1 0.31
7 -2 -7 4.35 0.38
7 -2 7 4.51 0.28
8 2 -7 -0.01 0.3
-8 -2 -7 0.21 0.19
-8 2 7 0.16 0.52
-8 -2 7 0.06 0.44
8 -2 7 -0.14 0.22
8 2 -7 0.04 0.25
8 2 7 -0.06 0.27
8 -2 -7 -0.15 0.36
-9 -2 -7 16.81 0.77
9 -2 7 18.47 0.79
9 2 -7 18.33 0.81
9 2 7 17.74 0.82
9 2 -7 17.94 0.85
9 -2 -7 17.96 0.9
0 3 -7 1.09 0.09
0 3 7 0.85 0.15
0 -3 7 1.06 0.12
0 -3 -7 0.91 0.14
-1 3 -7 16.08 0.66
-1 -3 7 16.04 0.67
1 3 7 16.85 0.69
-1 3 7 16.76 0.69
1 -3 7 16.01 0.67
1 3 -7 16.38 0.67
-1 -3 -7 16.68 0.68
-2 -3 -7 51.69 2.02
2 3 7 50.15 2.02
2 -3 7 51.27 2.01
2 3 -7 48.83 2.01
-2 3 -7 48.96 2
-2 -3 7 51.5 2.01
3 3 7 11.79 0.52
-3 3 -7 11.73 0.48
3 -3 -7 11.31 0.52
3 -3 7 12.53 0.5
-3 -3 -7 12.36 0.51
-3 -3 7 11.83 0.52
-3 3 7 11.94 0.53
-4 3 -7 25.95 1.06
-4 -3 -7 27.93 1.09
4 -3 -7 25.21 1.1
4 3 -7 26.26 1.08
-4 3 7 26.94 1.11
4 -3 7 27.33 1.08
-4 -3 7 27.73 1.1
4 3 7 26.1 1.09
5 3 7 0.25 0.19
-5 3 7 0.68 0.26
-5 -3 -7 0.6 0.15
5 3 -7 0.59 0.16
5 -3 7 0.61 0.14
-5 -3 7 0.28 0.22
5 -3 -7 0.73 0.22
-5 3 -7 0.57 0.09
-6 -3 -7 27.85 1.14
6 3 -7 27.68 1.14
6 -3 7 29.13 1.13
6 -3 -7 28.02 1.17
-6 -3 7 26.71 1.17
-6 3 -7 27.33 1.12
6 3 7 27.51 1.15
-6 3 7 28.44 1.2
6 3 -7 27.91 1.15
-7 -3 7 -0.02 0.34
7 3 -7 0.34 0.21
7 -3 7 0.76 0.19
-7 3 7 -0.37 0.44
7 -3 -7 0.1 0.33
7 3 -7 0.42 0.25
7 3 7 0.46 0.25
-7 -3 -7 0.51 0.19
8 3 7 4.65 0.37
-8 3 7 3.88 0.62
8 -3 7 4.59 0.31
8 3 -7 4.69 0.37
8 3 -7 5.22 0.35
-8 -3 -7 5.2 0.3
-8 -3 7 4.98 0.51
8 -3 -7 3.92 0.46
-9 -3 -7 2.05 0.26
9 3 7 1.91 0.37
9 -3 7 2.19 0.28
9 -3 -7 2.13 0.54
9 3 -7 1.99 0.39
9 3 -7 2.12 0.4
0 -4 7 75.94 2.99
0 4 -7 73.9 2.99
0 -4 -7 77.05 3
0 4 7 74.74 3
1 4 7 21.09 0.85
-1 4 -7 19.71 0.82
-1 -4 -7 20.7 0.85
-1 -4 7 20.93 0.84
1 -4 7 21.29 0.83
1 -4 -7 19.73 0.85
1 4 -7 20.46 0.83
-2 4 -7 20.26 0.88
2 -4 -7 22.75 0.91
-2 4 7 23.25 0.92
3 -4 -7 80.46 3.27
-3 -4 7 83.88 3.26
3 4 7 84.15 3.27
-3 -4 -7 82.07 3.26
3 4 -7 80.25 3.25
-3 4 7 80.4 3.27
3 -4 7 82.29 3.25
-4 4 -7 28.87 1.24
-4 4 7 29.05 1.28
4 -4 -7 32.34 1.28
4 4 -7 31.07 1.25
4 4 7 32.54 1.27
4 -4 7 31.8 1.25
-4 -4 -7 31.74 1.26
4 4 -7 31.48 1.25
-4 -4 7 30.96 1.27
-5 -4 7 13.41 0.61
5 4 7 12.59 0.6
5 4 -7 13.37 0.57
5 -4 -7 14.32 0.62
-5 -4 -7 13.87 0.58
5 -4 7 13.88 0.57
-5 4 7 13.39 0.64
5 4 -7 13.53 0.58
-6 -4 7 5.13 0.36
6 4 -7 4.89 0.3
6 4 7 4.75 0.33
-6 -4 -7 4.94 0.29
6 -4 -7 4.84 0.38
6 4 -7 5.18 0.29
-6 4 7 5.02 0.43
6 -4 7 5.24 0.27
7 4 -7 7.11 0.38
7 4 7 6.63 0.42
7 -4 7 7.05 0.34
-7 4 7 6.58 0.57
7 -4 -7 6.83 0.47
7 4 -7 7.51 0.39
-7 -4 7 6.37 0.47
-7 -4 -7 6.79 0.37
8 4 -7 6.43 0.41
8 -4 7 5.79 0.34
8 4 -7 5.34 0.4
-8 -4 -7 5.28 0.35
8 4 7 6.05 0.42
8 -4 -7 5.49 0.53
-8 4 7 5.68 0.71
9 4 -7 15.48 0.73
-9 -4 -7 14.07 0.66
9 4 -7 15.24 0.72
9 4 7 12.68 0.74
9 -4 7 14.77 0.66
0 5 7 -0.06 0.17
0 -5 -7 -0.03 0.17
0 -5 7 -0.06 0.11
-1 -5 -7 1.19 0.18
-1 -5 7 1.1 0.13
1 5 7 1.24 0.19
1 -5 7 1.16 0.12
1 -5 -7 1.04 0.19
-1 5 7 1.16 0.19
2 -5 7 15.74 0.64
-2 -5 7 16.51 0.65
2 5 -7 14.86 0.63
2 -5 -7 15.36 0.67
-2 -5 -7 15.64 0.66
2 5 -7 16.44 0.63
-2 5 7 15.13 0.68
2 5 7 15.35 0.67
3 -5 -7 21.79 0.95
3 5 7 21.92 0.94
-3 -5 -7 23.26 0.94
3 5 -7 22.27 0.91
-3 5 7 22.19 0.95
-3 -5 7 23.31 0.93
3 5 -7 23.56 0.91
3 -5 7 22.46 0.91
-4 -5 -7 26.21 1.15
4 5 7 27.73 1.16
4 -5 -7 28.73 1.17
4 -5 7 28.08 1.13
-4 5 7 27.97 1.17
4 5 -7 29.04 1.13
4 5 -7 28.53 1.13
-4 -5 7 28.04 1.15
-5 -5 7 49.05 1.97
-5 5 7 47.73 1.99
5 5 -7 45.9 1.95
5 5 -7 47.72 1.95
5 -5 -7 46.58 1.98
-5 -5 -7 50.9 1.96
5 -5 7 50.35 1.94
5 5 7 50.92 1.97
6 5 -7 7.53 0.36
-6 -5 -7 7.5 0.37
-6 -5 7 6.97 0.43
6 5 -7 7.17 0.36
6 5 7 4.76 0.4
6 -5 -7 7.27 0.45
-6 5 7 7.26 0.53
6 -5 7 7.62 0.34
-7 5 7 0.62 0.53
7 -5 7 0.82 0.19
7 5 -7 0.8 0.26
7 5 7 -0.06 0.31
-7 -5 7 1.24 0.37
-7 -5 -7 0.88 0.25
7 -5 -7 0.89 0.41
7 5 -7 1.14 0.25
8 -5 -7 3.55 0.53
8 5 -7 3.44 0.34
8 5 -7 3.69 0.37
-8 -5 -7 3.3 0.32
8 5 7 3.44 0.41
8 -5 7 4.07 0.28
-8 5 7 3.69 0.72
9 5 7 2.28 0.49
9 -5 7 1.8 0.31
9 5 -7 2.89 0.48
0 6 7 94.61 3.78
0 -6 -7 95.2 3.78
-1 -6 7 21.22 0.84
1 -6 7 19.41 0.83
-1 -6 -7 21.03 0.86
-1 6 7 20.45 0.86
1 6 7 20.71 0.86
2 6 7 7.77 0.41
-2 -6 7 8.82 0.38
-2 6 7 8.33 0.42
-2 -6 -7 7.82 0.4
2 -6 7 8.3 0.35
2 -6 -7 8.32 0.42
3 -6 -7 44.81 1.82
3 6 -7 47.24 1.78
3 6 7 44.7 1.81
-3 -6 -7 45.58 1.81
3 6 -7 44.22 1.78
-3 -6 7 43.59 1.8
-3 6 7 43.21 1.82
4 -6 -7 2.52 0.3
4 6 -7 2.11 0.18
4 6 -7 2.38 0.17
4 -6 7 2.54 0.16
4 6 7 2.2 0.27
-4 6 7 2.78 0.32
-4 -6 -7 2.27 0.23
-4 -6 7 2.19 0.24
5 -6 7 8.9 0.38
-5 -6 7 8.5 0.46
-5 -6 -7 8.45 0.44
5 6 7 8.22 0.46
5 -6 -7 8.35 0.49
-5 6 7 8.37 0.54
5 6 -7 9.21 0.4
5 6 -7 9.1 0.4
6 6 -7 19.98 0.81
6 -6 7 19.98 0.79
-6 6 7 18.97 0.94
6 6 7 18.66 0.86
-6 -6 -7 18.44 0.83
6 -6 -7 18.69 0.88
6 6 -7 19.38 0.81
-6 -6 7 18.91 0.85
7 6 7 2.51 0.4
7 -6 7 2.12 0.23
7 6 -7 2.7 0.27
7 6 -7 2.26 0.3
-7 -6 7 2.08 0.41
7 -6 -7 2.23 0.47
-7 -6 -7 1.99 0.3
-7 6 7 2.25 0.62
8 6 -7 23.62 0.99
-8 -6 -7 22.65 0.99
8 6 7 21.53 1.06
8 6 -7 22.69 1
8 -6 -7 21.59 1.13
8 -6 7 24.83 0.96
0 -7 7 8.27 0.34
0 7 7 7.46 0.41
0 -7 -7 7.77 0.41
-1 -7 -7 0.18 0.21
-1 7 7 0.1 0.22
-1 -7 7 -0.14 0.14
1 -7 7 0.13 0.11
1 -7 -7 -0.12 0.23
1 7 7 0.16 0.22
2 -7 7 22.23 0.91
-2 -7 7 21.88 0.92
-2 7 7 24.35 0.96
-2 -7 -7 21.61 0.94
2 7 7 21.95 0.95
2 -7 -7 22.78 0.96
3 -7 7 40.84 1.67
3 7 7 42.23 1.71
3 -7 -7 41.72 1.72
-3 7 7 41.62 1.72
-3 -7 7 43.65 1.69
-3 -7 -7 41.53 1.7
-4 -7 7 9.59 0.47
-4 -7 -7 9.71 0.48
4 7 -7 10.14 0.42
4 -7 -7 10.38 0.53
-4 7 7 10.42 0.55
4 -7 7 9.82 0.42
4 7 7 9.17 0.5
4 7 -7 9.23 0.42
-5 7 7 13.3 0.68
5 -7 -7 11.95 0.64
5 7 -7 12.43 0.53
-5 -7 -7 11.5 0.58
-5 -7 7 11.55 0.58
5 7 -7 12.71 0.53
5 7 7 11.63 0.61
6 -7 7 15.26 0.64
-6 7 7 15.41 0.86
6 -7 -7 15.47 0.78
6 7 7 15.41 0.74
-6 -7 7 15.42 0.72
-6 -7 -7 13.75 0.69
6 7 -7 15.77 0.66
6 7 -7 15.14 0.67
7 7 -7 10.97 0.49
-7 -7 -7 9.65 0.55
7 -7 7 10.59 0.47
-7 7 7 10.15 0.84
7 7 -7 10.38 0.53
7 7 7 9.69 0.63
7 -7 -7 9.08 0.69
8 7 7 5.85 0.61
8 -7 7 6.02 0.35
8 7 -7 5.18 0.48
0 -8 -7 22.25 0.9
0 8 7 20.74 0.89
0 -8 7 19.28 0.84
1 -8 -7 3.03 0.31
-1 8 7 2.4 0.29
1 8 7 3.1 0.29
-1 -8 7 2.85 0.2
1 -8 7 2.77 0.17
-1 -8 -7 2.93 0.29
2 8 7 13.14 0.64
2 -8 -7 14.69 0.66
-2 -8 -7 13.97 0.64
-2 -8 7 13.42 0.59
-2 8 7 13.89 0.64
2 -8 7 14.3 0.57
-3 -8 7 50.6 2.03
3 -8 -7 54.22 2.07
3 -8 7 48.33 2
3 8 7 49.87 2.05
-3 8 7 49.41 2.06
-3 -8 -7 50.22 2.05
4 -8 7 26.72 1.08
-4 8 7 27.38 1.17
4 8 7 28.33 1.15
-4 -8 -7 25.8 1.14
4 -8 -7 26.07 1.17
-4 -8 7 27.01 1.12
5 8 -7 2.77 0.2
-5 -8 7 2.02 0.33
5 -8 -7 2.86 0.44
-5 -8 -7 3 0.34
5 8 7 2.48 0.39
-5 8 7 3.1 0.51
5 8 -7 3.1 0.21
5 -8 7 2.67 0.2
6 8 -7 2.87 0.23
6 8 7 2.68 0.46
6 8 -7 2.71 0.26
6 -8 7 1.78 0.21
6 -8 -7 2.63 0.52
-6 -8 -7 2.02 0.35
-6 8 7 2.15 0.64
-6 -8 7 2.23 0.39
7 -8 -7 2.33 0.64
7 -8 7 2.74 0.25
7 8 -7 2.48 0.33
7 8 7 2.14 0.53
-7 -8 -7 2.41 0.41
-7 8 7 1.92 0.8
7 8 -7 2.24 0.28
0 -9 7 4.92 0.25
0 -9 -7 5.02 0.37
0 9 7 4.68 0.37
-1 -9 -7 17.38 0.78
-1 9 7 16.76 0.78
1 -9 -7 17.51 0.79
1 9 7 17.69 0.78
-1 -9 7 16.17 0.71
-2 -9 7 7.83 0.4
2 -9 -7 8.28 0.51
-2 9 7 7.93 0.49
-2 -9 -7 8.62 0.48
2 9 7 8.66 0.47
3 -9 -7 4.66 0.43
-3 -9 7 4.53 0.31
3 -9 7 4.19 0.23
-3 -9 -7 5.1 0.39
-3 9 7 4.79 0.43
3 9 7 4.52 0.39
4 -9 -7 0.89 0.44
4 -9 7 1.78 0.16
-4 -9 -7 1.66 0.35
-4 -9 7 1.51 0.3
-4 9 7 2.17 0.48
4 9 7 1.63 0.38
-5 -9 7 6.68 0.48
-5 9 7 8.47 0.68
5 -9 7 7.5 0.36
5 9 7 7.63 0.55
-5 -9 -7 7.85 0.51
5 -9 -7 7.49 0.61
6 9 -7 22.13 0.87
-6 9 7 19.98 1.12
6 -9 -7 20.65 1.09
6 9 -7 21.4 0.86
6 9 7 19.59 1.01
6 -9 7 21.52 0.86
-6 -9 -7 19.71 0.96
7 9 -7 9.8 0.52
0 -10 -7 10.75 0.6
0 10 7 10.81 0.58
-1 -10 7 6.19 0.31
1 -10 -7 5.67 0.49
-1 -10 -7 5.89 0.46
1 10 7 6.03 0.44
-1 10 7 6.38 0.45
-2 -10 -7 1.66 0.37
-2 10 7 2.27 0.4
-2 -10 7 1.64 0.24
2 10 7 2 0.37
2 -10 -7 2 0.42
3 10 7 22.4 1.06
-3 -10 -7 22.44 1.06
-3 -10 7 24.67 1
3 -10 -7 24.22 1.09
-3 10 7 24.97 1.08
-4 -10 -7 2.2 0.44
-4 10 7 2.45 0.54
4 -10 7 2.81 0.2
-4 -10 7 2.64 0.35
4 10 7 3.06 0.47
4 -10 -7 2.82 0.55
-5 10 7 20.74 1.07
5 -10 7 20 0.81
5 10 7 19.96 0.98
-5 -10 -7 17.73 0.94
-6 10 7 14.02 1.01
0 11 7 15.19 0.76
0 -11 -7 15.09 0.79
1 11 7 26.45 1.18
-1 -11 7 25.65 1.11
-1 11 7 28.69 1.19
-1 -11 -7 28.32 1.22
1 -11 -7 26.35 1.22
2 -11 -7 11.52 0.74
2 11 7 11.88 0.67
-2 -11 7 11.48 0.56
-2 11 7 11.82 0.67
-2 -11 -7 12.08 0.68
-3 -11 7 0.28 0.32
-3 -11 -7 0.28 0.48
-3 11 7 0.3 0.51
3 -11 -7 0.19 0.56
3 11 7 0.71 0.46
-4 11 7 10.51 0.78
4 11 7 9.67 0.72
-5 11 7 13.99 0.97
0 12 7 16.62 0.83
1 12 7 8.66 0.61
-1 12 7 8.02 0.6
-2 -12 7 0.51 0.32
-2 12 7 0.18 0.51
2 12 7 0.43 0.51
3 12 7 8.66 0.71
-3 12 7 9.75 0.73
0 0 8 404.87 15.45
0 0 -8 377.31 15.45
-1 0 -8 41.77 1.63
1 0 8 39.15 1.63
1 0 -8 40.67 1.63
-1 0 8 41.25 1.64
-2 0 8 10.59 0.47
2 0 8 10.6 0.46
2 0 -8 10.58 0.47
-2 0 -8 11.07 0.46
-3 0 8 11 0.52
3 0 -8 11.66 0.51
-3 0 -8 11.86 0.49
3 0 8 12.51 0.51
4 0 8 4.37 0.24
4 0 -8 3.83 0.25
-4 0 -8 4.15 0.22
-5 0 -8 12.31 0.51
5 0 8 11.95 0.53
-5 0 8 12.21 0.57
5 0 -8 11.42 0.54
6 0 -8 82.77 3.28
6 0 8 84.14 3.28
-6 0 -8 85.59 3.26
-6 0 8 75.9 3.3
-7 0 8 4.75 0.47
7 0 -8 4.85 0.36
-7 0 -8 5.21 0.26
7 0 8 4.99 0.31
-8 0 -8 12.06 0.51
8 0 8 10.85 0.55
-8 0 8 11.38 0.71
8 0 -8 11.32 0.6
9 0 8 -0.03 0.32
-9 0 -8 0.18 0.21
9 0 -8 -0.17 0.43
-9 0 8 -0.68 0.68
0 1 -8 165.32 6.72
0 -1 -8 169.29 6.73
0 -1 8 172.36 6.73
0 1 8 172.92 6.73
1 -1 8 10.57 0.45
-1 -1 8 10.01 0.45
1 1 -8 11.19 0.45
-1 1 -8 10.81 0.44
-1 -1 -8 10.56 0.45
-1 1 8 10.34 0.46
1 -1 -8 10.17 0.45
1 1 8 10.03 0.46
2 1 8 85.79 3.42
2 1 -8 85.11 3.42
-2 -1 -8 86.76 3.42
-2 -1 8 88.74 3.43
2 -1 8 86.18 3.42
2 -1 -8 86.33 3.42
-2 1 -8 86.41 3.42
-2 1 8 83.87 3.43
-3 -1 8 6.4 0.32
3 -1 8 6.37 0.3
3 1 8 6.34 0.31
3 -1 -8 6.29 0.32
-3 -1 -8 6.4 0.3
-3 1 -8 6.44 0.29
3 1 -8 6.07 0.31
-4 -1 8 23.78 1.02
4 -1 -8 24.05 1.01
-4 -1 -8 24.26 1
4 -1 8 24.81 1
-4 1 -8 24.73 0.99
-4 1 8 24.88 1.03
4 1 8 25.13 1.01
4 1 -8 24.9 1.01
-5 -1 -8 19.06 0.76
5 -1 8 18.76 0.77
5 -1 -8 17.26 0.78
-5 -1 8 18.64 0.8
5 1 8 18.75 0.78
-5 1 -8 18.55 0.75
5 1 -8 18.12 0.77
-5 1 8 17.6 0.8
-6 1 -8 52.2 2.01
6 -1 -8 52.81 2.04
-6 1 8 50.43 2.06
6 1 -8 49.19 2.03
6 -1 8 48.92 2.02
6 1 8 50.55 2.03
-6 -1 -8 51.74 2.02
-6 -1 8 46.95 2.05
7 1 -8 4.67 0.37
-7 1 -8 5.07 0.27
-7 -1 8 4.98 0.46
-7 1 8 5.01 0.48
7 -1 8 5.31 0.31
7 -1 -8 5.07 0.38
-7 -1 -8 5.43 0.28
7 1 8 5.86 0.34
8 -1 -8 18.36 0.81
-8 -1 8 17.33 0.88
-8 1 8 15.7 0.92
-8 1 -8 17.99 0.72
-8 -1 -8 15.94 0.72
8 1 -8 15.93 0.79
8 -1 8 18.11 0.75
8 1 8 17.34 0.77
9 1 -8 15.45 0.8
-9 1 8 15.32 1.01
-9 -1 -8 16.55 0.69
9 -1 -8 14.93 0.83
-9 1 -8 17.4 0.68
9 -1 8 16.04 0.74
9 1 -8 15.66 0.77
9 1 8 16.5 0.76
-9 -1 8 15.44 0.95
0 2 -8 2.75 0.16
0 -2 -8 2.72 0.19
0 2 8 2.88 0.2
0 -2 8 2.98 0.18
1 -2 8 231.76 9.2
-1 2 -8 233.55 9.19
2 2 -8 44.84 1.72
2 2 8 44.12 1.73
2 -2 8 42.8 1.72
2 -2 -8 42.31 1.73
-2 -2 8 43.88 1.72
-2 -2 -8 42.36 1.72
-2 2 8 41.37 1.73
-2 2 -8 41.65 1.71
-3 -2 -8 73.28 2.8
3 2 8 70.93 2.81
3 2 -8 68.84 2.8
-3 -2 8 72.45 2.81
-3 2 -8 66.89 2.79
-3 2 8 67.14 2.81
3 -2 -8 70.66 2.81
3 -2 8 71.94 2.8
4 -2 8 73.85 2.85
4 -2 -8 72.81 2.86
-4 -2 -8 74.48 2.85
4 2 -8 69.41 2.85
-4 2 -8 69.92 2.84
-4 -2 8 71.82 2.86
4 2 8 68.92 2.86
-5 -2 -8 48.83 1.98
-5 2 8 49.22 2.01
5 -2 8 48.45 1.98
5 -2 -8 49.86 1.99
-5 2 -8 49.6 1.96
-5 -2 8 49.91 2
5 2 8 48.8 1.99
5 2 -8 50.03 1.98
-6 -2 8 7.83 0.46
-6 2 -8 8.23 0.35
-6 2 8 7.7 0.48
6 2 8 8.2 0.41
6 2 -8 7.83 0.4
6 -2 8 7.36 0.38
-6 -2 -8 7.96 0.38
6 -2 -8 8.17 0.44
7 -2 8 7.84 0.38
-7 -2 8 7.27 0.5
7 2 8 7.23 0.41
-7 -2 -8 7.47 0.37
7 -2 -8 7.28 0.46
-7 2 -8 6.92 0.33
7 2 -8 7.27 0.42
-8 -2 -8 0.81 0.21
8 -2 8 0.72 0.25
8 -2 -8 0.87 0.4
-8 2 8 0.51 0.57
8 2 8 0.87 0.31
8 2 -8 0.94 0.33
-8 2 -8 0.74 0.16
-8 -2 8 0.61 0.48
8 2 -8 0.56 0.31
-9 2 8 21.28 1.2
9 2 -8 19.75 0.94
9 2 -8 20.69 0.95
9 -2 8 20.91 0.9
9 2 8 19.99 0.94
9 -2 -8 20.77 1
-9 -2 -8 21.44 0.88
0 -3 -8 3.98 0.24
0 -3 8 4.5 0.23
0 3 -8 4.29 0.2
-1 3 -8 33.87 1.33
1 3 8 33.9 1.35
-1 -3 -8 33.07 1.35
-1 -3 8 32.48 1.34
1 -3 8 32.44 1.34
1 -3 -8 33.9 1.35
-1 3 8 33.38 1.36
1 3 -8 33.71 1.33
-2 -3 8 46.23 1.75
-2 3 8 43.28 1.76
2 3 8 42.84 1.75
2 -3 8 43.85 1.74
2 3 -8 42.71 1.74
2 -3 -8 42.81 1.75
-2 -3 -8 43.96 1.75
-2 3 -8 42.55 1.73
3 3 8 18.91 0.81
3 -3 -8 20.08 0.81
3 -3 8 19.21 0.79
-3 -3 -8 19.27 0.8
-3 3 8 18.31 0.82
-3 -3 8 19.35 0.8
-3 3 -8 19.54 0.78
4 -3 8 43.12 1.71
4 3 8 43.45 1.73
-4 -3 8 43.52 1.73
-4 -3 -8 41.42 1.72
4 3 -8 43.08 1.72
-4 3 -8 42.82 1.7
4 -3 -8 41.64 1.73
-5 -3 8 12.59 0.59
-5 3 8 12.48 0.62
5 -3 8 12.81 0.55
-5 3 -8 12.86 0.53
5 3 -8 13.16 0.57
5 3 8 12.72 0.58
-5 -3 -8 13 0.56
5 -3 -8 13.47 0.6
-6 3 -8 0.75 0.12
-6 -3 -8 1.03 0.19
6 -3 8 0.8 0.19
6 -3 -8 0.81 0.29
6 3 -8 1.01 0.22
-6 -3 8 0.85 0.31
-6 3 8 0.61 0.37
6 3 8 0.96 0.25
6 3 -8 0.69 0.19
7 3 8 16.2 0.73
-7 -3 -8 16.46 0.7
7 -3 -8 15.86 0.77
-7 3 -8 15.96 0.66
-7 3 8 16.16 0.85
7 -3 8 16.51 0.69
7 3 -8 15.37 0.71
-7 -3 8 16.65 0.79
7 3 -8 15.67 0.72
8 3 -8 7.65 0.46
8 3 8 7.39 0.48
-8 3 8 7.68 0.72
8 -3 8 7.83 0.42
-8 -3 -8 7.88 0.41
-8 -3 8 7.66 0.6
8 -3 -8 8.35 0.56
8 3 -8 8.23 0.47
9 3 -8 8.09 0.55
9 -3 8 7.33 0.44
9 3 8 7.25 0.54
-9 3 8 6.79 0.93
-1 -4 -8 10.35 0.46
1 -4 -8 10.49 0.47
1 4 8 9.48 0.47
-1 4 -8 10.38 0.42
1 4 -8 9.97 0.43
1 -4 8 10.02 0.44
-1 4 8 9.93 0.47
-1 -4 8 10.78 0.44
2 -4 8 53.53 2.04
-2 4 -8 47.44 2.02
2 -4 -8 51.07 2.05
2 4 8 49.61 2.05
-2 -4 -8 51.47 2.05
-2 4 8 50.63 2.06
2 4 -8 51 2.03
-2 -4 8 53.54 2.04
-3 -4 -8 0.83 0.17
-3 4 8 1.29 0.24
-3 4 -8 0.84 0.08
3 4 -8 0.88 0.15
-3 -4 8 0.88 0.17
3 4 8 0.98 0.2
3 -4 8 0.88 0.15
3 -4 -8 0.96 0.22
4 4 8 69.07 2.7
-4 4 -8 62.63 2.66
-4 4 8 67.34 2.71
4 4 -8 69.95 2.68
4 -4 -8 63.8 2.7
-4 -4 8 67.93 2.69
4 -4 8 70.08 2.68
-4 -4 -8 67.08 2.69
5 -4 8 4.1 0.23
5 4 -8 3.42 0.23
-5 -4 8 3.56 0.31
5 4 -8 4.26 0.26
-5 4 -8 3.57 0.18
-5 -4 -8 3.56 0.26
5 -4 -8 4.27 0.33
-5 4 8 4.17 0.38
5 4 8 3.36 0.3
6 4 -8 35.49 1.46
-6 4 8 38.05 1.52
6 4 8 36.34 1.48
6 -4 -8 35.05 1.49
6 4 -8 35.13 1.45
-6 -4 -8 34.38 1.46
-6 -4 8 35.65 1.49
6 -4 8 36.33 1.45
-7 -4 -8 7.8 0.39
-7 -4 8 7.07 0.51
-7 4 8 7.39 0.64
7 4 -8 7.24 0.4
7 4 8 6.83 0.45
7 4 -8 6.9 0.41
7 -4 8 7.62 0.38
7 -4 -8 6.76 0.5
8 -4 -8 14.66 0.81
-8 4 8 14.09 0.98
8 4 -8 15.5 0.73
-8 -4 -8 14.87 0.69
8 4 8 14.76 0.75
8 4 -8 15.98 0.72
8 -4 8 15.78 0.68
-8 -4 8 15.89 0.83
9 4 8 1.88 0.49
9 -4 8 1.17 0.32
0 -5 8 0.16 0.13
0 5 8 0.11 0.2
0 -5 -8 0.2 0.18
1 -5 -8 0.44 0.2
-1 5 8 0.34 0.21
1 5 -8 0.31 0.08
1 5 8 0.34 0.21
1 -5 8 0.35 0.13
-1 -5 8 0.43 0.14
-1 -5 -8 0.33 0.18
2 5 -8 5.65 0.26
2 5 8 5.66 0.32
-2 -5 -8 5.66 0.31
-2 5 8 5.52 0.34
-2 -5 8 6.4 0.3
2 -5 8 5.83 0.27
2 5 -8 5.42 0.25
2 -5 -8 5.73 0.33
3 -5 -8 6.36 0.37
3 5 -8 6.12 0.28
3 5 8 6.08 0.35
-3 -5 -8 6.23 0.34
-3 -5 8 6.3 0.33
3 -5 8 6.34 0.3
3 5 -8 6.3 0.29
4 -5 8 35.23 1.36
4 -5 -8 34.19 1.4
-4 -5 8 34.03 1.38
4 5 -8 33.28 1.36
4 5 8 32.41 1.39
-4 5 8 34.54 1.41
-4 -5 -8 32.98 1.38
4 5 -8 33.94 1.36
5 5 -8 3.4 0.23
-5 -5 -8 3.53 0.27
5 -5 8 3.32 0.22
-5 -5 8 3.05 0.31
5 5 -8 3.11 0.24
-5 5 8 3.55 0.4
5 -5 -8 3.38 0.35
6 5 -8 1.97 0.24
6 5 8 1.97 0.32
6 5 -8 2.03 0.25
6 -5 -8 1.98 0.36
-6 -5 8 1.83 0.35
-6 5 8 2.07 0.48
6 -5 8 2.2 0.21
-6 -5 -8 2.2 0.26
-7 -5 -8 18.81 0.85
7 5 8 19.49 0.89
7 5 -8 20.2 0.84
7 5 -8 19.38 0.84
7 -5 -8 18.35 0.92
-7 -5 8 18.97 0.9
-7 5 8 20.37 1.04
7 -5 8 19.56 0.82
-8 5 8 0.63 0.79
8 5 -8 0.04 0.32
8 5 8 0.21 0.43
-8 -5 8 0.14 0.51
8 -5 -8 0.18 0.55
8 -5 8 0.15 0.26
-8 -5 -8 0.09 0.3
8 5 -8 -0.15 0.36
0 6 8 0.24 0.22
0 -6 -8 0.47 0.21
0 -6 8 0.15 0.14
-1 -6 -8 25.39 1.06
1 -6 8 24.53 1.02
-1 -6 8 25.94 1.03
-1 6 8 24.73 1.06
1 -6 -8 26.75 1.06
1 6 8 24.55 1.06
2 -6 -8 9.79 0.47
-2 6 8 8.92 0.47
2 -6 8 9.41 0.4
-2 -6 8 9.28 0.42
2 6 8 8.63 0.46
-2 -6 -8 9.2 0.44
3 6 -8 19.58 0.82
-3 -6 8 20.21 0.84
3 -6 -8 19.64 0.88
-3 -6 -8 20.47 0.86
3 6 -8 20.72 0.82
3 6 8 20.53 0.87
3 -6 8 20.35 0.82
-3 6 8 19.9 0.88
-4 -6 8 15.91 0.7
-4 -6 -8 16.91 0.71
4 6 -8 16.61 0.67
-4 6 8 17.18 0.76
4 -6 8 13.91 0.67
4 6 8 15.89 0.73
4 -6 -8 16.1 0.75
4 6 -8 16.79 0.67
-5 -6 -8 27.71 1.16
5 6 -8 27.89 1.13
5 -6 -8 26.55 1.2
-5 -6 8 27.52 1.17
5 6 -8 28.49 1.14
-5 6 8 27.69 1.22
5 6 8 28.24 1.19
5 -6 8 28.62 1.13
-6 -6 -8 18.87 0.78
6 6 -8 16.67 0.75
6 -6 8 17.32 0.74
-6 -6 8 17.3 0.81
-6 6 8 16.98 0.92
6 6 8 17.21 0.81
6 6 -8 18.21 0.75
6 -6 -8 17.5 0.85
7 -6 8 21.74 0.87
7 6 -8 19.68 0.89
7 6 -8 22.2 0.88
7 -6 -8 19.01 1
-7 -6 -8 20.35 0.91
-7 -6 8 19.16 0.95
-7 6 8 22.44 1.14
7 6 8 19.69 0.96
8 -6 8 17.79 0.77
-8 6 8 18.28 1.21
8 6 8 16.6 0.91
0 -7 8 2.62 0.19
0 7 8 2.85 0.3
0 -7 -8 2.64 0.28
1 -7 8 3.45 0.2
-1 7 8 3.33 0.31
-1 -7 8 3.37 0.22
1 7 8 3.56 0.31
1 -7 -8 4.29 0.33
-1 -7 -8 4.16 0.3
2 -7 -8 0.97 0.29
2 -7 8 0.77 0.15
-2 -7 -8 0.97 0.25
-2 7 8 1.28 0.3
2 7 8 0.81 0.28
-2 -7 8 0.89 0.18
-3 7 8 6.15 0.43
3 -7 -8 5.36 0.41
-3 -7 -8 6.65 0.38
-3 -7 8 6.07 0.33
3 7 8 5.8 0.39
3 -7 8 6.42 0.3
4 7 -8 4.11 0.24
-4 -7 8 4.15 0.33
4 -7 8 6.11 0.25
-4 -7 -8 4.49 0.34
4 -7 -8 4.7 0.41
-4 7 8 4.36 0.44
4 7 -8 4.56 0.25
4 7 8 4.82 0.38
5 -7 -8 27.26 1.16
5 7 8 25.13 1.14
5 -7 8 26.09 1.06
-5 -7 -8 24.91 1.11
5 7 -8 23.98 1.06
-5 -7 8 25.28 1.11
5 7 -8 27.7 1.06
-5 7 8 28.23 1.19
6 -7 8 4.97 0.29
6 7 8 4.27 0.47
6 7 -8 4.5 0.32
-6 -7 -8 4.49 0.38
6 7 -8 4.54 0.3
-6 -7 8 4.44 0.42
6 -7 -8 4.69 0.54
-6 7 8 4.99 0.69
7 7 -8 6.02 0.36
7 -7 -8 5.14 0.63
-7 7 8 5.16 0.87
7 7 -8 4.67 0.39
-7 -7 8 4.12 0.51
-7 -7 -8 4.27 0.42
7 -7 8 5.7 0.32
7 7 8 4.84 0.55
0 8 8 28.01 1.23
0 -8 8 29.09 1.18
0 -8 -8 30.84 1.24
-1 -8 8 65.72 2.56
1 -8 -8 66.06 2.6
1 8 8 62.27 2.59
-1 -8 -8 61.1 2.59
-1 8 8 65.13 2.59
1 -8 8 64.72 2.55
2 -8 -8 6.84 0.44
-2 8 8 6.84 0.45
-2 -8 8 6.17 0.34
-2 -8 -8 6.97 0.42
2 8 8 6.8 0.43
2 -8 8 6.51 0.31
-3 -8 8 48.32 2.01
3 8 8 49.54 2.04
-3 -8 -8 49.93 2.04
3 -8 -8 49.37 2.05
-3 8 8 51.9 2.06
3 -8 8 50.73 1.99
4 -8 8 37.48 1.5
4 -8 -8 37.57 1.59
4 8 8 35.89 1.57
-4 8 8 38.87 1.6
-4 -8 8 37.72 1.53
-4 -8 -8 36.9 1.55
5 -8 8 0.85 0.19
-5 8 8 0.64 0.57
5 -8 -8 0.42 0.49
5 8 -8 0.74 0.18
-5 -8 -8 0.74 0.34
5 8 -8 0.86 0.19
5 8 8 0.86 0.42
-5 -8 8 0.82 0.34
-6 -8 8 16.47 0.84
6 8 -8 17.3 0.76
6 8 -8 18.02 0.76
-6 8 8 20.54 1.09
6 8 8 17.68 0.91
-6 -8 -8 16.66 0.82
6 -8 -8 17.23 0.96
-7 8 8 4.67 0.96
7 8 -8 4.7 0.4
7 8 8 4.17 0.64
0 -9 -8 2.73 0.36
0 9 8 2.19 0.36
0 -9 8 1.98 0.2
1 -9 -8 3.56 0.41
-1 -9 8 3.47 0.24
-1 -9 -8 3.78 0.38
-1 9 8 3.67 0.4
1 9 8 3.19 0.39
1 -9 8 3.07 0.21
-2 -9 -8 40.58 1.69
2 -9 -8 37.76 1.7
2 9 8 40.4 1.69
-2 -9 8 42.55 1.64
-2 9 8 42.36 1.7
2 -9 8 40.2 1.62
-3 -9 -8 22.63 1
-3 -9 8 23.23 0.95
3 -9 -8 21.11 1.03
3 9 8 22.22 1.02
-3 9 8 22.73 1.03
3 -9 8 22.6 0.91
4 -9 8 29.92 1.18
-4 9 8 30.36 1.31
-4 -9 -8 29.18 1.26
4 9 8 28.83 1.28
4 -9 -8 27.89 1.3
-4 -9 8 28.04 1.22
5 9 8 7.39 0.62
5 -9 -8 7.07 0.68
5 -9 8 8.29 0.38
-5 -9 -8 6.84 0.54
-5 9 8 8.22 0.76
-5 -9 8 8.18 0.5
6 -9 8 3.67 0.29
-6 9 8 4.7 0.92
-6 -9 8 3.88 0.48
6 9 -8 3.45 0.27
6 9 -8 3.27 0.29
6 9 8 4.17 0.63
0 10 8 52.43 2.08
0 -10 8 47.56 2.01
0 -10 -8 51.21 2.09
-1 -10 -8 2.82 0.44
1 -10 -8 2.86 0.47
-1 -10 8 2.75 0.24
1 10 8 3.32 0.45
-1 10 8 2.67 0.44
2 10 8 4.96 0.48
-2 10 8 4.92 0.52
-2 -10 8 4.29 0.31
2 -10 -8 4.09 0.53
-2 -10 -8 3.75 0.47
-3 10 8 4.69 0.56
3 -10 -8 4.8 0.56
-3 -10 8 2.96 0.35
-3 -10 -8 5.08 0.49
3 10 8 3.73 0.52
4 -10 8 24.06 0.95
-4 -10 -8 22.37 1.08
-4 10 8 24.03 1.17
4 10 8 23.45 1.11
4 -10 -8 23.5 1.14
-4 -10 8 21.67 1.01
5 -10 8 -0.07 0.22
5 10 8 0.52 0.6
-5 10 8 0.88 0.8
0 11 8 39.17 1.78
0 -11 -8 45.04 1.82
-1 11 8 2.07 0.51
1 -11 -8 1.95 0.55
-1 -11 -8 1.92 0.53
-1 -11 8 1.38 0.25
1 11 8 2.07 0.51
-2 11 8 8.46 0.65
-2 -11 8 8.39 0.45
-2 -11 -8 8.3 0.64
2 11 8 7.84 0.65
-3 11 8 2.49 0.63
-3 -11 8 2.62 0.36
3 11 8 0.93 0.56
-4 11 8 10.32 0.88
0 12 8 36.97 1.63
-1 12 8 45.15 1.93
1 12 8 44.88 1.93
2 12 8 19.21 1.04
0 0 -9 -0.12 0.14
0 0 9 0.07 0.16
1 0 -9 57.5 2.28
1 0 9 58.44 2.28
-1 0 -9 54.35 2.27
-1 0 9 57.79 2.28
2 0 -9 138.15 5.53
-2 0 -9 138.36 5.52
2 0 9 140.98 5.53
-2 0 9 140.35 5.53
-3 0 -9 15.85 0.66
3 0 -9 15.46 0.67
-3 0 9 16.4 0.69
3 0 9 15.85 0.67
-4 0 9 6.2 0.38
-4 0 -9 6.89 0.31
4 0 -9 6.77 0.35
4 0 9 6.89 0.34
5 0 -9 27.69 1.16
5 0 9 28.84 1.16
-5 0 9 28.67 1.19
-5 0 -9 27.21 1.14
6 0 9 0.32 0.23
6 0 -9 0.59 0.25
-6 0 -9 0.59 0.16
-6 0 9 0.63 0.35
-7 0 -9 16 0.69
-7 0 9 16.82 0.83
7 0 9 15.79 0.72
7 0 -9 16.74 0.75
-8 0 9 50.15 2.03
8 0 -9 46.61 1.95
8 0 9 46.04 1.94
-8 0 -9 47.08 1.91
9 0 9 17 0.74
-9 0 9 12.63 1
0 -1 -9 51.1 2.03
0 1 -9 49.28 2.02
0 1 9 51.31 2.04
0 -1 9 51.13 2.03
1 -1 -9 3.47 0.22
1 1 -9 3.73 0.21
-1 -1 -9 3.15 0.21
1 -1 9 3.5 0.22
-1 -1 9 3.78 0.23
1 1 9 3.79 0.23
-1 1 9 3.49 0.24
-1 1 -9 3.19 0.2
2 1 -9 19.61 0.81
-2 -1 -9 19.5 0.81
-2 -1 9 19.96 0.82
-2 1 -9 19.69 0.81
-2 1 9 20.3 0.83
2 -1 9 19.42 0.82
2 1 9 19.86 0.82
2 -1 -9 19.82 0.82
-3 1 9 7.08 0.39
-3 -1 9 7.58 0.38
3 -1 9 7.52 0.35
3 1 9 7.05 0.36
3 1 -9 7.43 0.36
-3 1 -9 7.74 0.33
-3 -1 -9 7.87 0.34
3 -1 -9 6.84 0.36
4 1 9 16.41 0.69
-4 -1 9 15.81 0.71
-4 1 9 16.62 0.72
-4 -1 -9 17.03 0.68
4 -1 -9 14.92 0.7
4 -1 9 15.78 0.69
-4 1 -9 16.75 0.67
4 1 -9 15.65 0.69
5 -1 9 11.99 0.54
5 -1 -9 11.74 0.56
-5 1 -9 12.84 0.52
-5 -1 9 11.71 0.58
-5 -1 -9 12.84 0.53
5 1 -9 12.65 0.55
5 1 9 11.92 0.56
-5 1 9 12.21 0.6
-6 -1 9 33.37 1.38
6 -1 -9 32.3 1.36
6 1 -9 32.83 1.35
-6 1 -9 33.14 1.32
6 -1 9 34.08 1.34
-6 -1 -9 32.05 1.33
-6 1 9 31.38 1.39
6 1 9 33.19 1.35
7 -1 9 4.59 0.32
-7 1 9 3.77 0.5
7 1 -9 4.72 0.35
-7 1 -9 4.29 0.25
-7 -1 -9 4.41 0.27
-7 -1 9 4.21 0.49
7 1 9 4.6 0.35
8 -1 -9 0.55 0.39
8 -1 9 0.15 0.28
-8 1 -9 0.34 0.19
8 1 -9 0.13 0.35
-8 -1 9 -0.3 0.55
-8 -1 -9 0.19 0.21
8 1 9 0.23 0.31
-8 1 9 0.5 0.62
9 -1 9 0.8 0.36
9 1 -9 0.01 0.42
-9 -1 9 -0.44 0.72
-9 1 9 0.42 0.84
9 1 9 0.38 0.4
0 2 9 48.17 1.9
0 2 -9 45.3 1.88
0 -2 9 46.01 1.89
0 -2 -9 48.81 1.89
-1 2 -9 24.67 1
-1 -2 -9 24.54 1.02
1 2 9 26.08 1.03
-1 -2 9 24.58 1.02
1 -2 9 24.41 1.01
1 -2 -9 25.02 1.02
-2 -2 9 41.49 1.61
2 2 9 40.09 1.61
-2 -2 -9 38.57 1.6
2 -2 -9 38.73 1.61
2 -2 9 39.41 1.6
2 2 -9 40.56 1.6
-2 2 9 40.17 1.62
-2 2 -9 40.08 1.59
-3 -2 9 22.55 0.96
-3 -2 -9 23.45 0.95
-3 2 9 23.04 0.98
3 -2 9 23.27 0.95
3 2 -9 23.06 0.95
3 -2 -9 24.02 0.97
-3 2 -9 23.87 0.94
3 2 9 22.19 0.96
-4 2 9 9.29 0.48
4 2 9 9.24 0.46
-4 -2 9 9.53 0.47
4 2 -9 10.03 0.44
4 -2 -9 8.74 0.46
-4 2 -9 9.3 0.41
4 -2 9 9.8 0.44
-4 -2 -9 10.51 0.44
5 -2 9 11.11 0.52
5 2 9 11.5 0.54
-5 2 -9 11.89 0.48
-5 2 9 11.64 0.58
-5 -2 9 11.14 0.56
-5 -2 -9 11.14 0.51
5 -2 -9 12.19 0.56
5 2 -9 11.49 0.52
-6 2 -9 13.01 0.54
6 2 9 13.2 0.61
-6 -2 9 12.1 0.64
6 -2 -9 13.17 0.62
6 -2 9 13.68 0.58
6 2 -9 13.01 0.59
-6 2 9 12.01 0.67
-6 -2 -9 12.63 0.56
7 2 -9 4.87 0.35
-7 -2 9 3.76 0.48
-7 2 9 4.57 0.55
7 -2 9 4.77 0.32
-7 -2 -9 4.3 0.29
7 -2 -9 4.35 0.41
-7 2 -9 4.64 0.24
7 2 9 4.06 0.37
-8 2 -9 19.09 0.85
-8 -2 9 20.56 1.02
8 2 9 20.76 0.93
8 -2 -9 20.08 0.96
-8 -2 -9 20.71 0.87
8 -2 9 21.02 0.89
8 2 -9 22.02 0.93
8 2 -9 20.54 0.92
0 3 9 65.39 2.65
0 -3 -9 66.5 2.65
0 3 -9 65.73 2.63
0 -3 9 67.54 2.64
1 -3 9 2.44 0.19
-1 -3 -9 2.88 0.21
1 3 -9 2.73 0.17
1 3 9 2.98 0.23
-1 -3 9 2.67 0.2
-1 3 9 2.9 0.24
1 -3 -9 2.5 0.22
-1 3 -9 2.76 0.16
2 -3 9 15.09 0.62
-2 -3 -9 15.36 0.63
-2 3 9 14.39 0.65
-2 3 -9 14.98 0.6
2 3 -9 14.93 0.62
-2 -3 9 14.29 0.63
2 -3 -9 14.35 0.64
2 3 9 14.75 0.64
-3 3 9 48.91 2.03
3 3 9 49.23 2.02
-3 -3 -9 50.56 2.01
-3 -3 9 51.43 2.02
-3 3 -9 51.68 1.99
3 -3 9 49.17 2.01
-4 3 -9 44.75 1.84
4 -3 9 47.34 1.86
-4 -3 -9 47.44 1.86
4 -3 -9 44.54 1.88
-4 -3 9 46.84 1.87
4 3 9 46.07 1.88
4 3 -9 47.64 1.86
-4 3 9 45.45 1.89
5 3 -9 2.67 0.24
-5 -3 9 2.79 0.31
-5 3 9 -0.06 0.34
5 -3 9 2.59 0.22
5 3 9 2.31 0.27
-5 3 -9 2.7 0.15
5 -3 -9 2.28 0.3
-5 -3 -9 2.37 0.21
6 -3 -9 6.7 0.43
-6 3 9 5.77 0.51
-6 3 -9 6.65 0.29
6 3 -9 6.62 0.37
-6 -3 9 6.45 0.44
6 -3 9 6.97 0.35
-6 -3 -9 6.17 0.35
6 3 9 5.98 0.4
7 3 -9 6.99 0.43
7 -3 -9 7.28 0.51
-7 3 -9 8.06 0.35
-7 -3 -9 7.68 0.41
7 -3 9 7.91 0.41
7 3 9 8.12 0.47
-7 -3 9 8.36 0.56
7 3 -9 7.59 0.43
-7 3 9 7.36 0.66
-8 -3 -9 8.72 0.45
-8 -3 9 8.69 0.66
8 3 -9 7.79 0.5
8 -3 9 9.15 0.47
8 3 9 8.84 0.55
8 3 -9 8.03 0.51
-8 3 9 8.48 0.84
0 4 9 3.67 0.28
0 4 -9 4.08 0.2
0 -4 9 4.3 0.23
0 -4 -9 4.2 0.27
1 4 9 9.72 0.48
-1 -4 -9 10.33 0.47
-1 -4 9 10.12 0.45
1 -4 9 10.21 0.44
-1 4 -9 9.7 0.42
1 4 -9 10.55 0.43
1 -4 -9 10.44 0.48
-2 -4 -9 21.96 0.89
2 -4 -9 20.4 0.9
2 -4 9 21.3 0.87
-2 4 9 21.78 0.91
2 4 9 21.81 0.9
-2 4 -9 20.26 0.85
2 4 -9 21.6 0.87
-2 -4 9 21.4 0.88
-3 4 -9 13.66 0.59
-3 -4 9 15.29 0.63
3 4 9 14.85 0.65
-3 4 9 13.58 0.66
3 -4 9 14.77 0.61
-3 -4 -9 14.03 0.63
3 4 -9 15.56 0.61
3 -4 -9 14.15 0.65
4 4 -9 29.86 1.21
-4 -4 9 28.92 1.23
4 -4 -9 29.59 1.24
4 4 9 29.75 1.24
-4 4 -9 29.44 1.19
4 -4 9 31.6 1.21
-4 -4 -9 30.38 1.22
-4 4 9 28.45 1.26
-5 -4 9 18.95 0.83
-5 -4 -9 19.92 0.81
-5 4 -9 17.69 0.76
5 4 9 17.89 0.83
5 4 -9 19.69 0.79
5 4 -9 19.67 0.8
5 -4 9 19.68 0.79
5 -4 -9 17.52 0.84
-5 4 9 18.77 0.88
-6 4 9 0.91 0.48
-6 -4 -9 0.9 0.24
6 -4 -9 0.54 0.36
6 4 -9 1.01 0.24
-6 -4 9 0.96 0.34
6 -4 9 0.86 0.21
6 4 9 0.72 0.31
6 4 -9 0.92 0.24
7 4 -9 1.14 0.31
7 -4 -9 1.42 0.42
7 4 -9 0.71 0.28
7 -4 9 1.21 0.24
-7 4 9 0.78 0.6
-7 -4 9 1.56 0.46
7 4 9 1.49 0.37
-7 -4 -9 1.47 0.28
-8 4 9 1.68 0.83
8 -4 9 1.24 0.3
8 4 -9 1.01 0.34
-8 -4 9 0.9 0.56
8 4 -9 1.65 0.43
-8 -4 -9 0.67 0.31
8 4 9 1 0.45
0 -5 -9 0.98 0.22
0 5 -9 0.79 0.09
0 5 9 1.04 0.24
0 -5 9 1.07 0.16
1 5 -9 5.18 0.23
-1 -5 9 5.15 0.28
1 5 9 5.2 0.33
1 -5 -9 4.8 0.32
-1 5 9 5.14 0.34
1 -5 9 5.35 0.27
-1 -5 -9 4.83 0.31
2 -5 9 4.43 0.25
2 5 9 4.43 0.32
2 5 -9 4.62 0.22
-2 -5 -9 4.49 0.29
2 -5 -9 4.25 0.32
-2 5 9 4.77 0.33
-2 -5 9 4.32 0.27
3 5 -9 4.64 0.24
-3 5 9 5.22 0.37
-3 -5 -9 4.64 0.31
-3 -5 9 4.79 0.29
3 -5 -9 4.62 0.35
3 -5 9 5.16 0.27
3 5 -9 4.95 0.25
-4 -5 -9 3.87 0.3
4 -5 -9 4.98 0.37
-4 -5 9 4.79 0.31
4 5 -9 4.49 0.27
4 5 9 4.4 0.34
-4 5 9 4.82 0.41
4 5 -9 4.35 0.25
4 -5 9 4.56 0.27
-5 -5 9 2.05 0.32
5 5 9 2.27 0.34
-5 5 9 2.01 0.44
5 5 -9 2.86 0.25
-5 -5 -9 2.62 0.28
5 -5 9 2.65 0.23
5 -5 -9 2.77 0.37
5 5 -9 2.83 0.23
6 5 -9 5.37 0.34
-6 -5 9 5.81 0.45
6 -5 9 5.63 0.33
-6 5 9 5.41 0.59
6 5 -9 6.1 0.37
6 5 9 5.78 0.45
-6 -5 -9 5.75 0.37
6 -5 -9 5.87 0.49
7 5 -9 2.15 0.35
7 5 -9 2.26 0.31
-7 -5 9 1.84 0.46
-7 -5 -9 1.83 0.32
7 5 9 2.19 0.43
7 -5 -9 2.06 0.48
7 -5 9 1.96 0.27
-7 5 9 2.68 0.73
-8 -5 9 5.79 0.63
8 5 9 5.59 0.58
-8 5 9 6.38 0.99
0 6 9 6.3 0.38
0 -6 9 6.29 0.31
0 -6 -9 5.82 0.37
1 6 9 42.23 1.78
1 -6 -9 43.95 1.79
-1 -6 -9 42.03 1.78
-1 -6 9 47.04 1.76
1 -6 9 43.38 1.75
-1 6 9 43.76 1.79
2 -6 9 5.16 0.27
2 6 -9 5.57 0.24
-2 -6 -9 5.34 0.34
-2 6 9 5.36 0.39
2 6 9 5.33 0.36
-2 -6 9 5.7 0.31
2 -6 -9 4.58 0.37
3 -6 -9 11.51 0.58
3 6 -9 11.64 0.48
-3 -6 9 11.27 0.52
3 6 9 11.06 0.57
3 -6 9 11.81 0.5
-3 -6 -9 11.86 0.54
3 6 -9 11.07 0.48
-3 6 9 10.62 0.58
-4 -6 9 11.91 0.55
4 6 9 10.89 0.58
4 6 -9 11.86 0.5
4 -6 -9 10.45 0.6
-4 6 9 11.43 0.64
4 -6 9 11.66 0.5
-4 -6 -9 11.95 0.56
4 6 -9 11.12 0.49
-5 -6 9 54.04 2.23
5 6 9 55.6 2.25
5 -6 9 58.23 2.2
-5 6 9 54.89 2.28
5 -6 -9 53.85 2.26
-5 -6 -9 54.78 2.23
5 6 -9 55.41 2.2
5 6 -9 53.68 2.2
-6 6 9 13.24 0.86
6 6 -9 15.05 0.62
6 -6 -9 13.56 0.76
-6 -6 -9 12.61 0.65
6 -6 9 15.09 0.61
-6 -6 9 13.49 0.7
6 6 -9 13.77 0.63
6 6 9 13.25 0.72
7 6 -9 1.9 0.36
-7 -6 9 1.04 0.48
7 6 9 1.5 0.49
-7 6 9 1.32 0.82
7 -6 -9 2.19 0.56
-7 -6 -9 2.25 0.35
7 -6 9 2.48 0.28
7 6 -9 2.51 0.3
0 -7 -9 4.09 0.34
0 7 9 4.11 0.37
0 -7 9 3.87 0.25
1 -7 9 0.32 0.16
-1 -7 9 0.87 0.18
-1 7 9 0.08 0.31
1 7 9 0.07 0.3
1 -7 -9 0.24 0.3
-1 -7 -9 0.49 0.28
2 7 9 12.72 0.63
-2 -7 9 13.05 0.56
-2 7 9 11.73 0.64
-2 -7 -9 12.21 0.6
2 -7 -9 12.56 0.62
-3 -7 -9 29.05 1.25
-3 7 9 30.1 1.28
3 -7 -9 29.68 1.28
-3 -7 9 30.88 1.23
3 7 9 29.41 1.27
-4 7 9 26.24 1.2
4 -7 -9 27.6 1.19
4 7 9 28.85 1.18
-4 -7 9 27.8 1.13
4 7 -9 26.24 1.1
4 -7 9 27.5 1.11
4 7 -9 26.65 1.09
-4 -7 -9 25.9 1.15
5 -7 -9 8.51 0.6
5 -7 9 9.39 0.42
-5 7 9 8.71 0.67
-5 -7 9 7.93 0.5
5 7 9 8.2 0.56
-5 -7 -9 8.14 0.5
5 7 -9 8.48 0.41
5 7 -9 8.59 0.41
6 7 9 10.55 0.69
6 -7 -9 12.02 0.75
6 7 -9 11.21 0.55
6 -7 9 11.81 0.53
-6 7 9 11.21 0.86
6 7 -9 12.82 0.54
-6 -7 -9 11.22 0.6
-6 -7 9 11.36 0.64
-7 -7 9 15.58 0.83
7 7 -9 16.98 0.76
7 7 9 14.93 0.9
0 8 9 20.83 0.95
0 -8 9 20.98 0.87
0 -8 -9 21.41 0.94
1 8 9 15.3 0.76
1 -8 9 15.77 0.67
-1 -8 -9 16.33 0.76
-1 8 9 14.77 0.77
1 -8 -9 18.19 0.78
-2 -8 -9 1.5 0.33
2 -8 -9 1.28 0.4
-2 8 9 1.73 0.4
-2 -8 9 1.49 0.22
2 -8 9 1.32 0.18
2 8 9 1.29 0.37
-3 8 9 0.13 0.44
3 -8 9 0.59 0.19
3 -8 -9 0.14 0.41
-3 -8 9 0.48 0.26
-3 -8 -9 0.45 0.34
3 8 9 0.35 0.39
-4 8 9 34.63 1.48
4 8 9 34.48 1.44
4 -8 9 33.89 1.35
-4 -8 -9 30.74 1.41
4 -8 -9 31.96 1.45
-4 -8 9 34.23 1.39
-5 -8 -9 4.82 0.45
5 8 -9 4.53 0.27
5 -8 -9 4.16 0.59
-5 8 9 4.1 0.68
-5 -8 9 4.85 0.44
5 8 -9 5.53 0.29
5 -8 9 5.6 0.31
5 8 9 4.73 0.55
6 8 9 3.13 0.61
-6 8 9 3.53 0.9
6 8 -9 4.19 0.3
6 8 -9 3.91 0.32
-6 -8 9 3.35 0.47
0 -9 9 3.11 0.24
0 -9 -9 2.6 0.43
0 9 9 3.49 0.44
-1 9 9 7.34 0.55
-1 -9 9 7.5 0.37
1 -9 9 6.75 0.34
1 -9 -9 6.14 0.53
1 9 9 7.21 0.53
-1 -9 -9 6.63 0.5
-2 -9 -9 11.81 0.65
2 9 9 12.09 0.67
-2 9 9 11.34 0.69
2 -9 9 11.9 0.51
2 -9 -9 11.26 0.69
-3 9 9 19.51 0.99
-3 -9 9 19.57 0.85
3 -9 -9 19.6 0.97
-3 -9 -9 19.84 0.93
3 -9 9 19.43 0.82
3 9 9 20.06 0.96
-4 -9 -9 7.86 0.56
4 -9 -9 7.65 0.67
-4 9 9 8.28 0.74
4 -9 9 8.67 0.41
-4 -9 9 7.77 0.49
4 9 9 8.33 0.63
5 9 9 23.16 1.17
-5 9 9 25.37 1.3
-5 -9 9 22.32 1.06
5 -9 9 24.97 1
0 -10 -9 11.98 0.7
0 -10 9 10.8 0.5
0 10 9 10.23 0.69
1 -10 -9 26.96 1.33
-1 10 9 30.68 1.33
-1 -10 9 28.43 1.21
-1 -10 -9 30.64 1.32
1 -10 9 28.85 1.2
1 10 9 31.73 1.33
-2 -10 9 32.93 1.33
-2 -10 -9 32.59 1.41
2 -10 9 32.32 1.3
-2 10 9 32.87 1.45
2 -10 -9 30.81 1.46
2 10 9 32.18 1.43
-3 -10 9 5.76 0.4
3 -10 9 5.03 0.3
-3 10 9 4.78 0.68
3 10 9 4.91 0.59
-4 10 9 0.77 0.76
4 10 9 1.98 0.65
0 11 9 4.19 0.66
0 -11 9 4.27 0.3
1 -11 9 2.45 0.25
-1 11 9 2.97 0.61
1 11 9 1.9 0.62
-1 -11 9 3.03 0.3
-2 11 9 16.16 0.99
2 11 9 17.85 0.98
0 0 10 168.36 6.69
0 0 -10 169.21 6.68
1 0 10 17.49 0.74
-1 0 10 16.36 0.74
1 0 -10 17.78 0.73
-1 0 -10 17.83 0.72
-2 0 -10 62.36 2.41
2 0 10 60.54 2.42
-2 0 10 59.72 2.42
2 0 -10 59.14 2.42
3 0 10 6.18 0.34
-3 0 -10 6.85 0.32
-3 0 10 6.74 0.38
3 0 -10 6.66 0.35
-4 0 -10 14.74 0.58
4 0 10 12.52 0.61
-4 0 10 13.38 0.64
4 0 -10 14.22 0.62
5 0 10 0.87 0.24
5 0 -10 1.03 0.26
-5 0 -10 1.18 0.18
-5 0 10 0.87 0.32
-6 0 10 18.71 0.91
-6 0 -10 20.2 0.81
6 0 10 18.81 0.85
6 0 -10 20.4 0.86
-7 0 10 10.27 0.68
-7 0 -10 9.55 0.46
7 0 -10 10.16 0.55
7 0 10 9.8 0.53
8 0 10 0.3 0.35
-8 0 10 1.39 0.68
-8 0 -10 0.06 0.22
0 -1 10 11.77 0.52
0 1 10 11.63 0.53
0 -1 -10 10.88 0.51
0 1 -10 12.02 0.5
1 1 -10 16.5 0.69
-1 1 -10 17.29 0.69
1 -1 10 16.46 0.7
1 1 10 16.34 0.71
-1 -1 10 16.46 0.7
-1 1 10 15.9 0.71
1 -1 -10 15.84 0.7
-1 -1 -10 16.95 0.69
-2 -1 -10 37.72 1.49
2 -1 10 36.71 1.49
2 -1 -10 36.83 1.49
-2 -1 10 36.3 1.5
2 1 -10 37.1 1.49
-2 1 10 36.28 1.5
2 1 10 37.48 1.5
-2 1 -10 36.1 1.48
3 -1 10 0.4 0.19
-3 1 10 0.52 0.25
-3 -1 10 0.51 0.23
3 1 10 0.56 0.21
-3 1 -10 0.12 0.14
-3 -1 -10 0.29 0.16
3 -1 -10 0.66 0.22
3 1 -10 0.35 0.19
-4 1 -10 6.38 0.31
-4 -1 10 6.18 0.38
-4 1 10 6.2 0.4
4 1 10 6.7 0.36
-4 -1 -10 6.69 0.33
4 -1 10 6.44 0.35
4 1 -10 6.39 0.35
4 -1 -10 6.71 0.37
5 -1 10 2.12 0.25
-5 -1 -10 1.82 0.2
-5 -1 10 1.71 0.32
5 -1 -10 1.85 0.28
5 1 10 1.89 0.27
5 1 -10 2.14 0.26
-5 1 -10 2.25 0.19
-5 1 10 1.08 0.34
6 -1 -10 9.59 0.51
-6 1 -10 9.67 0.42
-6 -1 10 8.98 0.56
-6 -1 -10 9.83 0.44
6 1 10 9.23 0.49
-6 1 10 8.14 0.58
6 1 -10 9.94 0.49
6 -1 10 9.11 0.47
7 -1 10 2.43 0.32
7 1 10 2.25 0.35
-7 -1 -10 2.77 0.25
7 1 -10 1.91 0.35
-7 1 10 2.94 0.54
7 -1 -10 3.24 0.39
-7 -1 10 2.26 0.5
-7 1 -10 2.75 0.22
-8 1 10 38.21 1.79
8 -1 10 38.11 1.64
-8 -1 -10 41.33 1.61
8 1 10 41.4 1.66
-8 -1 10 39.85 1.76
0 -2 10 0.14 0.18
0 2 10 0.09 0.2
0 -2 -10 -0.09 0.18
0 2 -10 -0.14 0.14
1 -2 -10 30.56 1.27
-1 -2 -10 30.24 1.26
-1 2 10 31.25 1.28
1 -2 10 31.18 1.26
1 2 10 30.68 1.28
1 2 -10 31.39 1.25
-1 -2 10 31.4 1.27
-1 2 -10 31.94 1.25
-2 -2 10 17.85 0.73
2 2 -10 17.1 0.72
-2 2 -10 16.66 0.71
2 -2 10 17.4 0.72
-2 2 10 17.27 0.75
2 2 10 16.7 0.74
-2 -2 -10 17.1 0.72
-3 -2 10 6.07 0.37
3 2 -10 7.46 0.34
3 -2 10 6.73 0.34
-3 2 -10 6.62 0.31
3 -2 -10 6.36 0.37
-3 -2 -10 6.71 0.34
3 2 10 6.11 0.36
-3 2 10 6.98 0.4
4 2 10 9.84 0.49
-4 2 10 9.42 0.51
4 -2 -10 10.21 0.49
-4 -2 -10 9.49 0.45
4 -2 10 10.19 0.46
4 2 -10 9.82 0.46
-4 2 -10 10.16 0.43
-4 -2 10 9.69 0.49
-5 2 10 0.84 0.35
-5 2 -10 1.02 0.15
-5 -2 10 0.85 0.31
5 -2 -10 1.45 0.29
-5 -2 -10 1.44 0.2
5 2 -10 0.89 0.24
5 2 10 0.63 0.27
5 -2 10 1.15 0.23
-6 -2 10 12.91 0.68
-6 2 -10 13.15 0.55
6 2 10 13.41 0.63
-6 2 10 12.43 0.72
6 -2 10 14.04 0.61
6 2 -10 13.62 0.61
6 -2 -10 12.77 0.64
-6 -2 -10 12.41 0.58
7 2 10 26.87 1.12
-7 -2 -10 26.26 1.08
-7 -2 10 24.48 1.18
7 -2 10 26.79 1.09
-7 2 -10 26.68 1.06
7 -2 -10 24.33 1.14
-7 2 10 24.9 1.23
7 2 -10 26.6 1.11
-8 2 10 4.79 0.79
8 -2 10 4.77 0.4
8 2 10 4.46 0.46
-8 -2 10 4.82 0.66
8 2 -10 4.26 0.46
0 -3 -10 10.53 0.48
0 3 10 10.75 0.5
0 -3 10 10.14 0.47
0 3 -10 10.59 0.45
-1 -3 -10 2.34 0.23
-1 3 10 2.37 0.26
1 -3 -10 2.38 0.24
-1 -3 10 2.06 0.21
-1 3 -10 2.52 0.16
1 3 -10 2.68 0.18
1 3 10 2.09 0.26
1 -3 10 2.48 0.2
2 -3 -10 42.17 1.69
-2 -3 10 41.73 1.68
2 3 -10 42.17 1.67
2 -3 10 43.39 1.68
-2 -3 -10 42.56 1.68
-2 3 -10 41.79 1.66
-2 3 10 38.97 1.7
2 3 10 40.04 1.69
3 -3 10 5 0.29
-3 3 -10 4.7 0.23
3 -3 -10 4.99 0.33
-3 3 10 4.67 0.36
3 3 10 4.69 0.33
-3 -3 10 4.51 0.31
-3 -3 -10 4.93 0.29
3 3 -10 4.92 0.27
4 3 -10 14.91 0.62
-4 3 -10 13.94 0.58
-4 3 10 13.34 0.68
4 -3 -10 13.78 0.66
-4 -3 -10 14.08 0.62
4 -3 10 14.95 0.62
-4 -3 10 14.26 0.65
4 3 10 14.21 0.65
5 3 10 3.17 0.33
-5 3 -10 3.5 0.2
5 -3 10 3.07 0.27
5 -3 -10 4.14 0.35
-5 -3 -10 3.51 0.27
5 3 -10 3.53 0.28
-5 -3 10 4.03 0.36
-5 3 10 3.33 0.42
6 -3 10 7.48 0.38
-6 -3 10 7.21 0.48
6 -3 -10 7.53 0.47
-6 -3 -10 7.4 0.38
-6 3 10 2 0.54
6 3 -10 6.58 0.39
-6 3 -10 7.28 0.31
6 3 10 6.87 0.44
-7 -3 -10 4.52 0.34
7 3 10 5.01 0.44
-7 3 -10 4.51 0.25
-7 3 10 3.53 0.68
-7 -3 10 5.29 0.53
7 -3 10 5.06 0.36
7 3 -10 4.5 0.4
7 -3 -10 5.08 0.48
7 3 -10 4.48 0.38
8 3 10 12.98 0.75
-8 -3 10 14.39 0.86
-8 3 10 14.07 1.07
8 -3 10 12.49 0.65
0 4 -10 38.12 1.51
0 -4 -10 37.44 1.54
0 4 10 37.43 1.55
0 -4 10 38.04 1.52
-1 4 10 5.17 0.36
-1 4 -10 5.33 0.25
1 4 -10 6.12 0.27
1 -4 -10 5.32 0.34
1 4 10 5.24 0.35
1 -4 10 5.45 0.29
-1 -4 -10 5.27 0.33
-1 -4 10 5.84 0.31
2 -4 -10 33.75 1.38
-2 4 -10 32.13 1.33
2 -4 10 33.51 1.35
-2 -4 10 35.82 1.36
-2 -4 -10 31.82 1.36
2 4 -10 33.62 1.34
2 4 10 32.66 1.38
-3 4 -10 6.37 0.28
-3 -4 10 6.76 0.37
3 4 -10 6.21 0.32
3 -4 -10 6.1 0.4
-3 4 10 5.99 0.42
3 -4 10 6.56 0.33
3 4 10 5.89 0.39
-3 -4 -10 7.15 0.36
4 4 10 24.66 1.03
4 -4 10 24.7 0.99
4 -4 -10 23.6 1.03
-4 4 -10 23.39 0.96
-4 -4 10 24.2 1.01
4 4 -10 23.36 0.99
-4 -4 -10 23.45 1
5 -4 -10 5.28 0.41
-5 -4 -10 5.52 0.33
-5 -4 10 5.15 0.4
5 4 -10 5 0.32
5 4 10 4.36 0.4
-5 4 -10 4.88 0.24
5 -4 10 5.24 0.32
-5 4 10 4.84 0.49
-6 4 10 25.16 1.18
6 4 -10 24.95 1.06
-6 4 -10 24.44 1
6 4 -10 26.89 1.05
6 4 10 24.17 1.1
6 -4 -10 25.54 1.11
-6 -4 -10 24.3 1.05
-6 -4 10 24.47 1.1
6 -4 10 24.82 1.04
7 4 -10 25.29 1.03
7 -4 10 23.99 1.01
7 4 -10 23.98 1.04
7 4 10 22.52 1.08
-7 4 10 24.12 1.24
7 -4 -10 23.27 1.11
-7 -4 10 22.75 1.11
-7 -4 -10 25.09 1.03
0 -5 -10 14.3 0.65
0 -5 10 14.71 0.62
0 5 -10 13.38 0.58
0 5 10 14.76 0.67
-1 -5 10 2.87 0.23
1 -5 10 2.56 0.22
1 -5 -10 2.34 0.29
-1 5 10 2.71 0.32
1 5 -10 2.53 0.17
-1 -5 -10 2.62 0.27
1 5 10 2.71 0.3
2 -5 10 25.94 1.06
-2 5 10 26.65 1.11
2 5 -10 25.98 1.05
2 -5 -10 23.97 1.1
-2 -5 10 28.23 1.07
-2 -5 -10 24.58 1.08
-3 -5 -10 8.05 0.43
3 -5 10 8.48 0.39
-3 -5 10 8.09 0.42
3 5 10 7.61 0.46
3 -5 -10 7.53 0.47
3 5 -10 8.04 0.37
-3 5 10 7.72 0.49
4 5 10 16.32 0.76
4 5 -10 16.13 0.69
4 5 -10 15.85 0.69
4 -5 10 17.29 0.7
-4 -5 -10 15.31 0.73
-4 5 10 15.71 0.81
4 -5 -10 16.64 0.77
-4 -5 10 17.65 0.74
5 5 -10 28.38 1.24
5 -5 10 31.82 1.25
-5 5 10 30.12 1.35
5 -5 -10 28.52 1.31
5 5 -10 30.36 1.24
5 5 10 31.37 1.3
-5 -5 -10 30.82 1.26
-5 -5 10 31.12 1.28
-6 -5 -10 20.58 0.94
6 5 -10 22.93 0.93
-6 -5 10 21.23 0.98
-6 5 10 21.32 1.11
6 5 10 21.11 1
6 -5 10 23.7 0.92
6 -5 -10 20.73 1.01
7 5 -10 10.59 0.59
-7 5 10 9.63 0.94
7 -5 10 10.66 0.52
7 5 10 9.67 0.66
-7 -5 10 9.94 0.68
0 -6 10 49.44 1.98
0 -6 -10 51.2 2.01
0 6 10 47.54 2.02
-1 -6 -10 2.98 0.31
1 -6 10 3.34 0.23
1 6 10 2.95 0.34
-1 -6 10 2.86 0.25
1 -6 -10 3.28 0.33
-1 6 10 3.47 0.36
2 6 10 47.06 1.93
-2 6 10 45.4 1.93
2 -6 -10 47.5 1.92
2 -6 10 45.86 1.88
2 6 -10 44.71 1.86
-2 -6 -10 45.76 1.91
2 6 -10 49.62 1.87
-2 -6 10 49.16 1.89
3 -6 -10 17.02 0.8
-3 -6 10 17.16 0.74
-3 6 10 16.38 0.82
3 6 -10 17.14 0.71
3 6 10 16.46 0.8
-3 -6 -10 17.38 0.77
3 6 -10 17.16 0.7
3 -6 10 17.64 0.72
4 -6 10 39.12 1.47
4 6 -10 36.8 1.46
-4 6 10 37.63 1.55
-4 -6 10 36.95 1.49
4 -6 -10 32.6 1.52
4 6 -10 34.9 1.45
4 6 10 36.43 1.52
-4 -6 -10 34.22 1.49
5 -6 -10 6.46 0.54
-5 6 10 6.38 0.64
5 6 -10 7.36 0.37
5 6 -10 6.73 0.38
-5 -6 10 6.03 0.45
5 -6 10 7.36 0.38
5 6 10 6.1 0.52
-5 -6 -10 6.91 0.44
6 6 -10 21.14 0.87
6 6 10 18.69 0.98
6 -6 -10 19.12 1
6 -6 10 22.62 0.88
6 6 -10 20.96 0.89
-6 -6 10 21.18 0.96
-6 -6 -10 19.23 0.91
-6 6 10 19.72 1.13
7 6 10 8.31 0.69
0 -7 10 0.46 0.2
0 -7 -10 0.62 0.32
0 7 10 0.94 0.37
-1 -7 -10 1.21 0.32
1 -7 10 1.55 0.2
1 -7 -10 0.95 0.35
-1 -7 10 1.47 0.23
1 7 10 0.92 0.36
-1 7 10 1.24 0.38
2 7 10 1.83 0.38
2 -7 -10 0.62 0.37
2 -7 10 1.34 0.2
-2 -7 -10 1.51 0.32
-2 -7 10 1.5 0.25
-2 7 10 1.91 0.41
3 -7 -10 8.81 0.59
-3 7 10 9.82 0.62
3 7 10 9.64 0.59
3 -7 10 10.22 0.46
-3 -7 10 10.34 0.49
-3 -7 -10 10 0.54
-4 -7 -10 2.08 0.36
4 -7 10 2.14 0.25
-4 -7 10 2.01 0.33
4 -7 -10 2.51 0.47
4 7 -10 1.76 0.19
4 7 -10 2.15 0.21
4 7 10 1.69 0.44
-4 7 10 2.85 0.55
5 7 -10 6.36 0.36
5 7 10 6.21 0.57
5 7 -10 6.47 0.34
5 -7 10 6.29 0.37
5 -7 -10 5.84 0.6
-5 -7 10 5.56 0.47
-5 -7 -10 5.91 0.47
-5 7 10 7.25 0.73
6 7 10 6.68 0.66
6 7 -10 7.79 0.44
-6 -7 10 7.2 0.57
-6 7 10 6.12 0.89
0 8 10 0.71 0.44
0 -8 10 0.98 0.23
0 -8 -10 1.04 0.39
1 -8 -10 23.95 1.05
1 8 10 23 1.06
-1 -8 -10 22.82 1.04
-1 -8 10 22.57 0.97
1 -8 10 24.61 0.96
-1 8 10 22.65 1.07
-2 -8 -10 14.38 0.71
-2 8 10 13.89 0.77
2 -8 -10 14.28 0.75
2 -8 10 13.28 0.6
2 8 10 13.68 0.73
-2 -8 10 13.84 0.62
-3 -8 10 5.6 0.39
3 -8 -10 5.78 0.56
3 8 10 5.95 0.57
-3 8 10 6.39 0.6
3 -8 10 5.91 0.34
-3 -8 -10 6.39 0.48
4 8 10 9.54 0.68
-4 -8 -10 8.92 0.58
4 -8 10 9.97 0.46
-4 8 10 10.05 0.75
4 -8 -10 8.52 0.69
-4 -8 10 8.96 0.53
5 8 -10 4.36 0.27
5 8 10 3.87 0.63
-5 8 10 4.35 0.8
-5 -8 10 4.84 0.46
0 9 10 1.74 0.51
0 -9 -10 0.86 0.47
0 -9 10 0.72 0.24
1 -9 -10 16.07 0.84
-1 -9 10 16.08 0.72
1 9 10 16.37 0.87
-1 -9 -10 16.49 0.83
1 -9 10 16.11 0.7
-1 9 10 16.13 0.88
-2 -9 -10 12.78 0.76
-2 -9 10 14.9 0.65
2 -9 -10 14.9 0.83
2 -9 10 15.49 0.62
2 9 10 14.26 0.81
-2 9 10 13.24 0.84
3 -9 10 1.37 0.24
-3 -9 10 1.12 0.33
3 9 10 0.64 0.55
-3 9 10 1.21 0.66
-3 -9 -10 1.25 0.48
-4 9 10 3.72 0.76
4 9 10 4.43 0.66
0 10 10 52.58 2.17
0 -10 10 49.65 2.05
-1 10 10 4.27 0.69
1 10 10 5.42 0.67
-1 -10 10 4.35 0.33
1 -10 10 4.6 0.32
2 10 10 28.86 1.35
-2 10 10 28.8 1.37
2 -10 10 27.81 1.17
0 0 -11 -0.08 0.17
0 0 11 -0.34 0.21
1 0 -11 42.2 1.71
-1 0 -11 41.99 1.7
-1 0 11 42.66 1.72
1 0 11 42.41 1.72
-2 0 -11 0.48 0.17
-2 0 11 0.15 0.24
2 0 -11 0.33 0.2
2 0 11 0.01 0.21
3 0 -11 -0.02 0.22
-3 0 -11 0.18 0.17
-3 0 11 0.34 0.27
3 0 11 0 0.23
-4 0 -11 6.3 0.32
-4 0 11 6 0.42
4 0 11 6.32 0.37
4 0 -11 6.4 0.38
-5 0 -11 0.68 0.2
5 0 -11 0.32 0.28
5 0 11 0.84 0.28
-5 0 11 0.86 0.38
-6 0 -11 13.75 0.6
6 0 11 14.21 0.66
6 0 -11 14.37 0.68
-6 0 11 12.97 0.76
7 0 11 32.29 1.32
7 0 -11 27.36 1.32
-7 0 11 32.06 1.41
-7 0 -11 32.58 1.27
0 -1 -11 7.92 0.39
0 -1 11 8.09 0.4
0 1 -11 7.59 0.37
0 1 11 7.98 0.41
-1 1 11 3.53 0.29
-1 1 -11 3.2 0.22
1 1 -11 3.15 0.23
-1 -1 -11 3.05 0.24
-1 -1 11 3.16 0.27
1 1 11 3.49 0.28
1 -1 11 3.38 0.26
1 -1 -11 3.17 0.25
-2 -1 11 12.09 0.54
-2 1 -11 11.76 0.5
2 1 11 11.16 0.53
-2 1 11 10.99 0.55
2 1 -11 11.47 0.51
2 -1 11 11.27 0.52
-2 -1 -11 10.97 0.51
2 -1 -11 11.75 0.53
3 1 -11 20.52 0.85
-3 -1 11 19.61 0.87
-3 -1 -11 20.17 0.84
3 -1 11 20.45 0.85
3 -1 -11 19.03 0.85
-3 1 -11 20.67 0.83
3 1 11 19.83 0.86
-4 -1 -11 27.53 1.1
4 1 11 25.66 1.12
4 -1 11 26.81 1.12
4 1 -11 27.13 1.12
-4 1 -11 27.11 1.09
-4 1 11 26.51 1.15
4 -1 -11 26.91 1.13
-5 -1 11 4.61 0.42
5 -1 -11 5.15 0.37
-5 1 11 4.41 0.46
5 -1 11 5.13 0.35
-5 1 -11 4.88 0.28
5 1 11 4.37 0.36
-5 -1 -11 5.15 0.29
5 1 -11 4.6 0.34
-6 -1 11 9.96 0.62
-6 1 -11 10.89 0.46
6 -1 11 9.72 0.53
-6 1 11 11.18 0.67
6 1 -11 10.79 0.55
-6 -1 -11 9.32 0.48
6 1 11 9.81 0.55
6 -1 -11 9.74 0.56
-7 -1 11 5.25 0.59
-7 -1 -11 5.03 0.33
7 1 11 5.3 0.44
7 1 -11 5.08 0.44
7 -1 -11 5.15 0.48
7 -1 11 5.39 0.43
-7 1 11 4.73 0.64
-7 1 -11 5.28 0.3
0 -2 -11 19.38 0.8
0 2 11 18.68 0.82
0 -2 11 18.45 0.8
-1 -2 11 25.77 1.04
1 2 -11 24.11 1.03
-1 -2 -11 24.19 1.04
-1 2 -11 26.79 1.02
1 -2 -11 24.49 1.04
1 -2 11 24.53 1.04
1 2 11 25.24 1.06
-1 2 11 25.41 1.06
2 -2 11 16.27 0.69
2 -2 -11 15.6 0.7
-2 2 -11 15.8 0.67
-2 2 11 16.66 0.73
-2 -2 11 16.07 0.7
2 2 11 16.47 0.72
2 2 -11 15.96 0.68
-2 -2 -11 15.59 0.69
3 2 11 1.11 0.27
-3 2 -11 0.84 0.16
-3 -2 11 0.98 0.27
3 -2 -11 1.06 0.26
-3 2 11 0.72 0.31
-3 -2 -11 1.1 0.21
3 -2 11 0.94 0.22
3 2 -11 1.16 0.21
-4 -2 -11 6.73 0.34
-4 -2 11 6.54 0.4
4 -2 -11 5.85 0.4
4 2 11 5.35 0.39
4 2 -11 6.05 0.36
4 -2 11 6.13 0.36
-4 2 -11 6.16 0.3
5 2 -11 7.49 0.42
-5 -2 11 7.96 0.49
5 -2 11 7.51 0.42
5 2 11 6.48 0.46
-5 2 -11 7.3 0.35
-5 -2 -11 7.46 0.39
5 -2 -11 7.74 0.46
-5 2 11 7.47 0.55
6 -2 -11 11.32 0.64
6 -2 11 12.8 0.6
-6 -2 11 11.57 0.68
6 2 -11 12.66 0.6
6 2 11 11.53 0.63
-6 2 11 11.82 0.75
-6 2 -11 12.92 0.53
-6 -2 -11 13.12 0.57
7 -2 11 12.92 0.64
-7 2 11 13.05 0.86
-7 -2 -11 12.33 0.59
7 2 -11 12.43 0.65
-7 -2 11 11.7 0.78
7 2 11 12.93 0.68
0 3 11 5.85 0.39
0 -3 11 6.51 0.35
0 3 -11 6.39 0.31
0 -3 -11 6.79 0.37
1 3 -11 17.19 0.74
1 -3 -11 17.88 0.78
-1 3 -11 17.89 0.74
-1 3 11 17.93 0.8
-1 -3 -11 17.9 0.77
-1 -3 11 17.64 0.77
1 3 11 17.81 0.79
1 -3 11 18.99 0.76
-2 3 -11 10.37 0.45
2 -3 -11 10.53 0.51
2 3 -11 10.64 0.47
-2 -3 -11 10.54 0.49
-2 3 11 10.8 0.54
-2 -3 11 10.31 0.5
2 3 11 10.03 0.52
2 -3 11 10.35 0.48
3 -3 -11 16.32 0.72
3 3 -11 16.25 0.68
3 -3 11 16.18 0.69
-3 3 -11 15.45 0.66
3 3 11 15.36 0.73
-3 -3 11 16.32 0.71
-3 -3 -11 15.57 0.7
-4 -3 11 8.42 0.47
4 -3 -11 8.66 0.49
-4 3 11 8.18 0.53
4 -3 11 8.54 0.43
4 3 -11 8.75 0.43
-4 3 -11 8.62 0.37
4 3 11 7.59 0.48
-4 -3 -11 8.85 0.43
-5 3 11 7.81 0.62
5 -3 11 9.78 0.47
-5 -3 -11 9.28 0.46
5 3 -11 10.05 0.47
-5 3 -11 9.83 0.41
-5 -3 11 9.34 0.54
5 -3 -11 9.3 0.54
5 3 11 8.78 0.53
-6 -3 -11 3.15 0.32
6 3 11 3.76 0.42
6 3 -11 3.95 0.35
6 -3 -11 3.23 0.46
-6 3 -11 3.85 0.23
6 -3 11 3.26 0.34
-6 3 11 4.58 0.6
-6 -3 11 3.38 0.45
-7 -3 11 7.51 0.66
-7 3 11 8.23 0.8
7 3 11 8.54 0.57
7 -3 11 7.87 0.49
0 4 11 6.04 0.4
0 -4 -11 6.64 0.38
0 -4 11 5.89 0.34
0 4 -11 6.01 0.29
1 4 -11 9.98 0.43
-1 4 11 8.88 0.52
1 -4 11 10.2 0.47
1 -4 -11 9.85 0.5
-1 -4 -11 9.56 0.48
-1 -4 11 9.99 0.47
1 4 11 10.5 0.52
-1 4 -11 9.81 0.42
2 -4 11 11.72 0.52
-2 4 11 10.6 0.59
2 4 11 11.12 0.57
-2 4 -11 10.75 0.48
-2 -4 11 12.5 0.54
-2 -4 -11 11.33 0.54
2 4 -11 11.7 0.5
2 -4 -11 11.81 0.56
3 4 11 15.38 0.72
-3 4 11 13.67 0.75
3 -4 11 16.34 0.67
3 4 -11 15.72 0.66
-3 4 -11 15.03 0.63
-3 -4 -11 15.39 0.69
3 -4 -11 15.5 0.72
-3 -4 11 15.91 0.69
4 4 11 0.3 0.33
-4 -4 -11 0.64 0.27
-4 4 11 0.34 0.4
-4 -4 11 0.54 0.31
-4 4 -11 0.25 0.12
4 -4 11 0.31 0.24
4 -4 -11 0.7 0.35
4 4 -11 0.2 0.21
-5 4 -11 5.55 0.28
-5 -4 -11 5.74 0.39
-5 4 11 6.2 0.57
-5 -4 11 6.13 0.46
5 -4 11 5.65 0.37
5 4 11 6.6 0.47
5 -4 -11 5.88 0.48
5 4 -11 5.79 0.37
-6 -4 -11 2.58 0.33
6 4 -11 3.13 0.33
6 4 -11 2.76 0.36
6 -4 -11 2.43 0.49
6 -4 11 3.41 0.33
6 4 11 2.9 0.47
-6 4 -11 2.54 0.19
-6 -4 11 3.12 0.47
-6 4 11 2.29 0.64
-7 4 11 2.31 0.82
7 4 11 0.83 0.52
0 5 -11 16.46 0.67
0 -5 -11 16.69 0.75
-1 5 11 12.54 0.64
-1 -5 -11 12.7 0.6
1 5 -11 13.28 0.53
-1 5 -11 12.59 0.52
1 5 11 11.26 0.62
1 -5 -11 12.54 0.61
-1 -5 11 12.1 0.57
1 -5 11 13.63 0.57
-2 5 11 26.86 1.15
2 5 -11 26.91 1.07
-2 -5 11 27.05 1.1
2 5 11 25.6 1.14
2 -5 -11 25.62 1.13
2 -5 11 27.38 1.09
-2 -5 -11 25.37 1.11
3 5 -11 20.14 0.8
3 -5 11 19.7 0.81
3 5 11 17.74 0.88
3 -5 -11 18.24 0.88
-3 -5 11 19.97 0.84
-3 -5 -11 19.43 0.85
4 5 11 29.17 1.28
4 -5 -11 30.06 1.28
-4 5 11 28.06 1.32
4 5 -11 29.46 1.21
-4 -5 11 30.59 1.25
4 -5 11 31.21 1.22
4 5 -11 29.81 1.21
-4 -5 -11 28.65 1.24
5 -5 -11 0.32 0.44
-5 -5 11 0.5 0.38
5 5 11 0.03 0.43
5 5 -11 0.58 0.25
-5 -5 -11 0.44 0.31
-5 5 11 -0.2 0.56
5 -5 11 -0.01 0.27
5 5 -11 0.07 0.27
6 5 -11 14.1 0.67
-6 5 11 12.88 0.94
6 5 11 13.47 0.77
-6 -5 11 13.52 0.74
6 -5 11 14.1 0.65
0 -6 11 26.03 1.05
0 -6 -11 26.05 1.09
0 6 11 23.64 1.11
-1 -6 11 10.8 0.5
1 -6 -11 10.77 0.57
1 6 11 9.6 0.58
-1 6 11 9.91 0.61
-1 -6 -11 10.58 0.55
1 -6 11 10.92 0.49
2 -6 -11 3.13 0.4
-2 6 11 3.1 0.47
2 6 -11 3.82 0.21
2 6 -11 3.77 0.21
-2 -6 -11 3.76 0.36
-2 -6 11 3.46 0.31
2 6 11 3.69 0.42
2 -6 11 4.25 0.28
3 6 11 18.54 0.91
-3 6 11 20.49 0.96
3 6 -11 18.93 0.8
-3 -6 11 20.41 0.84
3 -6 11 19.03 0.82
3 6 -11 18.88 0.8
3 -6 -11 19.07 0.91
-3 -6 -11 19.33 0.87
4 6 -11 5.27 0.31
4 6 -11 5.64 0.33
4 -6 11 5.53 0.35
4 6 11 4.72 0.5
4 -6 -11 5.47 0.52
-4 -6 -11 5.37 0.42
-4 6 11 5.61 0.62
-4 -6 11 6.11 0.41
-5 6 11 0.79 0.66
5 6 -11 0.36 0.29
5 6 -11 0.03 0.25
-5 -6 11 0.38 0.39
-5 -6 -11 0.19 0.37
5 -6 11 0.44 0.29
5 6 11 0.64 0.5
5 -6 -11 0.17 0.5
0 -7 -11 14.88 0.73
0 7 11 14.09 0.77
0 -7 11 15 0.65
-1 7 11 21.47 1.04
-1 -7 -11 23.06 1.01
1 -7 11 23.24 0.94
1 -7 -11 21.56 1.02
1 7 11 22.82 1.04
-1 -7 11 23.24 0.95
2 -7 -11 13.21 0.73
-2 -7 11 14.49 0.64
2 7 11 13.49 0.74
-2 -7 -11 13.72 0.7
-2 7 11 13.47 0.78
2 -7 11 14.73 0.62
-3 -7 -11 15.22 0.76
3 -7 11 17.11 0.68
3 7 11 15.19 0.82
-3 -7 11 15.04 0.71
3 -7 -11 14.98 0.81
-3 7 11 15.15 0.85
4 7 -11 7.35 0.35
4 -7 11 7.19 0.42
4 7 11 7 0.63
-4 -7 -11 6.9 0.51
-4 -7 11 6.72 0.49
4 -7 -11 7.01 0.62
-4 7 11 7.9 0.74
4 7 -11 7.89 0.37
5 7 -11 4.47 0.33
-5 7 11 4.52 0.82
5 7 11 4.59 0.65
-5 -7 11 4.68 0.48
0 8 11 0.25 0.53
0 -8 -11 0.44 0.46
0 -8 11 0.4 0.25
-1 -8 -11 7.68 0.57
1 -8 -11 8.18 0.6
1 8 11 8.12 0.64
-1 8 11 6.78 0.66
1 -8 11 8.82 0.42
-1 -8 11 8.34 0.44
-2 8 11 12.85 0.8
2 -8 -11 11.15 0.72
2 8 11 12.04 0.74
-2 -8 -11 11.06 0.67
-2 -8 11 12.52 0.58
-3 -8 -11 5.46 0.53
3 8 11 5.79 0.62
3 -8 11 7.77 0.36
-3 -8 11 3.95 0.42
-3 8 11 5.1 0.68
4 8 11 1.86 0.63
0 -9 11 36.81 1.51
0 9 11 37.21 1.65
-1 9 11 8.72 0.78
-1 -9 11 9.11 0.5
1 -9 11 10.02 0.47
1 9 11 9.5 0.78
2 9 11 6.35 0.73
-2 9 11 8.2 0.8
0 0 -12 39.08 1.56
0 0 12 37.99 1.58
1 0 -12 21.29 0.91
-1 0 12 22.04 0.94
1 0 12 21.15 0.93
-1 0 -12 22.69 0.91
2 0 -12 11.25 0.53
2 0 12 11.27 0.54
-2 0 12 10.86 0.56
-2 0 -12 11.56 0.51
3 0 -12 25.69 1.07
-3 0 12 25.11 1.1
3 0 12 25.87 1.08
-3 0 -12 25.13 1.05
-4 0 -12 7.32 0.36
4 0 12 6.24 0.43
4 0 -12 7.47 0.43
-4 0 12 7.28 0.49
-5 0 -12 1.04 0.23
-5 0 12 0.68 0.44
5 0 -12 1.41 0.33
5 0 12 1.34 0.34
-6 0 12 8.96 0.67
6 0 12 9.01 0.52
6 0 -12 7.88 0.53
-6 0 -12 8.15 0.43
0 -1 -12 60.48 2.41
0 -1 12 59.54 2.42
0 1 12 60.52 2.43
0 1 -12 60 2.4
1 1 12 17.09 0.75
-1 1 12 16.82 0.76
1 1 -12 16.91 0.72
-1 -1 12 15.55 0.75
-1 -1 -12 17.08 0.72
1 -1 12 17.63 0.74
-1 1 -12 16.37 0.71
1 -1 -12 16.42 0.73
2 1 -12 23.08 0.98
2 1 12 22.88 1.01
-2 1 12 23.22 1.02
-2 -1 12 24.41 1.01
2 -1 12 23.75 1
-2 1 -12 24.02 0.97
2 -1 -12 24.42 1
-2 -1 -12 23.11 0.98
-3 -1 12 8.39 0.48
3 1 -12 8.48 0.43
3 -1 -12 8.65 0.45
3 1 12 8.61 0.46
3 -1 12 6.51 0.44
-3 1 -12 8.86 0.39
-3 1 12 8.12 0.5
-3 -1 -12 8.31 0.41
4 -1 -12 14.56 0.68
4 1 12 14.93 0.69
-4 1 -12 14.29 0.62
-4 -1 12 14.7 0.71
-4 -1 -12 14.41 0.64
4 1 -12 13.85 0.66
4 -1 12 14.5 0.67
5 1 -12 14.72 0.73
-5 1 12 15.18 0.82
5 -1 -12 16.12 0.75
5 -1 12 17.04 0.74
-5 -1 -12 16.43 0.69
-5 1 -12 15.54 0.68
5 1 12 15.36 0.75
6 1 -12 2.37 0.38
-6 -1 12 1.51 0.53
6 -1 12 2.65 0.37
-6 -1 -12 2.42 0.29
-6 1 12 2.75 0.59
6 -1 -12 2.54 0.43
-6 1 -12 2.86 0.24
6 1 12 2.46 0.4
0 2 12 2.73 0.33
0 -2 -12 3.12 0.29
0 -2 12 2.83 0.29
0 2 -12 3.5 0.23
-1 -2 -12 20.04 0.85
1 -2 12 20.96 0.86
1 2 12 19.21 0.88
1 -2 -12 19.57 0.86
-1 2 12 19.56 0.88
1 2 -12 19.69 0.83
-1 -2 12 20.62 0.86
2 -2 -12 2.27 0.29
-2 -2 -12 2.71 0.25
-2 2 -12 2.44 0.2
-2 2 12 2.39 0.35
2 -2 12 2.34 0.28
-2 -2 12 2.58 0.3
2 2 -12 2.41 0.24
2 2 12 1.99 0.31
-3 2 -12 19.81 0.8
3 2 12 18.49 0.86
3 -2 -12 20.01 0.86
-3 2 12 18.34 0.89
3 -2 12 19.88 0.84
3 2 -12 19.15 0.83
-3 -2 -12 20.23 0.83
-3 -2 12 19.81 0.87
4 2 -12 12.37 0.56
-4 -2 12 11.99 0.62
4 -2 12 11.24 0.57
-4 2 12 10.77 0.66
4 2 12 12.75 0.61
-4 -2 -12 12.7 0.56
4 -2 -12 11.62 0.6
-4 2 -12 12.11 0.52
-5 -2 12 1.56 0.42
-5 2 12 1.61 0.51
-5 -2 -12 2.23 0.27
5 2 12 2.06 0.38
-5 2 -12 2.23 0.2
5 -2 12 2.33 0.33
5 2 -12 2.82 0.33
5 -2 -12 2.38 0.39
6 2 -12 0.18 0.35
-6 -2 12 0.84 0.49
-6 -2 -12 0.73 0.28
6 2 12 0.57 0.43
6 -2 12 0.72 0.35
-6 2 12 1.02 0.6
0 -3 -12 127.26 5.1
0 3 12 126.88 5.11
0 -3 12 131.58 5.09
0 3 -12 126.76 5.08
-1 -3 12 7.41 0.4
1 -3 12 7.75 0.39
-1 3 -12 7.04 0.33
1 -3 -12 6.16 0.41
1 3 -12 6.77 0.34
-1 3 12 6.44 0.45
-1 -3 -12 6.59 0.39
1 3 12 6.61 0.44
2 3 -12 10 0.44
-2 3 12 9.15 0.54
2 -3 -12 9.09 0.49
-2 3 -12 8.86 0.42
-2 -3 -12 9.19 0.47
-2 -3 12 8.9 0.49
2 -3 12 9.88 0.47
2 3 12 9.39 0.52
3 -3 -12 5.2 0.41
-3 -3 -12 4.45 0.35
-3 3 -12 5.84 0.28
-3 -3 12 4.88 0.39
3 3 -12 5.95 0.33
3 -3 12 5.42 0.34
-3 3 12 5.69 0.47
3 3 12 5.34 0.41
-4 -3 12 7.79 0.49
4 -3 -12 6.88 0.49
4 3 12 7.36 0.5
-4 -3 -12 7.99 0.44
-4 3 12 6.84 0.57
4 -3 12 8.52 0.44
-4 3 -12 8.4 0.36
4 3 -12 8.48 0.42
5 -3 -12 16.02 0.8
5 3 12 14.68 0.78
-5 3 12 16.68 0.9
-5 -3 12 17.12 0.8
5 -3 12 16.68 0.73
-5 -3 -12 13.41 0.72
-5 3 -12 16.32 0.67
5 3 -12 17.35 0.73
-6 -3 12 32.13 1.44
6 3 12 32.07 1.43
-6 3 12 32.88 1.53
6 -3 12 34.2 1.38
0 4 -12 31.6 1.26
0 -4 12 31.44 1.29
0 4 12 31.9 1.34
0 -4 -12 30.57 1.31
1 4 -12 37.27 1.48
-1 -4 12 37.89 1.51
1 4 12 37.05 1.54
-1 4 -12 37.12 1.47
1 -4 12 39.06 1.5
1 -4 -12 34.76 1.52
-1 -4 -12 35.62 1.51
-1 4 12 35.71 1.55
-2 -4 12 43.81 1.75
2 4 -12 41.22 1.72
2 4 12 42.18 1.78
-2 -4 -12 42.28 1.75
2 -4 -12 42.09 1.76
2 -4 12 45.67 1.74
-2 4 12 42.52 1.79
-2 4 -12 42.6 1.71
-3 -4 -12 2.98 0.31
-3 4 -12 2.11 0.17
3 -4 12 2.16 0.28
3 4 -12 2.36 0.24
3 4 12 2.64 0.4
-3 -4 12 1.75 0.34
3 -4 -12 2.75 0.38
-3 4 12 1.82 0.46
4 -4 -12 8.16 0.54
-4 4 -12 8.9 0.36
4 -4 12 8.85 0.46
-4 -4 12 8.09 0.51
-4 -4 -12 8.44 0.47
4 4 12 8.78 0.55
4 4 -12 8.44 0.43
-4 4 12 5.85 0.61
5 4 12 43.69 1.96
-5 -4 -12 49.82 1.93
5 -4 12 48.06 1.92
5 4 -12 49.65 1.91
-5 4 12 46.86 2.03
5 -4 -12 44.84 1.96
-5 4 -12 47.96 1.88
-5 -4 12 45.53 1.95
0 5 -12 13.91 0.6
0 -5 -12 14.01 0.7
0 -5 12 15.24 0.66
0 5 12 14.97 0.75
-1 -5 -12 9.99 0.55
1 -5 -12 9.75 0.57
1 5 -12 10.62 0.46
-1 -5 12 11.14 0.52
-1 5 -12 10.46 0.44
1 5 12 10.98 0.61
1 -5 12 11.02 0.52
2 -5 -12 17.31 0.84
2 5 -12 18.32 0.75
2 5 12 17.74 0.86
-2 5 12 17.15 0.88
-2 -5 12 19.87 0.8
-2 5 -12 16.83 0.73
2 -5 12 19.08 0.78
-2 -5 -12 17.46 0.81
3 -5 -12 1.19 0.42
-3 5 12 1.55 0.49
-3 -5 -12 1.97 0.34
3 5 12 1.86 0.43
3 5 -12 1.93 0.23
3 -5 12 2.21 0.28
-3 -5 12 2.43 0.34
-4 5 12 5.1 0.63
-4 -5 -12 4.59 0.41
4 -5 -12 4.73 0.5
4 5 -12 5.06 0.32
-4 -5 12 5.12 0.44
4 5 12 4.44 0.51
4 -5 12 4.74 0.36
-5 5 12 0.9 0.69
-5 -5 12 0.49 0.45
5 5 -12 0.83 0.34
5 5 12 0.9 0.51
0 -6 12 3.94 0.31
0 -6 -12 3.8 0.43
0 6 12 3.52 0.52
1 -6 -12 11.18 0.65
1 6 12 11.73 0.69
-1 -6 12 12.66 0.58
-1 -6 -12 11.92 0.63
1 -6 12 12.56 0.57
-1 6 12 11.89 0.71
2 -6 -12 68.95 2.93
2 6 -12 70.06 2.87
2 6 12 72.31 2.95
-2 -6 12 73.77 2.9
-2 6 12 73.3 2.96
-2 -6 -12 71.65 2.92
2 6 -12 73.09 2.87
2 -6 12 75.22 2.89
3 -6 -12 3.68 0.5
3 -6 12 4.95 0.34
3 6 -12 4.14 0.28
3 6 -12 4.26 0.27
-3 -6 12 4.48 0.38
3 6 12 3.86 0.54
-3 -6 -12 4.5 0.43
4 -6 12 38.26 1.53
-4 6 12 34.95 1.68
4 6 -12 38.84 1.52
-4 -6 12 36.65 1.56
0 -7 -12 55.23 2.36
0 7 12 58.87 2.39
0 -7 12 58 2.31
1 -7 -12 2.95 0.48
1 7 12 2.66 0.56
-1 -7 -12 3.1 0.45
-1 7 12 3.57 0.56
1 -7 12 2.87 0.31
-1 -7 12 3.28 0.33
-2 -7 12 5.67 0.42
-2 7 12 5.67 0.67
-2 -7 -12 5.62 0.49
2 -7 -12 5.53 0.57
2 -7 12 5.78 0.38
2 7 12 5.36 0.6
-3 7 12 19.07 1.06
-3 -7 12 20.35 0.89
3 7 12 19.1 1.03
0 8 12 11.14 0.83
-1 8 12 9.78 0.82
1 8 12 9.32 0.79
2 8 12 10.33 0.8
0 0 -13 0.24 0.23
0 0 13 0.11 0.32
1 0 -13 3.16 0.3
1 0 13 2.86 0.35
-1 0 -13 3.28 0.27
-1 0 13 3.01 0.37
2 0 -13 1.05 0.27
2 0 13 0.89 0.31
-2 0 13 1.48 0.35
-2 0 -13 1.07 0.23
3 0 -13 -0.1 0.28
-3 0 -13 -0.05 0.23
3 0 13 0.04 0.32
-3 0 13 0.04 0.38
4 0 -13 8.95 0.5
4 0 13 8.38 0.52
-4 0 -13 8.71 0.44
-5 0 13 0.49 0.53
5 0 13 0.52 0.38
0 1 -13 9.49 0.46
0 -1 -13 10.07 0.48
0 1 13 9.25 0.53
0 -1 13 9.51 0.52
-1 1 -13 1.25 0.22
-1 1 13 0.58 0.35
-1 -1 -13 0.92 0.25
1 1 -13 0.59 0.24
1 1 13 0.64 0.33
1 -1 -13 0.88 0.28
1 -1 13 1.34 0.31
-1 -1 13 1.4 0.32
2 1 -13 24.42 0.99
-2 1 13 23.23 1.04
-2 -1 13 21.97 1.02
2 -1 -13 23.55 1
-2 1 -13 23.03 0.97
2 -1 13 24.11 1.01
2 1 13 22.39 1.02
-2 -1 -13 24.41 0.99
3 -1 13 7.25 0.45
3 1 -13 8.1 0.43
-3 -1 13 7.54 0.5
3 -1 -13 7.4 0.46
-3 1 13 7.07 0.53
-3 1 -13 7.86 0.38
3 1 13 7.2 0.47
-3 -1 -13 7.31 0.41
4 -1 13 2.4 0.35
4 -1 -13 2.32 0.37
-4 -1 13 1.79 0.44
-4 -1 -13 2.26 0.29
4 1 -13 2.55 0.33
4 1 13 2.11 0.39
-4 1 13 2.03 0.47
-4 1 -13 2.28 0.24
-5 1 13 2.7 0.58
-5 -1 13 1.58 0.51
5 -1 13 1.49 0.39
5 1 13 1.96 0.42
0 2 -13 18.31 0.76
0 -2 -13 16.33 0.79
0 2 13 19.47 0.84
0 -2 13 17.47 0.8
-1 -2 13 10.88 0.54
1 2 -13 10.15 0.49
1 -2 13 9.67 0.54
-1 2 -13 12.61 0.48
1 2 13 10.99 0.57
1 -2 -13 8.85 0.53
-1 2 13 10.61 0.59
-1 -2 -13 9.84 0.52
-2 2 -13 8.39 0.38
2 2 -13 8.21 0.41
-2 2 13 7.44 0.53
2 2 13 6.99 0.51
-2 -2 13 7.87 0.48
-2 -2 -13 7.77 0.43
2 -2 -13 7.32 0.45
2 -2 13 7.98 0.45
3 -2 -13 1.28 0.34
-3 2 -13 0.98 0.21
-3 2 13 1.16 0.44
-3 -2 -13 1.26 0.28
3 2 13 1.11 0.38
3 2 -13 1.41 0.27
3 -2 13 0.77 0.31
-3 -2 13 1.59 0.38
4 -2 13 11.98 0.6
4 -2 -13 11.59 0.63
-4 2 13 11.54 0.71
-4 -2 -13 12.39 0.57
4 2 13 11.83 0.65
4 2 -13 11.82 0.58
-4 -2 13 10.88 0.65
-4 2 -13 11.91 0.53
-5 2 13 11.72 0.81
5 2 13 12.36 0.69
-5 -2 13 12.4 0.73
5 -2 13 11.63 0.63
0 -3 -13 6.94 0.45
0 -3 13 7.57 0.45
0 3 13 8.01 0.52
0 3 -13 7.99 0.38
-1 -3 13 18.68 0.82
-1 -3 -13 18.39 0.81
-1 3 -13 18.42 0.76
1 3 -13 19.58 0.77
-1 3 13 16.89 0.87
1 -3 -13 18.32 0.82
1 -3 13 18.8 0.81
1 3 13 16.78 0.86
-2 3 -13 1.07 0.19
-2 -3 -13 0.86 0.29
2 3 -13 0.66 0.24
-2 -3 13 1.42 0.34
-2 3 13 1.35 0.44
2 3 13 1.41 0.42
2 -3 13 0.85 0.3
2 -3 -13 0.79 0.33
3 -3 -13 4.41 0.43
-3 3 13 5.27 0.53
3 3 13 4.85 0.47
-3 -3 -13 4.7 0.37
3 -3 13 4.88 0.38
3 3 -13 4.88 0.33
-3 -3 13 4.71 0.43
-3 3 -13 4.96 0.28
-4 -3 -13 17.16 0.82
4 -3 -13 17.43 0.87
-4 3 13 18.85 0.96
-4 -3 13 18.27 0.87
4 -3 13 19.27 0.83
4 3 13 17.54 0.88
4 3 -13 19.6 0.81
-5 3 13 13.26 0.94
5 3 13 17.12 0.82
0 -4 13 3.71 0.34
0 -4 -13 3.21 0.38
0 4 13 3.27 0.47
0 4 -13 3.53 0.24
-1 -4 -13 11.7 0.63
-1 -4 13 13.41 0.63
1 -4 13 13.76 0.62
-1 4 13 12.71 0.72
-1 4 -13 12.43 0.55
1 -4 -13 12.38 0.65
1 4 -13 13.05 0.56
1 4 13 12.67 0.69
2 -4 13 37.09 1.44
-2 -4 13 36.29 1.46
-2 -4 -13 32.55 1.45
2 -4 -13 34.11 1.47
2 4 13 32.05 1.49
-2 4 13 35.86 1.52
2 4 -13 36.3 1.41
-2 4 -13 34.7 1.4
3 -4 13 3.6 0.36
-3 4 -13 3.77 0.22
3 4 -13 3.8 0.3
3 -4 -13 3.71 0.45
-3 -4 -13 3.52 0.38
-3 4 13 3.5 0.57
-3 -4 13 3.77 0.41
3 4 13 3.81 0.49
4 -4 13 23.35 1.01
-4 -4 13 25.21 1.06
-4 4 13 20.22 1.15
4 4 13 24.09 1.09
0 -5 13 35.19 1.41
0 5 -13 31.59 1.36
0 -5 -13 33.99 1.44
0 5 13 35.12 1.49
-1 -5 13 18.65 0.82
-1 5 -13 17.95 0.75
1 -5 13 19.65 0.82
1 -5 -13 16.08 0.87
-1 -5 -13 19.23 0.86
1 5 -13 18.51 0.76
-1 5 13 17.87 0.93
1 5 13 18.92 0.92
-2 -5 -13 25.01 1.1
2 -5 -13 24.15 1.12
-2 -5 13 26.44 1.09
2 5 13 23.56 1.16
2 5 -13 25.68 1.03
2 -5 13 25.75 1.07
-3 -5 13 8.58 0.54
3 5 13 8.07 0.65
3 -5 13 7.6 0.47
-3 5 13 7.86 0.71
0 -6 13 2.91 0.35
0 6 13 2.66 0.6
-1 6 13 -0.18 0.59
1 6 13 -0.25 0.57
1 -6 13 -0.03 0.33
-1 -6 13 0.1 0.34
-2 6 13 6.28 0.73
2 6 -13 6.47 0.32
2 6 -13 5.94 0.33
2 6 13 6.01 0.63
0 7 13 5.37 0.75
-1 7 13 25.59 1.29
0 0 -14 12.64 0.6
0 0 14 12.89 0.66
1 0 -14 7.59 0.43
1 0 14 7.84 0.51
-1 0 -14 7.62 0.42
-1 0 14 6.68 0.52
2 0 14 3.98 0.44
2 0 -14 3.82 0.35
-2 0 14 3.61 0.46
-2 0 -14 3.55 0.32
-3 0 14 1.35 0.48
3 0 14 2.13 0.4
0 -1 14 18.39 0.83
0 1 -14 17.85 0.77
0 -1 -14 17.5 0.79
0 1 14 16.91 0.85
1 -1 14 16.11 0.77
1 1 -14 16.73 0.72
-1 1 14 15.54 0.81
1 1 14 15.44 0.79
-1 -1 14 17.07 0.78
1 -1 -14 15.39 0.74
-1 1 -14 16.95 0.71
-1 -1 -14 15.47 0.73
2 -1 -14 12.74 0.65
2 1 -14 13.89 0.63
2 -1 14 13.8 0.68
2 1 14 13.59 0.7
-2 1 14 13.46 0.74
-2 -1 -14 12.63 0.62
-2 -1 14 12.17 0.7
-2 1 -14 13.67 0.6
-3 1 14 7.92 0.63
-3 -1 14 8.15 0.59
3 -1 14 8.31 0.53
3 1 14 8.49 0.55
0 2 -14 12.03 0.56
0 -2 -14 12.34 0.6
0 -2 14 11.79 0.63
0 2 14 12.05 0.68
1 2 14 27.2 1.2
-1 2 14 27.71 1.22
-1 2 -14 30.98 1.12
1 -2 14 24.72 1.16
1 -2 -14 26.65 1.16
1 2 -14 27.81 1.13
-1 -2 -14 24.63 1.15
-1 -2 14 27.27 1.18
2 -2 -14 25.44 1.12
2 2 14 27.42 1.16
-2 2 14 24.47 1.18
2 -2 14 26.74 1.13
-2 -2 -14 24.36 1.1
-2 -2 14 26.01 1.14
2 2 -14 26.52 1.09
3 -2 14 10.98 0.59
3 2 14 10.31 0.64
-3 -2 14 10.62 0.64
-3 2 14 9.86 0.71
0 -3 -14 0.1 0.35
0 -3 14 -0.11 0.35
0 3 14 0.23 0.48
1 3 14 3.37 0.5
1 -3 -14 2.56 0.41
1 -3 14 3.16 0.39
-1 -3 -14 3.67 0.38
-1 3 14 2.97 0.53
-1 -3 14 3.22 0.41
-2 -3 14 0.6 0.4
-2 3 14 1.43 0.55
2 3 14 0.88 0.48
2 -3 14 0.82 0.38
-3 3 14 19.97 1.04
0 -4 14 5.16 0.44
0 4 14 5.66 0.61
-1 4 14 2.12 0.57
-1 -4 14 1.7 0.39
1 4 14 1.6 0.55
1 -4 14 2.21 0.38
2 4 14 3.86 0.58
-2 4 14 4.16 0.65
1 0 0 0.01 0.02
-1 0 0 0.02 0.02
-2 0 0 317.47 9.04
3 0 0 -0.02 0.05
-3 0 0 0 0.05
-4 0 0 43.91 1.21
4 0 0 40.63 1.21
5 0 0 -0.04 0.07
-5 0 0 -0.02 0.08
-6 0 0 513.56 15.14
6 0 0 552.03 15.12
7 0 0 0.03 0.1
-7 0 0 -0.07 0.13
8 0 0 8.38 0.29
-8 0 0 8.14 0.33
-9 0 0 0.07 0.2
9 0 0 -0.07 0.14
10 0 0 0.67 0.17
-10 0 0 0.82 0.26
11 0 0 -0.21 0.19
-11 0 0 -0.2 0.34
-1 1 0 81.26 2.38
-3 1 0 96.01 2.65
-3 -1 0 94.58 2.65
3 1 0 92.51 2.65
3 -1 0 91.33 2.65
4 -1 0 29.16 0.83
4 1 0 29.23 0.83
-4 1 0 29.23 0.84
-4 -1 0 27.22 0.83
5 -1 0 95.5 2.74
5 1 0 94.54 2.74
-5 1 0 99.49 2.75
-5 -1 0 97.03 2.74
-6 1 0 37.99 1.11
-6 -1 0 36.63 1.11
6 -1 0 39.36 1.1
6 1 0 38.01 1.09
-7 -1 0 0.16 0.12
7 -1 0 0.47 0.12
-7 1 0 0.12 0.14
7 1 0 0.18 0.09
8 1 0 75 2.1
8 -1 0 73.11 2.11
-8 1 0 73.3 2.13
-8 -1 0 72.91 2.12
-9 1 0 24.25 0.77
9 -1 0 24.56 0.74
9 1 0 23.62 0.72
-9 -1 0 24.28 0.77
10 -1 0 -0.05 0.19
-10 1 0 0.18 0.29
-10 -1 0 0.23 0.25
10 1 0 0.11 0.15
-11 -1 0 27.7 0.91
-11 1 0 28.46 0.95
11 -1 0 26.34 0.85
-2 2 0 66.61 1.9
2 -2 0 66.4 1.89
-4 -2 0 31.65 0.88
4 -2 0 30.08 0.89
-4 2 0 30.14 0.89
-5 2 0 68.27 1.91
-5 -2 0 66.38 1.91
5 -2 0 65.97 1.91
-6 -2 0 13.32 0.42
6 -2 0 13.21 0.43
-6 2 0 14.06 0.44
7 -2 0 0.72 0.14
-7 2 0 0.87 0.16
-7 -2 0 0.68 0.13
-8 -2 0 3.24 0.2
-8 2 0 3.26 0.23
8 -2 0 3.25 0.19
-9 2 0 50.68 1.49
-9 -2 0 49.17 1.47
-10 -2 0 -0.03 0.23
-10 2 0 0.31 0.29
10 -2 0 0.13 0.2
-11 -2 0 5.39 0.37
2 -3 0 642.76 18.25
-3 3 0 35.5 1.03
3 -3 0 36.41 1.04
-5 3 0 1.18 0.12
-5 -3 0 1.18 0.09
5 -3 0 1.09 0.11
6 -3 0 15.83 0.49
-6 3 0 15.87 0.5
-6 -3 0 15.3 0.48
7 -3 0 4.26 0.21
-7 3 0 4.58 0.23
-7 -3 0 4.31 0.2
-8 -3 0 0.78 0.15
8 -3 0 1.03 0.16
-8 3 0 0.65 0.2
9 -3 0 29.95 0.89
-9 3 0 28 0.93
-9 -3 0 29.85 0.89
10 -3 0 25.24 0.78
-10 3 0 24.54 0.86
-10 -3 0 24.77 0.79
-11 -3 0 1.17 0.31
-11 3 0 1.16 0.49
3 -4 0 45.31 1.3
-4 4 0 295.65 8.35
4 -4 0 286.15 8.35
5 -4 0 46.96 1.36
-5 4 0 47.25 1.35
-5 -4 0 45.95 1.34
6 -4 0 1.32 0.14
-6 4 0 1.42 0.16
-6 -4 0 1.14 0.11
-7 -4 0 54.7 1.58
-7 4 0 54.7 1.6
7 -4 0 54.94 1.59
-8 4 0 19.3 0.65
-8 -4 0 18.61 0.6
8 -4 0 19.33 0.62
-9 -4 0 17.01 0.57
9 -4 0 17.81 0.58
-9 4 0 17.99 0.64
-10 4 0 4.62 0.45
-10 -4 0 4.42 0.29
10 -4 0 4.55 0.29
-11 4 0 4.24 0.59
3 -5 0 51.05 1.47
4 -5 0 75.36 2.16
-5 -5 0 -0.08 0.09
5 -5 0 -0.01 0.12
-5 5 0 0.06 0.12
6 -5 0 14.76 0.49
-6 5 0 15.89 0.49
-6 -5 0 14.73 0.46
-7 -5 0 0.38 0.12
7 -5 0 0.49 0.15
-7 5 0 0.5 0.19
8 -5 0 2.7 0.22
-8 -5 0 2.51 0.18
-8 5 0 2.5 0.27
-9 5 0 1.52 0.33
9 -5 0 1.32 0.24
-9 -5 0 1.64 0.2
-10 5 0 25.39 0.93
-10 -5 0 26.12 0.82
10 -5 0 26.17 0.84
3 -6 0 11.83 0.38
4 -6 0 6.68 0.25
5 -6 0 13.43 0.45
6 -6 0 1.29 0.18
-6 -6 0 1.01 0.12
7 -6 0 97.6 2.83
-7 -6 0 99.19 2.8
8 -6 0 10.02 0.4
-8 6 0 10.19 0.42
-9 -6 0 1.51 0.21
-9 6 0 1.55 0.36
9 -6 0 1.79 0.26
-10 6 0 0.41 0.48
-10 -6 0 0.57 0.24
10 -6 0 0.35 0.29
3 -7 0 0.57 0.12
4 -7 0 7.08 0.27
5 -7 0 41.91 1.24
6 -7 0 7.44 0.32
-6 -7 0 6.45 0.25
7 -7 0 8.31 0.35
-7 -7 0 8 0.3
-8 -7 0 12.68 0.43
8 -7 0 12.48 0.48
-9 -7 0 22.64 0.65
9 -7 0 17.68 0.68
3 -8 0 26.29 0.79
4 -8 0 6.1 0.27
5 -8 0 2.91 0.22
6 -8 0 46.83 1.4
7 -8 0 2.02 0.27
-7 -8 0 2.34 0.18
-8 -8 0 6.22 0.28
8 -8 0 5.78 0.36
-9 -8 0 31.87 0.97
9 -8 0 31.93 1.03
3 -9 0 0.91 0.18
4 -9 0 59.85 1.75
5 -9 0 7.03 0.33
6 -9 0 38.53 1.19
7 -9 0 1.21 0.32
-7 -9 0 1.44 0.2
8 -9 0 34.16 1.08
-8 -9 0 33.52 1.01
3 -10 0 22.48 0.71
4 -10 0 8.13 0.38
5 -10 0 0 0.24
6 -10 0 67.04 1.99
7 -10 0 19.23 0.73
3 -11 0 2.02 0.27
4 -11 0 53.71 1.61
5 -11 0 18.81 0.69
6 -11 0 0.22 0.38
3 -12 0 -0.02 0.32
4 -12 0 8.51 0.49
5 -12 0 3.36 0.44
3 -13 0 1.54 0.44
0 0 -1 0.01 0.02
0 0 1 -0.01 0.01
0 0 1 0.02 0.02
2 0 -1 213.32 5.77
-2 0 1 202.32 5.74
-2 0 -1 189.26 5.72
3 0 -1 66.13 1.89
-3 0 1 68.22 1.89
3 0 1 64.36 1.88
-3 0 -1 66.82 1.89
4 0 -1 7.46 0.25
4 0 1 8.06 0.25
-4 0 1 7.77 0.25
-4 0 -1 7.85 0.25
5 0 -1 4.28 0.17
-5 0 -1 4.51 0.18
-5 0 1 4.3 0.17
5 0 1 4.47 0.16
6 0 -1 0.19 0.09
-6 0 1 0.03 0.1
-6 0 -1 -0.17 0.11
6 0 1 -0.14 0.09
-7 0 -1 57.4 1.62
7 0 1 54.52 1.61
-7 0 1 56.89 1.62
7 0 -1 55.23 1.61
-8 0 -1 68.56 2
8 0 1 68.57 1.98
8 0 -1 67.48 1.98
-8 0 1 71.61 2
9 0 -1 0.62 0.15
9 0 1 0.45 0.14
-9 0 1 0.59 0.22
-9 0 -1 0.26 0.2
10 0 1 3.04 0.2
10 0 -1 2.69 0.2
-10 0 1 2.95 0.3
-10 0 -1 2.67 0.29
11 0 1 8.95 0.36
11 0 -1 9.8 0.37
-11 0 1 9.32 0.49
-11 0 -1 10.17 0.5
0 -1 1 142.38 4.16
-1 1 -1 396.93 11.36
-2 -1 1 303.95 8.47
2 -1 -1 291.16 8.47
3 1 1 91.76 2.68
-3 1 1 94.62 2.64
3 -1 -1 87.73 2.64
-3 -1 -1 93.22 2.7
-3 1 -1 95.11 2.64
-3 -1 1 96.29 2.64
-4 -1 -1 77.37 2.22
4 1 -1 75.74 2.22
-4 1 -1 78.35 2.23
4 -1 -1 76.38 2.22
4 1 1 78.76 2.29
-4 -1 1 80.75 2.22
-4 1 1 80.72 2.23
-5 -1 -1 3.81 0.16
5 -1 -1 3.76 0.16
5 1 1 3.53 0.14
-5 -1 1 3.96 0.16
-5 1 1 4.03 0.17
5 1 -1 3.84 0.15
5 -1 1 4.17 0.16
-5 1 -1 3.76 0.16
6 -1 1 26.81 0.82
6 1 1 27.06 0.81
6 -1 -1 28.56 0.83
6 1 -1 28.04 0.82
-6 -1 -1 27.18 0.82
-6 -1 1 28.63 0.83
-6 1 -1 28.56 0.83
-6 1 1 28.83 0.83
7 1 -1 50.85 1.5
-7 -1 1 51.79 1.51
-7 -1 -1 53.11 1.51
7 -1 1 51.54 1.5
-7 1 -1 54.97 1.52
7 -1 -1 50.82 1.51
7 1 1 52.2 1.49
-8 1 1 10.07 0.38
8 1 1 10.38 0.33
-8 1 -1 10.26 0.38
8 1 -1 9.65 0.33
-8 -1 -1 10.08 0.37
-8 -1 1 10.3 0.37
8 -1 -1 10.43 0.35
-9 -1 1 6.73 0.31
9 1 1 6.29 0.24
9 -1 1 6.84 0.27
9 -1 -1 6.56 0.27
-9 -1 -1 6.19 0.3
9 1 -1 6.39 0.25
-9 1 1 6.66 0.32
-9 1 -1 6.2 0.33
10 -1 1 1.25 0.19
-10 -1 1 1.32 0.25
-10 -1 -1 1.25 0.25
10 1 -1 1.37 0.16
-10 1 1 1.9 0.31
-10 1 -1 1.65 0.3
10 1 1 1.6 0.15
10 -1 -1 1.37 0.2
-11 1 -1 1.5 0.39
11 -1 1 1.98 0.23
-11 1 1 1.45 0.42
-11 -1 1 1.24 0.35
-11 -1 -1 1.31 0.32
-1 2 -1 201.72 6.15
1 -2 1 227.8 6.17
3 -2 -1 60.39 1.64
-3 2 -1 57.75 1.64
-3 -2 -1 57.26 1.64
-3 2 1 56.78 1.64
-3 -2 1 55.95 1.64
3 -2 1 57.31 1.64
-4 -2 1 205.7 5.83
-4 -2 -1 203.18 5.81
5 -2 -1 14.41 0.44
-5 -2 1 14.56 0.43
-5 2 1 13.66 0.44
-5 -2 -1 14.3 0.43
-5 2 -1 14.78 0.45
5 -2 1 13.7 0.44
-6 -2 -1 24.83 0.75
-6 2 1 25.84 0.76
6 -2 -1 26.43 0.76
-6 -2 1 24.83 0.75
-6 2 -1 25.85 0.76
6 -2 1 24.18 0.75
7 -2 -1 14.63 0.47
-7 2 1 15.32 0.49
-7 -2 1 14.34 0.47
-7 2 -1 15.38 0.49
7 -2 1 14.75 0.47
-7 -2 -1 14.68 0.47
-8 -2 -1 21.54 0.65
-8 2 -1 19.65 0.66
-8 -2 1 21.74 0.65
-8 2 1 20.37 0.67
8 -2 -1 20.25 0.64
-9 2 -1 21.41 0.74
9 -2 1 23.86 0.71
-9 2 1 22 0.75
-9 -2 -1 22.6 0.72
9 -2 -1 23.51 0.71
-9 -2 1 23.91 0.72
-10 2 1 -0.05 0.32
-10 2 -1 0 0.28
-10 -2 -1 0.06 0.24
-10 -2 1 0.36 0.23
10 -2 1 0.16 0.21
10 -2 -1 0.04 0.2
-11 -2 -1 11.72 0.5
-11 -2 1 10.46 0.5
1 -3 1 145.95 4.16
-2 3 -1 49.89 1.37
2 -3 -1 47.62 1.36
2 -3 1 45.28 1.36
3 -3 1 85.99 2.41
3 -3 -1 84.06 2.4
-3 3 -1 82.36 2.41
-3 3 1 86.27 2.41
4 -3 -1 80.7 2.3
-5 3 1 1.87 0.13
-5 3 -1 2.09 0.14
5 -3 -1 1.99 0.12
-5 -3 1 1.74 0.11
5 -3 1 2.01 0.13
-6 -3 1 1.24 0.11
-6 3 -1 1.22 0.15
-6 3 1 1.03 0.14
6 -3 1 1.08 0.12
6 -3 -1 1.09 0.13
-6 -3 -1 1.07 0.11
-7 3 -1 19.43 0.62
7 -3 -1 19.29 0.6
-7 -3 -1 18.95 0.59
7 -3 1 18.64 0.59
-7 -3 1 19.48 0.59
-8 -3 -1 9.15 0.33
-8 3 -1 9.17 0.38
8 -3 1 8.78 0.33
-8 -3 1 9.15 0.33
8 -3 -1 8.89 0.34
-9 3 1 4.29 0.32
9 -3 -1 5.59 0.26
-9 -3 -1 5.06 0.26
-9 3 -1 5.35 0.34
9 -3 1 5.14 0.27
-9 -3 1 5.15 0.27
-10 -3 -1 43.79 1.3
-10 3 -1 42.84 1.35
10 -3 -1 44.78 1.29
-10 -3 1 41.4 1.29
-11 -3 -1 1.15 0.33
-11 3 -1 0.85 0.47
-11 -3 1 0.95 0.32
-11 3 1 0.58 0.49
2 -4 1 152.76 4.41
-3 4 -1 34.91 0.98
3 -4 -1 33.6 0.98
3 -4 1 33.24 0.98
-4 4 1 152.49 4.26
4 -4 1 139.83 4.18
-4 4 -1 150.85 4.19
4 -4 -1 147.41 4.18
-5 -4 -1 50.36 1.45
5 -4 1 50.75 1.47
5 -4 -1 51.11 1.47
-5 4 -1 51.41 1.47
-5 4 1 50.59 1.47
-6 -4 1 10.56 0.36
6 -4 1 11.45 0.37
-6 4 -1 10.58 0.38
6 -4 -1 10.81 0.37
-6 -4 -1 11.15 0.35
-6 4 1 11.78 0.38
7 -4 1 2.86 0.18
7 -4 -1 3.06 0.2
-7 4 1 2.65 0.21
-7 4 -1 2.81 0.22
-7 -4 -1 2.7 0.16
-7 -4 1 2.7 0.16
8 -4 1 4.5 0.24
-8 -4 1 4.39 0.22
-8 -4 -1 4.1 0.21
-8 4 1 4.35 0.28
8 -4 -1 4.15 0.23
-8 4 -1 4.13 0.3
9 -4 1 22.59 0.74
-9 -4 1 23.26 0.74
-9 4 -1 23.17 0.81
9 -4 -1 24.43 0.75
-9 4 1 23.87 0.8
-9 -4 -1 25.17 0.74
-10 -4 -1 3.83 0.27
-10 4 -1 3.78 0.45
10 -4 1 4 0.29
10 -4 -1 4.01 0.28
-10 4 1 3.74 0.42
-10 -4 1 4.02 0.28
2 -5 1 173.49 4.91
3 -5 1 28.9 0.86
3 -5 -1 29.47 0.85
4 -5 -1 29.1 0.88
4 -5 1 30.81 0.89
5 -5 -1 64.06 1.99
5 -5 1 70.75 1.99
-5 -5 1 69.47 1.97
-5 -5 -1 69.31 1.97
-5 5 -1 72.62 1.99
-6 5 1 3.84 0.2
-6 5 -1 3.65 0.22
-6 -5 1 4.82 0.18
6 -5 1 4.07 0.2
-6 -5 -1 3.76 0.17
6 -5 -1 3.89 0.21
-7 5 -1 4.03 0.25
-7 5 1 3.55 0.24
-7 -5 -1 3.93 0.18
7 -5 -1 3.7 0.22
-7 -5 1 4.04 0.19
7 -5 1 3.89 0.22
-8 -5 1 6.52 0.28
-8 5 1 7.02 0.35
8 -5 -1 7.41 0.32
-8 5 -1 7.4 0.36
-8 -5 -1 7.04 0.28
8 -5 1 6.77 0.3
9 -5 -1 2.88 0.26
-9 5 -1 3.09 0.37
-9 -5 -1 2.98 0.22
-9 -5 1 2.98 0.23
-9 5 1 2.74 0.34
9 -5 1 3.17 0.27
-10 5 1 7.27 0.51
10 -5 1 6.81 0.36
-10 -5 1 6.62 0.34
-10 -5 -1 6.63 0.34
10 -5 -1 7.01 0.37
-10 5 -1 6.96 0.53
2 -6 1 18.72 0.56
3 -6 -1 15.15 0.46
3 -6 1 15.29 0.48
4 -6 1 15.42 0.49
4 -6 -1 15.49 0.48
5 -6 -1 53.58 1.54
5 -6 1 52.36 1.54
-6 6 -1 59.77 1.73
-6 -6 -1 61.69 1.71
6 -6 1 61.26 1.75
6 -6 -1 56.93 1.74
-6 -6 1 59.66 1.71
-7 -6 -1 3.67 0.18
7 -6 -1 3.28 0.23
-7 -6 1 3.45 0.19
-7 6 -1 3.24 0.25
7 -6 1 3.16 0.22
8 -6 1 10.46 0.41
-8 6 -1 11.63 0.46
8 -6 -1 10.25 0.41
-8 -6 1 10.49 0.38
-8 -6 -1 11.14 0.38
-9 -6 -1 6.02 0.29
-9 -6 1 6.32 0.3
9 -6 -1 6.23 0.36
-9 6 1 6.24 0.4
-9 6 -1 6.06 0.43
9 -6 1 6.66 0.34
-10 -6 1 2.9 0.28
10 -6 -1 2.33 0.32
-10 6 -1 3.29 0.52
10 -6 1 3.06 0.33
-10 -6 -1 2.76 0.27
-10 6 1 2.22 0.48
2 -7 1 27.98 0.82
3 -7 1 1.41 0.14
3 -7 -1 1.32 0.12
4 -7 -1 21.77 0.66
4 -7 1 21.56 0.67
5 -7 1 20.57 0.64
5 -7 -1 19.47 0.63
-6 -7 1 19.61 0.59
6 -7 1 17.84 0.63
6 -7 -1 20.22 0.63
-6 -7 -1 19.65 0.58
7 -7 1 4.7 0.27
-7 -7 1 4.54 0.22
7 -7 -1 4.24 0.27
-7 -7 -1 4.84 0.21
8 -7 -1 7.29 0.35
-8 -7 1 7.1 0.3
8 -7 1 7.16 0.35
-8 -7 -1 6.89 0.29
9 -7 1 0.2 0.26
-9 -7 -1 -0.02 0.2
-9 -7 1 0.16 0.21
9 -7 -1 0.14 0.28
3 -8 1 65.55 1.89
4 -8 1 41.43 1.18
4 -8 -1 37.38 1.16
5 -8 1 14 0.5
5 -8 -1 15.29 0.5
6 -8 -1 3.71 0.28
6 -8 1 4.61 0.29
-7 -8 1 5.13 0.24
-7 -8 -1 5.27 0.23
7 -8 1 5.71 0.33
7 -8 -1 4.66 0.31
-8 -8 -1 10.69 0.38
8 -8 -1 9.99 0.45
-8 -8 1 10.63 0.39
8 -8 1 10.92 0.45
9 -8 -1 37.6 1.16
9 -8 1 35.65 1.15
-9 -8 -1 36.46 1.1
3 -9 1 19.96 0.64
4 -9 1 3.4 0.25
4 -9 -1 3.18 0.23
5 -9 -1 0.83 0.21
5 -9 1 0.75 0.22
6 -9 1 15.14 0.55
6 -9 -1 15.1 0.57
-7 -9 -1 36.7 1.09
7 -9 1 38.15 1.16
-7 -9 1 36.14 1.09
7 -9 -1 37.33 1.17
-8 -9 -1 10.91 0.39
8 -9 1 10.28 0.48
-8 -9 1 10.05 0.39
8 -9 -1 10.09 0.5
3 -10 1 15.23 0.53
4 -10 1 3.36 0.29
4 -10 -1 4.12 0.29
5 -10 1 11.3 0.47
5 -10 -1 11.52 0.47
6 -10 -1 10.55 0.5
6 -10 1 10.81 0.49
7 -10 -1 12.37 0.58
-7 -10 -1 12.32 0.43
7 -10 1 13 0.59
3 -11 1 2.45 0.31
4 -11 -1 17.85 0.63
4 -11 1 16.64 0.64
5 -11 1 10.56 0.5
5 -11 -1 10.44 0.48
6 -11 1 2.49 0.39
6 -11 -1 2.13 0.39
3 -12 1 0.6 0.36
4 -12 1 3.92 0.42
4 -12 -1 3.12 0.39
5 -12 1 5.62 0.48
5 -12 -1 5.11 0.45
2 -13 1 -0.11 0.4
3 -13 1 1.46 0.49
-1 0 2 70.01 1.97
1 0 2 64.67 1.92
-1 0 2 67.75 1.92
-1 0 -2 67.12 1.92
-2 0 -2 156.37 4.47
3 0 2 2.18 0.09
-3 0 2 2.05 0.1
-3 0 -2 2.44 0.1
3 0 -2 2.03 0.09
-4 0 -2 1.25 0.09
4 0 2 1.35 0.08
-4 0 2 1.16 0.09
-5 0 2 3.18 0.14
-5 0 -2 3.18 0.15
5 0 2 3.15 0.13
-6 0 -2 8.83 0.3
6 0 -2 9.19 0.3
-6 0 2 8.68 0.3
6 0 2 8.61 0.29
-7 0 -2 15.81 0.52
7 0 2 16.97 0.5
-7 0 2 16.7 0.52
7 0 -2 16.14 0.51
-8 0 -2 51.77 1.53
8 0 -2 52.56 1.51
-8 0 2 51.38 1.53
8 0 2 53.74 1.51
9 0 2 0.38 0.14
-9 0 2 0.12 0.21
-9 0 -2 0.42 0.2
9 0 -2 0.2 0.15
10 0 2 1.09 0.17
-10 0 -2 1.23 0.29
-10 0 2 1.26 0.3
10 0 -2 1.24 0.19
-11 0 -2 1.74 0.39
-11 0 2 2.1 0.39
11 0 -2 2.21 0.24
11 0 2 2.04 0.2
0 -1 2 1.84 0.08
0 1 -2 1.83 0.08
1 -1 2 365.42 10.36
2 -1 -2 55.24 1.64
2 -1 2 58.81 1.65
-2 1 2 57.9 1.65
-2 1 -2 59.81 1.65
-2 -1 2 57.65 1.64
-3 -1 2 74.53 2.06
-3 1 -2 71.94 2.06
3 1 -2 71.29 2.06
-3 -1 -2 72.33 2.06
3 -1 2 73.11 2.06
-3 1 2 73.06 2.06
3 -1 -2 71.76 2.06
4 -1 -2 32.04 0.92
4 1 -2 31.78 0.91
-4 -1 2 33.13 0.92
4 -1 2 30.71 0.92
-4 1 2 30.7 0.92
-4 -1 -2 31.5 0.91
-4 1 -2 31.41 0.92
4 1 2 32.07 0.91
5 -1 2 6.24 0.22
-5 1 2 6.69 0.23
-5 -1 2 6.45 0.22
-5 -1 -2 6.06 0.22
5 1 -2 6.22 0.21
5 1 2 6.02 0.2
-5 1 -2 6.5 0.23
6 -1 2 26.59 0.76
6 -1 -2 26.01 0.77
-6 1 -2 25.69 0.78
-6 1 2 25.97 0.77
-6 -1 2 26.72 0.77
-6 -1 -2 26.04 0.77
6 1 -2 25.93 0.76
6 1 2 23.99 0.75
-7 -1 2 74.14 2.18
7 1 2 76.4 2.16
-7 1 2 76.67 2.19
7 -1 -2 72.62 2.18
7 1 -2 74.32 2.17
-7 -1 -2 76.76 2.18
7 -1 2 78.91 2.17
-7 1 -2 78.82 2.19
8 1 2 18.05 0.54
-8 1 2 17.72 0.59
-8 1 -2 17.71 0.59
8 -1 -2 17.32 0.56
8 -1 2 17.48 0.56
-8 -1 2 18.85 0.58
-8 -1 -2 17.83 0.57
8 1 -2 18.39 0.55
9 1 -2 16.7 0.53
-9 1 2 16.92 0.59
-9 -1 -2 16.69 0.56
9 1 2 15.84 0.51
9 -1 2 17.37 0.54
-9 -1 2 17.51 0.57
9 -1 -2 16.59 0.54
-9 1 -2 16.84 0.58
10 1 2 0.64 0.13
10 -1 2 0.7 0.19
-10 1 2 0.43 0.31
-10 -1 -2 0.3 0.25
10 -1 -2 0.6 0.2
-10 1 -2 0.36 0.29
-10 -1 2 0.64 0.27
10 1 -2 0.49 0.17
11 -1 2 5.24 0.28
-11 1 2 4.47 0.48
-11 -1 2 5.17 0.42
-11 -1 -2 4.76 0.38
0 -2 2 12.6 0.38
-2 2 -2 473.25 13.23
2 -2 2 458.65 13.22
-3 -2 -2 303.91 8.78
3 -2 2 320.1 8.77
-3 2 2 302.24 8.78
-4 -2 2 104.23 2.99
-4 2 -2 106.92 3
-5 2 -2 51.4 1.46
5 -2 -2 48.38 1.45
5 -2 2 51.35 1.46
-5 -2 -2 51.24 1.45
-6 -2 2 23.81 0.72
-6 2 2 24.96 0.73
-6 -2 -2 24.82 0.72
-6 2 -2 22.53 0.73
6 -2 2 24.97 0.72
6 -2 -2 24.44 0.73
-7 -2 2 18.82 0.58
7 -2 -2 18.53 0.58
-7 2 2 18.69 0.59
-7 -2 -2 18.44 0.57
-8 2 -2 43.28 1.34
8 -2 2 45.62 1.32
-8 2 2 45.89 1.34
-8 -2 2 44.61 1.33
8 -2 -2 45.73 1.32
-8 -2 -2 45.42 1.32
-9 2 -2 4.63 0.3
9 -2 2 4.57 0.24
-9 -2 -2 4.71 0.26
-9 -2 2 4.56 0.26
-9 2 2 4.25 0.31
9 -2 -2 4.53 0.25
-10 2 -2 1.8 0.31
10 -2 2 1.6 0.22
-10 -2 -2 1.33 0.25
-10 -2 2 1.47 0.26
10 -2 -2 1.65 0.22
-10 2 2 1.26 0.34
-11 -2 -2 4.25 0.35
-11 2 -2 4.59 0.46
-11 -2 2 3.69 0.37
1 -3 2 132.89 3.84
-1 3 -2 132.11 3.77
2 -3 -2 19.13 0.56
-2 3 -2 18.97 0.57
2 -3 2 19.48 0.57
-4 -3 -2 21.7 0.64
-4 3 2 21.96 0.65
-4 -3 2 22.74 0.65
-4 3 -2 21.97 0.66
4 -3 -2 22.63 0.66
4 -3 2 21.98 0.66
-5 3 -2 73.82 2.13
-5 -3 -2 72.96 2.11
5 -3 -2 75.24 2.13
-5 -3 2 72.99 2.12
5 -3 2 75.74 2.13
-5 3 2 75.41 2.13
6 -3 -2 36.39 1.08
-6 -3 -2 37.68 1.07
-6 3 -2 37.48 1.09
-6 -3 2 35.43 1.07
6 -3 2 36.79 1.08
-6 3 2 36.46 1.08
7 -3 -2 50.53 1.46
-7 -3 2 49.1 1.46
-7 -3 -2 48.04 1.45
-7 3 2 52.59 1.47
-7 3 -2 51.35 1.48
7 -3 2 49.66 1.46
-8 -3 -2 10.98 0.38
-8 3 -2 11.27 0.43
-8 3 2 10.74 0.41
8 -3 2 10.96 0.38
-8 -3 2 10.54 0.38
8 -3 -2 10.29 0.38
-9 3 -2 11.1 0.48
-9 3 2 11.83 0.47
-9 -3 -2 11.37 0.42
-9 -3 2 12.06 0.43
9 -3 2 11.61 0.42
9 -3 -2 11.19 0.42
-10 -3 -2 11.47 0.44
10 -3 -2 11.43 0.44
-10 -3 2 10.76 0.44
-10 3 -2 11.21 0.53
-10 3 2 11.35 0.53
-11 3 2 11.17 0.63
-11 3 -2 8.4 0.62
-11 -3 -2 10.76 0.47
-11 -3 2 10.69 0.48
1 -4 2 52.19 1.5
2 -4 2 37.32 1.06
-2 4 -2 35.49 1.05
3 -4 2 65.82 1.97
-3 4 -2 71.36 1.97
3 -4 -2 69.55 1.96
-4 4 -2 19.66 0.58
4 -4 -2 18.95 0.57
4 -4 2 18.72 0.58
-5 4 2 57.15 1.63
-5 4 -2 56 1.64
-5 -4 -2 55.92 1.61
5 -4 -2 56.47 1.63
5 -4 2 57.27 1.64
-5 -4 2 57.35 1.62
-6 4 -2 34.71 1.1
6 -4 -2 36.21 1.09
-6 -4 -2 36.71 1.07
-6 -4 2 37.48 1.08
-6 4 2 37.94 1.09
6 -4 2 38.49 1.09
-7 4 2 10.26 0.38
-7 -4 2 10.33 0.36
7 -4 2 10.71 0.37
7 -4 -2 10.6 0.38
8 -4 2 17.03 0.55
-8 4 2 17.1 0.58
-8 4 -2 17.08 0.59
-8 -4 2 17.85 0.55
-8 -4 -2 16.1 0.54
8 -4 -2 16.68 0.56
-9 4 -2 13.86 0.57
-9 -4 -2 15.04 0.5
9 -4 2 13.95 0.5
9 -4 -2 14.29 0.51
-9 4 2 16.42 0.57
-9 -4 2 14.67 0.5
10 -4 2 0.2 0.25
10 -4 -2 0.2 0.24
-10 -4 2 0.31 0.25
-10 4 2 0.19 0.39
-10 4 -2 -0.03 0.39
-10 -4 -2 0.26 0.23
1 -5 2 11.59 0.36
2 -5 2 69.08 1.98
3 -5 2 31.28 0.9
3 -5 -2 29.62 0.88
4 -5 2 12.17 0.4
4 -5 -2 12.27 0.39
-4 5 -2 12.52 0.39
5 -5 -2 16.32 0.51
-5 5 -2 16.17 0.52
-5 -5 2 17.15 0.5
5 -5 2 15.9 0.52
6 -5 2 80.16 2.24
-6 -5 -2 78.35 2.22
-6 -5 2 79.02 2.22
-6 5 -2 77.39 2.25
6 -5 -2 74.56 2.24
-7 5 -2 3.28 0.26
7 -5 -2 3.11 0.21
7 -5 2 3.49 0.21
-7 -5 -2 3.19 0.17
-7 -5 2 3.41 0.18
-7 5 2 3.63 0.22
8 -5 2 28.52 0.86
-8 -5 -2 27.12 0.83
8 -5 -2 27.54 0.86
-8 5 -2 28.2 0.9
-8 5 2 27.7 0.87
-8 -5 2 27.51 0.84
-9 -5 2 0.76 0.2
9 -5 2 0.59 0.22
-9 -5 -2 0.76 0.2
9 -5 -2 0.66 0.23
-9 5 -2 0.96 0.35
-9 5 2 0.75 0.31
-10 -5 2 1.21 0.26
10 -5 -2 1.19 0.27
-10 5 2 1.18 0.44
-10 -5 -2 1 0.25
10 -5 2 1.39 0.26
-10 5 -2 1.05 0.46
1 -6 2 20.25 0.6
2 -6 2 98.24 2.8
3 -6 -2 68.05 1.96
3 -6 2 69.6 1.98
4 -6 -2 28.82 0.83
4 -6 2 27.14 0.84
-5 6 -2 24.74 0.75
5 -6 2 26.19 0.77
5 -6 -2 24.62 0.76
6 -6 2 22.4 0.72
-6 -6 2 23.56 0.69
6 -6 -2 22.8 0.71
-6 -6 -2 22.16 0.68
-6 6 -2 23.66 0.71
7 -6 2 8.49 0.35
-7 -6 2 9.29 0.32
7 -6 -2 9.27 0.36
-7 -6 -2 9.35 0.31
-7 6 -2 8.29 0.38
8 -6 -2 22.66 0.73
-8 -6 2 22.84 0.7
-8 6 -2 22.31 0.76
-8 -6 -2 22.51 0.69
8 -6 2 23.01 0.73
9 -6 -2 8.22 0.4
-9 6 -2 9.69 0.53
9 -6 2 9.05 0.39
-9 -6 2 8.9 0.36
-10 -6 2 -0.02 0.27
-10 6 -2 0.3 0.52
1 -7 2 17.51 0.53
2 -7 2 37.22 1.09
3 -7 2 54.26 1.58
4 -7 2 16.63 0.52
4 -7 -2 15.17 0.5
5 -7 -2 18.24 0.59
5 -7 2 18.53 0.6
6 -7 -2 15.65 0.55
-6 -7 2 16.79 0.51
6 -7 2 17 0.56
7 -7 2 15.12 0.52
7 -7 -2 14.65 0.52
-7 -7 2 14.15 0.47
-7 -7 -2 14.16 0.46
-8 -7 -2 7.71 0.3
8 -7 2 7.72 0.36
-8 7 -2 8 0.41
8 -7 -2 7.49 0.37
-8 -7 2 7.89 0.32
-9 -7 -2 27.65 0.89
-9 -7 2 30.9 0.9
-9 7 -2 29.85 0.98
9 -7 -2 27.85 0.95
9 -7 2 29.31 0.93
1 -8 2 146.83 4.17
2 -8 2 18.81 0.59
3 -8 2 25.85 0.8
4 -8 -2 0.29 0.14
4 -8 2 0.12 0.19
5 -8 2 11.77 0.44
5 -8 -2 11.83 0.43
6 -8 2 11.58 0.45
6 -8 -2 11.67 0.44
7 -8 -2 17.89 0.65
-7 -8 2 19.05 0.6
7 -8 2 19.81 0.67
-7 -8 -2 19.64 0.59
8 -8 2 13.33 0.53
-8 -8 2 14.59 0.48
-8 -8 -2 13.73 0.47
8 -8 -2 14.17 0.54
-9 -8 2 2.61 0.26
-9 -8 -2 2.63 0.24
2 -9 2 38.51 1.15
3 -9 2 7.6 0.33
4 -9 2 3.31 0.26
4 -9 -2 2.93 0.21
5 -9 2 0.26 0.22
5 -9 -2 0.12 0.22
6 -9 2 7.23 0.37
6 -9 -2 6.36 0.37
-7 -9 2 25.33 0.79
-7 -9 -2 25.85 0.77
7 -9 2 27.64 0.87
7 -9 -2 24.2 0.85
8 -9 2 13.24 0.56
-8 -9 2 12.84 0.46
-8 -9 -2 12.72 0.45
8 -9 -2 12.29 0.55
2 -10 2 6.85 0.33
3 -10 2 1.91 0.27
4 -10 2 1.46 0.27
4 -10 -2 1.23 0.23
5 -10 -2 11.55 0.46
5 -10 2 10.63 0.48
6 -10 2 6.84 0.4
6 -10 -2 6.67 0.44
-7 -10 2 1.68 0.23
7 -10 -2 2.09 0.39
7 -10 2 2.07 0.4
2 -11 2 11.29 0.47
3 -11 2 1.47 0.33
4 -11 2 7.17 0.43
4 -11 -2 7.56 0.4
5 -11 2 5.24 0.41
5 -11 -2 4.96 0.37
6 -11 -2 3.23 0.45
6 -11 2 3.27 0.41
1 -12 2 40.96 1.26
2 -12 2 27.98 0.94
3 -12 2 48.25 1.51
4 -12 2 16.19 0.7
4 -12 -2 17.06 0.66
5 -12 2 13.86 0.66
2 -13 2 1.73 0.47
0 0 -3 -0.02 0.05
0 0 3 0.04 0.04
0 0 3 0.01 0.04
1 0 -3 116 3.22
1 0 3 107.79 3.25
-1 0 3 115.55 3.22
1 0 -3 114.77 3.28
-1 0 -3 112.68 3.21
2 0 3 107.25 3.23
-2 0 3 116.04 3.23
2 0 -3 118.85 3.31
-2 0 -3 114.74 3.23
3 0 -3 18.3 0.53
-3 0 3 17.42 0.52
-3 0 -3 17.7 0.53
4 0 -3 0.33 0.08
4 0 3 0.33 0.07
-4 0 -3 0.29 0.08
-4 0 3 0.3 0.08
-5 0 3 8.68 0.28
-5 0 -3 7.87 0.27
5 0 3 7.71 0.26
5 0 -3 8.26 0.27
6 0 3 13.74 0.41
-6 0 3 13.01 0.43
6 0 -3 13.81 0.42
-6 0 -3 12.97 0.43
-7 0 3 71.81 2.02
7 0 3 71.03 2
-7 0 -3 67.66 2.02
-8 0 3 0.03 0.17
8 0 3 -0.01 0.12
8 0 -3 0.16 0.14
-8 0 -3 0.16 0.17
-9 0 3 39.5 1.18
9 0 -3 39.46 1.15
-9 0 -3 38.78 1.18
9 0 3 37.85 1.13
-10 0 -3 10.31 0.46
-10 0 3 10.47 0.48
10 0 3 9.87 0.36
10 0 -3 10.89 0.39
11 0 3 4.51 0.23
-11 0 -3 4.76 0.41
-11 0 3 4.18 0.45
0 -1 3 27.85 0.79
0 -1 -3 27.26 0.79
0 1 -3 26.7 0.79
1 -1 -3 171.59 4.94
1 -1 -3 172.2 4.94
1 -1 3 172.54 4.96
-1 1 -3 174.68 4.89
-2 1 3 10.6 0.31
-2 -1 3 10.19 0.31
2 -1 -3 10.39 0.31
-2 1 -3 10.32 0.32
-2 1 3 10.27 0.32
2 -1 3 10.64 0.32
-2 -1 -3 10.32 0.31
4 -1 -3 307.28 8.39
-4 1 -3 296.27 8.27
4 1 3 288.58 8.34
-4 1 3 288.79 8.38
4 1 -3 299.42 8.35
4 -1 3 298.31 8.38
-4 -1 3 283.26 8.34
-4 -1 -3 284.7 8.33
5 1 3 28.35 0.81
5 -1 3 29.7 0.83
-5 1 -3 27.39 0.84
-5 -1 -3 29.6 0.83
-5 -1 3 27.36 0.83
5 -1 -3 28.72 0.83
5 1 -3 27.17 0.82
-5 1 3 27.87 0.83
6 -1 3 1.05 0.11
-6 -1 3 0.66 0.12
-6 -1 -3 0.94 0.12
-6 1 3 0.85 0.13
-6 1 -3 0.76 0.13
6 -1 -3 0.95 0.12
6 1 3 0.9 0.08
6 1 -3 1.03 0.11
7 -1 3 28.05 0.81
-7 1 -3 27.38 0.83
7 1 -3 28.21 0.81
7 1 3 25.72 0.8
-7 -1 -3 28.39 0.83
-7 1 3 27.43 0.83
7 -1 -3 27.33 0.82
-7 -1 3 27 0.83
-8 1 3 7.44 0.32
8 -1 3 7.33 0.28
-8 -1 3 7.4 0.31
-8 -1 -3 7.12 0.3
-8 1 -3 6.92 0.32
8 1 3 7.37 0.25
8 -1 -3 7.42 0.29
8 1 -3 7.74 0.28
9 -1 3 16.37 0.52
9 1 -3 15.95 0.51
-9 1 -3 15.13 0.56
-9 1 3 17.01 0.58
-9 -1 -3 16.09 0.55
9 1 3 15.95 0.49
9 -1 -3 16.09 0.53
-9 -1 3 17.26 0.56
10 -1 3 39.32 1.14
10 -1 -3 37.67 1.15
-10 -1 3 38.01 1.19
-10 -1 -3 38.42 1.18
-10 1 -3 39.8 1.2
10 1 -3 37.2 1.14
-10 1 3 40.23 1.21
-11 -1 3 3.65 0.4
-11 1 -3 3.35 0.39
-11 -1 -3 2.98 0.39
11 -1 3 3.7 0.25
-11 1 3 4.01 0.48
0 2 -3 231.94 6.41
0 -2 3 214.52 6.31
-1 -2 3 13.31 0.39
1 -2 3 12.46 0.39
-1 2 -3 12.4 0.39
2 -2 -3 127.74 3.59
-2 2 -3 126.08 3.51
2 -2 3 123.63 3.5
2 -2 -3 116.99 3.5
3 -2 -3 44.69 1.29
-3 2 -3 46.71 1.31
3 -2 3 45.63 1.3
-3 2 3 45.33 1.29
-3 2 3 44.69 1.3
-3 -2 -3 43.33 1.29
-3 -2 3 46.13 1.29
-4 2 -3 4.9 0.2
4 -2 3 4.9 0.18
4 -2 -3 5.21 0.19
-4 -2 3 5.07 0.18
-4 2 3 5.18 0.18
-4 -2 -3 4.49 0.17
-5 -2 -3 5.45 0.19
-5 2 3 4.58 0.2
-5 2 -3 5.31 0.22
5 -2 3 5.76 0.2
-5 -2 3 5.63 0.2
5 -2 -3 5.41 0.2
-7 2 -3 16.91 0.53
-7 2 3 14.97 0.51
7 -2 3 15.99 0.5
7 -2 -3 15.68 0.51
-7 -2 3 15.79 0.51
-7 -2 -3 15.98 0.5
-8 2 3 13.18 0.46
-8 2 -3 12.19 0.46
-8 -2 3 12.57 0.44
8 -2 -3 12.77 0.44
-8 -2 -3 13.1 0.44
8 -2 3 12.62 0.42
9 -2 -3 1.88 0.2
-9 2 3 1.75 0.28
9 -2 3 2.05 0.19
-9 2 -3 1.61 0.27
-9 -2 3 1.74 0.22
-9 -2 -3 2.13 0.21
-10 -2 3 3.82 0.31
10 -2 -3 4.33 0.28
10 -2 3 4.63 0.27
-10 2 -3 4.34 0.38
-10 2 3 4.39 0.41
-10 -2 -3 4.54 0.3
-11 2 -3 0.74 0.45
-11 -2 -3 0.97 0.32
-11 2 3 0.81 0.49
-11 -2 3 0.76 0.35
0 -3 3 39.39 1.14
-3 3 -3 56.89 1.69
3 -3 3 59.14 1.69
3 -3 -3 60.96 1.68
4 -3 3 5.62 0.22
-4 -3 -3 5.79 0.19
-4 3 3 6.04 0.2
-4 -3 3 5.92 0.21
4 -3 -3 5.68 0.21
-4 3 3 5.68 0.21
-4 3 -3 6.16 0.23
-5 3 3 173.91 4.78
5 -3 3 168.68 4.78
-5 3 -3 170.66 4.79
5 -3 -3 160.1 4.77
-5 -3 3 166.55 4.77
-5 -3 -3 172.78 4.77
-6 -3 3 8.97 0.31
-6 3 3 8.52 0.32
-6 3 -3 9.06 0.34
6 -3 -3 9.34 0.32
6 -3 3 8.59 0.31
-7 -3 -3 13.89 0.42
-7 -3 3 13.12 0.43
7 -3 3 13.2 0.43
7 -3 -3 12.71 0.43
-7 3 -3 11.89 0.46
-7 3 3 13.5 0.45
8 -3 3 40.68 1.18
-8 3 3 41.71 1.2
-8 3 -3 39.85 1.21
-8 -3 3 38.63 1.18
8 -3 -3 37.73 1.18
-8 -3 -3 40.43 1.17
9 -3 -3 2.39 0.23
-9 -3 -3 1.93 0.22
-9 3 3 2.55 0.29
-9 3 -3 2.47 0.32
-9 -3 3 2.18 0.23
9 -3 3 2.4 0.21
-10 3 -3 1.25 0.38
10 -3 -3 1.4 0.24
-10 3 3 0.91 0.36
10 -3 3 1.43 0.23
-10 -3 3 0.81 0.26
-10 -3 -3 0.98 0.25
0 -4 3 131.82 3.74
1 -4 3 3.76 0.16
-2 4 -3 13.37 0.41
2 -4 3 12.79 0.41
3 -4 3 169.97 4.96
-3 4 -3 184.07 4.96
3 -4 -3 171.67 5.05
-4 4 -3 25.88 0.77
-4 -4 3 25.81 0.75
4 -4 3 25.86 0.77
4 -4 -3 25.66 0.76
5 -4 3 0.88 0.13
-5 4 -3 0.12 0.14
-5 -4 -3 0.68 0.08
5 -4 -3 0.65 0.11
-5 -4 3 0.57 0.11
-6 4 -3 10.55 0.39
6 -4 3 10.67 0.37
-6 4 3 10.54 0.37
-6 -4 -3 10.84 0.35
-6 -4 3 11.11 0.37
6 -4 -3 11.69 0.38
-6 4 3 10.99 0.37
-7 4 -3 6.93 0.33
7 -4 -3 7.01 0.3
7 -4 3 7.81 0.29
-7 -4 -3 7.71 0.27
-7 4 3 7.3 0.3
-7 -4 3 7.45 0.28
-8 4 3 3.42 0.27
8 -4 3 3.57 0.21
-8 4 -3 3.61 0.29
8 -4 -3 3.34 0.23
-8 -4 -3 3.34 0.2
-8 -4 3 3.37 0.22
-9 -4 -3 4.78 0.26
-9 -4 3 4.31 0.27
9 -4 -3 4.55 0.28
-9 4 3 4.92 0.36
-9 4 -3 4.37 0.36
9 -4 3 4.73 0.27
-10 -4 3 8.57 0.39
10 -4 -3 8.48 0.39
10 -4 3 7.96 0.37
-10 4 3 8.4 0.52
-10 -4 -3 8.46 0.38
-10 4 -3 7.92 0.51
0 -5 3 -0.02 0.1
1 -5 3 77.08 2.2
2 -5 3 19.54 0.6
3 -5 -3 70.14 2
-3 5 -3 70.72 2.01
3 -5 3 69.61 2.02
-4 5 -3 9.87 0.34
4 -5 3 9.67 0.34
4 -5 -3 10.58 0.33
5 -5 3 9.52 0.34
-5 -5 3 10.03 0.32
5 -5 -3 9.35 0.33
-5 5 -3 9.25 0.35
6 -5 -3 9.67 0.35
-6 -5 -3 10.08 0.32
-6 -5 3 9.62 0.34
-6 5 -3 10.31 0.39
6 -5 3 9.82 0.36
-7 -5 3 4.07 0.21
7 -5 3 4.14 0.23
-7 -5 -3 3.77 0.19
7 -5 -3 4.29 0.25
-7 5 -3 4.44 0.29
-8 5 -3 5.21 0.35
-8 -5 3 5.45 0.26
8 -5 3 5.94 0.28
-8 -5 -3 5.46 0.24
8 -5 -3 5.21 0.29
-8 5 3 5.37 0.31
-8 5 3 5.81 0.28
-9 5 3 11.33 0.5
9 -5 3 11.79 0.44
-9 -5 -3 11.84 0.42
-9 -5 3 11.47 0.43
-9 5 -3 10.79 0.54
9 -5 -3 11.34 0.45
10 -5 3 16.23 0.56
-10 5 3 15.62 0.68
10 -5 -3 15.59 0.58
-10 -5 -3 16.03 0.56
-10 5 -3 16.54 0.73
-10 -5 3 15.81 0.57
1 -6 3 2.02 0.14
2 -6 3 31.63 0.94
3 -6 3 177.51 5.03
-4 6 -3 66.73 1.87
4 -6 -3 65.45 1.87
4 -6 3 63.29 1.88
-5 6 -3 11.03 0.39
5 -6 -3 11.48 0.39
5 -6 3 11.39 0.4
-6 -6 -3 4.56 0.18
6 -6 3 4.68 0.26
6 -6 -3 4.5 0.24
-6 -6 3 4.71 0.21
-6 6 -3 4.53 0.26
7 -6 3 6.2 0.28
-7 -6 -3 5.79 0.23
-7 6 -3 5.91 0.33
-7 -6 3 5.58 0.25
7 -6 -3 5.44 0.29
8 -6 -3 9.58 0.41
-8 6 -3 9.28 0.46
8 -6 3 9.51 0.39
-8 -6 3 9.47 0.36
-8 -6 -3 9.22 0.34
-9 6 -3 7.05 0.49
-9 -6 3 7.18 0.33
-9 -6 -3 7.2 0.32
9 -6 -3 6.94 0.37
9 -6 3 7.71 0.36
-10 6 -3 19.19 0.87
1 -7 3 98.67 2.82
2 -7 3 124.25 3.54
3 -7 3 51.04 1.49
4 -7 3 7.65 0.31
4 -7 -3 8.06 0.29
5 -7 3 50.64 1.44
5 -7 -3 46.78 1.42
-6 -7 3 10.84 0.37
6 -7 3 10.89 0.42
6 -7 -3 11.2 0.41
7 -7 -3 11.78 0.46
7 -7 3 12.63 0.47
-7 -7 -3 12.44 0.4
-7 -7 3 12.47 0.42
-7 7 -3 12.48 0.48
-8 -7 -3 16.99 0.57
-8 -7 3 19.2 0.59
8 -7 3 18.75 0.62
8 -7 -3 17.4 0.64
-8 7 -3 17.99 0.67
-9 7 -3 2.94 0.46
-9 -7 -3 2.94 0.25
-9 -7 3 3.3 0.26
9 -7 3 3.47 0.31
9 -7 -3 3.01 0.33
1 -8 3 10.61 0.38
2 -8 3 4.11 0.23
3 -8 3 21.17 0.68
4 -8 -3 9.05 0.33
4 -8 3 9.39 0.38
5 -8 -3 8.4 0.35
5 -8 3 8.13 0.35
6 -8 -3 7.68 0.35
6 -8 3 7.75 0.35
-7 -8 3 1.38 0.19
-7 -8 -3 1.1 0.16
7 -8 -3 1.35 0.26
7 -8 3 1.26 0.27
-8 -8 -3 1.95 0.2
8 -8 3 1.84 0.29
-8 -8 3 1.73 0.22
8 -8 -3 1.54 0.31
-9 -8 -3 5.96 0.31
1 -9 3 37.2 1.12
2 -9 3 53.95 1.59
3 -9 3 3.95 0.26
4 -9 3 1.76 0.25
4 -9 -3 1.8 0.18
5 -9 3 21.38 0.7
5 -9 -3 20.11 0.68
6 -9 3 3.7 0.32
6 -9 -3 3.69 0.31
7 -9 3 3.36 0.37
7 -9 -3 3.46 0.36
-7 -9 3 3.57 0.26
-8 -9 -3 20.89 0.66
8 -9 -3 20.18 0.76
8 -9 3 21 0.76
-8 -9 3 21.36 0.68
1 -10 3 6.14 0.32
2 -10 3 0.07 0.24
3 -10 3 2.57 0.28
4 -10 -3 3.98 0.25
4 -10 3 4.01 0.32
5 -10 -3 5.14 0.34
5 -10 3 5.15 0.36
6 -10 -3 44.02 1.31
6 -10 3 39.89 1.31
7 -10 -3 17.22 0.67
7 -10 3 16.38 0.67
-7 -10 3 16.03 0.55
0 -11 3 0.01 0.28
1 -11 3 14.33 0.55
2 -11 3 10.43 0.47
3 -11 3 3.45 0.36
4 -11 -3 37.67 1.15
4 -11 3 37.57 1.21
5 -11 -3 8.31 0.44
5 -11 3 7.7 0.47
6 -11 -3 1.19 0.44
6 -11 3 1.24 0.39
0 -12 3 2.03 0.4
1 -12 3 11.42 0.53
2 -12 3 0.91 0.37
4 -12 -3 1.9 0.36
4 -12 3 2.24 0.45
0 -13 3 -0.26 0.47
1 -13 3 14.22 0.68
2 -13 3 3.61 0.53
0 0 4 325.96 9.25
-2 0 4 18.1 0.54
-2 0 4 18.27 0.56
-2 0 -4 18.77 0.55
2 0 -4 19.01 0.55
2 0 4 18.69 0.54
-3 0 -4 22.14 0.66
-3 0 4 22.11 0.67
3 0 -4 22.19 0.65
-3 0 4 23.08 0.66
3 0 4 22.12 0.65
4 0 -4 18.93 0.56
4 0 4 18.72 0.55
-4 0 4 17.72 0.56
-4 0 -4 19.12 0.56
5 0 -4 11.24 0.37
5 0 4 11.6 0.36
-5 0 -4 11.43 0.37
-5 0 4 12.01 0.37
-6 0 4 22.03 0.67
-6 0 -4 21.97 0.67
6 0 -4 22.55 0.67
6 0 4 21.86 0.65
-7 0 4 6.16 0.26
7 0 4 6.24 0.23
7 0 -4 7 0.25
-7 0 -4 6.38 0.27
-8 0 -4 21.84 0.7
-8 0 4 22.42 0.7
-9 0 -4 20.33 0.66
9 0 -4 18.56 0.62
-9 0 4 20.27 0.67
9 0 4 19.84 0.6
10 0 -4 9.35 0.37
-10 0 -4 8.73 0.42
-10 0 4 9.51 0.46
10 0 4 8.44 0.32
-11 0 4 0 0.44
0 -1 -4 355.4 10
0 1 -4 352.85 9.98
0 -1 4 355.04 10
0 -1 -4 341.52 9.97
1 -1 -4 233.1 6.5
1 -1 -4 220.05 6.43
-1 1 -4 230.27 6.52
-1 -1 4 222.76 6.47
-1 1 4 226.08 6.51
1 -1 4 233.67 6.5
-2 1 4 176.33 5.05
-2 1 4 168.67 5.09
2 -1 -4 178.47 5.04
-2 1 -4 188.81 5.05
-2 -1 4 180.66 5.05
2 -1 4 180.2 5.12
-2 -1 -4 175.53 5.1
-2 -1 4 179.42 5.11
-3 -1 -4 150.77 4.28
3 -1 4 151.8 4.38
3 -1 -4 147.66 4.28
-3 1 4 155.4 4.38
-3 -1 4 152.53 4.28
-3 1 4 151.41 4.29
-4 -1 4 15.88 0.47
4 -1 -4 15.49 0.47
4 -1 4 15.33 0.47
-4 1 -4 15.87 0.48
-4 -1 -4 15.27 0.47
5 1 -4 1.19 0.11
-5 -1 4 1.26 0.12
5 -1 -4 1.32 0.11
-5 -1 -4 1.2 0.11
-5 1 4 1.21 0.12
-5 1 -4 1.09 0.13
5 -1 4 1.22 0.1
6 -1 -4 50.32 1.39
-6 -1 4 48.58 1.4
-6 1 4 48.98 1.4
-6 -1 -4 50.48 1.39
6 -1 4 46.29 1.38
6 1 -4 46.06 1.38
-6 1 -4 45.64 1.4
-7 -1 -4 1.22 0.15
-7 -1 4 1.11 0.16
7 -1 -4 1.3 0.15
-7 1 4 1.13 0.18
-7 1 -4 1.21 0.17
7 -1 4 1.04 0.14
7 1 -4 1.14 0.14
-8 1 -4 44.61 1.4
8 1 -4 48 1.38
-8 -1 -4 47.76 1.39
-8 1 4 50.17 1.41
8 -1 4 48 1.37
8 -1 -4 46.94 1.38
-8 -1 4 46.01 1.4
-9 -1 4 20.21 0.68
-9 1 -4 20.16 0.68
9 -1 4 19.99 0.63
-9 1 4 22.63 0.7
9 1 -4 19.75 0.63
9 -1 -4 19.86 0.65
-9 -1 -4 20.57 0.67
-10 1 -4 0.01 0.29
-10 -1 -4 0.19 0.28
10 -1 4 0.14 0.18
-10 1 4 -0.06 0.34
-10 -1 4 0.2 0.29
10 -1 -4 0.13 0.21
-11 1 4 13.27 0.67
0 2 -4 837.99 22.84
0 -2 4 773.83 22.78
1 -2 -4 57.03 1.68
1 -2 -4 60.19 1.68
-1 -2 4 59.2 1.69
1 -2 4 56.57 1.69
-1 2 -4 61.83 1.69
2 -2 -4 11.13 0.34
-2 -2 4 11.06 0.34
2 -2 4 11.04 0.35
2 -2 -4 11.16 0.35
-3 2 4 68.36 1.94
-3 -2 4 65.72 1.94
3 -2 4 70.45 1.94
-3 2 -4 68.48 1.95
-3 -2 -4 66.27 1.93
3 -2 -4 69.6 1.94
-3 2 4 67.73 1.94
-4 2 -4 14.99 0.48
4 -2 -4 14.71 0.47
-4 -2 4 15.72 0.47
-4 2 4 15.23 0.47
-4 2 4 15.35 0.46
-4 -2 -4 15.91 0.46
5 -2 -4 11.23 0.36
-5 2 -4 10.46 0.37
-5 2 4 10.97 0.36
-5 -2 4 11.14 0.36
5 -2 4 11.3 0.36
-5 -2 -4 10.94 0.35
-6 -2 4 77.15 2.25
-6 -2 -4 80.21 2.25
6 -2 4 76.94 2.25
-6 2 -4 79.62 2.27
6 -2 -4 79.4 2.26
-6 2 4 78.98 2.26
-7 2 4 30.7 0.91
-7 2 -4 29.62 0.92
7 -2 -4 30.38 0.9
7 -2 4 30.77 0.9
-7 -2 -4 29.3 0.9
-7 -2 4 29.98 0.91
8 -2 -4 5.37 0.26
-8 -2 -4 6.2 0.26
-8 2 -4 5.28 0.3
8 -2 4 5.25 0.24
-8 -2 4 5.38 0.27
-8 2 4 5.46 0.29
-9 2 -4 20.42 0.68
-9 2 4 18.53 0.67
-9 -2 4 19.16 0.65
9 -2 -4 19.58 0.63
-9 -2 -4 18.97 0.63
9 -2 4 20.27 0.62
-10 2 -4 7.66 0.45
-10 -2 4 6.97 0.39
-10 -2 -4 7.81 0.37
-10 2 4 7.44 0.47
10 -2 4 8.48 0.34
10 -2 -4 8.25 0.36
0 -3 4 289.68 8.32
1 -3 4 136.6 3.93
-1 3 -4 138.98 3.93
-1 -3 4 140.22 3.93
-2 3 -4 3.17 0.15
2 -3 -4 3.04 0.13
2 -3 4 3.02 0.15
2 -3 -4 3.22 0.12
3 -3 -4 22.46 0.66
3 -3 4 21.69 0.67
-3 3 -4 22.59 0.67
-3 -3 4 22.46 0.66
-4 -3 4 4.92 0.19
-4 -3 -4 4.99 0.17
-4 3 4 4.91 0.18
4 -3 4 5.02 0.2
4 -3 -4 5.28 0.19
-4 3 -4 5.12 0.22
5 -3 -4 99.21 2.79
-5 3 4 96.04 2.78
5 -3 4 94.34 2.79
-5 -3 4 97.68 2.78
-5 3 4 98.6 2.78
-5 3 -4 101.42 2.8
-5 -3 -4 97.34 2.77
-6 -3 4 29.59 0.89
-6 3 4 29.57 0.89
-6 3 4 29.03 0.89
6 -3 4 28.3 0.88
-6 3 -4 29.11 0.91
-6 -3 -4 32.73 0.88
6 -3 -4 30.3 0.89
-7 -3 -4 44.32 1.31
-7 3 -4 45.39 1.34
7 -3 4 46.28 1.31
7 -3 -4 45.47 1.32
-7 3 4 44.45 1.32
-7 -3 4 43.57 1.31
8 -3 -4 2.98 0.22
-8 3 -4 2.53 0.28
-8 -3 4 2.79 0.22
-8 3 4 3 0.26
8 -3 4 3.2 0.2
-8 -3 -4 3.46 0.21
-9 -3 -4 9.21 0.36
-9 3 4 9.45 0.44
9 -3 -4 8.96 0.37
9 -3 4 9.33 0.36
-9 3 -4 8.8 0.46
-9 -3 4 8.78 0.38
-10 -3 4 9.77 0.44
-10 -3 -4 9.64 0.42
-10 3 4 9.62 0.53
-10 3 -4 10.09 0.54
10 -3 4 9.21 0.39
10 -3 -4 9.96 0.41
0 -4 4 212.92 6.02
-1 -4 4 103.25 2.9
-1 4 -4 100.96 2.89
1 -4 4 100.57 2.89
-2 4 -4 315.31 8.84
2 -4 4 303.03 8.72
-3 4 -4 14.27 0.47
3 -4 4 14.86 0.46
3 -4 -4 14.77 0.44
-4 4 -4 61.59 1.75
4 -4 -4 60.64 1.73
4 -4 4 60.37 1.74
-4 -4 4 58.75 1.72
-5 -4 -4 42.48 1.27
-5 -4 4 45.36 1.28
5 -4 -4 45.67 1.29
-5 4 -4 44.23 1.31
5 -4 4 43.74 1.29
6 -4 4 68.78 1.98
-6 4 4 67.48 1.97
-6 -4 4 69 1.98
6 -4 -4 67.9 1.98
-6 -4 -4 69.08 1.96
-6 4 4 70.19 1.97
-6 4 -4 68.92 2
-7 4 4 0.68 0.19
7 -4 4 0.68 0.16
-7 4 -4 0.72 0.22
7 -4 -4 0.62 0.18
-7 -4 -4 0.71 0.14
-7 -4 4 0.64 0.15
-7 4 4 0.82 0.18
-8 4 4 26.33 0.84
-8 -4 4 28.57 0.84
8 -4 -4 27.3 0.84
-8 4 -4 25.85 0.88
-8 4 4 28.57 0.86
8 -4 4 26.94 0.83
-8 -4 -4 27.39 0.83
9 -4 -4 2.1 0.25
-9 -4 -4 1.98 0.23
9 -4 4 1.89 0.22
-9 4 4 1.63 0.33
-9 4 -4 1.39 0.33
-9 -4 4 1.69 0.25
10 -4 -4 0.16 0.29
-10 4 4 0.37 0.44
-10 4 -4 0.14 0.42
-10 -4 4 0.05 0.27
-10 -4 -4 -0.13 0.25
10 -4 4 0.07 0.23
0 -5 4 14.26 0.46
1 -5 4 20.76 0.63
-2 5 -4 143.97 4.11
2 -5 4 145.98 4.12
3 -5 -4 8.64 0.28
-3 5 -4 8.68 0.31
3 -5 4 8.48 0.31
4 -5 4 390.7 11.19
5 -5 -4 41.87 1.22
-5 -5 4 42.11 1.21
5 -5 4 42.57 1.22
-5 5 -4 39.47 1.23
-6 -5 -4 57.52 1.64
6 -5 -4 58.37 1.68
6 -5 4 59.08 1.68
-6 -5 4 58.64 1.66
-6 5 -4 54.01 1.69
-7 -5 -4 3.46 0.18
7 -5 -4 3.47 0.24
-7 -5 4 3.72 0.21
-7 5 -4 3.65 0.29
7 -5 4 3.47 0.22
-8 -5 4 3.73 0.22
-8 -5 -4 3.36 0.21
8 -5 -4 3.67 0.26
-8 5 -4 3.04 0.33
8 -5 4 3.46 0.24
9 -5 -4 4.14 0.31
-9 5 -4 5.01 0.44
-9 -5 -4 5.08 0.27
9 -5 4 4.94 0.29
-9 -5 4 5.05 0.29
-10 5 -4 47.84 1.56
-10 -5 4 50.37 1.46
-10 5 4 50.99 1.51
-10 5 4 44.36 1.44
0 -6 4 11.79 0.4
1 -6 4 67.42 1.94
2 -6 4 125.59 3.58
-3 6 -4 7.78 0.29
3 -6 4 8 0.31
3 -6 -4 8.12 0.27
4 -6 -4 91.04 2.5
-4 6 -4 88.03 2.51
4 -6 4 83.4 2.51
5 -6 4 2.18 0.19
-5 6 -4 2.65 0.22
5 -6 -4 2.01 0.17
6 -6 4 2.56 0.22
-6 6 -4 2.53 0.25
6 -6 -4 2.21 0.2
-6 -6 4 2.48 0.17
-6 -6 -4 2.3 0.14
7 -6 -4 17.68 0.6
-7 6 -4 17 0.61
-7 -6 4 17.1 0.56
-7 -6 -4 17.08 0.54
7 -6 4 18.22 0.58
8 -6 -4 1.59 0.26
-8 -6 -4 1.39 0.18
8 -6 4 0.96 0.23
-8 6 -4 1.26 0.35
-8 -6 4 1.39 0.2
9 -6 -4 31.62 0.98
9 -6 4 30.66 0.96
-9 -6 4 30.82 0.95
-9 -6 -4 30.58 0.93
-9 6 -4 29.07 1.05
0 -7 4 44.99 1.32
1 -7 4 24.54 0.76
2 -7 4 82.03 2.36
3 -7 4 24.73 0.77
4 -7 -4 85.33 2.45
4 -7 4 86.31 2.48
5 -7 -4 26.85 0.82
5 -7 4 26.8 0.84
-5 7 -4 27.13 0.82
6 -7 -4 4.73 0.26
-6 -7 4 4.64 0.23
6 -7 4 4.09 0.27
-6 7 -4 4.24 0.3
7 -7 -4 11.86 0.46
7 -7 4 10.92 0.46
-7 -7 4 11.68 0.41
-7 7 -4 12.47 0.5
-7 -7 -4 12.19 0.39
-8 -7 -4 7.03 0.3
-8 7 -4 6.86 0.46
8 -7 -4 7.61 0.41
-8 -7 4 7.17 0.33
8 -7 4 6.9 0.35
-9 -7 4 22.48 0.76
-9 -7 -4 22.88 0.74
9 -7 4 23.63 0.78
9 -7 -4 24.38 0.81
-9 7 -4 23.87 0.91
0 -8 4 287.68 8.14
1 -8 4 8.24 0.33
2 -8 4 10.07 0.39
3 -8 4 33.17 1.01
4 -8 4 13.47 0.52
4 -8 -4 16.08 0.48
5 -8 -4 5.96 0.29
5 -8 4 5.43 0.31
6 -8 -4 87.52 2.64
6 -8 4 95.73 2.65
-6 -8 4 90.73 2.61
7 -8 -4 0.47 0.27
-7 -8 4 0.55 0.19
7 -8 4 0.51 0.28
-7 -8 -4 0.44 0.15
8 -8 4 0.18 0.28
8 -8 -4 0.39 0.33
-8 -8 4 0.12 0.22
-8 -8 -4 0.25 0.18
0 -9 4 60.81 1.78
1 -9 4 24.51 0.78
2 -9 4 50.32 1.5
3 -9 4 1.51 0.24
4 -9 4 0.55 0.26
4 -9 -4 0.46 0.18
5 -9 4 7.83 0.38
5 -9 -4 8.37 0.37
6 -9 -4 9.61 0.43
6 -9 4 8.7 0.43
7 -9 -4 3.54 0.37
-7 -9 4 3.42 0.27
7 -9 4 3.26 0.37
-8 -9 -4 29.65 0.89
0 -10 4 6.84 0.37
1 -10 4 17.89 0.63
2 -10 4 29.65 0.95
3 -10 4 4.63 0.35
4 -10 -4 12.87 0.46
4 -10 4 12.79 0.53
5 -10 4 4.73 0.38
5 -10 -4 4.94 0.36
6 -10 4 1.38 0.34
6 -10 -4 1.19 0.35
-7 -10 4 4.43 0.3
7 -10 4 4.39 0.43
0 -11 4 13.49 0.56
1 -11 4 9.32 0.46
2 -11 4 6.78 0.44
3 -11 4 32.66 1.07
4 -11 4 12.9 0.58
5 -11 -4 0.32 0.37
5 -11 4 -0.23 0.38
6 -11 4 17.81 0.73
0 -12 4 2.06 0.41
1 -12 4 5.12 0.45
-1 -12 4 4.63 0.47
3 -12 4 7.91 0.54
4 -12 4 22.68 0.88
0 -13 4 9.05 0.63
1 -13 4 2.24 0.53
2 -13 4 6.61 0.61
0 0 5 0.02 0.06
0 0 -5 0.05 0.08
0 0 5 0.03 0.07
-1 0 5 7.29 0.25
-1 0 -5 7.3 0.25
1 0 -5 7.56 0.26
-1 0 5 7.6 0.24
1 0 5 7.69 0.24
2 0 5 19.65 0.58
2 0 -5 19.92 0.59
-2 0 5 20.1 0.6
-2 0 -5 19.91 0.59
-3 0 -5 11.56 0.35
3 0 -5 10.49 0.34
3 0 5 10.61 0.33
-3 0 5 10.8 0.34
-3 0 5 10.38 0.35
4 0 -5 16.31 0.49
-4 0 5 15.47 0.49
4 0 5 15.83 0.47
-4 0 -5 15.67 0.49
-4 0 5 16.25 0.51
-5 0 -5 0.15 0.11
5 0 -5 0.12 0.11
-5 0 5 0.24 0.11
5 0 5 0.19 0.08
6 0 -5 42.88 1.23
-6 0 5 42.5 1.23
6 0 5 40.36 1.21
-6 0 -5 42.35 1.23
7 0 -5 2.07 0.17
-7 0 5 2.11 0.19
7 0 5 2.38 0.14
-7 0 -5 2.08 0.18
-8 0 5 0.69 0.21
-8 0 -5 0.98 0.19
8 0 -5 1.07 0.18
8 0 5 0.77 0.13
9 0 5 10.96 0.36
-9 0 -5 10.66 0.43
9 0 -5 11.29 0.4
-9 0 5 10.69 0.45
10 0 -5 1.95 0.25
-10 0 5 2.5 0.37
-10 0 -5 2.15 0.3
0 -1 5 148.14 4.22
0 -1 -5 150.09 4.26
0 -1 -5 147.32 4.21
0 1 -5 150.21 4.22
-1 -1 5 28.32 0.84
1 1 -5 28.13 0.84
-1 1 5 28.87 0.83
1 -1 -5 28.89 0.84
1 -1 5 28.59 0.83
1 -1 -5 29.06 0.83
-1 -1 -5 28.39 0.83
-1 1 5 28.27 0.82
-1 -1 5 28.42 0.83
-1 1 -5 29.07 0.84
-2 1 5 3.81 0.14
-2 1 -5 4.01 0.17
-2 -1 5 4.77 0.16
2 -1 5 3.79 0.15
-2 -1 -5 3.91 0.15
-2 1 5 3.71 0.15
2 -1 -5 3.89 0.15
3 -1 -5 127.69 3.51
-3 1 5 118.49 3.51
-3 -1 5 124.94 3.51
-3 -1 -5 121.46 3.51
3 -1 5 125.67 3.51
-3 1 -5 122.93 3.52
-3 -1 5 126.66 3.53
-3 1 5 123.37 3.51
-4 1 5 29.24 0.85
-4 1 -5 29 0.86
4 -1 -5 28.93 0.85
-4 1 5 28.86 0.86
-4 -1 5 28.8 0.85
-4 -1 -5 28.98 0.85
4 -1 5 28.07 0.84
6 -1 5 27.22 0.81
-6 -1 -5 26.73 0.82
6 -1 -5 28 0.83
-6 -1 5 28.86 0.83
-6 1 5 26.96 0.83
-6 1 -5 27.67 0.84
-7 1 -5 1.18 0.19
-7 1 5 1.09 0.18
-7 -1 5 0.79 0.17
7 -1 5 1.09 0.13
7 1 -5 0.98 0.14
-7 -1 -5 0.96 0.17
7 -1 -5 1.15 0.16
8 -1 5 5.1 0.23
8 1 -5 4.89 0.23
-8 1 -5 5.3 0.29
8 -1 -5 5.61 0.26
-8 -1 -5 5.17 0.27
-8 1 5 5.05 0.29
-8 -1 5 5.15 0.28
9 -1 -5 51.96 1.5
-9 1 5 53.16 1.54
-9 1 -5 48.95 1.53
-9 -1 5 48.9 1.52
-9 -1 -5 52.41 1.52
9 -1 5 50.94 1.48
-10 1 -5 13.81 0.59
10 -1 -5 15.03 0.52
10 -1 5 15.14 0.49
-10 -1 -5 14.78 0.57
-10 1 5 15.68 0.63
0 -2 -5 134.78 3.8
0 -2 5 134.68 3.8
0 2 -5 133.4 3.81
0 -2 -5 133.77 3.8
1 -2 -5 79 2.25
-1 2 -5 80.1 2.27
-1 -2 -5 81.54 2.25
1 -2 5 81.12 2.26
-1 -2 5 79.31 2.27
-1 -2 -5 75.62 2.25
1 -2 -5 77.97 2.25
2 -2 -5 16.12 0.5
2 -2 -5 16.51 0.49
-2 -2 5 16.39 0.49
-2 -2 5 16.69 0.51
-2 2 -5 16.36 0.51
-3 -2 5 23.81 0.73
-3 2 5 22.56 0.7
-3 2 -5 23.58 0.72
-3 2 5 25.56 0.69
-3 -2 5 24.3 0.7
-3 -2 -5 24.21 0.69
3 -2 5 23.06 0.7
3 -2 -5 23.5 0.7
-4 2 5 4.44 0.18
4 -2 5 4.56 0.18
4 -2 -5 4.44 0.18
-4 2 -5 4.16 0.2
-4 -2 -5 4.11 0.17
-4 2 5 4.07 0.17
-4 -2 5 4.71 0.19
-5 2 5 31.44 0.9
-5 -2 5 30.7 0.91
5 -2 -5 31.22 0.91
-5 2 -5 29.94 0.92
-5 -2 -5 30.02 0.9
-5 2 5 30.23 0.91
5 -2 5 31.17 0.9
6 -2 5 67.82 1.91
-6 2 5 68.93 1.92
-6 2 5 63.46 1.92
-6 -2 -5 65.94 1.91
-6 -2 5 64.6 1.91
-6 2 -5 64.66 1.93
6 -2 -5 70.27 1.92
-7 -2 -5 12.48 0.43
-7 2 -5 12.96 0.46
-7 -2 5 12.59 0.44
7 -2 -5 12.61 0.43
-7 2 5 13.52 0.45
7 -2 5 13.39 0.42
-8 2 5 10.94 0.43
-8 -2 -5 10.66 0.4
8 -2 -5 11.22 0.41
-8 -2 5 11.58 0.42
-8 2 -5 10.91 0.44
8 -2 5 11.29 0.38
-9 -2 -5 0.7 0.22
-9 2 5 0.57 0.29
-9 2 -5 0.63 0.3
9 -2 -5 0.8 0.22
-9 -2 5 0.67 0.24
9 -2 5 0.47 0.19
-10 2 -5 3.76 0.42
-10 -2 -5 4.26 0.32
-10 2 5 3.97 0.44
-10 -2 5 3.9 0.35
10 -2 -5 4.62 0.31
10 -2 5 3.88 0.27
0 3 -5 104.31 3.01
0 -3 5 106.89 3.01
-1 -3 5 8.82 0.3
1 -3 5 8.57 0.29
1 -3 -5 8.34 0.27
-1 3 -5 8.39 0.3
1 -3 -5 9.09 0.26
-2 3 -5 80.51 2.35
2 -3 5 83.02 2.35
-2 -3 5 80.76 2.35
2 -3 -5 83.33 2.34
2 -3 -5 82.72 2.33
-3 -3 5 24.44 0.73
-3 3 -5 25.94 0.76
3 -3 5 23.83 0.74
3 -3 -5 25.51 0.73
-4 -3 -5 52.55 1.53
-4 3 -5 52.81 1.56
4 -3 5 51.74 1.54
4 -3 -5 55.19 1.54
-4 -3 5 55.18 1.54
-5 -3 -5 43.43 1.24
-5 3 5 41.16 1.25
-5 -3 5 42.53 1.25
-5 3 -5 43.82 1.28
5 -3 -5 44.86 1.26
-5 3 5 41.5 1.25
5 -3 5 44.51 1.26
-6 -3 -5 8.96 0.3
6 -3 -5 8.74 0.32
-6 3 -5 8.76 0.34
-6 3 5 8.86 0.32
6 -3 5 8.44 0.31
-6 3 5 8.04 0.31
-6 -3 5 8.56 0.31
-7 3 5 1.27 0.2
-7 -3 -5 1.31 0.16
-7 -3 5 1.32 0.17
-7 3 -5 1.17 0.22
-7 3 5 1.27 0.19
7 -3 5 1.4 0.16
7 -3 -5 1.19 0.17
8 -3 -5 36.51 1.09
-8 3 5 36.68 1.1
8 -3 5 37.04 1.08
-8 3 5 35.87 1.09
-8 -3 -5 36.51 1.08
-8 -3 5 36.32 1.09
-8 3 -5 34.26 1.12
-9 3 -5 2.96 0.34
9 -3 -5 2.93 0.25
-9 3 5 2.53 0.34
-9 3 5 2.6 0.29
-9 -3 5 2.58 0.28
9 -3 5 2.78 0.22
-9 -3 -5 2.94 0.24
10 -3 5 3.98 0.28
-10 3 5 3.48 0.47
-10 3 -5 3.97 0.45
-10 -3 -5 3.56 0.31
10 -3 -5 4.14 0.32
-10 3 5 3.81 0.37
-10 -3 5 3.91 0.34
0 -4 5 9.34 0.32
-1 4 -5 64.67 1.85
-1 -4 5 64.64 1.86
1 -4 5 64.02 1.86
3 -4 -5 19.45 0.57
3 -4 5 18.22 0.59
-3 4 -5 19.34 0.6
3 -4 -5 19.15 0.58
4 -4 5 23.98 0.74
-4 -4 5 25.13 0.73
4 -4 -5 24.81 0.73
-4 4 -5 24.03 0.75
-5 -4 5 39.76 1.14
-5 4 -5 38.91 1.17
5 -4 -5 38.98 1.15
5 -4 5 39.25 1.15
-5 -4 -5 38.41 1.12
-6 4 -5 1.44 0.22
-6 -4 -5 1.39 0.13
-6 -4 5 1.52 0.17
6 -4 5 1.44 0.16
6 -4 -5 1.36 0.17
-7 -4 5 29.08 0.89
-7 4 5 29.68 0.88
-7 -4 -5 29.21 0.88
7 -4 5 29.21 0.89
7 -4 -5 30.82 0.9
-7 4 5 29.21 0.89
8 -4 -5 10.53 0.4
8 -4 5 10.29 0.39
-8 -4 -5 10.24 0.38
-8 4 5 10.21 0.4
-8 4 5 11.43 0.43
-8 -4 5 9.85 0.39
-8 4 -5 9.79 0.46
9 -4 5 10.53 0.39
-9 4 5 9.89 0.48
-9 -4 5 9.04 0.41
-9 4 -5 10 0.5
9 -4 -5 9.92 0.42
-9 4 5 9.98 0.41
-9 -4 -5 9.87 0.39
-10 4 5 4.54 0.51
-10 4 -5 3.95 0.5
-10 4 5 4.14 0.36
-10 -4 5 4.93 0.36
0 -5 5 6.58 0.26
1 -5 5 1.14 0.15
-1 -5 5 1.4 0.16
-2 5 -5 133.18 3.78
2 -5 5 132.86 3.79
3 -5 5 121.04 3.41
-3 5 -5 120.31 3.41
3 -5 -5 119.25 3.39
3 -5 -5 117.86 3.4
-4 5 -5 169.42 4.81
4 -5 5 177.25 4.81
4 -5 -5 161.31 4.79
-5 5 -5 8.7 0.35
5 -5 -5 8.85 0.33
5 -5 5 8.43 0.33
-5 -5 5 9.11 0.31
-6 5 -5 5.18 0.32
6 -5 5 6.34 0.28
-6 -5 -5 6.41 0.23
6 -5 -5 6.49 0.28
-6 -5 5 6.4 0.26
7 -5 -5 5.45 0.29
-7 -5 -5 5.23 0.23
7 -5 5 5.34 0.26
-7 -5 5 5.38 0.26
8 -5 -5 2.07 0.24
-8 -5 -5 1.87 0.19
-8 5 -5 0.73 0.33
8 -5 5 1.83 0.22
-8 -5 5 1.83 0.21
-9 -5 5 3.49 0.28
-9 5 -5 -0.07 0.42
-9 -5 -5 3.51 0.26
9 -5 -5 3.55 0.29
9 -5 5 3.51 0.26
-10 5 -5 16.69 0.81
0 -6 5 39.57 1.17
-1 -6 5 5.22 0.26
1 -6 5 5.41 0.24
2 -6 5 69.32 2.01
3 -6 -5 28.92 0.85
-3 6 -5 28.54 0.88
3 -6 5 29.94 0.89
3 -6 -5 29.57 0.86
4 -6 -5 21.66 0.66
4 -6 5 21.21 0.68
-4 6 -5 21.6 0.68
-5 -6 5 7.95 0.29
-5 6 -5 7.9 0.34
5 -6 5 7.31 0.31
5 -6 -5 7.44 0.3
6 -6 5 14.72 0.5
6 -6 -5 14.89 0.5
-6 -6 -5 13.73 0.44
-6 6 -5 14.48 0.53
-6 -6 5 13.79 0.47
7 -6 -5 7.73 0.35
-7 -6 -5 7.46 0.29
-7 6 -5 7.72 0.4
-7 -6 5 7.64 0.32
7 -6 5 8.11 0.35
8 -6 -5 14.69 0.55
-8 -6 -5 14.79 0.49
8 -6 5 15.39 0.53
-8 -6 5 14.7 0.51
-8 6 -5 14.48 0.62
9 -6 5 1.86 0.28
-9 -6 5 1.49 0.26
9 -6 -5 1.65 0.31
-9 -6 -5 1.77 0.24
-9 6 -5 1.78 0.5
0 -7 5 4 0.23
1 -7 5 0.98 0.18
-1 -7 5 0.83 0.2
2 -7 5 71.35 2.07
3 -7 5 54.65 1.61
4 -7 -5 49.34 1.48
-4 7 -5 53.94 1.49
4 -7 5 49.22 1.5
5 -7 5 18.77 0.63
-5 7 -5 19.65 0.65
5 -7 -5 19.4 0.62
6 -7 5 8.01 0.36
6 -7 -5 8.82 0.36
-6 -7 5 8.24 0.33
-6 7 -5 7.93 0.41
7 -7 -5 3.8 0.33
-7 7 -5 3.28 0.36
-7 -7 5 3.64 0.24
7 -7 5 3.81 0.29
-7 -7 -5 3.42 0.19
8 -7 -5 8.05 0.42
-8 -7 5 8.26 0.37
-8 -7 -5 7.76 0.32
8 -7 5 7.36 0.38
-8 7 -5 9.12 0.52
-9 -7 -5 4.07 0.29
-9 7 -5 4.47 0.6
-9 -7 5 4.48 0.32
0 -8 5 14.35 0.51
-1 -8 5 43.98 1.27
1 -8 5 39.82 1.26
2 -8 5 35.9 1.09
3 -8 5 0.03 0.2
4 -8 -5 38.96 1.13
4 -8 5 37.18 1.16
5 -8 5 22.69 0.74
5 -8 -5 22.08 0.72
-6 -8 5 24.68 0.77
6 -8 5 26.23 0.82
6 -8 -5 24.3 0.81
7 -8 -5 10.86 0.49
-7 -8 5 11.88 0.42
7 -8 5 10.96 0.49
-7 -8 -5 11.32 0.38
-8 8 -5 8.61 0.57
8 -8 5 7.69 0.43
-8 -8 -5 7.85 0.33
8 -8 -5 8.28 0.49
-8 -8 5 7.63 0.36
0 -9 5 71.7 2.1
1 -9 5 8.81 0.39
-1 -9 5 8.54 0.41
2 -9 5 11.67 0.46
3 -9 5 9.99 0.42
4 -9 -5 3.99 0.26
4 -9 5 3.53 0.32
5 -9 -5 13.92 0.51
5 -9 5 13.47 0.53
6 -9 5 21.2 0.77
6 -9 -5 24 0.78
7 -9 5 1.95 0.36
-7 -9 5 1.63 0.26
7 -9 -5 1.53 0.36
0 -10 5 40.55 1.26
1 -10 5 5.35 0.36
-1 -10 5 5.24 0.38
2 -10 5 1.21 0.29
3 -10 5 10.6 0.48
4 -10 5 5.44 0.39
4 -10 -5 5.24 0.31
5 -10 -5 2.5 0.33
5 -10 5 1.87 0.34
6 -10 5 18.64 0.7
6 -10 -5 18.62 0.73
0 -11 5 18.07 0.7
-1 -11 5 3.47 0.41
1 -11 5 3.23 0.39
2 -11 5 15.94 0.64
3 -11 5 15.33 0.64
4 -11 5 20.08 0.77
5 -11 -5 16.08 0.65
5 -11 5 15.15 0.68
0 -12 5 1.45 0.44
-1 -12 5 29.04 1.04
2 -12 5 9.59 0.57
3 -12 5 0.67 0.46
0 0 6 137.96 3.94
0 0 6 140.65 3.94
1 0 6 117.35 3.38
1 0 -6 120.7 3.4
-1 0 -6 122.99 3.39
1 0 6 116.1 3.38
-1 0 6 120.73 3.38
-1 0 6 118.73 3.39
-2 0 -6 317.04 8.9
-2 0 6 312.42 8.89
-2 0 6 317.96 8.9
2 0 6 308.34 8.93
2 0 -6 321.68 8.91
-3 0 -6 23.99 0.71
-3 0 6 23.84 0.72
4 0 6 49.59 1.41
-4 0 6 49.11 1.43
4 0 -6 49.93 1.43
-4 0 6 50.35 1.44
-4 0 -6 48.34 1.43
5 0 -6 2.02 0.15
5 0 6 1.94 0.11
-5 0 6 1.94 0.19
-5 0 6 1.96 0.15
-5 0 -6 1.79 0.16
6 0 -6 0.6 0.15
-6 0 6 0.75 0.16
6 0 6 0.84 0.11
-6 0 -6 0.76 0.16
-6 0 6 0.69 0.2
-7 0 -6 102.42 2.87
7 0 6 95.34 2.84
7 0 -6 98.53 2.86
-7 0 6 104.23 2.88
8 0 -6 22.29 0.69
8 0 6 21.8 0.65
-8 0 -6 21.58 0.71
-9 0 -6 3.76 0.29
9 0 -6 2.89 0.25
-9 0 6 3.39 0.32
-10 0 6 0.01 0.4
-10 0 -6 0.02 0.31
0 1 -6 4.84 0.2
0 -1 6 4.48 0.18
0 -1 -6 4.67 0.18
-1 1 6 3.6 0.13
1 -1 -6 3.55 0.15
-1 -1 -6 3.79 0.16
-1 -1 6 3.55 0.15
1 -1 -6 4.24 0.17
1 -1 6 3.41 0.15
1 1 -6 3.39 0.18
-1 1 -6 3.7 0.17
-1 -1 6 3.58 0.16
-1 1 6 3.63 0.14
-2 -1 6 231.58 6.52
2 -1 6 221.39 6.4
-2 -1 6 222.7 6.41
-2 1 -6 226.74 6.41
2 -1 -6 229.81 6.41
-2 -1 -6 226.84 6.4
-2 1 6 227.78 6.49
-2 1 6 228.18 6.47
-3 1 6 14.77 0.44
-3 1 -6 14.19 0.45
-3 1 6 13.95 0.44
-3 -1 6 14.14 0.44
3 -1 6 14.23 0.44
3 -1 -6 13.93 0.44
-3 -1 -6 14.35 0.44
-4 1 6 28.52 0.85
-4 1 -6 29.34 0.86
-4 -1 -6 28.12 0.85
-4 -1 6 28.29 0.85
-4 1 6 29.74 0.85
4 -1 6 28.83 0.84
-4 -1 6 28.73 0.87
4 -1 -6 27.91 0.85
-5 -1 6 4.19 0.24
5 -1 6 4.13 0.18
-5 1 6 4.26 0.19
-5 1 6 4.18 0.22
-5 -1 -6 4.31 0.19
-5 1 -6 4.55 0.22
-5 -1 6 4.41 0.2
5 -1 -6 4.28 0.2
-6 1 -6 12.97 0.46
6 -1 -6 13.15 0.44
-6 -1 6 12.81 0.44
-6 1 6 13.29 0.46
-6 1 6 13.73 0.45
6 -1 6 13.65 0.42
-6 -1 -6 13.67 0.44
-7 1 -6 16.06 0.55
-7 1 6 16.4 0.56
7 -1 -6 16.93 0.53
7 -1 6 16.6 0.51
-7 -1 6 15.54 0.54
-7 -1 -6 16.1 0.53
-8 1 -6 27.47 0.89
-8 -1 6 26.87 0.88
8 -1 6 28.99 0.84
-8 -1 -6 28.11 0.87
8 -1 -6 29.44 0.86
9 -1 6 15.41 0.48
-9 1 -6 14.63 0.57
9 -1 -6 15.19 0.51
-9 -1 -6 14.67 0.53
-9 -1 6 13.93 0.55
10 -1 -6 9.8 0.4
10 -1 6 8.61 0.34
-10 1 6 9.3 0.54
-10 -1 -6 8.8 0.43
-10 -1 6 8.15 0.47
-10 1 -6 8.58 0.49
0 -2 6 12.46 0.4
0 -2 -6 12.55 0.38
0 2 -6 12.22 0.41
0 -2 -6 12.42 0.37
-1 -2 6 4.99 0.21
-1 2 -6 5.02 0.21
1 -2 -6 4.93 0.18
-1 -2 -6 4.76 0.18
1 2 -6 5.17 0.22
-2 2 -6 27.11 0.78
-2 -2 6 25.86 0.77
2 -2 -6 26.1 0.78
2 -2 -6 26.29 0.76
2 -2 6 25.12 0.77
-2 -2 6 25.57 0.78
-2 -2 -6 26.01 0.76
-3 -2 6 1.85 0.12
-3 -2 -6 1.66 0.11
3 -2 6 1.86 0.12
-3 2 6 1.81 0.11
3 -2 -6 1.89 0.12
-3 2 6 1.91 0.1
-3 -2 6 1.72 0.17
-3 2 -6 1.57 0.15
-4 -2 6 45.54 1.28
4 -2 6 42.56 1.28
-4 2 6 43.6 1.28
-4 -2 6 43.41 1.3
-4 2 6 45.83 1.27
-4 2 -6 43.87 1.3
-5 2 6 27.58 0.82
-5 2 -6 28.56 0.85
-5 -2 6 27.94 0.83
-5 -2 -6 28.13 0.82
5 -2 -6 27.25 0.83
5 -2 6 27.03 0.82
-5 2 6 26.91 0.82
6 -2 6 16.51 0.5
-6 2 6 16.74 0.52
-6 2 6 16.11 0.52
6 -2 -6 16.29 0.52
-6 2 -6 15.61 0.54
-6 -2 -6 15.53 0.5
-6 -2 6 15.02 0.51
7 -2 -6 19.66 0.64
-7 2 6 21 0.66
-7 -2 -6 20.64 0.64
-7 -2 6 20.34 0.65
-7 2 6 19.99 0.65
-7 2 -6 19.89 0.67
7 -2 6 20.32 0.62
8 -2 -6 7.49 0.32
-8 2 6 7.15 0.35
-8 -2 6 6.92 0.34
-8 2 6 7.37 0.36
-8 -2 -6 7.33 0.32
8 -2 6 7.61 0.29
-8 2 -6 6.73 0.37
9 -2 6 3.54 0.23
9 -2 -6 3.13 0.27
-9 2 -6 2.91 0.36
-9 -2 6 3.38 0.31
-9 2 6 2.89 0.35
-9 -2 -6 3.39 0.28
-9 2 6 3.32 0.32
-10 2 -6 3.19 0.44
-10 -2 6 4.44 0.38
-10 2 6 3.5 0.48
10 -2 6 3.71 0.27
-10 -2 -6 3.43 0.35
10 -2 -6 4.34 0.32
0 -3 -6 56.14 1.65
0 3 -6 58.84 1.68
0 -3 6 56.06 1.67
0 -3 -6 60.79 1.65
1 -3 6 4.45 0.2
1 -3 -6 4.39 0.17
1 -3 -6 4.59 0.16
-1 -3 6 4.46 0.2
-1 3 -6 4.65 0.21
-2 -3 6 40.14 1.19
2 -3 -6 40.4 1.17
-2 -3 -6 40.99 1.16
-2 3 -6 40.68 1.19
2 -3 6 40.4 1.18
2 -3 -6 39.71 1.16
-3 -3 6 2.03 0.18
3 -3 6 1.94 0.14
3 -3 -6 1.99 0.12
-3 -3 6 1.97 0.14
3 -3 -6 1.8 0.15
-3 3 -6 1.8 0.16
-3 -3 -6 1.86 0.1
4 -3 6 5.44 0.23
-4 -3 -6 5.62 0.2
-4 3 -6 5.64 0.26
-4 -3 6 5.56 0.22
4 -3 -6 5.56 0.22
-5 3 -6 77.63 2.23
-5 3 6 77.35 2.2
-5 -3 -6 75.32 2.2
-5 3 6 81.36 2.2
5 -3 -6 74.13 2.21
-5 -3 6 76.56 2.21
-6 -3 6 10.4 0.4
6 -3 6 11.5 0.39
-6 -3 -6 12.69 0.39
-6 3 6 11.31 0.39
-6 3 -6 11.97 0.44
-6 3 6 11.64 0.39
6 -3 -6 12.01 0.41
-7 3 6 66.28 1.9
-7 3 -6 64.86 1.93
-7 -3 -6 64.99 1.9
-7 -3 6 65.75 1.91
7 -3 -6 65.97 1.91
7 -3 6 67.02 1.9
-7 3 6 65.67 1.91
-8 -3 -6 14.24 0.49
-8 3 -6 13.66 0.55
-8 3 6 14.7 0.53
8 -3 -6 15.53 0.51
8 -3 6 13.99 0.48
-8 -3 6 13.74 0.5
-8 3 6 14.22 0.51
-9 -3 6 0.24 0.27
-9 3 6 -0.02 0.34
-9 -3 -6 0.48 0.23
9 -3 6 0.24 0.2
9 -3 -6 0.29 0.26
-9 3 -6 0.41 0.33
-9 3 6 0.24 0.28
-10 -3 6 2.8 0.37
-10 3 6 3.43 0.37
-10 3 -6 2.69 0.46
-10 3 6 3.71 0.5
0 -4 6 29.58 0.89
-1 -4 6 30.76 0.95
1 -4 6 32.86 0.95
-1 4 -6 31.6 0.95
-2 -4 6 101.89 2.97
-2 4 -6 104.58 2.97
2 -4 6 102.14 2.96
2 -4 -6 103.28 2.95
2 -4 -6 107.16 2.95
3 -4 -6 56.71 1.65
3 -4 6 57.88 1.67
3 -4 -6 57.71 1.66
-3 4 -6 57.29 1.67
-3 -4 6 57.51 1.68
-4 4 -6 60.26 1.73
4 -4 6 58.84 1.71
-4 -4 -6 57.8 1.69
4 -4 -6 59.78 1.71
-4 -4 6 59.41 1.7
5 -4 6 52.92 1.56
-5 -4 -6 54.39 1.54
5 -4 -6 55.27 1.56
-5 4 -6 53.83 1.58
-5 -4 6 51.71 1.55
-6 -4 6 16.17 0.51
6 -4 6 15.19 0.51
-6 -4 -6 15.74 0.49
-6 4 -6 15.12 0.55
6 -4 -6 16 0.52
7 -4 -6 9.01 0.36
-7 4 -6 8.44 0.41
7 -4 6 9.3 0.34
-7 -4 -6 8.66 0.33
-7 -4 6 8.77 0.35
-8 4 6 5.11 0.27
8 -4 6 5.06 0.26
-8 -4 -6 5.09 0.26
8 -4 -6 4.82 0.3
-8 -4 6 4.66 0.28
-8 4 6 4.89 0.32
-9 4 -6 3.17 0.42
-9 4 6 3.65 0.39
9 -4 -6 4.34 0.32
-9 -4 6 3.71 0.31
9 -4 6 3.67 0.26
-9 -4 -6 3.91 0.28
-9 4 6 4.2 0.3
-10 4 -6 3.59 0.55
0 -5 6 3.73 0.21
1 -5 6 3.66 0.2
-1 -5 6 3.34 0.21
2 -5 -6 1.51 0.1
-2 -5 6 1.41 0.19
-2 5 -6 1.31 0.18
2 -5 6 1.29 0.16
3 -5 6 3.64 0.21
3 -5 -6 3.55 0.17
3 -5 -6 3.51 0.19
-3 -5 6 3.84 0.24
-4 -5 6 67.49 1.96
4 -5 -6 70.37 1.97
4 -5 6 66.79 1.97
5 -5 6 2.47 0.19
-5 -5 -6 2.23 0.13
-5 -5 6 2.32 0.17
5 -5 -6 2.45 0.19
-5 5 -6 1.95 0.23
-6 -5 6 10.89 0.38
6 -5 6 10.65 0.4
-6 -5 -6 10.46 0.36
-6 5 -6 10.46 0.44
6 -5 -6 11.38 0.41
-7 -5 -6 13.93 0.47
7 -5 -6 13.5 0.51
-7 -5 6 14.57 0.49
-7 5 -6 15.24 0.57
7 -5 6 14.59 0.5
-8 -5 6 2.3 0.24
8 -5 -6 2.12 0.26
-8 5 -6 2.66 0.37
-8 -5 -6 2.35 0.22
8 -5 6 2.3 0.23
-9 -5 -6 1 0.24
-9 -5 6 1.52 0.27
9 -5 6 1.15 0.24
9 -5 -6 1.21 0.3
-9 5 -6 1.4 0.46
0 -6 6 67.73 1.97
-1 -6 6 11.15 0.41
1 -6 6 11.41 0.4
-2 -6 6 27.51 0.86
2 -6 6 27.56 0.85
-3 6 -6 2.91 0.23
3 -6 -6 3.39 0.17
3 -6 6 3.51 0.23
3 -6 -6 3.19 0.18
4 -6 -6 10.47 0.36
-4 6 -6 10.96 0.41
4 -6 6 9.83 0.38
-5 -6 6 42.05 1.2
5 -6 -6 42.58 1.21
-5 6 -6 40.13 1.24
5 -6 6 37.87 1.21
-6 -6 6 15.95 0.5
-6 -6 -6 14.95 0.47
-6 6 -6 15.2 0.57
6 -6 6 15.01 0.53
6 -6 -6 15.03 0.53
-7 6 -6 7.93 0.44
-7 -6 -6 7.74 0.3
7 -6 -6 7.5 0.38
7 -6 6 7.47 0.35
-7 -6 6 8.12 0.33
-8 -6 6 0.83 0.23
-8 -6 -6 0.85 0.2
8 -6 6 0.83 0.24
8 -6 -6 0.75 0.27
-8 6 -6 0.63 0.4
-9 -6 6 3.55 0.31
-9 6 -6 3.32 0.55
0 -7 6 47.61 1.42
1 -7 6 1.73 0.21
-1 -7 6 1.88 0.22
-2 -7 6 18.51 0.62
2 -7 6 17.46 0.59
3 -7 6 29.61 0.93
3 -7 -6 30.1 0.88
-4 7 -6 16.21 0.56
4 -7 6 15.21 0.56
4 -7 -6 16.99 0.53
5 -7 -6 26.88 0.81
-5 7 -6 26 0.84
5 -7 6 24.76 0.82
-6 7 -6 7.45 0.43
-6 -7 6 7.59 0.32
6 -7 -6 7.64 0.38
6 -7 6 7.95 0.36
-7 -7 6 30.94 0.91
-7 -7 -6 29.59 0.87
7 -7 6 30.18 0.93
-7 7 -6 28.49 0.99
7 -7 -6 27.32 0.94
-8 -7 6 9.76 0.43
-8 7 -6 10.62 0.61
-8 -7 -6 10.1 0.39
8 -7 -6 10.86 0.49
8 -7 6 10.19 0.44
0 -8 6 7.29 0.35
-1 -8 6 13.15 0.49
1 -8 6 12.71 0.48
2 -8 6 9.92 0.41
-2 -8 6 10.39 0.44
3 -8 6 12.16 0.47
4 -8 -6 11.76 0.42
4 -8 6 11.83 0.47
5 -8 6 11.3 0.46
5 -8 -6 11.42 0.44
6 -8 -6 11.36 0.47
-6 -8 6 11.76 0.42
6 -8 6 10.86 0.47
-6 8 -6 11.45 0.52
-7 8 -6 5.15 0.5
-7 -8 6 3.9 0.27
-7 -8 -6 4.18 0.23
7 -8 -6 4.7 0.41
7 -8 6 3.94 0.35
-8 -8 6 1.92 0.27
-8 8 -6 1.54 0.57
0 -9 6 31.22 0.99
-1 -9 6 0.02 0.27
1 -9 6 -0.13 0.25
2 -9 6 12 0.5
-2 -9 6 12.91 0.54
3 -9 6 8.65 0.41
4 -9 -6 22.06 0.68
4 -9 6 20.34 0.74
5 -9 -6 3.31 0.33
5 -9 6 2.69 0.31
-6 -9 6 2.18 0.23
6 -9 -6 2.59 0.34
6 -9 6 2.37 0.32
-7 -9 6 8.36 0.38
7 -9 6 9.41 0.48
0 -10 6 13.92 0.57
-1 -10 6 30.12 1
1 -10 6 30.49 0.99
2 -10 6 105.87 3.06
-2 -10 6 104.09 3.07
3 -10 6 0.47 0.31
4 -10 6 28.37 0.96
4 -10 -6 28.87 0.9
5 -10 -6 3.55 0.38
5 -10 6 3 0.37
6 -10 6 0.08 0.37
0 -11 6 0.34 0.38
1 -11 6 14.3 0.62
-1 -11 6 14.53 0.65
2 -11 6 31.09 1.07
-2 -11 6 32.4 1.11
3 -11 6 1.44 0.39
4 -11 6 16.52 0.71
0 -12 6 14.04 0.7
1 -12 6 0.04 0.47
-1 -12 6 0.74 0.51
2 -12 6 6.45 0.56
-2 -12 6 5.69 0.63
3 -12 6 1.24 0.48
0 0 -7 -0.12 0.12
0 0 7 -0.02 0.09
0 0 7 -0.02 0.08
-1 0 -7 -0.07 0.12
1 0 7 0 0.08
-1 0 7 -0.02 0.1
1 0 -7 0.03 0.13
-1 0 7 0.07 0.08
1 0 7 -0.01 0.08
2 0 7 13.15 0.39
-2 0 7 12.92 0.41
-2 0 -7 12.87 0.42
-2 0 7 12.87 0.4
2 0 -7 12.74 0.43
2 0 7 12.61 0.39
-3 0 7 29.39 0.86
-3 0 7 28.74 0.85
3 0 7 28.77 0.84
-3 0 -7 28.81 0.86
-5 0 7 37.08 1.05
5 0 7 33.47 1.02
-5 0 7 35.3 1.06
-5 0 -7 35.25 1.05
5 0 -7 35.21 1.04
-6 0 -7 7.56 0.32
6 0 -7 8.41 0.31
6 0 7 7.78 0.27
-6 0 7 8.47 0.32
-6 0 7 7.94 0.35
-7 0 -7 3.37 0.25
-7 0 7 3.63 0.28
7 0 -7 3.89 0.23
-7 0 7 3.32 0.25
8 0 -7 0.32 0.2
-8 0 -7 0.17 0.24
-8 0 7 0.11 0.25
-8 0 7 0.07 0.27
-9 0 -7 0.19 0.29
-9 0 7 0.33 0.32
9 0 -7 0.57 0.23
-9 0 7 0.52 0.33
-10 0 7 15.52 0.7
-10 0 -7 15.22 0.64
0 -1 7 1.17 0.12
0 1 -7 1.03 0.14
0 -1 -7 1.12 0.12
1 1 -7 73.23 2.17
-1 -1 7 75.56 2.16
1 -1 7 76.46 2.15
-1 1 7 75.86 2.14
-1 -1 -7 74.86 2.15
-1 -1 7 76.31 2.15
1 -1 -7 76.48 2.16
-1 1 -7 75.39 2.16
-1 1 7 73.91 2.14
-2 -1 7 12.06 0.4
-2 -1 -7 12.58 0.4
-2 1 7 12.38 0.38
2 -1 -7 11.62 0.41
-2 1 -7 11.91 0.41
2 -1 -7 13.37 0.4
-2 1 7 13.2 0.38
-2 -1 7 12.03 0.39
2 -1 7 12.24 0.39
-3 1 7 5.6 0.22
-3 -1 -7 5.82 0.23
-3 1 7 5.89 0.22
-3 1 -7 5.74 0.24
-3 -1 7 5.67 0.23
-3 -1 7 5.98 0.25
3 -1 -7 5.98 0.23
3 -1 7 5.77 0.21
-4 1 7 24.95 0.72
-4 1 7 23.61 0.73
-4 1 -7 23.49 0.74
-4 -1 7 23.82 0.73
4 -1 -7 24.74 0.73
4 -1 7 24.71 0.72
-4 -1 -7 23.9 0.73
-5 1 7 17.58 0.59
-5 -1 -7 19.59 0.6
-5 1 -7 19.55 0.61
5 -1 -7 18.91 0.6
-5 1 7 19.26 0.61
-5 -1 7 19.91 0.6
5 -1 7 19.72 0.58
-6 -1 7 30.14 0.94
-6 1 7 31.24 0.92
6 -1 7 30.05 0.89
-6 -1 7 30.31 0.92
-6 1 7 30.74 0.92
-6 1 -7 29.51 0.93
-6 -1 -7 30.37 0.91
6 -1 -7 29.83 0.91
-7 1 7 18.6 0.6
-7 -1 7 18.34 0.6
7 -1 -7 18.07 0.58
-7 -1 -7 17.73 0.59
-7 1 7 18.6 0.61
-7 -1 7 18.18 0.63
-7 1 -7 17.22 0.61
7 -1 7 17.24 0.55
-8 -1 7 4.09 0.3
-8 1 7 4.39 0.33
8 -1 7 4.55 0.22
-8 1 -7 4.48 0.32
-8 1 7 4.79 0.32
-8 -1 -7 4.44 0.28
8 -1 -7 4.54 0.27
-9 1 -7 8.64 0.44
-9 -1 -7 8.08 0.39
-9 1 7 7.98 0.48
9 -1 7 8.18 0.31
9 -1 -7 8.28 0.38
-9 1 7 7.15 0.43
-9 -1 7 8.01 0.41
-10 1 -7 2.98 0.44
-10 -1 7 2.61 0.42
-10 1 7 3.02 0.5
0 -2 7 52.08 1.47
0 -2 -7 51.45 1.46
0 2 -7 48.9 1.48
-1 -2 7 10.84 0.33
1 2 -7 8.93 0.34
1 -2 -7 9.3 0.31
1 -2 -7 9.02 0.32
-1 -2 -7 9.2 0.31
1 -2 7 9.64 0.32
-1 2 -7 9.3 0.34
-1 -2 7 9.27 0.31
2 -2 -7 38.26 1.09
-2 -2 -7 37.73 1.09
-2 2 -7 36.98 1.11
-2 -2 7 37.96 1.11
-2 -2 7 37.69 1.09
2 -2 -7 37.05 1.1
2 -2 7 36.42 1.09
-3 -2 -7 95.7 2.73
3 -2 7 97.23 2.73
3 -2 -7 93.89 2.73
-3 2 -7 95.81 2.75
-3 -2 7 96.58 2.75
-3 -2 7 95.91 2.73
-4 2 -7 40.1 1.2
-4 2 7 39.47 1.17
-4 -2 7 40.33 1.21
-4 -2 7 40.47 1.19
-4 2 7 41.64 1.17
4 -2 7 40.66 1.18
4 -2 -7 41.36 1.19
-5 2 7 14.68 0.48
-5 -2 7 15.36 0.52
-5 -2 -7 14.48 0.48
5 -2 7 14.46 0.47
-5 -2 7 15.51 0.49
-5 2 -7 15.27 0.51
5 -2 -7 14.53 0.48
-5 2 7 15.17 0.48
6 -2 -7 25.78 0.79
-6 2 7 26.35 0.78
-6 -2 7 25.5 0.79
6 -2 7 25.68 0.77
-6 2 7 24.87 0.78
-6 -2 7 26.35 0.82
-6 2 -7 24.88 0.8
-6 -2 -7 24.82 0.77
-7 2 7 5.09 0.28
-7 2 -7 4.34 0.3
7 -2 -7 4.61 0.26
-7 -2 -7 4.48 0.25
7 -2 7 4.64 0.22
-7 -2 7 4.61 0.27
-7 2 7 4.68 0.27
8 -2 -7 0.32 0.21
-8 -2 7 0.06 0.25
-8 2 7 0.05 0.26
-8 -2 -7 0.12 0.21
8 -2 7 -0.06 0.16
-8 2 -7 -0.09 0.27
-8 2 7 -0.14 0.26
9 -2 7 18.42 0.59
-9 2 -7 17.3 0.68
-9 2 7 18.08 0.65
-9 -2 -7 17.85 0.63
-9 -2 7 18.39 0.66
9 -2 -7 18.34 0.63
-9 2 7 19.07 0.7
0 3 -7 1.05 0.16
0 -3 -7 1.06 0.1
0 -3 7 1.16 0.14
0 -3 -7 1.24 0.1
-1 -3 -7 16.99 0.5
1 -3 -7 16.53 0.51
-1 3 -7 16.76 0.54
1 -3 -7 17.04 0.5
-1 -3 -7 16.34 0.5
-1 -3 7 17.03 0.53
1 -3 7 16.28 0.53
-2 -3 7 50.69 1.45
2 -3 7 49.44 1.46
-2 3 -7 49.83 1.47
-2 -3 -7 51.37 1.44
2 -3 -7 48.85 1.45
-2 -3 7 51.03 1.47
-3 -3 7 12.87 0.41
-3 -3 7 13.37 0.44
-3 3 -7 12.21 0.43
3 -3 -7 12.46 0.4
-3 -3 -7 12.49 0.39
3 -3 -7 12.46 0.43
3 -3 7 12.19 0.41
-4 -3 7 27.83 0.83
4 -3 -7 27.42 0.83
-4 3 -7 28.82 0.86
-4 -3 -7 27.06 0.81
-4 -3 7 27.21 0.86
5 -3 7 0.7 0.14
-5 -3 7 0.33 0.21
5 -3 -7 0.69 0.15
-5 -3 -7 0.5 0.12
-5 -3 7 0.63 0.16
-5 3 -7 0.67 0.2
-6 3 -7 28.79 0.88
-6 3 7 27.41 0.83
6 -3 7 27.94 0.84
-6 -3 7 27.26 0.85
-6 3 7 28.04 0.84
6 -3 -7 27.98 0.85
-7 3 7 0.37 0.21
7 -3 -7 0.67 0.21
-7 -3 -7 0.5 0.17
-7 3 7 0.32 0.19
-7 -3 7 0.32 0.19
-7 3 -7 0.48 0.26
7 -3 7 0.54 0.17
8 -3 -7 5.33 0.3
-8 -3 7 5 0.31
-8 -3 -7 5.31 0.28
-8 3 7 4.85 0.34
8 -3 7 4.97 0.26
-8 3 -7 5.14 0.37
-8 3 7 5 0.29
-9 3 7 2.02 0.3
-9 -3 -7 2.31 0.28
-9 -3 7 2.05 0.33
9 -3 -7 2.14 0.3
-9 3 -7 1.55 0.39
9 -3 7 2.15 0.23
-9 3 7 1.91 0.39
0 -4 7 74.42 2.15
1 -4 7 20.52 0.65
-1 -4 7 21.3 0.66
1 -4 -7 19.75 0.62
1 -4 -7 21.46 0.61
-1 4 -7 20.55 0.66
2 -4 -7 23.75 0.71
-2 4 -7 24.34 0.75
2 -4 -7 23.75 0.72
2 -4 7 24.84 0.74
-2 -4 7 23.76 0.75
-3 4 -7 85.67 2.38
-3 -4 7 80.38 2.37
-3 -4 7 81.85 2.35
3 -4 -7 83.49 2.35
3 -4 7 81.4 2.36
-3 -4 -7 80.97 2.33
3 -4 -7 81.01 2.36
4 -4 7 32.12 0.97
-4 -4 7 31.59 1
4 -4 -7 32.2 0.97
-4 -4 7 33.14 0.96
-4 4 -7 33.52 1
-4 -4 -7 32.5 0.94
5 -4 -7 14.54 0.46
-5 4 -7 13.11 0.5
5 -4 7 13.27 0.45
-5 -4 7 13.72 0.45
-5 -4 -7 12.92 0.43
6 -4 7 5.21 0.25
6 -4 -7 5.09 0.26
-6 4 -7 4.96 0.31
-6 -4 -7 4.95 0.23
-6 -4 7 4.88 0.26
-7 -4 7 6.59 0.31
-7 -4 -7 6.92 0.29
-7 4 -7 6.97 0.39
7 -4 7 7.59 0.31
7 -4 -7 7.06 0.33
8 -4 7 5.9 0.29
8 -4 -7 6.69 0.34
-8 4 -7 6.25 0.43
-8 -4 -7 6.2 0.3
-8 -4 7 5.73 0.32
9 -4 -7 15.68 0.57
-9 -4 7 14.97 0.57
-9 4 -7 14.34 0.68
9 -4 7 14.65 0.52
-9 -4 -7 14.32 0.54
0 -5 7 0.18 0.16
-1 5 -7 1.03 0.19
1 -5 7 1.41 0.17
-1 -5 7 1.39 0.18
-2 5 -7 16.02 0.54
2 -5 7 16.8 0.53
2 -5 -7 14.64 0.48
2 -5 -7 15.71 0.49
-2 -5 7 16.2 0.54
-4 -5 7 26.77 0.9
-4 -5 7 27.19 0.85
-4 5 -7 30.27 0.9
4 -5 7 27.82 0.87
4 -5 -7 30.71 0.86
-5 -5 -7 51.2 1.44
5 -5 7 49.93 1.47
5 -5 -7 48.43 1.47
-5 5 -7 50.77 1.51
-5 -5 7 50.27 1.46
-6 -5 -7 7.43 0.27
6 -5 -7 7.19 0.32
6 -5 7 7.18 0.31
-6 5 -7 6.78 0.38
-6 -5 7 6.5 0.3
-7 5 -7 1.11 0.34
-7 -5 7 1.07 0.21
7 -5 -7 1.12 0.24
-7 -5 -7 0.94 0.18
7 -5 7 1.15 0.21
-8 -5 7 3.56 0.28
-8 -5 -7 3.42 0.25
8 -5 7 3.55 0.26
8 -5 -7 3.38 0.31
-8 5 -7 3.49 0.43
-9 -5 7 1.92 0.32
-9 5 -7 2.5 0.5
0 -6 7 92.16 2.66
1 -6 7 21.13 0.66
-1 -6 7 19.69 0.66
-2 6 -7 7.73 0.34
2 -6 7 7.8 0.33
-2 -6 7 8.18 0.35
3 -6 -7 46.64 1.35
3 -6 7 47.03 1.38
-3 6 -7 45.49 1.38
-3 -6 7 46.33 1.4
3 -6 -7 46.17 1.35
4 -6 -7 2.1 0.19
-4 6 -7 2.17 0.27
4 -6 7 2.42 0.21
-4 -6 7 2.26 0.28
5 -6 7 8.74 0.36
-5 -6 7 9.16 0.35
5 -6 -7 9.05 0.36
-5 6 -7 8.85 0.42
-6 6 -7 20.22 0.71
-6 -6 7 19.48 0.63
-6 -6 -7 18.35 0.59
6 -6 -7 19.84 0.66
6 -6 7 19.46 0.65
7 -6 7 1.97 0.24
7 -6 -7 1.98 0.28
-7 6 -7 1.75 0.4
-7 -6 -7 2.13 0.2
-7 -6 7 1.99 0.23
8 -6 7 23.03 0.74
-8 -6 7 22.84 0.74
-8 6 -7 21.12 0.86
8 -6 -7 22.52 0.77
-8 -6 -7 22.6 0.71
0 -7 7 7.99 0.36
1 -7 7 0.16 0.2
-1 -7 7 0.07 0.21
-2 -7 7 22.99 0.75
2 -7 7 22.49 0.73
-3 -7 7 43.48 1.33
3 -7 -7 42.85 1.26
3 -7 7 44.5 1.31
3 -7 -7 42.12 1.26
4 -7 7 9.07 0.4
-4 -7 7 10.24 0.46
4 -7 -7 10.61 0.38
-4 7 -7 9.53 0.44
-5 7 -7 12.11 0.52
5 -7 -7 12.38 0.46
-5 -7 7 11.14 0.42
5 -7 7 11.6 0.46
-6 -7 7 14.74 0.51
-6 -7 -7 15.07 0.47
6 -7 -7 14.75 0.55
-6 7 -7 14.54 0.63
6 -7 7 15.68 0.55
-7 -7 7 10.24 0.42
-7 7 -7 9.82 0.57
-7 -7 -7 10.16 0.37
7 -7 7 9.89 0.44
7 -7 -7 10.46 0.48
-8 7 -7 6.39 0.62
8 -7 7 6.1 0.37
-8 -7 -7 5.84 0.31
-8 -7 7 6.32 0.37
0 -8 7 21.09 0.71
1 -8 7 2.79 0.27
-1 -8 7 2.99 0.29
2 -8 7 13.41 0.52
-2 -8 7 13.85 0.54
3 -8 7 51.41 1.52
-3 -8 7 49.27 1.54
3 -8 -7 50.43 1.46
4 -8 -7 28.17 0.85
4 -8 7 26.78 0.88
5 -8 7 2.67 0.28
5 -8 -7 2.53 0.29
-5 8 -7 2.6 0.37
-6 -8 7 2.69 0.27
6 -8 -7 2.41 0.36
-6 8 -7 3.06 0.45
6 -8 7 2.35 0.3
7 -8 -7 2.53 0.38
7 -8 7 2.16 0.34
-7 -8 -7 2.04 0.21
-7 8 -7 2.01 0.56
-7 -8 7 2.51 0.28
0 -9 7 5.15 0.36
-1 -9 7 17.53 0.64
1 -9 7 16.53 0.63
2 -9 7 8.2 0.41
-2 -9 7 8.01 0.44
3 -9 7 4.78 0.36
-3 -9 7 4.57 0.42
4 -9 7 1.92 0.32
4 -9 -7 1.68 0.29
5 -9 -7 7.14 0.4
5 -9 7 6.94 0.4
-6 -9 7 19.03 0.65
6 -9 7 20.25 0.71
6 -9 -7 19.24 0.73
0 -10 7 10.97 0.53
1 -10 7 5.56 0.42
-1 -10 7 5.84 0.43
2 -10 7 1.95 0.36
-2 -10 7 1.57 0.39
3 -10 7 22.09 0.81
-3 -10 7 23.63 0.87
4 -10 7 2.35 0.4
4 -10 -7 3.08 0.33
-4 -10 7 2.75 0.51
5 -10 -7 19.4 0.73
5 -10 7 18.32 0.72
0 -11 7 12.73 0.63
-1 -11 7 24.53 0.95
1 -11 7 27.83 0.95
2 -11 7 11.89 0.6
-2 -11 7 11.45 0.64
3 -11 7 0 0.4
-3 -11 7 0.32 0.54
4 -11 7 8.97 0.58
0 -12 7 15.17 0.76
-1 -12 7 6.69 0.62
1 -12 7 7.58 0.62
0 0 8 392.39 11.13
0 0 8 386.22 11.11
0 0 -8 395.69 11.04
-1 0 -8 41.52 1.23
-1 0 8 42.65 1.22
1 0 -8 41.21 1.24
1 0 8 41.58 1.21
-1 0 8 42.41 1.22
1 0 8 43.15 1.21
2 0 -8 10.34 0.39
2 0 8 10.85 0.33
-2 0 -8 10.7 0.37
-2 0 8 10.98 0.36
-2 0 8 10.56 0.35
2 0 8 10.89 0.34
-3 0 8 11.87 0.4
-3 0 -8 12.77 0.42
3 0 8 11.78 0.37
3 0 8 12.7 0.38
-3 0 8 12.03 0.41
4 0 8 4.04 0.16
-4 0 8 4.52 0.22
-4 0 -8 4.14 0.22
-4 0 8 4.68 0.23
-5 0 8 12.48 0.43
-5 0 8 12.12 0.42
-5 0 -8 11.93 0.43
-6 0 8 84.2 2.5
-6 0 -8 84.97 2.5
6 0 -8 88.59 2.49
-6 0 8 89.39 2.5
-7 0 -8 4.75 0.29
7 0 -8 5.19 0.26
-7 0 8 4.45 0.31
-8 0 -8 12.2 0.49
-8 0 8 12 0.5
-9 0 8 0.24 0.38
-9 0 8 -0.21 0.35
-9 0 -8 0.05 0.32
0 -1 -8 167.06 4.83
0 -1 8 170.02 4.82
0 1 -8 174.71 4.84
0 -1 8 169.62 4.82
-1 -1 8 10.46 0.34
-1 1 8 10.63 0.33
-1 -1 8 10.43 0.36
-1 1 -8 10.44 0.37
1 -1 -8 10.76 0.37
-1 -1 -8 10.39 0.36
1 -1 8 10.4 0.34
1 -1 8 10.72 0.34
-1 1 8 10.63 0.33
1 1 -8 10.4 0.38
-2 1 8 89.59 2.51
-2 1 8 87.44 2.51
2 -1 -8 87.67 2.52
2 -1 -8 88.36 2.54
-2 -1 8 90.45 2.53
-2 -1 -8 87.94 2.53
2 -1 8 88.46 2.52
-2 1 -8 87.23 2.54
-3 1 8 6.31 0.24
-3 1 8 6.67 0.24
-3 -1 8 6.09 0.27
3 -1 8 6.25 0.23
-3 -1 8 6.57 0.25
-3 1 -8 6.13 0.27
-3 -1 -8 6 0.25
3 -1 -8 6.19 0.25
-4 1 8 23.46 0.75
-4 -1 -8 25.02 0.76
-4 -1 8 24.64 0.76
-4 1 -8 25.62 0.78
-4 -1 8 24.86 0.77
-4 1 8 25.52 0.76
4 -1 -8 26.33 0.76
4 -1 8 24.21 0.74
-5 -1 -8 18.85 0.6
-5 1 -8 18.77 0.62
5 -1 8 17.94 0.57
-5 1 8 19.58 0.6
-5 -1 8 19.06 0.62
5 -1 -8 19.42 0.6
-5 1 8 19.3 0.6
-5 -1 8 18.76 0.6
-6 1 8 51.86 1.53
-6 -1 8 51.43 1.55
-6 -1 -8 52.15 1.53
6 -1 8 53.16 1.51
-6 1 -8 50.69 1.55
-6 1 8 52.8 1.53
6 -1 -8 51.96 1.53
-6 -1 8 53.87 1.54
7 -1 -8 5.47 0.29
-7 1 8 4.83 0.3
-7 -1 -8 5.57 0.3
-7 1 -8 5.54 0.32
7 -1 8 5.66 0.23
-7 -1 8 5.63 0.34
-7 -1 8 5.41 0.31
-7 1 8 5.34 0.31
8 -1 8 18.07 0.56
8 -1 -8 18.49 0.62
-8 -1 8 19.18 0.67
-8 -1 8 19.02 0.65
-8 1 8 16.97 0.66
-8 1 8 17.17 0.64
-8 -1 -8 18.08 0.63
-8 1 -8 18.05 0.65
-9 1 8 17.55 0.69
9 -1 -8 14.43 0.57
-9 1 8 16.47 0.62
-9 1 -8 15.2 0.63
-9 -1 8 14.98 0.63
-9 -1 8 16.64 0.65
-9 -1 -8 16.35 0.61
0 2 -8 2.74 0.2
0 -2 8 2.83 0.17
0 -2 -8 2.88 0.17
1 -2 -8 251.5 7.01
1 -2 -8 246.64 7
1 -2 8 245.12 7
-1 2 -8 246.54 7.02
-1 -2 8 243.65 7.01
1 2 -8 253.88 7.02
2 -2 8 44.25 1.27
-2 2 -8 42.94 1.29
2 -2 -8 43.46 1.28
2 -2 -8 44.25 1.26
-2 -2 8 42.3 1.26
3 -2 8 67.06 2.04
-3 -2 8 73.3 2.04
-3 2 -8 73.87 2.07
3 -2 -8 73.7 2.04
-3 -2 8 67.88 2.06
-4 -2 8 68.85 2.1
4 -2 8 73.37 2.08
-4 2 -8 74.49 2.11
-4 2 8 71.69 2.07
-4 2 8 73.35 2.07
-4 -2 -8 74.23 2.08
-4 -2 8 71.95 2.08
4 -2 -8 71.54 2.08
-5 2 8 51.85 1.48
-5 -2 -8 50.48 1.49
-5 2 8 53.88 1.49
5 -2 -8 51 1.5
-5 2 -8 51.83 1.52
5 -2 8 49.46 1.48
-5 -2 8 51.4 1.52
-5 -2 8 50.16 1.5
-6 -2 -8 7.91 0.32
6 -2 8 8.31 0.3
-6 2 8 7.98 0.32
-6 2 -8 7.92 0.36
6 -2 -8 8.08 0.33
-6 2 8 8.22 0.33
-6 -2 8 7.78 0.33
-6 -2 8 8.21 0.38
-7 2 8 7.93 0.35
-7 -2 8 7.57 0.4
7 -2 8 7.6 0.3
-7 2 8 7.87 0.36
-7 -2 -8 7.82 0.34
-7 2 -8 7.97 0.38
-7 -2 8 8.01 0.36
7 -2 -8 7.54 0.34
-8 2 8 0.56 0.29
-8 -2 8 0.69 0.29
-8 2 8 0.52 0.26
-8 2 -8 0.47 0.3
8 -2 8 0.7 0.18
-8 -2 -8 0.55 0.24
8 -2 -8 0.97 0.25
-8 -2 8 0.53 0.32
-9 -2 8 20.59 0.76
-9 -2 8 21.99 0.79
-9 -2 -8 20.16 0.72
9 -2 -8 21.6 0.71
9 -2 8 20.78 0.67
-9 2 8 22.07 0.73
-9 2 8 21.34 0.79
-9 2 -8 20.54 0.78
0 -3 8 4.65 0.22
0 3 -8 4.17 0.24
0 -3 -8 4.84 0.19
0 -3 -8 4.36 0.2
-1 3 -8 34.25 1.04
1 -3 -8 35.29 1.02
1 -3 8 34.96 1.03
-1 -3 -8 34.27 1.01
1 -3 -8 35.41 1.01
-1 -3 8 32.68 1.03
2 -3 -8 44.09 1.32
-2 -3 -8 43.52 1.3
2 -3 -8 45.51 1.31
-2 -3 8 46.54 1.31
-2 3 -8 45.36 1.34
-2 -3 8 44.69 1.33
3 -3 -8 18.73 0.61
-3 -3 -8 20.38 0.6
3 -3 8 19.95 0.62
-3 -3 8 19.28 0.64
3 -3 -8 20.06 0.63
-3 3 -8 19.91 0.65
-3 -3 8 20.95 0.62
4 -3 8 43.74 1.28
-4 -3 8 43.89 1.28
-4 3 -8 43.24 1.31
4 -3 -8 44.1 1.29
-4 -3 8 43.7 1.31
-4 -3 -8 43.79 1.27
-5 -3 -8 12.53 0.43
-5 3 -8 12.83 0.48
5 -3 8 12.75 0.43
-5 -3 8 13.24 0.49
5 -3 -8 13.58 0.45
-5 -3 8 12.42 0.44
6 -3 -8 0.92 0.2
-6 -3 8 0.54 0.27
-6 3 -8 0.64 0.25
6 -3 8 0.74 0.16
-6 -3 -8 0.85 0.17
-6 -3 8 0.79 0.19
-7 -3 -8 15.94 0.54
-7 -3 8 15.43 0.61
-7 3 -8 15.65 0.61
-7 3 8 16.05 0.53
7 -3 -8 17.35 0.57
-7 -3 8 16.61 0.56
-7 3 8 16.77 0.55
7 -3 8 15.94 0.53
8 -3 -8 8.38 0.39
-8 -3 8 7.39 0.4
-8 3 8 8 0.42
-8 -3 -8 8.17 0.36
-8 3 8 8.24 0.36
-8 3 -8 7.19 0.45
-8 -3 8 7.4 0.46
8 -3 8 8.11 0.33
-9 3 8 8.01 0.5
-9 3 -8 6.65 0.51
-9 -3 8 7.45 0.45
-9 3 8 7.31 0.39
9 -3 8 7.32 0.34
0 -4 -8 17.02 0.5
0 -4 8 16.33 0.54
0 4 -8 16.53 0.55
0 -4 -8 16.12 0.5
-1 4 -8 11 0.4
-1 -4 -8 9.83 0.33
-1 -4 8 10.1 0.38
-1 -4 -8 10.6 0.33
1 -4 -8 10.42 0.35
1 -4 8 10.05 0.37
1 -4 -8 10.45 0.34
-2 4 -8 52.3 1.55
-2 -4 8 51.41 1.54
2 -4 8 51.44 1.53
2 -4 -8 52.78 1.51
2 -4 -8 53.55 1.52
-2 -4 -8 52.1 1.5
-3 -4 8 0.69 0.19
3 -4 8 0.7 0.16
-3 -4 -8 0.83 0.12
3 -4 -8 0.73 0.15
-3 -4 8 0.76 0.16
3 -4 -8 0.59 0.18
-3 4 -8 0.7 0.22
-4 -4 8 67.5 1.94
-4 -4 -8 66.12 1.92
-4 4 -8 66.95 1.97
4 -4 8 65.9 1.94
4 -4 -8 67.24 1.94
-4 -4 8 68.82 1.97
-5 -4 8 3.92 0.23
5 -4 8 3.82 0.22
-5 -4 8 3.58 0.3
-5 4 -8 3.86 0.29
-5 -4 -8 3.98 0.2
5 -4 -8 3.76 0.23
-6 -4 8 37.03 1.09
-6 -4 -8 36.52 1.07
6 -4 -8 35.9 1.09
-6 -4 8 35.19 1.13
-6 4 -8 36.64 1.14
6 -4 8 35.27 1.08
-7 4 -8 7.39 0.42
-7 -4 -8 7.6 0.31
-7 -4 8 6.53 0.42
-7 -4 8 7.28 0.34
7 -4 -8 6.97 0.35
7 -4 8 6.67 0.31
-8 4 -8 13.83 0.65
8 -4 8 15.27 0.52
8 -4 -8 16.03 0.58
-8 -4 -8 15.26 0.54
-9 4 -8 1.38 0.51
-9 -4 8 1.63 0.37
0 -5 8 0.07 0.18
1 -5 8 0.08 0.17
-1 5 -8 0.11 0.21
1 -5 -8 0.24 0.12
1 -5 -8 0.39 0.12
-1 -5 8 0.21 0.19
2 -5 -8 5.87 0.25
-2 5 -8 5.47 0.31
-2 -5 8 5.26 0.29
2 -5 8 6.31 0.28
2 -5 -8 6.31 0.24
-3 -5 8 6.09 0.32
3 -5 8 6.4 0.29
3 -5 -8 6.17 0.28
3 -5 -8 6.23 0.26
-3 5 -8 6.62 0.34
-4 -5 8 34.59 1.07
-4 -5 8 33.64 1.02
4 -5 8 33.62 1.03
4 -5 -8 35.33 1.03
-4 -5 -8 34.7 0.99
-4 5 -8 33.24 1.06
-5 5 -8 3.33 0.31
-5 -5 -8 3.28 0.18
-5 -5 8 3.16 0.23
-5 -5 8 3.13 0.32
5 -5 -8 3.38 0.25
5 -5 8 3.45 0.24
-6 -5 8 1.81 0.33
6 -5 -8 1.85 0.25
6 -5 8 2.11 0.22
-6 5 -8 1.91 0.33
-6 -5 8 2.16 0.22
-6 -5 -8 2.07 0.19
7 -5 8 19.25 0.63
7 -5 -8 19.42 0.67
-7 -5 8 19.45 0.65
-7 -5 -8 19.63 0.62
-7 5 -8 18.37 0.73
-8 -5 8 -0.05 0.26
8 -5 8 -0.04 0.24
-8 5 -8 0.47 0.45
-8 -5 -8 -0.1 0.23
8 -5 -8 0.34 0.3
0 -6 8 0.54 0.2
-1 -6 8 24.99 0.79
1 -6 8 24.27 0.78
2 -6 -8 8.99 0.32
2 -6 -8 8.97 0.32
-2 -6 8 8.43 0.39
-2 6 -8 9.71 0.4
2 -6 8 9.14 0.37
3 -6 -8 19.74 0.64
3 -6 8 19.87 0.66
-3 -6 8 20.38 0.69
3 -6 -8 20.14 0.63
-3 6 -8 20.45 0.69
4 -6 8 15.94 0.57
-4 6 -8 16.81 0.62
4 -6 -8 17.38 0.56
-4 -6 8 18.27 0.63
-4 -6 8 16.03 0.54
-5 6 -8 26.76 0.9
-5 -6 -8 26.87 0.8
-5 -6 8 26.36 0.9
-5 -6 8 27.83 0.83
5 -6 8 26.57 0.84
5 -6 -8 26.72 0.85
6 -6 -8 17.47 0.62
-6 -6 8 16.68 0.59
-6 6 -8 17.74 0.7
-6 -6 8 18.41 0.69
6 -6 8 17.49 0.6
-6 -6 -8 18.14 0.56
-7 6 -8 19.69 0.79
-7 -6 -8 19.76 0.64
-7 -6 8 20.33 0.68
7 -6 -8 20.83 0.71
7 -6 8 19.71 0.67
-8 -6 8 17.23 0.62
-8 -6 -8 16.44 0.58
-8 6 -8 17.35 0.8
0 -7 8 2.6 0.27
1 -7 8 3.66 0.27
-1 -7 8 3.87 0.29
2 -7 8 0.79 0.22
-2 -7 8 0.8 0.26
3 -7 -8 6.21 0.29
-3 7 -8 6.01 0.37
-3 -7 8 5.87 0.37
3 -7 -8 6.71 0.29
3 -7 8 6.66 0.34
4 -7 8 4.79 0.3
-4 7 -8 4.89 0.38
4 -7 -8 4.52 0.27
-4 -7 8 4.3 0.37
-5 -7 8 25.38 0.89
5 -7 -8 25.58 0.83
-5 7 -8 25.98 0.89
-5 -7 8 25.84 0.8
5 -7 8 24.59 0.82
-6 -7 -8 4.34 0.23
6 -7 -8 4.5 0.35
6 -7 8 4.27 0.31
-6 7 -8 4.82 0.49
-6 -7 8 4.3 0.28
-7 -7 8 5.3 0.33
7 -7 -8 5.13 0.4
7 -7 8 5.21 0.35
-7 7 -8 5.63 0.57
-7 -7 -8 5.4 0.29
0 -8 8 25.81 0.85
-1 -8 8 62.29 1.88
1 -8 8 63.89 1.88
2 -8 8 6.03 0.35
-2 -8 8 6.16 0.39
-3 -8 8 48.79 1.53
3 -8 8 49.62 1.5
3 -8 -8 49.25 1.45
3 -8 -8 51.02 1.46
4 -8 -8 37.93 1.13
4 -8 8 36.27 1.14
-4 -8 8 36.05 1.19
-5 8 -8 1.03 0.44
-5 -8 8 0.5 0.41
5 -8 8 0.81 0.28
5 -8 -8 0.68 0.29
-5 -8 8 0.9 0.23
6 -8 -8 15.58 0.65
6 -8 8 16.83 0.62
-6 8 -8 17.69 0.76
-6 -8 8 16.64 0.59
-7 -8 8 3.87 0.34
-7 8 -8 4.22 0.67
0 -9 8 1.69 0.32
1 -9 8 3.25 0.35
-1 -9 8 4.13 0.38
-2 -9 8 40.45 1.24
2 -9 8 36.53 1.21
-3 -9 8 20.9 0.81
3 -9 -8 22.34 0.69
3 -9 8 22.08 0.77
4 -9 -8 29.38 0.93
4 -9 8 29.7 0.97
-4 -9 8 28.59 1.03
5 -9 -8 7.65 0.46
-5 -9 8 7.79 0.59
5 -9 8 7.43 0.43
-6 -9 8 3.72 0.32
0 -10 8 49.52 1.54
-1 -10 8 2.91 0.41
1 -10 8 2.35 0.39
-2 -10 8 4.1 0.46
2 -10 8 4.73 0.43
3 -10 8 4.29 0.43
-3 -10 8 4.63 0.52
-4 -10 8 22.1 0.9
4 -10 8 20.83 0.8
0 -11 8 44.18 1.43
-1 -11 8 1.44 0.48
1 -11 8 1.47 0.45
-2 -11 8 8.28 0.6
2 -11 8 7.52 0.55
0 0 -9 0.01 0.17
0 0 9 0.01 0.11
0 0 9 -0.08 0.11
1 0 9 58.6 1.65
-1 0 9 57.06 1.66
1 0 -9 58.28 1.69
-1 0 -9 56.51 1.68
-1 0 9 56.97 1.66
1 0 9 58.3 1.65
2 0 9 140.37 4.06
2 0 9 138.95 4.06
-2 0 9 147.27 4.07
-2 0 9 147.89 4.07
2 0 -9 145.69 4.1
-2 0 -9 141.11 4.09
-3 0 -9 16.52 0.54
-3 0 9 15.96 0.52
-3 0 9 16.63 0.52
-4 0 9 7.02 0.29
-4 0 9 6.34 0.28
-4 0 -9 6.86 0.3
-5 0 9 27.16 0.84
-5 0 9 28 0.85
-5 0 -9 27.22 0.86
-6 0 -9 0.52 0.21
-6 0 9 0.62 0.23
-6 0 9 0.78 0.23
-7 0 9 16.61 0.6
-7 0 9 17.23 0.6
-7 0 -9 17.28 0.61
-8 0 -9 48.32 1.5
-8 0 9 48.45 1.49
-8 0 9 51.85 1.52
-9 0 -9 15.49 0.65
-9 0 9 16.45 0.71
0 -1 9 51.12 1.49
0 -1 9 52.96 1.49
0 -1 -9 51.43 1.51
0 1 -9 50.71 1.52
1 -1 9 3.82 0.19
-1 -1 9 3.46 0.2
1 -1 9 3.67 0.18
-1 -1 9 3.68 0.19
-1 1 -9 3.86 0.23
1 1 -9 3.65 0.23
1 -1 -9 3.9 0.22
-1 -1 -9 3.33 0.2
2 -1 -9 19.83 0.65
2 -1 9 21.15 0.62
2 -1 9 19.91 0.62
-2 -1 9 21.24 0.64
-2 -1 -9 20.29 0.64
-2 1 9 20.14 0.61
-2 1 -9 18.87 0.65
-2 -1 9 20.84 0.63
-2 1 9 21.42 0.61
-3 -1 9 7.83 0.3
-3 -1 -9 7.08 0.29
-3 1 9 7.3 0.26
3 -1 9 7.54 0.26
-3 -1 9 5.78 0.27
-3 1 -9 7.09 0.31
-3 1 9 7.34 0.27
-4 -1 9 16.42 0.54
-4 1 9 17.31 0.52
-4 1 -9 15.65 0.55
4 -1 -9 14.89 0.52
-4 1 9 16.38 0.52
-4 -1 -9 16.62 0.54
4 -1 9 16.16 0.5
-5 -1 -9 12.62 0.44
5 -1 9 12 0.4
5 -1 -9 12.72 0.44
-5 -1 9 11.69 0.44
-5 1 -9 12.76 0.46
-5 1 9 12.61 0.43
-5 1 9 13.13 0.44
-5 -1 9 11.93 0.46
6 -1 9 32.44 0.99
6 -1 -9 33.51 1.03
-6 1 -9 34.25 1.05
-6 1 9 34.21 1.03
-6 -1 9 35.03 1.04
-6 -1 9 33.83 1.05
-6 1 9 34.66 1.04
-6 -1 -9 34.2 1.04
-7 1 9 4.52 0.33
-7 -1 9 4.63 0.34
-7 1 9 4.59 0.31
-7 -1 9 4.27 0.33
-7 -1 -9 4.47 0.3
-7 1 -9 4.6 0.32
7 -1 -9 4.34 0.29
7 -1 9 4.43 0.22
8 -1 -9 -0.15 0.26
-8 -1 9 0.14 0.32
-8 -1 -9 0.25 0.29
-8 1 9 0.48 0.28
-8 -1 9 0.5 0.33
-8 1 9 0.28 0.36
-8 1 -9 0.21 0.31
-9 -1 9 0.37 0.42
-9 1 9 0.44 0.49
-9 1 -9 0.16 0.39
0 -2 -9 47.07 1.38
0 2 -9 46.08 1.4
0 -2 9 47.23 1.37
0 -2 9 48.83 1.39
1 -2 9 25.47 0.79
1 -2 -9 26.35 0.8
-1 -2 9 26.55 0.8
-1 -2 9 26.49 0.79
1 2 -9 25.79 0.82
-1 2 -9 26.53 0.82
-1 -2 -9 25.85 0.79
-2 -2 9 40.25 1.21
2 -2 -9 40.75 1.2
-2 2 -9 40.83 1.23
-2 -2 -9 41.25 1.21
2 -2 9 41.87 1.2
2 -2 -9 40.3 1.22
-2 -2 9 41.61 1.2
3 -2 -9 22.91 0.74
-3 2 -9 22.59 0.74
-3 -2 9 22.74 0.73
-3 -2 -9 24.01 0.71
3 -2 9 23.46 0.7
-3 -2 9 23.08 0.71
3 -2 -9 23.56 0.72
4 -2 -9 10.02 0.37
-4 2 -9 9.68 0.39
-4 -2 9 9.56 0.37
4 -2 9 9.77 0.34
-4 -2 -9 10.01 0.36
-5 2 -9 11.93 0.46
-5 -2 -9 11.82 0.42
-5 -2 9 11.7 0.43
5 -2 -9 11.68 0.42
-5 2 9 12.19 0.4
-5 -2 9 11.97 0.45
-5 2 9 11.82 0.4
5 -2 9 10.75 0.39
-6 2 9 12.76 0.44
6 -2 -9 12.94 0.47
-6 -2 -9 12.85 0.46
-6 -2 9 12.87 0.48
-6 2 9 13.13 0.46
-6 2 -9 13.06 0.5
-6 -2 9 12.47 0.51
6 -2 9 13.12 0.43
-7 -2 9 4.18 0.36
7 -2 9 4.5 0.23
7 -2 -9 4.98 0.31
-7 2 9 4.43 0.28
-7 2 -9 4.29 0.35
-7 -2 -9 4.57 0.29
-7 -2 9 5.08 0.33
-7 2 9 4.93 0.33
8 -2 -9 20.44 0.71
-8 -2 -9 21.22 0.71
8 -2 9 20.44 0.65
-8 -2 9 20.23 0.75
-8 2 9 21.1 0.7
-8 2 9 21.44 0.74
-8 -2 9 20.94 0.74
0 -3 -9 66.34 1.92
0 -3 9 70.64 1.94
0 3 -9 65.66 1.96
0 -3 -9 65.19 1.93
1 -3 9 3.4 0.21
1 -3 -9 3 0.19
-1 -3 9 2.72 0.2
-1 -3 9 3.08 0.19
-1 -3 -9 2.77 0.18
-1 3 -9 2.67 0.24
-2 -3 -9 15.61 0.49
-2 3 -9 15.75 0.54
2 -3 9 15.45 0.5
2 -3 -9 15.32 0.51
-2 -3 9 15.27 0.5
-2 -3 9 15.38 0.52
2 -3 -9 15.06 0.5
-3 -3 9 51.41 1.51
-3 -3 -9 49.68 1.48
3 -3 9 50.47 1.48
3 -3 -9 51.99 1.51
3 -3 -9 51.77 1.49
-3 3 -9 51.34 1.52
-3 -3 9 50.17 1.49
4 -3 -9 46.67 1.37
-4 3 -9 46.7 1.4
-4 -3 -9 46.47 1.36
-4 -3 9 46.65 1.39
4 -3 9 46.04 1.36
-4 -3 9 47.16 1.37
-5 -3 9 2.64 0.23
-5 -3 -9 2.95 0.21
5 -3 -9 2.76 0.24
5 -3 9 2.89 0.19
-5 3 -9 2.68 0.3
-5 -3 9 2.34 0.28
-6 -3 -9 6.83 0.3
6 -3 -9 6.8 0.33
-6 -3 9 6.21 0.32
6 -3 9 6.62 0.28
-6 3 -9 5.88 0.36
-6 -3 9 5.94 0.37
-7 -3 -9 7.72 0.35
7 -3 9 8.03 0.33
7 -3 -9 7.86 0.38
-7 3 -9 7.73 0.45
-7 -3 9 8.01 0.39
-7 -3 9 8.19 0.45
-8 -3 9 9.03 0.51
8 -3 -9 8.23 0.42
-8 3 -9 8.53 0.52
-8 -3 -9 8.41 0.4
8 -3 9 9.23 0.36
-8 -3 9 8.44 0.46
0 -4 -9 4.29 0.21
0 -4 -9 4.23 0.21
0 4 -9 4.4 0.28
0 -4 9 4.06 0.24
-1 -4 -9 10.06 0.35
1 -4 9 9.89 0.39
-1 4 -9 10.24 0.42
-1 -4 9 10.31 0.39
-1 -4 -9 10.63 0.36
1 -4 -9 10.18 0.37
1 -4 -9 10.51 0.36
-2 -4 9 21.66 0.68
2 -4 9 22.39 0.69
-2 -4 -9 21.86 0.66
-2 -4 9 22.2 0.71
-2 4 -9 21.73 0.72
2 -4 -9 21.81 0.69
2 -4 -9 21.56 0.67
3 -4 -9 14.53 0.5
-3 -4 9 14.9 0.5
-3 -4 -9 14.62 0.48
-3 4 -9 15.68 0.55
3 -4 9 15.28 0.5
3 -4 -9 15.37 0.52
-3 -4 9 15.27 0.53
-4 -4 9 30.42 0.93
4 -4 -9 31.4 0.94
-4 -4 9 29.82 0.96
-4 -4 -9 30.82 0.91
-4 4 -9 30.25 0.97
5 -4 9 18.22 0.62
-5 -4 -9 19.4 0.61
-5 4 -9 19.02 0.68
5 -4 -9 19.24 0.64
-5 -4 9 19.29 0.63
-5 -4 9 20.25 0.68
-6 -4 9 0.94 0.24
-6 -4 9 1.01 0.32
-6 4 -9 1.37 0.32
-6 -4 -9 0.81 0.19
6 -4 -9 1.09 0.26
6 -4 9 0.97 0.2
7 -4 9 1.53 0.23
-7 -4 -9 1.46 0.24
-7 -4 9 1.36 0.38
7 -4 -9 1.88 0.29
-7 4 -9 1.37 0.4
-7 -4 9 1.04 0.27
-8 -4 9 1.27 0.44
-8 -4 9 0.95 0.32
8 -4 9 1.14 0.24
-8 4 -9 0.63 0.45
-8 -4 -9 1.11 0.27
8 -4 -9 0.94 0.33
0 -5 -9 0.89 0.15
0 -5 9 0.68 0.2
0 -5 -9 0.92 0.14
1 -5 -9 4.79 0.23
1 -5 -9 5.28 0.22
-1 -5 9 5.31 0.29
-1 -5 -9 5.14 0.21
-1 -5 -9 4.88 0.22
-1 5 -9 5.04 0.32
1 -5 9 5.26 0.27
-2 -5 -9 4.32 0.19
-2 -5 9 4.31 0.28
2 -5 -9 4.74 0.23
2 -5 -9 4.45 0.24
2 -5 9 4.58 0.27
-2 -5 -9 4.62 0.22
-2 5 -9 4.08 0.31
3 -5 -9 4.91 0.27
3 -5 -9 4.96 0.25
-3 -5 9 4.82 0.25
-3 -5 9 4.87 0.3
-3 5 -9 4.63 0.33
3 -5 9 4.88 0.27
-3 -5 -9 4.76 0.21
4 -5 9 4.83 0.26
-4 -5 9 4.52 0.25
-4 -5 -9 4.54 0.22
-4 5 -9 4.51 0.35
-4 -5 9 4.38 0.32
4 -5 -9 5 0.27
-5 5 -9 2.48 0.36
-5 -5 9 2.82 0.32
-5 -5 9 2.5 0.24
5 -5 -9 2.55 0.25
-5 -5 -9 2.46 0.2
5 -5 9 2.02 0.23
-6 -5 9 5.47 0.41
-6 5 -9 5.51 0.43
-6 -5 9 5.63 0.32
6 -5 -9 5.69 0.34
-6 -5 -9 5.91 0.28
6 -5 9 5.53 0.3
-7 5 -9 1.27 0.42
-7 -5 -9 2.29 0.25
7 -5 -9 2.42 0.32
-7 -5 9 1.72 0.41
7 -5 9 2.05 0.24
-7 -5 9 2.26 0.28
-8 5 -9 5.71 0.57
0 -6 9 5.52 0.31
1 -6 -9 42.75 1.27
1 -6 9 42.51 1.31
-1 -6 9 45.38 1.32
1 -6 -9 43.54 1.27
2 -6 9 5.3 0.3
-2 -6 9 5.54 0.33
2 -6 -9 5.36 0.26
-2 6 -9 5.39 0.36
2 -6 -9 4.93 0.25
3 -6 9 11.89 0.44
3 -6 -9 11.87 0.43
-3 -6 9 11.16 0.48
3 -6 -9 10.86 0.41
-3 6 -9 11.06 0.5
-4 -6 -9 11.48 0.38
-4 6 -9 11.34 0.53
-4 -6 9 11.98 0.43
-4 -6 9 11.18 0.5
4 -6 9 10.96 0.44
4 -6 -9 11.64 0.44
-5 -6 -9 54.52 1.61
-5 -6 9 55.59 1.69
5 -6 9 54.3 1.64
-5 -6 9 58.06 1.64
-5 6 -9 58.54 1.71
5 -6 -9 52.55 1.65
6 -6 9 13.76 0.5
-6 6 -9 13.95 0.65
6 -6 -9 12.78 0.54
-6 -6 -9 12.62 0.46
-6 -6 9 13.62 0.5
-6 -6 9 13.32 0.6
-7 6 -9 2.56 0.54
7 -6 9 2.12 0.28
-7 -6 9 1.87 0.31
7 -6 -9 1.97 0.35
-7 -6 -9 1.64 0.24
-7 -6 9 1.36 0.46
0 -7 9 3.72 0.3
-1 -7 9 0.49 0.25
1 -7 9 0.4 0.24
2 -7 -9 12.61 0.43
2 -7 -9 12.63 0.44
2 -7 9 11.6 0.49
-2 -7 9 13.12 0.52
-3 -7 9 28.05 0.96
-3 7 -9 30.06 0.97
3 -7 -9 28.98 0.91
3 -7 9 29.84 0.93
3 -7 -9 29.41 0.91
-4 7 -9 27.45 0.93
4 -7 9 26.1 0.86
-4 -7 9 27.58 0.91
4 -7 -9 26.98 0.86
-4 -7 9 26.21 0.83
5 -7 9 9.77 0.41
-5 7 -9 8.37 0.56
-5 -7 -9 8.19 0.32
-5 -7 9 8.12 0.51
-5 -7 9 9.08 0.39
5 -7 -9 8.68 0.43
-6 -7 -9 11.14 0.41
-6 -7 9 12.39 0.62
6 -7 -9 11.32 0.52
6 -7 9 10.35 0.48
-6 7 -9 12.07 0.67
-6 -7 9 12.48 0.47
-7 7 -9 16.03 0.85
-7 -7 9 16.06 0.6
0 -8 9 20.89 0.73
-1 -8 9 16.17 0.61
1 -8 9 15.37 0.59
2 -8 9 1.72 0.3
-2 -8 9 1.51 0.34
3 -8 -9 0.44 0.24
3 -8 9 0.38 0.3
-3 -8 9 0.57 0.35
3 -8 -9 0.59 0.24
4 -8 9 32.15 1.02
4 -8 -9 29.47 1.01
-4 -8 9 34 1.08
-5 8 -9 5.08 0.57
-5 -8 9 5.27 0.33
5 -8 -9 4.59 0.42
5 -8 9 5.16 0.37
-5 -8 9 5.06 0.5
6 -8 9 3.56 0.36
-6 -8 -9 3.51 0.26
-6 -8 9 3.77 0.33
-6 8 -9 4.44 0.64
0 -9 9 3.27 0.38
-1 -9 9 7.07 0.46
1 -9 9 7.04 0.43
2 -9 9 11.17 0.51
-2 -9 9 11.75 0.57
3 -9 -9 20.69 0.67
3 -9 9 20.08 0.74
3 -9 -9 20.52 0.69
-3 -9 9 19 0.78
-4 -9 9 7.68 0.55
4 -9 -9 8.24 0.45
4 -9 9 7.25 0.47
5 -9 9 21.02 0.78
-5 -9 9 22.01 0.72
0 -10 9 11.65 0.59
1 -10 9 28.43 0.99
-1 -10 9 28.13 1
2 -10 9 29.87 1.03
-2 -10 9 31.15 1.08
3 -10 9 5.11 0.46
3 -10 -9 4.83 0.34
-3 -10 9 4.65 0.54
0 0 10 167.11 4.82
0 0 10 172.8 4.83
0 0 -10 171.64 4.86
-1 0 10 17.41 0.55
1 0 10 18.3 0.54
-1 0 10 18.17 0.55
1 0 -10 17.1 0.6
-1 0 -10 18.04 0.59
1 0 10 18.44 0.54
2 0 -10 62.13 1.86
-2 0 10 66.24 1.82
-2 0 -10 62.13 1.84
-2 0 10 62.18 1.82
-3 0 -10 6.57 0.3
-3 0 10 6.54 0.28
-3 0 10 6.72 0.28
-4 0 10 14.22 0.48
-4 0 -10 13.81 0.5
-4 0 10 13.69 0.48
-5 0 10 1.24 0.22
-5 0 -10 1.37 0.24
-5 0 10 1.35 0.24
-6 0 10 20.39 0.67
-6 0 -10 20.06 0.69
-6 0 10 19.45 0.67
-7 0 10 9.95 0.44
-7 0 -10 9.31 0.45
-7 0 10 9.6 0.46
-8 0 -10 -0.02 0.34
-8 0 10 0.35 0.32
-8 0 10 0.52 0.41
0 1 -10 11.09 0.44
0 -1 -10 11.59 0.43
0 -1 10 11.74 0.39
0 -1 10 11.97 0.39
-1 -1 -10 16.55 0.55
-1 -1 10 16.86 0.53
1 -1 10 16.08 0.52
1 1 -10 16.12 0.56
-1 1 -10 17.92 0.58
-1 -1 10 16.11 0.53
1 -1 10 16.4 0.51
1 -1 -10 15.99 0.56
2 -1 -10 37.98 1.13
-2 1 -10 35.33 1.13
-2 -1 10 37.47 1.11
-2 -1 10 37.68 1.11
-2 -1 -10 37.72 1.12
2 -1 10 38.05 1.1
2 -1 10 36.86 1.09
-3 -1 10 0.5 0.19
-3 1 10 0.38 0.14
-3 1 -10 0.26 0.21
-3 1 10 0.64 0.15
3 -1 10 0.48 0.16
3 -1 10 0.41 0.13
-3 -1 -10 0.51 0.18
-3 -1 10 0.46 0.18
4 -1 10 6.74 0.27
-4 -1 10 6.69 0.3
-4 -1 -10 6.3 0.3
-4 1 -10 6.1 0.32
-4 -1 10 6.35 0.31
4 -1 10 6.54 0.25
-4 1 10 6.26 0.27
-4 1 10 6.76 0.28
-5 -1 -10 1.64 0.24
-5 1 -10 1.98 0.26
-5 -1 10 2.24 0.25
-5 1 10 1.94 0.21
5 -1 10 2.09 0.15
-5 1 10 2.31 0.22
-5 -1 10 2.35 0.25
6 -1 10 9.64 0.33
-6 1 10 9.53 0.39
-6 -1 10 9.46 0.42
-6 1 -10 8.73 0.42
-6 1 10 9.01 0.41
-6 -1 -10 9.46 0.41
-6 -1 10 10.23 0.43
-7 1 -10 2.52 0.33
-7 1 10 2.65 0.28
-7 -1 -10 2.57 0.31
-7 1 10 2.92 0.37
-7 -1 10 2.78 0.35
-7 -1 10 2.86 0.32
-8 -1 10 42.34 1.31
-8 1 10 41.46 1.26
-8 1 10 43.75 1.32
-8 1 -10 39.61 1.3
-8 -1 -10 38.96 1.28
0 -2 10 0.07 0.17
0 2 -10 0.34 0.21
0 -2 10 0.05 0.17
0 -2 -10 0.2 0.17
1 -2 10 31.01 0.93
1 2 -10 31.42 0.97
-2 2 -10 17.41 0.6
2 -2 -10 17.68 0.58
-2 -2 -10 16.96 0.56
2 -2 10 17.42 0.55
-2 -2 10 16.71 0.57
-2 -2 10 17.69 0.56
3 -2 -10 6.74 0.34
-3 -2 -10 6.92 0.3
-3 -2 10 7.4 0.31
-3 -2 10 6.92 0.31
-3 2 -10 7.25 0.35
3 -2 10 6.93 0.28
3 -2 -10 7.33 0.31
4 -2 -10 9.52 0.39
-4 -2 -10 9.93 0.38
-4 2 -10 10.05 0.42
-4 -2 10 10.05 0.38
-4 -2 10 10.05 0.4
4 -2 10 10.19 0.35
-5 -2 10 1.36 0.23
-5 -2 -10 1.1 0.22
5 -2 10 1.25 0.17
5 -2 -10 1 0.24
-5 2 -10 1.29 0.26
-5 -2 10 1.14 0.25
-6 2 10 14.02 0.47
-6 -2 10 12.46 0.51
6 -2 10 13.29 0.45
-6 -2 -10 13.54 0.5
-6 2 -10 13.76 0.54
-6 2 10 14.26 0.49
6 -2 -10 13.6 0.51
-6 -2 10 13.22 0.52
-7 2 -10 24.76 0.88
-7 2 10 27 0.83
-7 2 10 25.09 0.8
-7 -2 10 26.27 0.85
-7 -2 -10 24.35 0.83
7 -2 -10 25.63 0.83
7 -2 10 24.96 0.77
-8 2 10 4.49 0.33
-8 -2 10 3.67 0.44
-8 2 -10 4.23 0.45
8 -2 10 4.74 0.27
-8 2 10 4.31 0.43
0 3 -10 9.89 0.41
0 -3 10 10.27 0.38
-1 -3 10 2.65 0.22
-1 -3 10 3.44 0.23
-1 -3 -10 2.57 0.2
1 -3 -10 2.67 0.23
1 -3 -10 2.8 0.21
1 -3 10 2.52 0.21
-1 3 -10 2.38 0.26
-2 -3 10 43.11 1.27
-2 3 -10 42.94 1.31
2 -3 -10 43.67 1.29
-2 -3 10 43.84 1.29
2 -3 -10 44.82 1.28
2 -3 10 42.56 1.27
-2 -3 -10 40.67 1.27
-3 -3 10 4.9 0.26
3 -3 -10 4.76 0.28
-3 -3 10 4.94 0.28
3 -3 -10 5.36 0.3
3 -3 10 4.56 0.24
-3 -3 -10 4.87 0.25
-3 3 -10 5.42 0.34
-4 -3 10 14.26 0.5
-4 -3 10 13.94 0.52
-4 -3 -10 13.59 0.48
-4 3 -10 14.04 0.54
4 -3 -10 14.12 0.5
4 -3 10 13.32 0.46
-5 -3 -10 3.58 0.25
5 -3 10 3.84 0.22
-5 3 -10 3.76 0.32
-5 -3 10 3.74 0.3
5 -3 -10 3.94 0.28
-5 -3 10 3.28 0.27
-6 -3 -10 7.73 0.35
-6 3 -10 6.72 0.44
-6 -3 10 7.22 0.37
6 -3 10 7.54 0.31
6 -3 -10 7.07 0.37
-6 -3 10 7.16 0.4
7 -3 -10 4.54 0.35
-7 3 -10 4.94 0.43
-7 -3 -10 5.06 0.33
7 -3 10 5.15 0.27
-7 -3 10 5.2 0.37
-7 -3 10 4.71 0.41
-8 -3 10 12.71 0.6
-8 3 -10 13.92 0.66
0 -4 10 36.28 1.12
0 -4 -10 39.29 1.11
0 -4 -10 35.61 1.11
0 4 -10 38.5 1.16
1 -4 10 5.68 0.29
1 -4 -10 5.83 0.27
1 -4 -10 5.29 0.27
-1 4 -10 5.27 0.33
-1 -4 10 5.36 0.29
-1 -4 -10 5.26 0.25
2 -4 -10 37.77 1.05
-2 4 -10 33.88 1.08
-2 -4 10 33.42 1.06
-2 -4 10 32.88 1.04
2 -4 -10 34.78 1.04
-2 -4 -10 34.44 1.03
-3 4 -10 6.6 0.38
3 -4 -10 6.82 0.31
-3 -4 10 6.47 0.3
3 -4 -10 6.58 0.33
-3 -4 -10 6.51 0.28
-3 -4 10 5.96 0.34
3 -4 10 7.12 0.3
-4 4 -10 23.96 0.84
-4 -4 -10 24.65 0.76
4 -4 10 24.43 0.76
4 -4 -10 25.53 0.79
-4 -4 10 25.42 0.81
-4 -4 10 23.27 0.77
5 -4 10 5.35 0.28
-5 -4 -10 5.56 0.29
5 -4 -10 5.78 0.34
-5 -4 10 5.42 0.32
-5 -4 10 5.35 0.36
-5 4 -10 5.89 0.4
6 -4 -10 24.72 0.81
-6 -4 10 24.08 0.8
-6 -4 10 25.11 0.84
-6 4 -10 25.01 0.86
6 -4 10 24.52 0.77
-6 -4 -10 23.67 0.78
-7 -4 -10 23.18 0.77
7 -4 10 24.34 0.76
-7 -4 10 24.42 0.85
-7 4 -10 23.99 0.88
7 -4 -10 23.01 0.81
0 -5 -10 14.17 0.48
0 -5 10 14.67 0.52
0 -5 -10 14.54 0.49
-1 -5 -10 2.83 0.24
1 -5 -10 3.22 0.22
-1 -5 -10 2.61 0.19
1 -5 10 2.79 0.25
-1 5 -10 2.28 0.32
-1 -5 10 2.83 0.26
1 -5 -10 2.93 0.22
-2 -5 10 24.73 0.8
-2 5 -10 26.47 0.87
2 -5 10 26.29 0.82
-2 -5 10 25.65 0.84
2 -5 -10 25.95 0.81
-2 -5 -10 26.01 0.79
2 -5 -10 26.81 0.81
-3 -5 10 8.53 0.35
3 -5 -10 7.86 0.36
3 -5 -10 7.49 0.35
3 -5 10 7.38 0.34
-3 5 -10 7.82 0.43
-3 -5 -10 7.86 0.31
-3 -5 10 7.61 0.39
-4 -5 10 16.77 0.57
-4 -5 10 16.76 0.62
-4 5 -10 15.15 0.65
-4 -5 -10 17 0.54
4 -5 -10 17.49 0.59
4 -5 10 16.88 0.57
-5 -5 10 28.62 0.94
-5 -5 10 29.42 0.98
5 -5 -10 31.32 0.97
-5 5 -10 31.79 1.03
-5 -5 -10 29.23 0.91
-6 -5 10 22.03 0.79
-6 -5 10 20.97 0.73
6 -5 -10 21.83 0.75
-6 -5 -10 21.94 0.69
-6 5 -10 20.59 0.82
6 -5 10 21.66 0.7
-7 5 -10 10.13 0.64
-7 -5 10 8.76 0.56
-7 -5 -10 10.19 0.42
-7 -5 10 10.47 0.47
0 -6 10 47.14 1.41
0 -6 -10 47.16 1.37
0 -6 -10 45.97 1.36
-1 -6 -10 3.17 0.22
-1 -6 -10 3.37 0.2
1 -6 -10 3.31 0.23
-1 -6 10 3.2 0.28
1 -6 10 3.36 0.27
1 -6 -10 3.08 0.22
-2 -6 -10 45.89 1.37
2 -6 -10 46.73 1.39
-2 -6 -10 47.4 1.38
2 -6 10 48.61 1.42
2 -6 -10 47.85 1.4
-2 6 -10 47.15 1.46
-2 -6 10 45.95 1.43
3 -6 -10 16.19 0.58
-3 6 -10 16.94 0.66
3 -6 -10 17.15 0.58
-3 -6 10 16.55 0.56
-3 -6 -10 16.52 0.53
-3 -6 10 17.17 0.62
3 -6 10 15.53 0.58
4 -6 10 36.75 1.09
-4 6 -10 31.01 1.15
4 -6 -10 35.93 1.09
-4 -6 -10 37 1.05
-4 -6 10 36.18 1.08
-4 -6 10 34.74 1.13
5 -6 10 6.37 0.34
-5 -6 10 6.32 0.45
-5 -6 10 7.18 0.36
5 -6 -10 6.33 0.39
-5 -6 -10 6.84 0.31
-6 6 -10 13.98 0.78
-6 -6 10 17.77 0.73
-6 -6 -10 19.85 0.62
6 -6 -10 18.82 0.69
-6 -6 10 20.01 0.65
6 -6 10 18.85 0.63
-7 6 -10 4.26 0.67
0 -7 10 0.66 0.27
1 -7 10 1.44 0.27
1 -7 -10 1.26 0.22
-1 -7 10 1.39 0.3
1 -7 -10 1.37 0.2
2 -7 -10 1.5 0.24
2 -7 -10 1.49 0.25
-2 -7 10 1.59 0.31
2 -7 10 1.22 0.28
3 -7 -10 10.57 0.44
-3 -7 10 9.72 0.49
3 -7 -10 9.23 0.42
3 -7 10 9.73 0.44
-3 7 -10 9.89 0.55
-4 -7 -10 1.93 0.2
-4 7 -10 1.81 0.48
4 -7 10 2.1 0.29
-4 -7 10 2.47 0.38
4 -7 -10 1.83 0.32
-4 -7 10 2.21 0.28
5 -7 10 5.48 0.35
5 -7 -10 6.55 0.42
-5 -7 -10 5.46 0.28
-5 7 -10 5.32 0.56
-5 -7 10 5.42 0.47
-5 -7 10 5.98 0.35
-6 7 -10 7.5 0.7
-6 -7 10 7.48 0.42
0 -8 10 0.54 0.32
1 -8 10 21.52 0.78
-1 -8 10 23.29 0.8
2 -8 -10 14.04 0.5
2 -8 10 14.47 0.57
2 -8 -10 13.81 0.52
-2 -8 10 13.35 0.59
3 -8 -10 5.74 0.4
3 -8 10 6.26 0.41
-3 -8 10 6.24 0.46
3 -8 -10 6.02 0.36
-4 -8 10 9.86 0.55
-4 -8 10 9.19 0.41
4 -8 10 8.91 0.46
4 -8 -10 9.57 0.51
-5 -8 10 4.45 0.36
5 -8 10 4.1 0.37
-5 8 -10 4.78 0.7
0 -9 10 0.76 0.37
1 -9 10 15.81 0.64
-1 -9 10 14.89 0.65
-2 -9 10 14.32 0.67
2 -9 -10 14.74 0.54
2 -9 10 16.93 0.64
2 -9 -10 14.98 0.57
3 -9 -10 1.15 0.32
-3 -9 10 1.24 0.45
3 -9 10 1.46 0.4
0 -10 10 46.65 1.5
-1 -10 10 4.44 0.51
0 0 11 0.01 0.13
0 0 11 0 0.14
0 0 -11 -0.17 0.22
1 0 -11 39.17 1.24
-1 0 11 41.35 1.19
-1 0 -11 42.31 1.24
-1 0 11 41.14 1.2
-2 0 -11 0.22 0.22
2 0 -11 0.18 0.25
-2 0 11 0.34 0.16
-2 0 11 0.43 0.19
-3 0 -11 0.33 0.23
-3 0 11 0.12 0.19
-3 0 11 -0.03 0.19
-4 0 11 6.47 0.32
-4 0 11 7.12 0.31
-4 0 -11 7.01 0.35
-5 0 11 1.21 0.27
-5 0 11 0.59 0.24
-5 0 -11 0.76 0.27
-6 0 -11 14.06 0.57
-6 0 11 15.08 0.58
-6 0 11 15.11 0.54
-7 0 -11 32.73 1.07
-7 0 11 34.4 1.09
-7 0 11 32.45 1.04
0 -1 11 8.1 0.32
0 1 -11 7.63 0.38
0 -1 -11 8.7 0.37
0 -1 11 8.15 0.31
-1 -1 11 3.05 0.21
1 -1 -11 3.08 0.27
-1 1 -11 2.91 0.27
1 -1 11 3.23 0.19
1 1 -11 3.36 0.28
-1 -1 -11 3.02 0.25
-1 -1 11 3.03 0.21
1 -1 11 2.85 0.21
-2 -1 -11 12.08 0.44
-2 -1 11 11.55 0.42
-2 1 -11 11.36 0.46
2 -1 -11 10.75 0.46
-2 -1 11 11.44 0.42
2 -1 11 12.03 0.38
2 -1 11 11.31 0.4
3 -1 11 19.17 0.6
3 -1 11 20.81 0.63
-3 -1 11 19.15 0.64
-3 -1 11 19.85 0.64
-3 -1 -11 19.5 0.66
-3 1 -11 20.59 0.68
-4 1 11 28.6 0.84
4 -1 11 27.96 0.84
-4 1 11 28.19 0.84
-4 -1 11 27.33 0.86
-4 1 -11 28.19 0.9
-4 -1 11 28.11 0.87
-4 -1 -11 26.55 0.87
4 -1 11 26.99 0.82
-5 1 11 4.55 0.29
-5 -1 11 5.13 0.34
-5 -1 -11 4.97 0.32
-5 1 -11 4.69 0.33
-5 -1 11 4.79 0.31
-5 1 11 4.6 0.27
-6 1 -11 10.28 0.49
-6 -1 -11 11.29 0.47
-6 1 11 10.55 0.42
-6 -1 11 10.62 0.45
-6 -1 11 9.97 0.48
-6 1 11 11.03 0.47
-7 1 11 5.04 0.44
-7 -1 11 5.62 0.45
-7 -1 -11 5.29 0.4
-7 1 -11 5.43 0.44
-7 -1 11 5.71 0.39
-7 1 11 5.39 0.34
0 -2 11 18.92 0.6
0 2 -11 18.42 0.66
0 -2 11 18.5 0.61
0 -2 -11 19.67 0.63
-1 -2 11 25.48 0.79
-1 -2 11 25.97 0.79
1 -2 11 25.33 0.77
-1 2 -11 24.14 0.82
-1 -2 -11 24.95 0.8
1 -2 11 25.54 0.78
1 2 -11 25.72 0.83
1 -2 -11 25.14 0.81
-2 2 -11 16.22 0.59
-2 -2 11 15.88 0.54
2 -2 11 16.33 0.52
2 -2 -11 16 0.57
-2 -2 -11 15.54 0.54
2 -2 11 15.72 0.54
-2 -2 11 16.05 0.54
-3 -2 -11 0.94 0.22
-3 2 -11 1.12 0.26
3 -2 11 1.09 0.22
3 -2 11 1.03 0.17
-3 -2 11 0.71 0.22
-3 -2 11 1.07 0.22
-4 -2 11 6.17 0.32
4 -2 11 6.1 0.26
-4 -2 -11 5.79 0.32
-4 2 -11 5.95 0.36
-5 2 -11 7.63 0.42
5 -2 11 7.83 0.3
5 -2 -11 7.89 0.37
-5 -2 11 8 0.39
-5 -2 -11 7.43 0.37
-5 -2 11 7.58 0.38
-6 2 -11 12.47 0.55
-6 -2 11 12.72 0.52
-6 -2 -11 12.05 0.5
-6 -2 11 12.21 0.54
6 -2 11 12.28 0.42
6 -2 -11 13.28 0.5
-7 2 -11 12.24 0.6
7 -2 11 12.65 0.45
-7 -2 -11 13.48 0.55
7 -2 -11 13.18 0.54
-7 -2 11 14.4 0.61
0 -3 11 6.62 0.32
0 -3 -11 6.25 0.31
0 3 -11 5.98 0.37
0 -3 11 7.04 0.32
-1 -3 11 18.65 0.6
-1 -3 -11 18.89 0.6
1 -3 11 17.42 0.58
-1 -3 11 17.4 0.6
-1 3 -11 17.56 0.64
2 -3 11 11.06 0.39
-2 3 -11 10.74 0.47
2 -3 -11 10.58 0.44
-2 -3 11 10.83 0.42
2 -3 -11 11.13 0.42
-2 -3 11 9.95 0.41
-3 -3 11 17.1 0.58
-3 3 -11 17.28 0.63
3 -3 -11 16.2 0.59
3 -3 -11 15.64 0.57
-3 -3 11 16.36 0.56
3 -3 11 16.19 0.54
-4 3 -11 8.96 0.45
4 -3 -11 8.78 0.41
-4 -3 11 8.98 0.4
4 -3 11 8.98 0.35
-4 -3 11 9.76 0.41
-4 -3 -11 9.18 0.38
-5 -3 11 10.23 0.43
5 -3 -11 9.46 0.45
-5 -3 11 7.74 0.43
-5 3 -11 9.13 0.48
-5 -3 -11 9.54 0.4
5 -3 11 9.6 0.36
6 -3 -11 4.03 0.38
-6 -3 -11 3.63 0.31
-6 -3 11 3.86 0.35
-6 3 -11 3.66 0.41
-6 -3 11 4.16 0.36
6 -3 11 4.07 0.25
7 -3 11 7.28 0.33
-7 3 -11 7.94 0.55
0 -4 -11 6.02 0.3
0 -4 11 7.32 0.33
0 4 -11 5.88 0.39
-1 4 -11 9.78 0.46
1 -4 -11 9.81 0.41
-1 -4 11 9.7 0.4
-1 -4 -11 9.96 0.38
1 -4 -11 10.18 0.42
1 -4 11 9.99 0.4
-1 -4 11 10.57 0.41
-2 4 -11 11.94 0.51
-2 -4 11 11.49 0.44
2 -4 -11 11.29 0.46
2 -4 -11 11.98 0.46
2 -4 11 11.76 0.43
-2 -4 -11 10.95 0.42
-2 -4 11 11.2 0.46
3 -4 -11 17.24 0.58
-3 -4 11 15.83 0.56
3 -4 -11 17.07 0.59
3 -4 11 15.55 0.54
-3 -4 -11 15.21 0.54
-3 4 -11 15.56 0.63
-3 -4 11 15.84 0.58
-4 -4 11 0.27 0.25
-4 -4 -11 0.43 0.22
4 -4 -11 0.44 0.28
4 -4 11 0.2 0.21
-4 -4 11 0.49 0.28
-4 4 -11 0.26 0.36
5 -4 -11 5.95 0.38
5 -4 11 5.63 0.3
-5 -4 11 6.84 0.36
-5 4 -11 5.68 0.47
-5 -4 11 6.09 0.4
-5 -4 -11 5.6 0.32
-6 4 -11 2.41 0.45
6 -4 11 2.89 0.25
-6 -4 11 3.1 0.37
-6 -4 -11 3.78 0.31
6 -4 -11 2.61 0.37
-7 4 -11 2.37 0.5
0 -5 11 17.14 0.61
0 -5 -11 18.05 0.61
0 -5 -11 17.83 0.59
1 -5 -11 13.21 0.47
-1 5 -11 12.21 0.56
-1 -5 11 12.82 0.49
1 -5 -11 12.49 0.47
1 -5 11 12.44 0.49
-1 -5 -11 12.58 0.45
2 -5 11 27.27 0.84
-2 -5 11 25.5 0.85
2 -5 -11 25.58 0.83
-2 -5 -11 26.2 0.81
-2 5 -11 25.16 0.89
-2 -5 11 26.92 0.83
2 -5 -11 26.43 0.84
-3 -5 11 18 0.67
3 -5 11 19.34 0.65
-3 -5 -11 20.33 0.63
-3 5 -11 20.05 0.74
3 -5 -11 19.2 0.66
-3 -5 11 18.68 0.65
-4 -5 11 29.79 0.95
4 -5 11 27.32 0.93
4 -5 -11 31.61 0.98
-4 -5 -11 30.84 0.93
-4 -5 11 32.05 0.99
-4 5 -11 30.09 1.04
-5 5 -11 0.14 0.44
-5 -5 11 0.42 0.35
5 -5 -11 0.17 0.34
-5 -5 -11 0.17 0.25
5 -5 11 0.15 0.24
-5 -5 11 0.12 0.29
-6 -5 11 14.51 0.58
-6 -5 -11 13.44 0.53
-6 -5 11 13.88 0.63
-6 5 -11 14.58 0.75
0 -6 11 25.08 0.83
0 -6 -11 24.97 0.79
0 -6 -11 25.48 0.8
-1 -6 11 10.54 0.47
1 -6 -11 10.25 0.42
1 -6 11 10.72 0.47
-1 -6 -11 10.67 0.4
1 -6 -11 10.94 0.44
-1 -6 -11 11.37 0.45
2 -6 11 3.5 0.31
2 -6 -11 3.66 0.3
-2 6 -11 3.76 0.45
2 -6 -11 4.04 0.31
-2 -6 11 3.32 0.28
-2 -6 11 3.77 0.33
-2 -6 -11 3.77 0.25
3 -6 11 19.91 0.66
3 -6 -11 18.67 0.67
3 -6 -11 19.16 0.67
-3 -6 11 20.52 0.66
-3 -6 -11 19.47 0.62
-3 -6 11 16.64 0.69
-4 6 -11 5.45 0.51
-4 -6 11 5.06 0.35
4 -6 11 4.81 0.32
-4 -6 11 5.57 0.42
-4 -6 -11 5.17 0.3
4 -6 -11 5.2 0.4
-5 6 -11 0.2 0.53
-5 -6 11 0.12 0.32
-5 -6 -11 -0.03 0.25
5 -6 11 0.09 0.27
-5 -6 11 0.21 0.37
5 -6 -11 0.29 0.38
-6 6 -11 12.5 0.79
-6 -6 11 13.22 0.56
0 -7 -11 14.19 0.53
0 -7 -11 14.22 0.5
0 -7 11 14.81 0.58
-1 -7 -11 22.73 0.73
1 -7 11 22.74 0.78
1 -7 -11 23.53 0.76
1 -7 -11 22.59 0.73
-1 -7 -11 22.48 0.71
-1 -7 11 21.66 0.79
-2 -7 -11 13.91 0.54
2 -7 11 14.64 0.58
2 -7 -11 14.93 0.54
2 -7 -11 15.36 0.56
-2 -7 -11 13.91 0.5
-2 -7 11 14.33 0.6
-3 7 -11 14.84 0.73
-3 -7 11 14.88 0.55
3 -7 11 14.92 0.58
-3 -7 11 15 0.62
3 -7 -11 15.45 0.58
3 -7 -11 15.03 0.59
-3 -7 -11 15.84 0.52
4 -7 11 7.4 0.41
-4 7 -11 6.67 0.64
-4 -7 -11 7.44 0.34
4 -7 -11 7.2 0.45
-4 -7 11 6.88 0.49
-4 -7 11 7.54 0.4
-5 7 -11 4.66 0.68
-5 -7 11 5.06 0.38
0 -8 11 0.16 0.33
0 -8 -11 0.08 0.27
0 -8 -11 0.21 0.23
1 -8 11 7.81 0.45
1 -8 -11 7.42 0.37
-1 -8 11 7.69 0.47
1 -8 -11 8.35 0.41
2 -8 -11 12.66 0.53
-2 -8 11 10.94 0.57
2 -8 11 12.06 0.55
2 -8 -11 11.84 0.49
-3 -8 11 5.04 0.47
3 -8 11 5.94 0.42
3 -8 -11 5.49 0.4
-4 -8 11 2.53 0.35
0 -9 11 30.87 1.06
1 -9 11 9.35 0.53
0 0 -12 38.09 1.18
1 0 -12 21.86 0.76
-1 0 12 23.45 0.7
-1 0 -12 22.64 0.77
-2 0 12 11.95 0.42
-2 0 -12 11.72 0.47
2 0 -12 10.69 0.5
-2 0 12 11.86 0.4
-3 0 12 23.5 0.79
-3 0 -12 25.75 0.83
-3 0 12 26.14 0.78
-4 0 12 7.82 0.35
-4 0 -12 7.73 0.42
-4 0 12 7.83 0.39
-5 0 12 0.84 0.26
-5 0 12 1.16 0.31
-5 0 -12 0.87 0.31
-6 0 -12 8.05 0.46
-6 0 12 8.21 0.4
-6 0 12 7.56 0.47
0 -1 12 61.72 1.75
0 1 -12 61.25 1.8
0 -1 12 57.91 1.76
0 -1 -12 60.91 1.79
1 1 -12 16.49 0.62
1 -1 12 16.12 0.55
-1 -1 12 17.28 0.54
-1 -1 -12 17.97 0.6
-1 1 -12 17.2 0.62
1 -1 -12 17.79 0.61
1 -1 12 15.38 0.53
-1 -1 12 15.62 0.56
-2 1 -12 24.01 0.81
2 -1 12 24.34 0.74
-2 -1 -12 23.29 0.79
-2 -1 12 23.74 0.76
2 -1 -12 24.53 0.81
-2 -1 12 25.16 0.75
2 -1 12 23.19 0.72
-3 -1 12 8.48 0.37
-3 1 -12 8.18 0.42
-3 -1 -12 8.99 0.41
-3 -1 12 8.83 0.4
-4 -1 12 15.42 0.58
-4 1 -12 14.82 0.59
-4 -1 -12 15.54 0.58
-4 -1 12 15.86 0.55
-5 -1 12 15.55 0.57
-5 -1 12 14.73 0.6
-5 -1 -12 16.05 0.6
-5 1 -12 16.3 0.63
-6 1 -12 2.43 0.39
-6 1 12 2.61 0.38
-6 -1 12 2.85 0.33
-6 -1 -12 2.18 0.36
-6 1 12 2.95 0.28
-6 -1 12 3.04 0.43
0 2 -12 3.03 0.32
0 -2 -12 3.21 0.31
0 -2 12 3.04 0.27
0 -2 12 2.72 0.23
-1 -2 -12 21.07 0.68
-1 -2 12 19.59 0.66
1 2 -12 20.29 0.72
-1 2 -12 19.87 0.71
-1 -2 12 19.09 0.65
1 -2 12 19.05 0.63
1 -2 -12 20.35 0.68
1 -2 12 19.83 0.66
-2 -2 -12 2.63 0.28
-2 -2 12 2.4 0.27
-2 2 -12 2.44 0.33
2 -2 12 2.51 0.21
-2 -2 12 2.54 0.26
2 -2 12 2.69 0.27
2 -2 -12 2.35 0.31
-3 -2 12 19.2 0.67
-3 2 -12 18.84 0.72
3 -2 12 19.55 0.62
-3 -2 12 19.89 0.65
3 -2 12 19.85 0.66
-3 -2 -12 19.54 0.66
-4 -2 -12 11.78 0.48
-4 -2 12 12.07 0.48
-4 -2 12 11.88 0.49
-4 2 -12 11.64 0.53
4 -2 12 12.17 0.41
4 -2 12 11.76 0.49
-5 -2 12 2.27 0.37
-5 2 -12 2.21 0.37
-5 -2 12 2.68 0.31
5 -2 12 2.65 0.33
-5 -2 -12 2.44 0.31
5 -2 12 2.23 0.21
6 -2 12 0.07 0.35
-6 -2 12 0.59 0.43
-6 -2 -12 0.59 0.33
6 -2 12 0.54 0.2
-6 2 -12 1.21 0.4
0 3 -12 128.68 3.81
0 -3 12 130.96 3.76
0 -3 12 131.54 3.77
0 -3 -12 135.36 3.78
1 -3 12 7.2 0.31
-1 -3 12 6.81 0.35
-1 -3 -12 6.71 0.35
-1 -3 12 6.36 0.35
-1 3 -12 7.38 0.42
1 -3 -12 7.15 0.37
1 -3 12 6.78 0.37
-2 3 -12 9.32 0.47
-2 -3 -12 9.69 0.4
-2 -3 12 7.57 0.4
-2 -3 12 9.92 0.4
2 -3 -12 10.23 0.44
2 -3 12 9.52 0.37
2 -3 12 8.88 0.41
-3 -3 12 5.49 0.35
-3 3 -12 5.5 0.41
-3 -3 12 5.76 0.34
-3 -3 -12 5.04 0.32
3 -3 12 5.47 0.28
3 -3 -12 5.17 0.37
-4 -3 -12 8.39 0.4
-4 -3 12 8.48 0.41
-4 -3 12 8.14 0.42
4 -3 12 7.86 0.34
4 -3 -12 8.4 0.42
-4 3 -12 8.32 0.52
5 -3 12 16.14 0.54
-5 3 -12 14.12 0.67
-5 -3 -12 16.96 0.6
-5 -3 12 16.59 0.61
5 -3 -12 16.26 0.62
-5 -3 12 16.43 0.63
-6 -3 12 32.76 1.04
6 -3 12 31.34 0.94
-6 3 -12 29.09 1.07
0 -4 12 33.04 1
0 -4 12 31.12 1
0 -4 -12 32.05 1
-1 -4 -12 37.8 1.15
-1 4 -12 37.65 1.22
-1 -4 12 38.89 1.16
-1 -4 12 38.79 1.17
1 -4 -12 37.25 1.17
1 -4 12 37.28 1.15
2 -4 -12 44.55 1.33
2 -4 12 42.83 1.3
-2 -4 12 44.32 1.32
2 -4 -12 43.18 1.33
-2 4 -12 43.74 1.38
-3 -4 12 2.58 0.31
-3 4 -12 2.36 0.4
-3 -4 12 2.6 0.31
3 -4 -12 2.32 0.33
3 -4 -12 2.29 0.34
-3 -4 -12 2.55 0.27
3 -4 12 2.11 0.24
-4 -4 -12 9.31 0.41
4 -4 -12 9.45 0.49
4 -4 12 8.98 0.38
-4 -4 12 8.17 0.44
-4 -4 12 9.44 0.46
-4 4 -12 8.6 0.54
-5 -4 12 49.21 1.47
-5 -4 12 47.98 1.46
5 -4 12 47.63 1.41
5 -4 -12 46.03 1.48
-5 4 -12 47.76 1.54
-6 -4 12 12.9 0.6
0 -5 12 14.98 0.55
0 -5 -12 13.69 0.52
1 -5 -12 10.84 0.49
1 -5 -12 10.09 0.45
-1 -5 12 10.55 0.45
-1 5 -12 10.45 0.56
1 -5 12 10.52 0.45
-1 -5 12 11.15 0.46
-1 -5 -12 10.01 0.42
-2 5 -12 17.83 0.74
-2 -5 -12 16.9 0.62
2 -5 -12 19.59 0.66
2 -5 -12 18.44 0.69
2 -5 12 18.69 0.64
-2 -5 12 19.59 0.67
-2 -5 12 18.68 0.66
-3 5 -12 1.98 0.45
-3 -5 -12 2.41 0.28
-3 -5 12 2.23 0.33
3 -5 12 1.78 0.27
3 -5 -12 2.14 0.35
3 -5 -12 2.54 0.38
-3 -5 12 1.93 0.33
4 -5 -12 5.35 0.43
-4 -5 12 4.75 0.38
-4 5 -12 4.11 0.53
-4 -5 -12 4.82 0.33
-4 -5 12 5.3 0.4
4 -5 12 5.17 0.31
-5 5 -12 1.67 0.54
-5 -5 12 1 0.38
0 -6 -12 4.28 0.39
0 -6 -12 3.72 0.3
0 -6 12 3.71 0.35
1 -6 12 11.9 0.52
-1 -6 -12 11.9 0.47
-1 -6 12 11.94 0.52
1 -6 -12 12.23 0.49
1 -6 -12 12.06 0.55
-2 -6 -12 70.9 2.05
2 -6 -12 73.72 2.08
2 -6 -12 68.51 2.09
-2 -6 12 71.53 2.1
2 -6 12 68.23 2.07
-2 -6 12 70.22 2.07
3 -6 -12 3.91 0.41
-3 6 -12 4.29 0.56
3 -6 -12 4.46 0.38
3 -6 12 4.23 0.33
-3 -6 12 4.18 0.4
-3 -6 12 4.34 0.36
-3 -6 -12 4.62 0.32
-4 -6 12 36.23 1.14
-4 6 -12 36.73 1.27
-4 -6 12 34.64 1.16
-4 -6 -12 35.82 1.1
0 -7 12 53.62 1.66
0 -7 -12 54.79 1.63
0 -7 -12 56.76 1.66
1 -7 -12 2.95 0.39
1 -7 12 3.28 0.38
-1 -7 -12 3.2 0.3
1 -7 -12 3.29 0.33
-1 -7 12 3.4 0.38
-2 -7 12 5.43 0.43
2 -7 12 6.23 0.41
2 -7 -12 5.61 0.38
-2 -7 -12 5.74 0.34
-2 -7 12 5.48 0.38
-3 -7 12 20.17 0.71
-3 -7 -12 19.61 0.66
3 -7 -12 18.88 0.72
0 0 -13 0.04 0.31
-1 0 -13 3.1 0.35
1 0 -13 3.25 0.36
-2 0 -13 0.9 0.34
2 0 -13 0.88 0.36
-3 0 13 0.4 0.28
-3 0 -13 0.24 0.33
-3 0 13 -0.1 0.21
-4 0 13 8.29 0.36
-4 0 -13 7.95 0.46
-4 0 13 8.15 0.41
-5 0 -13 0.65 0.4
-5 0 13 0.48 0.37
-5 0 13 0.54 0.29
0 -1 13 9.99 0.41
0 -1 -13 9.48 0.46
0 -1 13 9.99 0.36
0 1 -13 9.65 0.48
1 -1 13 0.68 0.24
1 -1 13 0.76 0.19
-1 1 -13 0.95 0.32
-1 -1 -13 0.99 0.35
-1 -1 13 0.83 0.21
1 1 -13 0.55 0.34
1 -1 -13 0.57 0.32
-1 -1 13 0.83 0.27
-2 1 -13 24.65 0.85
-2 -1 -13 23.25 0.82
-2 -1 13 24.16 0.76
-2 -1 13 25.31 0.79
2 -1 -13 23.51 0.84
-3 -1 13 7.45 0.37
-3 -1 13 7.59 0.43
-3 -1 -13 7.22 0.42
-3 1 -13 7.83 0.47
-4 -1 13 2.47 0.36
-4 1 -13 2.45 0.39
-4 -1 -13 2.19 0.37
-4 -1 13 2.25 0.29
-5 -1 13 1.88 0.43
-5 1 -13 1.73 0.41
-5 -1 -13 1.37 0.36
-5 -1 13 1.6 0.31
0 -2 -13 18.51 0.67
0 -2 13 18.53 0.6
0 -2 13 18.93 0.65
0 2 -13 17.31 0.7
-1 -2 13 10.38 0.41
-1 -2 -13 11.04 0.48
-1 -2 13 9.56 0.44
1 2 -13 10.47 0.53
1 -2 13 10.58 0.39
-1 2 -13 9.68 0.51
1 -2 13 10.65 0.45
1 -2 -13 10.78 0.49
-2 -2 -13 7.98 0.42
-2 -2 13 8.08 0.38
-2 2 -13 6.98 0.47
2 -2 -13 7.53 0.44
2 -2 13 7.43 0.39
-2 -2 13 8.65 0.42
2 -2 13 8.25 0.33
-3 -2 13 1.42 0.35
-3 -2 -13 1.26 0.32
-3 2 -13 1.13 0.41
-3 -2 13 1.19 0.28
3 -2 13 1.01 0.2
3 -2 13 1.24 0.31
4 -2 13 12.46 0.43
-4 2 -13 12.3 0.6
-4 -2 13 11.54 0.5
4 -2 13 12.54 0.52
-4 -2 -13 11.7 0.52
-4 -2 13 12.44 0.57
-5 2 -13 13.02 0.63
5 -2 13 12.16 0.43
5 -2 13 12.84 0.54
-5 -2 13 12.11 0.63
0 3 -13 7.37 0.5
0 -3 13 7.46 0.4
0 -3 13 6.99 0.35
0 -3 -13 7.44 0.42
-1 3 -13 18.55 0.73
-1 -3 13 18.45 0.67
1 -3 13 19.14 0.62
1 -3 13 18.06 0.67
-1 -3 13 19.09 0.64
1 -3 -13 18.76 0.68
-1 -3 -13 18.81 0.67
-2 -3 13 1.22 0.29
2 -3 13 1.14 0.23
2 -3 -13 0.83 0.35
-2 -3 13 1.06 0.35
-2 3 -13 0.77 0.4
2 -3 13 1.86 0.36
-2 -3 -13 1 0.31
-3 -3 -13 4.66 0.35
-3 -3 13 5.36 0.36
3 -3 13 5.02 0.43
3 -3 -13 4.93 0.42
-3 -3 13 5.56 0.42
3 -3 13 4.84 0.29
-3 3 -13 5.22 0.47
4 -3 13 19.4 0.73
4 -3 13 19 0.62
-4 3 -13 18.75 0.79
-4 -3 -13 19.03 0.69
-4 -3 13 19.03 0.72
-5 -3 13 16 0.69
0 -4 -13 4.1 0.35
0 -4 13 1.27 0.36
0 -4 13 3.33 0.31
-1 -4 13 12.12 0.52
-1 -4 13 12.84 0.54
-1 4 -13 11.83 0.63
1 -4 13 13.19 0.56
1 -4 13 12.84 0.49
1 -4 -13 13.24 0.54
-2 -4 13 34.83 1.09
2 -4 13 36.4 1.12
2 -4 13 35.14 1.07
2 -4 -13 35.2 1.12
-2 -4 13 35.6 1.12
-2 4 -13 32.97 1.17
-3 -4 13 4.13 0.35
3 -4 13 3.51 0.29
3 -4 -13 4 0.42
-3 -4 13 3.68 0.4
-3 -4 -13 3.71 0.35
-3 4 -13 3.58 0.5
-4 4 -13 23.83 0.94
0 -5 13 35.28 1.13
0 -5 -13 35.35 1.11
0 -5 13 35.79 1.12
1 -5 13 17.97 0.64
-1 -5 -13 16.87 0.64
1 -5 -13 18.72 0.67
-1 -5 13 17.71 0.69
2 -5 -13 24.66 0.86
-2 5 -13 25.31 0.98
-2 -5 -13 24.74 0.83
-2 -5 13 25.67 0.86
-2 -5 13 25.22 0.86
2 -5 13 25.81 0.82
-3 -5 -13 7.84 0.42
-3 5 -13 7.81 0.63
-3 -5 13 8.89 0.49
0 -6 13 3.42 0.38
0 -6 -13 3.19 0.35
1 -6 -13 -0.02 0.35
-1 -6 -13 0.05 0.32
-1 -6 13 0.09 0.38
-2 -6 13 5.63 0.46
-3 6 -13 5.53 0.71
0 0 -14 12.8 0.58
1 0 -14 8.02 0.49
-1 0 -14 7.48 0.48
-2 0 -14 3.29 0.43
-3 0 -14 2.07 0.42
0 1 -14 16.9 0.71
0 -1 -14 17.39 0.68
-1 -1 14 16.53 0.54
-1 -1 14 15.76 0.6
1 1 -14 15.84 0.69
-1 -1 -14 16.32 0.66
1 -1 -14 15.6 0.65
-1 1 -14 15.98 0.68
-2 -1 14 13.54 0.58
-2 -1 -14 13.87 0.61
2 -1 -14 13.63 0.62
-2 -1 14 13.9 0.5
-2 1 -14 13.41 0.63
-3 1 -14 8.85 0.58
-3 -1 14 8.14 0.48
-3 -1 -14 7.97 0.5
-3 -1 14 7.77 0.38
0 2 -14 12.32 0.62
0 -2 14 13.07 0.55
0 -2 14 12.06 0.46
0 -2 -14 12.7 0.57
-1 -2 -14 27.22 0.92
1 -2 -14 24.52 0.91
1 -2 14 26.52 0.81
1 -2 14 25.81 0.87
-1 2 -14 25.11 0.94
-1 -2 14 28.45 0.89
-1 -2 14 25.58 0.82
-2 -2 14 25.95 0.84
-2 -2 14 27.87 0.92
-2 2 -14 25.91 0.96
2 -2 14 27.02 0.89
-2 -2 -14 26.65 0.91
2 -2 -14 25.82 0.93
2 -2 14 26.51 0.82
-3 2 -14 10.31 0.61
-3 -2 14 11.52 0.49
-3 -2 14 11.69 0.59
3 -2 14 10.34 0.4
3 -2 14 10.84 0.51
0 3 -14 -0.28 0.48
0 -3 14 0.2 0.39
0 -3 -14 -0.02 0.38
0 -3 14 0.2 0.26
-1 -3 14 3.64 0.44
-1 -3 -14 3.48 0.4
1 -3 -14 3.7 0.42
1 -3 14 3.42 0.42
-1 3 -14 2.62 0.49
-1 -3 14 3.53 0.31
1 -3 14 3.62 0.29
-2 -3 14 1.32 0.42
-2 3 -14 1.15 0.46
2 -3 14 1.33 0.42
2 -3 14 1.04 0.27
0 -4 14 5.9 0.49
-1 -4 14 2.61 0.45
-1 4 -14 2.08 0.56
1 -4 14 2.53 0.46
2 -4 14 6.38 0.56
-2 4 -14 5.64 0.6
-2 -4 14 6.19 0.5
