#------------------------------------------------------------------------------
#$Date: 2020-07-07 08:07:55 +0300 (Tue, 07 Jul 2020) $
#$Revision: 254055 $
#$URL: file:///home/coder/svn-repositories/cod/cif/2/02/21/2022184.cif $
#------------------------------------------------------------------------------
#
# This file is available in the Crystallography Open Database (COD),
# http://www.crystallography.net/. The original data for this entry
# were provided by IUCr Journals, http://journals.iucr.org/.
#
# The file may be used within the scientific community so long as
# proper attribution is given to the journal article from which the
# data were obtained.
#
data_2022184
loop_
_publ_author_name
'Ma\/lecka, Magdalena'
'Kusz, Joachim'
'Eriksson, Lars'
'Adamus-Grabicka, Angelika'
'Budzisz, El\.zbieta'
_publ_section_title
;
 The relationship between Hirshfeld potential and cytotoxic activity: a
 study along a series of flavonoid and chromanone derivatives
;
_journal_coeditor_code           YF3205
_journal_issue                   8
_journal_name_full               'Acta Crystallographica Section C'
_journal_page_first
;
;
_journal_paper_doi               10.1107/S205322962000813X
_journal_volume                  76
_journal_year                    2020
_chemical_formula_iupac          'C16 H12 O2'
_chemical_formula_moiety         'C16 H12 O2'
_chemical_formula_sum            'C16 H12 O2'
_chemical_formula_weight         236.26
_chemical_name_systematic
;
(<i>E</i>)-3-Benzylidenechroman-4-one
;
_space_group_crystal_system      triclinic
_space_group_IT_number           2
_space_group_name_Hall           '-P 1'
_space_group_name_H-M_alt        'P -1'
_atom_sites_solution_hydrogens   geom
_audit_creation_method           SHELXL-2014/7
_cell_angle_alpha                89.744(3)
_cell_angle_beta                 84.862(3)
_cell_angle_gamma                74.199(3)
_cell_formula_units_Z            2
_cell_length_a                   7.7718(3)
_cell_length_b                   8.6069(3)
_cell_length_c                   9.0857(3)
_cell_measurement_reflns_used    3741
_cell_measurement_temperature    100(2)
_cell_measurement_theta_max      35.8010
_cell_measurement_theta_min      3.7290
_cell_volume                     582.31(4)
_computing_cell_refinement
;
CrysAlis PRO (Rigaku OD, 2015)
;
_computing_data_collection
;
CrysAlis PRO (Rigaku OD, 2015)
;
_computing_data_reduction
;
CrysAlis PRO (Rigaku OD, 2015)
;
_computing_molecular_graphics
;
DIAMOND (Brandenburg & Putz, 1999)
;
_computing_publication_material
;
SHELXL2014 (Sheldrick, 2015b) and
publCIF (Westrip, 2010)
;
_computing_structure_refinement
;
SHELXL2014 (Sheldrick, 2015b)
;
_computing_structure_solution
;
SHELXS (Sheldrick, 2015a)
;
_diffrn_ambient_temperature      100.00(10)
_diffrn_detector                 'CCD plate'
_diffrn_detector_area_resol_mean 10.4498
_diffrn_measured_fraction_theta_full 0.998
_diffrn_measured_fraction_theta_max 0.998
_diffrn_measurement_device       'four-circle diffractometer'
_diffrn_measurement_device_type
'Rigaku OD SuperNova Dual source diffractometer with an Atlas detector'
_diffrn_measurement_method       '\w scans'
_diffrn_radiation_monochromator  mirror
_diffrn_radiation_probe          x-ray
_diffrn_radiation_type           'Mo K\a'
_diffrn_radiation_wavelength     0.71073
_diffrn_reflns_av_R_equivalents  0.0233
_diffrn_reflns_av_unetI/netI     0.0301
_diffrn_reflns_limit_h_max       9
_diffrn_reflns_limit_h_min       -9
_diffrn_reflns_limit_k_max       10
_diffrn_reflns_limit_k_min       -9
_diffrn_reflns_limit_l_max       11
_diffrn_reflns_limit_l_min       -11
_diffrn_reflns_number            4947
_diffrn_reflns_theta_full        25.242
_diffrn_reflns_theta_max         26.489
_diffrn_reflns_theta_min         3.301
_diffrn_source                   'micro-focus sealed X-ray tube'
_exptl_absorpt_coefficient_mu    0.088
_exptl_absorpt_correction_T_max  1.00000
_exptl_absorpt_correction_T_min  0.86526
_exptl_absorpt_correction_type   multi-scan
_exptl_absorpt_process_details
;
(CrysAlis PRO; Rigaku OD, 2015)
;
_exptl_crystal_colour            colorless
_exptl_crystal_density_diffrn    1.347
_exptl_crystal_description       needle
_exptl_crystal_F_000             248
_exptl_crystal_size_max          0.18
_exptl_crystal_size_mid          0.08
_exptl_crystal_size_min          0.08
_refine_diff_density_max         0.294
_refine_diff_density_min         -0.220
_refine_ls_extinction_method     none
_refine_ls_goodness_of_fit_ref   1.058
_refine_ls_hydrogen_treatment    constr
_refine_ls_matrix_type           full
_refine_ls_number_parameters     163
_refine_ls_number_reflns         2425
_refine_ls_number_restraints     0
_refine_ls_restrained_S_all      1.058
_refine_ls_R_factor_all          0.0458
_refine_ls_R_factor_gt           0.0402
_refine_ls_shift/su_max          0.000
_refine_ls_shift/su_mean         0.000
_refine_ls_structure_factor_coef Fsqd
_refine_ls_weighting_details
'w=1/[\s^2^(Fo^2^)+(0.0597P)^2^+0.1583P] where P=(Fo^2^+2Fc^2^)/3'
_refine_ls_weighting_scheme      calc
_refine_ls_wR_factor_gt          0.1090
_refine_ls_wR_factor_ref         0.1145
_reflns_number_gt                2120
_reflns_number_total             2425
_reflns_threshold_expression     'I > 2\s(I)'
_cod_data_source_file            yf3205sup1.cif
_cod_data_source_block           compound_V_AAG5
_cod_database_code               2022184
_shelx_space_group_comment
;
The symmetry employed for this shelxl refinement is uniquely defined
by the following loop, which should always be used as a source of
symmetry information in preference to the above space-group names.
They are only intended as comments.
;
_shelx_hkl_file
;
   0   0   2 1078.85 53.4460   4
   0   0   2 1150.70 38.6478   2
   0   0   2 1136.37 54.5417   1
   0   0   3 27794.6 587.945   2
   0   0   3 28298.4 628.620   1
   0   0   3 27939.8 629.152   4
   0   0   4 8.66794 20.9037   1
   0   0   4 21.5470 8.25035   2
   0   0   4 23.5694 25.7314   4
   0   0   5 2829.80 132.965   1
   0   0   5 2786.65 135.142   4
   0   0   6-10.7954 25.6110   1
   0   0   6 15.0257 28.8471   4
   0   0   7 224.577 49.2688   4
   0   0   7 314.080 58.0451   1
   0   0   8 5651.51 247.290   1
   0   0   9 332.828 68.0422   1
   0   0  10 243.172 63.1039   1
   0   0 -10 198.890 53.6227   3
   0   0  11 690.381 100.900   1
   0   0 -11 678.751 90.8567   3
   0   0  12 19.9667 38.4637   1
   0   0 -12-3.66662 31.3762   3
   0   0  13 98.8439 55.5516   1
   0   0 -13 60.3441 37.4806   3
   0   0  14 5.78068 40.2439   1
   0  -1  14 301.652 82.8989   1
   0   1 -14 149.171 57.9273   3
   0   1 -13 9.85140 26.0910   3
   0  -1  13 87.4853 61.1777   1
   0   1 -12 2340.09 175.332   3
   0  -1  12 2244.11 192.162   1
   0  -1  11 2747.39 196.518   1
   0   1 -11 2777.85 183.051   3
   0   1 -10 641.370 82.9116   3
   0  -1  10 542.036 84.4359   1
   0   1  -9 34592.7 864.393   3
   0  -1   9 33234.0 889.540   1
   0  -1   8 2115.39 141.724   1
   0   1  -8 2082.03 132.231   3
   0  -1   7 408.670 65.1388   1
   0  -1   6 1989.98 120.504   1
   0  -1   5 20710.5 529.952   1
   0  -1   4 5314.53 178.730   1
   0  -1   4 4548.77 164.206   4
   0  -1   3 35906.5 786.376   1
   0   1  -2 2294.16 81.1494   4
   0   1  -2 2489.74 85.9836   3
   0   1  -2 2303.98 76.2367   2
   0   1  -1 50720.5 1011.78   3
   0   1  -1 47827.6 1008.82   2
   0   1   1 9553.66 231.535   4
   0   1   1 9586.47 225.440   1
   0   1   1 10677.8 221.040   3
   0   1   2 1140.02 54.4275   1
   0   1   2 1055.25 55.5057   4
   0   1   3 7738.30 213.966   1
   0   1   3 7556.39 221.891   4
   0   1   4 2191.51 63.4539   2
   0   1   4 2294.47 118.927   4
   0   1   4 2423.93 110.837   1
   0   1   5 145.567 35.1664   1
   0   1   5 208.371 42.3113   4
   0   1   5 144.176 14.3986   2
   0   1   6 8691.70 285.337   4
   0   1   6 8848.46 278.367   1
   0   1   6 7213.28 185.148   2
   0   1   7 3518.76 176.198   1
   0   1   7 3465.31 180.912   4
   0   1   8 5546.22 255.523   4
   0   1   8 5566.35 244.367   1
   0   1   9-30.9154 38.1064   1
   0   1  10 1236.09 124.469   1
   0   1  11-11.2429 41.7476   1
   0  -1 -12 28.3895 32.7984   3
   0   1  12-79.6200 47.3111   1
   0   1  13 654.867 111.640   1
   0  -1 -13 739.652 96.4813   3
   0   1  14 933.957 138.095   1
   0  -2  14 1040.47 142.385   1
   0   2 -14 892.284 122.376   3
   0   2 -13 2231.53 187.201   3
   0  -2  13 2666.57 220.003   1
   0   2 -12 1728.52 154.872   3
   0  -2  12 1776.50 169.229   1
   0  -2  11 1160.89 130.915   1
   0   2 -11 1109.59 116.080   3
   0  -2  10 147.695 52.6168   1
   0   2 -10 162.705 48.2598   3
   0  -2   9 3354.56 194.484   1
   0   2  -9 2964.60 175.191   3
   0  -2   8 43.3910 38.5202   1
   0   2  -8 18.8679 31.5115   3
   0   2  -7 1346.06 101.707   3
   0  -2   7 1238.39 103.260   1
   0   2  -6 89.3055 34.2272   3
   0  -2   6 105.012 37.4506   1
   0   2  -5 39360.6 926.260   3
   0  -2   5 42808.3 948.807   1
   0   2  -4 11523.4 317.534   3
   0  -2   4 11793.2 320.616   1
   0   2  -3 4591.39 154.832   3
   0   2  -2 19726.0 468.883   3
   0   2  -2 21251.7 467.517   2
   0   2  -1 4839.42 139.420   3
   0   2  -1 4781.41 136.787   2
   0  -2   0 30899.8 636.302   4
   0   2   0 30093.9 648.667   2
   0   2   0 30375.2 651.799   3
   0  -2   0 30982.2 630.663   1
   0   2   0 30624.1 636.738   4
   0  -2  -1 2716.32 82.1448   2
   0  -2  -1 2736.97 86.5248   3
   0  -2  -1 2738.03 80.7469   1
   0   2   1 2783.99 80.5528   2
   0   2   1 2813.91 79.4552   1
   0   2   1 2760.41 90.7181   4
   0   2   1 2933.01 88.5938   3
   0  -2  -1 2906.82 94.2107   4
   0  -2  -2 2720.26 92.3280   1
   0   2   2 2488.55 98.3770   4
   0   2   2 2491.48 70.3459   2
   0   2   2 2760.65 91.4747   1
   0  -2  -2 2597.44 71.9825   2
   0  -2  -2 2665.83 88.2806   3
   0   2   2 2654.50 84.6612   3
   0   2   3 5555.73 177.312   4
   0   2   3 5065.90 119.395   2
   0   2   3 5785.71 168.104   1
   0   2   4 55.2223 25.9108   1
   0   2   4 19.1500 21.8958   4
   0   2   5 6273.01 246.173   4
   0   2   5 7097.00 234.323   1
   0   2   6 34409.5 818.692   1
   0   2   6 33261.2 834.900   4
   0   2   7 5648.02 249.109   4
   0   2   7 5878.58 239.390   1
   0   2   8 7232.21 286.145   1
   0   2   8 6656.17 292.968   4
   0   2   9 3572.49 214.066   4
   0   2   9 3368.35 197.615   1
   0   2  10 1281.64 127.190   1
   0   2  11 253.970 58.9261   1
   0  -2 -12 320.696 61.1755   3
   0   2  12 122.794 52.7816   1
   0   2  13-19.0638 37.4631   1
   0   2  14-18.6549 40.5816   1
   0   3 -14 834.096 123.627   3
   0  -3  14 933.500 136.625   1
   0  -3  13 1529.41 166.345   1
   0   3 -13 1557.87 156.566   3
   0  -3  12 328.645 74.2126   1
   0   3 -12 440.900 82.6136   3
   0  -3  11 313.766 76.6331   1
   0   3 -11 224.016 59.1930   3
   0  -3  10 96.7565 48.9936   1
   0   3 -10 109.806 38.7767   3
   0   3  -9 1714.82 132.079   3
   0  -3   9 2080.70 155.004   1
   0  -3   8 6041.65 264.294   1
   0   3  -8 5787.47 249.702   3
   0  -3   7 989.927 94.6717   1
   0   3  -7 877.828 86.4645   3
   0   3  -6 5131.92 212.539   3
   0  -3   6 5914.17 231.199   1
   0  -3   5 19142.7 490.930   1
   0   3  -5 17949.4 481.628   3
   0   3  -4 1289.27 83.1853   3
   0   3  -3 3749.27 141.072   2
   0   3  -3 4183.64 154.359   3
   0   3  -2 5919.96 185.051   3
   0   3  -2 5487.85 180.617   2
   0   3  -1 40631.0 840.910   4
   0   3  -1 41303.4 883.121   3
   0   3  -1 40612.9 880.547   2
   0  -3   0 7100.02 165.371   4
   0   3   0 6678.17 185.398   3
   0   3   0 6330.11 164.945   4
   0   3   0 6531.15 182.113   2
   0  -3   0 6369.31 158.032   1
   0   3   1 13776.7 340.424   4
   0   3   1 14857.6 343.183   3
   0   3   1 14647.3 335.703   2
   0  -3  -1 15214.4 344.638   4
   0   3   1 14788.7 322.351   1
   0  -3  -1 13762.3 324.286   1
   0  -3  -2 3219.24 99.1333   2
   0   3   2 3525.29 126.515   4
   0   3   2 3301.78 105.133   1
   0   3   2 3396.73 111.420   3
   0   3   2 3244.42 98.8122   2
   0   3   3 31616.7 668.298   2
   0  -3  -3 31979.9 670.464   2
   0   3   3 32411.2 735.604   4
   0   3   3 32441.5 706.621   1
   0   3   4 181.690 36.1920   4
   0   3   4 215.105 14.8193   2
   0   3   4 226.885 32.9448   1
   0   3   5 1842.93 121.529   4
   0   3   5 1796.44 102.982   1
   0   3   6 458.413 69.2488   4
   0   3   6 365.130 55.9386   1
   0   3   7 267.740 50.7916   1
   0   3   7 396.616 67.9680   4
   0   3   8 500.042 76.2647   4
   0   3   8 436.649 67.8792   1
   0   3   9 3921.71 225.651   4
   0   3   9 3605.25 207.444   1
   0   3  10 69.6982 37.4276   1
   0   3  11 1676.27 150.618   1
   0   3  12 237.889 64.3476   1
   0   3  13 1781.32 174.204   1
   0   3  14 15.2637 33.2375   1
   0   4 -14 2863.25 232.950   3
   0  -4  13 230.209 75.9425   1
   0   4 -13 211.513 63.1328   3
   0   4 -12 640.197 97.3172   3
   0  -4  12 506.661 92.9870   1
   0  -4  11 1962.37 171.982   1
   0   4 -11 2034.02 169.823   3
   0  -4  10 12.1513 32.0376   1
   0   4 -10-14.0000 32.7474   3
   0   4  -9 1689.34 142.014   3
   0  -4   9 1612.56 139.738   1
   0   4  -8 421.835 64.1805   3
   0  -4   8 563.302 81.4071   1
   0  -4   7 667.487 84.9197   1
   0   4  -7 562.451 72.2651   3
   0   4  -6 6041.00 248.480   3
   0  -4   6 6826.82 256.494   1
   0   4  -5 5317.15 214.167   3
   0  -4   5 5084.10 202.781   1
   0   4  -4 8983.60 290.993   3
   0   4  -3 194.535 34.5486   2
   0   4  -3 252.957 42.5470   3
   0   4  -2 361.677 44.6385   2
   0   4  -2 448.541 48.0760   3
   0   4  -1 13350.2 352.319   2
   0   4  -1 12985.4 302.869   4
   0   4  -1 14403.3 356.259   3
   0   4   0 65614.8 1385.98   4
   0  -4   0 67976.1 1380.25   4
   0  -4   0 64778.2 1375.14   1
   0   4   0 69687.4 1419.22   3
   0   4   0 69319.3 1415.35   2
   0   4   1 271.393 30.5461   4
   0   4   1 294.902 24.6027   1
   0   4   1 314.305 33.6295   2
   0  -4  -1 273.309 24.9689   1
   0   4   1 275.172 31.3936   3
   0   4   2 1131.38 64.3241   3
   0   4   2 1091.97 57.3481   2
   0   4   2 1078.30 53.8703   1
   0   4   2 1139.56 71.5173   4
   0   4   3 3931.38 138.038   1
   0   4   3 4248.63 126.418   2
   0   4   3 4450.59 145.255   3
   0   4   3 4349.24 164.940   4
   0   4   4 5.71401 14.5330   1
   0  -4  -4 8.73534 6.69716   2
   0   4   4-2.46623 7.26507   2
   0   4   4-17.9059 23.1365   4
   0   4   5 567.613 56.8039   1
   0   4   5 668.729 74.5541   4
   0   4   6 1088.53 99.8554   4
   0   4   6 1012.08 81.6366   1
   0   4   7 14.8582 26.4618   1
   0   4   7-9.36444 32.3363   4
   0   4   8 4.21732 29.4209   4
   0   4   8 17.5316 32.1419   1
   0   4   9 2101.67 149.322   1
   0   4   9 2353.70 174.795   4
   0   4  10 76.9534 49.0974   4
   0   4  10 163.590 49.8585   1
   0   4  11 346.931 69.4445   1
   0   4  12 75.7665 40.2065   1
   0   4  13 94.6161 41.8050   1
   0   5 -13 922.404 128.307   3
   0  -5  13 969.113 134.993   1
   0   5 -12 1464.33 159.005   3
   0  -5  12 1550.90 163.223   1
   0  -5  11 733.536 108.135   1
   0   5 -11 799.560 113.383   3
   0   5 -10 3174.07 214.218   3
   0  -5  10 3172.61 212.191   1
   0  -5   9 4704.53 250.585   1
   0   5  -9 4642.15 250.912   3
   0  -5   8 738.021 93.7539   1
   0   5  -8 703.691 88.7194   3
   0   5  -7 1434.43 122.260   3
   0  -5   7 1639.98 127.476   1
   0  -5   6 3859.70 187.541   1
   0   5  -6 3695.60 197.198   3
   0   5  -5 11649.5 376.684   3
   0   5  -4 1901.62 120.397   3
   0   5  -3 1692.41 108.634   3
   0   5  -3 1592.63 100.590   2
   0   5  -2 3302.23 146.268   2
   0   5  -2 2985.70 97.5781   4
   0   5  -2 3317.53 146.894   3
   0   5  -1 1773.01 98.9708   3
   0   5  -1 1865.85 101.589   2
   0   5  -1 1725.34 69.1011   4
   0   5   0 3985.30 149.735   2
   0   5   0 3710.33 122.788   4
   0   5   0 3750.64 149.820   3
   0   5   1 6557.38 200.073   4
   0   5   1 7164.53 213.197   2
   0   5   1 6683.56 212.498   3
   0   5   2-3.69976 16.1454   3
   0   5   2 2.33994 8.99338   1
   0   5   2 1.14838 13.4950   2
   0   5   2 0.20137 15.8121   4
   0   5   3 72.7026 23.4032   4
   0   5   3 34.9915 14.1940   1
   0   5   3 24.0574 15.6543   3
   0   5   3 18.2032 11.6610   2
   0   5   4 3959.19 124.095   2
   0   5   4 3990.08 174.247   4
   0   5   4 3633.94 142.491   1
   0   5   5 15931.4 428.239   1
   0   5   5 17249.4 485.845   4
   0   5   6 22647.4 586.269   1
   0   5   6 23840.7 647.230   4
   0   5   7 76.1803 29.8595   1
   0   5   7 59.5795 35.8286   4
   0   5   8 2060.78 161.828   4
   0   5   8 1713.73 127.373   1
   0   5   9 332.401 61.5606   1
   0   5   9 387.980 78.5778   4
   0   5  10 3.57365 37.4378   4
   0   5  10 21.3522 32.9366   1
   0   5  11 955.962 112.094   1
   0   5  12 45.2703 43.0445   1
   0   5  13 183.708 62.8470   1
   0   6 -13 223.786 69.9901   3
   0  -6  13 31.4208 44.0226   1
   0   6 -12 142.231 60.1570   3
   0  -6  12 48.1231 47.1020   1
   0  -6  11 14.9368 46.9047   1
   0   6 -11 183.357 67.4657   3
   0   6 -10 1787.82 164.127   3
   0  -6  10 1645.69 156.033   1
   0  -6   9 2467.39 181.236   1
   0   6  -9 2917.72 201.288   3
   0   6  -8 852.095 104.327   3
   0  -6   8 558.406 84.8292   1
   0   6  -7 98.4726 44.2696   3
   0  -6   7 152.373 50.7793   1
   0  -6   6 13923.7 427.122   1
   0   6  -6 13392.6 447.461   3
   0   6  -5 11767.6 398.201   3
   0   6  -4 3086.16 168.584   3
   0   6  -3 14644.3 348.174   4
   0   6  -3 15354.8 441.539   3
   0   6  -2 5287.97 204.872   2
   0   6  -2 4998.52 145.168   4
   0   6  -2 5245.91 209.132   3
   0   6  -1 121.997 30.7484   3
   0   6  -1 144.900 35.4060   2
   0   6  -1 140.580 20.5678   4
   0   6   0 1071.74 78.0790   2
   0   6   0 949.505 58.2876   4
   0   6   0 1007.39 76.9383   3
   0   6   1 1392.68 79.2246   4
   0   6   1 1379.20 87.8803   3
   0   6   1 1358.46 84.5728   2
   0   6   2 2160.05 109.290   4
   0   6   2 2292.14 107.636   2
   0   6   2 2171.12 111.776   3
   0   6   2 2036.92 83.8286   1
   0   6   3 2844.51 129.932   3
   0   6   3 3083.70 122.316   2
   0   6   3 2891.56 112.475   1
   0   6   3 2873.00 138.792   4
   0   6   4 580.511 66.7221   4
   0   6   4 566.398 50.4743   1
   0   6   4 622.860 57.5972   3
   0   6   5 24792.1 654.924   4
   0   6   5 23606.9 587.143   1
   0   6   6 3599.12 194.729   4
   0   6   6 3071.52 148.753   1
   0   6   7 15.5678 20.3208   1
   0   6   7 42.6379 30.4457   4
   0   6   8 216.326 45.9223   1
   0   6   8 270.260 66.4739   4
   0   6   9 288.262 56.4501   1
   0   6   9 325.155 71.7199   4
   0   6  10 355.085 78.1766   4
   0   6  10 327.621 64.5012   1
   0   6  11 81.5326 36.3087   1
   0   6  12 102.200 38.6163   1
   0   6  13 761.403 108.888   1
   0   7 -12 96.4652 57.2108   3
   0  -7  12 93.2446 38.6960   1
   0   7 -11 90.6747 44.0065   3
   0  -7  11 62.6790 41.6611   1
   0  -7  10 2910.11 214.198   1
   0   7 -10 3091.84 227.867   3
   0   7  -9 313.583 68.0023   3
   0  -7   9 340.805 71.5246   1
   0   7  -8 208.412 55.0615   3
   0  -7   8 240.502 56.5769   1
   0   7  -7 6056.44 296.427   3
   0  -7   7 6867.28 294.933   1
   0   7  -6 1823.90 145.688   3
   0  -7   6 1811.21 130.561   1
   0   7  -5 6356.43 276.961   3
   0   7  -4 6128.25 256.165   3
   0   7  -4 5325.24 161.309   4
   0   7  -3 2369.23 144.757   3
   0   7  -3 2087.18 81.3344   4
   0   7  -2 1490.14 66.5360   4
   0   7  -2 1513.47 110.819   3
   0   7  -1 2624.48 138.713   2
   0   7  -1 2328.83 133.527   3
   0   7  -1 2223.04 90.4846   4
   0   7   0 602.768 48.4229   4
   0   7   0 576.884 62.6506   2
   0   7   0 591.038 63.2723   3
   0   7   1 20.4752 15.9470   4
   0   7   1 27.5209 16.9322   3
   0   7   1 36.1535 27.9438   2
   0   7   2 52.2399 21.3998   4
   0   7   2 50.6647 17.4365   3
   0   7   2 80.5880 25.9889   2
   0   7   3 216.651 37.4304   3
   0   7   3 180.901 37.5243   4
   0   7   3 211.550 29.3674   1
   0   7   4 137.561 26.8027   1
   0   7   4 128.614 32.2057   3
   0   7   4 87.1956 31.6519   4
   0   7   5 5254.28 192.656   1
   0   7   5 5819.04 249.987   4
   0   7   6 127.306 30.3870   1
   0   7   6 108.518 42.1940   4
   0   7   7 675.220 71.6710   1
   0   7   7 789.017 96.0100   4
   0   7   8 346.837 56.4225   1
   0   7   8 463.412 78.4878   4
   0   7   9 2901.26 206.455   4
   0   7   9 2421.10 159.209   1
   0   7  10 150.425 55.6045   4
   0   7  10-0.49430 32.3231   1
   0   7  11 910.497 105.995   1
   0  -8  12 314.694 81.5302   1
   0   8 -11 65.9229 43.7425   3
   0  -8  11 30.1199 38.7805   1
   0  -8  10 8.40053 31.7740   1
   0   8 -10 18.4600 26.3015   3
   0   8  -9-8.48849 39.7381   3
   0  -8   9 96.9782 36.8970   1
   0   8  -8 300.349 70.3890   3
   0  -8   8 366.106 72.1594   1
   0   8  -7 1675.35 153.309   3
   0  -8   7 1850.59 149.636   1
   0   8  -6-10.5782 30.4533   3
   0  -8   6 15.6463 32.0154   1
   0  -8   5 1943.43 129.273   1
   0   8  -5 2005.01 153.997   3
   0   8  -4 233.842 54.3047   3
   0   8  -3 3665.99 198.401   3
   0   8  -2 8.68518 24.1812   3
   0   8  -1 145.098 39.5168   3
   0   8   0 20214.8 480.040   4
   0   8   0 19857.8 548.592   3
   0   8   1 448.685 46.7115   4
   0   8   1 471.416 58.5815   3
   0   8   2 276.031 41.0216   4
   0   8   2 319.021 48.7273   3
   0   8   3 972.542 83.5132   4
   0   8   3 723.809 72.2208   3
   0   8   4 1244.25 74.1167   1
   0   8   4 1194.73 91.9420   3
   0   8   4 1437.81 112.142   4
   0   8   5 398.272 64.9229   4
   0   8   5 410.612 45.1023   1
   0   8   6 67.0286 21.5449   1
   0   8   6 111.948 40.3159   4
   0   8   7 22.4358 18.4360   1
   0   8   7 89.9946 39.3551   4
   0   8   8 1034.93 118.157   4
   0   8   9 407.134 80.5619   4
   0   9 -10-6.06731 42.4498   3
   0   9  -9 1998.63 188.650   3
   0   9  -8 39.7979 30.6893   3
   0  -9   8 43.4971 35.0844   1
   0   9  -7 50.6963 30.0457   3
   0  -9   7-42.7145 30.6948   1
   0  -9   6 392.224 67.7085   1
   0   9  -6 579.494 91.8141   3
   0  -9   5 460.263 64.6086   1
   0   9  -5 531.956 82.7200   3
   0   9  -4 4.54006 29.8860   3
   0   9  -3 158.385 45.2218   3
   0   9  -2 233.902 53.7745   3
   0   9  -1 38.1956 27.4751   3
   0   9   0 534.066 70.1681   3
   0   9   1 6247.20 260.663   3
   0   9   2 1300.11 105.597   3
   0   9   3 773.092 76.5513   4
   0   9   3 667.839 74.0026   3
   0   9   4 152.727 41.1159   4
   0   9   4 149.252 35.2284   3
   0   9   5 4183.87 217.641   4
   0   9   6 1411.41 128.644   4
   0   9   7 78.3531 37.8661   4
   0   9   8 1201.20 130.439   4
   0  10  -9 1476.60 171.669   3
   0  10  -8 876.908 126.575   3
   0  10  -7 310.213 73.2212   3
   0  10  -6 5085.98 292.827   3
   0  10  -5 14.7040 34.7426   3
   0  10  -4 157.680 48.5696   3
   0  10  -3 2083.08 163.386   3
   0  10  -2 774.789 95.9663   3
   0  10  -1 264.441 54.3721   3
   0  10   0 129.111 40.8327   3
   0  10   1 660.748 82.4203   3
   0  10   2 221.275 43.4926   3
   0  10   3 246.657 49.8050   3
   0  10   4 21.1186 18.9766   3
   0  11  -8 668.645 114.817   3
   0  11  -7 1164.26 143.177   3
   0  11  -6 814.962 118.376   3
   0  11  -5 248.632 57.9608   3
   0  11  -4 495.035 87.2736   3
   0  11  -3 3.77313 26.8997   3
   0  11  -2 23.1502 25.2963   3
   0  11  -1 1691.37 145.449   3
   0  11   0 752.479 95.0979   3
   0  11   1 939.752 103.438   3
   0  11   2 405.828 68.9894   3
   0  11   3 43.3794 25.0245   3
   0  12  -6-35.5367 59.7980   3
   0  12  -5 23.3862 31.4071   3
   0  12  -4 368.857 77.0105   3
   0  12  -3 100.987 43.8386   3
   0  12  -2 377.036 76.8453   3
   0  12  -1 1934.11 166.505   3
   0  12   0 13321.0 490.378   3
   0  12   1-27.5541 26.7264   3
   0  12   2 872.827 102.315   3
   0  13  -4 1364.75 153.309   3
   0  13  -3 115.949 48.8368   3
   0  13  -2-6.40465 29.5411   3
   0  13  -1 9.98325 33.4414   3
   0  13   0 253.764 65.4762   3
  -1  13   1 425.566 78.7158   3
  -1  13   0 143.809 49.5525   3
  -1  13  -1 835.529 116.207   3
  -1  13  -2 194.218 62.0684   3
  -1  12   2 606.904 89.2530   3
  -1  12   1 409.787 76.1604   3
  -1  12   0 2543.02 194.941   3
  -1  12  -1 1657.05 161.004   3
  -1  12  -2 1908.08 176.075   3
  -1  12  -3 3640.16 249.481   3
  -1  12  -4 284.407 72.6094   3
  -1  12  -5 263.362 69.3125   3
  -1  11   3 346.216 65.1131   3
  -1  11   2 568.466 83.9833   3
  -1  11   1 1899.49 155.804   3
  -1  11   0 1610.53 147.342   3
  -1  11  -1 230.557 61.6024   3
  -1  11  -2 29.2863 35.8386   3
  -1  11  -3 41.6473 33.1845   3
  -1  11  -4 1423.45 149.313   3
  -1  11  -5 219.165 67.8394   3
  -1  11  -6 40.6820 36.8198   3
  -1  11  -7 311.626 77.3359   3
  -1  10   4 1651.85 131.390   3
  -1  10   3 303.494 58.0322   3
  -1  10   2 187.131 50.1291   3
  -1  10   1 315.359 59.6227   3
  -1  10   0-24.0646 34.6226   3
  -1  10  -1-18.3394 31.5372   3
  -1  10  -2 25.6567 32.4174   3
  -1  10  -3 7.90079 26.8189   3
  -1  10  -4 431.044 81.5283   3
  -1  10  -5 1166.20 133.715   3
  -1  10  -6 4967.72 291.145   3
  -1  10  -7 68.1725 34.6303   3
  -1  10  -8 1292.58 155.197   3
  -1  10  -9 713.846 118.334   3
  -1   9  10 13.9542 34.4662   4
  -1   9   9 609.483 101.889   4
  -1   9   8 4278.57 264.244   4
  -1   9   7 188.310 59.7887   4
  -1   9   6 214.357 58.9075   4
  -1   9   5 126.185 42.3777   4
  -1   9   4 1119.68 100.689   3
  -1   9   4 1038.41 100.916   4
  -1   9   3 2433.10 148.351   4
  -1   9   3 2198.86 146.968   3
  -1   9   2 1549.50 110.592   4
  -1   9   2 1670.72 127.381   3
  -1   9   1 306.738 54.9894   3
  -1   9   0 1223.22 112.411   3
  -1   9  -1 9.74163 26.6566   3
  -1   9  -2 1936.76 145.372   3
  -1   9  -3 2621.24 179.983   3
  -1   9  -4 401.189 71.7744   3
  -1   9  -5 19.9711 25.6519   3
  -1   9  -6-23.7726 30.6300   3
  -1   9  -7 488.893 89.6479   3
  -1   9  -8-16.1937 53.0447   3
  -1   9  -9 9.92931 35.4080   3
  -1   9 -10 1718.35 184.070   3
  -1   8  11-22.0734 35.8509   4
  -1   8  10 64.3086 43.6395   4
  -1   8   9 330.251 77.2762   4
  -1   8   8 493.923 93.0301   4
  -1   8   7 26.7548 33.6553   4
  -1   8   6 480.702 79.0599   4
  -1   8   5 362.400 64.8349   4
  -1   8   4 5.16718 18.8287   3
  -1   8   4-3.62879 21.5027   4
  -1   8   3 329.864 52.9651   3
  -1   8   3 365.858 56.1483   4
  -1   8   2 229.689 44.1582   3
  -1   8   2 320.227 50.8708   4
  -1   8   1 464.425 63.5428   3
  -1   8   1 476.531 57.3540   4
  -1   8   0 4201.88 203.655   3
  -1   8   0 3923.56 165.271   4
  -1   8  -1 74.4483 23.3136   4
  -1   8  -1 96.4490 36.2244   3
  -1   8  -2 940.984 67.8444   4
  -1   8  -2 860.139 93.3732   3
  -1   8  -3 1787.21 137.463   3
  -1   8  -4 468.659 74.9824   3
   1  -8   4 431.010 51.4668   1
   1  -8   5 965.597 84.2235   1
  -1   8  -5 921.195 106.401   3
  -1   8  -6-8.30156 40.6851   3
   1  -8   6 24.3182 27.9860   1
  -1   8  -7 7777.33 356.680   3
   1  -8   7 7677.72 304.382   1
  -1   8  -8 632.702 100.330   3
   1  -8   8 428.001 71.2890   1
  -1   8  -9 71.6876 42.9712   3
   1  -8   9 111.591 41.4704   1
   1  -8  10-43.8365 36.0309   1
  -1   8 -10-83.9952 44.5474   3
  -1   8 -11 120.658 48.9860   3
  -1   7  11 28.3951 47.3596   4
  -1   7  10 147.461 48.3949   4
  -1   7   9 5168.18 295.013   4
  -1   7   8 750.925 77.8894   1
  -1   7   8 1011.84 121.756   4
  -1   7   7 156.596 45.6183   4
  -1   7   7 183.679 37.3564   1
  -1   7   6 433.550 50.2191   1
  -1   7   6 337.960 62.4761   4
  -1   7   5 18.3892 26.5499   4
  -1   7   5 53.2621 19.4409   1
  -1   7   4 197.985 39.4355   3
  -1   7   4 219.455 28.5235   1
  -1   7   4 183.342 42.2137   4
  -1   7   3 14.9163 9.59919   1
  -1   7   3 15.2360 23.3041   4
  -1   7   3 24.6263 18.2297   3
  -1   7   2 19902.6 531.788   4
  -1   7   2 19293.4 530.466   3
  -1   7   1 15342.3 444.581   3
  -1   7   1 14598.3 413.169   4
  -1   7   0 749.246 63.1200   4
  -1   7   0 792.926 78.1815   3
  -1   7  -1 1655.88 117.534   3
  -1   7  -1 1749.05 95.2562   4
  -1   7  -2 335.683 39.1380   4
  -1   7  -2 316.752 54.1019   3
  -1   7  -3-35.6135 32.2391   3
  -1   7  -3 13.0567 13.4650   4
   1  -7   3-4.47160 15.2557   1
  -1   7  -4 434.324 67.5818   3
  -1   7  -4 404.363 42.8207   4
   1  -7   4 474.327 54.2609   1
  -1   7  -5 5193.57 185.835   4
  -1   7  -5 5366.60 256.247   3
   1  -7   5 5078.33 215.526   1
   1  -7   6 3533.30 181.607   1
  -1   7  -6 3635.42 212.141   3
   1  -7   7 923.602 96.8046   1
  -1   7  -7 839.616 106.815   3
   1  -7   8 1086.05 109.831   1
  -1   7  -8 1005.65 118.651   3
   1  -7   9 6.32727 25.9576   1
  -1   7  -9 30.1179 39.2374   3
  -1   7 -10 49.1040 37.1259   3
   1  -7  10 70.1404 39.2222   1
   1  -7  11-14.0716 43.5725   1
  -1   7 -11 85.9638 47.7350   3
  -1   7 -12 43.3897 43.2717   3
   1  -7  12 53.6156 44.9660   1
  -1   6  12 33.5188 28.5344   1
  -1   6  11-37.6763 42.0620   4
  -1   6  11 74.0331 37.1153   1
  -1   6  10 2258.12 193.429   4
  -1   6  10 2072.53 154.683   1
  -1   6   9 69.1739 45.2287   4
  -1   6   9 22.4328 26.5206   1
  -1   6   8 92.6053 44.2515   4
  -1   6   8 117.297 35.9292   1
  -1   6   7 251.598 45.4290   1
  -1   6   7 255.349 62.1088   4
  -1   6   6 1320.21 118.740   4
  -1   6   6 1083.83 81.0741   1
  -1   6   5 3846.08 151.114   1
  -1   6   5 3707.40 194.521   4
  -1   6   4 6140.62 191.147   1
  -1   6   4 6716.27 258.351   4
  -1   6   3 18574.0 429.263   1
  -1   6   3 18216.1 492.333   3
  -1   6   3 19599.9 523.207   4
  -1   6   2 2158.26 119.927   4
  -1   6   2 2001.59 114.992   3
  -1   6   1 659.877 64.8493   3
  -1   6   1 711.912 61.5764   4
   1  -6  -1 500.921 33.8534   1
  -1   6   0 4392.20 161.237   4
   1  -6   0 3806.68 110.260   1
  -1   6   0 4291.44 178.246   3
  -1   6  -1 963.525 65.1085   4
  -1   6  -1 1003.13 83.7506   3
   1  -6   1 904.290 42.7624   1
  -1   6  -2 2477.59 107.726   4
  -1   6  -2 2454.33 139.234   3
  -1   6  -3 5.08972 13.4421   4
   1  -6   3 10.5334 14.0120   1
  -1   6  -3-19.3047 35.0295   3
   1  -6   4 613.369 63.5617   1
  -1   6  -4 742.904 79.6689   3
   1  -6   5 18276.9 493.132   1
  -1   6  -5 17280.1 527.500   3
  -1   6  -6 19638.6 588.991   3
   1  -6   6 20033.5 556.635   1
  -1   6  -7-24.9804 36.9148   3
   1  -6   7 69.4797 38.3980   1
   1  -6   8 1350.11 124.409   1
  -1   6  -8 1587.37 140.861   3
   1  -6   9 6.45791 29.7790   1
  -1   6  -9 29.5660 34.6363   3
   1  -6  10 150.885 53.4593   1
  -1   6 -10 128.933 49.5145   3
  -1   6 -11 854.546 118.706   3
   1  -6  11 852.016 115.219   1
   1  -6  12 426.598 91.7987   1
  -1   6 -12 500.766 93.7555   3
  -1   6 -13-101.481 48.9195   3
   1  -6  13 149.517 54.2252   1
  -1   5  13 1090.24 129.806   1
  -1   5  12 1720.90 158.600   1
  -1   5  11 66.3057 37.0077   1
  -1   5  11 122.454 60.1362   4
  -1   5  10 148.486 49.8470   1
  -1   5  10 211.620 66.5149   4
  -1   5   9 802.775 90.1728   1
  -1   5   9 767.409 106.875   4
  -1   5   8-10.5443 32.0951   4
  -1   5   8 67.4163 30.6254   1
  -1   5   7 971.053 108.281   4
  -1   5   7 941.221 85.0221   1
  -1   5   6 3014.55 144.916   1
  -1   5   6 3292.94 185.092   4
  -1   5   5 223.031 36.5525   1
  -1   5   5 162.840 41.9336   4
  -1   5   4 25131.7 658.786   4
  -1   5   4 25727.9 591.640   1
  -1   5   3 21792.8 538.845   3
  -1   5   3 21585.3 564.989   4
  -1   5   3 21256.7 488.495   1
  -1   5   2 1090.06 77.1593   3
  -1   5   2 1095.84 48.5431   1
   1  -5  -2 1112.43 56.8282   1
  -1   5   2 1149.63 81.1377   4
   1  -5  -1 3314.25 102.436   1
  -1   5   1 3875.88 155.924   3
  -1   5   1 3843.32 148.032   4
  -1   5   0 644.247 58.6132   3
  -1   5   0 683.664 53.6637   4
   1  -5   0 571.956 29.5572   1
  -1   5  -1 169.504 25.7168   4
   1  -5   1 123.715 14.4615   1
  -1   5  -1 142.486 32.7059   3
  -1   5  -2 3838.67 168.909   3
  -1   5  -2 3707.29 132.468   4
  -1   5  -3-13.1827 21.4806   3
   1  -5   3 15.8562 15.9430   1
  -1   5  -4 38.7099 31.7309   3
   1  -5   4 19.0152 20.5729   1
  -1   5  -5 4543.67 207.544   3
   1  -5   5 4453.71 190.746   1
   1  -5   6 10119.0 330.490   1
  -1   5  -6 9353.07 347.060   3
   1  -5   7 2601.07 154.923   1
  -1   5  -7 2388.11 161.925   3
  -1   5  -8 141.104 49.8806   3
   1  -5   8 157.325 47.2184   1
   1  -5   9 894.705 104.237   1
  -1   5  -9 693.407 93.7056   3
   1  -5  10 72.7071 40.7515   1
  -1   5 -10 56.4052 37.4134   3
   1  -5  11 3578.54 235.779   1
  -1   5 -11 3413.28 232.638   3
   1  -5  12 3577.43 248.253   1
  -1   5 -12 3135.33 233.219   3
  -1   5 -13 296.968 75.2162   3
   1  -5  13 358.282 84.0711   1
  -1   4  13 14.2230 34.3512   1
  -1   4  12 2461.39 195.965   1
  -1   4  11 213.329 72.5986   4
  -1   4  11 234.222 59.2890   1
  -1   4  10 37.4338 43.7140   4
  -1   4  10 46.5628 37.3300   1
  -1   4   9-10.1189 41.5918   4
  -1   4   9 19.8810 28.7834   1
  -1   4   8 132.993 40.8009   1
  -1   4   8 169.659 53.5593   4
  -1   4   7 2962.01 161.089   1
  -1   4   7 3033.15 186.947   4
  -1   4   6 8.78472 23.6203   1
  -1   4   6 27.8973 30.8911   4
  -1   4   5 532.892 66.4970   4
  -1   4   5 547.408 53.5132   1
  -1   4   4 4349.57 187.728   4
  -1   4   4 4112.80 146.104   1
   1  -4  -4 3912.96 108.319   2
  -1   4   3 8018.62 264.950   4
  -1   4   3 8190.08 218.821   1
  -1   4   3 8028.00 243.440   3
  -1   4   2 1439.51 87.2231   4
  -1   4   2 1335.63 56.0745   1
  -1   4   2 1419.14 80.7236   3
   1  -4  -2 1419.40 63.1591   1
   1  -4  -1 2240.17 75.0107   1
  -1   4   1 2556.18 112.225   4
  -1   4   1 2749.02 117.051   3
  -1   4   1 2481.63 68.4811   1
  -1   4   0 14887.4 360.553   4
   1  -4   0 14074.1 306.893   1
  -1   4   0 15014.8 376.696   3
  -1   4  -1 13752.3 343.521   4
  -1   4  -1 14781.9 378.613   3
  -1   4  -2 26846.5 645.801   3
  -1   4  -3 3712.81 159.139   3
   1  -4   3 3496.26 131.532   1
  -1   4  -4 4700.80 194.202   3
   1  -4   4 4986.00 185.958   1
  -1   4  -5 1142.77 92.4265   3
   1  -4   5 1120.05 84.1816   1
  -1   4  -6 6850.64 268.366   3
   1  -4   6 7002.57 258.572   1
  -1   4  -7 10481.7 368.432   3
   1  -4   7 10970.9 364.271   1
   1  -4   8 108.701 37.7933   1
  -1   4  -8 115.514 43.2122   3
  -1   4  -9 1879.47 148.334   3
   1  -4   9 1962.76 150.968   1
  -1   4 -10 2.67440 28.9290   3
   1  -4  10 18.3004 31.6452   1
   1  -4  11 5968.26 310.326   1
  -1   4 -11 6419.92 316.812   3
  -1   4 -12 38.4224 30.8066   3
   1  -4  12-70.1996 46.2880   1
   1  -4  13 223.941 75.8315   1
  -1   4 -13 94.1786 47.2132   3
  -1   4 -14 1836.84 182.486   3
  -1   3  14 671.835 111.786   1
  -1   3  13 1154.15 140.744   1
  -1   3  12 66.6547 45.3174   1
  -1   3  11 1562.88 150.113   1
  -1   3  11 1849.07 176.434   4
  -1   3  10 93.3326 53.3394   4
  -1   3  10 160.889 51.7216   1
  -1   3   9 4379.47 246.786   4
  -1   3   9 3692.10 210.110   1
  -1   3   8 6081.41 286.519   4
  -1   3   8 6067.36 257.660   1
  -1   3   7 11783.2 378.698   1
  -1   3   7 11798.7 415.227   4
  -1   3   6 8202.56 304.257   4
  -1   3   6 7994.34 273.103   1
  -1   3   5 19.9005 21.8147   1
  -1   3   5 4.15930 24.8074   4
  -1   3   4 21.5383 15.2177   1
  -1   3   4 1.62658 25.6331   4
  -1   3   3 6592.64 190.633   1
   1  -3  -3 6522.66 160.022   2
  -1   3   3 6893.94 228.069   4
  -1   3   2 8603.96 219.804   1
  -1   3   2 9689.62 255.780   3
   1  -3  -2 8919.61 221.652   2
  -1   3   2 9401.30 267.034   4
   1  -3  -2 9664.12 232.550   1
  -1   3   1 51.7233 8.41079   1
  -1   3   1 63.1164 21.3286   4
   1  -3  -1 29.8889 9.45898   1
  -1   3   1 57.2088 17.6785   3
  -1   3   0 5631.55 165.607   4
  -1   3   0 5376.95 170.223   3
  -1   3  -1 8947.26 250.919   3
  -1   3  -1 9014.33 229.939   4
  -1   3  -2 523.811 49.4877   3
   1  -3   2 475.731 35.9587   1
   1  -3   3 13509.5 353.375   1
  -1   3  -3 13818.6 367.411   3
  -1   3  -4 1494.84 95.5009   3
   1  -3   4 1770.86 95.4388   1
  -1   3  -5 7476.06 255.284   3
   1  -3   5 7248.67 245.511   1
  -1   3  -6 9347.55 308.601   3
   1  -3   6 8946.59 301.398   1
   1  -3   7 2017.59 132.763   1
  -1   3  -7 2013.21 130.706   3
   1  -3   8 1280.39 112.164   1
  -1   3  -8 1253.80 107.768   3
  -1   3  -9 1.23756 26.0454   3
   1  -3   9 69.7609 42.6968   1
  -1   3 -10 97.7739 38.5825   3
   1  -3  10 118.748 48.7734   1
  -1   3 -11 74.7448 32.0113   3
   1  -3  11 129.194 46.2476   1
   1  -3  12 2033.17 181.294   1
  -1   3 -12 2090.70 173.940   3
  -1   3 -13 362.270 80.3619   3
   1  -3  13 234.546 71.0008   1
   1  -3  14-10.3065 46.3837   1
  -1   3 -14 34.7516 33.2417   3
  -1   2  14-28.1784 44.2273   1
  -1   2  13 31.9621 39.2170   1
  -1   2  12 949.137 123.782   1
  -1   2  11 95.9214 50.8772   1
  -1   2  11-12.3083 34.2499   4
  -1   2  10-12.9859 33.4865   4
  -1   2  10-0.37048 29.7354   1
  -1   2   9 5419.34 267.850   1
  -1   2   9 5899.04 291.212   4
  -1   2   8 537.027 83.7094   4
  -1   2   8 516.476 72.7397   1
  -1   2   7 4909.58 239.456   4
  -1   2   7 4918.60 218.317   1
  -1   2   6 7946.72 275.204   1
  -1   2   6 7860.31 299.269   4
  -1   2   5 738.282 72.9365   4
  -1   2   5 725.706 65.7915   1
  -1   2   4 8278.95 271.101   4
  -1   2   4 8473.52 248.764   1
  -1   2   3 67558.3 1444.41   1
  -1   2   3 70849.5 1481.18   4
  -1   2   2 188.689 26.4205   3
   1  -2  -2 158.342 13.9621   2
  -1   2   2 189.801 20.5322   1
  -1   2   2 190.078 28.1667   4
  -1   2   1 19956.5 428.117   1
  -1   2   1 21052.1 466.459   3
  -1   2   1 21115.4 473.958   4
   1  -2  -1 20574.2 443.773   2
   1  -2   0 4844.56 138.123   4
  -1   2   0 4775.66 139.861   4
  -1   2   0 4858.32 144.493   3
   1  -2   0 5062.90 138.824   2
   1  -2   1 23.9831 7.55989   1
  -1   2  -1 23.3483 11.0594   3
   1  -2   2 18997.1 438.265   1
  -1   2  -2 19952.7 457.046   3
  -1   2  -3 14250.0 361.913   3
   1  -2   3 14213.6 351.090   1
  -1   2  -4 722.161 58.3868   3
   1  -2   4 891.212 64.8285   1
   1  -2   5 31311.0 738.332   1
  -1   2  -5 31047.2 733.863   3
   1  -2   6 50.4887 28.9016   1
  -1   2  -6 22.0040 21.6324   3
  -1   2  -7 45.7126 26.7163   3
   1  -2   7 11.4778 30.3455   1
  -1   2  -8 71.4126 29.9431   3
   1  -2   8 119.863 44.5994   1
  -1   2  -9 4819.81 226.477   3
   1  -2   9 4904.22 243.247   1
   1  -2  10 698.186 92.9261   1
  -1   2 -10 907.493 99.1771   3
  -1   2 -11 2488.90 174.228   3
   1  -2  11 2367.06 186.293   1
  -1   2 -12 127.781 44.5829   3
   1  -2  12 138.571 59.2138   1
  -1   2 -13 43.5054 33.9833   3
   1  -2  13 98.9752 61.5192   1
  -1   2 -14 551.417 93.3663   3
   1  -2  14 395.188 91.1654   1
  -1   1  14 919.213 134.632   1
  -1   1  13 800.222 122.188   1
   1  -1 -13 983.433 119.705   3
  -1   1  12-6.44400 36.0444   1
  -1   1  11 6724.32 330.006   1
  -1   1  10 448.943 74.9109   1
  -1   1  10 562.896 91.0423   4
  -1   1   9 234.418 59.0489   4
  -1   1   9 264.915 56.3555   1
  -1   1   8 8487.79 321.734   1
  -1   1   8 8261.54 335.084   4
  -1   1   7 169.363 47.1062   4
  -1   1   7 208.512 47.6717   1
  -1   1   6 5263.24 226.278   4
  -1   1   6 5235.06 210.588   1
  -1   1   5 2492.99 132.554   4
  -1   1   5 2185.75 120.292   1
  -1   1   4 54079.7 1199.24   1
  -1   1   4 55314.2 1206.24   4
  -1   1   3 3611.00 135.740   1
  -1   1   3 3845.51 145.491   4
  -1   1   2 59.2526 17.1813   4
  -1   1   2 33.4334 14.8926   1
  -1   1   1 20148.9 440.962   3
  -1   1   1 19812.1 450.098   4
  -1   1   0 18660.6 409.185   3
  -1   1   0 18527.3 407.713   4
   1  -1   1 7182.57 173.243   1
  -1   1  -1 8024.18 192.813   3
  -1   1  -1 7794.95 175.119   1
  -1   1  -2 53172.4 1096.63   3
   1  -1   2 53390.3 1091.95   1
  -1   1  -2 50659.6 1091.85   1
   1  -1   3 9615.45 249.635   1
  -1   1  -3 9036.54 244.173   3
  -1   1  -4 1464.86 76.3878   3
   1  -1   4 1480.48 84.8658   1
   1  -1   5 3324.83 143.182   1
  -1   1  -5 3088.83 129.255   3
  -1   1  -6 2009.63 108.298   3
   1  -1   6 1930.12 116.956   1
  -1   1  -7 1575.31 102.285   3
   1  -1   7 1705.98 118.113   1
   1  -1   8 207.668 49.4219   1
  -1   1  -8 198.881 42.6659   3
   1  -1   9 163.443 51.7501   1
  -1   1  -9 180.985 41.9317   3
   1  -1  10 2989.47 193.492   1
  -1   1 -10 2515.58 158.484   3
   1  -1  11 9653.05 400.440   1
  -1   1 -11 9156.19 358.941   3
  -1   1 -12 14754.7 510.497   3
   1  -1  12 15102.6 556.219   1
  -1   1 -13 675.848 97.1707   3
   1  -1  13 838.460 121.032   1
   1  -1  14 119.034 53.2179   1
   1   0 -14 502.990 90.6626   3
  -1   0  14 441.595 99.2737   1
  -1   0  13 882.130 127.884   1
   1   0 -13 726.696 104.634   3
   1   0 -12 777.034 105.539   3
  -1   0  12 644.095 104.966   1
  -1   0  11 460.484 83.0731   1
  -1   0  10 821.798 107.465   4
  -1   0  10 739.783 97.7352   1
  -1   0   9 718.675 93.1531   4
  -1   0   9 512.087 77.4499   1
  -1   0   8 3384.27 185.973   1
  -1   0   8 3179.93 184.217   4
  -1   0   7 4027.19 192.156   1
  -1   0   7 3877.74 196.146   4
  -1   0   6 183.722 20.3034   2
  -1   0   6 143.335 38.0813   4
  -1   0   6 199.207 44.6597   1
  -1   0   5 1535.27 99.2732   4
  -1   0   5 1378.90 55.3394   2
  -1   0   5 1509.24 103.593   1
  -1   0   4 12.3547 6.69224   2
  -1   0   4-28.3884 27.2074   4
  -1   0   4-21.1110 24.7268   1
   1   0  -4 27.0301 9.06481   2
  -1   0   3 16629.9 348.560   2
  -1   0   3 17044.5 402.697   4
   1   0  -3 15506.9 345.924   2
  -1   0   2 214.576 14.8691   2
  -1   0   2 209.660 26.0093   4
   1   0  -2 230.654 15.1794   2
  -1   0   1 36776.3 777.563   4
  -1   0   1 36375.7 754.636   2
   1   0  -1 37560.4 754.866   2
  -1   0  -1 13959.0 305.806   3
   1   0   1 14660.2 310.167   1
  -1   0  -2 366590. 7477.42   3
   1   0   2 381075. 7494.84   1
   1   0   2 375635. 7477.01   3
  -1   0  -3 85407.9 1767.92   3
   1   0   3 87419.3 1790.29   1
  -1   0  -4 3382.89 117.754   3
   1   0   4 3168.02 129.990   1
   1   0   5 16639.9 434.422   1
  -1   0  -5 16051.7 405.038   3
   1   0   6 408.101 52.9902   1
  -1   0  -6 459.280 51.6763   3
   1   0   7 4856.76 211.455   1
  -1   0  -7 4865.74 190.234   3
   1   0   8 415.372 65.2692   1
  -1   0  -8 482.964 62.7318   3
   1   0   9 157.534 50.6149   1
  -1   0  -9 115.304 37.0920   3
   1   0  10 4113.65 232.858   1
  -1   0 -10 3886.29 198.146   3
   1   0  11 5202.20 278.704   1
  -1   0 -11 4965.12 238.938   3
   1   0  12 207.989 63.7663   1
  -1   0 -12 335.449 63.7811   3
  -1   0 -13 361.533 70.2964   3
   1   0  13 235.728 73.1364   1
   1   0  14 298.907 83.3940   1
   1   1 -14 17.5222 34.6909   3
  -1  -1  14 99.1282 60.3963   1
  -1  -1  13 40.3916 50.6149   1
   1   1 -13 255.561 66.7519   3
   1   1 -12 245.190 64.6184   3
  -1  -1  12 264.285 68.6788   1
  -1  -1  11 260.996 69.5165   1
   1   1 -11 280.062 65.3598   3
  -1  -1  10 8591.40 363.465   1
  -1  -1   9 27073.6 758.423   1
  -1  -1   8 3750.05 197.362   4
  -1  -1   8 3970.37 206.153   1
  -1  -1   7 9647.45 336.801   4
  -1  -1   7 10855.1 357.723   1
  -1  -1   6 1771.29 114.655   4
  -1  -1   6 1876.24 124.431   1
  -1  -1   5 577.986 60.0856   1
  -1  -1   5 652.737 63.1492   4
   1   1  -4 2711.63 94.9961   2
  -1  -1   4 2620.19 117.762   4
   1   1  -3 1893.00 70.3502   2
  -1  -1   3 1807.54 83.2589   4
  -1  -1   3 1897.06 70.7657   2
   1   1  -2 8733.35 203.978   2
  -1  -1   2 8118.91 213.089   4
  -1  -1   2 8425.09 202.105   2
   1   1  -2 8204.79 211.751   4
   1   1  -1 85621.8 1729.51   4
   1   1  -1 85141.7 1733.55   2
  -1  -1   1 89179.2 1732.02   4
   1   1   1 44462.4 909.544   2
   1   1   1 43882.0 912.203   1
   1   1   2 4647.06 135.038   1
   1   1   3 4272.90 143.349   1
   1   1   4 11348.3 312.559   1
   1   1   5 11480.3 332.761   1
   1   1   6 2534.89 136.629   1
   1   1   7 1117.59 98.3328   1
   1   1   8 4657.65 224.447   1
   1   1   9 72.5524 38.7675   1
  -1  -1  -9 55.5415 34.2330   3
   1   1  10 1470.19 132.160   1
  -1  -1 -10 1289.88 107.728   3
  -1  -1 -11 622.026 78.8837   3
   1   1  11 706.997 102.046   1
  -1  -1 -12 16.7541 23.5299   3
   1   1  12 23.1363 43.1999   1
   1   1  13 906.551 124.776   1
   1   1  14-17.8961 35.5186   1
  -1  -2  14 251.456 78.8366   1
   1   2 -14 235.953 64.8749   3
  -1  -2  13 1707.87 171.411   1
   1   2 -13 1580.44 156.770   3
   1   2 -12 317.927 72.2177   3
  -1  -2  12 265.274 73.1939   1
   1   2 -11 1465.83 138.642   3
  -1  -2  11 1517.21 149.203   1
   1   2 -10 1558.12 135.053   3
  -1  -2  10 1527.15 142.252   1
  -1  -2   9 2148.28 160.809   1
   1   2  -9 2300.29 158.495   3
  -1  -2   8 35.7552 42.4707   1
  -1  -2   7 1748.30 119.914   4
  -1  -2   7 1958.52 135.677   1
  -1  -2   6 1304.24 98.8571   1
  -1  -2   6 1193.25 87.6049   4
  -1  -2   5 1154.11 80.7101   4
   1   2  -5 1279.48 70.9377   2
  -1  -2   4 574.902 53.6828   4
   1   2  -4 694.002 49.2961   2
   1   2  -3 91509.6 1867.39   2
  -1  -2   3 89335.5 1867.83   4
  -1  -2   2 10530.4 246.257   4
   1   2  -2 10243.4 245.134   4
   1   2  -2 10761.4 261.999   2
   1   2  -1 82999.6 1695.79   3
   1   2  -1 82208.4 1697.36   2
   1   2   0 127767. 2600.29   2
   1   2   0 128692. 2587.02   3
  -1  -2  -1 11011.6 235.152   3
  -1  -2  -1 11322.2 254.522   4
  -1  -2  -1 10409.8 252.194   2
   1   2   1 11470.2 254.510   1
   1   2   1 10705.5 252.687   2
   1   2   1 10425.7 233.108   3
   1   2   2 33208.5 715.544   2
  -1  -2  -2 34130.4 698.652   3
  -1  -2  -2 34548.7 717.118   2
   1   2   2 34897.4 732.225   1
   1   2   2 33384.3 735.188   4
   1   2   3 6684.79 187.902   1
   1   2   3 5643.86 156.900   2
   1   2   3 5984.22 188.926   4
  -1  -2  -3 6377.62 152.723   3
   1   2   4 9865.74 276.977   1
   1   2   4 9427.31 230.710   2
   1   2   4 9902.69 286.691   4
   1   2   5 21963.9 527.495   1
   1   2   5 20487.6 526.362   4
   1   2   5 19482.5 445.935   2
   1   2   6 14106.1 393.670   1
   1   2   6 12813.6 307.809   2
   1   2   6 13314.8 398.665   4
   1   2   7 42.2492 30.6175   1
   1   2   7 24.5976 14.4353   2
   1   2   8 3908.23 197.653   1
   1   2   8 3550.10 117.211   2
   1   2   9 1247.09 116.479   1
  -1  -2 -10 102.140 38.5282   3
   1   2  10 87.0049 41.4113   1
  -1  -2 -11 8255.65 310.506   3
   1   2  11 7879.75 354.413   1
   1   2  12 1196.01 138.893   1
   1   2  13 0.24724 36.9613   1
   1   2  14 97.3576 50.0673   1
   1   3 -14-4.93955 30.8973   3
   1   3 -13 59.6103 48.5539   3
  -1  -3  13-24.2012 54.1552   1
  -1  -3  12 3044.43 229.734   1
   1   3 -12 2384.48 190.316   3
   1   3 -11 3004.56 206.146   3
  -1  -3  11 3441.98 229.804   1
   1   3 -10 1784.23 147.425   3
  -1  -3  10 1806.28 155.886   1
   1   3  -9 2795.74 180.058   3
  -1  -3   9 2887.88 189.440   1
   1   3  -8 4921.03 234.821   3
  -1  -3   8 5306.83 254.047   1
   1   3  -7 705.308 79.8560   3
  -1  -3   7 564.497 73.1659   1
  -1  -3   6 388.102 55.9465   1
   1   3  -6 351.908 57.5172   3
   1   3  -5 914.317 66.6354   2
   1   3  -5 1004.50 84.6013   3
   1   3  -4 20847.8 506.727   2
   1   3  -4 20821.3 529.468   3
   1   3  -3 32928.3 717.812   2
   1   3  -3 33922.4 729.632   3
   1   3  -2 454.554 43.5075   3
   1   3  -2 393.518 24.1274   4
   1   3  -2 408.772 38.8671   2
   1   3  -1 14706.2 354.587   2
   1   3  -1 14319.3 349.215   3
   1   3   0 11.4436 12.1551   2
   1   3   0 10.1463 9.92628   3
  -1  -3   0 11.5629 9.08749   3
   1   3   1 989.495 53.1973   2
   1   3   1 973.886 44.3281   3
   1   3   1 990.225 48.2765   1
   1   3   1 961.646 45.2595   4
  -1  -3  -1 1023.07 49.2125   4
  -1  -3  -1 1057.19 46.8880   3
   1   3   2 6747.70 183.409   2
   1   3   2 7577.95 196.007   1
   1   3   2 7036.90 198.368   4
   1   3   2 6943.21 172.641   3
  -1  -3  -2 7084.11 174.484   3
  -1  -3  -3 442.631 32.0621   2
   1   3   3 390.842 30.1652   2
  -1  -3  -3 402.482 28.4562   3
   1   3   3 473.664 48.4634   4
   1   3   3 420.269 39.7871   1
   1   3   4 620.788 37.4455   2
  -1  -3  -4 675.484 41.7371   3
   1   3   4 766.596 65.6277   4
   1   3   4 740.841 60.0042   1
   1   3   5 4028.22 173.122   4
   1   3   5 3697.72 154.913   1
   1   3   5 3478.43 107.220   2
   1   3   6 2491.24 132.732   1
   1   3   6 2311.71 79.0802   2
   1   3   6 2690.62 147.913   4
   1   3   7 817.110 40.3985   2
   1   3   7 917.946 99.2415   4
   1   3   7 1006.11 91.8907   1
   1   3   8 750.485 86.8230   1
   1   3   9 144.493 48.8056   1
   1   3  10 5325.94 264.334   1
   1   3  11 325.535 67.8104   1
   1   3  12 406.269 77.3731   1
   1   3  13 294.882 69.9432   1
   1   3  14 229.444 64.4321   1
   1   4 -14-11.5824 45.7270   3
  -1  -4  13 728.960 118.777   1
   1   4 -13 667.789 107.925   3
   1   4 -12 4214.71 266.476   3
  -1  -4  12 4312.70 277.292   1
   1   4 -11 48.2776 44.0358   3
  -1  -4  11 8.15610 37.9568   1
  -1  -4  10 549.839 89.8544   1
   1   4 -10 284.657 64.3561   3
   1   4  -9 879.734 103.976   3
  -1  -4   9 757.654 99.5283   1
   1   4  -8 509.624 73.6181   3
  -1  -4   8 377.797 69.3818   1
   1   4  -7 1854.65 135.353   3
  -1  -4   7 1986.59 137.594   1
   1   4  -6 229.323 52.3194   3
   1   4  -5 771.099 75.4577   3
   1   4  -5 749.844 68.6977   2
   1   4  -4 1148.05 80.2956   2
   1   4  -4 1028.29 80.9377   3
   1   4  -3 1762.02 69.4983   4
   1   4  -3 1942.25 103.171   3
   1   4  -3 1791.10 101.155   2
   1   4  -2 996.156 35.3792   4
   1   4  -2 1172.30 75.5142   3
   1   4  -2 1327.77 76.9554   2
   1   4  -1 359.712 40.9938   2
   1   4  -1 381.865 41.1139   3
  -1  -4   0 7178.44 165.598   4
   1   4   0 7142.66 211.006   2
   1   4   0 7149.12 165.430   4
   1   4   0 7611.07 206.013   3
   1   4   1 11872.6 287.094   1
  -1  -4  -1 12097.8 288.394   4
   1   4   1 11786.9 292.286   3
   1   4   1 11876.1 284.853   4
   1   4   1 11994.8 305.179   2
   1   4   2 39460.6 858.623   1
   1   4   2 39757.8 849.152   3
   1   4   2 40312.1 862.298   2
   1   4   2 39832.3 869.061   4
   1   4   3 16.3102 10.4494   3
   1   4   3 20.8654 20.5162   4
   1   4   3 26.0612 13.6292   2
   1   4   3 44.9595 19.2357   1
   1   4   4 13517.5 323.475   2
   1   4   4 13537.0 380.287   4
   1   4   4 13673.2 359.684   1
   1   4   5 2793.18 131.803   1
   1   4   5 2611.27 90.9712   2
   1   4   5 2727.78 142.110   4
   1   4   6 10617.9 345.528   4
   1   4   6 10175.0 319.062   1
   1   4   6 9738.17 237.805   2
   1   4   7 23118.0 598.108   1
   1   4   7 21692.0 470.711   2
   1   4   8 5511.33 240.549   1
   1   4   9 163.460 30.3630   1
   1   4  10 824.176 98.6928   1
   1   4  11 5.23893 29.8024   1
   1   4  12 112.149 49.5987   1
   1   4  13 32.5462 41.6660   1
   1   4  14 1374.87 155.462   1
   1   5 -13 3453.35 256.653   3
  -1  -5  13 3541.73 264.843   1
   1   5 -12 415.808 87.3965   3
  -1  -5  12 423.804 92.5127   1
  -1  -5  11 201.277 66.4288   1
   1   5 -11 118.924 46.1504   3
   1   5 -10 7718.50 356.495   3
  -1  -5  10 7733.29 359.645   1
   1   5  -9 2193.20 170.955   3
  -1  -5   9 2350.30 178.245   1
  -1  -5   8 124.178 45.1133   1
   1   5  -8 58.0042 30.1780   3
  -1  -5   7 427.388 67.6410   1
   1   5  -7 331.105 67.8965   3
   1   5  -6 1985.69 135.244   3
   1   5  -5 707.079 79.2007   3
   1   5  -5 672.463 71.9090   2
   1   5  -4 23.5153 20.4532   2
   1   5  -4 19.0703 30.6086   3
   1   5  -3 235.021 41.7389   2
   1   5  -3 254.556 20.8803   4
   1   5  -3 229.155 40.1633   3
   1   5  -2 9640.78 292.649   2
   1   5  -2 9981.12 297.571   3
   1   5  -1 10584.5 299.725   2
   1   5  -1 10064.4 290.699   3
  -1  -5   0 673.237 31.2110   4
   1   5   0 610.477 53.8713   2
   1   5   0 668.686 32.6946   4
   1   5   0 630.760 52.7846   3
  -1  -5  -1 1199.32 59.5372   4
   1   5   1 1261.87 60.4884   4
   1   5   1 1125.01 66.7473   3
   1   5   1 1230.21 73.6885   2
   1   5   1 1197.53 60.3731   1
   1   5   2 4023.29 137.772   3
   1   5   2 4109.45 144.513   4
   1   5   2 3730.61 130.249   1
   1   5   2 4043.94 142.868   2
   1   5   3 15996.2 397.158   3
   1   5   3 17586.9 437.056   4
   1   5   3 16426.5 407.838   1
   1   5   3 17008.4 404.707   2
   1   5   4 27.1457 20.7466   1
   1   5   4 15.1508 11.5257   2
   1   5   4 34.7743 23.4386   4
   1   5   5 15842.8 436.996   4
   1   5   5 14221.2 396.879   1
   1   5   5 14538.0 350.226   2
   1   5   6 4596.88 189.436   1
   1   5   6 4988.44 220.563   4
   1   5   6 4521.17 132.507   2
   1   5   7 42.4566 37.9316   4
   1   5   7-18.0543 25.5859   1
   1   5   8 3787.98 195.256   1
   1   5   8 4371.67 229.866   4
   1   5   9-19.2563 28.9035   1
   1   5  10 27.3943 27.2419   1
   1   5  11 164.840 51.7862   1
   1   5  12 24.7059 30.7058   1
   1   5  13 385.083 77.5009   1
  -1  -6  13-103.107 57.6439   1
   1   6 -13-2.99683 30.5020   3
  -1  -6  12 137.642 60.1934   1
   1   6 -12 194.636 63.7104   3
  -1  -6  11 389.782 86.9290   1
   1   6 -11 215.563 60.6255   3
  -1  -6  10 180.877 50.7023   1
   1   6 -10 205.512 55.5570   3
  -1  -6   9 10.4429 30.0306   1
   1   6  -9-8.81962 40.6729   3
  -1  -6   8 459.148 79.6636   1
   1   6  -8 387.073 69.8026   3
  -1  -6   7 3036.08 181.408   1
   1   6  -7 2993.25 186.648   3
   1   6  -6 9498.82 352.581   3
   1   6  -5 2248.30 144.205   3
   1   6  -5 2002.73 134.441   2
   1   6  -4 19531.2 543.151   3
   1   6  -4 18561.4 521.158   2
   1   6  -3 36167.0 872.406   3
   1   6  -3 36696.0 879.779   2
   1   6  -2-12.4980 26.5019   2
   1   6  -2 4.63364 18.7015   3
   1   6  -1 1053.09 79.2906   2
   1   6  -1 1124.47 81.7719   3
   1   6   0 9015.88 276.521   2
   1   6   0 8615.47 209.423   4
   1   6   0 8821.98 265.977   3
   1   6   1 271.178 36.5400   3
   1   6   1 334.072 41.9279   2
   1   6   1 255.612 29.0129   4
   1   6   2 12602.2 334.406   3
   1   6   2 12523.0 332.371   4
   1   6   2 11793.6 314.401   1
   1   6   2 13011.0 342.506   2
   1   6   3 1099.74 78.1551   4
   1   6   3 981.543 63.7008   3
   1   6   3 1062.21 69.2933   2
   1   6   3 988.379 65.2391   1
   1   6   4 4671.31 173.501   1
   1   6   4 5071.76 202.251   4
   1   6   4 4879.27 165.234   2
   1   6   5 19869.7 523.618   1
   1   6   5 20490.6 560.868   4
   1   6   5 21250.0 487.128   2
   1   6   6 2359.09 131.512   1
   1   6   6 2434.34 92.2282   2
   1   6   6 2704.32 157.806   4
   1   6   7 1441.74 121.525   4
   1   6   7 1262.42 99.8896   1
   1   6   8 846.746 86.9135   1
   1   6   8 984.147 107.703   4
   1   6   9 6.16678 26.2696   1
   1   6  10 66.7829 30.3251   1
   1   6  11 21.1371 30.5067   1
   1   6  12 35.9325 35.3617   1
   1   6  13 150.956 54.2686   1
  -1  -7  12 1506.20 167.499   1
   1   7 -12 1377.18 164.375   3
   1   7 -11 201.535 70.0107   3
  -1  -7  11 181.880 66.8597   1
  -1  -7  10 887.744 123.870   1
   1   7 -10 1021.64 131.496   3
  -1  -7   9 455.118 86.0918   1
   1   7  -9 575.435 96.1328   3
   1   7  -8 1338.92 139.303   3
  -1  -7   8 1346.13 133.422   1
   1   7  -7 625.748 89.4189   3
  -1  -7   7 485.265 79.9187   1
   1   7  -6 3616.95 213.198   3
   1   7  -5 13095.0 433.848   3
   1   7  -5 12825.6 417.309   2
   1   7  -4 16394.0 492.406   2
   1   7  -4 17291.0 510.589   3
   1   7  -3 7857.24 289.607   3
   1   7  -3 7886.35 290.602   2
   1   7  -2 336.685 51.8077   2
   1   7  -2 258.984 42.0838   3
   1   7  -1 201.912 42.4859   2
   1   7  -1 109.268 28.8269   3
   1   7   0 349.638 51.0597   2
   1   7   0 267.439 42.5414   3
   1   7   0 355.874 25.9638   4
   1   7   1 652.677 46.4476   4
   1   7   1 613.444 57.0955   3
   1   7   1 660.954 63.9807   2
   1   7   2 704.178 57.2855   4
   1   7   2 671.491 60.2612   3
   1   7   2 735.506 63.9992   2
   1   7   3 11.9963 14.4180   3
   1   7   3 21.0548 16.0566   1
   1   7   3 27.6142 17.4100   2
   1   7   3 28.7596 20.1408   4
   1   7   4 403.959 45.3248   1
   1   7   4 357.461 54.0836   4
   1   7   4 352.479 41.7668   2
   1   7   4 385.118 44.0798   3
   1   7   5 253.549 49.5744   4
   1   7   5 195.136 28.9845   2
   1   7   5 309.535 44.2270   1
   1   7   6 791.334 86.8186   4
   1   7   6 483.018 57.4845   1
   1   7   7 751.013 88.5857   4
   1   7   7 673.062 72.0316   1
   1   7   8 38.7520 22.0007   1
   1   7   9 604.623 80.0565   1
   1   7  10 39.3866 36.4776   1
   1   7  11 2804.86 193.657   1
   1   7  12 1131.74 125.691   1
  -1  -8  12 1353.93 157.969   1
  -1  -8  11 381.793 91.3014   1
   1   8 -11 362.056 82.7663   3
  -1  -8  10 380.900 85.0098   1
   1   8 -10 479.024 98.0070   3
  -1  -8   9 5.67562 31.7838   1
   1   8  -9 12.0918 48.8497   3
  -1  -8   8 123.039 52.1796   1
   1   8  -8 56.9401 38.3636   3
   1   8  -7 1340.54 135.554   3
  -1  -8   7 1209.11 120.805   1
   1   8  -6 106.695 45.0396   3
   1   8  -5 4252.43 227.939   3
   1   8  -4 29.7055 31.1655   2
   1   8  -4-4.09366 25.4966   3
   1   8  -3 329.730 57.3558   2
   1   8  -3 331.378 56.8156   3
   1   8  -2 2451.91 149.165   2
   1   8  -2 2354.03 146.159   3
   1   8  -1 242.879 47.4379   2
   1   8  -1 229.543 43.3352   3
   1   8   0 490.129 59.4803   3
   1   8   0 468.589 60.3107   2
   1   8   1 3004.27 153.327   2
   1   8   1 2581.13 137.763   3
   1   8   1 2739.23 106.175   4
   1   8   2 16927.1 466.587   2
   1   8   2 16337.8 459.366   3
   1   8   2 16888.4 429.062   4
   1   8   3 7.16719 21.1380   2
   1   8   3 48.8127 18.5229   3
   1   8   3 19.0355 15.3444   4
   1   8   4 1423.88 91.5789   3
   1   8   4 1529.15 89.8985   1
   1   8   4 1620.21 99.4747   2
   1   8   4 1549.55 107.775   4
   1   8   5 85.3351 24.0663   2
   1   8   5 83.6903 25.7086   1
   1   8   5 71.2781 30.8023   4
   1   8   6 1525.54 123.551   4
   1   8   6 1291.62 96.5658   1
   1   8   7 181.936 49.3460   4
   1   8   7 47.3316 21.9320   1
   1   8   8-33.2567 28.5585   1
   1   8   9 14.1977 25.8412   1
   1   8  10 1621.15 134.682   1
   1   8  11-4.46547 22.9897   1
  -1  -9  11 280.914 76.2982   1
  -1  -9  10 194.822 68.0837   1
   1   9 -10 476.772 94.4082   3
  -1  -9   9 336.163 79.0321   1
   1   9  -9 357.485 83.3201   3
   1   9  -8 1428.69 152.904   3
  -1  -9   8 1485.60 146.131   1
  -1  -9   7 2208.58 169.087   1
   1   9  -7 2687.42 200.340   3
   1   9  -6 857.331 111.299   3
   1   9  -5 1325.45 130.156   3
   1   9  -4 55.0809 33.1092   3
   1   9  -3 15.9677 26.5135   2
   1   9  -3-32.4625 31.6625   3
   1   9  -2 72.4141 36.4780   2
   1   9  -2 59.4355 28.9499   3
   1   9  -1-17.1665 25.5857   3
   1   9  -1-0.42065 25.2352   2
   1   9   0 402.306 58.2459   3
   1   9   0 680.396 78.5253   2
   1   9   1 4811.83 217.007   2
   1   9   1 4883.37 212.767   3
   1   9   2 2644.56 147.580   2
   1   9   2 2421.79 140.826   3
   1   9   3 2531.72 139.420   2
   1   9   3 2124.10 127.051   3
   1   9   4 1833.49 112.268   3
   1   9   4 1976.98 116.990   2
   1   9   4 1921.37 122.840   4
   1   9   5 439.029 50.9225   1
   1   9   5 480.799 67.1130   4
   1   9   6 1154.09 87.9392   1
   1  10  -9 949.658 133.604   3
   1  10  -8 73.3752 42.7406   3
   1  10  -7 47.7844 38.3954   3
   1  10  -6 31.9414 36.7700   3
   1  10  -5 305.774 67.9982   3
   1  10  -4 7199.24 327.690   3
   1  10  -3-10.2901 28.0452   3
   1  10  -2 1790.84 141.827   3
   1  10  -1 61.9883 35.0580   3
   1  10   0 652.912 83.2853   2
   1  10   0 572.698 73.0397   3
   1  10   1 0.14242 21.9043   2
   1  10   1-1.09722 17.7812   3
   1  10   2 42.9922 24.4618   3
   1  10   2 66.7266 28.4395   2
   1  10   3 36.3099 22.0562   3
   1  11  -8 1374.21 162.225   3
   1  11  -7 203.484 66.8559   3
   1  11  -6 481.050 91.7769   3
   1  11  -5 970.868 122.424   3
   1  11  -4 1280.51 133.278   3
   1  11  -3 432.575 76.9096   3
   1  11  -2 2224.59 168.366   3
   1  11  -1 34.9746 26.2962   3
   1  11   0 371.046 64.6054   3
   1  11   1 318.654 58.1958   3
   1  11   2 4247.63 214.107   3
   1  12  -6 9.60985 51.7153   3
   1  12  -5 239.928 57.3474   3
   1  12  -4 104.234 51.3133   3
   1  12  -3 3.55770 27.9895   3
   1  12  -2 374.099 75.0942   3
   1  12  -1 119.348 41.7753   3
   1  12   0 627.268 86.3964   3
   1  12   1 1644.02 139.079   3
   1  13  -5 212.622 64.1841   3
   1  13  -4 102.835 55.1624   3
   1  13  -3 279.636 66.5922   3
   1  13  -2 27.9973 37.6541   3
   1  13  -1 597.988 92.1540   3
  -2  12   3 153.563 46.2235   3
  -2  12   2 243.842 66.7744   3
  -2  12   1 66.7548 38.0719   3
  -2  12   0 526.029 91.2248   3
  -2  12  -1 870.052 122.551   3
  -2  12  -2 3368.07 246.788   3
  -2  12  -3 1802.16 178.944   3
  -2  12  -4 1312.25 156.438   3
  -2  11   3 772.733 100.873   3
  -2  11   2 420.269 76.8099   3
  -2  11   1 3.72060 24.1586   3
  -2  11   0 998.648 120.750   3
  -2  11  -1 3707.50 242.449   3
  -2  11  -2 3938.84 255.821   3
  -2  11  -3 338.758 79.5046   3
  -2  11  -4 63.9742 36.7783   3
  -2  11  -5 1587.61 164.504   3
  -2  11  -6 1053.73 138.037   3
  -2  10   3 692.386 90.5770   3
  -2  10   2 381.006 68.8031   3
  -2  10   1 86.4277 34.4930   3
  -2  10   0 2156.82 167.907   3
  -2  10  -1 2352.99 180.645   3
  -2  10  -2 52.3003 38.2426   3
  -2  10  -3 11.9310 27.5180   3
  -2  10  -4 1098.32 125.038   3
  -2  10  -5 14.0948 28.5698   3
  -2  10  -6 847.260 121.596   3
  -2  10  -7 437.664 89.1295   3
  -2  10  -8 3100.11 245.510   3
  -2   9   9 324.873 79.0498   4
  -2   9   8 938.911 130.490   4
  -2   9   7 869.567 116.025   4
  -2   9   6 933.247 116.249   4
  -2   9   5 965.881 112.147   4
  -2   9   4 805.183 93.0937   3
  -2   9   4 730.502 92.6184   4
  -2   9   3 2540.68 168.759   3
  -2   9   3 2579.55 167.831   4
  -2   9   2-29.1558 28.7792   4
  -2   9   2 20.6453 26.8921   3
  -2   9   1 975.998 103.744   3
  -2   9   1 913.511 88.6268   4
  -2   9   0 39.2852 42.2281   3
  -2   9  -1 271.198 58.0996   3
  -2   9  -2 93.7803 43.6068   3
  -2   9  -3 211.053 53.3870   3
  -2   9  -4 79.5779 37.5550   3
  -2   9  -5-55.2137 38.3515   3
  -2   9  -6 1.14422 30.2066   3
  -2   9  -7 1903.85 175.527   3
  -2   9  -8 88.7075 39.0411   3
  -2   9  -9 100.246 44.6791   3
  -2   9 -10 1515.63 172.339   3
  -2   8  10 40.1204 62.2196   4
  -2   8   9 125.301 55.5491   4
  -2   8   8 88.6499 54.0533   4
  -2   8   7 669.128 98.0158   4
  -2   8   6-29.6848 37.5756   4
  -2   8   5 63.4494 34.0802   4
  -2   8   4 445.947 68.5374   4
  -2   8   4 421.010 64.4411   3
  -2   8   3 131.549 38.7340   3
  -2   8   3 193.621 47.8907   4
  -2   8   2 1212.68 106.548   3
  -2   8   2 1256.32 107.444   4
  -2   8   1-13.8497 23.7675   3
  -2   8   1 48.6319 27.0774   4
  -2   8   0 9.14978 16.8030   4
  -2   8   0 38.8299 32.9436   3
  -2   8  -1 2221.84 129.833   4
  -2   8  -1 2252.86 154.494   3
  -2   8  -2 2992.80 181.013   3
  -2   8  -2 3058.73 150.950   4
  -2   8  -3 148.884 29.9724   4
  -2   8  -3 123.154 43.8367   3
  -2   8  -4 1865.88 151.815   3
  -2   8  -5 35.3885 35.2401   3
  -2   8  -6 38.5550 36.5695   3
  -2   8  -7-3.34096 43.1087   3
  -2   8  -8 102.850 53.3239   3
  -2   8  -9 1378.35 153.319   3
  -2   8 -10 359.904 82.2466   3
  -2   8 -11 1316.64 160.919   3
  -2   7  11 634.488 114.116   4
  -2   7  10 86.8425 55.9627   4
  -2   7   9 964.732 128.636   4
  -2   7   8 472.981 88.4542   4
  -2   7   7 3383.62 222.249   4
  -2   7   6 1280.08 125.027   4
  -2   7   5 1033.11 108.116   4
  -2   7   4 1359.20 119.774   4
  -2   7   3 1249.13 103.854   3
  -2   7   3 1383.13 113.762   4
  -2   7   2 1502.36 112.748   3
  -2   7   2 1568.64 114.960   4
  -2   7   1 3632.88 184.605   3
  -2   7   1 3538.18 173.266   4
  -2   7   0 11978.8 369.444   4
  -2   7   0 11846.3 392.707   3
  -2   7  -1 5833.44 252.208   3
  -2   7  -1 6249.45 228.302   4
  -2   7  -2 1736.00 105.490   4
  -2   7  -2 1745.13 127.709   3
  -2   7  -3 1974.33 141.150   3
  -2   7  -3 1823.26 108.867   4
   2  -7   4 1355.17 78.2727   1
  -2   7  -4 1380.21 93.9800   4
  -2   7  -4 1230.78 115.144   3
  -2   7  -5 1735.32 140.886   3
   2  -7   5 1736.06 103.661   1
  -2   7  -5 1820.94 109.712   4
   2  -7   6 55.8559 20.2229   1
  -2   7  -6-14.8325 37.6498   3
  -2   7  -7 2213.99 172.918   3
   2  -7   7 2181.40 139.519   1
   2  -7   8 860.320 91.9131   1
  -2   7  -8 946.965 118.461   3
  -2   7  -9 1799.94 168.100   3
   2  -7   9 1616.09 144.793   1
  -2   7 -10 53.1988 41.5997   3
   2  -7  10-32.7834 34.9235   1
   2  -7  11 93.4149 45.3706   1
  -2   7 -11 299.363 74.4250   3
  -2   7 -12 1540.81 172.660   3
  -2   6  11 67.7576 54.4033   4
  -2   6  10-38.9066 46.0587   4
  -2   6   9 325.584 76.5139   4
  -2   6   9 243.666 47.3724   1
  -2   6   8 2218.87 139.831   1
  -2   6   8 2198.36 181.196   4
  -2   6   7 181.152 37.4917   1
  -2   6   7 277.140 61.5792   4
  -2   6   6 11.9441 33.3018   4
  -2   6   6 30.8421 19.0813   1
  -2   6   5 161.842 28.0487   1
  -2   6   5 188.245 49.7674   4
  -2   6   4 184.717 24.5102   1
  -2   6   4 97.8636 38.3057   4
  -2   6   3 3075.83 166.873   4
  -2   6   3 2974.01 154.212   3
  -2   6   3 2896.05 89.4243   1
  -2   6   2 138.646 39.2194   4
  -2   6   2 123.079 32.1771   3
  -2   6   1 3099.85 154.222   4
  -2   6   1 2818.50 153.573   3
  -2   6   0 1505.18 108.951   3
  -2   6   0 1425.32 95.6780   4
  -2   6  -1-10.5354 24.7845   3
  -2   6  -1 1.27710 15.5945   4
   2  -6   2 935.039 44.3238   1
  -2   6  -2 1447.48 88.9770   4
  -2   6  -2 1537.74 113.633   3
  -2   6  -3 3196.70 171.871   3
   2  -6   3 2906.87 111.063   1
  -2   6  -3 3041.08 139.075   4
  -2   6  -4 13.4020 25.5668   3
  -2   6  -4-6.05706 14.2228   4
   2  -6   4 31.3718 17.2212   1
   2  -6   5 2801.10 135.717   1
  -2   6  -5 2725.48 171.907   3
  -2   6  -6 244.120 54.2318   3
   2  -6   6 269.542 45.3839   1
  -2   6  -7 10381.3 403.185   3
   2  -6   7 11281.1 369.184   1
   2  -6   8 11544.9 400.948   1
  -2   6  -8 10889.5 424.865   3
   2  -6   9 1802.43 146.072   1
  -2   6  -9 1552.09 147.941   3
   2  -6  10-45.5160 38.8871   1
  -2   6 -10-7.84830 38.2111   3
  -2   6 -11 728.842 110.298   3
   2  -6  11 863.971 113.027   1
  -2   6 -12 46.3938 35.9215   3
   2  -6  12 0.98939 29.1550   1
   2  -6  13 217.359 64.6036   1
  -2   5  12 4471.13 259.408   1
  -2   5  12 5002.58 322.028   4
  -2   5  11 76.3080 39.5348   1
  -2   5  11 184.714 67.4839   4
  -2   5  10 1343.02 154.511   4
  -2   5  10 990.751 106.271   1
  -2   5   9 391.393 82.4352   4
  -2   5   9 444.525 67.7319   1
  -2   5   8 42.5801 45.2358   4
  -2   5   8 83.3106 32.2357   1
  -2   5   7 841.684 102.242   4
  -2   5   7 1015.55 86.5809   1
  -2   5   6 723.003 89.1047   4
  -2   5   6 694.117 65.0574   1
  -2   5   5 335.065 60.6669   4
  -2   5   5 305.528 37.9649   1
  -2   5   4 36700.9 811.911   1
  -2   5   4 37545.1 923.048   4
  -2   5   3 9335.19 298.071   3
  -2   5   3 9147.24 230.232   1
  -2   5   3 9263.01 317.634   4
  -2   5   2 22945.1 572.639   4
  -2   5   2 22420.1 558.654   3
  -2   5   2 20947.0 445.368   1
  -2   5   1 667.442 65.5789   3
  -2   5   1 750.475 68.6813   4
  -2   5   0 6036.93 210.787   4
  -2   5   0 5880.38 223.315   3
  -2   5  -1 222.248 42.1285   3
  -2   5  -1 268.513 38.5051   4
  -2   5  -2 95.8267 34.0380   3
  -2   5  -2 45.2098 19.2143   4
   2  -5   2 38.8545 9.18931   1
  -2   5  -3 871.318 81.9597   3
   2  -5   3 962.060 57.8518   1
  -2   5  -3 957.218 69.8823   4
  -2   5  -4 20.8523 26.7405   3
   2  -5   4 70.6366 22.6852   1
  -2   5  -5 197.016 42.7124   3
   2  -5   5 235.777 39.1683   1
  -2   5  -6-6.76399 35.3973   3
   2  -5   6 11.9047 20.4284   1
  -2   5  -7 2550.66 167.463   3
   2  -5   7 2494.24 153.860   1
   2  -5   8-16.7345 28.2733   1
  -2   5  -8-4.14602 25.0511   3
   2  -5   9 2448.40 175.193   1
  -2   5  -9 2545.42 180.308   3
   2  -5  10 1279.64 135.283   1
  -2   5 -10 1422.43 140.360   3
  -2   5 -11 2781.28 207.511   3
   2  -5  11 2711.34 206.307   1
   2  -5  12 1015.87 131.309   1
  -2   5 -12 923.655 125.052   3
  -2   5 -13 728.674 114.541   3
   2  -5  13 921.108 124.589   1
  -2   4  13 7504.57 367.238   1
  -2   4  12 2398.71 189.850   1
  -2   4  12 2748.70 233.659   4
  -2   4  11 143.142 50.5999   1
  -2   4  11 202.098 72.4084   4
  -2   4  10 1718.39 171.613   4
  -2   4  10 1675.20 145.757   1
  -2   4   9 72.2195 33.6818   1
  -2   4   9 53.7412 41.6308   4
  -2   4   8 66.7093 38.0592   4
  -2   4   8 111.030 34.4153   1
  -2   4   7 1172.17 96.3983   1
  -2   4   7 1140.99 115.333   4
  -2   4   6 196.465 49.6156   4
  -2   4   6 149.668 33.6189   1
  -2   4   5 234.803 38.9117   1
  -2   4   5 297.110 60.4383   4
  -2   4   4 718.780 77.0971   4
   2  -4  -4 715.764 37.5384   2
  -2   4   4 659.270 54.0502   1
  -2   4   3 586.148 66.0613   4
  -2   4   3 556.864 55.8059   3
  -2   4   3 537.023 38.6097   1
  -2   4   2 64.9901 26.5626   4
  -2   4   2 50.3611 9.14334   1
  -2   4   2 64.4854 22.9522   3
  -2   4   1 321.599 44.8075   4
  -2   4   1 385.727 46.6291   3
  -2   4   0-21.1322 19.5712   3
  -2   4   0-7.54409 15.6179   4
  -2   4  -1 2559.58 113.672   4
  -2   4  -1 2416.29 121.215   3
   2  -4   2 5528.53 150.578   1
  -2   4  -2 6137.80 215.175   3
  -2   4  -2 5672.90 187.282   4
   2  -4   3 18394.3 438.692   1
  -2   4  -3 19281.1 505.809   3
   2  -4   4 1206.92 74.2589   1
  -2   4  -4 1210.31 95.0470   3
   2  -4   5 5987.57 213.974   1
  -2   4  -5 6022.42 240.944   3
  -2   4  -6 8639.58 316.270   3
   2  -4   6 9022.30 302.965   1
  -2   4  -7-3.32330 26.0664   3
   2  -4   7 5.51173 27.1276   1
   2  -4   8 55.5943 32.2589   1
  -2   4  -8 65.6391 35.7559   3
  -2   4  -9 922.258 102.667   3
   2  -4   9 948.100 103.356   1
  -2   4 -10 2826.82 192.565   3
   2  -4  10 3048.78 200.984   1
  -2   4 -11 450.263 81.6891   3
   2  -4  11 503.512 85.1509   1
   2  -4  12-63.3482 51.0957   1
  -2   4 -12-17.8084 32.3806   3
   2  -4  13 3085.32 235.507   1
  -2   4 -13 2653.08 212.749   3
  -2   4 -14 515.209 94.3634   3
  -2   3  13 1156.66 142.198   1
  -2   3  12 37.5445 50.0659   4
  -2   3  12 15.8498 36.0619   1
  -2   3  11 333.205 71.2879   1
  -2   3  11 496.779 99.9886   4
  -2   3  10-4.24048 30.9584   1
  -2   3  10-30.2976 40.8530   4
  -2   3   9 456.813 83.8763   4
  -2   3   9 423.892 71.6223   1
  -2   3   8 91.0915 42.0888   4
  -2   3   8 117.605 44.4509   1
  -2   3   7 2018.41 149.659   4
  -2   3   7 1870.15 126.053   1
  -2   3   6 194.545 44.3407   1
  -2   3   6 244.412 51.7403   4
  -2   3   5 905.666 90.1502   4
  -2   3   5 761.623 70.0351   1
   2  -3  -4 841.342 32.8776   2
   2  -3  -4 854.731 33.2591   2
  -2   3   4 1022.25 87.4883   4
  -2   3   4 910.459 65.9386   1
  -2   3   3 1777.74 108.437   4
   2  -3  -3 1657.61 63.6214   2
  -2   3   3 1663.28 77.3423   1
  -2   3   2 999.776 69.8573   3
  -2   3   2 916.839 44.1637   1
  -2   3   2 1003.21 77.7442   4
  -2   3   1 2219.92 108.860   4
  -2   3   1 2166.21 104.621   3
  -2   3   0 10069.8 282.875   3
  -2   3   0 9431.27 271.463   4
  -2   3  -1 6455.88 196.999   4
  -2   3  -1 6282.90 205.962   3
   2  -3   2 35893.0 773.992   1
  -2   3  -2 38682.2 840.596   3
  -2   3  -3 288.011 39.9842   3
   2  -3   3 328.600 33.0004   1
  -2   3  -4 2770.25 134.839   3
   2  -3   4 2617.76 114.832   1
  -2   3  -5 20538.0 535.703   3
   2  -3   5 19976.7 516.180   1
  -2   3  -6 14437.0 427.433   3
   2  -3   6 14719.2 423.934   1
   2  -3   7 1212.77 99.9186   1
  -2   3  -7 1120.08 98.3620   3
  -2   3  -8 833.105 88.3061   3
   2  -3   8 932.343 99.1852   1
   2  -3   9 382.210 66.3213   1
  -2   3  -9 407.639 68.3565   3
  -2   3 -10 1470.52 130.898   3
   2  -3  10 1360.73 130.531   1
  -2   3 -11 282.346 64.9091   3
   2  -3  11 357.049 74.1328   1
  -2   3 -12 1395.97 140.546   3
   2  -3  12 1253.80 141.942   1
   2  -3  13 62.7734 43.6265   1
  -2   3 -13 53.9127 26.3880   3
   2  -3  14-0.58120 42.9609   1
  -2   3 -14 63.8570 38.5624   3
  -2   2  13 190.180 66.8232   1
  -2   2  12 1349.72 147.311   1
  -2   2  12 1078.09 141.484   4
  -2   2  11 42.6793 36.7707   4
  -2   2  11 71.4853 35.4126   1
  -2   2  10-20.9197 46.2028   4
  -2   2  10 13.5176 31.8734   1
  -2   2   9 575.972 78.9436   1
  -2   2   9 585.628 96.1665   4
  -2   2   8 380.828 65.5804   1
  -2   2   8 520.302 83.6034   4
  -2   2   7 3537.93 196.786   4
  -2   2   7 3429.32 180.515   1
  -2   2   6 87.9431 29.4548   1
  -2   2   6 59.0237 32.8889   4
  -2   2   5 3034.98 168.497   4
  -2   2   5 3046.37 140.529   1
  -2   2   4 9826.54 292.471   1
  -2   2   4 10366.8 329.925   4
  -2   2   3 1407.41 71.4654   1
  -2   2   3 1215.30 88.0637   4
  -2   2   2 3428.60 109.796   1
  -2   2   2 3487.54 145.863   4
  -2   2   2 3414.09 130.409   3
  -2   2   1 7901.17 218.847   4
  -2   2   1 7421.07 207.549   3
  -2   2   1 6244.70 161.203   1
  -2   2   0 570.161 46.3994   4
  -2   2   0 625.412 49.6735   3
  -2   2  -1 46275.8 970.673   3
   2  -2   1 45014.3 911.753   1
  -2   2  -1 43875.1 918.909   1
  -2   2  -2 817.085 57.3797   3
   2  -2   2 811.442 43.9590   1
  -2   2  -2 809.155 43.9027   1
  -2   2  -3 7913.73 232.567   3
   2  -2   3 7300.33 210.632   1
   2  -2   4 7170.27 221.772   1
  -2   2  -4 7328.91 231.167   3
   2  -2   5 1557.60 96.8307   1
  -2   2  -5 1810.59 103.260   3
  -2   2  -6 445.522 55.2364   3
   2  -2   6 309.405 47.5866   1
   2  -2   7 21367.5 579.104   1
  -2   2  -7 20939.6 565.159   3
   2  -2   8 203.628 49.6352   1
  -2   2  -8 156.787 42.4361   3
   2  -2   9 1235.52 117.236   1
  -2   2  -9 1236.07 109.126   3
   2  -2  10 642.528 90.4175   1
  -2   2 -10 765.592 90.4390   3
  -2   2 -11 659.096 92.3974   3
   2  -2  11 620.347 95.0403   1
   2  -2  12 8.42343 40.9568   1
  -2   2 -12 48.0522 39.8067   3
   2  -2  13 2062.98 190.877   1
  -2   2 -13 1815.01 160.192   3
   2  -2  14-33.7305 47.1686   1
  -2   1  14-34.1812 45.9750   1
   2  -1 -14 73.4370 37.2469   3
  -2   1  13 1195.77 151.174   1
  -2   1  12 1929.23 187.323   4
  -2   1  12 1775.68 174.678   1
  -2   1  11 238.599 72.9847   4
  -2   1  11 137.704 53.2525   1
  -2   1  10 367.002 71.6692   1
  -2   1  10 419.877 81.7594   4
  -2   1   9 96.4371 39.7134   1
  -2   1   9 113.873 47.8252   4
  -2   1   8 1036.42 110.893   4
  -2   1   8 953.629 97.6333   1
  -2   1   7 9978.63 339.201   1
  -2   1   7 9666.34 355.236   4
  -2   1   6 11453.3 379.182   4
  -2   1   6 11841.1 362.744   1
  -2   1   5 140.718 41.5125   4
  -2   1   5 107.961 31.6509   1
   2  -1  -4 20543.8 441.407   2
  -2   1   4 23053.9 556.590   4
  -2   1   4 23128.0 523.656   1
  -2   1   3 3392.01 146.470   4
   2  -1  -3 3548.84 94.9384   2
  -2   1   2 78333.9 1661.62   4
  -2   1   1 127.955 23.7957   4
  -2   1   1 113.433 20.6797   3
  -2   1   0 9332.76 239.184   4
  -2   1   0 9046.03 234.630   3
  -2   1   0 8709.30 198.967   1
  -2   1  -1 775.684 37.2822   1
  -2   1  -1 814.349 47.9768   3
   2  -1   1 890.805 36.1510   1
   2  -1   2 9.50622 10.2451   1
  -2   1  -2-10.6018 12.8496   3
  -2   1  -2 2.87992 7.78693   1
   2  -1   3 1635.59 82.0408   1
  -2   1  -3 1832.64 82.9741   3
   2  -1   4 4174.02 152.063   1
  -2   1  -4 3805.62 142.180   3
   2  -1   5 4547.63 175.018   1
  -2   1  -5 4184.26 160.309   3
  -2   1  -6 28.9602 20.5314   3
   2  -1   6 23.3712 25.0557   1
   2  -1   7 163.283 39.7674   1
  -2   1  -7 77.4525 29.6638   3
   2  -1   8 361.335 63.0094   1
  -2   1  -8 284.509 46.0212   3
   2  -1   9 17.1712 34.5400   1
  -2   1  -9-14.5023 27.4514   3
   2  -1  10 6104.43 291.263   1
  -2   1 -10 6476.67 272.526   3
   2  -1  11 3862.02 235.571   1
  -2   1 -11 3667.67 207.018   3
  -2   1 -12 1178.21 118.282   3
   2  -1  12 1083.33 135.751   1
   2  -1  13-19.5072 43.9631   1
  -2   1 -13 132.707 45.9860   3
   2  -1  14 4951.05 309.104   1
  -2   0  14 2059.31 208.224   1
   2   0 -14 1954.39 183.543   3
  -2   0  13 2269.17 205.742   1
  -2   0  12 492.497 87.8543   1
  -2   0  11 212.836 63.8102   4
  -2   0  11 370.871 79.6081   1
  -2   0  10 260.453 66.0910   4
  -2   0  10 216.738 61.1838   1
  -2   0   9 353.670 69.5297   4
  -2   0   9 325.238 65.6385   1
  -2   0   8 1495.34 130.358   4
  -2   0   8 1417.69 123.611   1
  -2   0   7 3299.46 185.849   4
  -2   0   7 3515.84 185.908   1
  -2   0   6 10867.9 342.587   4
  -2   0   6 11664.0 350.800   1
  -2   0   5 4327.76 123.565   2
   2   0  -5 4498.14 124.671   2
  -2   0   5 4690.73 182.808   1
  -2   0   5 4982.01 197.974   4
   2   0  -4 1656.22 60.8538   2
  -2   0   4 1727.06 103.249   4
  -2   0   4 1589.92 61.0795   2
  -2   0   3 8.59518 20.9573   4
   2   0  -3 22.4847 8.42096   2
  -2   0   3 15.0896 10.8340   2
  -2   0   2 231.165 31.3840   4
   2   0  -2 245.705 21.8752   2
  -2   0   1 36996.8 830.813   4
   2   0  -1 39663.0 810.816   2
  -2   0   0 613.717 36.8774   3
  -2   0   0 630.057 31.7376   1
  -2   0   0 695.613 41.9836   4
  -2   0  -1 120656. 2473.39   3
  -2   0  -1 121292. 2467.65   1
   2   0   1 123020. 2464.18   1
   2   0   1 120298. 2470.55   3
   2   0   2 342922. 6750.63   1
  -2   0  -2 328711. 6739.99   3
   2   0   2 337971. 6741.62   3
   2   0   3 11829.8 299.887   1
  -2   0  -3 11533.9 281.879   3
   2   0   4 1359.65 81.2826   1
  -2   0  -4 1217.46 66.1471   3
   2   0   5 4417.98 175.193   1
  -2   0  -5 4562.61 155.246   3
   2   0   6 2964.75 149.470   1
  -2   0  -6 3149.40 131.604   3
   2   0   7 700.265 78.2710   1
  -2   0  -7 737.080 64.2896   3
   2   0   8 124.694 44.0774   1
  -2   0  -8 107.341 30.0168   3
  -2   0  -9 664.930 71.4636   3
   2   0   9 748.992 90.4398   1
   2   0  10 2535.37 178.925   1
  -2   0 -10 2782.43 160.585   3
   2   0  11 2411.03 184.649   1
  -2   0 -11 2391.79 157.719   3
   2   0  12-68.7244 52.0077   1
  -2   0 -12-16.9995 27.7208   3
   2   0  13 6142.99 334.788   1
   2   0  14 363.063 88.7639   1
  -2  -1  14 42.3679 43.4096   1
   2   1 -14-28.1052 34.2692   3
  -2  -1  13-1.10673 42.3755   1
   2   1 -13 188.680 62.2306   3
  -2  -1  12 400.455 84.5774   1
  -2  -1  11 265.971 71.4490   1
  -2  -1  10 1335.17 133.797   1
  -2  -1  10 1120.37 123.079   4
  -2  -1   9 1212.07 121.710   4
  -2  -1   9 1224.29 120.168   1
  -2  -1   8 4354.00 227.128   1
  -2  -1   8 4201.94 219.334   4
  -2  -1   7 62608.4 1401.23   1
  -2  -1   7 58108.1 1386.34   4
   2   1  -6 4014.78 136.066   2
  -2  -1   6 4319.72 196.546   1
  -2  -1   6 4120.46 187.183   4
   2   1  -5 109.509 19.3683   2
  -2  -1   5 132.784 31.1723   4
  -2  -1   4 20804.0 526.397   4
   2   1  -4 21280.8 476.355   2
   2   1  -3 35.7687 12.8413   2
  -2  -1   3 42.4846 19.3596   4
  -2  -1   2 24662.6 563.492   4
   2   1  -2 24697.1 541.907   2
  -2  -1   2 25035.4 544.396   2
   2   1  -1 47515.2 968.258   2
   2   1  -1 45281.5 968.559   4
  -2  -1   1 47423.0 973.265   4
  -2  -1   1 44528.1 965.895   2
   2   1   0 86720.5 1778.26   2
   2   1   1 313785. 6345.02   3
   2   1   1 304528. 6370.23   2
   2   1   2 53593.5 1118.25   1
   2   1   2 52792.5 1083.48   3
  -2  -1  -2 53528.4 1082.17   3
   2   1   3 1734.71 81.7911   1
  -2  -1  -3 1650.97 58.7836   3
  -2  -1  -4 659.427 39.3471   3
   2   1   4 689.690 58.7125   1
   2   1   5 1444.97 93.0482   1
  -2  -1  -5 1331.61 66.4117   3
   2   1   6 1507.05 102.519   1
  -2  -1  -6 1269.25 73.6178   3
   2   1   7 588.317 73.9876   1
  -2  -1  -7 553.156 51.3721   3
   2   1   8 881.768 93.7545   1
  -2  -1  -8 786.003 69.6085   3
   2   1   9 3886.41 215.098   1
  -2  -1  -9 3942.38 175.776   3
  -2  -1 -10 4239.95 194.564   3
   2   1  10 4198.65 235.393   1
  -2  -1 -11 39.9957 22.8594   3
   2   1  11 76.8708 48.5162   1
   2   1  12 614.554 99.0958   1
   2   1  13 150.504 64.4692   1
   2   1  14 866.693 128.370   1
   2   2 -14 230.878 63.8675   3
  -2  -2  13 19.2554 49.0141   1
   2   2 -13 20.2049 31.8697   3
  -2  -2  12 88.0755 46.6831   1
   2   2 -12 165.498 59.2323   3
  -2  -2  11 32.8306 39.2199   1
   2   2 -11 138.513 56.2348   3
  -2  -2  10 621.180 94.2193   1
  -2  -2   9 1861.20 155.839   1
  -2  -2   9 1949.10 146.795   4
  -2  -2   8 9934.73 367.374   1
  -2  -2   8 8920.93 337.071   4
  -2  -2   7 9998.92 345.338   1
  -2  -2   7 9473.12 332.574   4
   2   2  -6 635.774 53.2045   2
  -2  -2   6 621.883 67.7694   4
  -2  -2   5 42.3007 21.2016   4
   2   2  -5 89.3653 21.3033   2
  -2  -2   4 2303.19 110.343   4
   2   2  -4 2570.93 103.054   2
  -2  -2   3 13875.8 359.571   4
   2   2  -3 14798.0 354.707   2
   2   2  -2 10896.9 269.086   4
   2   2  -2 11054.3 279.135   2
  -2  -2   2 11216.0 274.168   4
   2   2  -1 44.2814 9.97320   4
   2   2  -1 35.5117 15.4837   2
  -2  -2   1 44.5990 10.5407   4
   2   2   0 56375.7 1181.80   2
   2   2   1 191897. 3714.11   1
   2   2   1 175344. 3714.72   2
   2   2   2 371.603 35.0580   1
   2   2   2 317.343 32.4304   2
   2   2   3 1289.38 65.3044   2
   2   2   3 1358.22 74.2445   1
   2   2   4 9252.58 243.801   2
   2   2   4 9857.75 273.682   1
  -2  -2  -4 9058.63 214.109   3
   2   2   5 1473.06 95.2170   1
  -2  -2  -5 1559.49 66.6074   3
   2   2   5 1555.08 75.7178   2
  -2  -2  -6 329.144 35.5379   3
   2   2   6 321.035 52.1322   1
   2   2   6 304.653 34.7760   2
   2   2   7 9974.84 327.809   1
   2   2   7 8852.25 255.054   2
  -2  -2  -7 9413.36 267.018   3
   2   2   8 13523.7 359.162   2
   2   2   8 14493.5 446.678   1
  -2  -2  -8 14637.0 384.012   3
   2   2   9 523.799 49.5218   2
  -2  -2  -9 600.667 62.4234   3
   2   2   9 708.298 91.6696   1
   2   2  10 60.2265 46.0107   1
  -2  -2 -10 14.0932 15.2662   3
   2   2  11 2509.63 185.012   1
   2   2  12 479.236 87.7947   1
   2   2  13 54.5637 41.6735   1
   2   2  14 25.9630 38.5007   1
   2   3 -14 351.538 82.4485   3
   2   3 -13 353.600 85.1112   3
  -2  -3  13 459.822 97.7291   1
  -2  -3  12 2522.02 209.684   1
   2   3 -12 2270.72 191.117   3
   2   3 -11 1356.29 140.676   3
  -2  -3  11 1157.34 137.471   1
   2   3 -10 1287.78 131.463   3
  -2  -3  10 1240.28 134.925   1
   2   3  -9 1745.66 144.906   3
  -2  -3   9 1725.46 153.949   1
  -2  -3   8 2492.66 170.909   1
  -2  -3   8 2281.12 148.528   4
  -2  -3   7 158.937 39.9631   4
   2   3  -7 150.437 32.2683   2
   2   3  -6 13958.7 379.707   2
  -2  -3   6 13722.0 398.087   4
   2   3  -5 1107.20 72.9045   2
  -2  -3   5 969.310 74.5441   4
  -2  -3   4 54657.3 1214.18   4
   2   3  -4 58098.1 1220.33   2
   2   3  -3 911.774 62.4533   2
  -2  -3   3 874.471 52.6392   4
  -2  -3   2 8609.25 208.937   4
   2   3  -2 8215.93 202.371   4
   2   3  -2 8407.66 239.585   2
   2   3  -1 111.193 24.1370   2
  -2  -3   1 131.116 12.6788   4
   2   3   0 681.838 47.0771   2
   2   3   0 701.931 40.5232   3
   2   3   1 5361.77 163.065   2
   2   3   1 5254.39 133.467   3
   2   3   1 5545.65 157.497   1
   2   3   2 15036.6 363.412   1
   2   3   2 14957.0 362.371   2
   2   3   3 1380.78 76.3334   1
   2   3   3 1225.11 65.0014   2
   2   3   4 199.419 34.2693   1
   2   3   4 219.041 28.0784   2
  -2  -3  -4 199.176 15.7966   3
  -2  -3  -5 2274.03 78.3656   3
   2   3   5 2474.43 124.357   1
   2   3   5 2261.43 94.1861   2
   2   3   6 47.4430 13.6701   2
   2   3   6 69.8891 27.4690   1
   2   3   7 1284.57 68.4849   2
   2   3   7 1206.91 99.6808   1
   2   3   8 321.323 35.7611   2
  -2  -3  -8 407.246 46.1657   3
   2   3   8 427.032 66.1634   1
   2   3   9 195.172 49.8947   1
  -2  -3  -9 226.161 37.4672   3
   2   3  10 3447.40 207.692   1
   2   3  11 32.4997 35.9641   1
   2   3  12 1598.19 153.966   1
   2   3  13 56.9342 35.2798   1
   2   3  14 38.2059 38.5023   1
  -2  -4  13 3645.34 269.293   1
   2   4 -13 3592.98 255.467   3
  -2  -4  12-29.6244 51.0717   1
   2   4 -12 12.3185 31.4095   3
  -2  -4  11 635.354 107.352   1
   2   4 -11 464.235 88.5322   3
   2   4 -10 97.2729 38.1969   3
  -2  -4  10 220.701 58.7061   1
  -2  -4   9 126.361 52.9044   1
   2   4  -9 244.199 64.7595   3
   2   4  -8 234.151 59.5040   3
  -2  -4   8 130.087 50.0632   1
   2   4  -7 50.0449 27.7617   2
   2   4  -7 154.697 56.9671   3
   2   4  -6 45.0830 26.4299   2
   2   4  -6 132.767 51.8712   3
   2   4  -5 504.307 69.0847   3
   2   4  -5 549.143 57.4962   2
  -2  -4   4 1453.06 73.8022   4
   2   4  -4 1615.90 95.6404   2
   2   4  -4 1706.28 107.419   3
   2   4  -3 1997.13 105.793   3
   2   4  -3 1675.82 67.3818   4
  -2  -4   3 1773.02 69.4832   4
   2   4  -3 1968.86 101.946   2
   2   4  -2 2984.52 79.1167   4
   2   4  -2 3796.30 138.575   3
   2   4  -2 3911.83 144.024   2
   2   4  -1 5535.22 185.954   2
   2   4  -1 4929.26 164.125   3
   2   4   0 2156.55 86.4451   3
  -2  -4   0 2056.46 61.4321   4
   2   4   0 2285.00 101.272   2
   2   4   1 39062.1 831.093   1
   2   4   1 37776.4 808.922   3
  -2  -4  -1 38514.3 813.060   4
   2   4   1 37826.7 841.944   2
   2   4   2 34599.2 743.609   1
   2   4   2 33600.5 743.746   2
  -2  -4  -2 33642.7 702.318   3
   2   4   2 32504.6 697.963   3
   2   4   3 2109.43 93.4471   2
   2   4   3 2390.10 104.791   1
  -2  -4  -3 2287.39 69.9716   3
   2   4   4 548.749 54.3144   1
  -2  -4  -4 559.809 29.6519   3
   2   4   4 528.553 43.7055   2
   2   4   5 267.255 41.5115   1
   2   4   5 251.762 29.9736   2
  -2  -4  -5 232.137 20.6752   3
   2   4   6 2558.80 137.171   1
   2   4   6 2421.79 98.7083   2
   2   4   7 1564.03 74.9449   2
   2   4   7 1476.39 110.796   1
   2   4   8 2372.80 151.400   1
   2   4   8 2263.87 90.7371   2
   2   4   9 3578.53 200.400   1
   2   4  10-25.5054 37.1818   1
   2   4  11 1504.25 142.082   1
   2   4  12 336.555 75.5849   1
   2   4  13 81.3660 42.3850   1
  -2  -5  13 6.34597 53.1387   1
   2   5 -13 157.835 62.7408   3
   2   5 -12 2155.89 194.851   3
  -2  -5  12 1974.91 192.054   1
   2   5 -11 2670.85 205.937   3
  -2  -5  11 3225.22 236.874   1
  -2  -5  10 497.808 93.2743   1
   2   5 -10 506.370 90.7256   3
   2   5  -9 1052.12 116.915   3
  -2  -5   9 980.867 122.077   1
   2   5  -8 8667.87 349.924   3
  -2  -5   8 8612.91 349.727   1
   2   5  -7 7272.99 267.506   2
   2   5  -7 6516.55 288.994   3
   2   5  -6 1973.40 123.678   2
   2   5  -6 1577.16 125.186   3
   2   5  -5 1204.85 100.151   3
   2   5  -5 1139.33 91.2215   2
   2   5  -4 384.177 31.6571   4
   2   5  -4 483.569 58.0818   2
   2   5  -4 444.054 61.9961   3
   2   5  -3 144.262 34.1183   3
   2   5  -3 155.535 13.0837   4
   2   5  -3 182.442 37.6853   2
   2   5  -2 131.408 30.7435   2
   2   5  -2 142.347 30.5276   3
   2   5  -1 1381.59 78.8359   3
   2   5  -1 1161.71 81.5731   2
   2   5   0 8354.61 239.318   3
   2   5   0 8683.31 261.813   2
   2   5   1 11246.9 292.274   3
   2   5   1 11721.9 323.067   2
  -2  -5  -1 11727.8 281.984   4
   2   5   1 11749.7 299.504   1
   2   5   2 362.357 41.6909   2
   2   5   2 340.397 28.7570   3
   2   5   2 378.394 38.0734   1
   2   5   3 8.99942 14.0801   2
   2   5   3 8.38851 18.7326   1
  -2  -5  -3 3.90619 6.37957   3
   2   5   3 19.4482 8.70920   3
   2   5   4 1468.17 78.4626   2
  -2  -5  -4 1399.03 60.2988   3
   2   5   4 1544.32 90.2500   1
   2   5   5 1053.01 79.8180   1
   2   5   5 987.949 62.8933   2
   2   5   6 3003.00 152.663   1
   2   5   6 3120.22 118.121   2
   2   5   7 7571.42 284.454   1
   2   5   7 8208.29 222.405   2
   2   5   8 4227.84 206.909   1
   2   5   9 206.755 51.0667   1
   2   5  10 561.827 83.7394   1
   2   5  11 80.0748 40.7262   1
   2   5  12 1325.02 138.870   1
   2   5  13 161.728 56.1633   1
  -2  -6  12 554.851 108.913   1
   2   6 -12 467.036 94.2414   3
  -2  -6  11 70.0416 53.2249   1
   2   6 -11-14.0496 45.9178   3
   2   6 -10 427.303 83.2239   3
  -2  -6  10 499.582 94.5235   1
  -2  -6   9 356.483 71.7279   1
   2   6  -9 493.735 85.0598   3
  -2  -6   8 860.896 105.446   1
   2   6  -8 887.028 104.566   3
   2   6  -7 86.7363 33.3598   2
   2   6  -7 53.7808 34.2773   3
   2   6  -6 27.5248 26.0527   2
   2   6  -6-10.2710 35.3874   3
   2   6  -5 10694.1 373.710   3
   2   6  -5 11689.8 371.920   2
   2   6  -4 16.3209 5.34503   4
   2   6  -4 17.1434 26.5461   2
   2   6  -4 10.2664 27.1379   3
   2   6  -3 3359.55 166.788   3
   2   6  -3 3194.03 162.651   2
   2   6  -2 2302.03 126.009   3
   2   6  -2 2305.43 131.016   2
   2   6  -1 18324.5 471.453   3
   2   6  -1 17836.5 480.479   2
   2   6   0 1563.85 97.0855   2
   2   6   0 1455.36 84.3636   3
   2   6   1 563.113 55.3019   2
  -2  -6  -1 584.716 38.3522   4
   2   6   1 667.725 50.8019   3
   2   6   2 64.4650 23.3575   1
   2   6   2 22.8193 11.4664   3
   2   6   2 40.9004 20.6765   2
   2   6   3 345.792 42.9987   2
   2   6   3 323.286 31.7111   3
   2   6   3 322.794 39.5483   1
   2   6   4 7843.15 241.563   2
   2   6   4 7553.02 249.078   1
   2   6   5 950.362 66.1574   2
   2   6   5 862.846 73.1552   1
   2   6   6 27.2684 24.2886   1
   2   6   6 15.5126 12.9613   2
   2   6   7 38972.2 945.843   1
   2   6   8 794.989 86.0968   1
   2   6   9 754.162 89.9191   1
   2   6  10 21.2997 26.8784   1
   2   6  11 62.6833 37.1723   1
   2   6  12 92.3608 43.3731   1
   2   6  13 79.9712 42.1351   1
  -2  -7  12 1548.61 176.104   1
   2   7 -12 1714.58 182.814   3
  -2  -7  11 44.4575 44.7630   1
   2   7 -11 17.8010 42.3385   3
   2   7 -10 278.908 66.8766   3
  -2  -7  10 299.336 81.0236   1
   2   7  -9-17.7907 43.5045   3
  -2  -7   9 72.9175 47.6599   1
  -2  -7   8 1770.91 153.965   1
   2   7  -8 1853.17 161.044   3
   2   7  -7 763.286 100.314   3
   2   7  -6 451.293 70.0310   3
   2   7  -6 467.054 71.0311   2
   2   7  -5 19.9288 35.1535   2
   2   7  -5-78.4685 47.1560   3
   2   7  -4 20078.1 568.582   3
   2   7  -4 19849.7 561.286   2
   2   7  -3 1342.80 108.900   2
   2   7  -3 1544.21 111.194   3
   2   7  -2 44610.6 1049.92   3
   2   7  -2 46133.2 1066.18   2
   2   7  -1 122.500 38.2103   2
   2   7  -1 46.2607 23.3639   3
   2   7   0 221.161 41.0738   2
   2   7   0 252.727 38.7403   3
   2   7   1 933.521 68.8940   3
   2   7   1 858.054 75.8226   2
   2   7   2 386.297 40.9150   3
   2   7   2 369.518 49.8718   2
   2   7   3-3.21575 18.2542   1
   2   7   3 12.0247 17.1627   2
   2   7   3 6.58101 11.1713   3
   2   7   4 242.364 30.0802   3
   2   7   4 241.065 38.0375   2
   2   7   4 201.914 35.7392   1
   2   7   5 127.102 25.3069   2
   2   7   5 124.456 34.7546   1
   2   7   6 459.791 56.8170   1
   2   7   6 510.576 48.3478   2
   2   7   7 578.050 69.1382   1
   2   7   8 28.6673 28.5421   1
   2   7   9 279.959 58.9726   1
   2   7  10 572.240 83.4247   1
   2   7  11 99.5913 47.0213   1
   2   7  12 101.711 45.6619   1
  -2  -8  11 378.112 88.0047   1
   2   8 -11 569.868 113.591   3
  -2  -8  10 683.597 114.609   1
   2   8 -10 740.394 119.192   3
   2   8  -9 3662.04 248.653   3
  -2  -8   9 3369.73 237.693   1
  -2  -8   8 206.331 58.9052   1
   2   8  -8 277.821 71.0552   3
   2   8  -7 458.838 84.6219   3
   2   8  -6 5465.15 272.107   3
   2   8  -6 5352.05 259.463   2
   2   8  -5 4929.66 241.454   2
   2   8  -5 5258.53 252.735   3
   2   8  -4 710.236 86.2856   3
   2   8  -4 645.558 81.7529   2
   2   8  -3 107.781 43.3561   2
   2   8  -3 120.550 36.6676   3
   2   8  -2 53.6543 36.7718   2
   2   8  -2 6.51076 21.2872   3
   2   8  -1 1767.04 115.363   3
   2   8  -1 1798.10 124.360   2
   2   8   0 90.7939 32.2352   2
   2   8   0 57.7732 18.2587   3
   2   8   1 1329.17 91.7260   3
   2   8   1 1517.61 107.595   2
   2   8   2 4683.82 198.467   2
   2   8   2 4736.40 180.849   3
   2   8   3 333.064 42.5225   1
   2   8   3 314.438 40.2591   3
   2   8   3 335.768 49.1532   2
   2   8   4 425.517 51.8212   2
   2   8   4 436.246 51.3990   1
   2   8   4 384.584 41.0752   3
   2   8   5 976.050 75.4518   2
   2   8   5 858.936 75.2973   1
   2   8   6 3876.19 180.413   1
   2   8   7 170.827 40.2215   1
   2   8   8 78.4278 34.8725   1
   2   8   9 480.255 70.4898   1
   2   8  10 63.0202 39.3903   1
   2   8  11 44.2294 29.3374   1
   2   8  12 9.74377 28.1660   1
  -2  -9  11 244.338 71.6809   1
   2   9 -10 70.0527 46.8584   3
  -2  -9  10-108.603 54.1295   1
  -2  -9   9-11.6183 39.9188   1
   2   9  -9 156.171 59.6626   3
   2   9  -8 219.150 69.9368   3
  -2  -9   8 77.6513 45.7972   1
   2   9  -7 6186.47 316.074   3
   2   9  -6 689.066 97.8125   3
   2   9  -5 67.6149 34.4652   2
   2   9  -5 29.5877 32.0228   3
   2   9  -4 717.417 90.2446   2
   2   9  -4 713.051 90.3332   3
   2   9  -3 284.654 61.4056   2
   2   9  -3 235.847 48.4095   3
   2   9  -2 1073.94 98.6589   3
   2   9  -2 1028.15 103.269   2
   2   9  -1 149.099 45.7916   2
   2   9  -1 141.185 40.3090   3
   2   9   0 30.1832 28.6877   2
   2   9   0 24.6513 18.0409   3
   2   9   1 2447.54 134.001   3
   2   9   1 2535.93 150.332   2
   2   9   2 736.572 69.7384   3
   2   9   2 665.313 75.7623   2
   2   9   3 78.1925 29.8439   2
   2   9   3 69.6749 21.1792   3
   2   9   4-7.47230 18.8094   2
   2   9   4 21.9753 21.5652   1
   2   9   5 1338.86 94.3616   2
   2   9   5 1158.34 90.2638   1
   2   9   6 2209.49 132.162   1
   2   9   7 2425.53 147.014   1
   2   9   8 1026.29 99.1815   1
   2   9   9 689.567 84.9144   1
   2   9  10 1619.00 138.956   1
  -2 -10  10 249.900 71.2997   1
  -2 -10   9 104.842 51.1236   1
   2  10  -9 220.115 70.5313   3
  -2 -10   8 132.568 50.7269   1
   2  10  -8 219.349 66.8994   3
   2  10  -7 1259.14 141.839   3
   2  10  -6 148.179 53.8882   3
   2  10  -5 743.561 101.729   3
   2  10  -4 1217.96 122.876   3
   2  10  -4 1303.46 128.147   2
   2  10  -3-2.58509 26.9772   3
   2  10  -3 22.9175 26.2266   2
   2  10  -2 3278.28 191.730   3
   2  10  -2 3732.56 212.109   2
   2  10  -1 887.576 92.6722   3
   2  10  -1 869.717 98.1425   2
   2  10   0 162.850 44.1095   2
   2  10   0 176.718 41.8827   3
   2  10   1 9634.34 333.924   3
   2  10   1 10177.7 367.258   2
   2  10   2 935.341 95.2108   2
   2  10   2 744.436 75.9894   3
   2  10   3 39.8321 26.8365   2
   2  10   4 239.508 46.0745   2
   2  11  -8 115.279 54.8232   3
   2  11  -7 341.952 79.8435   3
   2  11  -6 1037.47 130.760   3
   2  11  -5 725.463 104.541   3
   2  11  -4 158.877 48.4445   3
   2  11  -3 9.23664 33.5515   2
   2  11  -3 31.6685 27.9148   3
   2  11  -2 1958.14 152.409   3
   2  11  -2 2117.23 165.134   2
   2  11  -1 455.903 76.8011   2
   2  11  -1 473.567 72.0484   3
   2  11   0 57.7370 35.0931   2
   2  11   0 21.4328 24.1224   3
   2  11   1 2639.93 161.703   3
   2  11   1 2904.29 182.666   2
   2  11   2 404.345 66.3389   2
   2  11   3 402.718 65.5173   2
   2  12  -7-14.9159 37.3954   3
   2  12  -6 887.411 125.322   3
   2  12  -5 82.6216 27.5433   3
   2  12  -4 183.611 54.5847   3
   2  12  -3 7.85728 27.6840   3
   2  12  -2 313.483 64.9751   3
   2  12  -1 791.425 96.6066   3
   2  12   0 745.027 90.7304   3
   2  13  -5 715.742 111.369   3
   2  13  -4 359.018 80.3313   3
   2  13  -3 959.659 121.436   3
   2  13  -2-47.5178 43.6081   3
  -3  12   2 156.029 52.7840   3
  -3  12   1-63.1698 38.4196   3
  -3  12   0 240.095 65.5644   3
  -3  12  -1 206.591 63.4574   3
  -3  12  -2 725.799 117.515   3
  -3  11   3 6.90561 26.9137   3
  -3  11   2 136.490 52.6280   3
  -3  11   1 31.9348 27.9640   3
  -3  11   0 76.2431 44.9262   3
  -3  11  -1 161.494 59.2957   3
  -3  11  -2 2220.88 194.295   3
  -3  11  -3-16.9942 34.8786   3
  -3  11  -4 5178.85 315.118   3
  -3  11  -5 80.8396 51.6291   3
  -3  10   3 96.0655 42.0485   3
  -3  10   2-30.2530 35.3355   3
  -3  10   1 253.303 65.2656   3
  -3  10   0 31.2381 32.0115   3
  -3  10  -1-9.96610 34.7817   3
  -3  10  -2 940.688 122.348   3
  -3  10  -3 157.156 56.1355   3
  -3  10  -4 1665.19 163.197   3
  -3  10  -5 994.595 128.225   3
  -3  10  -6 430.318 87.4762   3
  -3  10  -7 810.422 122.990   3
  -3   9   9-12.7663 39.7344   4
  -3   9   8 166.886 62.9725   4
  -3   9   7 612.161 100.664   4
  -3   9   6-28.9420 44.6185   4
  -3   9   5-13.1613 33.8110   4
  -3   9   4 1403.36 138.121   4
  -3   9   3 999.242 109.106   3
  -3   9   3 1163.29 121.904   4
  -3   9   2 270.125 57.9263   3
  -3   9   2 227.920 52.8179   4
  -3   9   1 5970.02 286.279   3
  -3   9   1 6063.57 273.391   4
  -3   9   0 184.549 49.4173   3
  -3   9  -1 103.199 39.7209   3
  -3   9  -2 828.284 104.661   3
  -3   9  -3 386.448 73.9185   3
  -3   9  -4 801.497 107.275   3
  -3   9  -5 2461.39 191.889   3
  -3   9  -6 153.067 48.9689   3
  -3   9  -7 1088.94 137.590   3
  -3   9  -8 96.7901 55.9756   3
  -3   9  -9 1489.90 167.146   3
  -3   8   9 281.906 78.1062   4
  -3   8   8 1214.32 146.444   4
  -3   8   7 875.149 118.415   4
  -3   8   6 41.6639 37.2202   4
  -3   8   5 75.6221 42.3825   4
  -3   8   4 582.785 84.9541   4
  -3   8   3 194.186 52.5904   4
  -3   8   3 134.914 39.2629   3
  -3   8   2 530.022 77.2747   4
  -3   8   2 523.051 77.7461   3
  -3   8   1 517.077 72.2308   4
  -3   8   1 564.067 80.0324   3
  -3   8   0 6.57134 21.2852   4
  -3   8   0 46.5419 30.9370   3
  -3   8  -1-0.17894 27.6342   3
  -3   8  -1 6.60378 19.3971   4
  -3   8  -2 2434.98 148.790   4
  -3   8  -2 2558.47 177.438   3
  -3   8  -3 2659.93 180.955   3
  -3   8  -3 2493.15 147.991   4
  -3   8  -4 350.336 54.0440   4
  -3   8  -4 372.702 70.7306   3
  -3   8  -5 299.557 68.1100   3
  -3   8  -6 1240.59 133.899   3
  -3   8  -7 379.353 74.0859   3
  -3   8  -8 1726.78 167.337   3
  -3   8  -9 197.794 47.5382   3
  -3   8 -10-29.2805 37.4470   3
  -3   7  10 198.438 77.6399   4
  -3   7   9 676.975 115.241   4
  -3   7   8 737.680 111.493   4
  -3   7   7 8157.05 376.508   4
  -3   7   6-9.72278 44.6814   4
  -3   7   5 390.935 69.1324   4
  -3   7   4 138.866 46.2139   4
  -3   7   3 833.460 95.7347   4
  -3   7   3 934.746 93.7030   3
  -3   7   2 110.374 41.4104   4
  -3   7   2 102.063 39.6110   3
  -3   7   1 1082.30 100.411   4
  -3   7   1 1074.83 102.114   3
  -3   7   0 4149.70 201.877   4
  -3   7   0 4074.62 211.954   3
  -3   7  -1 382.658 66.1282   3
  -3   7  -1 401.966 57.2084   4
  -3   7  -2-9.16488 18.7409   4
  -3   7  -2-24.3215 30.1896   3
  -3   7  -3 38.7261 18.2319   4
  -3   7  -3 37.0247 30.3057   3
  -3   7  -4 1466.68 108.416   4
  -3   7  -4 1564.77 135.051   3
  -3   7  -5 173.615 49.8946   3
  -3   7  -5 136.866 33.9625   4
  -3   7  -6 188.773 41.0828   4
  -3   7  -6 257.004 60.6060   3
  -3   7  -7 3053.59 206.410   3
  -3   7  -8 47.1689 42.3554   3
  -3   7  -9 221.279 65.4032   3
  -3   7 -10 308.724 78.0933   3
  -3   7 -11 97.8862 36.3527   3
  -3   6  11 82.7988 58.3939   4
  -3   6  10 50.3912 53.2460   4
  -3   6   9 353.733 86.7688   4
  -3   6   8 2513.10 201.342   4
  -3   6   7 935.203 116.542   4
  -3   6   6 1522.74 141.748   4
  -3   6   5 515.018 80.9890   4
  -3   6   4 332.688 62.1942   4
  -3   6   3 261.685 57.1438   4
  -3   6   3 204.316 44.8169   3
  -3   6   2 13564.9 430.776   4
  -3   6   2 13230.1 420.233   3
  -3   6   1 696.270 78.6477   3
  -3   6   1 663.915 75.7593   4
  -3   6   0 2760.14 152.380   4
  -3   6   0 2803.05 161.685   3
  -3   6  -1 84.5301 28.5628   4
  -3   6  -1 30.2568 28.7532   3
  -3   6  -2 314.204 49.0769   4
  -3   6  -2 358.406 57.7776   3
  -3   6  -3 216.905 41.8959   4
  -3   6  -3 296.136 55.7810   3
  -3   6  -4 3122.49 183.881   3
   3  -6   4 2848.17 108.626   1
  -3   6  -4 2922.02 151.892   4
   3  -6   5 549.448 53.3890   1
  -3   6  -5 633.497 83.2503   3
   3  -6   6 2728.51 138.965   1
  -3   6  -6 2779.64 182.517   3
  -3   6  -7 3567.39 218.159   3
   3  -6   7 3717.91 181.405   1
   3  -6   8 13694.4 438.124   1
  -3   6  -8 13145.4 486.585   3
  -3   6  -9 1165.81 131.289   3
   3  -6   9 1120.22 110.838   1
   3  -6  10 2784.91 192.397   1
  -3   6 -10 2707.07 209.548   3
   3  -6  11 44.5505 32.6066   1
  -3   6 -11 52.8757 31.3766   3
  -3   6 -12 109.998 42.9364   3
  -3   5  11 1096.69 148.566   4
  -3   5  10 1072.68 143.240   4
  -3   5   9 478.848 69.1546   1
  -3   5   9 527.698 99.5523   4
  -3   5   8-20.2281 38.9169   4
  -3   5   8-10.1135 22.1124   1
  -3   5   7-24.6674 40.7557   4
  -3   5   7-15.8200 20.1816   1
  -3   5   6-0.37291 28.5374   4
  -3   5   6 16.2258 19.5716   1
  -3   5   5 3065.83 128.650   1
  -3   5   5 2954.04 186.470   4
  -3   5   4 1222.49 63.7369   1
  -3   5   4 1354.13 117.038   4
  -3   5   3 771.596 37.1490   1
  -3   5   3 884.962 90.3958   4
  -3   5   3 945.349 84.9414   3
  -3   5   2 21893.9 590.351   3
  -3   5   2 22586.0 611.373   4
  -3   5   1 56482.5 1289.72   4
  -3   5   1 56267.3 1286.80   3
  -3   5   0 4229.72 194.405   3
  -3   5   0 4380.37 188.518   4
  -3   5  -1 2803.82 153.102   3
  -3   5  -1 2855.25 143.883   4
  -3   5  -2 1184.62 96.7488   3
  -3   5  -2 1174.14 87.4136   4
   3  -5   3 445.229 31.0599   1
  -3   5  -3 462.722 54.6780   4
  -3   5  -3 499.102 65.4805   3
  -3   5  -4 683.649 79.0984   3
   3  -5   4 772.350 53.8045   1
   3  -5   5-6.95722 15.8702   1
  -3   5  -5 27.9360 32.4007   3
   3  -5   6 424.926 54.0346   1
  -3   5  -6 481.040 70.0901   3
   3  -5   7 1654.74 117.969   1
  -3   5  -7 1558.87 133.688   3
   3  -5   8 57.6850 30.4768   1
  -3   5  -8 43.4877 33.5535   3
  -3   5  -9 400.166 75.5324   3
   3  -5   9 453.297 72.4983   1
  -3   5 -10 25.3687 31.2029   3
   3  -5  10-24.0632 41.6176   1
   3  -5  11-35.9376 34.4794   1
  -3   5 -11 8.86942 23.5612   3
   3  -5  12-13.6487 32.6778   1
  -3   5 -12-20.1575 38.6095   3
   3  -5  13 1170.60 143.405   1
  -3   5 -13 1255.33 147.653   3
  -3   4  12 168.027 64.8086   4
  -3   4  12 86.6457 38.9974   1
  -3   4  11 4814.41 269.692   1
  -3   4  11 5010.66 322.060   4
  -3   4  10 4938.01 304.951   4
  -3   4  10 4104.31 236.958   1
  -3   4   9 441.456 86.3062   4
  -3   4   9 403.926 67.8443   1
  -3   4   8 3278.15 179.428   1
  -3   4   8 3047.61 210.487   4
  -3   4   7 236.375 47.5529   1
  -3   4   7 322.048 67.5610   4
  -3   4   6 3891.63 172.313   1
  -3   4   6 4056.52 227.211   4
  -3   4   5 1.85324 27.9434   4
  -3   4   5 22.0323 19.1529   1
  -3   4   4 257.132 33.8926   1
  -3   4   4 278.213 52.7080   4
  -3   4   3 3261.08 108.806   1
  -3   4   3 2968.32 165.465   4
  -3   4   2 1014.26 35.5972   1
  -3   4   2 1159.53 95.8613   4
  -3   4   2 1068.33 85.8714   3
  -3   4   1 257.123 42.6298   3
  -3   4   1 212.452 40.9984   4
  -3   4   0 500.685 56.7800   4
  -3   4   0 486.438 57.1177   3
  -3   4  -1 161.961 32.8100   4
  -3   4  -1 103.186 29.9555   3
   3  -4   2 2991.65 81.2685   1
  -3   4  -2 3278.51 154.326   3
  -3   4  -2 3480.51 149.459   4
  -3   4  -3 34.5270 27.8135   3
   3  -4   3 18.9735 10.7148   1
   3  -4   4 5282.34 174.905   1
  -3   4  -4 5153.23 217.066   3
   3  -4   5 2382.75 120.618   1
  -3   4  -5 2607.51 151.484   3
   3  -4   6 179.926 39.6492   1
  -3   4  -6 106.657 34.2916   3
  -3   4  -7 2571.06 164.192   3
   3  -4   7 2796.40 158.151   1
   3  -4   8 13.7367 25.5662   1
  -3   4  -8-21.0826 33.3107   3
  -3   4  -9 2.47974 28.5498   3
   3  -4   9 10.8634 28.1138   1
   3  -4  10 82.4465 39.8261   1
  -3   4 -10 109.602 42.7617   3
   3  -4  11 117.102 45.0778   1
  -3   4 -11 84.5653 41.2724   3
   3  -4  12 1446.91 149.750   1
  -3   4 -12 1222.74 136.383   3
  -3   4 -13 2836.51 219.026   3
   3  -4  13 2834.28 220.463   1
  -3   3  13 647.671 112.307   1
  -3   3  12 536.966 107.025   4
  -3   3  12 438.657 84.1526   1
  -3   3  11 1034.44 122.466   1
  -3   3  11 852.758 127.359   4
  -3   3  10-25.3921 49.9640   4
  -3   3  10 8.73885 30.4159   1
  -3   3   9 15.4694 30.6910   1
  -3   3   9-60.6867 42.5963   4
  -3   3   8 17.2477 25.6010   1
  -3   3   8-1.58153 35.2567   4
  -3   3   7 3729.52 184.245   1
  -3   3   7 3731.80 218.120   4
  -3   3   6 101.301 43.2915   4
  -3   3   6 108.640 30.8305   1
  -3   3   5 3502.28 154.689   1
  -3   3   5 3535.72 193.707   4
   3  -3  -4 1059.22 51.1185   2
  -3   3   4 923.420 68.7848   1
  -3   3   4 1029.40 97.4390   4
   3  -3  -4 1144.57 51.0707   2
  -3   3   3 694.236 49.1480   1
  -3   3   3 810.358 81.6387   4
  -3   3   2 963.003 75.5531   3
  -3   3   2 920.296 80.7166   4
  -3   3   2 831.835 42.7937   1
  -3   3   1 5159.88 200.567   4
  -3   3   1 5297.95 194.947   3
  -3   3   0 1426.03 92.1623   3
  -3   3   0 1367.67 90.8153   4
  -3   3  -1 1089.18 79.7527   3
  -3   3  -1 1044.09 74.7286   4
   3  -3   2 1706.37 61.9745   1
  -3   3  -2 1865.59 104.257   3
   3  -3   3 753.373 47.5890   1
  -3   3  -3 770.162 69.6496   3
   3  -3   4 12696.5 336.312   1
  -3   3  -4 12659.0 374.736   3
   3  -3   5 2214.71 113.752   1
  -3   3  -5 2024.86 124.916   3
  -3   3  -6 4641.34 206.189   3
   3  -3   6 4735.83 194.519   1
   3  -3   7 30718.2 752.532   1
  -3   3  -7 27910.3 753.216   3
   3  -3   8 776.612 86.6266   1
  -3   3  -8 657.539 79.1530   3
   3  -3   9 3246.30 193.817   1
  -3   3  -9 3017.97 183.487   3
   3  -3  10 1638.73 142.652   1
  -3   3 -10 1553.65 134.762   3
   3  -3  11 430.846 81.9906   1
  -3   3 -11 154.944 48.0763   3
  -3   3 -12 152.392 49.5843   3
   3  -3  12 164.172 58.7835   1
  -3   3 -13 570.664 90.5901   3
   3  -3  13 885.335 122.770   1
  -3   2  13 1565.55 169.039   1
  -3   2  13 1671.43 187.475   4
  -3   2  12 634.707 116.893   4
  -3   2  12 615.003 104.624   1
  -3   2  11-30.9611 46.7277   4
  -3   2  11 28.1185 40.5527   1
  -3   2  10 4331.14 245.070   1
  -3   2  10 4702.20 284.544   4
  -3   2   9 26.0619 40.8909   4
  -3   2   9 15.1135 26.6068   1
  -3   2   8 1022.96 107.576   1
  -3   2   8 1073.05 117.522   4
  -3   2   7 3782.57 214.702   4
  -3   2   7 4042.89 202.178   1
  -3   2   6 15.0206 21.2734   1
  -3   2   6 29.2125 43.0223   4
  -3   2   5 11.4342 19.1683   1
  -3   2   5-2.51254 28.0693   4
   3  -2  -4 242.671 21.5454   2
  -3   2   4 194.313 37.3847   1
  -3   2   4 284.752 50.8856   4
  -3   2   3-1.05308 22.5873   4
  -3   2   3-0.47516 12.6261   1
  -3   2   2 28789.4 702.824   4
  -3   2   1 1250.88 81.7187   3
  -3   2   1 1654.43 97.1720   4
  -3   2   1 1427.60 49.9060   1
  -3   2   0 223.901 36.6267   4
  -3   2   0 176.023 32.0899   3
  -3   2   0 121.466 12.7785   1
  -3   2  -1 1813.75 64.3110   1
  -3   2  -1 1967.97 100.603   4
   3  -2   1 1932.09 59.8060   1
  -3   2  -1 2013.72 101.696   3
   3  -2   2 16802.5 379.714   1
  -3   2  -2 17581.7 429.818   3
  -3   2  -2 16238.4 384.414   1
  -3   2  -3 3735.77 152.793   3
   3  -2   3 3847.19 129.588   1
   3  -2   4 737.340 58.1876   1
  -3   2  -4 699.096 62.3908   3
  -3   2  -5 214.276 36.7131   3
   3  -2   5 344.814 44.0548   1
   3  -2   6 44.1780 23.5672   1
  -3   2  -6 16.1752 22.5028   3
   3  -2   7 3676.60 181.298   1
  -3   2  -7 3302.59 167.342   3
   3  -2   8-39.6967 39.5564   1
  -3   2  -8 19.3375 21.3030   3
   3  -2   9 107.574 39.7794   1
  -3   2  -9 72.5963 30.0590   3
   3  -2  10 1588.41 140.786   1
  -3   2 -10 1676.92 132.484   3
   3  -2  11 63.7222 38.7435   1
  -3   2 -11 111.673 38.2569   3
   3  -2  12 101.581 53.1344   1
  -3   2 -12 160.597 50.6743   3
   3  -2  13 78.8635 43.2287   1
   3  -2  14-58.6155 46.0701   1
  -3   1  13 188.255 80.0099   1
  -3   1  13 336.089 85.7831   4
  -3   1  12 104.746 53.5950   4
  -3   1  12-30.7476 41.5612   1
  -3   1  11-45.5706 47.6347   4
  -3   1  11 32.6588 34.7083   1
  -3   1  10 1477.19 146.857   1
  -3   1  10 1791.67 167.604   4
  -3   1   9 1473.83 130.788   1
  -3   1   9 1538.94 147.325   4
  -3   1   8 245.634 59.5101   4
  -3   1   8 230.607 60.3787   1
  -3   1   7 6922.93 294.128   4
  -3   1   7 6904.35 284.961   1
  -3   1   6 1541.93 110.337   1
  -3   1   6 1725.26 134.108   4
  -3   1   5 10691.0 319.269   1
   3  -1  -5 10008.3 236.327   2
  -3   1   5 10749.5 352.645   4
  -3   1   4 201.311 38.9381   4
   3  -1  -4 209.698 21.1488   2
  -3   1   3 155.150 38.6137   4
   3  -1  -3 157.389 19.6143   2
  -3   1   2 83647.4 1819.05   4
   3  -1  -2 86091.4 1758.91   2
  -3   1   1 9367.66 262.530   3
  -3   1   1 9269.71 275.508   4
  -3   1   0 148.859 30.5206   4
  -3   1   0 126.496 26.1336   3
  -3   1   0 86.1738 14.4172   1
  -3   1  -1 7099.44 190.056   1
  -3   1  -1 8410.00 226.584   3
   3  -1   1 7551.23 185.019   1
   3  -1   2 20613.1 460.847   1
  -3   1  -2 20347.6 485.956   3
  -3   1  -3 18499.2 449.072   3
   3  -1   3 18133.7 433.738   1
   3  -1   4 7081.78 218.640   1
  -3   1  -4 7083.34 221.812   3
   3  -1   5 18197.1 472.528   1
  -3   1  -5 18108.8 462.461   3
   3  -1   6 8157.82 276.402   1
  -3   1  -6 8033.50 260.346   3
   3  -1   7 788.021 82.4143   1
  -3   1  -7 782.795 72.0650   3
   3  -1   8 274.002 53.6098   1
  -3   1  -8 276.117 46.6480   3
   3  -1   9 186.599 54.8740   1
  -3   1  -9 234.301 48.5374   3
  -3   1 -10 540.754 72.8876   3
   3  -1  10 424.248 73.2885   1
   3  -1  11 28.5966 30.2443   1
  -3   1 -11 91.9306 34.4663   3
  -3   1 -12 3854.69 217.245   3
   3  -1  12 3697.00 241.419   1
   3  -1  13 5643.41 319.210   1
   3  -1  14 376.186 81.7195   1
   3   0 -14 252.232 65.8219   3
  -3   0  13 1171.33 149.813   1
  -3   0  12 715.922 116.739   4
  -3   0  12 802.710 117.534   1
  -3   0  11 1508.46 155.855   1
  -3   0  11 1690.95 166.684   4
  -3   0  10 4175.28 257.567   4
  -3   0  10 4546.06 255.420   1
  -3   0   9 53.6592 37.3390   4
  -3   0   9 47.5014 34.4101   1
  -3   0   8 337.868 66.2432   4
  -3   0   8 310.726 62.6716   1
  -3   0   7 235.777 51.9804   1
  -3   0   7 169.595 49.1964   4
  -3   0   6 7151.40 265.455   1
   3   0  -6 6669.05 179.867   2
  -3   0   6 7052.81 277.516   4
  -3   0   5-11.2761 23.1609   4
   3   0  -5 0.61273 9.47507   2
   3   0  -4 3226.56 105.872   2
  -3   0   4 3182.84 156.616   4
  -3   0   3 16250.9 439.489   4
   3   0  -3 16273.2 378.928   2
  -3   0   2 4370.64 169.664   4
   3   0  -2 4723.35 141.610   2
   3   0  -1 4253.44 136.752   2
  -3   0   1 4346.09 155.820   4
  -3   0   0 695.414 47.6613   3
  -3   0   0 613.452 50.2066   4
  -3   0  -1 12.9298 12.9999   3
   3   0   1 16.2070 11.4949   1
  -3   0  -2 25720.0 587.952   3
   3   0   2 27147.5 586.390   1
   3   0   3 33942.5 742.501   1
  -3   0  -3 33098.6 732.515   3
   3   0   4 67840.5 1448.30   1
  -3   0  -4 67678.9 1426.14   3
   3   0   5 18792.4 482.139   1
  -3   0  -5 18520.1 453.676   3
   3   0   6 655.425 69.5422   1
  -3   0  -6 600.209 54.1709   3
   3   0   7 1195.81 100.077   1
  -3   0  -7 1149.23 80.6515   3
   3   0   8 1746.04 130.017   1
  -3   0  -8 1709.48 107.640   3
   3   0   9 94.1564 47.9270   1
  -3   0  -9 85.9487 30.3120   3
  -3   0 -10 1156.05 99.0828   3
   3   0  10 1005.71 112.461   1
  -3   0 -11 221.680 48.7390   3
   3   0  11 152.091 54.7336   1
   3   0  12 267.002 67.9569   1
   3   0  13 8850.98 413.236   1
   3   0  14 225.333 74.9707   1
   3   1 -14 261.071 72.0899   3
  -3  -1  13 490.084 102.509   1
  -3  -1  12 106.087 55.3277   4
  -3  -1  12-10.9619 35.9146   1
  -3  -1  11 815.230 115.045   4
  -3  -1  11 705.283 106.497   1
  -3  -1  10 4449.24 255.933   1
  -3  -1  10 4230.19 249.405   4
  -3  -1   9 310.000 65.4098   4
  -3  -1   9 208.333 61.8316   1
  -3  -1   8 435.767 71.6772   4
  -3  -1   8 633.133 87.7369   1
  -3  -1   7 51247.2 1163.24   1
   3   1  -7 46985.3 1030.94   2
  -3  -1   7 47461.7 1151.67   4
   3   1  -6 868.468 55.4300   2
  -3  -1   6 931.680 86.8630   4
   3   1  -5 13826.6 344.293   2
  -3  -1   5 14257.4 418.456   4
   3   1  -4 6.54011 9.87951   2
  -3  -1   4-12.6822 21.2851   4
  -3  -1   3 242.066 38.3604   4
   3   1  -3 192.908 26.1688   2
   3   1  -2 487.386 41.7179   2
  -3  -1   2 489.346 48.9200   4
  -3  -1   1 367.519 36.8635   4
   3   1  -1 337.176 32.8835   2
   3   1   0 5149.78 161.305   2
  -3  -1   0 5294.45 162.677   4
   3   1   1 3339.86 119.409   2
   3   1   1 3050.20 102.411   3
   3   1   1 3311.04 108.320   1
   3   1   2 5609.41 164.364   1
   3   1   2 5105.44 143.542   3
  -3  -1  -2 5594.50 146.009   3
   3   1   3 25076.1 563.182   1
  -3  -1  -3 24250.5 523.967   3
   3   1   3 23635.1 524.152   3
   3   1   4 49098.4 1065.86   1
   3   1   4 47064.3 1013.59   3
  -3  -1  -4 49311.4 1016.75   3
   3   1   5 120.883 32.2362   1
  -3  -1  -5 160.690 23.0305   3
  -3  -1  -6 5.22702 11.1252   3
   3   1   6-26.2405 25.6442   1
  -3  -1  -7 246.697 36.2546   3
   3   1   7 182.207 46.8816   1
  -3  -1  -8 98.9537 27.9349   3
   3   1   8 71.1560 42.2833   1
  -3  -1  -9 241.099 42.1890   3
   3   1   9 237.620 59.3566   1
   3   1  10 504.666 81.8970   1
  -3  -1 -10 421.971 56.2492   3
   3   1  11 90.7886 48.7418   1
   3   1  12 870.934 116.399   1
   3   1  13 3072.74 227.569   1
   3   1  14 91.5344 56.6066   1
   3   2 -13 153.326 64.8880   3
  -3  -2  13 121.843 59.2099   1
  -3  -2  12 1182.23 146.549   1
  -3  -2  11 662.638 101.259   4
  -3  -2  11 513.606 92.9986   1
  -3  -2  10 66.4932 41.1876   4
  -3  -2  10 67.2179 44.1751   1
  -3  -2   9 512.895 80.3095   4
  -3  -2   9 596.245 90.2014   1
  -3  -2   8 9574.02 365.103   4
  -3  -2   8 10448.0 382.134   1
   3   2  -7 3110.68 133.064   2
  -3  -2   7 3292.13 177.808   4
  -3  -2   6 1778.52 118.940   4
   3   2  -6 1799.36 93.2448   2
   3   2  -5 3277.95 128.940   2
  -3  -2   5 3207.50 153.804   4
   3   2  -4 386.926 40.7418   2
  -3  -2   4 387.465 47.4056   4
  -3  -2   3 1167.65 73.7411   4
   3   2  -3 1192.77 68.4024   2
  -3  -2   2 158.053 26.5880   4
   3   2  -2 138.573 24.9326   2
   3   2  -1 3039.86 117.207   2
  -3  -2   1 3175.27 113.391   4
   3   2   0 3831.37 135.262   2
   3   2   1 156.250 16.7271   3
   3   2   1 146.809 27.4280   2
   3   2   1 164.423 26.0101   1
   3   2   2 8789.94 234.172   1
   3   2   2 7967.76 185.738   3
   3   2   2 8816.96 236.851   2
   3   2   3 1749.17 88.9457   1
   3   2   3 1849.02 88.0248   2
  -3  -2  -3 1525.49 45.9857   3
   3   2   4 29247.6 650.013   2
  -3  -2  -4 27624.4 586.417   3
   3   2   4 28802.8 663.729   1
  -3  -2  -5 166.192 18.2502   3
   3   2   5 163.935 35.0575   1
   3   2   5 212.580 34.5184   2
  -3  -2  -6 10477.0 261.470   3
   3   2   6 9730.60 323.087   1
   3   2   7 1710.20 119.481   1
  -3  -2  -7 1739.70 85.2253   3
   3   2   8 10392.0 364.420   1
  -3  -2  -8 11044.2 300.891   3
   3   2   8 10207.9 307.631   2
   3   2   9 3014.90 142.207   2
   3   2   9 3105.88 186.931   1
  -3  -2  -9 3161.30 142.025   3
   3   2  10 2792.94 185.114   1
   3   2  11 734.705 98.6175   1
   3   2  12 69.8508 46.3214   1
   3   2  13 2112.68 188.467   1
   3   2  14 749.138 112.864   1
  -3  -3  13 126.857 59.1523   1
   3   3 -13 115.395 56.4670   3
  -3  -3  12-34.5527 43.2251   1
   3   3 -12 7.55935 42.0062   3
  -3  -3  11 381.950 84.8528   1
   3   3 -11 308.172 75.2739   3
  -3  -3  10 1482.96 154.578   1
  -3  -3  10 1351.93 131.442   4
  -3  -3   9 1407.69 126.456   4
  -3  -3   9 1256.97 133.203   1
  -3  -3   8 892.905 103.655   1
   3   3  -8 965.836 77.6539   2
  -3  -3   8 1002.16 99.3863   4
  -3  -3   7-27.0287 29.8151   4
   3   3  -7 11.1774 18.9802   2
  -3  -3   6 249.657 46.1826   4
   3   3  -6 271.766 38.8038   2
   3   3  -5 584.126 54.5611   2
  -3  -3   5 495.386 54.3015   4
   3   3  -4 5060.46 177.642   2
  -3  -3   4 4486.59 171.741   4
  -3  -3   3 673.673 53.0477   4
   3   3  -3 835.721 62.3976   2
  -3  -3   2 49931.7 1089.39   4
   3   3  -2 52831.5 1112.81   2
   3   3  -1 69238.5 1490.79   2
  -3  -3   1 71102.2 1460.35   4
   3   3   0 46187.7 1005.50   2
   3   3   1 21788.9 502.466   1
   3   3   1 21531.4 516.145   2
   3   3   2 5124.02 174.280   2
   3   3   2 5523.29 173.901   1
   3   3   3 33.8123 20.4573   1
   3   3   3-8.25905 22.5370   2
   3   3   4 7586.26 228.061   2
   3   3   4 7980.71 247.779   1
   3   3   5 6092.85 196.746   2
   3   3   5 5809.57 214.367   1
   3   3   6 124.430 37.8143   1
  -3  -3  -6 105.583 14.0084   3
   3   3   6 74.9090 24.7353   2
   3   3   7 2.51139 18.1629   2
  -3  -3  -7-0.85990 9.49799   3
   3   3   7-35.6055 38.7600   1
  -3  -3  -8 366.255 36.2312   3
   3   3   8 414.364 68.0688   1
   3   3   8 356.200 42.9281   2
   3   3   9 157.243 46.6309   1
   3   3   9 180.865 31.8080   2
   3   3  10-66.7169 52.7573   1
   3   3  11 239.120 60.7550   1
   3   3  12 4861.27 278.560   1
   3   3  13 459.863 87.8774   1
   3   3  14 39.8134 45.1463   1
  -3  -4  13 51.7156 51.9914   1
   3   4 -13 55.4559 48.8106   3
   3   4 -12 1587.63 167.297   3
  -3  -4  12 1578.62 173.461   1
   3   4 -11 3855.09 250.484   3
  -3  -4  11 3639.23 257.499   1
  -3  -4  10 1018.29 130.956   1
   3   4 -10 1105.43 128.761   3
   3   4  -9 2337.80 175.534   3
  -3  -4   9 1976.70 165.894   1
  -3  -4   8 4904.99 231.760   4
   3   4  -8 5363.08 216.675   2
  -3  -4   7 82.4187 31.9349   4
   3   4  -7 76.6452 31.7125   2
  -3  -4   6 502.765 59.4840   4
   3   4  -6 434.545 53.6165   2
  -3  -4   5 189.127 35.3153   4
   3   4  -5 206.099 37.9985   2
  -3  -4   4 628.459 52.2458   4
   3   4  -4 569.500 59.7543   2
   3   4  -3 1842.35 103.522   2
  -3  -4   3 1767.02 80.3451   4
  -3  -4   2 77.3729 15.4045   4
   3   4  -2 89.6287 24.5064   2
   3   4  -1 1364.92 82.4432   2
  -3  -4   1 1249.53 52.7631   4
   3   4   0 23687.7 558.159   2
   3   4   0 22698.2 520.992   3
   3   4   1 20908.3 502.263   2
   3   4   1 20331.9 451.558   3
   3   4   1 20602.2 485.989   1
   3   4   2 8708.69 197.639   3
   3   4   2 9352.52 257.340   1
   3   4   2 9384.38 263.020   2
   3   4   3 25604.5 603.771   2
   3   4   3 25753.0 611.010   1
   3   4   4 20125.0 507.807   1
   3   4   4 19956.1 490.566   2
   3   4   5 22.1887 25.2306   1
   3   4   5 27.4618 17.8483   2
   3   4   6 7967.97 275.975   1
   3   4   6 7717.53 238.720   2
  -3  -4  -7 1836.16 63.9326   3
   3   4   7 1668.93 120.084   1
   3   4   7 1844.45 97.1273   2
   3   4   8 11.5355 13.8184   2
   3   4   8-7.62928 28.9780   1
   3   4   9 1001.62 104.825   1
   3   4  10 237.913 57.9382   1
   3   4  11 167.183 53.9845   1
   3   4  12 48.8253 43.1193   1
   3   4  13 117.684 49.0374   1
  -3  -5  13 113.136 57.9444   1
   3   5 -13 99.0507 49.3673   3
  -3  -5  12 545.227 111.830   1
   3   5 -12 639.336 110.632   3
   3   5 -11 1093.90 135.121   3
  -3  -5  11 1262.35 151.548   1
  -3  -5  10 169.869 64.0780   1
   3   5 -10 192.620 57.5309   3
  -3  -5   9 737.265 106.679   1
   3   5  -9 955.021 114.003   3
   3   5  -8 1169.67 119.750   3
   3   5  -8 1000.11 91.8974   2
   3   5  -7 4616.29 239.141   3
   3   5  -7 4467.23 205.133   2
   3   5  -6 930.884 103.950   3
   3   5  -6 1019.56 88.4093   2
  -3  -5   5 174.614 30.3709   4
   3   5  -5 177.094 37.8460   2
   3   5  -5 172.448 55.5869   3
   3   5  -4 5031.92 205.091   2
   3   5  -4 5443.82 219.924   3
  -3  -5   4 5350.77 164.050   4
   3   5  -3 559.491 60.7021   2
   3   5  -3 529.095 62.9576   3
  -3  -5   3 482.934 32.4921   4
   3   5  -2 4303.41 164.936   3
   3   5  -2 4495.33 178.603   2
  -3  -5   2 3959.70 101.982   4
   3   5  -1 185.245 35.6998   2
   3   5  -1 256.096 33.9834   3
   3   5   0 12079.2 338.660   2
  -3  -5   0 11770.5 266.086   4
   3   5   0 12166.9 307.723   3
  -3  -5   0 11727.0 271.857   4
   3   5   1 1430.84 89.7214   2
  -3  -5  -1 1355.88 65.7235   4
   3   5   1 1368.40 64.2661   3
   3   5   2 1746.70 97.4551   2
   3   5   2 1636.08 62.0720   3
   3   5   2 1788.36 92.6552   1
   3   5   3 14033.6 377.882   2
   3   5   3 14334.8 382.021   1
   3   5   4 127.570 30.8170   1
   3   5   4 70.0976 22.0476   2
   3   5   5 23.5536 24.4880   1
   3   5   5 0.84393 16.6714   2
   3   5   6 388.754 44.1403   2
   3   5   6 333.309 54.0380   1
   3   5   7 20441.6 568.695   1
   3   5   7 20567.7 505.250   2
   3   5   8 1991.72 98.9180   2
   3   5   8 1860.41 134.383   1
   3   5   9 1550.42 130.081   1
   3   5  10 407.920 73.6393   1
   3   5  11-10.0828 35.9938   1
   3   5  12 53.0926 49.2048   1
   3   5  13-1.20471 44.4854   1
   3   6 -12 3340.88 253.729   3
  -3  -6  12 2681.79 234.096   1
  -3  -6  11 168.730 70.7308   1
   3   6 -11 166.996 62.6652   3
  -3  -6  10 682.208 109.415   1
   3   6 -10 914.968 118.629   3
  -3  -6   9 157.348 58.3754   1
   3   6  -9 293.941 73.6796   3
   3   6  -8 1130.18 121.817   3
   3   6  -8 1098.38 103.640   2
   3   6  -7 85.6544 39.1122   2
   3   6  -7 17.8282 37.1222   3
   3   6  -6 3056.84 182.412   3
   3   6  -6 3077.37 169.393   2
   3   6  -5 645.172 80.8437   3
   3   6  -5 642.401 73.6777   2
   3   6  -4 1658.63 113.915   2
   3   6  -4 1768.26 119.656   3
   3   6  -3 56.2684 34.5302   2
   3   6  -3 24.7304 23.9832   3
   3   6  -2 22704.6 574.792   3
   3   6  -2 22892.4 593.066   2
   3   6  -1 4272.86 183.821   2
   3   6  -1 4111.70 162.528   3
   3   6   0 1070.41 69.0889   3
   3   6   0 1148.32 86.6198   2
   3   6   1 431.413 38.6158   3
   3   6   1 468.615 55.3577   2
  -3  -6  -1 474.454 35.2390   4
   3   6   2 974.497 54.1880   3
   3   6   2 923.682 73.7046   2
   3   6   2 947.252 68.1210   1
   3   6   3 33.7274 22.9194   2
   3   6   3 1.26831 5.48439   3
   3   6   3 11.9288 18.7535   1
   3   6   4 4793.70 182.366   2
   3   6   4 4812.28 188.768   1
   3   6   5 333.016 51.2939   1
   3   6   5 321.495 42.7300   2
   3   6   6 5564.79 226.716   1
   3   6   6 5896.27 201.865   2
   3   6   7 967.804 92.4529   1
   3   6   7 1044.97 72.2141   2
   3   6   8 6423.44 272.166   1
   3   6   9 6252.61 279.064   1
   3   6  10 2676.19 183.016   1
   3   6  11 92.0030 44.6501   1
   3   6  12 20.7493 30.9050   1
   3   6  13 19.0167 34.6786   1
  -3  -7  12 298.342 84.7707   1
   3   7 -12 177.624 66.8945   3
  -3  -7  11 2757.69 241.032   1
   3   7 -11 2825.14 231.509   3
  -3  -7  10 3979.51 272.385   1
   3   7 -10 3710.76 260.673   3
  -3  -7   9 264.953 69.9072   1
   3   7  -9 194.190 56.9943   3
   3   7  -8 24.2335 23.4463   2
   3   7  -8 21.4458 37.9164   3
   3   7  -7 1152.44 119.724   3
   3   7  -7 1113.78 111.045   2
   3   7  -6 141.200 48.7818   2
   3   7  -6 60.4351 32.8984   3
   3   7  -5 5749.07 260.515   3
   3   7  -5 5746.66 250.246   2
   3   7  -4 260.630 51.1627   2
   3   7  -4 203.256 47.6726   3
   3   7  -3 2592.09 154.669   2
   3   7  -3 2709.26 150.702   3
   3   7  -2 41999.1 1004.91   2
   3   7  -2 42157.1 990.100   3
   3   7  -1 15191.8 451.102   2
   3   7  -1 15824.4 427.197   3
   3   7   0 8924.31 271.984   3
   3   7   0 8923.91 301.939   2
  -3  -7  -1 1974.54 72.3187   4
   3   7   1 1839.76 95.9553   3
   3   7   1 2105.60 125.240   2
   3   7   2 549.485 44.3047   3
   3   7   2 653.227 69.1635   2
   3   7   3 5692.57 214.915   2
   3   7   3 4876.29 152.523   3
   3   7   3 5124.69 191.369   1
   3   7   4 848.419 72.2538   2
   3   7   4 698.755 66.5664   1
   3   7   5 63.0998 25.5954   1
   3   7   5 90.4845 27.2773   2
   3   7   6 584.882 69.3241   1
   3   7   6 715.164 64.9925   2
   3   7   7 108.228 35.1494   1
   3   7   8 111.612 37.9636   1
   3   7   9-1.30951 26.5077   1
   3   7  10 160.245 43.0861   1
   3   7  11 127.358 51.1021   1
   3   7  12 305.882 68.8085   1
   3   8 -11 6196.70 363.217   3
  -3  -8  11 5742.60 351.735   1
   3   8 -10 2107.02 197.382   3
  -3  -8  10 2015.00 201.855   1
   3   8  -9 387.010 84.4384   3
  -3  -8   9 304.171 82.3166   1
   3   8  -8 109.043 49.3917   3
   3   8  -7 246.410 54.7511   2
   3   8  -7 204.483 58.0563   3
   3   8  -6 3932.43 226.960   3
   3   8  -6 4313.84 228.950   2
   3   8  -5 1536.10 135.164   3
   3   8  -5 1487.15 125.376   2
   3   8  -4 1526.37 124.033   3
   3   8  -4 1408.14 120.286   2
   3   8  -3 10.7900 27.0124   2
   3   8  -3 82.1010 36.2955   3
   3   8  -2 51.9489 31.4034   2
   3   8  -2 70.3453 27.4117   3
   3   8  -1 921.346 90.1376   2
   3   8  -1 999.777 82.9197   3
   3   8   0 7.37465 17.8334   3
   3   8   0 2.31665 24.8682   2
   3   8   1 130.850 32.8327   2
   3   8   1 179.395 31.6646   3
   3   8   2 176.076 38.5316   2
   3   8   2 170.035 28.4060   3
   3   8   3 191.542 27.6895   3
   3   8   3 193.417 40.3757   2
   3   8   3 221.831 37.9652   1
   3   8   4 7458.46 261.390   2
   3   8   4 6755.40 246.351   1
   3   8   5 387.228 52.9713   1
   3   8   5 499.294 58.5533   2
   3   8   6 2330.62 125.353   2
   3   8   6 2379.01 141.826   1
   3   8   7 31.7391 24.9012   1
   3   8   8 117.326 37.0736   1
   3   8   9 39.7203 26.4976   1
   3   8  10 118.057 42.2151   1
   3   8  11 231.261 61.8912   1
   3   8  12 139.936 49.8747   1
  -3  -9  11 521.121 104.823   1
  -3  -9  10 533.482 103.789   1
   3   9 -10 795.401 124.738   3
  -3  -9   9 37.5897 37.6220   1
   3   9  -9 53.5999 37.7938   3
   3   9  -8 15.9198 43.7832   3
   3   9  -7 3373.24 231.714   3
   3   9  -7 3014.13 203.806   2
   3   9  -6 321.096 67.2105   2
   3   9  -6 306.162 67.7501   3
   3   9  -5 10147.0 392.253   2
   3   9  -5 9580.03 385.583   3
   3   9  -4 3805.53 211.359   3
   3   9  -4 3956.72 219.069   2
   3   9  -3 1890.47 138.658   3
   3   9  -3 1908.94 143.531   2
   3   9  -2 179.300 47.2689   2
   3   9  -2 205.407 47.1299   3
   3   9  -1 799.717 80.0445   3
   3   9  -1 761.718 87.1278   2
   3   9   0 66.9538 29.3033   2
   3   9   0 78.3054 25.3873   3
   3   9   1 67.4624 30.8485   2
   3   9   1 67.7683 21.3315   3
   3   9   2-13.6984 28.3286   2
   3   9   2-2.69664 14.8120   3
   3   9   3 1572.40 116.813   2
   3   9   4 1278.81 100.505   2
   3   9   4 1301.70 94.4962   1
   3   9   5 108.667 33.2001   2
   3   9   5 60.8589 25.8081   1
   3   9   6 128.708 37.5788   1
   3   9   7 2855.61 166.873   1
   3   9   8-10.9240 23.5591   1
   3   9   9 1397.40 126.765   1
   3   9  10 212.440 53.1590   1
   3   9  11 149.105 48.3910   1
  -3 -10  10-7.04043 39.9086   1
  -3 -10   9 596.625 109.432   1
   3  10  -9 535.675 104.552   3
   3  10  -8 80.1174 60.3224   3
   3  10  -7 659.087 101.939   3
   3  10  -6-40.2861 38.8542   2
   3  10  -6 28.9679 37.7530   3
   3  10  -5 389.017 77.2829   2
   3  10  -5 313.298 65.2995   3
   3  10  -4 25.4932 29.2954   2
   3  10  -4 9.23915 25.8596   3
   3  10  -3 2344.55 164.470   3
   3  10  -3 2574.82 181.437   2
   3  10  -2 2751.09 170.405   3
   3  10  -2 2784.66 183.877   2
   3  10  -1 1138.69 112.667   2
   3  10  -1 1013.98 96.5431   3
   3  10   0-4.41613 22.6023   2
   3  10   0 21.3544 18.9469   3
   3  10   1 424.453 67.2655   2
   3  10   1 337.825 48.6701   3
   3  10   2 2576.96 161.287   2
   3  10   3 3820.63 198.184   2
   3  10   4 103.717 36.8955   2
   3  10   5 429.590 59.1657   2
   3  10   6 16.8566 21.3207   1
   3  10   7 1200.88 106.897   1
   3  10   8 313.874 58.5781   1
   3  10   9 405.057 67.9039   1
   3  11  -8 10.6053 32.8563   3
  -3 -11   8 14.8410 40.4796   1
   3  11  -7-1.55088 30.9429   3
   3  11  -6 125.418 49.3993   3
   3  11  -5-3.56754 30.7155   2
   3  11  -5-2.42173 27.6149   3
   3  11  -4-17.9993 29.0068   2
   3  11  -4-35.4892 34.3063   3
   3  11  -3 1835.93 152.790   3
   3  11  -3 1902.03 164.548   2
   3  11  -2 1096.66 110.724   3
   3  11  -2 1231.26 128.117   2
   3  11  -1 43.3742 28.7110   2
   3  11  -1 97.3887 31.6693   3
   3  11   0 412.229 72.9261   2
   3  11   0 417.997 59.3243   3
   3  11   1 11.6242 24.1267   2
   3  11   2 851.439 96.8404   2
   3  11   3 1580.16 128.832   2
   3  11   4 1787.71 132.395   2
   3  12  -7 37.4303 32.7166   3
   3  12  -6 157.876 54.9252   3
   3  12  -5 110.394 52.9690   3
   3  12  -4 175.956 64.9683   2
   3  12  -4 160.246 50.2110   3
   3  12  -3 511.843 93.2053   2
   3  12  -3 503.199 82.8906   3
   3  12  -2 1139.72 117.678   3
   3  12  -2 1344.62 139.861   2
   3  12  -1 568.430 80.1277   3
   3  12  -1 875.929 112.131   2
   3  12   0 1565.01 147.157   2
   3  12   1 2104.43 168.418   2
   3  12   2 854.480 104.314   2
   3  12   3 6538.89 297.731   2
   3  13  -5 3274.67 237.054   3
   3  13  -4 53.1278 33.9583   3
   3  13  -3 337.822 73.3061   3
   3  13  -1 72.4206 36.6863   2
   3  13   0 616.483 94.9316   2
   3  13   1 1040.20 118.950   2
   3  13   2 110.524 40.9054   2
  -4  11   2 305.543 65.7774   3
  -4  11   1 817.386 116.369   3
  -4  11   0 402.234 95.7168   3
  -4  11  -1 47.3475 35.4714   3
  -4  11  -2-6.53874 39.5245   3
  -4  11  -3 1270.00 152.270   3
  -4  10   2 30.1477 42.4841   3
  -4  10   1 204.060 62.2372   3
  -4  10   0 47.5100 38.4928   3
  -4  10  -1 309.588 74.0706   3
  -4  10  -2 129.223 58.0785   3
  -4  10  -3 37.4450 40.4953   3
  -4  10  -4 228.983 69.5609   3
  -4  10  -5 3611.13 261.554   3
  -4  10  -6 1339.73 158.579   3
  -4   9   8 37.3293 35.6304   4
  -4   9   7 253.675 66.5481   4
  -4   9   6 35.3312 36.2136   4
  -4   9   5 47.7584 39.4555   4
  -4   9   4 249.714 69.3815   4
  -4   9   3-18.3425 32.1135   4
  -4   9   3 5.42599 24.9593   3
  -4   9   2 1386.40 136.409   4
  -4   9   2 1672.58 150.339   3
  -4   9   1 444.110 76.1059   4
  -4   9   1 532.059 86.5540   3
  -4   9   0 15.0235 22.1289   4
  -4   9   0 44.6628 38.5679   3
  -4   9  -1 6183.68 315.179   3
  -4   9  -2 705.734 102.124   3
  -4   9  -3 237.578 64.4469   3
  -4   9  -4 431.325 85.5344   3
  -4   9  -5 496.856 92.8380   3
  -4   9  -6 683.719 108.428   3
  -4   9  -7 13.9058 30.3894   3
  -4   9  -8 92.0477 48.1054   3
  -4   8   9 96.7897 51.9820   4
  -4   8   8 1639.52 175.162   4
  -4   8   7 1135.91 141.360   4
  -4   8   6 353.883 77.1411   4
  -4   8   5-4.03543 29.4593   4
  -4   8   4 1332.56 140.850   4
  -4   8   3 241.113 59.7769   4
  -4   8   3 271.947 61.9383   3
  -4   8   2-12.1086 29.7720   4
  -4   8   2 6.29090 28.7951   3
  -4   8   1 532.133 80.8453   4
  -4   8   1 484.966 79.8699   3
  -4   8   0 1830.74 148.891   4
  -4   8   0 2035.29 159.520   3
  -4   8  -1 595.395 79.7769   4
  -4   8  -1 564.515 86.2176   3
  -4   8  -2 277.636 56.1247   4
  -4   8  -2 174.974 52.6351   3
  -4   8  -3 3041.39 182.283   4
  -4   8  -3 3256.86 214.641   3
  -4   8  -4-15.7495 19.4356   4
  -4   8  -4 12.7166 24.8609   3
  -4   8  -5 847.642 109.019   3
  -4   8  -6-41.3512 29.2274   3
  -4   8  -7 32.7293 39.5740   3
  -4   8  -8 242.644 68.0801   3
  -4   8  -9 66.7106 39.2226   3
  -4   7   9-35.2665 51.0478   4
  -4   7   8 238.164 74.7781   4
  -4   7   7 629.811 101.331   4
  -4   7   6-4.24519 30.0135   4
  -4   7   5 2305.52 186.010   4
  -4   7   4 2385.42 180.595   4
  -4   7   3 258.216 61.0448   4
  -4   7   3 329.277 63.0932   3
  -4   7   2 1178.86 113.689   3
  -4   7   2 1112.53 113.630   4
  -4   7   1 81.9006 39.6058   4
  -4   7   1 125.400 42.7760   3
  -4   7   0 3884.99 209.911   4
  -4   7   0 3745.15 211.055   3
  -4   7  -1 266.466 51.8871   4
  -4   7  -1 240.247 53.8421   3
  -4   7  -2 634.800 78.8480   4
  -4   7  -2 638.224 89.7476   3
  -4   7  -3 2127.50 145.833   4
  -4   7  -3 1994.06 155.186   3
  -4   7  -4 333.388 56.4272   4
  -4   7  -4 268.391 60.2262   3
  -4   7  -5 55.6396 26.6245   4
  -4   7  -5 12.9300 32.9606   3
  -4   7  -6 98.8623 41.5250   4
  -4   7  -6 27.8252 29.4345   3
  -4   7  -7 262.054 55.5111   4
  -4   7  -7 192.153 54.7988   3
  -4   7  -8 106.147 53.2098   3
  -4   7  -9 1747.68 171.285   3
  -4   7 -10 947.636 129.215   3
  -4   7 -11 949.852 130.144   3
  -4   6  10 652.930 119.768   4
  -4   6   9 2874.74 236.250   4
  -4   6   8 1023.74 133.025   4
  -4   6   7 11.1817 51.0739   4
  -4   6   6 4258.23 261.349   4
  -4   6   5 2002.73 164.595   4
  -4   6   4 148.912 48.3400   4
  -4   6   3 1062.61 111.818   4
  -4   6   3 1064.81 101.730   3
  -4   6   2 201.270 49.2258   3
  -4   6   2 166.605 44.2711   4
  -4   6   1 293.918 58.1702   4
  -4   6   1 289.138 54.7017   3
  -4   6   0 7647.72 307.483   3
  -4   6   0 7770.20 303.442   4
  -4   6  -1 90.0961 34.4573   4
  -4   6  -1 96.2294 36.3235   3
  -4   6  -2 54.9392 27.6992   4
  -4   6  -2 37.1400 27.8287   3
  -4   6  -3 970.617 90.9418   4
  -4   6  -3 953.592 100.930   3
  -4   6  -4 271.683 50.8013   4
  -4   6  -4 292.508 57.2892   3
  -4   6  -5 273.545 52.2407   4
  -4   6  -5 214.959 55.6363   3
  -4   6  -6-10.4894 27.0995   3
  -4   6  -7 383.118 73.4558   3
  -4   6  -8 840.899 108.307   3
  -4   6  -9 2726.02 204.250   3
  -4   6 -10 5220.38 297.260   3
  -4   6 -11 1795.05 175.345   3
  -4   6 -12 980.984 130.197   3
  -4   5  11 10.8011 42.9675   4
  -4   5  10 1063.45 148.934   4
  -4   5   9 89.4166 43.4115   4
  -4   5   8 1026.79 129.149   4
  -4   5   7 16.7291 30.5902   4
  -4   5   6 169.270 54.6265   4
  -4   5   5 967.802 111.101   4
  -4   5   4 128.600 45.3590   4
  -4   5   3-12.1971 31.8791   4
  -4   5   2 13607.7 445.050   4
  -4   5   2 12954.4 417.149   3
  -4   5   1 255.473 54.1778   4
  -4   5   1 297.377 55.3346   3
  -4   5   0 2225.05 141.324   3
  -4   5   0 1888.41 130.239   4
  -4   5  -1 16461.0 489.201   4
  -4   5  -1 17436.0 509.713   3
  -4   5  -2 2002.32 128.967   4
  -4   5  -2 2153.32 143.178   3
  -4   5  -3 1265.91 107.105   3
  -4   5  -3 1121.92 96.0736   4
   4  -5   4 4108.94 132.772   1
  -4   5  -4 4121.24 208.831   3
  -4   5  -4 4447.12 202.480   4
   4  -5   5 76.5387 21.6508   1
  -4   5  -5 78.4601 34.6191   3
  -4   5  -6 1359.77 122.038   3
   4  -5   6 1212.29 85.7149   1
  -4   5  -7 395.539 66.2849   3
   4  -5   7 410.069 54.8113   1
  -4   5  -8 474.380 77.1207   3
   4  -5   8 482.266 64.4615   1
   4  -5   9 3833.86 207.075   1
  -4   5  -9 4217.40 244.829   3
  -4   5 -10 42.7564 31.2837   3
   4  -5  10 89.6402 37.0549   1
  -4   5 -11 728.997 105.713   3
   4  -5  11 741.294 102.502   1
  -4   5 -12 802.998 112.836   3
   4  -5  12 895.068 114.363   1
  -4   4  11 9145.70 464.079   4
  -4   4  10 3609.35 265.290   4
  -4   4   9 1032.51 106.332   1
  -4   4   9 1134.35 139.175   4
  -4   4   8 21.7374 17.9947   1
  -4   4   8 29.0253 39.9390   4
  -4   4   7 265.420 66.6228   4
  -4   4   7 150.659 39.6520   1
  -4   4   6 15.2703 32.0708   4
  -4   4   6-25.5399 22.0835   1
  -4   4   5 2750.52 130.715   1
  -4   4   5 2871.83 190.575   4
  -4   4   4 2817.36 119.578   1
  -4   4   4 3231.18 190.480   4
  -4   4   3 808.403 91.0495   4
  -4   4   3 549.458 38.3403   1
  -4   4   2 7565.44 278.090   3
  -4   4   2 7708.95 299.155   4
  -4   4   1 13259.7 418.632   4
  -4   4   1 13663.7 412.584   3
  -4   4   0-24.5414 25.7828   4
  -4   4   0 37.4242 23.1162   3
  -4   4  -1 153.351 35.0866   4
  -4   4  -1 151.612 38.3336   3
  -4   4  -2 15.0329 23.1612   3
  -4   4  -2 2.61149 21.1559   4
  -4   4  -3 326.676 52.2005   4
  -4   4  -3 305.800 51.7520   3
   4  -4   3 266.156 24.0014   1
   4  -4   4 3804.77 133.526   1
  -4   4  -4 3948.39 191.057   3
   4  -4   5 1257.60 80.0943   1
  -4   4  -5 1282.19 110.501   3
   4  -4   6 1743.08 107.235   1
  -4   4  -6 1989.82 139.055   3
  -4   4  -7 1932.41 142.362   3
   4  -4   7 1870.11 121.195   1
   4  -4   8 1250.69 107.661   1
  -4   4  -8 1223.19 115.873   3
  -4   4  -9 49.4802 31.4768   3
   4  -4   9 50.0952 32.0324   1
   4  -4  10 2428.09 171.703   1
  -4   4 -10 2081.74 169.728   3
  -4   4 -11 17.1939 22.8582   3
   4  -4  11 10.1571 29.7736   1
  -4   4 -12 375.404 75.9642   3
   4  -4  12 281.777 73.0686   1
  -4   4 -13 732.773 107.773   3
   4  -4  13 704.122 110.160   1
  -4   3  12 745.147 110.129   1
  -4   3  12 1051.68 153.306   4
  -4   3  11 1788.15 166.054   1
  -4   3  11 1959.67 199.058   4
  -4   3  10 969.268 113.666   1
  -4   3  10 1009.18 138.112   4
  -4   3   9 253.409 69.1279   4
  -4   3   9 314.147 67.4457   1
  -4   3   8 1.74198 35.8116   4
  -4   3   8 11.8238 24.9368   1
  -4   3   7 128.130 45.0122   4
  -4   3   7 107.543 40.3143   1
  -4   3   6 62.5343 26.4067   1
  -4   3   6 77.4805 36.6399   4
  -4   3   5 1973.95 114.397   1
   4  -3  -5 1988.04 73.4403   2
  -4   3   5 2168.19 157.204   4
  -4   3   4 761.204 87.3088   4
  -4   3   4 645.570 59.1849   1
   4  -3  -4 760.001 51.8245   2
  -4   3   3 2594.91 160.458   4
  -4   3   3 2529.47 106.457   1
  -4   3   2 5729.47 237.406   4
  -4   3   2 5778.39 220.349   3
  -4   3   2 5211.72 153.394   1
  -4   3   1 11213.9 311.917   4
  -4   3   1 9467.15 165.857   1
  -4   3   1 11532.9 303.858   3
  -4   3   0 5240.43 211.603   4
  -4   3   0 4991.08 202.147   3
  -4   3  -1 5250.17 188.076   3
  -4   3  -1 5379.00 190.873   4
  -4   3  -2 2986.97 102.356   1
  -4   3  -2 3757.70 165.576   4
  -4   3  -2 3954.43 171.599   3
   4  -3   2 3332.87 96.7597   1
   4  -3   3 2163.94 86.0422   1
  -4   3  -3 2231.42 126.468   3
   4  -3   4 13731.4 350.929   1
  -4   3  -4 13692.6 410.038   3
   4  -3   5 322.241 42.2946   1
  -4   3  -5 286.125 46.2679   3
   4  -3   6 2831.68 143.641   1
  -4   3  -6 2841.68 158.357   3
  -4   3  -7 1240.06 106.299   3
   4  -3   7 1278.72 102.271   1
  -4   3  -8 41.2481 24.7043   3
   4  -3   8-3.46536 26.6979   1
   4  -3   9 1842.89 141.125   1
  -4   3  -9 1802.68 141.950   3
   4  -3  10 846.846 101.665   1
  -4   3 -10 1000.70 109.890   3
  -4   3 -11 462.822 77.2369   3
   4  -3  11 498.019 84.7161   1
  -4   3 -12 154.827 45.6462   3
   4  -3  12 109.259 52.5273   1
   4  -3  13 269.134 68.4496   1
  -4   2  13 166.273 63.8010   1
  -4   2  12 386.076 89.4417   4
  -4   2  12 173.958 61.9395   1
  -4   2  11 49.6915 51.7945   4
  -4   2  11-12.6084 31.5056   1
  -4   2  10 63.4074 44.5922   4
  -4   2  10 110.679 48.3352   1
  -4   2   9 857.140 101.712   1
  -4   2   9 840.393 114.677   4
  -4   2   8 365.558 75.0129   4
  -4   2   8 392.182 71.6943   1
  -4   2   7 283.603 63.9394   4
  -4   2   7 335.312 56.6679   1
  -4   2   6 3216.69 163.057   1
  -4   2   6 2887.84 189.417   4
   4  -2  -5 898.262 46.7547   2
  -4   2   5 1065.68 107.371   4
  -4   2   5 964.354 87.7172   1
  -4   2   4 1707.91 129.046   4
   4  -2  -4 1691.70 77.2237   2
  -4   2   4 1799.69 100.187   1
  -4   2   3-4.94518 23.8082   4
   4  -2  -3 20.6697 17.0537   2
  -4   2   2 6073.74 240.651   4
  -4   2   1 33.2455 21.2171   4
  -4   2   1 110.684 31.5920   3
  -4   2   1 51.4338 10.9232   1
  -4   2   0 4629.91 183.813   4
  -4   2   0 4436.59 173.615   3
  -4   2   0 3760.32 112.703   1
  -4   2  -1 679.147 64.6102   4
  -4   2  -1 493.176 34.1582   1
  -4   2  -1 525.114 56.4103   3
  -4   2  -2 992.919 75.9658   3
   4  -2   2 926.219 48.2329   1
   4  -2   3 106.359 20.1887   1
  -4   2  -3 123.161 28.2052   3
   4  -2   4 477.624 45.2848   1
  -4   2  -4 518.437 56.5831   3
   4  -2   5 11224.3 321.493   1
  -4   2  -5 10867.9 339.975   3
   4  -2   6 4399.88 183.700   1
  -4   2  -6 4399.14 192.247   3
  -4   2  -7 357.432 54.0644   3
   4  -2   7 353.170 55.1473   1
   4  -2   8 2738.77 162.271   1
  -4   2  -8 2777.10 162.331   3
   4  -2   9 1745.03 137.008   1
  -4   2  -9 1672.11 129.511   3
  -4   2 -10 294.447 58.1955   3
   4  -2  10 283.247 62.8119   1
   4  -2  11 1970.26 162.786   1
  -4   2 -11 1739.38 143.761   3
  -4   2 -12 20.9419 24.1426   3
   4  -2  12 25.9307 34.3763   1
   4  -2  13 185.828 52.7808   1
  -4   1  13 925.076 139.498   4
  -4   1  13 798.522 122.705   1
  -4   1  12-3.55603 32.7530   4
  -4   1  12-62.9535 52.3542   1
  -4   1  11 453.941 96.7604   4
  -4   1  11 158.180 51.2374   1
  -4   1  10 506.544 84.2683   1
  -4   1  10 351.907 82.0946   4
  -4   1   9 181.048 53.7206   1
  -4   1   9 304.241 69.8368   4
  -4   1   8-17.4924 36.3080   4
  -4   1   8 13.7343 28.9574   1
  -4   1   7 115.737 42.7306   1
  -4   1   7 171.799 53.0360   4
  -4   1   6-23.9519 31.5394   1
  -4   1   6 59.8866 35.2816   4
   4  -1  -6 23.7273 8.43994   2
   4  -1  -5 393.085 32.6820   2
  -4   1   5 407.915 64.8856   4
  -4   1   4 2277.27 143.916   4
   4  -1  -4 2303.89 94.0354   2
  -4   1   3 1061.51 94.8877   4
   4  -1  -3 1219.36 67.1076   2
  -4   1   2 3263.05 157.704   4
   4  -1  -2 3324.15 127.510   2
  -4   1   1 772.801 72.7144   4
  -4   1   0 17319.4 448.747   3
  -4   1   0 17869.2 467.831   4
  -4   1  -1 1602.32 90.2005   3
  -4   1  -1 1682.91 100.698   4
   4  -1   1 1603.92 65.0953   1
  -4   1  -2 15603.1 394.836   3
   4  -1   2 14342.7 349.968   1
  -4   1  -3 4138.69 158.535   3
   4  -1   3 3957.47 139.266   1
   4  -1   4 394.494 43.3316   1
  -4   1  -4 332.778 42.1135   3
   4  -1   5 2292.62 116.512   1
  -4   1  -5 2182.64 115.167   3
   4  -1   6 15809.2 435.815   1
  -4   1  -6 14951.8 422.258   3
   4  -1   7 10526.1 345.251   1
  -4   1  -7 10546.7 333.955   3
   4  -1   8 2022.15 136.947   1
  -4   1  -8 1996.21 126.952   3
  -4   1  -9 146.742 36.4360   3
   4  -1   9 92.1689 27.0201   1
  -4   1 -10 39.9741 23.7737   3
   4  -1  10 56.2303 36.0503   1
  -4   1 -11-33.5063 24.5311   3
   4  -1  11-12.0653 40.3263   1
   4  -1  12 1569.02 158.784   1
   4  -1  13 859.454 119.131   1
   4  -1  14 641.328 106.810   1
  -4   0  13 792.104 125.932   4
  -4   0  13 680.815 115.027   1
  -4   0  12 1078.07 140.299   1
  -4   0  12 1215.91 151.903   4
  -4   0  11 5153.85 293.544   1
  -4   0  11 4623.53 295.304   4
  -4   0  10 1.44443 45.4494   4
  -4   0  10 154.284 54.9145   1
  -4   0   9 406.325 77.1291   1
  -4   0   9 462.349 80.5005   4
  -4   0   8-4.42083 36.5684   4
  -4   0   8 67.3293 39.1069   1
  -4   0   7 1053.62 100.248   1
   4   0  -7 952.558 51.5823   2
  -4   0   7 886.006 101.030   4
  -4   0   6 586.957 79.1165   4
   4   0  -6 513.366 39.5812   2
   4   0  -5 495.811 40.6886   2
  -4   0   5 496.160 68.6904   4
  -4   0   4 5183.96 220.350   4
   4   0  -4 5206.90 164.212   2
   4   0  -3 2295.00 98.9755   2
  -4   0   3 2360.82 135.089   4
   4   0  -2 17502.8 426.009   2
  -4   0   2 17456.6 469.763   4
   4   0  -1 23125.9 545.404   2
  -4   0   1 23344.7 577.971   4
  -4   0   0 664.753 59.5358   4
  -4   0  -1 235.004 31.7740   3
   4   0   1 260.392 28.0656   1
  -4   0  -2 11070.7 301.082   3
   4   0   2 11663.2 291.105   1
   4   0   3 16345.9 401.067   1
  -4   0  -3 15964.0 401.449   3
  -4   0  -4 26387.5 619.507   3
   4   0   4 27794.4 638.653   1
   4   0   5 195.624 35.5919   1
  -4   0  -5 197.257 30.2530   3
  -4   0  -6 1191.66 79.2100   3
   4   0   6 1394.09 99.9123   1
   4   0   7 3479.90 176.076   1
  -4   0  -7 3685.03 157.597   3
  -4   0  -8 648.331 64.3523   3
   4   0   8 674.340 80.6226   1
  -4   0  -9 95.1943 28.3859   3
   4   0   9 17.0926 28.5219   1
  -4   0 -10 347.493 52.7039   3
   4   0  10 367.821 68.5690   1
   4   0  11 383.124 73.6307   1
   4   0  12 413.547 83.5736   1
   4   0  13-59.1736 49.5225   1
   4   0  14 15.1891 38.1986   1
  -4  -1  13 305.785 77.3603   4
  -4  -1  13 135.541 64.8900   1
  -4  -1  12 237.028 69.4466   4
  -4  -1  12 164.594 68.5452   1
  -4  -1  11 33.2352 47.5479   4
  -4  -1  11 29.2286 35.5081   1
  -4  -1  10 96.5250 47.8771   4
  -4  -1  10 146.140 53.3941   1
  -4  -1   9 524.995 93.9370   1
  -4  -1   9 358.263 72.1873   4
  -4  -1   8 108.864 45.8973   4
  -4  -1   8-3.02698 31.4495   1
  -4  -1   7 4153.40 218.209   4
   4   1  -7 4154.71 147.609   2
  -4  -1   6 48.3534 39.1750   4
   4   1  -6 64.9983 20.2323   2
   4   1  -5 61444.2 1315.35   2
  -4  -1   5 62243.7 1412.03   4
  -4  -1   4 1585.29 108.596   4
   4   1  -4 1597.07 82.6122   2
  -4  -1   3 175.799 38.2317   4
   4   1  -3 182.953 28.5415   2
  -4  -1   2 1085.05 79.9310   4
   4   1  -2 1241.92 72.8442   2
  -4  -1   1 2623.73 122.376   4
   4   1  -1 2706.72 115.256   2
  -4  -1   0 18081.8 464.765   4
   4   1   0 19377.3 463.553   2
   4   1   1 4072.86 153.965   2
   4   1   1 4074.26 134.362   1
   4   1   2 2265.30 96.8449   1
  -4  -1  -2 2031.92 85.1566   3
  -4  -1  -3 63965.7 1347.90   3
   4   1   3 65178.1 1377.31   1
   4   1   4 20124.6 502.084   1
  -4  -1  -4 19946.3 461.444   3
   4   1   5 230.456 40.5467   1
  -4  -1  -5 243.740 27.6705   3
   4   1   6 1680.71 110.550   1
  -4  -1  -6 1845.82 88.3348   3
  -4  -1  -7 445.374 45.0118   3
   4   1   7 384.121 58.2033   1
   4   1   8 225.489 46.3097   1
  -4  -1  -8 228.419 34.7915   3
   4   1   9 3.60617 33.5606   1
  -4  -1  -9-13.8113 15.5689   3
   4   1  10 421.798 70.5475   1
   4   1  11 86.1045 39.3271   1
   4   1  12 344.559 76.9034   1
   4   1  13 907.999 122.853   1
   4   1  14 2003.66 189.135   1
  -4  -2  13-5.07824 37.6132   1
  -4  -2  12 57.6493 42.1678   4
  -4  -2  12 75.1554 51.1561   1
  -4  -2  11 184.072 61.9283   4
  -4  -2  11 106.462 59.3020   1
  -4  -2  10 783.317 112.276   1
  -4  -2  10 909.077 115.026   4
  -4  -2   9 1445.48 142.845   1
  -4  -2   9 1372.36 134.331   4
  -4  -2   8 31.7726 34.7110   4
  -4  -2   8 72.3785 55.1526   1
   4   2  -8 81.4337 19.9879   2
  -4  -2   7 2543.56 160.244   4
   4   2  -7 2519.64 118.307   2
   4   2  -6 48456.2 1081.55   2
  -4  -2   6 49943.9 1162.94   4
   4   2  -5 6964.09 223.270   2
  -4  -2   5 6606.83 254.792   4
   4   2  -4 375.026 42.4719   2
  -4  -2   4 278.379 43.5561   4
   4   2  -3 5373.88 185.368   2
  -4  -2   3 5783.44 208.914   4
  -4  -2   2 81.1856 23.6996   4
   4   2  -2 62.9013 22.2054   2
  -4  -2   1 574.895 50.8582   4
   4   2  -1 541.003 54.3070   2
  -4  -2   0 4627.13 163.955   4
   4   2   0 4858.39 169.371   2
   4   2   1 797.433 67.0637   2
   4   2   1 851.871 56.4339   1
   4   2   2 203.710 20.5175   3
   4   2   2 281.951 34.9967   1
   4   2   2 305.417 43.6795   2
   4   2   3 2338.21 108.147   1
   4   2   3 2089.48 71.8743   3
   4   2   3 2208.02 110.445   2
   4   2   4 1623.37 94.9911   2
  -4  -2  -4 1481.46 56.1651   3
   4   2   4 1463.13 91.5681   1
   4   2   4 1367.19 54.3756   3
  -4  -2  -5 2720.38 88.6672   3
   4   2   5 2592.68 133.684   1
   4   2   5 2528.75 126.742   2
  -4  -2  -6 614.369 40.7622   3
   4   2   6 578.591 63.9776   1
  -4  -2  -7 456.697 38.6208   3
   4   2   7 525.667 68.5746   1
   4   2   8 241.017 52.3936   1
  -4  -2  -8 261.605 32.6405   3
   4   2   8 310.003 49.2686   2
   4   2   9 904.157 99.1741   1
   4   2   9 920.944 81.9950   2
   4   2  10 9991.42 331.397   2
   4   2  10 10472.9 398.698   1
   4   2  11 369.109 70.8924   1
   4   2  12 716.573 105.790   1
   4   2  13 286.777 77.2375   1
  -4  -3  13 22.9422 37.9176   1
   4   3 -13 134.048 43.4122   3
  -4  -3  12-25.0940 43.8866   1
   4   3 -12 31.6137 40.8328   3
  -4  -3  11 1216.74 150.160   1
  -4  -3  11 1273.77 138.564   4
  -4  -3  10 2025.07 180.614   1
  -4  -3  10 1972.73 164.026   4
  -4  -3   9 3542.68 224.908   1
  -4  -3   9 3466.12 211.902   4
   4   3  -8 1038.69 82.7923   2
  -4  -3   8 1145.78 111.553   4
  -4  -3   7 1142.55 102.520   4
   4   3  -7 1174.78 84.7334   2
   4   3  -6-9.39427 21.3875   2
  -4  -3   6 17.2316 20.8890   4
  -4  -3   5 4264.86 189.076   4
   4   3  -5 4350.45 173.995   2
   4   3  -4 1642.73 96.6707   2
  -4  -3   4 1548.76 99.0687   4
  -4  -3   3 1551.27 92.9913   4
   4   3  -3 1759.73 96.8569   2
  -4  -3   2 6196.29 204.087   4
   4   3  -2 6466.43 214.388   2
  -4  -3   1 171.413 26.0359   4
   4   3  -1 196.816 34.9492   2
   4   3   0 436.858 52.5288   2
  -4  -3   0 369.807 37.7644   4
   4   3   1 61472.5 1348.92   2
   4   3   1 63112.3 1331.04   1
   4   3   2 13961.7 314.357   3
   4   3   2 13874.5 366.544   1
   4   3   2 15364.2 386.695   2
   4   3   3 1946.63 103.117   2
   4   3   3 1961.53 103.111   1
   4   3   4 13557.5 387.558   1
   4   3   4 14997.9 391.974   2
   4   3   5 1358.44 88.0356   2
   4   3   5 1222.89 93.6482   1
   4   3   6 32.6973 26.0544   1
   4   3   6 105.996 32.2871   2
   4   3   7 968.280 77.7158   2
  -4  -3  -7 1002.56 42.9515   3
   4   3   7 1085.93 95.6180   1
   4   3   8-7.46440 31.9757   1
   4   3   8-3.21357 19.2047   2
   4   3   9 4157.92 220.552   1
   4   3   9 4335.36 183.164   2
   4   3  10 870.457 102.957   1
   4   3  11 253.402 60.6491   1
   4   3  12 4154.76 256.182   1
   4   3  13 511.471 90.8340   1
  -4  -4  12-42.2061 48.0520   1
   4   4 -12 42.2586 51.1641   3
   4   4 -11 3587.47 250.763   3
  -4  -4  11 3566.60 263.119   1
  -4  -4  10 583.318 88.4290   4
  -4  -4  10 501.993 96.6869   1
  -4  -4   9 336.141 66.7690   4
  -4  -4   9 279.823 66.8459   1
   4   4  -9 320.163 50.7286   2
  -4  -4   8 0.29898 27.8265   4
   4   4  -8 5.81777 17.5778   2
   4   4  -7 1155.42 90.3980   2
  -4  -4   7 1118.12 101.089   4
  -4  -4   6-13.5050 22.1377   4
   4   4  -6 14.9407 19.7322   2
   4   4  -5 293.388 44.7702   2
  -4  -4   5 368.118 50.9036   4
   4   4  -4 988.946 81.7893   2
  -4  -4   4 1085.54 78.2685   4
  -4  -4   3 2279.86 109.344   4
   4   4  -3 2544.29 127.917   2
  -4  -4   2 233.578 30.2737   4
   4   4  -2 239.538 39.5244   2
  -4  -4   1 205.499 27.4566   4
   4   4  -1 158.625 32.1431   2
  -4  -4   0 6708.33 194.166   4
   4   4   0 6933.57 231.658   2
   4   4   1 4409.43 171.651   2
   4   4   2 6552.85 212.838   2
   4   4   2 5504.78 137.699   3
   4   4   2 5661.39 138.219   3
   4   4   2 6360.68 201.754   1
   4   4   3 23082.6 569.584   1
   4   4   3 23257.3 573.125   2
   4   4   4 700.467 64.5589   2
   4   4   4 688.426 65.5161   1
   4   4   5 251.263 47.7294   1
   4   4   5 125.299 30.9778   2
   4   4   6 628.537 75.5503   1
   4   4   6 489.923 53.8965   2
   4   4   7 274.429 52.5700   1
   4   4   7 312.289 43.8373   2
   4   4   8 2230.63 148.763   1
   4   4   8 2044.04 116.131   2
   4   4   9 159.793 49.5255   1
   4   4   9 138.036 29.8271   2
   4   4  10 655.777 91.8911   1
   4   4  11-25.6068 35.6594   1
   4   4  12 27.0762 35.4635   1
   4   4  13-67.0615 50.2957   1
  -4  -5  12 241.853 81.9879   1
   4   5 -12 131.213 61.6200   3
  -4  -5  11 169.006 68.4030   1
   4   5 -11 155.561 73.8102   3
  -4  -5  10 150.983 60.2162   1
   4   5 -10 102.111 52.1322   3
   4   5  -9 5.92628 24.6559   2
   4   5  -9 29.9504 47.7750   3
  -4  -5   8 137.736 38.7772   4
   4   5  -8 71.1750 27.8495   2
   4   5  -8 128.597 55.8991   3
   4   5  -7 1573.92 114.105   2
  -4  -5   7 1389.36 106.707   4
  -4  -5   6 3251.23 158.897   4
   4   5  -6 3323.09 168.117   2
   4   5  -5 11656.8 364.586   2
  -4  -5   5 11523.6 334.560   4
   4   5  -4 889.245 79.9774   2
  -4  -5   4 840.584 61.4262   4
   4   5  -3 11449.5 350.098   2
  -4  -5   3 10937.7 292.723   4
  -4  -5   2 427.123 34.4904   4
   4   5  -2 516.340 59.8233   2
  -4  -5   1 5835.35 169.280   4
   4   5  -1 6144.96 222.832   2
   4   5  -1 6419.96 205.799   3
   4   5   0 16564.3 446.253   2
  -4  -5   0 16307.1 384.667   4
   4   5   0 16508.5 402.910   3
   4   5   1 4303.20 176.177   2
   4   5   1 4105.11 129.337   3
   4   5   2 1265.77 88.1351   2
   4   5   2 1244.13 48.2614   3
   4   5   2 1214.55 80.6897   1
   4   5   3 4826.47 184.248   1
   4   5   3 4902.92 189.637   2
   4   5   4 913.927 77.7545   1
   4   5   4 1051.79 78.6754   2
   4   5   5 1887.91 117.702   1
   4   5   5 2066.13 114.007   2
   4   5   6 69.1087 34.3953   1
   4   5   6 52.3173 24.0492   2
   4   5   7 637.836 63.3460   2
   4   5   7 599.066 77.7119   1
   4   5   8 51.5002 30.6365   1
   4   5   8 47.6698 21.9205   2
   4   5   9 6931.25 301.355   1
   4   5  10 1007.16 113.260   1
   4   5  11 825.945 106.309   1
   4   5  12 47.4615 33.9927   1
   4   5  13 154.087 53.8815   1
   4   6 -12 1059.13 143.242   3
  -4  -6  12 1090.05 156.319   1
  -4  -6  11 1016.98 147.369   1
   4   6 -11 967.681 135.139   3
   4   6 -10 1865.79 177.200   3
  -4  -6  10 1448.21 161.822   1
   4   6  -9 1570.22 157.575   3
   4   6  -9 1517.11 125.851   2
   4   6  -8 1039.84 122.610   3
   4   6  -8 1203.79 110.949   2
   4   6  -7 195.640 44.8685   2
   4   6  -7 272.010 69.7588   3
   4   6  -6 3290.71 177.911   2
   4   6  -6 3259.75 198.040   3
   4   6  -5 1619.64 117.642   2
   4   6  -5 1743.93 134.102   3
  -4  -6   5 1678.85 86.1548   4
   4   6  -4 2201.06 136.795   2
   4   6  -4 2408.49 143.714   3
  -4  -6   4 2125.80 87.4346   4
   4   6  -3 1156.85 93.0710   3
   4   6  -3 1114.20 94.0268   2
  -4  -6   3 1145.04 50.7421   4
   4   6  -2 170.644 37.8885   2
   4   6  -2 326.702 47.9962   3
  -4  -6   2 188.497 14.7179   4
  -4  -6   1 12.0478 5.66629   4
  -4  -6   1 9.89948 4.75220   4
   4   6  -1-10.4435 24.9145   2
   4   6  -1-0.37092 16.2950   3
   4   6   0 5030.08 204.037   2
  -4  -6   0 4908.78 137.262   4
   4   6   0 5007.69 171.765   3
  -4  -6   0 4967.53 140.809   4
   4   6   1 5835.25 223.561   2
   4   6   1 5852.78 176.312   3
   4   6   2 564.884 36.2320   3
   4   6   2 585.982 65.7120   2
   4   6   2 652.192 60.1166   1
   4   6   3 423.958 51.9363   2
   4   6   3 394.809 50.5548   1
   4   6   4 131.097 34.8081   1
   4   6   4 112.385 27.8047   2
   4   6   5 80.6874 34.2256   1
   4   6   5 71.8858 24.7253   2
   4   6   6 110.242 38.3808   1
   4   6   6 94.3994 27.7586   2
   4   6   7 80.1332 37.3692   1
   4   6   7 90.0934 26.3615   2
   4   6   8 7157.59 297.487   1
   4   6   8 7608.65 253.191   2
   4   6   9 6679.23 296.418   1
   4   6  10 2596.55 182.165   1
   4   6  11 406.630 78.7469   1
   4   6  12 858.949 116.900   1
   4   6  13 488.405 91.1582   1
  -4  -7  11-58.1762 62.1072   1
   4   7 -11 22.8605 44.7054   3
   4   7 -10 1092.77 135.561   3
  -4  -7  10 967.036 136.924   1
   4   7  -9 43.3303 29.9798   2
   4   7  -9 13.5760 39.9323   3
   4   7  -8 2545.35 194.168   3
   4   7  -8 2583.29 173.989   2
   4   7  -7 757.482 98.8206   3
   4   7  -7 740.181 89.4869   2
   4   7  -6 183.038 44.9892   2
   4   7  -6 199.766 53.0429   3
   4   7  -5 745.640 86.1023   3
   4   7  -5 818.159 90.0785   2
   4   7  -4 767.464 84.0469   2
   4   7  -4 753.505 86.0777   3
   4   7  -3-51.6544 38.1693   2
   4   7  -3 10.0693 23.5557   3
   4   7  -2 5334.02 231.287   2
   4   7  -2 5347.71 214.186   3
   4   7  -1 474.628 64.8392   2
   4   7  -1 452.280 52.0867   3
   4   7   0 31691.9 773.433   2
   4   7   0 29385.0 708.970   3
   4   7   1 5294.43 176.373   3
   4   7   1 5782.30 230.863   2
   4   7   2 4.68793 24.5129   2
   4   7   2-0.78281 7.46966   3
   4   7   3 1529.00 105.967   2
   4   7   3 1233.92 49.9767   3
   4   7   3 1270.60 91.6674   1
   4   7   4 194.592 39.3404   2
   4   7   4 121.940 35.9376   1
   4   7   5 2378.60 138.519   1
   4   7   5 2588.91 138.066   2
   4   7   6 2324.83 129.633   2
   4   7   6 2185.66 140.425   1
   4   7   7 2763.77 165.754   1
   4   7   7 2788.35 141.546   2
   4   7   8 2826.82 174.258   1
   4   7   9 96.3271 41.0461   1
   4   7  10 81.3847 43.7314   1
   4   7  11 761.546 104.229   1
   4   7  12 69.9852 46.5697   1
   4   8 -11 5367.27 338.893   3
  -4  -8  11 4842.87 330.626   1
  -4  -8  10 389.182 91.6088   1
   4   8 -10 561.073 109.340   3
   4   8  -9 4293.25 277.088   3
   4   8  -8 70.8234 36.4113   2
   4   8  -8 37.7651 35.9687   3
   4   8  -7 1131.63 124.698   3
   4   8  -7 1302.80 126.747   2
   4   8  -6 508.218 77.6494   2
   4   8  -6 273.125 60.3701   3
   4   8  -5 1190.43 116.720   3
   4   8  -5 1104.77 109.805   2
   4   8  -4 3100.14 182.598   3
   4   8  -4 3013.69 182.038   2
   4   8  -3 103.667 41.9635   2
   4   8  -3 53.3733 27.2847   3
   4   8  -2 4964.55 229.714   2
   4   8  -2 4582.33 209.623   3
   4   8  -1 6951.78 276.912   2
   4   8  -1 6603.47 245.757   3
   4   8   0 31.7208 26.2943   2
   4   8   0 101.631 26.2101   3
   4   8   1 574.806 71.8232   2
   4   8   1 576.456 54.1971   3
   4   8   2 447.540 40.5676   3
   4   8   2 534.466 69.6839   2
   4   8   3 40.5977 27.3678   2
   4   8   4 380.035 56.4457   2
   4   8   4 357.214 52.9361   1
   4   8   5 506.999 64.3777   2
   4   8   5 396.592 58.3234   1
   4   8   6 141.092 35.4034   2
   4   8   6 158.140 39.5084   1
   4   8   7 4132.11 209.851   1
   4   8   8 6962.94 298.364   1
   4   8   9 62.6949 37.4054   1
   4   8  10 75.8849 37.1277   1
   4   8  11 458.163 78.6950   1
   4   8  12 9.53286 31.1322   1
  -4  -9  10 7.08592 48.4079   1
   4   9 -10-42.3109 52.9817   3
   4   9  -9 1124.24 144.586   3
   4   9  -8 1443.56 154.966   3
   4   9  -8 1217.59 130.697   2
   4   9  -7 7.95954 28.6832   2
   4   9  -7-42.8565 49.3014   3
   4   9  -6 497.857 81.2870   2
   4   9  -6 514.056 86.6127   3
   4   9  -5 7458.36 326.550   3
   4   9  -5 7751.86 331.771   2
   4   9  -4 3.62241 27.7988   2
   4   9  -4 22.0283 31.4725   3
   4   9  -3 1917.56 139.592   3
   4   9  -3 1829.92 145.498   2
   4   9  -2 8.10108 25.3999   2
   4   9  -2 78.2726 35.6731   3
   4   9  -1 5340.70 251.459   2
   4   9  -1 5499.34 227.397   3
   4   9   0 174.731 45.0922   2
   4   9   0 169.439 34.9440   3
   4   9   1 857.135 69.7425   3
   4   9   1 812.590 89.0553   2
   4   9   2 192.796 49.7651   2
   4   9   3 4367.66 209.369   2
   4   9   4 282.438 48.4087   2
   4   9   4 290.458 52.7705   1
   4   9   5 35.2178 24.9827   2
   4   9   5-14.4475 27.2066   1
   4   9   6 1316.02 102.600   2
   4   9   6 1226.82 105.934   1
   4   9   7 655.165 80.6654   1
   4   9   8 243.826 54.0773   1
   4   9   9 2750.07 184.664   1
   4   9  10 23.7344 27.1588   1
   4   9  11-16.5161 28.6425   1
  -4 -10   9 168.464 66.2566   1
   4  10  -9 239.886 68.6003   3
   4  10  -8 47.0180 48.2060   3
   4  10  -7 285.683 72.1856   2
   4  10  -7 245.961 65.7905   3
   4  10  -6 7809.55 367.326   3
   4  10  -6 8198.85 370.396   2
   4  10  -5 113.234 45.7505   2
   4  10  -5 70.1839 45.7235   3
   4  10  -4 815.416 102.379   2
   4  10  -4 741.757 96.0370   3
   4  10  -3 739.723 97.7718   2
   4  10  -3 774.285 91.1009   3
   4  10  -2 498.555 79.1480   2
   4  10  -2 476.318 69.7902   3
   4  10  -1 146.522 46.7687   2
   4  10  -1 138.606 36.8572   3
   4  10   0 2921.70 155.876   3
   4  10   0 3108.47 189.330   2
   4  10   1 553.954 79.2772   2
   4  10   2-2.91928 25.2934   2
   4  10   3 1925.17 139.712   2
   4  10   4 9.15315 21.9672   2
   4  10   5 96.9521 33.8122   2
   4  10   6 204.827 44.7379   1
   4  10   7 31.3642 27.2719   1
   4  10   8 1323.52 120.242   1
   4  10   9 1317.43 124.574   1
   4  10  10 135.500 44.2336   1
  -4 -11   9-45.0750 38.6489   1
   4  11  -8-38.5911 38.2883   3
   4  11  -7 215.701 58.1573   2
   4  11  -7 171.330 53.5330   3
   4  11  -6 269.645 68.6881   2
   4  11  -6 261.283 71.7896   3
   4  11  -5 217.293 58.7397   2
   4  11  -5 200.292 63.6671   3
   4  11  -4 67.9402 42.9955   2
   4  11  -4 89.2249 38.5140   3
   4  11  -3 134.820 55.2573   2
   4  11  -3 19.3640 26.6457   3
   4  11  -2 605.190 89.2718   2
   4  11  -2 619.751 80.9450   3
   4  11  -1 1769.71 130.743   3
   4  11  -1 1745.16 148.812   2
   4  11   0 4539.21 246.743   2
   4  11   1 234.917 55.8141   2
   4  11   2 1002.23 106.432   2
   4  11   3 24.3685 24.6986   2
   4  11   4 864.221 95.9548   2
   4  11   7 918.808 95.0118   1
   4  11   8 147.176 41.9196   1
   4  12  -7-54.5286 36.1627   3
   4  12  -6 351.040 81.2664   2
   4  12  -6 267.473 75.7999   3
   4  12  -5 5.52371 32.5128   2
   4  12  -5-19.0515 35.6979   3
   4  12  -4 35.2541 47.2015   2
   4  12  -4-6.71897 40.3372   3
   4  12  -3 241.940 70.8954   2
   4  12  -3 155.731 48.9851   3
   4  12  -2 135.538 45.7865   2
   4  12  -2 206.412 49.9948   3
   4  12  -1-8.58823 42.2002   2
   4  12   0-12.5818 28.5663   2
   4  12   1-53.1329 39.5032   2
   4  12   2 5901.24 290.383   2
   4  12   3 677.780 90.8338   2
   4  13  -5 5846.68 325.037   3
   4  13  -4 115.179 57.8617   2
   4  13  -4 273.590 63.2602   3
   4  13  -3 165.653 62.2050   2
   4  13  -2 131.758 53.4104   2
   4  13  -1 272.282 69.8645   2
   4  13   0 764.538 106.462   2
   4  13   1 387.771 79.4728   2
   4  13   2 596.921 92.4244   2
   4  13   3 4420.76 252.318   2
   4  14   0 93.0654 45.9890   2
   4  14   1 144.487 50.7868   2
  -5  10   2 372.507 79.2199   3
  -5  10   1 476.554 90.9469   3
  -5  10   0-41.4067 43.8139   3
  -5  10  -1 59.3559 38.5122   3
  -5  10  -2-24.0675 34.6145   3
  -5  10  -3 89.2548 49.3838   3
  -5  10  -4-9.21904 52.1480   3
  -5   9   6 32.9392 41.2010   4
  -5   9   5 88.6226 47.0475   4
  -5   9   4 125.135 54.2916   4
  -5   9   3 17.0386 23.5778   4
  -5   9   2 12.5758 39.3154   3
  -5   9   2 20.5818 26.5821   4
  -5   9   1 9.97996 32.3074   3
  -5   9   1 18.3736 33.5759   4
  -5   9   0 837.844 115.031   3
  -5   9   0 905.296 112.233   4
  -5   9  -1 1585.46 158.765   3
  -5   9  -2-56.0245 47.7103   3
  -5   9  -3 534.456 97.4986   3
  -5   9  -4 493.072 95.1878   3
  -5   9  -5 752.755 116.205   3
  -5   9  -6 74.7716 45.5095   3
  -5   9  -7 13.8708 32.9507   3
  -5   8   7 2.90857 39.1736   4
  -5   8   6 404.674 92.2642   4
  -5   8   5 61.3691 45.8732   4
  -5   8   4 26.4948 37.7295   4
  -5   8   3 647.050 100.429   4
  -5   8   2 568.426 94.6021   4
  -5   8   2 469.158 82.1521   3
  -5   8   1 36.2479 30.6789   3
  -5   8   1-9.52037 29.2946   4
  -5   8   0 1800.04 159.140   3
  -5   8   0 1702.89 154.044   4
  -5   8  -1 259.585 64.6265   4
  -5   8  -1 290.556 65.2931   3
  -5   8  -2 1070.49 115.038   4
  -5   8  -2 1081.84 125.712   3
  -5   8  -3 1210.19 121.356   4
  -5   8  -3 1248.27 136.136   3
  -5   8  -4 1163.06 120.782   4
  -5   8  -4 1383.73 149.568   3
  -5   8  -5 8677.63 403.119   3
  -5   8  -6 898.811 122.696   3
  -5   8  -7 588.471 102.100   3
  -5   8  -8 55.1357 44.3877   3
  -5   8  -9-22.3809 30.5518   3
  -5   7   8 39.2772 41.8053   4
  -5   7   7 64.2022 47.1324   4
  -5   7   6 714.558 114.477   4
  -5   7   5 815.499 114.568   4
  -5   7   4 1322.38 145.672   4
  -5   7   3 741.781 103.599   4
  -5   7   2 984.469 110.052   3
  -5   7   2 999.908 117.372   4
  -5   7   1 54.4885 37.4846   4
  -5   7   1 29.3400 28.0603   3
  -5   7   0 934.417 108.411   3
  -5   7   0 1015.59 112.447   4
  -5   7  -1 42.9209 27.1244   4
  -5   7  -1 50.3264 30.5461   3
  -5   7  -2 2981.60 189.577   4
  -5   7  -2 2864.11 195.384   3
  -5   7  -3 81.9647 36.1145   4
  -5   7  -3 63.5473 35.2604   3
  -5   7  -4 5.73673 28.1985   4
  -5   7  -4 52.9183 33.8877   3
  -5   7  -5 74.6517 33.8677   4
  -5   7  -5 98.1833 43.2595   3
  -5   7  -6 1974.64 172.832   3
  -5   7  -6 1753.45 148.144   4
  -5   7  -7 328.230 64.2690   4
  -5   7  -7 202.654 58.3457   3
  -5   7  -8-108.755 47.3686   3
  -5   7  -9 36.6781 33.3919   3
  -5   7 -10-40.9246 36.6649   3
  -5   6   9-17.4744 36.8370   4
  -5   6   8 1370.98 159.485   4
  -5   6   7 6080.88 343.206   4
  -5   6   6 4537.16 285.376   4
  -5   6   5 459.343 83.3390   4
  -5   6   4 1336.12 137.970   4
  -5   6   3 82.1411 44.0202   4
  -5   6   2 565.799 85.7058   4
  -5   6   2 477.326 73.1096   3
  -5   6   1 59.9120 38.1703   3
  -5   6   1 0.18303 26.9624   4
  -5   6   0 2590.36 174.633   4
  -5   6   0 2565.16 171.368   3
  -5   6  -1 1493.41 128.778   4
  -5   6  -1 1504.47 131.980   3
  -5   6  -2-19.1340 26.8522   4
  -5   6  -2 61.0488 32.2223   3
  -5   6  -3 546.050 76.1832   4
  -5   6  -3 598.617 85.2211   3
  -5   6  -4 64.0925 33.9869   4
  -5   6  -4 44.2221 24.4735   3
  -5   6  -5 209.108 50.6396   4
  -5   6  -5 66.2603 43.0208   3
  -5   6  -6 98.5115 41.8712   4
  -5   6  -6 85.1444 39.8405   3
  -5   6  -7 73.0608 43.0100   3
  -5   6  -8 836.828 110.710   3
  -5   6  -9 2543.60 201.408   3
  -5   6 -10 557.126 96.5006   3
  -5   6 -11 1955.94 184.785   3
  -5   5  10 20.5581 41.1399   4
  -5   5   9 1523.81 172.249   4
  -5   5   8 113.022 49.0815   4
  -5   5   7 2039.90 189.058   4
  -5   5   6-39.0142 36.5717   4
  -5   5   5 911.410 115.253   4
  -5   5   4 556.149 87.4041   4
  -5   5   3 348.303 69.8862   4
  -5   5   2 275.333 60.1982   4
  -5   5   2 219.559 50.0841   3
  -5   5   1 3355.46 198.572   4
  -5   5   1 3528.58 196.154   3
  -5   5   0 13714.4 453.068   4
  -5   5   0 13329.5 442.744   3
  -5   5  -1 9256.41 351.007   3
  -5   5  -1 9878.86 360.817   4
  -5   5  -2 98.9911 37.5332   4
  -5   5  -2 92.7453 37.0135   3
  -5   5  -3 110.203 38.6831   4
  -5   5  -3 115.152 44.8667   3
  -5   5  -4 98.3731 36.2071   4
  -5   5  -4 69.9244 34.9832   3
  -5   5  -5 1500.22 129.652   3
  -5   5  -5 1474.90 123.597   4
  -5   5  -6 49.4934 36.9373   3
  -5   5  -7 482.869 78.3764   3
  -5   5  -8 794.955 103.576   3
  -5   5  -9 2996.09 210.614   3
  -5   5 -10 87.1660 44.3453   3
  -5   5 -11 2381.91 199.664   3
  -5   5 -12 37.6223 30.6632   3
  -5   4  11 2308.77 226.784   4
  -5   4  10 262.492 75.5999   4
  -5   4   9 9053.45 435.426   4
  -5   4   8 2703.19 216.337   4
  -5   4   7 312.030 77.9779   4
  -5   4   6 210.837 61.6289   4
  -5   4   5 598.207 94.3395   4
  -5   4   4 1916.53 157.012   4
   5  -4  -4 1853.89 99.0759   2
  -5   4   3 856.267 103.667   4
  -5   4   2 946.032 103.508   4
  -5   4   2 733.064 82.8467   3
  -5   4   1 242.119 53.9458   4
  -5   4   1 142.371 42.5094   3
  -5   4   0 26010.4 702.861   4
  -5   4   0 25466.3 687.559   3
  -5   4  -1 206.837 46.5580   4
  -5   4  -1 371.255 58.7482   3
  -5   4  -2 994.017 95.9628   4
  -5   4  -2 1033.69 95.8920   3
  -5   4  -3 623.090 77.0455   4
  -5   4  -3 626.138 76.9310   3
   5  -4   3 500.297 30.6946   1
   5  -4   4 8.58885 10.0047   1
  -5   4  -4 0.69528 21.7442   4
   5  -4   5 244.706 34.2827   1
  -5   4  -5 186.337 46.9283   3
   5  -4   6 3126.92 143.198   1
  -5   4  -6 3267.50 187.800   3
   5  -4   7 120.612 31.6299   1
  -5   4  -7 166.087 42.8574   3
   5  -4   8 28.4422 25.1445   1
  -5   4  -8 116.583 44.5842   3
   5  -4   9 1414.13 117.846   1
  -5   4  -9 1464.54 138.577   3
   5  -4  10 545.624 79.3797   1
  -5   4 -10 617.846 92.3789   3
   5  -4  11 454.988 77.0969   1
  -5   4 -11 423.452 74.6572   3
   5  -4  12-16.3018 32.8632   1
  -5   4 -12-41.5924 32.1975   3
  -5   3  11 31.9121 44.1206   4
  -5   3  10 428.499 93.7086   4
  -5   3   9 2910.13 188.309   1
  -5   3   9 3363.96 244.445   4
  -5   3   8 244.891 78.0001   4
  -5   3   8 272.180 56.3411   1
  -5   3   7 366.478 83.3029   4
  -5   3   7 344.224 58.6104   1
  -5   3   6 48.5343 23.6823   1
  -5   3   6 81.5504 45.7725   4
  -5   3   5-7.77883 35.9559   4
  -5   3   5 30.7705 23.9971   1
  -5   3   4 189.482 53.1770   4
  -5   3   4 221.031 36.3468   1
   5  -3  -4 184.995 32.3874   2
  -5   3   3 1755.72 141.255   4
  -5   3   3 1773.08 91.0348   1
  -5   3   2 505.612 40.8440   1
  -5   3   2 532.492 73.7627   4
  -5   3   1-17.6497 27.7909   4
  -5   3   1 21.4745 27.4364   3
  -5   3   0 14734.7 451.202   4
  -5   3   0 14299.4 434.144   3
  -5   3  -1 233.397 45.6871   4
  -5   3  -1 286.692 47.8988   3
  -5   3  -2 935.132 89.9948   4
  -5   3  -2 1008.61 89.7133   3
  -5   3  -3 647.648 71.4652   3
   5  -3   3 598.708 41.1802   1
  -5   3  -3 797.250 82.2462   4
   5  -3   4 9.69524 11.2051   1
  -5   3  -4 17.2541 22.9924   3
   5  -3   5 293.844 39.3285   1
  -5   3  -5 245.283 46.8456   3
   5  -3   6 10483.3 322.783   1
  -5   3  -6 10965.5 369.685   3
   5  -3   7 42.2176 24.3095   1
  -5   3  -7 46.3980 25.9414   3
   5  -3   8 52.4040 26.8284   1
  -5   3  -8 111.980 37.9975   3
   5  -3   9 1527.46 125.664   1
  -5   3  -9 1647.61 137.574   3
   5  -3  10-26.9097 32.2566   1
  -5   3 -10 229.704 46.2334   3
   5  -3  11 280.217 62.6023   1
  -5   3 -11 205.395 50.7196   3
   5  -3  12-18.0674 33.5219   1
   5  -3  13 55.3090 43.9057   1
  -5   2  12 1156.92 140.516   1
  -5   2  12 1528.39 184.762   4
  -5   2  11 34.6597 45.6424   4
  -5   2  11-8.17836 32.7712   1
  -5   2  10-86.9200 49.4383   4
  -5   2  10-40.8983 48.5357   1
  -5   2   9 727.933 94.7731   1
  -5   2   9 907.875 120.698   4
  -5   2   8 132.919 59.0487   4
  -5   2   8 64.1325 35.7876   1
  -5   2   7 1263.86 118.258   1
  -5   2   7 1432.79 145.742   4
  -5   2   6 443.528 77.1029   4
  -5   2   6 425.768 61.2017   1
  -5   2   5 6576.93 301.679   4
  -5   2   5 6726.44 249.021   1
   5  -2  -5 6499.56 194.328   2
   5  -2  -4 1161.84 71.8741   2
  -5   2   4 1166.78 115.270   4
  -5   2   4 1161.76 82.6582   1
   5  -2  -3 1173.18 77.0801   2
  -5   2   3 1367.80 118.510   4
  -5   2   2 2768.02 163.669   4
  -5   2   1 2545.45 139.379   3
  -5   2   1 2592.62 153.213   4
  -5   2   0 4646.66 199.967   3
  -5   2   0 4949.38 214.374   4
  -5   2  -1 20.2118 23.1328   4
  -5   2  -1 29.1393 25.1748   3
  -5   2  -2 1015.83 89.1715   4
  -5   2  -2 921.115 79.2144   3
   5  -2   2 883.607 49.8013   1
  -5   2  -3 2770.32 144.839   3
   5  -2   3 2492.52 102.495   1
   5  -2   4-23.2549 18.7557   1
  -5   2  -4 9.00548 19.7322   3
   5  -2   5 649.078 60.7114   1
  -5   2  -5 553.674 64.1789   3
   5  -2   6 368.088 49.5671   1
  -5   2  -6 350.016 53.7715   3
   5  -2   7 5172.65 218.046   1
  -5   2  -7 5387.14 234.378   3
   5  -2   8 3255.91 177.070   1
  -5   2  -8 3193.70 178.661   3
   5  -2   9 2146.24 152.009   1
  -5   2  -9 2089.51 145.588   3
   5  -2  10 1476.04 131.255   1
  -5   2 -10 1627.98 132.724   3
   5  -2  11 60.8165 34.8062   1
  -5   2 -11 26.9990 20.0390   3
   5  -2  12 124.013 48.2715   1
   5  -2  13 53.2755 36.9514   1
  -5   1  12 1174.57 142.743   1
  -5   1  12 1664.41 187.735   4
  -5   1  11-33.5416 35.2674   4
  -5   1  11-0.47432 42.1155   1
  -5   1  10 530.856 97.5052   4
  -5   1  10 403.562 80.6470   1
  -5   1   9 79.2516 42.2126   4
  -5   1   9 74.0349 41.2797   1
  -5   1   8 493.017 85.0089   4
  -5   1   8 567.529 81.6792   1
  -5   1   7 15.6176 36.4271   4
  -5   1   7-7.61221 27.7386   1
  -5   1   6 610.758 90.1085   4
  -5   1   6 550.629 74.3740   1
  -5   1   5 108.523 39.9678   4
   5  -1  -5 160.413 26.5751   2
  -5   1   4-7.12248 30.3320   4
   5  -1  -4 7.73085 13.4432   2
  -5   1   3 4370.56 210.637   4
   5  -1  -3 3751.76 150.995   2
  -5   1   2 334.982 56.5057   4
   5  -1  -2 420.061 49.2629   2
  -5   1   1 1866.09 122.803   4
  -5   1   0 31684.3 766.632   3
  -5   1   0 33113.4 798.477   4
  -5   1  -1 63.2740 29.3847   4
  -5   1  -1 59.9271 27.5511   3
  -5   1  -2 37.0216 18.4492   3
   5  -1   2 71.4699 17.5082   1
   5  -1   3 2415.95 105.119   1
  -5   1  -3 2540.34 128.501   3
   5  -1   4 1972.47 100.411   1
  -5   1  -4 2023.77 114.283   3
   5  -1   5 446.223 52.3447   1
  -5   1  -5 419.887 51.9248   3
   5  -1   6 139.871 34.0502   1
  -5   1  -6 143.535 33.3646   3
   5  -1   7-0.22989 24.4463   1
  -5   1  -7 23.7102 22.1407   3
   5  -1   8 1569.82 121.387   1
  -5   1  -8 1741.43 120.105   3
   5  -1   9 41.6867 34.0331   1
  -5   1  -9-5.12483 23.2449   3
   5  -1  10 1871.22 150.136   1
  -5   1 -10 1979.21 136.842   3
   5  -1  11 1013.92 116.109   1
   5  -1  12 31.1305 39.6094   1
   5  -1  13 93.8979 45.3220   1
  -5   0  12 189.602 73.3402   4
  -5   0  12 47.2599 36.8849   1
  -5   0  11 133.091 53.5943   4
  -5   0  11 83.2981 47.7135   1
  -5   0  10-60.5848 47.1054   1
  -5   0  10-25.9313 43.1263   4
  -5   0   9 10229.8 413.762   1
  -5   0   9 9433.99 413.446   4
  -5   0   8 1544.45 139.188   1
  -5   0   8 1680.51 152.703   4
  -5   0   7 22.5948 32.9755   4
  -5   0   7 46.2613 35.8445   1
   5   0  -6 2526.86 109.185   2
  -5   0   6 2712.12 180.423   4
  -5   0   5 77.6444 33.7994   4
   5   0  -5 16.8931 13.6414   2
  -5   0   4 4999.67 233.191   4
   5   0  -4 4878.12 174.045   2
   5   0  -3 2387.89 115.156   2
  -5   0   3 2520.63 150.865   4
   5   0  -2 3673.74 149.512   2
  -5   0   2 3757.51 179.052   4
  -5   0   1 1883.81 120.679   4
   5   0  -1 2103.53 109.411   2
   5   0   0 2541.95 122.955   2
  -5   0   0 2509.20 135.654   4
  -5   0  -1 3899.22 172.768   4
  -5   0  -1 3853.65 153.988   3
  -5   0  -2 3457.10 144.588   3
   5   0   2 3730.15 132.935   1
   5   0   3 12415.8 338.556   1
  -5   0  -3 13389.3 353.794   3
   5   0   4 43.3501 21.5548   1
  -5   0  -4 9.41048 13.0227   3
   5   0   5 30357.4 734.915   1
  -5   0  -5 30966.2 721.736   3
   5   0   6 1802.44 114.112   1
  -5   0  -6 1780.83 100.718   3
   5   0   7 7232.75 275.032   1
  -5   0  -7 7661.95 257.016   3
   5   0   8 67.5794 35.6425   1
  -5   0  -8 36.9060 14.7133   3
   5   0   9 278.419 58.3863   1
  -5   0  -9 313.462 46.5669   3
   5   0  10 102.983 40.7059   1
   5   0  11 349.323 72.1041   1
   5   0  12 88.2966 48.5884   1
   5   0  13 500.268 93.5658   1
  -5  -1  12 40.1138 48.1121   4
  -5  -1  12 105.861 57.5450   1
  -5  -1  11 14.5240 34.1374   4
  -5  -1  11-51.8221 45.7612   1
  -5  -1  10 895.195 121.688   4
  -5  -1  10 1008.18 128.668   1
  -5  -1   9 839.583 114.039   4
  -5  -1   9 845.838 111.774   1
  -5  -1   8 2360.37 171.420   1
  -5  -1   8 2266.45 172.352   4
  -5  -1   7 323.628 66.8347   4
   5   1  -7 272.044 35.5300   2
   5   1  -6 8511.48 260.247   2
  -5  -1   6 8743.69 340.759   4
  -5  -1   5 1650.11 125.508   4
   5   1  -5 1417.60 84.6672   2
   5   1  -4 3585.35 146.020   2
  -5  -1   4 3697.91 188.621   4
  -5  -1   3 1200.59 96.8392   4
   5   1  -3 1095.69 76.5061   2
  -5  -1   2 10084.6 326.054   4
   5   1  -2 10009.2 295.247   2
  -5  -1   1 61.6826 26.2085   4
   5   1  -1 70.2423 24.8485   2
  -5  -1   0 561.813 59.4545   4
   5   1   0 555.585 58.0586   2
   5   1   1 57.5901 30.7800   2
  -5  -1  -2 4267.99 147.941   3
   5   1   2 3943.85 146.747   1
   5   1   3 19.7554 17.6341   1
  -5  -1  -3 36.2090 16.1010   3
   5   1   4 6.30182 18.9688   1
  -5  -1  -4 14.5618 12.6838   3
   5   1   5 7673.33 264.870   1
  -5  -1  -5 8176.37 238.062   3
   5   1   6 43332.2 1034.73   1
  -5  -1  -6 44974.2 978.935   3
  -5  -1  -7 569.519 50.5183   3
   5   1   7 627.785 73.7540   1
  -5  -1  -8 430.470 47.3508   3
   5   1   8 438.778 65.0504   1
   5   1   9 412.608 64.5056   1
   5   1  10 29.6436 30.0282   1
   5   1  11 775.254 104.554   1
   5   1  12 1002.06 120.510   1
   5   1  13 242.722 62.7131   1
  -5  -2  13 63.2718 42.3372   4
  -5  -2  12 1368.66 164.179   1
  -5  -2  12 1561.25 167.308   4
  -5  -2  11 746.507 113.212   4
  -5  -2  11 553.020 106.127   1
  -5  -2  10 22.2663 30.4937   4
  -5  -2  10 24.6424 47.4759   1
  -5  -2   9 2601.30 194.496   1
  -5  -2   9 2769.49 198.302   4
  -5  -2   8 1402.18 130.498   4
   5   2  -7 1759.47 101.933   2
  -5  -2   7 1743.20 139.378   4
   5   2  -6 12630.6 357.997   2
  -5  -2   6 12383.3 423.581   4
   5   2  -5 7981.83 254.543   2
  -5  -2   5 7895.93 301.758   4
  -5  -2   4 12974.3 401.496   4
   5   2  -4 12932.0 360.094   2
   5   2  -3 12913.6 357.946   2
  -5  -2   3 12551.8 385.618   4
   5   2  -2 3860.34 157.246   2
  -5  -2   2 3353.22 158.413   4
  -5  -2   1 5039.94 193.831   4
   5   2  -1 4993.10 188.503   2
  -5  -2   0 15.9407 18.3550   4
   5   2   0 38.1080 25.8969   2
   5   2   1 4959.71 193.147   2
   5   2   2 50.4686 31.9150   2
   5   2   2 15.3659 18.7534   1
   5   2   3 3903.59 158.213   1
   5   2   3 4251.03 179.117   2
   5   2   4 294.603 43.2667   1
  -5  -2  -4 255.166 25.5336   3
   5   2   4 490.850 59.6147   2
   5   2   5 13.6948 23.6489   1
  -5  -2  -5 69.4037 14.4116   3
   5   2   5 123.206 38.5470   2
   5   2   6 844.246 80.2000   1
   5   2   6 976.117 86.3786   2
  -5  -2  -6 862.197 50.5615   3
   5   2   7 1940.63 132.379   1
   5   2   7 2040.58 127.252   2
  -5  -2  -7 2097.67 87.9814   3
   5   2   8 360.415 66.2686   1
   5   2   8 354.854 56.6502   2
   5   2   9 741.920 81.5637   2
   5   2   9 654.809 85.0764   1
   5   2  10 208.318 55.2163   1
   5   2  10 324.527 58.6995   2
   5   2  11 1043.77 120.632   1
   5   2  12 159.552 51.9079   1
   5   2  13 659.793 105.421   1
  -5  -3  12-44.9016 35.7162   4
  -5  -3  12-7.17100 43.4701   1
  -5  -3  11 370.687 94.2783   1
  -5  -3  11 366.755 81.3470   4
  -5  -3  10 292.830 78.5777   1
  -5  -3  10 214.313 60.5772   4
  -5  -3   9 91.3888 42.9733   4
  -5  -3   9 35.8394 37.2465   1
   5   3  -8 68.6448 24.0045   2
  -5  -3   8 127.762 44.4992   4
   5   3  -7 1471.34 100.010   2
  -5  -3   7 1525.59 126.178   4
   5   3  -6 5041.62 200.890   2
  -5  -3   6 5258.20 238.730   4
  -5  -3   5 21.7141 29.1517   4
   5   3  -5-16.9147 23.4933   2
  -5  -3   4 344.834 49.9103   4
   5   3  -4 398.022 50.8549   2
  -5  -3   3 1786.59 110.720   4
   5   3  -3 1618.55 101.795   2
  -5  -3   2 595.792 59.2469   4
   5   3  -2 632.400 60.9805   2
  -5  -3   1 1112.76 78.3375   4
   5   3  -1 1149.81 84.5661   2
   5   3   0 16444.8 443.117   2
  -5  -3   0 16241.5 427.448   4
   5   3   1 8841.78 283.026   2
   5   3   2 958.242 77.6238   2
   5   3   2 1033.31 73.0631   1
   5   3   3 1241.64 90.9192   2
   5   3   3 1151.73 48.9536   3
   5   3   3 1144.25 80.0714   1
   5   3   4 798.456 71.7817   1
   5   3   4 720.943 69.9731   2
   5   3   4 668.192 28.4967   3
   5   3   5 2790.76 143.941   1
   5   3   5 2820.30 146.122   2
   5   3   6 540.835 68.3086   1
   5   3   6 489.913 60.1682   2
   5   3   7 1404.76 112.470   1
   5   3   7 1442.79 105.963   2
   5   3   8-17.9938 32.6696   1
   5   3   8 17.0478 25.2964   2
   5   3   9 966.094 104.581   1
   5   3   9 889.561 84.9186   2
   5   3  10 55.7251 36.8509   1
   5   3  10 48.7605 25.6168   2
   5   3  11 1635.52 149.492   1
   5   3  12 40.1413 45.2651   1
   5   3  13 1182.26 139.850   1
  -5  -4  12 151.112 66.7215   1
   5   4 -12 264.821 80.2285   3
  -5  -4  11 365.423 76.9099   4
  -5  -4  11 290.966 82.6607   1
  -5  -4  10 100.787 46.5927   4
  -5  -4  10 11.7722 40.0133   1
   5   4  -9 4594.23 206.481   2
  -5  -4   9 4379.86 246.329   4
   5   4  -8 671.865 73.1600   2
  -5  -4   8 772.624 94.8404   4
  -5  -4   7 2410.62 153.919   4
   5   4  -7 2078.53 128.979   2
   5   4  -6 1575.42 109.328   2
  -5  -4   6 1494.09 113.947   4
  -5  -4   5 257.361 49.7841   4
   5   4  -5 251.716 43.9705   2
  -5  -4   4 326.491 46.9484   4
   5   4  -4 290.581 47.2599   2
  -5  -4   3 1274.21 88.7513   4
   5   4  -3 1539.08 102.435   2
  -5  -4   2 260.286 37.0927   4
   5   4  -2 328.315 49.2077   2
  -5  -4   1 915.687 66.7217   4
   5   4  -1 855.946 76.9212   2
  -5  -4   0 9108.47 272.699   4
   5   4   0 9614.81 301.462   2
   5   4   1 110.174 33.7047   2
   5   4   2 1273.99 92.4458   2
   5   4   2 1089.72 49.9389   3
   5   4   2 1177.57 82.8848   1
   5   4   3 2579.72 136.943   2
   5   4   3 2688.75 131.826   1
   5   4   4 1410.37 101.026   2
   5   4   4 1549.59 103.075   1
   5   4   5 35574.8 826.162   2
   5   4   5 32693.5 827.946   1
   5   4   6 223.258 46.1016   1
   5   4   6 271.937 46.1056   2
   5   4   7 544.591 73.2344   1
   5   4   7 470.679 60.1362   2
   5   4   8 272.311 55.7153   1
   5   4   8 236.039 42.0364   2
   5   4   9 2718.42 178.935   1
   5   4   9 2811.84 152.615   2
   5   4  10 60.3802 42.6505   1
   5   4  11-50.3309 40.8529   1
   5   4  12 121.094 53.8374   1
   5   4  13 571.975 100.281   1
  -5  -5  12 471.382 105.778   1
   5   5 -12 310.855 81.6552   3
  -5  -5  11 51.4086 57.6089   1
   5   5 -11 176.801 63.4939   3
  -5  -5  10-3.58513 36.5811   1
   5   5 -10 79.1142 48.0010   3
  -5  -5   9 1794.34 141.818   4
   5   5  -9 1752.85 130.234   2
  -5  -5   8-11.5317 24.0685   4
   5   5  -8 16.3589 25.9433   2
  -5  -5   7 1433.81 115.894   4
   5   5  -7 1400.58 110.835   2
   5   5  -6 2369.96 143.427   2
  -5  -5   6 2292.17 136.336   4
   5   5  -5 804.365 80.6649   2
  -5  -5   5 734.631 70.0972   4
   5   5  -4 1673.20 116.533   2
  -5  -5   4 1686.52 102.422   4
  -5  -5   3 3537.90 147.762   4
   5   5  -3 3774.48 178.777   2
  -5  -5   2 247.949 35.1342   4
   5   5  -2 274.741 46.7296   2
  -5  -5   1 1928.87 96.7372   4
   5   5  -1 2053.58 123.321   2
  -5  -5   0 23880.5 561.737   4
   5   5   0 23355.7 610.376   2
   5   5   1 12171.7 367.458   2
   5   5   1 11901.0 303.301   3
   5   5   2 19452.1 499.682   2
   5   5   2 17048.2 393.697   3
   5   5   2 18383.9 397.355   3
   5   5   2 18750.7 476.876   1
   5   5   3 380.212 53.0177   2
   5   5   3 383.309 51.6401   1
   5   5   4 30.5856 28.9258   1
   5   5   4 48.1766 25.6723   2
   5   5   5 5717.00 231.813   1
   5   5   5 5944.76 229.676   2
   5   5   6 198.093 45.3274   1
   5   5   6 166.377 37.7396   2
   5   5   7 431.716 64.6428   1
   5   5   7 424.506 55.5752   2
   5   5   8 111.525 47.2425   1
   5   5   8 84.7884 30.2116   2
   5   5   9 2816.76 182.838   1
   5   5   9 2760.53 151.556   2
   5   5  10 1060.95 116.734   1
   5   5  11 1265.73 133.223   1
   5   5  12 594.387 97.2509   1
   5   5  13 11.9553 35.3614   1
  -5  -6  11-20.5703 47.2601   1
   5   6 -11 92.1344 69.6457   3
  -5  -6  10 164.862 67.8362   1
   5   6 -10 68.2666 55.6503   3
   5   6  -9 107.320 37.6362   2
   5   6  -9 216.195 71.9591   3
   5   6  -8 175.056 41.8634   2
   5   6  -8 315.313 69.6966   3
   5   6  -7 2087.39 164.168   3
   5   6  -7 1680.40 129.664   2
   5   6  -6 1837.17 132.825   2
  -5  -6   6 1917.09 115.416   4
  -5  -6   5 121.474 30.6512   4
   5   6  -5 144.353 42.8205   2
   5   6  -4 2218.03 142.180   2
  -5  -6   4 2064.22 101.775   4
   5   6  -3 2036.64 135.687   2
  -5  -6   3 1954.37 93.8998   4
  -5  -6   2-9.61527 13.3799   4
   5   6  -2 18.3160 30.5028   2
   5   6  -2 60.5319 33.3317   3
  -5  -6   1 18.0273 12.1367   4
   5   6  -1 52.1221 32.1974   2
   5   6  -1 58.4083 27.3169   3
  -5  -6   0 16570.8 399.645   4
   5   6   0 16724.3 474.628   2
   5   6   0 15843.3 416.744   3
   5   6   1 5874.63 231.515   2
   5   6   1 5528.93 173.887   3
   5   6   2 64.7737 30.1974   2
   5   6   2 137.898 16.6255   3
   5   6   3 236.719 44.1241   2
   5   6   3 206.279 41.3452   1
   5   6   4 684.572 70.3843   2
   5   6   4 660.504 69.9641   1
   5   6   5 937.516 87.0013   1
   5   6   5 1029.23 88.5889   2
   5   6   6 37.8687 30.7029   1
   5   6   6 33.7781 26.2854   2
   5   6   7-44.9581 34.6675   1
   5   6   7-27.5661 27.8372   2
   5   6   8 4275.58 221.840   1
   5   6   8 4605.84 200.053   2
   5   6   9 812.727 95.1673   1
   5   6  10 323.994 71.8159   1
   5   6  11 3424.94 223.347   1
   5   6  12 1014.92 124.430   1
  -5  -7  11 444.834 97.0128   1
   5   7 -11 630.087 111.283   3
  -5  -7  10 174.018 63.0264   1
   5   7 -10 167.297 66.6090   3
   5   7  -9 1146.00 138.505   3
   5   7  -9 837.755 100.884   2
   5   7  -8 372.534 66.9776   2
   5   7  -8 453.900 87.7905   3
   5   7  -7 9.70209 24.0865   2
   5   7  -7 10.6695 36.1817   3
   5   7  -6-18.3075 28.1374   2
   5   7  -6 71.3379 44.3528   3
   5   7  -5 350.849 62.8130   2
   5   7  -5 359.007 67.9660   3
   5   7  -4 903.669 94.2967   2
   5   7  -4 979.219 99.8934   3
   5   7  -3 11134.8 380.751   2
   5   7  -3 10526.6 355.138   3
   5   7  -2 34.8806 34.6586   2
   5   7  -2 33.7264 26.3195   3
   5   7  -1 6572.27 264.389   2
   5   7  -1 5792.66 218.737   3
  -5  -7   0 32580.9 717.994   4
   5   7   0 33908.0 842.911   2
   5   7   0 34486.3 774.324   3
  -5  -7  -1 797.129 52.8353   4
   5   7   1 704.919 53.3751   3
   5   7   1 619.621 74.5234   2
   5   7   2 1625.12 114.662   2
   5   7   2 1500.60 66.0372   3
   5   7   3 655.140 74.1057   2
   5   7   3 532.336 63.2545   1
   5   7   4 291.096 50.2632   2
   5   7   4 209.838 45.7991   1
   5   7   5 219.618 42.9773   2
   5   7   5 223.570 46.7905   1
   5   7   6 36.5383 27.4134   1
   5   7   6 6.32028 19.5467   2
   5   7   7 942.163 97.6776   1
   5   7   7 1006.21 89.4111   2
   5   7   8 2430.81 166.778   1
   5   7   8 2152.56 130.729   2
   5   7   9 1286.86 124.589   1
   5   7  10 45.0704 38.0482   1
   5   7  11 1594.57 150.091   1
   5   7  12 11.8983 41.2343   1
   5   8 -10 1131.26 150.159   3
  -5  -8  10 941.230 139.347   1
   5   8  -9 15922.8 581.464   3
   5   8  -9 14138.8 513.197   2
   5   8  -8 1261.39 137.306   3
   5   8  -8 1163.91 125.083   2
   5   8  -7 622.560 88.9445   2
   5   8  -7 713.294 103.277   3
   5   8  -6 701.284 94.6300   3
   5   8  -6 721.627 93.7602   2
   5   8  -5 677.951 87.7472   2
   5   8  -5 641.677 82.4981   3
   5   8  -4 2544.09 167.492   2
   5   8  -4 2391.28 159.897   3
   5   8  -3 766.395 91.6251   2
   5   8  -3 682.972 78.6914   3
   5   8  -2 43.8027 31.1323   2
   5   8  -2 10.1897 23.1588   3
   5   8  -1 891.631 99.0311   2
   5   8  -1 941.221 81.3438   3
   5   8   0 3544.86 193.236   2
   5   8   0 3449.61 154.071   3
   5   8   1 826.134 89.8324   2
   5   8   1 861.725 62.4525   3
   5   8   2 27.7266 29.9262   2
   5   8   3 63.9933 25.8836   2
   5   8   4 1413.29 111.961   2
   5   8   4 1392.27 105.684   1
   5   8   5 18.3710 22.5268   2
   5   8   5-11.0159 25.5415   1
   5   8   6 626.600 72.0313   2
   5   8   6 614.680 74.6383   1
   5   8   7 54.0708 28.1937   1
   5   8   7 60.4557 26.3922   2
   5   8   8 0.34000 26.1732   1
   5   8   9 835.812 103.640   1
   5   8  10 159.396 53.2663   1
   5   8  11 402.766 81.6005   1
  -5  -9  10 254.634 79.4279   1
   5   9 -10 446.087 94.4548   3
   5   9  -9 659.221 98.1766   2
   5   9  -9 686.580 114.399   3
   5   9  -8 260.986 64.1497   2
   5   9  -8 291.732 77.6654   3
   5   9  -7 29.9014 41.2013   2
   5   9  -7-3.42997 37.7347   3
   5   9  -6 20.0838 27.5862   2
   5   9  -6 16.7400 36.2319   3
   5   9  -5 26.4625 32.0140   2
   5   9  -5-34.4760 37.6679   3
   5   9  -4 53.8477 31.2713   2
   5   9  -4 56.0185 25.8469   3
   5   9  -3 1877.07 147.864   2
   5   9  -3 1646.78 131.351   3
   5   9  -2-6.19439 27.4637   2
   5   9  -2 36.5137 30.3716   3
   5   9  -1 1277.65 118.942   2
   5   9  -1 1329.51 100.908   3
   5   9   0 2188.10 156.885   2
   5   9   0 2292.57 125.350   3
   5   9   1 606.893 80.2822   2
   5   9   2 96.2471 42.5546   2
   5   9   3 1103.08 105.915   2
   5   9   4 599.723 78.9062   2
   5   9   5 1816.04 133.006   2
   5   9   5 1508.26 117.922   1
   5   9   6 5970.18 258.227   2
   5   9   6 5826.86 258.277   1
   5   9   7 607.545 79.0151   1
   5   9   8 54.5554 31.6546   1
   5   9   9 973.292 109.107   1
   5   9  10 2.45125 34.6179   1
   5   9  11 1020.84 121.309   1
   5  10  -9 327.116 85.4153   3
   5  10  -8 509.435 90.1011   2
   5  10  -8 643.232 111.998   3
   5  10  -7 39.3798 35.7347   2
   5  10  -7 33.3201 38.8437   3
   5  10  -6 128.587 51.3185   2
   5  10  -6 231.869 64.8042   3
   5  10  -5 4307.15 252.513   3
   5  10  -5 4807.30 267.698   2
   5  10  -4 5321.14 271.509   3
   5  10  -4 5799.84 291.058   2
   5  10  -3 155.243 54.1622   2
   5  10  -3 56.6341 27.4636   3
   5  10  -2 413.622 72.4718   2
   5  10  -2 360.033 60.4205   3
   5  10  -1 2575.77 179.221   2
   5  10  -1 2430.47 146.783   3
   5  10   0 1847.00 147.321   2
   5  10   1 303.728 61.3088   2
   5  10   2 1372.25 123.786   2
   5  10   3 136.188 46.9959   2
   5  10   4 307.896 58.0710   2
   5  10   5 550.836 75.2787   2
   5  10   6 198.703 45.3100   2
   5  10   6 159.350 42.8992   1
   5  10   7 16.7135 23.9160   1
   5  10   8 57.2601 35.6467   1
   5  10   9 852.100 102.344   1
   5  10  10 1007.16 117.138   1
   5  11  -8 35.6976 38.3053   2
   5  11  -8-47.3060 38.5952   3
   5  11  -7 20.6807 42.2554   2
   5  11  -7 137.318 58.1811   3
   5  11  -6 235.794 62.9530   2
   5  11  -6 280.600 67.7496   3
   5  11  -5 57.8629 38.4927   2
   5  11  -5 103.372 45.4609   3
   5  11  -4 347.473 74.0150   2
   5  11  -4 278.214 62.2884   3
   5  11  -3 47.7821 30.8469   2
   5  11  -3 74.9503 35.6130   3
   5  11  -2 809.685 108.207   2
   5  11  -2 693.772 84.4898   3
   5  11  -1 259.355 62.1624   2
   5  11   0 4090.65 239.331   2
   5  11   1 294.007 61.4211   2
   5  11   2 745.490 94.6558   2
   5  11   3 302.211 59.3479   2
   5  11   4 414.360 71.3739   2
   5  11   5-10.6998 25.1882   2
   5  11   7 440.558 71.2434   1
   5  11   8 12.5320 23.8748   1
   5  11   9 32.4463 30.2789   1
   5  12  -7-35.7180 39.7046   3
   5  12  -6 489.431 95.6015   2
   5  12  -6 461.186 90.7620   3
   5  12  -5 493.667 94.1358   2
   5  12  -5 397.156 78.8206   3
   5  12  -4 21.8556 33.9632   2
   5  12  -4-30.8949 33.0634   3
   5  12  -3 499.048 90.6414   2
   5  12  -3 506.616 81.4849   3
   5  12  -2 220.129 65.2502   2
   5  12  -1-32.3937 35.9035   2
   5  12   0 385.975 71.6758   2
   5  12   1 643.769 94.3343   2
   5  12   2 153.557 51.8663   2
   5  12   3 367.621 71.1203   2
   5  12   4 554.717 82.0461   2
   5  13  -3 4218.70 280.340   2
   5  13  -2 512.451 94.0895   2
   5  13  -1 127.635 49.6782   2
   5  13   0 121.932 53.3194   2
   5  13   1 176.986 50.0231   2
   5  13   2 1472.52 144.473   2
   5  13   3-45.0160 33.7415   2
   5  14   1 1250.01 142.323   2
  -6   9   5 1543.52 176.845   4
  -6   9   4 123.840 56.2538   4
  -6   9   3 119.337 57.1348   4
  -6   9   2 44.1033 42.2106   4
  -6   9   1-5.10540 38.8363   4
  -6   9   1-11.2906 30.4859   3
  -6   9   0 68.4536 49.4909   3
  -6   9  -1 763.673 113.885   3
  -6   9  -2 959.596 129.926   3
  -6   9  -3 1111.68 142.474   3
  -6   9  -4 36.8360 49.0476   3
  -6   9  -5 79.1674 48.5092   3
  -6   8   6 1042.04 145.872   4
  -6   8   5 173.569 61.8647   4
  -6   8   4 75.3035 33.9211   4
  -6   8   3 18.9684 29.3146   4
  -6   8   2 1206.17 145.115   4
  -6   8   1 91.3514 47.5687   3
  -6   8   1 16.9700 37.2331   4
  -6   8   0 703.219 106.824   4
  -6   8   0 628.942 103.082   3
  -6   8  -1 178.816 55.1579   4
  -6   8  -1 361.185 78.7781   3
  -6   8  -2 2336.29 188.200   4
  -6   8  -2 2447.92 199.967   3
  -6   8  -3 17.0614 26.1254   4
  -6   8  -3-28.6948 38.5050   3
  -6   8  -4 116.617 45.6131   4
  -6   8  -4 154.087 58.8388   3
  -6   8  -5 612.630 106.554   3
  -6   8  -6 2128.80 201.477   3
  -6   8  -7 855.009 127.923   3
  -6   7   7 388.636 95.9012   4
  -6   7   6 26.8312 36.9549   4
  -6   7   5 14.4790 37.9655   4
  -6   7   4 1613.91 167.947   4
  -6   7   3 550.564 97.8430   4
  -6   7   2 3.59975 27.7009   4
  -6   7   1 1636.62 158.256   4
  -6   7   1 1121.08 125.757   3
  -6   7   0 27.8524 28.9197   4
  -6   7   0 51.6192 39.8442   3
  -6   7  -1 2654.97 195.465   4
  -6   7  -1 2462.60 188.577   3
  -6   7  -2 136.190 44.8228   4
  -6   7  -2 303.356 65.7212   3
  -6   7  -3 494.136 84.5301   4
  -6   7  -3 595.133 94.3957   3
  -6   7  -4 1168.72 129.085   4
  -6   7  -4 1213.74 136.471   3
  -6   7  -5 98.8872 40.2291   4
  -6   7  -5 219.067 67.7428   3
  -6   7  -6 304.851 69.8754   4
  -6   7  -6 412.671 84.9535   3
  -6   7  -7 46.3039 30.1024   4
  -6   7  -7 33.5694 37.0308   3
  -6   7  -8 1.06403 30.9566   3
  -6   7  -9 125.257 54.5001   3
  -6   6   8 1543.91 178.959   4
  -6   6   7 10.7097 35.7579   4
  -6   6   6 485.511 100.303   4
  -6   6   5 17.5300 39.3943   4
  -6   6   4 1314.05 147.983   4
  -6   6   3 2702.99 207.567   4
  -6   6   2 187.900 53.7874   4
  -6   6   1 456.459 80.6379   4
  -6   6   1 397.777 73.2066   3
  -6   6   0 338.534 66.5183   4
  -6   6   0 393.867 76.8974   3
  -6   6  -1 522.771 85.1228   4
  -6   6  -1 457.616 77.6209   3
  -6   6  -2 4189.19 239.622   3
  -6   6  -2 4021.14 236.581   4
  -6   6  -3 37.7265 33.1305   4
  -6   6  -3-1.60436 31.1507   3
  -6   6  -4 497.363 79.8118   4
  -6   6  -4 484.438 83.9281   3
  -6   6  -5 1493.18 140.910   4
  -6   6  -5 1336.57 139.196   3
  -6   6  -6 610.232 93.0154   4
  -6   6  -6 550.331 90.9621   3
  -6   6  -7 275.238 65.1348   4
  -6   6  -7 236.136 64.9508   3
  -6   6  -8-34.3518 32.2126   4
  -6   6  -8-42.5127 41.3318   3
  -6   6  -9 184.041 57.1580   3
  -6   6 -10 201.880 60.9220   3
  -6   5   9 211.391 70.8414   4
  -6   5   8 749.206 126.220   4
  -6   5   7 1971.08 196.174   4
  -6   5   6 317.776 82.4322   4
  -6   5   5 1041.92 133.602   4
  -6   5   4 1645.25 158.390   4
  -6   5   3 2711.43 202.304   4
  -6   5   2 712.994 100.771   4
  -6   5   1 791.262 100.522   4
  -6   5   1 836.499 97.9514   3
  -6   5   0 764.948 100.578   4
  -6   5   0 749.894 92.7869   3
  -6   5  -1 18.1170 31.5463   4
  -6   5  -1 17.8500 29.9582   3
  -6   5  -2 7835.11 326.384   3
  -6   5  -2 7239.08 321.164   4
  -6   5  -3 6632.76 300.309   4
  -6   5  -3 6395.28 297.003   3
  -6   5  -4 563.625 82.0149   4
  -6   5  -4 583.194 84.0404   3
  -6   5  -5-22.2329 29.3938   4
  -6   5  -5-31.6873 28.8349   3
  -6   5  -6 585.367 87.3199   4
  -6   5  -6 720.852 96.0551   3
  -6   5  -7 81.2326 38.5474   3
  -6   5  -8 245.147 61.6408   3
  -6   5  -9 139.421 51.0203   3
  -6   5 -10 56.5351 27.9957   3
  -6   5 -11 894.097 118.154   3
  -6   4  10-58.3241 66.5179   4
  -6   4   9 3180.25 257.572   4
  -6   4   8 4047.59 282.653   4
  -6   4   7 5287.35 321.908   4
  -6   4   6 152.255 63.6731   4
  -6   4   5 172.707 58.0580   4
  -6   4   4 746.096 103.131   4
  -6   4   3-26.8176 38.5185   4
  -6   4   2 1214.30 124.727   4
  -6   4   1 729.674 93.1745   4
  -6   4   1 828.474 91.5434   3
  -6   4   0-3.12930 27.8157   4
  -6   4   0 115.287 43.4000   3
  -6   4  -1 271.364 56.3940   4
  -6   4  -1 276.079 56.7715   3
  -6   4  -2 4353.53 228.220   4
  -6   4  -2 4309.39 221.332   3
  -6   4  -3 3111.81 190.109   4
  -6   4  -3 3034.93 184.583   3
  -6   4  -4 1369.53 122.644   4
  -6   4  -4 1348.38 121.749   3
  -6   4  -5 581.049 81.3244   4
  -6   4  -5 815.669 94.1523   3
  -6   4  -6 309.362 60.9456   3
  -6   4  -7 126.117 45.3759   3
  -6   4  -8 1107.07 118.499   3
  -6   4  -9-0.98008 26.0865   3
  -6   4 -10 237.620 55.4649   3
  -6   4 -11 92.6403 42.6576   3
  -6   3  10 1730.86 189.003   4
  -6   3   9 2521.10 222.904   4
  -6   3   8 1251.34 156.325   4
  -6   3   7-63.2368 50.4227   4
  -6   3   6-12.0683 37.5289   4
  -6   3   5 18.4695 34.9661   4
  -6   3   4 689.009 98.1030   4
   6  -3  -4 825.786 67.9588   2
  -6   3   3-27.3909 34.2174   4
   6  -3  -3 27.2764 26.0444   2
  -6   3   2 38.8385 29.7470   4
  -6   3   1 321.345 63.1367   4
  -6   3   1 225.261 52.6714   3
  -6   3   0 2172.08 143.425   3
  -6   3   0 2164.33 155.181   4
  -6   3  -1 207.313 48.5491   4
  -6   3  -1 298.921 55.4023   3
  -6   3  -2 185.415 46.8347   4
  -6   3  -2 296.262 52.1684   3
  -6   3  -3 5645.48 254.361   4
  -6   3  -3 5421.29 241.888   3
  -6   3  -4 221.891 49.0516   3
   6  -3   4 230.073 29.7560   1
   6  -3   5 3310.56 140.777   1
  -6   3  -5 3639.96 196.023   3
   6  -3   6 2590.09 133.032   1
  -6   3  -6 2991.58 177.540   3
   6  -3   7 225.671 41.7703   1
  -6   3  -7 141.603 40.4515   3
   6  -3   8 4365.28 208.624   1
  -6   3  -8 4704.26 238.728   3
   6  -3   9 439.718 65.0560   1
  -6   3  -9 371.386 63.7216   3
   6  -3  10 17.4374 30.9662   1
  -6   3 -10 31.3410 24.7930   3
   6  -3  11 50.4269 35.6110   1
   6  -3  12 138.310 46.9092   1
  -6   2  11 30.5975 45.5222   4
  -6   2  10-59.3963 47.5478   4
  -6   2   9 1049.94 137.460   4
  -6   2   9 967.146 112.863   1
  -6   2   8 81.6878 50.2913   4
  -6   2   8 68.8733 37.8706   1
  -6   2   7 33.0770 36.8755   4
  -6   2   7 86.8727 37.6301   1
  -6   2   6-14.4947 20.3289   1
  -6   2   6-65.8986 54.4991   4
  -6   2   5 428.793 59.7502   1
  -6   2   5 493.137 81.2576   4
  -6   2   4 117.417 43.9423   4
   6  -2  -4 153.350 31.2869   2
   6  -2  -3 7377.83 249.283   2
  -6   2   3 7365.95 322.363   4
  -6   2   2 1511.32 129.996   4
   6  -2  -2 1794.42 109.243   2
  -6   2   1 14600.1 474.357   4
  -6   2   0 22148.4 622.726   4
  -6   2   0 21386.3 588.775   3
  -6   2  -1 1985.21 140.068   4
  -6   2  -1 1917.75 129.653   3
  -6   2  -2 1983.76 137.757   4
  -6   2  -2 1808.60 121.446   3
  -6   2  -3 487.561 70.6148   4
  -6   2  -3 430.440 60.6569   3
   6  -2   3 523.331 43.9410   1
   6  -2   4 22.0720 13.1916   1
  -6   2  -4 15.7705 19.2085   3
   6  -2   5 56.0145 25.0639   1
  -6   2  -5 4.28975 20.6923   3
   6  -2   6 17.4518 22.3462   1
  -6   2  -6 54.4604 32.3562   3
   6  -2   7 3567.83 176.382   1
  -6   2  -7 3579.64 190.519   3
   6  -2   8 1375.33 112.077   1
  -6   2  -8 1662.52 126.517   3
   6  -2   9-41.2165 29.5293   1
  -6   2  -9-10.4798 18.9574   3
   6  -2  10 735.618 91.4155   1
  -6   2 -10 715.220 86.6339   3
   6  -2  11 1654.01 146.516   1
   6  -2  12 118.782 43.3299   1
   6  -2  13 73.2562 40.2688   1
  -6   1  11-23.3925 39.4983   4
  -6   1  11 66.4861 39.8570   1
  -6   1  10-7.16826 45.1880   4
  -6   1  10 27.8951 37.4882   1
  -6   1   9 1508.53 148.040   1
  -6   1   9 1823.26 176.634   4
  -6   1   8 254.129 69.9391   4
  -6   1   8 199.412 49.6786   1
  -6   1   7 15.0418 33.4146   4
  -6   1   7 45.0846 37.6849   1
  -6   1   6 54.6226 51.9160   4
  -6   1   6 41.6349 30.3023   1
   6  -1  -5 673.773 58.5778   2
  -6   1   5 747.972 96.0182   4
  -6   1   4 223.541 56.9682   4
   6  -1  -4 232.959 39.9075   2
  -6   1   3 184.165 48.7527   4
   6  -1  -3 212.961 36.9682   2
  -6   1   2 1572.61 127.905   4
   6  -1  -2 1608.05 103.023   2
   6  -1  -1 4327.30 185.439   2
  -6   1   1 4424.06 218.031   4
  -6   1   0 218.442 49.7644   4
  -6   1  -1 1481.86 103.361   3
  -6   1  -1 1396.57 112.657   4
  -6   1  -2 6231.93 255.054   4
  -6   1  -2 5883.33 228.744   3
  -6   1  -3 2212.81 127.104   3
   6  -1   3 2085.70 99.7876   1
  -6   1  -4 2409.20 134.657   3
   6  -1   4 2215.02 111.897   1
   6  -1   5 1116.03 83.9924   1
  -6   1  -5 1182.41 93.9213   3
   6  -1   6 2119.57 124.843   1
  -6   1  -6 2112.64 130.054   3
   6  -1   7 674.145 75.2873   1
  -6   1  -7 606.438 68.9795   3
   6  -1   8 239.744 48.7541   1
  -6   1  -8 300.319 51.9124   3
   6  -1   9 104.179 35.7618   1
  -6   1  -9 69.8458 25.3161   3
   6  -1  10 38.3278 30.8538   1
   6  -1  11 64.0750 36.5513   1
   6  -1  12 420.637 80.6595   1
   6  -1  13 2.39052 30.3980   1
  -6   0  12 437.071 92.9093   1
  -6   0  11 33.9969 42.0118   4
  -6   0  11-34.8989 35.6367   1
  -6   0  10 437.519 92.5851   4
  -6   0  10 553.012 99.8445   1
  -6   0   9 1271.92 137.157   1
  -6   0   9 1356.83 150.996   4
  -6   0   8 527.132 86.2178   1
  -6   0   8 572.156 98.0812   4
  -6   0   7 1911.02 167.162   4
  -6   0   7 2109.45 153.688   1
  -6   0   6 186.515 53.7575   4
   6   0  -6 106.568 24.4175   2
  -6   0   5 3939.60 224.710   4
   6   0  -5 3752.88 154.975   2
   6   0  -4 641.521 60.7651   2
  -6   0   4 697.620 90.8826   4
  -6   0   3 348.822 64.3878   4
   6   0  -3 329.975 46.0360   2
  -6   0   2 8411.66 316.405   4
   6   0  -2 8332.52 274.850   2
  -6   0   1-16.0412 27.5075   4
   6   0  -1 50.6308 35.4444   2
  -6   0   0 111.010 33.2753   4
   6   0   0 61.6095 35.1564   2
  -6   0  -1 2754.70 155.469   4
  -6   0  -2 752.595 66.4259   3
   6   0   2 674.633 53.8596   1
  -6   0  -3 67.9436 23.8640   3
   6   0   3 60.5451 24.0006   1
   6   0   4 166.042 32.6951   1
  -6   0  -4 79.5121 24.2885   3
   6   0   5 3565.63 161.729   1
  -6   0  -5 3980.05 168.021   3
   6   0   6 9568.97 316.684   1
  -6   0  -6 9762.97 311.067   3
   6   0   7 10960.4 371.150   1
  -6   0  -7 12020.0 356.054   3
   6   0   8 699.546 81.7601   1
  -6   0  -8 794.663 73.4274   3
   6   0   9 89.8010 44.8788   1
   6   0  10 8.40547 27.3428   1
   6   0  11 163.318 51.4400   1
   6   0  12 75.1109 43.1733   1
   6   0  13-161.623 55.6530   1
  -6  -1  12 331.273 84.5558   4
  -6  -1  12 83.9681 50.0102   1
  -6  -1  11 89.9912 51.6082   4
  -6  -1  11 63.9655 34.0310   1
  -6  -1  10 696.857 110.989   1
  -6  -1  10 689.096 107.756   4
  -6  -1   9 339.484 76.2048   4
  -6  -1   9 454.588 82.7289   1
  -6  -1   8 1237.99 130.327   1
  -6  -1   8 1392.44 142.461   4
  -6  -1   7 362.139 76.5933   4
  -6  -1   6 260.208 60.8745   4
   6   1  -6 222.723 36.1267   2
  -6  -1   5-24.2455 32.5492   4
   6   1  -5-19.8114 19.7994   2
  -6  -1   4 8049.64 319.864   4
   6   1  -4 7381.05 251.862   2
  -6  -1   3 12704.8 421.684   4
   6   1  -3 12941.2 371.241   2
  -6  -1   2 1447.30 110.770   4
   6   1  -2 1170.81 87.9228   2
  -6  -1   1 527.574 66.3424   4
   6   1  -1 540.085 61.4248   2
  -6  -1   0 314.309 50.7840   4
   6   1   0 356.653 54.8351   2
  -6  -1  -1 671.925 71.8331   4
   6   1   1 651.186 73.0573   2
   6   1   2 726.028 75.2294   2
   6   1   2 623.631 54.2947   1
  -6  -1  -3 2138.50 106.430   3
   6   1   3 2071.97 107.871   1
   6   1   4 1397.95 92.6123   1
  -6  -1  -4 1333.05 82.9479   3
  -6  -1  -5 6683.01 221.896   3
   6   1   5 7477.42 256.618   1
   6   1   6 1129.88 93.3769   1
  -6  -1  -6 1232.21 79.1102   3
   6   1   7 925.674 92.8704   1
  -6  -1  -7 916.926 70.1255   3
   6   1   8 10669.7 376.019   1
   6   1   9-0.81957 24.6691   1
   6   1  10 191.465 50.7058   1
   6   1  11 139.740 49.2490   1
   6   1  11 321.030 66.9845   2
   6   1  12 303.412 70.0690   1
   6   1  13 505.626 91.4991   1
  -6  -2  12 4242.92 294.272   1
  -6  -2  12 3628.19 269.824   4
  -6  -2  11 61.5338 54.6116   4
  -6  -2  11 196.268 68.3310   1
  -6  -2  10 261.020 66.2718   4
  -6  -2  10 240.206 76.0121   1
  -6  -2   9 25.5774 32.9049   4
  -6  -2   9 55.2196 35.1639   1
  -6  -2   8-32.5429 41.5113   4
   6   2  -7 867.054 74.0359   2
  -6  -2   7 901.316 107.003   4
   6   2  -6 2735.74 139.142   2
  -6  -2   6 2613.13 175.739   4
  -6  -2   5 213.468 54.3710   4
   6   2  -5 211.746 39.5050   2
  -6  -2   4 26798.3 717.124   4
   6   2  -4 26030.7 654.135   2
  -6  -2   3 16328.7 484.961   4
   6   2  -3 15899.6 443.684   2
  -6  -2   2 324.379 53.0811   4
   6   2  -2 322.804 49.9670   2
  -6  -2   1 1665.66 113.424   4
   6   2  -1 1650.89 107.318   2
  -6  -2   0 2704.43 144.715   4
   6   2   0 2549.58 135.640   2
  -6  -2  -1 248.703 46.9338   4
   6   2   1 200.844 43.3812   2
   6   2   2 8237.04 282.639   2
   6   2   2 7951.53 251.339   1
   6   2   3 2728.89 148.348   2
   6   2   3 2449.86 124.807   1
   6   2   4 81.1920 32.2843   1
   6   2   4 80.6101 38.4042   2
   6   2   5 331.848 51.4225   1
  -6  -2  -5 374.457 35.3894   3
   6   2   5 416.553 68.6824   2
   6   2   6 1177.76 96.4852   1
   6   2   6 1364.15 110.536   2
  -6  -2  -6 1325.81 68.8745   3
   6   2   7 570.919 72.9579   1
   6   2   7 437.905 66.5885   2
   6   2   8 51.1706 33.1342   1
   6   2   8 43.1287 39.5370   2
   6   2   9 970.229 105.872   1
   6   2   9 1059.44 103.719   2
   6   2  10 73.7050 40.3369   1
   6   2  10 4.46812 24.8736   2
   6   2  11 2765.15 194.899   1
   6   2  11 2162.29 156.803   2
   6   2  12 603.338 95.2036   1
   6   2  13 577.250 100.307   1
  -6  -3  12 1893.83 197.728   1
  -6  -3  12 1878.98 182.197   4
  -6  -3  11 123.645 46.2766   4
  -6  -3  11-24.9152 42.3566   1
  -6  -3  10 204.300 61.7556   4
  -6  -3  10 264.762 73.0354   1
  -6  -3   9 217.446 57.9947   4
  -6  -3   8 283.326 61.9973   4
   6   3  -7 7716.54 275.490   2
  -6  -3   7 7934.44 334.279   4
   6   3  -6 5011.34 212.583   2
  -6  -3   6 5141.69 249.468   4
  -6  -3   5 7465.13 300.480   4
   6   3  -5 7431.68 265.348   2
  -6  -3   4 1.98546 24.6890   4
   6   3  -4 9.94137 21.6481   2
   6   3  -3 5121.02 206.433   2
  -6  -3   3 4990.32 219.640   4
  -6  -3   2 8.77898 19.1325   4
   6   3  -2 14.5309 24.7953   2
  -6  -3   1 525.164 60.6331   4
   6   3  -1 498.938 61.3608   2
  -6  -3   0 11.4689 18.3598   4
   6   3   0 91.3432 36.2252   2
  -6  -3  -1 710.285 69.5187   4
   6   3   1 677.567 74.8822   2
   6   3   2 2426.15 139.124   2
   6   3   2 2440.27 122.539   1
   6   3   3 12932.2 390.180   2
   6   3   3 12027.2 359.260   1
   6   3   4 2820.11 144.701   1
   6   3   4 2846.78 155.090   2
   6   3   5 1395.33 104.897   1
   6   3   5 1646.35 116.777   2
   6   3   6 1235.59 103.953   1
   6   3   6 1458.23 111.745   2
   6   3   7 1159.29 103.249   1
   6   3   7 1126.20 100.302   2
   6   3   8 795.700 92.8946   1
   6   3   8 858.031 89.3155   2
   6   3   9 219.070 54.8070   1
   6   3   9 153.942 42.9825   2
   6   3  10-11.5028 35.0180   1
   6   3  10 14.4256 26.6755   2
   6   3  11 2135.40 174.365   1
   6   3  12 41.1540 37.6136   1
   6   3  13 97.9853 50.2842   1
  -6  -4  11 954.128 122.155   4
  -6  -4  11 981.969 148.332   1
  -6  -4  10 794.010 107.514   4
  -6  -4  10 771.092 119.074   1
  -6  -4   9 3703.04 233.216   4
  -6  -4   8 466.566 74.0886   4
   6   4  -8 522.451 65.4933   2
   6   4  -7 1901.01 128.054   2
  -6  -4   7 2039.86 150.255   4
   6   4  -6 664.178 73.3768   2
  -6  -4   6 889.138 94.4627   4
   6   4  -5 3264.82 168.132   2
  -6  -4   5 3135.81 176.452   4
  -6  -4   4 767.129 78.8430   4
   6   4  -4 790.727 78.2418   2
  -6  -4   3 853.726 81.0540   4
   6   4  -3 838.451 79.3953   2
  -6  -4   2 2294.46 128.407   4
   6   4  -2 2301.40 135.469   2
  -6  -4   1 35.2293 20.6394   4
   6   4  -1 45.8280 30.8634   2
  -6  -4   0 12.5597 16.9641   4
   6   4   0 19.4425 27.8999   2
  -6  -4  -1 41.6958 22.4840   4
   6   4   1 61.0724 32.7993   2
   6   4   2 7005.02 262.075   2
   6   4   2 6715.25 236.494   1
   6   4   3 207.947 46.4454   2
   6   4   3 149.502 36.8985   1
   6   4   4 766.100 78.2763   1
   6   4   4 726.620 77.4009   2
   6   4   5 10426.8 344.619   1
   6   4   5 10591.2 349.265   2
   6   4   6 1251.12 112.864   1
   6   4   6 1088.25 93.9641   2
   6   4   7 2990.29 174.216   1
   6   4   7 3236.95 172.214   2
   6   4   8-70.5140 48.4909   1
   6   4   8 7.20003 23.8140   2
   6   4   9 527.490 83.2312   1
   6   4   9 558.776 69.6212   2
   6   4  10 295.038 68.2916   1
   6   4  10 292.464 55.1605   2
   6   4  11 1045.76 122.462   1
   6   4  12 2422.39 195.230   1
  -6  -5  11-26.8247 44.5362   1
   6   5 -11 111.157 58.2891   3
  -6  -5  10 1334.49 158.958   1
  -6  -5   8 14.7219 24.9945   4
   6   5  -8 45.8037 22.0127   2
  -6  -5   7 295.907 53.4217   4
   6   5  -7 259.787 50.3556   2
  -6  -5   6 550.698 70.4913   4
   6   5  -6 553.619 70.5511   2
  -6  -5   5 27.8608 19.4537   4
   6   5  -5 40.6793 26.9896   2
   6   5  -4 8019.31 295.018   2
  -6  -5   4 7379.30 271.782   4
  -6  -5   3 3828.86 173.672   4
   6   5  -3 3798.66 186.610   2
  -6  -5   2 262.901 41.8502   4
   6   5  -2 248.037 48.9233   2
  -6  -5   1 2273.82 121.230   4
   6   5  -1 2118.11 134.088   2
  -6  -5   0-0.08426 13.5675   4
   6   5   0 21.0678 30.2113   2
  -6  -5  -1 1733.48 102.528   4
   6   5   1 1741.14 120.824   2
   6   5   2 2102.55 133.600   2
   6   5   3 479.636 66.7215   2
   6   5   3 517.239 61.2213   1
   6   5   4 1393.37 109.906   2
   6   5   4 1326.60 101.027   1
   6   5   5 142.243 44.8705   1
   6   5   5 169.176 45.2644   2
   6   5   6 18.0067 35.6575   1
   6   5   6 63.6378 35.8687   2
   6   5   7 804.887 91.9290   1
   6   5   7 833.151 86.4919   2
   6   5   8-13.8907 27.7705   1
   6   5   8 1.33560 25.3832   2
   6   5   9 479.821 75.1229   1
   6   5   9 435.812 66.2848   2
   6   5  10-36.1511 35.5433   1
   6   5  11 831.015 108.518   1
   6   5  12 490.069 88.3726   1
  -6  -6  11 290.467 90.0510   1
   6   6 -11 199.508 77.9307   3
   6   6 -10 112.458 68.3155   3
   6   6  -9 127.505 42.6469   2
   6   6  -9 203.198 69.4598   3
   6   6  -8 272.662 57.2363   2
   6   6  -7 597.671 78.4880   2
   6   6  -6 31.4893 27.7570   2
  -6  -6   5-17.4220 27.1507   4
   6   6  -5-6.02001 22.8942   2
   6   6  -4 10670.7 371.277   2
  -6  -6   4 9991.27 317.669   4
  -6  -6   3 346.709 42.8914   4
   6   6  -3 294.253 56.9042   2
  -6  -6   2 28.5368 17.9791   4
   6   6  -2 52.4187 29.9114   2
  -6  -6   1 712.324 60.1078   4
   6   6  -1 669.659 77.3857   2
   6   6   0 5144.53 225.694   2
   6   6   0 5176.78 186.210   3
  -6  -6   0 4865.99 181.560   4
  -6  -6  -1 1341.51 86.4660   4
   6   6   1 1275.32 105.976   2
   6   6   1 1226.80 70.7235   3
   6   6   2 10850.7 362.646   2
   6   6   2 10836.1 264.048   3
   6   6   3 267.754 54.5517   2
   6   6   3 228.913 44.3925   1
   6   6   4 1557.11 115.609   2
   6   6   4 1337.46 105.101   1
   6   6   5 1765.34 124.679   2
   6   6   5 1815.62 123.998   1
   6   6   6 422.740 66.5216   1
   6   6   6 296.337 51.6766   2
   6   6   7 856.497 94.2497   1
   6   6   7 882.273 88.5253   2
   6   6   8 378.886 69.9499   1
   6   6   8 512.754 67.6489   2
   6   6   9 799.818 98.7212   1
   6   6   9 789.048 84.5802   2
   6   6  10 2749.63 193.392   1
   6   6  11 5316.11 286.477   1
   6   6  12 176.389 60.4036   1
   6   7 -10 464.942 93.8926   3
   6   7  -9 261.292 57.9463   2
   6   7  -9 361.721 91.3969   3
   6   7  -8 432.930 73.2504   2
   6   7  -8 456.309 90.7157   3
   6   7  -7 1826.75 159.910   3
   6   7  -7 1428.85 129.454   2
   6   7  -6-1.00068 24.1819   2
   6   7  -6 53.9302 49.5494   3
   6   7  -5 38.0502 35.3544   2
   6   7  -5-31.9719 30.0918   3
   6   7  -4 29.2780 32.6756   2
   6   7  -4 57.1028 39.3085   3
   6   7  -3 82.8406 37.5487   2
   6   7  -3 107.884 42.0213   3
   6   7  -2 1182.55 110.267   2
   6   7  -2 1242.78 98.5084   3
   6   7  -1 692.158 82.2225   2
   6   7  -1 590.009 63.0375   3
   6   7   0 1301.31 111.147   2
   6   7   0 1207.02 81.2184   3
  -6  -7   0 1351.29 77.5531   4
  -6  -7  -1 68.8165 19.8149   4
   6   7   1 52.8293 31.2685   2
   6   7   1 44.8789 12.9028   3
   6   7   2 28068.4 742.418   2
   6   7   3 2720.81 162.280   2
   6   7   4 154.571 39.8107   2
   6   7   4 162.560 43.1397   1
   6   7   5 5.82770 29.4334   2
   6   7   5-16.9536 26.5695   1
   6   7   6 638.366 75.5986   2
   6   7   6 550.910 73.1175   1
   6   7   7 414.913 67.8767   1
   6   7   7 476.759 67.3217   2
   6   7   8 434.980 73.1455   1
   6   7   8 335.453 56.3386   2
   6   7   9 380.494 68.3107   1
   6   7  10 319.591 73.8709   1
   6   7  11 325.344 74.4398   1
   6   8 -10 146.584 42.7291   2
   6   8 -10 30.1772 42.0317   3
   6   8  -9 3491.84 249.937   3
   6   8  -9 3151.46 212.400   2
   6   8  -8 754.772 114.789   3
   6   8  -8 899.216 109.617   2
   6   8  -7 9971.43 422.520   3
   6   8  -7 10270.8 404.660   2
   6   8  -6 97.7055 42.7372   2
   6   8  -6 16.3388 40.9178   3
   6   8  -5 19.3104 36.0170   2
   6   8  -5 22.3769 30.3420   3
   6   8  -4 297.525 62.4249   2
   6   8  -4 294.124 58.2506   3
   6   8  -3 55.6042 38.0598   2
   6   8  -3 31.4035 26.8753   3
   6   8  -2 3147.99 167.100   3
   6   8  -2 3467.75 203.534   2
   6   8  -1 115.863 39.5028   2
   6   8  -1 96.9731 29.3671   3
   6   8   0 1521.24 128.692   2
   6   8   0 1648.57 100.262   3
   6   8   1 6951.94 291.808   2
   6   8   2 727.328 86.3299   2
   6   8   3 33.8857 31.6402   2
   6   8   4 34.2487 25.9083   2
   6   8   4 25.7461 29.5925   1
   6   8   5 180.669 47.9454   2
   6   8   5 120.153 39.5606   1
   6   8   6 57.2515 29.6974   2
   6   8   6-6.72631 31.9486   1
   6   8   7 634.968 77.8127   2
   6   8   7 563.751 79.0110   1
   6   8   8 215.913 53.9360   1
   6   8   9-5.82035 30.4090   1
   6   8  10 440.157 78.6340   1
   6   8  11 2.53903 34.9278   1
   6   9  -9 1100.07 145.173   3
   6   9  -9 969.425 120.726   2
   6   9  -8 2414.15 206.228   3
   6   9  -8 2335.47 188.728   2
   6   9  -7 233.719 61.9058   2
   6   9  -7 154.752 53.5531   3
   6   9  -6 668.893 94.4717   2
   6   9  -6 701.951 100.370   3
   6   9  -5 111.045 48.2246   2
   6   9  -5 60.2724 38.0410   3
   6   9  -4 12.2321 36.9999   2
   6   9  -4 15.7081 28.3064   3
   6   9  -3 765.840 99.9788   2
   6   9  -3 766.272 88.1718   3
   6   9  -2 511.932 80.9684   2
   6   9  -2 408.734 61.1085   3
   6   9  -1 127.444 47.4644   2
   6   9  -1 71.7703 28.4961   3
   6   9   0 286.656 60.9478   2
   6   9   1 1375.18 126.080   2
   6   9   2 1619.27 133.731   2
   6   9   3 404.351 68.2551   2
   6   9   4 1292.75 117.586   2
   6   9   5 34.2375 28.2151   2
   6   9   5-12.6470 29.0230   1
   6   9   6 496.270 72.6040   2
   6   9   6 391.830 67.4004   1
   6   9   7 867.824 92.3491   2
   6   9   7 871.654 100.382   1
   6   9   8 7177.38 320.099   1
   6   9   9 1697.22 150.219   1
   6   9  10 137.039 48.4433   1
   6  10  -8-69.1490 40.4888   2
   6  10  -8-26.1972 46.6809   3
   6  10  -7 547.778 92.7145   2
   6  10  -7 365.311 79.3948   3
   6  10  -6 200.870 60.9267   2
   6  10  -6 160.317 51.8986   3
   6  10  -5 95.0431 43.8435   2
   6  10  -5-38.5033 35.8605   3
   6  10  -4 2032.28 158.767   3
   6  10  -4 2227.53 179.026   2
   6  10  -3 2774.48 195.731   2
   6  10  -3 2701.16 177.588   3
   6  10  -2 160.531 56.6294   2
   6  10  -2 100.389 36.4792   3
   6  10  -1 1177.44 125.119   2
   6  10   0 3279.64 207.775   2
   6  10   1 300.227 63.2495   2
   6  10   2 1615.63 140.226   2
   6  10   3 541.075 81.4970   2
   6  10   4 548.000 81.5231   2
   6  10   5 287.846 59.4618   2
   6  10   6-27.6425 37.9771   2
   6  10   6-7.90385 29.5235   1
   6  10   7 946.236 103.577   1
   6  10   8 1536.26 139.723   1
   6  10   9 63.7294 33.4115   1
   6  11  -7 49.4919 38.7105   2
   6  11  -7 43.7704 36.9526   3
   6  11  -6 890.093 120.532   3
   6  11  -6 1252.78 143.408   2
   6  11  -5 1776.95 163.883   3
   6  11  -5 1938.26 176.365   2
   6  11  -4 780.511 110.315   2
   6  11  -4 768.305 101.971   3
   6  11  -3 42.6299 44.8227   2
   6  11  -3 146.572 45.2460   3
   6  11  -2 59.7467 40.6311   2
   6  11  -1 338.409 71.3357   2
   6  11   0 69.5461 43.0146   2
   6  11   1 2395.24 181.081   2
   6  11   2 4616.06 255.111   2
   6  11   3 783.057 101.240   2
   6  11   4 1685.06 145.117   2
   6  11   5 63.4376 35.0185   2
   6  11   8 126.479 51.8517   1
   6  12  -6-16.1369 44.8805   3
   6  12  -5 1387.09 145.534   3
   6  12  -5 1985.55 183.206   2
   6  12  -4 598.372 100.531   2
   6  12  -3-38.5125 42.8084   2
   6  12  -2 1393.32 148.613   2
   6  12  -1 28.3304 35.7455   2
   6  12   0 184.970 55.5716   2
   6  12   1 505.127 90.0089   2
   6  12   2 20.0174 32.5457   2
   6  12   3 60.5399 39.3037   2
   6  12   4 307.719 68.2106   2
   6  13  -2 564.823 99.9181   2
   6  13  -1 411.015 82.8419   2
   6  13   0 352.465 78.5438   2
   6  13   1 275.086 69.5592   2
   6  13   2 6.46191 36.6412   2
   6  13   3 694.460 100.976   2
  -7   8   4 655.015 118.420   4
  -7   8   3 133.755 56.6697   4
  -7   8   2 237.095 70.8017   4
  -7   8   1 520.642 100.663   4
  -7   8   0 408.631 84.3250   4
  -7   8   0 545.856 96.7926   3
  -7   8  -1 170.150 59.9901   4
  -7   8  -1 200.273 66.0310   3
  -7   8  -2 1101.71 138.595   4
  -7   8  -2 1310.57 153.622   3
  -7   8  -3 113.084 47.6301   4
  -7   8  -3 153.582 51.4848   3
  -7   8  -4 272.427 65.3425   4
  -7   8  -4 246.536 67.7484   3
  -7   8  -5-0.84871 25.5299   3
  -7   7   6 48.3689 50.8284   4
  -7   7   5 3.42850 28.2237   4
  -7   7   4 240.312 71.2611   4
  -7   7   3 181.573 66.4599   4
  -7   7   2 456.047 93.6497   4
  -7   7   1 82.2897 45.0182   4
  -7   7   1 27.2592 35.3818   3
  -7   7   0 40.1074 36.7706   4
  -7   7   0 52.7867 42.4497   3
  -7   7  -1 80.1929 40.4755   4
  -7   7  -1 44.9652 41.8772   3
  -7   7  -2-14.3944 28.7464   4
  -7   7  -2-47.3415 34.3124   3
  -7   7  -3 2297.94 196.057   4
  -7   7  -3 2778.27 211.436   3
  -7   7  -4 373.926 78.8887   4
  -7   7  -4 583.869 99.8022   3
  -7   7  -5 2323.98 196.107   4
  -7   7  -5 2706.52 217.986   3
  -7   7  -6 2695.81 220.743   3
  -7   7  -6 2413.92 201.080   4
  -7   7  -7 34.0481 31.0511   4
  -7   7  -7-1.39119 27.5703   3
  -7   6   7 216.194 66.7611   4
  -7   6   6 294.534 84.9864   4
  -7   6   5 454.792 96.1635   4
  -7   6   4 2075.76 197.288   4
  -7   6   3 429.643 88.3535   4
  -7   6   2 55.9406 42.2177   4
  -7   6   1 507.776 95.0420   4
  -7   6   0 492.214 90.3098   4
  -7   6   0 643.895 98.1196   3
  -7   6  -1 384.793 78.0913   4
  -7   6  -1 544.946 88.1611   3
  -7   6  -2 112.674 45.4997   4
  -7   6  -2 47.2230 35.8179   3
  -7   6  -3 271.694 63.7825   4
  -7   6  -3 326.308 70.4147   3
  -7   6  -4 969.693 119.776   4
  -7   6  -4 1116.17 129.295   3
  -7   6  -5 2486.89 195.710   4
  -7   6  -5 2089.00 182.849   3
  -7   6  -6 2105.48 184.841   4
  -7   6  -6 1776.73 171.336   3
  -7   6  -7 933.956 121.317   4
  -7   6  -7 982.105 128.131   3
  -7   6  -8 110.665 46.7102   4
  -7   6  -8-40.3263 36.0087   3
  -7   6  -9 100.050 44.5422   4
  -7   6  -9 16.8720 31.8327   3
  -7   5   8 10.6270 53.8990   4
  -7   5   7 2934.96 254.366   4
  -7   5   6 853.237 130.382   4
  -7   5   5 69.7301 57.5387   4
  -7   5   4 44.1582 40.4567   4
  -7   5   3 25.4252 34.6008   4
  -7   5   2 619.927 103.283   4
  -7   5   1 183.674 54.0554   4
  -7   5   0 392.526 77.5074   4
  -7   5   0 665.293 92.3204   3
  -7   5  -1 6595.00 326.643   4
  -7   5  -1 6572.68 311.609   3
  -7   5  -2 1145.65 127.264   4
  -7   5  -2 981.663 111.743   3
  -7   5  -3 1810.47 159.766   4
  -7   5  -3 1798.71 154.578   3
  -7   5  -4 13.9212 32.0127   4
  -7   5  -4 98.1661 42.0002   3
  -7   5  -5 1862.59 165.246   4
  -7   5  -5 1918.08 165.220   3
  -7   5  -6-9.37919 31.3293   4
  -7   5  -6 21.9099 27.4499   3
  -7   5  -7-20.2409 32.7974   4
  -7   5  -7-16.8548 38.5032   3
  -7   5  -8-0.24620 33.5932   4
  -7   5  -8 11.6930 28.0745   3
  -7   5  -9 23.5756 29.8532   3
  -7   5 -10 4.31872 23.0518   3
  -7   4   8 4207.67 305.066   4
  -7   4   7 470.035 105.034   4
  -7   4   6 7842.90 405.733   4
  -7   4   5-5.84487 50.5391   4
  -7   4   4 592.923 101.441   4
  -7   4   3 663.472 104.909   4
   7  -4  -3 841.164 83.5236   2
  -7   4   2 1601.54 155.594   4
  -7   4   1 720.896 103.767   4
  -7   4   0 31.8072 30.0792   4
  -7   4   0 54.4665 38.3684   3
  -7   4  -1 825.553 106.475   4
  -7   4  -1 687.897 90.8211   3
  -7   4  -2 9399.10 388.157   4
  -7   4  -2 9402.87 370.376   3
  -7   4  -3 17.7713 32.8815   4
  -7   4  -3 49.9157 25.2908   3
  -7   4  -4 1196.54 125.613   4
  -7   4  -4 1132.15 118.833   3
  -7   4  -5 137.289 46.2447   4
  -7   4  -5 194.751 52.3815   3
  -7   4  -6 79.4775 37.0567   4
  -7   4  -6 121.071 45.3424   3
  -7   4  -7 107.612 46.4686   3
  -7   4  -8 1466.35 143.292   3
  -7   4  -9 192.104 55.2345   3
  -7   4 -10 132.251 48.6019   3
  -7   3   9 204.236 70.2145   4
  -7   3   8 2424.71 226.867   4
  -7   3   7 5683.02 341.206   4
  -7   3   6-29.8467 38.0522   4
  -7   3   5-9.96671 49.0152   4
  -7   3   4 971.542 122.936   4
  -7   3   3-30.4787 35.1957   4
   7  -3  -3 61.6326 33.6687   2
  -7   3   2 259.763 62.1170   4
   7  -3  -2 229.878 47.8117   2
  -7   3   1 2064.95 166.438   4
  -7   3   0 6.69759 31.5294   4
  -7   3   0-8.07148 26.2413   3
  -7   3  -1-38.4949 35.3842   4
  -7   3  -1 6.94171 25.3150   3
  -7   3  -2 206.322 54.0455   4
  -7   3  -2 185.446 46.5521   3
  -7   3  -3 2429.06 162.609   3
  -7   3  -3 2704.13 184.566   4
  -7   3  -4 225.560 57.7270   4
  -7   3  -4 145.184 42.6317   3
  -7   3  -5 1017.67 112.943   4
  -7   3  -5 892.861 99.0230   3
  -7   3  -6 528.194 78.2556   3
  -7   3  -7 2035.75 158.563   3
  -7   3  -8 1021.04 112.530   3
  -7   3  -9 533.525 82.1613   3
  -7   2  10 892.464 139.072   4
  -7   2   9 265.336 77.5936   4
  -7   2   8 148.825 64.7713   4
  -7   2   7 99.7571 40.9245   4
  -7   2   6 880.608 120.940   4
  -7   2   5 230.869 66.0407   4
  -7   2   4 366.670 78.5070   4
   7  -2  -4 336.725 47.5718   2
  -7   2   3 1453.27 143.196   4
   7  -2  -3 1493.30 104.981   2
  -7   2   2 412.737 74.2121   4
   7  -2  -2 369.060 57.3934   2
  -7   2   1 522.513 82.8632   4
   7  -2  -1 727.554 77.3809   2
  -7   2   0 2101.08 159.679   4
  -7   2  -1 4609.03 240.248   4
  -7   2  -1 4570.63 217.661   3
  -7   2  -2 1709.03 141.250   4
  -7   2  -2 1619.67 123.848   3
  -7   2  -3 193.563 52.8433   4
  -7   2  -3 139.725 41.7141   3
  -7   2  -4 1099.03 113.525   4
  -7   2  -4 1036.47 98.7385   3
   7  -2   4 999.723 69.3110   1
  -7   2  -5 154.109 42.1454   3
   7  -2   5 58.3944 22.0447   1
   7  -2   6 38.4214 23.9641   1
  -7   2  -6-34.7910 32.9367   3
   7  -2   7 1684.45 118.580   1
  -7   2  -7 2003.88 146.178   3
   7  -2   8 1.18467 21.4807   1
  -7   2  -8 22.9824 26.2119   3
   7  -2   9 1683.46 131.430   1
  -7   2  -9 1666.64 137.543   3
   7  -2  10 1012.50 106.734   1
   7  -2  11 1082.25 118.660   1
   7  -2  12 1216.84 129.358   1
  -7   1  10-26.1543 33.9689   4
  -7   1   9 57.6988 45.6167   4
  -7   1   9-42.0010 29.0804   1
  -7   1   8 118.450 48.5152   4
  -7   1   8 99.8555 44.7533   1
  -7   1   7 599.911 103.656   4
  -7   1   7 510.669 80.8895   1
  -7   1   6 268.106 71.5686   4
  -7   1   6 244.257 50.5039   1
  -7   1   5 79.0761 46.4106   4
  -7   1   4 509.813 87.0850   4
   7  -1  -4 446.604 54.2762   2
  -7   1   3 145.538 53.5890   4
   7  -1  -3 98.8847 33.9334   2
  -7   1   2 1819.03 149.992   4
   7  -1  -2 1937.27 124.333   2
  -7   1   1 94.0622 41.4294   4
   7  -1  -1 65.5905 35.0087   2
  -7   1   0 1452.92 127.211   4
   7  -1   0 1728.76 121.277   2
  -7   1  -1 12352.0 429.935   4
  -7   1  -2 4180.21 218.235   4
  -7   1  -2 3608.18 181.574   3
  -7   1  -3 1268.99 117.367   4
  -7   1  -3 1270.69 103.178   3
  -7   1  -4 957.811 88.1324   3
   7  -1   4 1036.78 76.0653   1
   7  -1   5 394.149 51.0181   1
  -7   1  -5 575.690 68.9239   3
   7  -1   6 170.257 36.7480   1
  -7   1  -6 81.2221 27.7484   3
   7  -1   7 519.839 64.5424   1
  -7   1  -7 380.230 60.1378   3
   7  -1   8 306.578 53.9759   1
  -7   1  -8 347.763 55.3199   3
   7  -1   9 336.127 59.4604   1
   7  -1  10 28.1565 27.6158   1
   7  -1  11 173.378 53.4583   1
   7  -1  12-36.7801 29.2264   1
  -7   0  11 12.7950 33.1373   4
  -7   0  11 66.8037 46.2116   1
  -7   0  10 7.45275 46.1374   4
  -7   0  10-46.6294 47.9649   1
  -7   0   9-10.7892 30.6331   1
  -7   0   9-25.4301 50.6824   4
  -7   0   8 1055.45 124.250   1
  -7   0   8 1427.17 158.177   4
  -7   0   7 3487.24 210.825   1
  -7   0   7 3859.69 251.693   4
  -7   0   6 806.394 111.540   4
  -7   0   5 188.467 51.0737   4
   7   0  -5 191.465 36.5075   2
   7   0  -4 3950.66 178.652   2
  -7   0   4 4004.58 235.908   4
  -7   0   3 309.660 65.5452   4
   7   0  -3 351.795 50.5030   2
   7   0  -2 1290.25 99.8256   2
  -7   0   2 1276.40 120.629   4
  -7   0   1 5532.34 261.519   4
   7   0  -1 5642.38 227.825   2
  -7   0   0 8058.23 318.167   4
   7   0   0 7635.03 287.847   2
  -7   0  -1 4037.57 213.605   4
   7   0   1 4336.03 201.189   2
  -7   0  -2 0.43937 28.2633   4
  -7   0  -3 40.3724 24.5881   3
   7   0   3 8.60765 17.5186   1
  -7   0  -4 28.5462 23.2697   3
   7   0   4-3.25720 16.1652   1
   7   0   5 899.782 78.3056   1
  -7   0  -5 972.057 82.7711   3
   7   0   6 239.532 46.0512   1
  -7   0  -6 228.477 41.6441   3
   7   0   7 2341.88 144.065   1
  -7   0  -7 2434.44 137.451   3
   7   0   8 4850.43 229.585   1
   7   0   9-10.1515 24.4485   1
   7   0  10 2063.84 160.473   1
   7   0  11 954.664 113.815   1
   7   0  12-19.9517 35.7331   1
  -7  -1  11 1421.79 164.397   1
  -7  -1  11 1747.63 188.741   4
  -7  -1  10 518.883 104.076   1
  -7  -1  10 685.513 113.352   4
  -7  -1   9 1132.80 136.305   1
  -7  -1   9 1109.01 138.765   4
  -7  -1   8 4751.29 263.119   1
  -7  -1   8 4858.75 290.507   4
  -7  -1   7 756.092 108.286   4
  -7  -1   6 33.9849 30.7987   4
   7   1  -6 36.3484 18.7993   2
  -7  -1   5-29.3612 37.6944   4
   7   1  -5 34.1325 20.8250   2
  -7  -1   4 1736.00 148.520   4
   7   1  -4 1523.76 105.907   2
  -7  -1   3 20.8751 27.6545   4
   7   1  -3 44.1414 25.6538   2
  -7  -1   2 8090.03 320.501   4
   7   1  -2 7644.66 279.959   2
  -7  -1   1 779.525 89.1394   4
   7   1  -1 698.463 74.9227   2
  -7  -1   0 2843.82 170.557   4
   7   1   0 3018.80 162.041   2
  -7  -1  -1 54.9299 30.4455   4
   7   1   1 129.023 44.3901   2
  -7  -1  -2 318.131 56.4588   4
   7   1   2 360.918 65.9124   2
   7   1   3 2185.86 145.109   2
   7   1   3 1938.10 109.244   1
  -7  -1  -4 89.3337 26.0042   3
   7   1   4 154.347 52.5787   2
   7   1   4 53.3349 23.4959   1
   7   1   5 26.8790 20.5992   1
  -7  -1  -5 14.7666 18.0870   3
   7   1   6 3511.46 177.960   1
  -7  -1  -6 3692.21 157.604   3
   7   1   7 5495.12 239.751   1
   7   1   8 5959.04 261.924   1
   7   1   9 235.206 54.2444   1
   7   1  10 198.531 55.9328   1
   7   1  10 264.277 63.7243   2
   7   1  11 263.514 68.3285   1
   7   1  11 148.200 49.9553   2
   7   1  12 93.0119 38.3044   1
   7   1  12 143.311 51.0548   2
  -7  -2  11 199.030 66.4392   4
  -7  -2  11 185.417 66.0518   1
  -7  -2  10 253.231 69.8008   4
  -7  -2  10 175.813 66.4839   1
  -7  -2   9 318.886 75.7690   4
  -7  -2   9 222.563 59.6139   1
  -7  -2   8 1.86238 34.2138   4
  -7  -2   7 2179.49 178.719   4
  -7  -2   6 53.9127 32.5085   4
   7   2  -6-11.1806 16.5845   2
  -7  -2   5 78.7046 38.0174   4
   7   2  -5 35.5769 22.7744   2
   7   2  -4 5085.47 213.864   2
  -7  -2   4 5112.05 256.444   4
  -7  -2   3 24.9433 25.6772   4
   7   2  -3 15.8530 23.3097   2
  -7  -2   2 5707.05 253.526   4
   7   2  -2 5617.23 230.002   2
   7   2  -1 11483.8 365.370   2
  -7  -2   1 10784.0 378.489   4
  -7  -2   0 1038.82 96.1819   4
   7   2   0 1165.86 98.6695   2
  -7  -2  -1 111.287 41.4350   4
   7   2   1 118.803 46.0587   2
  -7  -2  -2 1674.15 124.446   4
   7   2   2 1831.07 126.209   2
   7   2   3 60.3888 26.6890   1
   7   2   3 86.2562 45.3873   2
   7   2   4 4317.23 210.539   2
   7   2   4 3925.95 177.260   1
   7   2   5 2752.68 151.449   1
   7   2   5 3287.10 181.808   2
   7   2   6 4027.93 197.682   1
   7   2   6 4403.20 220.589   2
   7   2   7 9806.47 351.885   1
   7   2   7 9830.22 365.889   2
   7   2   8 882.701 95.8381   1
   7   2   8 1098.15 110.992   2
   7   2   9 841.198 96.9441   1
   7   2   9 839.126 100.098   2
   7   2  10 53.9789 40.1063   1
   7   2  10 21.3413 39.9835   2
   7   2  11 77.8216 44.8489   1
   7   2  11 118.373 49.5709   2
   7   2  12 0.23067 29.8685   1
  -7  -3  11 1238.25 151.676   4
  -7  -3  11 1317.52 168.553   1
  -7  -3  10-8.76073 26.6226   4
  -7  -3  10 30.2214 40.0691   1
  -7  -3   9-15.1532 38.6344   4
  -7  -3   8 248.275 61.1396   4
  -7  -3   7 390.152 78.1628   4
   7   3  -7 269.048 45.8038   2
  -7  -3   6 215.992 55.9600   4
   7   3  -6 278.902 51.0952   2
  -7  -3   5 1317.05 124.580   4
   7   3  -5 1324.04 104.366   2
  -7  -3   4 234.825 49.0263   4
   7   3  -4 246.810 44.9617   2
  -7  -3   3 137.712 41.0168   4
   7   3  -3 143.467 37.8218   2
  -7  -3   2 7167.11 282.624   4
   7   3  -2 6894.31 267.391   2
  -7  -3   1 3600.39 184.514   4
   7   3  -1 3284.97 173.816   2
  -7  -3   0 244.922 47.6109   4
   7   3   0 293.674 59.2033   2
  -7  -3  -1 832.222 83.5757   4
   7   3   1 735.875 81.1595   2
   7   3   2-52.8239 40.1693   2
   7   3   3 3713.69 193.962   2
   7   3   3 3763.41 170.847   1
   7   3   4 1335.47 113.727   2
   7   3   4 1292.08 98.6208   1
   7   3   5 961.013 87.1207   1
   7   3   5 966.051 98.3600   2
   7   3   6 169.757 41.5167   1
   7   3   6 126.305 43.0149   2
   7   3   7 3269.85 187.508   1
   7   3   7 3568.21 194.720   2
   7   3   8-39.3575 40.1432   1
   7   3   8 1.86736 30.2585   2
   7   3   9 446.806 72.1037   1
   7   3   9 406.704 69.0931   2
   7   3  10 62.7416 34.9409   1
   7   3  10 94.3311 42.9268   2
   7   3  11 94.0967 45.4984   1
   7   3  11 22.2990 26.4904   2
   7   3  12 109.596 52.2597   1
  -7  -4  11 16.1904 49.3834   1
  -7  -4  10-8.22698 28.3120   4
  -7  -4  10-6.38986 41.2247   1
  -7  -4   9-7.71979 34.8417   4
  -7  -4   8 99.0860 44.6838   4
  -7  -4   7-16.7406 25.1148   4
   7   4  -7 16.9885 27.5818   2
   7   4  -6 5208.15 237.023   2
  -7  -4   6 5220.21 261.987   4
   7   4  -5 2123.33 138.600   2
  -7  -4   5 2072.29 151.976   4
  -7  -4   4 950.983 97.2578   4
   7   4  -4 901.454 88.3448   2
  -7  -4   3 659.480 79.3544   4
   7   4  -3 668.585 76.9668   2
  -7  -4   2 2721.36 156.616   4
   7   4  -2 2800.35 159.469   2
  -7  -4   1 59.1129 28.1166   4
   7   4  -1 73.5980 36.1564   2
  -7  -4   0 2617.50 147.022   4
   7   4   0 2693.56 161.386   2
  -7  -4  -1 48.1294 28.4745   4
   7   4   1 95.0193 44.4230   2
   7   4   2 9841.70 347.398   2
   7   4   3 290.325 55.7800   2
   7   4   3 292.099 49.2556   1
   7   4   4 1183.93 104.665   2
   7   4   4 1160.00 95.5902   1
   7   4   5 852.309 85.4387   1
   7   4   5 931.447 94.5198   2
   7   4   6 0.82405 28.3006   1
   7   4   6-35.4073 35.9094   2
   7   4   7 4969.00 240.735   1
   7   4   7 5156.42 242.464   2
   7   4   8 561.791 79.9255   1
   7   4   8 607.149 80.7390   2
   7   4   9-21.3899 36.7779   1
   7   4   9-19.8440 36.4359   2
   7   4  10 43.9588 36.8904   1
   7   4  10 37.2786 26.7228   2
   7   4  11-58.8022 44.9853   1
   7   4  12 240.094 65.1038   1
  -7  -5   8 492.294 78.4490   4
   7   5  -8 549.975 74.3758   2
   7   5  -7 4869.60 234.857   2
  -7  -5   7 4724.40 243.606   4
   7   5  -6 2170.33 150.758   2
  -7  -5   6 2393.16 162.979   4
   7   5  -5 3284.10 184.690   2
  -7  -5   5 3085.10 180.142   4
  -7  -5   4 1460.43 114.947   4
   7   5  -4 1232.99 107.796   2
  -7  -5   3 155.737 38.6660   4
   7   5  -3 211.784 49.9210   2
  -7  -5   2 3193.82 167.320   4
   7   5  -2 3196.25 177.185   2
  -7  -5   1 984.695 88.0148   4
   7   5  -1 818.388 88.2046   2
  -7  -5   0 12.0889 20.2261   4
   7   5   0 12.1990 30.0646   2
  -7  -5  -1 2474.59 139.259   4
   7   5   1 2289.29 151.991   2
   7   5   2 788.350 90.4066   2
   7   5   3 1031.75 98.8237   2
   7   5   3 1055.78 90.6452   1
   7   5   4 946.002 97.8349   2
   7   5   4 904.934 87.7534   1
   7   5   5 2310.32 152.205   2
   7   5   5 2192.06 141.578   1
   7   5   6 4007.94 206.208   1
   7   5   6 4289.44 216.507   2
   7   5   7 1979.74 146.681   1
   7   5   7 2159.91 150.825   2
   7   5   8 154.181 49.2776   1
   7   5   8 225.692 55.3259   2
   7   5   9-19.9845 33.7112   1
   7   5   9 35.6901 33.5229   2
   7   5  10 338.886 70.1304   1
   7   5  10 253.027 54.2150   2
   7   5  11-29.5910 51.1664   1
   7   5  12-6.45644 32.6533   1
   7   6 -10 16.5331 44.3738   3
   7   6  -8 112.935 39.3476   2
   7   6  -7 91.1166 37.0309   2
   7   6  -6 34.2522 23.3271   2
   7   6  -5 1118.45 111.400   2
   7   6  -4 657.625 83.4281   2
  -7  -6   4 663.699 71.8745   4
  -7  -6   3 99.3413 29.1930   4
   7   6  -3 67.6551 32.7025   2
  -7  -6   2 9341.58 309.264   4
   7   6  -2 8828.17 337.434   2
  -7  -6   1 35.3843 22.1680   4
   7   6  -1 39.1999 30.7255   2
  -7  -6   0 24.3176 17.4529   4
   7   6   0 41.3028 29.9825   2
  -7  -6  -1 4122.56 182.659   4
   7   6   1 4339.87 214.033   2
   7   6   2 4969.04 234.290   2
   7   6   3 1511.52 121.559   2
   7   6   4 3553.93 192.845   2
   7   6   4 3293.61 176.297   1
   7   6   5 467.392 72.9074   2
   7   6   5 427.162 65.7944   1
   7   6   6 372.751 65.0522   2
   7   6   6 300.551 57.0612   1
   7   6   7-2.42085 27.8216   1
   7   6   7 31.5462 34.8388   2
   7   6   8 13.0192 31.2289   1
   7   6   8 38.3078 32.1337   2
   7   6   9 324.294 67.8173   1
   7   6   9 227.161 51.1243   2
   7   6  10 2724.55 198.616   1
   7   6  11 47.0216 40.2706   1
   7   7 -10 542.959 107.639   3
   7   7  -9 143.800 49.6201   2
   7   7  -9 144.268 57.3269   3
   7   7  -8 9.39820 28.9423   2
   7   7  -8 11.3089 45.3177   3
   7   7  -7 1934.67 155.780   2
   7   7  -7 2083.99 179.463   3
   7   7  -6 328.549 68.8534   2
   7   7  -6 319.868 70.8415   3
   7   7  -5 979.088 108.064   2
   7   7  -4 221.048 53.1795   2
   7   7  -3 129.536 40.1233   2
   7   7  -2 0.16076 26.2202   2
   7   7  -2 46.4359 28.1741   3
   7   7  -1 1413.73 121.506   2
   7   7  -1 1444.83 103.538   3
  -7  -7   0 380.678 48.2997   4
   7   7   0 423.926 71.6951   2
   7   7   0 460.612 52.3010   3
  -7  -7  -1 26459.0 650.329   4
   7   7   1 25075.6 711.838   2
  -7  -7  -2 473.200 57.7255   4
   7   7   2 361.240 65.5604   2
   7   7   3 7.19148 29.1168   2
   7   7   4 829.353 92.2968   2
   7   7   4 810.721 88.8618   1
   7   7   5 2313.34 155.865   2
   7   7   5 2192.35 148.493   1
   7   7   6 419.504 65.7988   2
   7   7   6 196.743 50.7475   1
   7   7   7-3.63695 22.8037   2
   7   7   7 33.9056 34.7369   1
   7   7   8 40.5230 32.7573   1
   7   7   8 12.0996 21.7756   2
   7   7   9 181.019 55.0338   1
   7   7  10 422.083 78.3196   1
   7   7  11 76.6137 48.9417   1
   7   8  -9 26.5195 26.9401   2
   7   8  -9 56.3250 56.3609   3
   7   8  -8 2545.19 212.494   3
   7   8  -8 2511.70 188.241   2
   7   8  -7 6978.24 344.806   3
   7   8  -7 6529.00 318.213   2
   7   8  -6 1240.87 128.698   2
   7   8  -6 1139.22 130.111   3
   7   8  -5 739.848 99.8866   2
   7   8  -5 662.570 93.2142   3
   7   8  -4 1139.46 118.388   2
   7   8  -4 1253.63 119.963   3
   7   8  -3 220.949 54.7937   2
   7   8  -3 138.534 41.3154   3
   7   8  -2 5187.37 263.300   2
   7   8  -2 4842.74 220.178   3
   7   8  -1 1032.04 109.753   2
   7   8  -1 1039.95 85.8271   3
   7   8   0 215.097 54.0066   2
   7   8   1 957.298 104.413   2
   7   8   2 3783.07 210.839   2
   7   8   3 297.624 60.2558   2
   7   8   4 2344.73 161.573   2
   7   8   5 369.052 64.6601   2
   7   8   5 463.266 70.0313   1
   7   8   6 42.1265 27.6750   2
   7   8   6 60.8869 34.8828   1
   7   8   7-11.3082 19.3162   2
   7   8   7 26.9312 43.6009   1
   7   8   8 868.435 97.0572   2
   7   8   8 786.887 99.6093   1
   7   8   9 318.313 71.5950   1
   7   8  10 555.601 88.1610   1
   7   9  -9 300.948 68.6888   2
   7   9  -8 3148.03 235.351   3
   7   9  -8 3076.00 218.052   2
   7   9  -7 2228.94 189.004   3
   7   9  -7 2468.25 191.732   2
   7   9  -6 852.684 108.528   3
   7   9  -6 980.105 118.638   2
   7   9  -5-31.3020 39.6239   2
   7   9  -5-18.6889 31.9585   3
   7   9  -4-9.59417 35.9649   2
   7   9  -4 14.6252 23.6834   3
   7   9  -3 1118.97 121.371   2
   7   9  -3 1075.13 107.162   3
   7   9  -2-29.2830 33.9332   2
   7   9  -2-29.3085 30.3803   3
   7   9  -1 29.7710 36.0716   2
   7   9   0 282.481 62.8068   2
   7   9   1 2474.50 177.241   2
   7   9   2 150.791 48.4745   2
   7   9   3-30.2496 30.4270   2
   7   9   4 29.0490 29.3682   2
   7   9   5 758.731 94.2682   2
   7   9   6 101.023 33.7485   2
   7   9   6 45.0465 33.1152   1
   7   9   7 872.294 99.5958   2
   7   9   7 863.029 103.267   1
   7   9   8 608.524 92.2909   1
   7   9   9 140.487 49.4788   1
   7  10  -8 544.386 95.4142   2
   7  10  -8 518.978 98.1895   3
   7  10  -7 397.078 81.6282   2
   7  10  -7 320.620 80.9551   3
   7  10  -6 172.644 58.3415   2
   7  10  -6 124.275 48.6878   3
   7  10  -5-84.4521 45.5472   2
   7  10  -5-34.9489 37.8824   3
   7  10  -4 220.160 65.6148   2
   7  10  -4 190.073 56.5212   3
   7  10  -3 526.556 86.8689   2
   7  10  -3 405.747 68.4733   3
   7  10  -2 826.108 107.711   2
   7  10  -1 1899.19 163.899   2
   7  10   0 10.6287 37.5581   2
   7  10   1 176.299 56.5302   2
   7  10   2 2462.43 181.845   2
   7  10   3 73.6373 36.4133   2
   7  10   4 36.8294 28.1081   2
   7  10   5-2.29394 32.4218   2
   7  10   6 20.3144 23.2801   2
   7  10   7 556.965 84.3673   1
   7  10   8 85.8274 43.2241   1
   7  10   9 574.001 92.9742   1
   7  11  -7 294.000 78.5410   3
   7  11  -6 131.113 52.2940   2
   7  11  -6 79.0540 43.0512   3
   7  11  -5 126.472 58.6131   2
   7  11  -5 58.2913 34.7962   3
   7  11  -4 262.773 67.4650   2
   7  11  -3 612.593 99.8731   2
   7  11  -2 257.838 65.6184   2
   7  11  -1 101.446 46.1787   2
   7  11   0 128.684 54.1528   2
   7  11   1 2872.20 208.292   2
   7  11   2 1532.43 148.527   2
   7  11   3 1208.35 130.993   2
   7  11   4 944.237 115.329   2
   7  11   5 307.010 67.9397   2
   7  11   6 84.6665 40.6020   2
   7  12  -4 1291.21 147.984   2
   7  12  -3 535.549 98.1699   2
   7  12  -2 22.7079 34.7062   2
   7  12  -1 1497.01 156.122   2
   7  12   0 1660.66 164.207   2
   7  12   1 300.900 73.3811   2
   7  12   2 6.16786 41.1696   2
   7  12   3 81.2289 45.1128   2
   7  12   4-13.9423 37.0851   2
   7  12   5 145.765 47.4824   2
   7  13   0 88.1160 49.4695   2
   7  13   1-90.6114 45.8642   2
   7  13   2-69.5355 40.2629   2
   7  13   3 17.8983 29.3965   2
  -8   8   1 1099.11 147.762   4
  -8   8   0-22.7702 43.6313   4
  -8   8  -1 123.489 63.6146   4
  -8   8  -2 872.243 132.576   4
  -8   7   3 432.975 97.6924   4
  -8   7   2 3076.22 249.839   4
  -8   7   1 225.747 67.6684   4
  -8   7   0 9.06593 32.6018   4
  -8   7  -1-22.7705 35.4354   4
  -8   7  -1-6.99067 33.0699   3
  -8   7  -2-28.6548 27.9999   4
  -8   7  -2-12.4844 41.0575   3
  -8   7  -3 417.328 92.0371   4
  -8   7  -3 324.825 76.8804   3
  -8   7  -4-83.6812 46.3278   4
  -8   7  -4 29.4181 41.9739   3
  -8   7  -5 382.319 84.4384   4
  -8   7  -5 318.251 77.7416   3
  -8   7  -6 119.325 53.5798   4
  -8   6   5 53.1251 48.6377   4
  -8   6   4 95.4433 46.1659   4
  -8   6   3 136.214 48.2995   4
  -8   6   2 759.651 124.361   4
  -8   6   1 752.284 122.054   4
  -8   6   0 88.8676 43.4369   4
  -8   6  -1-34.2515 50.7859   4
  -8   6  -1 80.4974 46.7361   3
  -8   6  -2 294.379 73.8975   4
  -8   6  -2 276.747 74.9931   3
  -8   6  -3 29.2068 37.4125   4
  -8   6  -3-1.47211 36.8515   3
  -8   6  -4-5.64184 31.3883   4
  -8   6  -4 27.2193 33.4504   3
  -8   6  -5 164.836 59.5844   4
  -8   6  -5 220.395 64.8184   3
  -8   6  -6 82.7077 47.8477   4
  -8   6  -6 192.766 58.5154   3
  -8   6  -7 449.216 93.0509   4
  -8   6  -7 374.527 81.0544   3
  -8   6  -8 196.727 66.0670   4
  -8   5   6 823.901 139.833   4
  -8   5   5 1155.66 156.894   4
  -8   5   4 11.5147 36.9220   4
  -8   5   3 64.7991 45.3819   4
  -8   5   2 143.157 53.3730   4
  -8   5   1 132.489 53.9056   4
  -8   5   0 13.5753 39.1779   4
  -8   5  -1-0.76029 28.8799   4
  -8   5  -1 3.01878 29.6427   3
  -8   5  -2 1129.59 135.533   4
  -8   5  -2 1111.87 128.062   3
  -8   5  -3 1720.92 168.672   4
  -8   5  -3 1626.17 155.912   3
  -8   5  -4 7450.54 369.970   4
  -8   5  -4 7010.85 345.398   3
  -8   5  -5 37.8095 37.8450   4
  -8   5  -5 26.2530 35.6021   3
  -8   5  -6 1698.84 171.862   4
  -8   5  -6 1680.39 163.221   3
  -8   5  -7 62.0393 30.8909   4
  -8   5  -7-9.22675 24.2098   3
  -8   5  -8 70.1999 37.8880   4
  -8   5  -8-45.0596 35.2090   3
  -8   5  -9 99.7913 52.2934   4
  -8   5  -9 96.6512 42.6838   3
  -8   4   7 2492.05 238.828   4
  -8   4   6 960.601 141.816   4
  -8   4   5 506.428 107.438   4
  -8   4   4 641.250 106.203   4
  -8   4   3 2111.43 199.249   4
  -8   4   2 1443.33 159.928   4
   8  -4  -2 1522.23 126.193   2
  -8   4   1 324.274 77.9521   4
  -8   4   0-6.51149 31.1429   4
  -8   4  -1 447.897 82.3364   4
  -8   4  -1 514.456 83.1693   3
  -8   4  -2 60.4318 45.8445   4
  -8   4  -2 209.683 56.5045   3
  -8   4  -3 240.797 63.5903   4
  -8   4  -3 303.071 64.4717   3
  -8   4  -4 5000.53 288.277   4
  -8   4  -4 4654.64 260.643   3
  -8   4  -5 2564.45 204.156   4
  -8   4  -5 2568.63 188.490   3
  -8   4  -6 1408.03 152.535   4
  -8   4  -6 1130.56 126.967   3
  -8   4  -7 832.817 116.255   4
  -8   4  -7 984.107 117.080   3
  -8   4  -8 123.735 53.8002   4
  -8   4  -8 11.9765 29.6961   3
  -8   4  -9 294.827 67.7533   3
  -8   3   8 115.982 61.8331   4
  -8   3   7 4339.91 307.263   4
  -8   3   6 627.449 112.882   4
  -8   3   5 1607.30 173.896   4
  -8   3   4 190.520 66.8179   4
  -8   3   3 1006.94 136.831   4
   8  -3  -3 1318.13 108.429   2
  -8   3   2 479.998 95.2549   4
   8  -3  -2 518.083 73.1238   2
  -8   3   1 31.9104 34.1625   4
   8  -3  -1 74.4224 36.3111   2
  -8   3   0 515.037 91.0633   4
  -8   3  -1 83.4672 45.8716   4
  -8   3  -1 41.4300 22.4851   3
  -8   3  -2 1244.64 134.945   4
  -8   3  -2 1102.95 113.830   3
  -8   3  -3 178.348 53.6971   4
  -8   3  -3 131.857 44.5605   3
  -8   3  -4 85.2272 50.2527   4
  -8   3  -4 15.5595 27.1206   3
  -8   3  -5 1878.05 165.420   4
  -8   3  -5 1757.73 146.253   3
  -8   3  -6 23.9170 34.8142   4
  -8   3  -6 15.5689 22.4984   3
  -8   3  -7 328.866 65.7553   3
  -8   3  -8 772.587 100.182   3
  -8   2   8 604.266 112.897   4
  -8   2   7 5019.53 325.850   4
  -8   2   6 317.276 84.0758   4
  -8   2   5-48.2450 42.4574   4
  -8   2   4 285.739 75.9627   4
  -8   2   3 146.316 63.8466   4
   8  -2  -3 183.160 41.1785   2
  -8   2   2 245.927 65.1132   4
   8  -2  -2 221.161 51.0490   2
  -8   2   1 4655.82 269.877   4
   8  -2  -1 5028.76 233.624   2
  -8   2   0 125.287 48.4168   4
   8  -2   0 187.627 47.3912   2
  -8   2  -1 871.491 109.997   4
  -8   2  -2 334.689 68.7451   4
  -8   2  -2 442.445 67.8611   3
  -8   2  -3 504.574 84.6253   4
  -8   2  -3 478.616 70.8720   3
  -8   2  -4 775.128 105.034   4
  -8   2  -4 802.683 93.1078   3
  -8   2  -5 67.6586 52.6340   4
  -8   2  -5 119.848 39.4728   3
  -8   2  -6 100.818 37.4746   3
  -8   2  -7 310.620 59.9169   3
  -8   2  -8 2.45524 21.0430   3
  -8   1   9-98.7807 53.3477   4
  -8   1   8 421.327 94.9336   4
  -8   1   7 954.492 134.000   4
  -8   1   6 55.3715 49.0870   4
  -8   1   5 360.819 79.1421   4
   8  -1  -4 980.637 88.6332   2
  -8   1   4 930.739 122.932   4
  -8   1   3 215.110 62.6533   4
   8  -1  -3 133.345 37.0143   2
  -8   1   2 436.429 79.2782   4
   8  -1  -2 406.135 63.6407   2
  -8   1   1 2181.54 172.396   4
   8  -1  -1 2121.92 144.426   2
  -8   1   0 7528.18 337.126   4
   8  -1   0 6989.67 291.157   2
  -8   1  -1 2976.04 199.622   4
   8  -1   1 3100.18 181.868   2
  -8   1  -2 1010.70 118.347   4
  -8   1  -3 4236.06 240.239   4
  -8   1  -3 4109.86 207.228   3
  -8   1  -4 4220.30 243.035   4
  -8   1  -4 4288.07 212.749   3
  -8   1  -5-2.83398 19.8900   3
   8  -1   5-4.50735 15.7634   1
  -8   1  -6 828.152 87.8064   3
   8  -1   6 856.405 80.3089   1
   8  -1   7 15.2997 22.7548   1
  -8   1  -7 30.2753 25.7847   3
   8  -1   8 3893.13 203.301   1
   8  -1   9 257.151 56.0149   1
   8  -1  10 24.4270 29.5113   1
   8  -1  11-6.81397 35.9687   1
  -8   0   9 104.267 57.1203   4
  -8   0   8 1180.26 132.303   1
  -8   0   8 1445.83 174.398   4
  -8   0   7 1240.67 129.330   1
  -8   0   7 1339.99 156.162   4
  -8   0   6 717.724 112.347   4
  -8   0   5 750.186 109.737   4
  -8   0   4 85.3773 53.0641   4
   8   0  -4 134.733 38.0074   2
  -8   0   3 1069.70 125.297   4
   8   0  -3 1045.24 94.8877   2
  -8   0   2 26.3957 37.1199   4
   8   0  -2-24.0619 29.7971   2
  -8   0   1 6969.51 321.587   4
   8   0  -1 7045.80 282.875   2
  -8   0   0 831.878 104.265   4
   8   0   0 967.339 96.4963   2
  -8   0  -1 4453.40 243.155   4
   8   0   1 4732.32 229.476   2
  -8   0  -2-35.5597 30.1390   4
   8   0   2 99.5502 45.8174   2
  -8   0  -3 497.066 80.8130   4
   8   0   3 523.397 82.9120   2
  -8   0  -4 1118.04 94.4806   3
   8   0   4 994.278 80.0608   1
  -8   0  -5 333.161 52.2296   3
   8   0   5 319.955 47.4091   1
  -8   0  -6 37.5892 24.2096   3
   8   0   6 57.5510 25.3530   1
   8   0   7 305.828 53.8481   1
   8   0   8 426.369 66.0130   1
   8   0   9 2864.08 186.113   1
   8   0  10 1441.51 133.305   1
   8   0  11 45.5887 36.3530   1
   8   0  11 50.1988 43.8634   2
   8   0  12 6.35190 28.3357   1
   8   0  12 6.13126 34.2816   2
  -8  -1  10 3.32708 37.8366   1
  -8  -1  10 2.48004 49.1334   4
  -8  -1   9 107.189 46.8364   4
  -8  -1   9 112.954 52.0785   1
  -8  -1   8 23.2772 30.5850   1
  -8  -1   8 86.9315 52.3842   4
  -8  -1   7 857.216 124.254   4
  -8  -1   6 3540.17 243.955   4
  -8  -1   5 124.120 51.7227   4
   8   1  -5 170.626 38.1706   2
  -8  -1   4 1951.95 168.013   4
   8   1  -4 2104.96 136.327   2
  -8  -1   3 295.710 68.6015   4
   8   1  -3 175.172 47.2707   2
  -8  -1   2 5515.69 277.962   4
   8   1  -2 5620.37 243.508   2
  -8  -1   1 170.253 52.1925   4
   8   1  -1 142.830 37.8352   2
  -8  -1   0 3514.82 209.995   4
   8   1   0 3623.42 195.250   2
  -8  -1  -1 6.30609 27.4092   4
   8   1   1 21.8091 36.0828   2
  -8  -1  -2 355.691 63.6283   4
   8   1   2 298.151 63.4982   2
  -8  -1  -3 79.6950 39.7884   4
   8   1   3 12.8469 33.9870   2
   8   1   4 397.486 51.8764   1
   8   1   4 398.476 74.3263   2
   8   1   5-12.5393 34.4335   2
   8   1   5-13.4969 24.4244   1
   8   1   6 498.408 80.1181   2
   8   1   6 483.460 64.7832   1
   8   1   7 3696.50 196.134   1
   8   1   7 3994.76 227.172   2
   8   1   8-4.95768 22.9426   1
   8   1   8 4.59393 41.1989   2
   8   1   9 2440.51 173.670   1
   8   1   9 2893.07 198.805   2
   8   1  10 1033.52 114.254   1
   8   1  10 1115.80 128.112   2
   8   1  11 18.0623 30.7024   1
   8   1  11 81.4524 44.7230   2
   8   1  12 276.973 63.8762   1
   8   1  12 340.806 75.2590   2
  -8  -2  10 263.048 70.8215   4
  -8  -2  10 459.039 96.8716   1
  -8  -2   9 22.4713 32.3094   1
  -8  -2   9 30.5961 34.1644   4
  -8  -2   8 212.787 61.6286   4
  -8  -2   7 508.734 96.6683   4
  -8  -2   6 46.1087 41.2272   4
   8   2  -6-27.2463 19.6005   2
   8   2  -5 688.654 76.6063   2
  -8  -2   5 659.963 97.1796   4
  -8  -2   4 1366.09 135.104   4
   8   2  -4 1358.29 110.045   2
  -8  -2   3 524.292 82.8602   4
   8   2  -3 604.927 73.9797   2
  -8  -2   2 12087.0 434.255   4
   8   2  -2 11960.6 397.302   2
  -8  -2   1 8441.58 343.463   4
   8   2  -1 8446.31 319.181   2
  -8  -2   0 728.876 90.0485   4
   8   2   0 505.431 71.1728   2
  -8  -2  -1 424.019 68.2016   4
   8   2   1 492.534 74.3627   2
  -8  -2  -2 83.0920 37.2995   4
   8   2   2 71.3429 44.8571   2
   8   2   3 363.069 67.6488   2
   8   2   4 191.826 40.7129   1
   8   2   4 141.115 50.4145   2
   8   2   5 74.2014 47.9952   2
   8   2   5 23.8775 20.2532   1
   8   2   6 28.1153 40.1757   2
   8   2   6 12.3105 22.4789   1
   8   2   7 1575.62 125.885   1
   8   2   7 1841.48 151.672   2
   8   2   8 1505.21 128.580   1
   8   2   8 1461.99 137.099   2
   8   2   9 1580.93 139.892   1
   8   2   9 1605.94 146.959   2
   8   2  10 180.394 50.6318   1
   8   2  10 148.802 50.5217   2
   8   2  11 610.753 93.5178   1
   8   2  11 507.380 86.9066   2
   8   2  12 20.8233 32.6102   1
  -8  -3  10 2519.61 222.503   1
  -8  -3  10 2555.42 218.974   4
  -8  -3   9 319.905 77.0713   4
  -8  -3   8 119.721 42.2055   4
  -8  -3   7 108.964 40.5892   4
   8   3  -6 2341.18 149.923   2
  -8  -3   6 2387.24 187.458   4
  -8  -3   5 2120.76 169.516   4
   8   3  -5 1962.60 136.137   2
  -8  -3   4-14.2303 30.8091   4
   8   3  -4 11.8752 24.2665   2
  -8  -3   3 1015.72 109.192   4
   8   3  -3 921.967 92.5330   2
  -8  -3   2 432.432 71.0876   4
   8   3  -2 391.902 63.2080   2
  -8  -3   1 36.4595 34.4029   4
   8   3  -1 73.9757 38.1546   2
  -8  -3   0 2092.20 148.752   4
   8   3   0 2185.28 149.431   2
  -8  -3  -1 168.881 45.4584   4
   8   3   1 126.525 40.1566   2
  -8  -3  -2-26.3255 24.8579   4
   8   3   2-44.6710 45.1346   2
   8   3   3 1023.64 103.502   2
   8   3   4 686.099 88.2497   2
   8   3   4 569.344 66.5346   1
   8   3   5 428.614 72.9183   2
   8   3   5 319.262 53.5259   1
   8   3   6 390.584 70.4688   2
   8   3   6 223.952 48.0530   1
   8   3   7 38.1651 27.2626   1
   8   3   7 8.71184 36.6236   2
   8   3   8 1134.82 112.649   1
   8   3   8 1188.47 120.815   2
   8   3   9-23.9307 37.7682   1
   8   3   9 37.5336 31.0659   2
   8   3  10 1416.40 140.817   1
   8   3  10 1265.63 131.145   2
   8   3  11 97.3364 43.8836   1
   8   3  11 83.5094 36.9265   2
  -8  -4  10 488.534 101.616   1
  -8  -4   9 5.90537 27.4421   4
  -8  -4   8 14.5505 25.6902   4
   8   4  -7 803.108 88.5777   2
  -8  -4   7 985.089 122.189   4
   8   4  -6 1206.39 112.086   2
  -8  -4   6 1245.55 131.472   4
  -8  -4   5 169.569 48.8319   4
   8   4  -5 136.647 40.8339   2
  -8  -4   4 1854.12 147.462   4
   8   4  -4 1892.44 136.392   2
  -8  -4   3 261.434 53.6149   4
   8   4  -3 136.275 39.6478   2
  -8  -4   2 2958.47 179.238   4
   8   4  -2 2654.17 166.601   2
  -8  -4   1 31.8320 23.4550   4
   8   4  -1 75.1223 36.8483   2
  -8  -4   0 78.1809 36.8430   4
   8   4   0 47.9481 34.3601   2
  -8  -4  -1-3.19633 22.2231   4
   8   4   1 47.4591 37.7565   2
  -8  -4  -2 110.365 38.3398   4
   8   4   2 164.912 54.1655   2
   8   4   3 661.185 85.3368   2
   8   4   4 9334.73 351.832   2
   8   4   4 8589.77 313.106   1
   8   4   5 277.672 62.1747   2
   8   4   5 221.373 45.3582   1
   8   4   6 2684.51 176.330   2
   8   4   6 2799.50 169.101   1
   8   4   7 6130.47 274.753   1
   8   4   7 6153.52 283.901   2
   8   4   8 246.537 59.0152   1
   8   4   8 160.361 45.7165   2
   8   4   9 295.588 68.6212   1
   8   4   9 196.128 54.1673   2
   8   4  10 317.416 64.7332   1
   8   4  10 246.981 59.3574   2
   8   4  11 18.9836 38.9274   1
  -8  -5   7 398.932 72.6283   4
   8   5  -7 397.396 66.8951   2
  -8  -5   6 447.920 73.9373   4
   8   5  -6 556.223 80.2976   2
   8   5  -5 5168.58 251.120   2
  -8  -5   5 5054.01 255.876   4
  -8  -5   4 770.890 91.5933   4
   8   5  -4 622.885 82.4045   2
  -8  -5   3 545.792 75.7273   4
   8   5  -3 444.599 71.4651   2
  -8  -5   2 13791.8 442.231   4
   8   5  -2 12547.2 434.877   2
  -8  -5   1-13.9397 27.8525   4
   8   5  -1 4.45726 28.5216   2
  -8  -5   0 131.594 39.3934   4
   8   5   0 98.7737 40.1842   2
  -8  -5  -1 29.7747 28.0604   4
   8   5   1 17.9941 32.1663   2
  -8  -5  -2 142.774 42.3449   4
   8   5   2 269.931 60.9610   2
   8   5   3 29.7330 29.5326   2
   8   5   4 197.883 52.7233   2
   8   5   4 201.252 46.3120   1
   8   5   5 2376.80 164.926   2
   8   5   5 2166.47 146.513   1
   8   5   6 1463.52 131.783   2
   8   5   6 1582.10 127.592   1
   8   5   7 235.083 60.3000   2
   8   5   7 151.582 45.9664   1
   8   5   8 118.582 47.0300   1
   8   5   8 158.953 53.8291   2
   8   5   9 761.223 99.9271   1
   8   5   9 705.540 96.0744   2
   8   5  10 674.890 99.2331   1
   8   5  10 653.521 91.8274   2
   8   5  11 63.2737 47.3990   1
   8   6  -8 143.720 38.8401   2
   8   6  -7 1926.29 151.607   2
   8   6  -6 238.043 61.4617   2
   8   6  -5 681.116 91.3526   2
   8   6  -4 29.9864 36.1589   2
  -8  -6   3 1508.62 117.377   4
   8   6  -3 1476.14 128.552   2
  -8  -6   2 3147.48 176.028   4
   8   6  -2 3247.80 192.774   2
  -8  -6   1 0.89917 13.6428   4
   8   6  -1 29.8646 33.7508   2
  -8  -6   0 161.652 38.1964   4
   8   6   0 172.199 49.5015   2
  -8  -6  -1 2.72102 24.8840   4
   8   6   1 40.3245 38.0744   2
  -8  -6  -2 273.619 50.7767   4
   8   6   2 164.880 50.2605   2
   8   6   3 417.465 76.8479   2
   8   6   4 241.103 55.4646   2
   8   6   5 55.9705 33.0802   2
   8   6   5 79.8318 38.3435   1
   8   6   6 813.519 97.5335   2
   8   6   6 649.736 86.5504   1
   8   6   7 250.428 60.5193   2
   8   6   7 210.156 53.3954   1
   8   6   8 14.3863 30.3750   2
   8   6   8 36.0322 34.4881   1
   8   6   9-12.7748 29.5241   1
   8   6   9 37.6408 28.9045   2
   8   6  10 52.5259 40.9046   1
   8   6  11-38.4853 41.6514   1
   8   7  -9 176.119 77.5749   3
   8   7  -8 44.6120 30.7633   2
   8   7  -8 28.8545 39.9961   3
   8   7  -7 502.270 81.3661   2
   8   7  -6 2997.54 200.145   2
   8   7  -5 1061.20 118.558   2
   8   7  -4 155.729 43.0957   2
   8   7  -3 95.7605 44.1242   2
   8   7  -2 48.8960 43.1529   2
   8   7  -1 308.066 64.5128   2
  -8  -7   0 21.9975 18.8930   4
   8   7   0 11.5730 33.0524   2
  -8  -7  -1 90.2089 29.6704   4
   8   7   1 161.973 49.5255   2
  -8  -7  -2 304.375 50.7705   4
   8   7   2 297.232 63.4473   2
   8   7   3 10008.4 385.005   2
   8   7   4 9961.94 383.291   2
   8   7   5 35.5156 26.5527   2
   8   7   5 2.50322 28.7289   1
   8   7   6 114.527 44.8202   2
   8   7   6 101.883 45.9288   1
   8   7   7 23.0115 27.2327   2
   8   7   7 31.9913 37.6008   1
   8   7   8 899.651 106.058   2
   8   7   8 888.404 108.160   1
   8   7   9 56.3913 36.8659   2
   8   7   9 62.9137 31.1897   1
   8   7  10 532.903 89.7199   1
   8   8  -8 384.358 77.4310   2
   8   8  -8 382.152 88.8349   3
   8   8  -7 966.186 126.849   3
   8   8  -7 955.337 116.266   2
   8   8  -6 1057.56 121.880   2
   8   8  -6 1024.84 125.767   3
   8   8  -5 4021.28 240.657   2
   8   8  -5 3936.61 240.327   3
   8   8  -4 409.816 75.2097   2
   8   8  -4 400.454 72.3077   3
   8   8  -3 113.159 46.5724   2
   8   8  -3 131.129 42.9211   3
   8   8  -2 152.708 55.9815   2
   8   8  -2 174.485 42.1663   3
   8   8  -1 218.494 58.5082   2
   8   8   0 7.43084 31.2472   2
   8   8   1 3000.70 197.601   2
   8   8   2 48.8401 38.8270   2
   8   8   3 2077.12 161.709   2
   8   8   4 2674.06 184.850   2
   8   8   5 646.657 87.8055   2
   8   8   6 971.244 109.280   2
   8   8   6 734.475 93.4773   1
   8   8   7 356.840 67.9691   2
   8   8   7 406.623 74.3079   1
   8   8   8 52.9471 33.9105   2
   8   8   8 4.28035 32.7378   1
   8   8   9 883.867 112.436   1
   8   9  -8-67.4511 37.3781   2
   8   9  -8 15.0624 29.8053   3
   8   9  -7 1516.69 157.730   3
   8   9  -7 1523.65 155.362   2
   8   9  -6 3088.77 220.325   2
   8   9  -6 2928.03 214.440   3
   8   9  -5 940.831 120.381   2
   8   9  -5 988.152 115.587   3
   8   9  -4 5.26969 36.7598   2
   8   9  -4 10.6304 27.7430   3
   8   9  -3 36.5293 39.3748   2
   8   9  -3-22.5153 32.4427   3
   8   9  -2 190.254 58.4461   2
   8   9  -1 199.843 56.7812   2
   8   9   0 2798.89 197.038   2
   8   9   1 1012.57 118.285   2
   8   9   2 2034.48 164.951   2
   8   9   3 734.090 95.6912   2
   8   9   4 412.108 72.2207   2
   8   9   5 599.065 87.7033   2
   8   9   6 205.786 51.9027   2
   8   9   7-41.9414 31.6337   2
   8   9   7 4.25168 28.1489   1
   8   9   8 146.739 48.0613   1
   8   9   9 218.706 58.9170   1
   8  10  -7 927.458 122.818   2
   8  10  -7 739.325 114.871   3
   8  10  -6 122.344 47.9082   2
   8  10  -6 19.8952 36.9316   3
   8  10  -5 421.021 86.4963   2
   8  10  -5 309.022 68.1770   3
   8  10  -4 798.607 112.797   2
   8  10  -3 75.1400 41.5518   2
   8  10  -2 1079.75 128.301   2
   8  10  -1 1839.99 169.325   2
   8  10   0-19.9055 42.2298   2
   8  10   1 1906.94 169.896   2
   8  10   2 1233.62 133.775   2
   8  10   3-13.6574 36.0761   2
   8  10   4 897.651 110.345   2
   8  10   5 359.436 72.9022   2
   8  10   6-0.82071 24.1342   2
   8  10   7 5.85890 35.3638   2
   8  10   8 537.009 86.2431   1
   8  11  -5 145.788 60.0096   2
   8  11  -4-35.0504 37.8098   2
   8  11  -3 359.579 79.1767   2
   8  11  -2-29.5564 43.2990   2
   8  11  -1 101.306 55.2289   2
   8  11   0 333.680 74.9089   2
   8  11   1 292.400 70.5352   2
   8  11   2 130.156 52.9947   2
   8  11   3 3963.93 256.258   2
   8  11   4 1975.38 173.215   2
   8  11   5 35.7903 38.2417   2
   8  11   6 46.1481 32.2505   2
   8  12  -2 475.107 95.3750   2
   8  12  -1 81.4698 50.2108   2
   8  12   0 216.065 65.5056   2
   8  12   1 269.907 68.4990   2
   8  12   2 58.7168 38.0506   2
   8  12   3 1481.56 151.917   2
   8  12   4 447.377 81.8745   2
   8  12   5-2.54076 25.1462   2
  -9   6   2 709.902 129.386   4
  -9   6   1 901.703 140.704   4
  -9   6   0 51.2965 48.0564   4
  -9   6  -1 565.080 110.706   4
  -9   6  -2 453.468 96.2083   4
  -9   6  -2 543.093 99.4781   3
  -9   6  -3 57.4165 45.8780   4
  -9   6  -3 82.3731 46.2121   3
  -9   6  -4 454.871 101.715   4
  -9   6  -4 422.311 87.3937   3
  -9   6  -5 616.577 111.453   4
  -9   5   4 1550.10 189.241   4
  -9   5   3 165.873 66.0594   4
  -9   5   2-29.9600 38.4267   4
  -9   5   1 400.200 93.5106   4
  -9   5   0-69.0602 53.2740   4
  -9   5  -1 260.171 77.4039   4
  -9   5  -2-65.8240 45.6959   4
  -9   5  -2 48.1560 31.1922   3
  -9   5  -3 235.995 73.1713   4
  -9   5  -3 282.070 76.5630   3
  -9   5  -4 1052.34 143.621   4
  -9   5  -4 1180.53 139.386   3
  -9   5  -5 324.450 84.0005   4
  -9   5  -5 274.276 70.5839   3
  -9   5  -6 5888.88 350.953   4
  -9   5  -6 5917.27 328.806   3
  -9   5  -7 184.848 67.3376   4
  -9   5  -7 188.679 61.6280   3
  -9   4   5 1005.29 154.238   4
  -9   4   4 544.134 103.749   4
  -9   4   3 225.917 81.9791   4
  -9   4   2-35.8705 37.3480   4
  -9   4   1 14.1908 37.2945   4
   9  -4  -1 104.265 48.2378   2
  -9   4   0 453.601 94.3541   4
   9  -4   0 605.966 93.1601   2
  -9   4  -1-9.70658 32.1684   4
  -9   4  -2 1152.16 148.055   4
  -9   4  -2 887.488 114.814   3
  -9   4  -3 300.385 77.8241   4
  -9   4  -3 260.955 60.8103   3
  -9   4  -4 1385.13 158.114   4
  -9   4  -4 1395.67 145.964   3
  -9   4  -5 70.6466 48.2437   4
  -9   4  -5 3.40542 31.0833   3
  -9   4  -6 153.820 61.3364   4
  -9   4  -6 193.310 59.9660   3
  -9   4  -7 675.612 121.711   4
  -9   4  -7 707.165 103.419   3
  -9   4  -8 13.2432 46.9898   4
  -9   4  -8-23.5230 25.9085   3
  -9   3   6 208.160 64.1814   4
  -9   3   5 4697.97 324.967   4
  -9   3   4 550.311 105.021   4
  -9   3   3 389.353 94.7008   4
  -9   3   2 30.8541 40.8711   4
   9  -3  -2 29.9916 31.8964   2
  -9   3   1 1003.81 139.259   4
   9  -3  -1 1056.55 113.500   2
  -9   3   0 110.333 45.3971   4
   9  -3   0 94.7271 45.4990   2
  -9   3  -1 1863.55 184.320   4
  -9   3  -2 1079.29 139.763   4
  -9   3  -3 161.712 57.3255   4
  -9   3  -3 263.291 60.6798   3
  -9   3  -4 88.1799 46.9651   4
  -9   3  -4 23.2960 34.6158   3
  -9   3  -5 4677.62 291.933   4
  -9   3  -5 4299.48 251.419   3
  -9   3  -6 688.610 113.928   4
  -9   3  -6 558.881 86.6809   3
  -9   3  -7 19.7800 35.5846   4
  -9   3  -7 33.0440 28.7176   3
  -9   3  -8 21.4335 42.2121   4
  -9   2   7 38.6593 42.6206   4
  -9   2   6 2095.42 212.692   4
  -9   2   5 609.481 110.459   4
  -9   2   4 1715.56 186.158   4
  -9   2   3 411.499 90.9412   4
  -9   2   2 70.0383 43.3443   4
   9  -2  -2 89.0765 35.6291   2
  -9   2   1 145.675 60.3850   4
   9  -2  -1 130.684 41.9910   2
  -9   2   0 33.3643 35.6744   4
   9  -2   0 132.824 47.7034   2
  -9   2  -1 2438.14 201.661   4
   9  -2   1 2771.06 187.120   2
  -9   2  -2-1.70119 33.5754   4
  -9   2  -3 403.125 85.6051   4
  -9   2  -4 154.349 54.9420   4
  -9   2  -4 83.3780 32.1614   3
  -9   2  -5 34.7339 51.4262   4
  -9   2  -5 49.7067 38.0036   3
  -9   2  -6 283.118 70.7597   4
  -9   2  -6-7.70302 18.1248   3
  -9   2  -7 70.7830 47.7843   4
  -9   2  -7-33.9212 24.4048   3
  -9   1   8 1460.99 184.819   4
  -9   1   7 414.724 98.3443   4
  -9   1   6 325.211 83.2654   4
  -9   1   5 17.6502 49.0199   4
  -9   1   4 1.41065 46.3319   4
  -9   1   3 319.091 77.0876   4
   9  -1  -3 513.142 71.8726   2
  -9   1   2-1.01733 41.2903   4
   9  -1  -2 26.4806 25.1799   2
  -9   1   1-24.5347 31.1772   4
   9  -1  -1 39.7293 35.8707   2
  -9   1   0 908.910 122.521   4
   9  -1   0 750.532 94.0585   2
  -9   1  -1 56.1813 38.6330   4
   9  -1   1 146.914 53.7924   2
  -9   1  -2 624.710 95.3731   4
   9  -1   2 427.088 77.0029   2
  -9   1  -3 1223.53 137.935   4
   9  -1   3 1198.43 126.419   2
  -9   1  -4 2428.32 195.365   4
  -9   1  -4 2215.85 155.908   3
  -9   1  -5 191.695 63.0016   4
  -9   1  -5 177.696 46.7890   3
  -9   1  -6 608.536 105.137   4
  -9   1  -6 510.586 72.7916   3
  -9   0   8 227.960 84.4558   4
  -9   0   7 7.32444 36.9543   4
  -9   0   6 1066.99 143.038   4
  -9   0   5 2292.98 205.186   4
  -9   0   4 28.0497 41.0209   4
   9   0  -4-30.8521 23.0381   2
  -9   0   3 72.0774 40.8065   4
   9   0  -3 160.289 42.8038   2
  -9   0   2 256.168 62.9810   4
   9   0  -2 267.306 54.1816   2
  -9   0   1 67.6580 43.1452   4
   9   0  -1 75.1842 38.1812   2
  -9   0   0 1926.40 169.384   4
   9   0   0 1863.45 145.396   2
  -9   0  -1 3468.77 227.495   4
   9   0   1 3234.32 199.377   2
  -9   0  -2 311.785 65.9825   4
   9   0   2 307.493 69.6771   2
  -9   0  -3 1144.20 131.253   4
   9   0   3 1246.26 126.572   2
  -9   0  -4 1264.94 134.911   4
   9   0   4 1255.79 130.984   2
  -9   0  -5 191.002 61.4251   4
   9   0   5 231.685 61.8515   2
   9   0   6 453.681 61.9389   1
   9   0   6 704.343 99.0518   2
   9   0   7 20.1812 24.9552   1
   9   0   7 61.0634 47.6962   2
   9   0   8 207.296 60.9775   2
   9   0   8 148.074 40.5855   1
   9   0   9 367.415 62.8258   1
   9   0   9 491.233 92.5144   2
   9   0  10 888.869 106.934   1
   9   0  10 981.161 128.068   2
  -9  -1   9 1144.66 156.070   4
  -9  -1   8 14.9757 36.7225   4
  -9  -1   8 117.893 48.7809   1
  -9  -1   7 12.7731 28.7335   4
  -9  -1   6 1848.53 186.234   4
  -9  -1   5 1130.18 137.863   4
  -9  -1   4 313.704 72.9305   4
   9   1  -4 411.271 63.3281   2
   9   1  -3 984.586 102.813   2
  -9  -1   3 850.950 117.769   4
  -9  -1   2 327.277 73.3161   4
   9   1  -2 505.152 75.2647   2
  -9  -1   1 269.382 66.5865   4
   9   1  -1 304.862 58.7028   2
  -9  -1   0 10960.8 430.792   4
   9   1   0 10234.2 381.487   2
  -9  -1  -1 502.194 82.2032   4
   9   1   1 403.941 72.2151   2
  -9  -1  -2 65.2721 41.1496   4
   9   1   2 59.0392 40.9309   2
  -9  -1  -3 568.662 91.0711   4
   9   1   3 458.238 79.7931   2
  -9  -1  -4 718.645 101.124   4
   9   1   4 804.080 103.884   2
   9   1   5 85.6717 32.9220   1
   9   1   5 121.343 54.9110   2
   9   1   6 61.1990 24.0655   1
   9   1   6 15.2037 40.0802   2
   9   1   7 141.468 57.0164   2
   9   1   7 82.3722 36.3674   1
   9   1   8 1506.29 128.489   1
   9   1   8 1946.29 169.545   2
   9   1   9 3100.10 196.714   1
   9   1   9 3283.49 230.758   2
   9   1  10 1655.78 148.960   1
   9   1  10 1958.16 177.751   2
   9   1  11 275.510 65.9472   1
   9   1  11 609.311 103.079   2
  -9  -2   9 2213.77 207.036   1
  -9  -2   9 2913.49 239.129   4
  -9  -2   8 3.29208 26.1379   4
  -9  -2   7 218.869 69.1289   4
  -9  -2   6 130.384 59.3107   4
  -9  -2   5 586.204 99.8025   4
   9   2  -5 552.604 74.4904   2
  -9  -2   4 77.7101 45.1477   4
   9   2  -4 3.16349 21.4110   2
  -9  -2   3 477.722 83.7029   4
   9   2  -3 393.734 65.2135   2
   9   2  -2 920.212 99.6903   2
  -9  -2   2 818.961 107.792   4
  -9  -2   1 4812.55 264.620   4
   9   2  -1 4821.19 241.010   2
  -9  -2   0 344.409 70.4063   4
   9   2   0 232.543 55.9746   2
  -9  -2  -1 14968.7 514.019   4
   9   2   1 14359.6 482.138   2
  -9  -2  -2-25.6270 33.0125   4
   9   2   2-20.5995 38.8643   2
  -9  -2  -3 6.40943 33.0359   4
   9   2   3-10.1022 34.5115   2
  -9  -2  -4 853.241 106.135   4
   9   2   4 812.764 103.381   2
   9   2   5 150.248 38.4086   1
   9   2   5 137.782 51.4460   2
   9   2   6 1433.98 138.492   2
   9   2   6 1398.88 116.742   1
   9   2   7 567.459 91.4388   2
   9   2   7 588.386 80.2864   1
   9   2   8 79.9163 39.9620   2
   9   2   8 45.6289 27.9890   1
   9   2   9 736.561 97.0230   1
   9   2   9 866.923 116.256   2
   9   2  10 39.5437 34.9029   1
   9   2  10 104.976 47.3199   2
   9   2  11-24.8198 47.5167   1
   9   2  11 47.7990 44.8212   2
  -9  -3   9 281.603 81.7745   4
  -9  -3   9 208.818 67.6403   1
  -9  -3   8 1709.37 177.498   4
  -9  -3   7-58.8450 40.6546   4
  -9  -3   6 53.1973 33.8720   4
  -9  -3   5 513.075 91.2967   4
   9   3  -5 386.599 65.6933   2
  -9  -3   4 2200.95 181.261   4
   9   3  -4 2195.55 153.188   2
  -9  -3   3 358.892 73.6870   4
   9   3  -3 180.004 44.2288   2
  -9  -3   2-1.99832 43.6374   4
   9   3  -2-2.76373 27.6719   2
  -9  -3   1 124.439 40.9496   4
   9   3  -1 160.182 48.0525   2
  -9  -3   0 4175.57 235.833   4
   9   3   0 4155.68 225.135   2
  -9  -3  -1 7.34045 29.3770   4
   9   3   1-57.5770 46.8295   2
  -9  -3  -2 1179.77 120.108   4
   9   3   2 1061.69 118.767   2
  -9  -3  -3 341.266 67.5998   4
   9   3   3 607.696 87.7972   2
   9   3   4 509.811 80.7702   2
   9   3   5 40.4596 40.3207   2
   9   3   5 0.55356 26.6899   1
   9   3   6 4843.57 259.941   2
   9   3   6 4347.71 221.636   1
   9   3   7 738.085 102.965   2
   9   3   7 555.119 78.8052   1
   9   3   8 182.355 59.2606   2
   9   3   8 167.180 48.9922   1
   9   3   9 43.8317 34.9062   1
   9   3   9-35.8878 36.3675   2
   9   3  10 958.923 116.307   1
   9   3  10 808.113 111.678   2
   9   3  11 286.075 68.2147   1
   9   3  11 308.660 75.0381   2
  -9  -4   8 161.447 52.7883   4
  -9  -4   7 63.7656 42.3318   4
  -9  -4   6 24.5258 33.4417   4
   9   4  -6-5.27873 25.7378   2
  -9  -4   5 90.3556 35.5779   4
   9   4  -5 75.2441 40.7097   2
  -9  -4   4 362.355 70.2796   4
   9   4  -4 248.908 58.2075   2
  -9  -4   3 1395.06 137.045   4
   9   4  -3 1388.28 124.233   2
  -9  -4   2 185.439 51.4539   4
   9   4  -2 58.1768 27.2520   2
  -9  -4   1 51.6329 29.8726   4
   9   4  -1 3.55452 34.8697   2
  -9  -4   0 275.632 60.0448   4
   9   4   0 274.647 63.7100   2
  -9  -4  -1 1625.86 139.636   4
   9   4   1 1753.37 143.906   2
  -9  -4  -2 634.599 86.5044   4
   9   4   2 614.890 91.7047   2
  -9  -4  -3 27.5018 35.6272   4
   9   4   3 15.3250 34.1669   2
   9   4   4 1384.02 132.468   2
   9   4   5-31.2895 39.3403   2
   9   4   5-34.9658 30.2517   1
   9   4   6 38.1718 34.1036   2
   9   4   6 22.1874 31.2087   1
   9   4   7 1863.54 159.094   2
   9   4   7 1962.24 151.205   1
   9   4   8 1422.96 139.222   2
   9   4   8 1311.73 126.499   1
   9   4   9 1009.46 115.904   1
   9   4   9 951.488 117.366   2
   9   4  10 292.047 68.5304   1
   9   4  10 231.475 58.3898   2
   9   4  11 82.3340 43.1987   2
  -9  -5   6-15.2749 43.9062   4
   9   5  -6 37.4141 29.9872   2
   9   5  -5 2383.98 171.462   2
  -9  -5   5 2444.29 183.725   4
  -9  -5   4 331.107 60.0112   4
   9   5  -4 361.719 66.6448   2
  -9  -5   3 490.111 77.7558   4
   9   5  -3 411.051 72.5318   2
  -9  -5   2 271.177 57.4123   4
   9   5  -2 182.189 54.5369   2
  -9  -5   1 1798.26 144.442   4
   9   5  -1 1873.32 147.006   2
  -9  -5   0 5513.59 264.719   4
   9   5   0 5336.37 265.976   2
  -9  -5  -1 22.1239 24.5770   4
   9   5   1 24.0380 39.9601   2
  -9  -5  -2 937.819 103.782   4
   9   5   2 1061.85 116.005   2
  -9  -5  -3 561.968 81.8799   4
   9   5   3 504.432 82.2482   2
   9   5   4 484.961 79.0368   2
   9   5   5 2121.57 165.480   2
   9   5   5 1917.29 141.876   1
   9   5   6 95.3831 43.3691   2
   9   5   6 43.1291 32.5584   1
   9   5   7 1438.20 140.892   2
   9   5   7 1348.05 127.722   1
   9   5   8 2378.14 184.122   2
   9   5   8 2322.25 174.991   1
   9   5   9 1116.38 127.243   2
   9   5   9 867.681 111.450   1
   9   5  10-3.64897 31.0414   2
   9   5  10 10.5808 29.1477   1
   9   6  -7 184.954 49.3233   2
   9   6  -6 1352.78 133.652   2
   9   6  -5 1860.66 158.329   2
   9   6  -4 19.9800 27.2641   2
   9   6  -3 69.2101 45.1470   2
  -9  -6   2 778.800 91.4001   4
   9   6  -2 714.470 94.2348   2
  -9  -6   1 3644.78 203.239   4
   9   6  -1 3353.81 209.603   2
  -9  -6   0 3299.99 192.749   4
   9   6   0 2951.25 195.863   2
  -9  -6  -1 208.983 49.1448   4
   9   6   1 222.348 54.5558   2
  -9  -6  -2 53.5120 26.1593   4
   9   6   2 60.5694 35.9346   2
  -9  -6  -3 1535.16 132.329   4
   9   6   3 1609.04 145.634   2
   9   6   4 27.6537 35.3876   2
   9   6   5 703.733 97.8962   2
   9   6   6 920.911 112.881   2
   9   6   6 1071.71 112.587   1
   9   6   7 40.6303 37.4058   2
   9   6   7 76.5800 47.7192   1
   9   6   8 47.6896 44.4743   2
   9   6   8 69.6617 43.3380   1
   9   6   9-4.03065 32.2213   2
   9   6   9-10.5969 30.2156   1
   9   6  10-13.3025 37.1889   1
   9   7  -7 20.4257 21.0200   2
   9   7  -6 887.535 111.538   2
   9   7  -5 3081.65 213.646   2
   9   7  -4 2920.36 205.556   2
   9   7  -3 1520.37 142.780   2
   9   7  -2 294.665 67.1470   2
   9   7  -1 1356.79 135.740   2
   9   7   0 48.7695 35.2778   2
  -9  -7  -1-27.9128 22.2204   4
   9   7   1-34.2254 44.6628   2
  -9  -7  -2 50.8586 28.3622   4
   9   7   2-3.50733 35.5959   2
  -9  -7  -3 3913.39 211.275   4
   9   7   3 3925.37 231.615   2
   9   7   4 770.256 100.786   2
   9   7   5 1124.97 123.329   2
   9   7   6 3957.83 239.229   2
   9   7   6 4195.25 232.499   1
   9   7   7 125.250 43.2968   2
   9   7   7 99.5319 39.9930   1
   9   7   8 87.7327 39.6803   2
   9   7   8 189.708 54.5027   1
   9   7   9 35.5130 40.5134   2
   9   7   9-16.1644 35.3296   1
   9   8  -7 70.5688 34.6376   2
   9   8  -7 201.014 69.0521   3
   9   8  -6 2992.52 215.134   2
   9   8  -6 3010.68 221.028   3
   9   8  -5 2805.08 205.076   2
   9   8  -5 2577.41 196.372   3
   9   8  -4 74.4091 38.9384   2
   9   8  -4 121.881 52.8092   3
   9   8  -3-2.21421 37.5328   2
   9   8  -3 143.287 44.9088   3
   9   8  -2 158.586 52.1637   2
   9   8  -1 358.184 72.0688   2
   9   8   0 1579.20 146.848   2
   9   8   1 436.169 82.3471   2
   9   8   2 2432.47 183.750   2
   9   8   3 105.664 46.2716   2
   9   8   4 33.2514 32.1503   2
   9   8   5 75.3903 37.3333   2
   9   8   6 1256.72 131.634   2
   9   8   7 12.1857 30.4970   2
   9   8   7-23.8575 30.1541   1
   9   8   8 15.3800 32.1349   2
   9   8   8 32.9283 41.9925   1
   9   9  -7-65.3167 39.1393   2
   9   9  -7 13.3717 37.5517   3
   9   9  -6 3031.99 222.077   2
   9   9  -6 2755.10 211.880   3
   9   9  -5 1857.26 171.845   2
   9   9  -5 1516.81 149.098   3
   9   9  -4 236.850 62.2114   2
   9   9  -3 44.6445 32.5535   2
   9   9  -2-23.7842 42.6442   2
   9   9  -1 640.202 100.728   2
   9   9   0 193.339 59.4439   2
   9   9   1 817.923 110.270   2
   9   9   2 2397.64 185.898   2
   9   9   3 92.9127 53.4543   2
   9   9   4-15.3238 28.5217   2
   9   9   5 914.318 116.645   2
   9   9   6 485.417 84.4387   2
   9   9   7 356.096 67.1937   2
   9   9   8 4.48281 22.7006   2
   9  10  -5 1069.65 135.340   2
   9  10  -4-10.1411 40.5157   2
   9  10  -3 233.037 69.3679   2
   9  10  -2 673.866 109.064   2
   9  10  -1-18.3911 44.7101   2
   9  10   0 11.7567 44.4196   2
   9  10   1 3753.62 251.103   2
   9  10   2 139.841 54.6941   2
   9  10   3 177.414 57.2766   2
   9  10   4 173.003 57.0708   2
   9  10   5 9.97488 32.9789   2
   9  10   6 26.3173 35.2982   2
   9  10   7 32.6738 26.2162   2
   9  11  -3-48.8350 48.0202   2
   9  11  -2 124.359 50.5111   2
   9  11  -1 35.0726 39.0428   2
   9  11   0 1419.31 157.719   2
   9  11   1 214.970 65.2281   2
   9  11   2 2.56703 24.1489   2
   9  11   3 1650.03 164.328   2
   9  11   4 383.617 78.2169   2
   9  11   5 811.313 115.717   2
   9  11   6 260.529 66.0236   2
  10  -5   1-4.48276 40.7830   2
 -10   4   2 413.866 103.589   4
 -10   4   1 159.510 67.0204   4
 -10   4   0-41.4239 58.8112   4
  10  -4   0 60.1300 44.5934   2
 -10   4  -1-26.8848 39.3068   4
  10  -4   1 19.3387 32.6711   2
 -10   4  -2 161.954 67.5917   4
  10  -4   2 378.450 79.4496   2
 -10   4  -3 13.7494 32.4685   4
 -10   4  -4-44.7295 44.0967   4
 -10   4  -4 65.9396 46.3221   3
 -10   4  -5 2850.89 245.313   4
 -10   4  -5 2724.78 211.002   3
 -10   4  -6 600.258 95.9587   3
 -10   3   4 652.998 125.430   4
 -10   3   3 1327.01 175.694   4
 -10   3   2 648.826 123.801   4
 -10   3   1-6.72770 42.7181   4
  10  -3  -1 5.25933 31.7961   2
 -10   3   0 58.7661 50.4542   4
  10  -3   0-11.0256 34.9569   2
 -10   3  -1 46.0605 43.2025   4
  10  -3   1-55.7387 30.4254   2
 -10   3  -2 603.449 113.734   4
  10  -3   2 493.338 92.5500   2
 -10   3  -3 1177.15 153.648   4
  10  -3   3 1263.43 145.983   2
 -10   3  -4-39.5057 41.0053   4
 -10   3  -5 81.4275 52.7924   4
 -10   3  -5 64.8327 37.2425   3
 -10   3  -6 1995.07 204.570   4
 -10   3  -6 1710.16 158.213   3
 -10   2   5 292.618 82.3551   4
 -10   2   4 504.816 104.830   4
 -10   2   3 510.779 110.635   4
 -10   2   2 3302.43 264.378   4
  10  -2  -2 2834.77 187.434   2
 -10   2   1 185.902 70.5761   4
  10  -2  -1 263.468 64.3349   2
 -10   2   0 617.914 111.901   4
  10  -2   0 569.488 90.5832   2
 -10   2  -1 20.9279 45.7050   4
  10  -2   1 39.1746 43.3317   2
 -10   2  -2-0.85983 38.3546   4
  10  -2   2 38.7062 42.4997   2
 -10   2  -3 520.408 102.266   4
  10  -2   3 362.004 82.1966   2
 -10   2  -4 183.627 69.2361   4
  10  -2   4 289.662 75.2500   2
 -10   2  -5-5.32723 39.5128   4
 -10   2  -6 1390.34 167.941   4
 -10   2  -7 129.327 52.3045   4
 -10   1   6 2702.73 248.349   4
 -10   1   5 216.500 72.8830   4
 -10   1   4 65.2523 57.8845   4
 -10   1   3 94.0181 51.3372   4
 -10   1   2 131.904 68.3194   4
  10  -1  -2-25.2282 31.4226   2
 -10   1   1 42.9602 48.9289   4
  10  -1  -1-4.65551 29.7023   2
 -10   1   0 1043.12 139.571   4
  10  -1   0 976.774 114.690   2
 -10   1  -1 654.270 114.823   4
  10  -1   1 443.774 80.9750   2
 -10   1  -2 3221.08 240.928   4
  10  -1   2 2477.04 193.319   2
  10  -1   3 1075.12 127.527   2
 -10   1  -3 976.721 132.419   4
 -10   1  -4 21.4880 36.2998   4
  10  -1   4 136.816 59.6299   2
 -10   1  -5 778.988 121.609   4
  10  -1   5 908.245 122.309   2
 -10   1  -6 935.153 135.486   4
  10  -1   6 636.490 105.588   2
 -10   1  -7 253.740 78.2635   4
  10  -1   7 279.578 75.1623   2
 -10   1  -8 51.3308 36.4691   4
  10  -1   8 56.9075 40.5858   2
 -10   0   6 3953.91 298.398   4
 -10   0   5 111.467 39.9825   4
 -10   0   4 1865.31 192.102   4
 -10   0   3 14.1530 35.9456   4
  10   0  -3 48.2338 32.4265   2
 -10   0   2 526.142 100.784   4
  10   0  -2 422.423 73.6605   2
 -10   0   1 42.3501 35.2641   4
  10   0  -1 49.4405 30.9139   2
 -10   0   0 166.029 59.7693   4
  10   0   0 150.969 51.6125   2
 -10   0  -1 2646.03 214.903   4
  10   0   1 2502.79 187.029   2
 -10   0  -2 232.179 65.1705   4
  10   0   2 299.145 72.9887   2
 -10   0  -3 47.7672 44.4631   4
  10   0   3 33.4813 38.2812   2
 -10   0  -4 14.1065 33.4474   4
  10   0   4 22.9414 41.3100   2
 -10   0  -5 2212.81 199.127   4
  10   0   5 2120.17 181.439   2
 -10   0  -6 304.366 82.9345   4
  10   0   6 238.120 78.9288   2
  10   0   7 186.742 73.5497   2
  10   0   8 20.0522 36.0465   2
  10   0   9 327.800 82.7328   2
 -10  -1   7 239.392 73.2053   4
 -10  -1   6 332.000 86.9514   4
 -10  -1   5 154.856 62.3641   4
  10   1  -4 778.389 92.9782   2
 -10  -1   4 595.568 110.071   4
 -10  -1   3 621.059 107.152   4
  10   1  -3 678.088 90.5003   2
 -10  -1   2 376.441 83.0021   4
  10   1  -2 448.722 75.5344   2
 -10  -1   1 175.417 61.8162   4
  10   1  -1 251.945 57.1905   2
 -10  -1   0 441.643 92.6623   4
  10   1   0 432.040 77.0769   2
  10   1   1 996.078 114.444   2
 -10  -1  -1 794.046 115.194   4
 -10  -1  -2 2914.76 217.700   4
  10   1   2 2844.42 200.241   2
 -10  -1  -3 2849.35 216.751   4
  10   1   3 2605.28 193.059   2
 -10  -1  -4 12.4374 39.2054   4
  10   1   4-26.8454 40.1308   2
 -10  -1  -5 62.8315 44.0438   4
  10   1   5 36.2276 41.2577   2
 -10  -1  -6 293.238 77.9113   4
  10   1   6 175.623 59.9936   2
  10   1   7-18.6814 19.4813   1
  10   1   7 60.5725 53.9183   2
  10   1   8 121.874 62.6383   2
  10   1   8 1.86939 21.4678   1
  10   1   9 2526.19 209.100   2
  10   1   9 2384.73 173.480   1
 -10  -2   7 418.549 91.6724   4
 -10  -2   6 164.334 62.5721   4
 -10  -2   5 452.483 95.9325   4
 -10  -2   4 159.228 61.6126   4
  10   2  -4 59.1569 33.5639   2
 -10  -2   3 34.4475 35.0303   4
  10   2  -3-12.9233 30.7288   2
 -10  -2   2 98.7492 51.4108   4
  10   2  -2 54.6336 38.0137   2
 -10  -2   1 1023.60 128.415   4
  10   2  -1 1182.66 122.212   2
 -10  -2   0 9857.10 425.573   4
  10   2   0 9553.98 386.959   2
 -10  -2  -1 625.091 100.139   4
  10   2   1 372.940 73.9894   2
 -10  -2  -2 115.338 46.5995   4
  10   2   2 34.3697 40.2491   2
 -10  -2  -3 427.515 82.4702   4
  10   2   3 350.875 70.5516   2
 -10  -2  -4 259.764 71.4710   4
  10   2   4 385.374 79.0631   2
 -10  -2  -5 228.560 62.9824   4
  10   2   5 243.272 66.7393   2
  10   2   6-25.3430 31.0415   1
  10   2   6-1.78834 40.0444   2
  10   2   7 78.7519 36.4087   1
  10   2   7 63.4473 50.6701   2
  10   2   8 57.0672 40.6005   2
  10   2   8 157.827 46.9238   1
  10   2   9-55.8150 43.3087   2
  10   2   9 59.6890 32.6514   1
  10   2  10 103.200 51.5317   2
  10   2  10 142.699 46.3229   1
 -10  -3   8 480.754 94.5565   4
 -10  -3   7 210.863 68.6503   4
 -10  -3   6 259.226 74.5827   4
  10   3  -5 819.371 96.0542   2
 -10  -3   5 763.195 114.841   4
 -10  -3   4 185.673 55.1178   4
  10   3  -4 215.959 54.2794   2
 -10  -3   3 2380.87 200.821   4
  10   3  -3 2322.02 171.204   2
 -10  -3   2 103.981 46.5640   4
  10   3  -2 65.7426 35.1127   2
 -10  -3   1 160.115 52.9689   4
  10   3  -1 198.462 56.2241   2
 -10  -3   0 2104.40 179.313   4
  10   3   0 1966.57 161.277   2
 -10  -3  -1-13.2507 33.8493   4
  10   3   1 48.0896 43.3533   2
 -10  -3  -2 1440.36 144.707   4
  10   3   2 1420.15 138.209   2
 -10  -3  -3-8.97700 32.6451   4
  10   3   3-19.0682 49.2067   2
 -10  -3  -4 560.664 90.3054   4
  10   3   4 705.407 98.8634   2
 -10  -3  -5 83.8112 44.3126   4
  10   3   5-65.8684 39.9760   2
  10   3   6 892.364 115.301   2
  10   3   6 760.526 87.9320   1
  10   3   7 0.68616 44.3114   2
  10   3   7-68.3131 36.5222   1
  10   3   8 1393.90 151.521   2
  10   3   8 1225.83 125.265   1
  10   3   9-107.480 50.3327   2
  10   3   9 49.5933 40.8835   1
  10   3  10-37.9289 45.9587   2
  10   3  10 120.812 49.6374   1
 -10  -4   7 26.6658 36.7985   4
 -10  -4   6-99.9381 46.4127   4
 -10  -4   5 263.265 74.5860   4
  10   4  -5 228.447 54.1614   2
 -10  -4   4 430.398 87.6519   4
  10   4  -4 425.576 74.7991   2
 -10  -4   3 10.7166 26.7449   4
  10   4  -3-17.6976 36.0875   2
 -10  -4   2 193.763 54.0047   4
  10   4  -2 320.750 67.5300   2
 -10  -4   1-5.81320 29.5357   4
  10   4  -1 22.9349 32.3170   2
 -10  -4   0 1646.27 153.844   4
  10   4   0 1776.67 153.750   2
 -10  -4  -1 127.363 47.2375   4
  10   4   1 77.7986 46.5849   2
 -10  -4  -2 187.163 45.4961   4
  10   4   2 157.668 52.1016   2
 -10  -4  -3 454.074 83.7206   4
  10   4   3 473.529 81.0464   2
 -10  -4  -4-29.2846 49.7953   4
  10   4   4 19.2521 35.7658   2
  10   4   5 180.163 55.7880   2
  10   4   6 1437.52 147.686   2
  10   4   6 1468.59 130.263   1
  10   4   7 15.1520 39.3864   2
  10   4   7 71.7465 37.0896   1
  10   4   8 222.525 63.2527   2
  10   4   8 250.741 59.3894   1
  10   4   9-76.1895 51.1286   2
  10   4   9 76.0965 38.9045   1
  10   4  10 69.1137 45.5129   2
  10   5  -6 19.3087 24.6711   2
  10   5  -5 185.562 55.3192   2
 -10  -5   4 82.1476 39.7593   4
  10   5  -4 117.187 44.0856   2
 -10  -5   3 1677.41 157.297   4
  10   5  -3 1692.35 148.273   2
 -10  -5   2 7.68125 24.6105   4
  10   5  -2-41.5044 41.7773   2
 -10  -5   1 166.696 54.5539   4
  10   5  -1 168.849 48.7260   2
 -10  -5   0 1533.40 143.442   4
  10   5   0 1406.42 136.531   2
 -10  -5  -1 126.494 45.5327   4
  10   5   1 155.225 49.1585   2
 -10  -5  -2 386.511 77.5150   4
  10   5   2 388.846 79.4977   2
 -10  -5  -3 325.907 69.1023   4
  10   5   3 334.288 72.1768   2
 -10  -5  -4 700.308 98.1898   4
  10   5   4 609.673 95.9716   2
  10   5   5 296.387 70.7424   2
  10   5   6 237.043 66.5841   2
  10   5   7 2974.69 216.119   2
  10   5   7 2577.97 182.889   1
  10   5   8 483.369 89.2763   2
  10   5   8 368.828 74.5908   1
  10   5   9 359.999 80.2380   2
  10   5   9 389.091 81.2571   1
  10   5  10 88.5575 40.3415   2
  10   6  -6 323.262 67.1549   2
  10   6  -5 289.261 67.8608   2
  10   6  -4 1173.32 131.788   2
  10   6  -3 204.759 54.7879   2
  10   6  -2 1944.87 164.569   2
 -10  -6   1 3604.96 219.332   4
  10   6  -1 3408.55 223.430   2
 -10  -6   0 2132.02 165.763   4
  10   6   0 1949.81 165.950   2
 -10  -6  -1 458.077 75.2982   4
  10   6   1 274.076 64.1809   2
 -10  -6  -2 378.670 68.7968   4
  10   6   2 466.146 82.6259   2
 -10  -6  -3 126.154 45.4309   4
  10   6   3 24.0953 33.3538   2
 -10  -6  -4 191.334 55.9261   4
  10   6   4 103.900 45.5890   2
  10   6   5 8.70518 33.4609   2
  10   6   6 1421.20 150.417   2
  10   6   7 794.763 114.002   2
  10   6   7 821.627 103.718   1
  10   6   8 1317.87 147.006   2
  10   6   8 1573.75 146.505   1
  10   6   9 24.7849 31.6767   2
  10   7  -6 511.030 89.3571   2
  10   7  -5 22.8495 29.2278   2
  10   7  -4 165.639 52.6756   2
  10   7  -3 545.392 88.8017   2
  10   7  -2 152.654 51.8944   2
  10   7  -1 328.611 73.2170   2
  10   7   0 123.319 54.6380   2
  10   7   1 456.020 79.4725   2
  10   7   2 191.794 56.8963   2
 -10  -7  -3 635.646 87.5536   4
  10   7   3 688.040 102.152   2
 -10  -7  -4 256.926 56.4656   4
  10   7   4 206.575 63.8673   2
  10   7   5 2357.28 191.677   2
  10   7   6 3952.90 252.319   2
  10   7   7 156.656 55.3072   2
  10   7   8 445.000 82.5937   2
  10   7   8 520.311 86.8553   1
  10   7   9 1.40390 34.5766   2
  10   8  -6 2544.18 199.701   2
  10   8  -6 2127.81 188.414   3
  10   8  -5 285.712 73.9074   2
  10   8  -5 187.919 58.3902   3
  10   8  -4 2631.67 209.782   2
  10   8  -3 2254.42 191.155   2
  10   8  -2-54.2716 43.6750   2
  10   8  -1-48.1738 33.8743   2
  10   8   0 27.5403 36.8383   2
  10   8   1 346.620 74.4773   2
  10   8   2 249.103 70.3622   2
  10   8   3 195.879 62.5451   2
  10   8   4 441.349 82.1667   2
  10   8   5 2712.55 208.374   2
  10   8   6 816.551 115.136   2
  10   8   7-31.7062 39.6454   2
  10   8   8 55.4534 39.1480   2
  10   9  -5 200.228 61.5328   2
  10   9  -4 2634.40 215.562   2
  10   9  -3 1934.43 183.432   2
  10   9  -2 56.0516 48.1230   2
  10   9  -1 95.9889 47.0655   2
  10   9   0 263.040 72.2248   2
  10   9   1 101.504 53.2817   2
  10   9   2 1342.75 147.640   2
  10   9   3 928.410 121.699   2
  10   9   4 16.7150 32.4420   2
  10   9   5 215.129 61.8194   2
  10   9   6 166.549 48.4418   2
  10   9   7 1007.02 125.410   2
  10  10  -2 7.37453 42.0615   2
  10  10  -1 158.871 62.8224   2
  10  10   0 419.403 95.5103   2
  10  10   1 161.757 61.2353   2
  10  10   2 418.468 89.7105   2
  10  10   3 873.266 122.392   2
  10  10   4 75.1388 43.0285   2
  10  10   5-32.9863 30.9666   2
  11  -3   0 119.974 53.1872   2
  11  -3   1 114.393 53.8947   2
  11  -3   2 246.342 70.7635   2
 -11   2   1 116.158 59.7431   4
  11  -2  -1 69.9808 30.7476   2
 -11   2   0 358.744 91.1735   4
  11  -2   0 332.898 78.5326   2
 -11   2  -1 222.475 78.5392   4
  11  -2   1 118.869 47.4532   2
 -11   2  -2 1897.67 208.123   4
  11  -2   2 1700.86 172.086   2
 -11   2  -3-18.2077 43.1161   4
  11  -2   3 69.5597 51.6557   2
 -11   2  -4 103.966 56.0121   4
  11  -2   4 96.5721 57.5491   2
 -11   1   3 1094.87 160.812   4
 -11   1   2-23.2563 39.7232   4
 -11   1   1 61.8908 51.5104   4
  11  -1  -1-13.7794 37.2843   2
 -11   1   0 138.628 59.2865   4
  11  -1   0 200.202 58.9505   2
 -11   1  -1-21.8889 41.5371   4
  11  -1   1-49.9080 31.7930   2
 -11   1  -2 278.848 82.0469   4
  11  -1   2 272.099 70.0902   2
 -11   1  -3 180.116 66.9828   4
  11  -1   3 333.480 82.2056   2
 -11   1  -4 39.7440 34.1791   4
  11  -1   4 57.3882 51.5359   2
 -11   1  -5 68.6458 45.8101   4
  11  -1   5 224.708 75.4382   2
 -11   0   4 933.113 144.114   4
 -11   0   3 1766.61 200.514   4
 -11   0   2 660.024 121.744   4
  11   0  -2 561.807 90.4392   2
 -11   0   1 20.5956 32.9627   4
  11   0  -1 116.811 50.9502   2
 -11   0   0 278.921 76.4923   4
  11   0   0 136.909 60.4395   2
 -11   0  -1 1207.29 155.968   4
  11   0   1 920.350 118.653   2
 -11   0  -2 73.8983 54.2983   4
  11   0   2 49.3390 44.8968   2
 -11   0  -3 981.893 137.644   4
  11   0   3 844.075 116.612   2
 -11   0  -4-43.4995 42.7218   4
  11   0   4 84.5772 51.1781   2
 -11   0  -5 468.270 97.0805   4
  11   0   5 547.267 103.687   2
 -11   0  -6 71.3766 45.6579   4
  11   0   6 53.8304 44.6575   2
 -11  -1   5 280.771 77.8693   4
 -11  -1   4 1604.18 184.566   4
 -11  -1   3-20.0028 21.3107   4
  11   1  -3-6.47820 32.4690   2
 -11  -1   2-10.4532 40.5788   4
  11   1  -2 59.2209 42.9069   2
 -11  -1   1-19.4733 45.2704   4
  11   1  -1-32.3643 33.5653   2
 -11  -1   0 115.418 51.1871   4
  11   1   0 83.6936 42.4799   2
 -11  -1  -1 279.375 74.3183   4
  11   1   1 240.437 67.0058   2
 -11  -1  -2 484.808 98.5606   4
  11   1   2 471.515 87.6139   2
 -11  -1  -3 43.6933 37.1214   4
  11   1   3 127.872 53.7884   2
 -11  -1  -4 30.9362 45.9606   4
  11   1   4-38.4945 44.0013   2
  11   1   5 1092.30 137.921   2
 -11  -1  -5 1011.51 142.600   4
 -11  -1  -6-49.0495 39.6876   4
  11   1   6 49.9190 58.2057   2
 -11  -1  -7-127.527 57.2446   4
  11   1   7-23.7254 43.2793   2
 -11  -2   5 137.045 60.2503   4
 -11  -2   4 41.7955 37.6826   4
 -11  -2   3 326.205 84.4325   4
  11   2  -3 285.171 62.0756   2
 -11  -2   2 142.915 60.0288   4
  11   2  -2 69.2747 35.4401   2
 -11  -2   1 54.0182 47.4714   4
  11   2  -1 75.5883 39.7651   2
 -11  -2   0 139.211 60.6575   4
  11   2   0 190.399 60.8019   2
 -11  -2  -1 742.153 115.691   4
  11   2   1 654.720 101.897   2
 -11  -2  -2 6541.67 358.350   4
  11   2   2 6592.64 331.867   2
 -11  -2  -3 1375.75 158.292   4
  11   2   3 1860.15 167.178   2
 -11  -2  -4 926.519 132.083   4
  11   2   4 864.115 120.505   2
 -11  -2  -5 935.919 135.780   4
  11   2   5 833.351 119.330   2
 -11  -2  -6-13.3573 45.9212   4
  11   2   6 31.4549 40.0883   2
 -11  -2  -7 490.834 101.762   4
  11   2   7 353.425 86.2742   2
  11   2   8-45.7368 28.6616   1
 -11  -3   6 483.193 95.3418   4
 -11  -3   5 112.721 50.2907   4
 -11  -3   4 447.399 94.1039   4
  11   3  -4 383.514 71.9812   2
 -11  -3   3 302.038 82.5085   4
  11   3  -3 232.169 60.7227   2
 -11  -3   2 194.695 64.3494   4
  11   3  -2 138.163 48.4017   2
 -11  -3   1 49.3329 44.3016   4
  11   3  -1 82.4919 57.8649   2
 -11  -3   0 3588.97 252.734   4
  11   3   0 3337.15 226.537   2
 -11  -3  -1 408.642 84.6524   4
  11   3   1 451.802 89.8634   2
 -11  -3  -2 3473.81 247.446   4
  11   3   2 3565.02 237.654   2
 -11  -3  -3 117.818 53.6651   4
  11   3   3 41.3456 35.9744   2
 -11  -3  -4 54.0216 34.3656   4
  11   3   4 42.8079 41.4927   2
 -11  -3  -5 32.2538 32.2849   4
  11   3   5 2.17504 38.7120   2
 -11  -3  -6 28.0840 33.1941   4
  11   3   6-52.3226 46.7169   2
  11   3   7 144.382 51.2409   2
  11   3   8 1394.62 155.276   2
  11   3   8 1461.05 137.139   1
 -11  -4   5 86.2832 44.3788   4
 -11  -4   4 5.78602 24.8769   4
  11   4  -4 13.9300 32.3113   2
 -11  -4   3 55.4258 46.0032   4
  11   4  -3-9.37082 36.1946   2
 -11  -4   2 177.936 60.2533   4
  11   4  -2 149.460 55.0943   2
 -11  -4   1 1821.66 178.056   4
  11   4  -1 1832.22 162.932   2
 -11  -4   0 681.923 107.656   4
  11   4   0 713.813 102.746   2
 -11  -4  -1 1731.34 169.871   4
  11   4   1 1700.73 160.837   2
 -11  -4  -2 464.004 92.5820   4
  11   4   2 375.376 79.1638   2
 -11  -4  -3 1783.82 172.388   4
  11   4   3 1838.05 169.958   2
 -11  -4  -4-15.7996 30.2841   4
  11   4   4 76.5924 56.6225   2
 -11  -4  -5 229.452 69.3999   4
  11   4   5 96.3097 43.3219   2
 -11  -4  -6 294.496 78.7791   4
  11   4   6 151.984 53.1852   2
  11   4   7 397.671 84.4303   2
  11   4   8-19.9390 47.9999   2
  11   4   8 6.26217 29.2946   1
  11   5  -5 244.308 61.0977   2
  11   5  -4 131.224 46.4077   2
 -11  -5   3 2549.00 206.100   4
  11   5  -3 2257.28 184.574   2
 -11  -5   2-19.1277 26.0404   4
  11   5  -2-31.3086 38.9920   2
 -11  -5   1 596.220 97.7857   4
  11   5  -1 589.674 92.7679   2
 -11  -5   0 221.699 59.7663   4
  11   5   0 152.223 50.4665   2
 -11  -5  -1 0.23879 22.2816   4
  11   5   1 52.2148 39.6779   2
 -11  -5  -2 218.609 61.5709   4
  11   5   2 197.469 64.8452   2
 -11  -5  -3 67.4737 42.3354   4
  11   5   3 225.321 69.8321   2
 -11  -5  -4 13.7605 27.3493   4
  11   5   4 3.14009 35.6982   2
 -11  -5  -5 34.4363 40.9990   4
  11   5   5-25.1923 42.6853   2
 -11  -5  -6 249.926 68.4241   4
  11   5   6 169.612 58.9908   2
  11   5   7 60.4609 43.8047   2
  11   6  -5 53.6880 34.6560   2
  11   6  -4 161.291 53.7117   2
  11   6  -3 160.641 56.0281   2
  11   6  -2 600.947 95.4810   2
  11   6  -1-23.2909 35.2012   2
 -11  -6   0 781.532 104.290   4
  11   6   0 797.649 110.134   2
 -11  -6  -1 2314.72 188.179   4
  11   6   1 2134.81 186.014   2
 -11  -6  -2 1945.60 170.671   4
  11   6   2 1667.44 165.496   2
 -11  -6  -3 364.034 77.3244   4
  11   6   3 533.151 94.1535   2
 -11  -6  -4 16.1364 28.3512   4
  11   6   4 23.8618 33.0235   2
 -11  -6  -5 224.381 62.3159   4
  11   6   5-12.2597 38.7857   2
 -11  -6  -6 452.718 91.5695   4
  11   6   6 351.247 82.3317   2
  11   6   7 1220.03 144.510   2
  11   7  -5-65.6062 37.3469   2
  11   7  -4 193.367 60.7961   2
  11   7  -3 90.2680 48.8279   2
  11   7  -2 1059.14 128.296   2
  11   7  -1 44.7579 41.6309   2
  11   7   0 919.552 124.833   2
  11   7   1 125.471 49.5767   2
  11   7   2 231.776 65.8278   2
  11   7   3 461.722 90.0626   2
  11   7   4 149.317 51.0075   2
  11   7   5 190.815 57.4538   2
 -11  -7  -6 518.369 90.5979   4
  11   7   6 284.362 73.7647   2
  11   8  -3 538.068 96.9887   2
  11   8  -2 1863.00 179.091   2
  11   8  -1 202.402 62.1933   2
  11   8   0 14.5921 31.4161   2
  11   8   1 315.115 75.3725   2
  11   8   2 46.8945 51.3255   2
  11   8   3 74.4237 44.1274   2
  11   8   4 604.799 99.3247   2
  11   8   5 187.251 64.8737   2
  11   9  -1 684.052 113.379   2
  11   9   0 114.162 53.6490   2
  11   9   1 92.4403 34.5058   2
  11   9   2 70.3920 45.6038   2
  11   9   3 202.747 68.0924   2
  12   0  -1 801.162 112.554   2
  12   0   0 26.1299 28.7966   2
  12   0   1 39.0480 32.5307   2
  12   0   2 107.685 49.5114   2
  12   1  -2 629.338 98.6339   2
 -12  -1   1 341.699 93.7985   4
  12   1  -1 261.501 63.0250   2
 -12  -1   0 54.0242 55.1406   4
  12   1   0-11.0068 29.6856   2
 -12  -1  -1 74.3267 59.9038   4
  12   1   1-45.7444 47.5673   2
 -12  -1  -2 573.078 107.567   4
  12   1   2 455.186 89.3983   2
 -12  -1  -3 80.5734 51.7107   4
  12   1   3-48.4214 38.8558   2
 -12  -2   2 99.3703 44.8921   4
  12   2  -2 118.877 49.7520   2
 -12  -2   1-87.8844 49.6218   4
  12   2  -1 49.4453 52.3165   2
 -12  -2   0-59.2255 43.9590   4
  12   2   0-43.6011 41.0520   2
 -12  -2  -1 230.039 72.8432   4
  12   2   1 302.895 80.4254   2
 -12  -2  -2 1473.36 174.774   4
  12   2   2 1667.07 169.926   2
 -12  -2  -3-45.7076 49.5318   4
  12   2   3 39.4665 41.6394   2
 -12  -2  -4 2566.28 236.067   4
  12   2   4 2307.35 204.811   2
 -12  -3   3-37.5874 38.8148   4
  12   3  -3 79.4982 52.4500   2
 -12  -3   2 309.941 87.3324   4
  12   3  -2 325.867 69.7771   2
 -12  -3   1 437.131 96.7699   4
  12   3  -1 526.337 94.6418   2
 -12  -3   0 25.4510 38.2808   4
  12   3   0 167.960 64.2985   2
 -12  -3  -1 969.215 139.205   4
  12   3   1 939.026 126.385   2
 -12  -3  -2-61.0787 40.2644   4
  12   3   2 71.4830 52.2458   2
 -12  -3  -3 166.409 65.2243   4
  12   3   3 222.720 75.9011   2
 -12  -3  -4 115.670 47.8062   4
  12   3   4 98.5580 50.4229   2
 -12  -3  -5-74.0323 45.8124   4
 -12  -4   3-101.484 52.3502   4
  12   4  -3-105.370 45.1192   2
 -12  -4   2 97.2132 52.9355   4
  12   4  -2 112.841 47.5321   2
 -12  -4   1 618.081 112.111   4
  12   4  -1 660.279 107.048   2
 -12  -4   0 275.503 80.3540   4
  12   4   0 37.4541 42.4209   2
 -12  -4  -1 998.028 137.821   4
  12   4   1 1004.03 130.503   2
 -12  -4  -2 123.081 54.2620   4
  12   4   2 136.691 51.3962   2
 -12  -4  -3 678.990 117.147   4
  12   4   3 651.038 108.341   2
 -12  -4  -4 171.501 55.9229   4
  12   4   4 471.540 92.6843   2
 -12  -4  -5 1043.11 145.014   4
  12   5  -3 164.011 54.1082   2
  12   5  -2 7.39193 33.6828   2
 -12  -5   1 257.880 76.9939   4
  12   5  -1 158.926 57.3060   2
 -12  -5   0 544.099 102.399   4
  12   5   0 622.957 103.922   2
 -12  -5  -1 423.674 88.1955   4
  12   5   1 493.653 92.4998   2
 -12  -5  -2 125.281 53.3633   4
  12   5   2 140.205 56.4592   2
 -12  -5  -3-23.8707 33.2612   4
  12   5   3 80.2868 63.5785   2
 -12  -5  -4 29.5243 33.7834   4
  12   5   4 150.669 65.2811   2
 -12  -5  -5-43.9413 36.5224   4
  12   6  -2 926.822 122.703   2
  12   6  -1 279.484 73.4743   2
  12   6   0 1347.78 151.705   2
  12   6   1 1887.26 180.330   2
  12   6   2 421.233 84.4628   2
 -12  -6  -3 230.891 69.7260   4
  12   6   3 292.290 75.7058   2
 -12  -6  -4 109.445 49.4967   4
 -12  -6  -5 188.113 58.8786   4
   0   0   0    0.00    0.00   0
TITL UL18_MM6_ZW5sub_3 in P-1
REM P-1 (#2 in standard setting)
CELL 0.71073   7.771848   8.606883   9.085673  89.7440  84.8617  74.1988
ZERR    3.00   0.000321   0.000293   0.000329   0.0029   0.0032   0.0033
LATT  1
SFAC C H N O
UNIT 33.00 30.00 3.00 3.00
TREF
HKLF 4
END
;
_shelx_hkl_checksum              8014
_shelx_res_file
;
    shelx.res created by SHELXL-2014/7
TITL AAG5
CELL  0.71073   7.7718   8.6069   9.0857   89.744   84.862   74.199
ZERR     2.00   0.0003   0.0003   0.0003    0.003    0.003    0.003
LATT   1
SFAC  C    H      O
UNIT  32 24 4
MERG   2
OMIT    -3.00  53.00
FMAP   2
PLAN   20
ACTA
BOND   $H
EQIV $1 1-x, 1-y, 2-z
EQIV $2 x, 1+y, z
HTAB C11 O4_$1
HTAB C17 O4_$1
HTAB C7 O4_$2
CONF
LIST   6
L.S.  10
TEMP  -173.00
WGHT    0.059700    0.158300
FVAR       6.70766
O1    3    0.564911    0.960116    0.670170    11.00000    0.02594    0.01814 =
         0.01725    0.00161    0.00387   -0.00844
O4    3    0.311844    0.697575    0.949324    11.00000    0.02876    0.02280 =
         0.01604    0.00493    0.00129   -0.01038
C9    1    0.439261    1.036561    0.780208    11.00000    0.01911    0.02103 =
         0.01256    0.00350   -0.00350   -0.00554
C4    1    0.383544    0.775966    0.862454    11.00000    0.02066    0.02120 =
         0.01259    0.00466   -0.00451   -0.00798
C12   1    0.742743    0.436937    0.642671    11.00000    0.01988    0.01844 =
         0.01848    0.00241   -0.00256   -0.00855
C3    1    0.520162    0.698188    0.739816    11.00000    0.02133    0.02008 =
         0.01254    0.00236   -0.00170   -0.00941
C10   1    0.342345    0.953690    0.873679    11.00000    0.02010    0.01996 =
         0.01422    0.00314   -0.00460   -0.00631
C8    1    0.414933    1.201621    0.799715    11.00000    0.02613    0.02114 =
         0.01771    0.00572   -0.00572   -0.00976
AFIX  43
H8    2    0.484327    1.255978    0.738277    11.00000   -1.20000
AFIX   0
C11   1    0.609583    0.541812    0.749611    11.00000    0.02323    0.02103 =
         0.01278    0.00392   -0.00398   -0.00983
AFIX  43
H11   2    0.582609    0.491839    0.838893    11.00000   -1.20000
AFIX   0
C5    1    0.216820    1.041691    0.984413    11.00000    0.02093    0.02501 =
         0.01660    0.00349   -0.00171   -0.00711
AFIX  43
H5    2    0.150413    0.987314    1.048786    11.00000   -1.20000
AFIX   0
C13   1    0.744484    0.456440    0.489096    11.00000    0.02185    0.02075 =
         0.01851    0.00216   -0.00407   -0.00644
AFIX  43
H13   2    0.658070    0.543484    0.450311    11.00000   -1.20000
AFIX   0
C6    1    0.188506    1.206373    1.001080    11.00000    0.02325    0.02564 =
         0.01968   -0.00126   -0.00142   -0.00285
AFIX  43
H6    2    0.100922    1.265216    1.074837    11.00000   -1.20000
AFIX   0
C17   1    0.870290    0.305091    0.695902    11.00000    0.02483    0.02357 =
         0.02062    0.00551   -0.00431   -0.00862
AFIX  43
H17   2    0.870060    0.288098    0.799296    11.00000   -1.20000
AFIX   0
C7    1    0.289330    1.286328    0.908896    11.00000    0.02821    0.01814 =
         0.02147    0.00192   -0.00770   -0.00534
AFIX  43
H7    2    0.271404    1.399325    0.921381    11.00000   -1.20000
AFIX   0
C2    1    0.543243    0.809479    0.615956    11.00000    0.02668    0.01836 =
         0.01379    0.00216    0.00003   -0.00763
AFIX  23
H2A   2    0.649927    0.755345    0.548624    11.00000   -1.20000
H2B   2    0.436931    0.832199    0.558655    11.00000   -1.20000
AFIX   0
C16   1    0.996322    0.199569    0.599813    11.00000    0.02266    0.02296 =
         0.03119    0.00396   -0.00497   -0.00263
AFIX  43
H16   2    1.082615    0.111736    0.637676    11.00000   -1.20000
AFIX   0
C15   1    0.997109    0.221679    0.447740    11.00000    0.02042    0.02679 =
         0.02903   -0.00452    0.00291   -0.00657
AFIX  43
H15   2    1.083607    0.149172    0.381854    11.00000   -1.20000
AFIX   0
C14   1    0.870984    0.350038    0.393249    11.00000    0.02559    0.02789 =
         0.01833   -0.00131    0.00010   -0.01048
AFIX  43
H14   2    0.871055    0.365350    0.289632    11.00000   -1.20000
AFIX   0
HKLF 4
REM  AAG5
REM R1 =  0.0402 for    2120 Fo > 4sig(Fo)  and  0.0458 for all    2425 data
REM    163 parameters refined using      0 restraints
END
WGHT      0.0597      0.1584
REM Highest difference peak  0.294,  deepest hole -0.220,  1-sigma level  0.047
Q1    1   0.3440  0.8751  0.8636  11.00000  0.05    0.29
Q2    1   0.5194  0.6072  0.7188  11.00000  0.05    0.26
Q3    1   0.3995  1.1213  0.7824  11.00000  0.05    0.25
Q4    1   0.2437  1.0037  0.9003  11.00000  0.05    0.25
Q5    1   0.3559  1.0012  0.8002  11.00000  0.05    0.24
Q6    1   0.3262  0.9944  0.9545  11.00000  0.05    0.24
Q7    1   0.8223  0.4014  0.6646  11.00000  0.05    0.23
Q8    1   0.6135  0.6385  0.7554  11.00000  0.05    0.23
Q9    1   0.5475  0.8804  0.6431  11.00000  0.05    0.21
Q10   1   0.4513  0.7410  0.7941  11.00000  0.05    0.21
Q11   1   0.6814  0.4920  0.6879  11.00000  0.05    0.20
Q12   1   0.4268  0.9801  0.8636  11.00000  0.05    0.20
Q13   1   0.2606  1.1064  1.0076  11.00000  0.05    0.19
Q14   1   0.1564  1.1350  0.9752  11.00000  0.05    0.19
Q15   1   0.1817  0.7379  0.9778  11.00000  0.05    0.19
Q16   1   0.6707  0.7717  0.5835  11.00000  0.05    0.18
Q17   1   0.3316  0.5896  0.9119  11.00000  0.05    0.18
Q18   1   0.9722  0.3154  0.4174  11.00000  0.05    0.18
Q19   1   0.4621  1.0080  0.7057  11.00000  0.05    0.18
Q20   1   0.5387  0.7458  0.6762  11.00000  0.05    0.18
;
_shelx_res_checksum              97684
loop_
_space_group_symop_operation_xyz
'x, y, z'
'-x, -y, -z'
loop_
_atom_site_type_symbol
_atom_site_label
_atom_site_fract_x
_atom_site_fract_y
_atom_site_fract_z
_atom_site_U_iso_or_equiv
_atom_site_adp_type
_atom_site_calc_flag
_atom_site_occupancy
_atom_site_disorder_assembly
_atom_site_disorder_group
O O1 0.56491(12) 0.96012(10) 0.67017(9) 0.0203(2) Uani d 1 . .
O O4 0.31184(12) 0.69758(10) 0.94932(9) 0.0221(2) Uani d 1 . .
C C9 0.43926(16) 1.03656(15) 0.78021(13) 0.0174(3) Uani d 1 . .
C C4 0.38354(17) 0.77597(15) 0.86245(13) 0.0175(3) Uani d 1 . .
C C12 0.74274(17) 0.43694(14) 0.64267(13) 0.0182(3) Uani d 1 . .
C C3 0.52016(17) 0.69819(15) 0.73982(13) 0.0172(3) Uani d 1 . .
C C10 0.34234(16) 0.95369(14) 0.87368(13) 0.0177(3) Uani d 1 . .
C C8 0.41493(18) 1.20162(15) 0.79971(14) 0.0208(3) Uani d 1 . .
H H8 0.4843 1.2560 0.7383 0.025 Uiso calc 1 . .
C C11 0.60958(17) 0.54181(15) 0.74961(13) 0.0181(3) Uani d 1 . .
H H11 0.5826 0.4918 0.8389 0.022 Uiso calc 1 . .
C C5 0.21682(17) 1.04169(16) 0.98441(14) 0.0207(3) Uani d 1 . .
H H5 0.1504 0.9873 1.0488 0.025 Uiso calc 1 . .
C C13 0.74448(17) 0.45644(15) 0.48910(14) 0.0201(3) Uani d 1 . .
H H13 0.6581 0.5435 0.4503 0.024 Uiso calc 1 . .
C C6 0.18851(18) 1.20637(16) 1.00108(14) 0.0236(3) Uani d 1 . .
H H6 0.1009 1.2652 1.0748 0.028 Uiso calc 1 . .
C C17 0.87029(18) 0.30509(15) 0.69590(14) 0.0225(3) Uani d 1 . .
H H17 0.8701 0.2881 0.7993 0.027 Uiso calc 1 . .
C C7 0.28933(18) 1.28633(15) 0.90890(14) 0.0225(3) Uani d 1 . .
H H7 0.2714 1.3993 0.9214 0.027 Uiso calc 1 . .
C C2 0.54324(18) 0.80948(14) 0.61596(13) 0.0194(3) Uani d 1 . .
H H2A 0.6499 0.7553 0.5486 0.023 Uiso calc 1 . .
H H2B 0.4369 0.8322 0.5587 0.023 Uiso calc 1 . .
C C16 0.99632(18) 0.19957(16) 0.59981(16) 0.0262(3) Uani d 1 . .
H H16 1.0826 0.1117 0.6377 0.031 Uiso calc 1 . .
C C15 0.99711(18) 0.22168(16) 0.44774(16) 0.0257(3) Uani d 1 . .
H H15 1.0836 0.1492 0.3819 0.031 Uiso calc 1 . .
C C14 0.87098(18) 0.35004(16) 0.39325(15) 0.0234(3) Uani d 1 . .
H H14 0.8711 0.3653 0.2896 0.028 Uiso calc 1 . .
loop_
_atom_site_aniso_label
_atom_site_aniso_U_11
_atom_site_aniso_U_22
_atom_site_aniso_U_33
_atom_site_aniso_U_12
_atom_site_aniso_U_13
_atom_site_aniso_U_23
O1 0.0259(5) 0.0181(4) 0.0172(4) -0.0084(4) 0.0039(3) 0.0016(3)
O4 0.0288(5) 0.0228(5) 0.0160(4) -0.0104(4) 0.0013(4) 0.0049(3)
C9 0.0191(6) 0.0210(6) 0.0126(5) -0.0055(5) -0.0035(4) 0.0035(4)
C4 0.0207(6) 0.0212(6) 0.0126(6) -0.0080(5) -0.0045(4) 0.0047(4)
C12 0.0199(6) 0.0184(6) 0.0185(6) -0.0085(5) -0.0026(5) 0.0024(5)
C3 0.0213(6) 0.0201(6) 0.0125(6) -0.0094(5) -0.0017(4) 0.0024(4)
C10 0.0201(6) 0.0200(6) 0.0142(6) -0.0063(5) -0.0046(5) 0.0031(5)
C8 0.0261(7) 0.0211(6) 0.0177(6) -0.0098(5) -0.0057(5) 0.0057(5)
C11 0.0232(6) 0.0210(6) 0.0128(6) -0.0098(5) -0.0040(5) 0.0039(5)
C5 0.0209(6) 0.0250(6) 0.0166(6) -0.0071(5) -0.0017(5) 0.0035(5)
C13 0.0219(6) 0.0208(6) 0.0185(6) -0.0064(5) -0.0041(5) 0.0022(5)
C6 0.0233(7) 0.0256(7) 0.0197(6) -0.0029(5) -0.0014(5) -0.0013(5)
C17 0.0248(7) 0.0236(6) 0.0206(6) -0.0086(5) -0.0043(5) 0.0055(5)
C7 0.0282(7) 0.0181(6) 0.0215(6) -0.0053(5) -0.0077(5) 0.0019(5)
C2 0.0267(7) 0.0184(6) 0.0138(6) -0.0076(5) 0.0000(5) 0.0022(5)
C16 0.0227(7) 0.0230(7) 0.0312(7) -0.0026(5) -0.0050(5) 0.0040(5)
C15 0.0204(7) 0.0268(7) 0.0290(7) -0.0066(5) 0.0029(5) -0.0045(5)
C14 0.0256(7) 0.0279(7) 0.0183(6) -0.0105(5) 0.0001(5) -0.0013(5)
loop_
_atom_type_symbol
_atom_type_description
_atom_type_scat_dispersion_real
_atom_type_scat_dispersion_imag
_atom_type_scat_source
C C 0.0033 0.0016 'International Tables Vol C Tables 4.2.6.8 and 6.1.1.4'
H H 0.0000 0.0000 'International Tables Vol C Tables 4.2.6.8 and 6.1.1.4'
O O 0.0106 0.0060 'International Tables Vol C Tables 4.2.6.8 and 6.1.1.4'
loop_
_geom_angle_atom_site_label_1
_geom_angle_atom_site_label_2
_geom_angle_atom_site_label_3
_geom_angle_site_symmetry_1
_geom_angle_site_symmetry_3
_geom_angle
_geom_angle_publ_flag
C9 O1 C2 . . 115.34(9) ?
O1 C9 C8 . . 116.88(11) ?
O1 C9 C10 . . 122.40(11) ?
C8 C9 C10 . . 120.69(12) ?
O4 C4 C10 . . 122.27(11) ?
O4 C4 C3 . . 122.37(11) ?
C10 C4 C3 . . 115.35(10) ?
C13 C12 C17 . . 118.03(11) ?
C13 C12 C11 . . 123.52(11) ?
C17 C12 C11 . . 118.37(11) ?
C11 C3 C4 . . 118.95(11) ?
C11 C3 C2 . . 126.81(11) ?
C4 C3 C2 . . 114.23(10) ?
C5 C10 C9 . . 118.55(11) ?
C5 C10 C4 . . 121.13(11) ?
C9 C10 C4 . . 120.13(11) ?
C7 C8 C9 . . 119.77(11) ?
C7 C8 H8 . . 120.1 ?
C9 C8 H8 . . 120.1 ?
C3 C11 C12 . . 129.45(11) ?
C3 C11 H11 . . 115.3 ?
C12 C11 H11 . . 115.3 ?
C6 C5 C10 . . 120.84(12) ?
C6 C5 H5 . . 119.6 ?
C10 C5 H5 . . 119.6 ?
C14 C13 C12 . . 120.78(12) ?
C14 C13 H13 . . 119.6 ?
C12 C13 H13 . . 119.6 ?
C5 C6 C7 . . 119.76(12) ?
C5 C6 H6 . . 120.1 ?
C7 C6 H6 . . 120.1 ?
C16 C17 C12 . . 120.92(12) ?
C16 C17 H17 . . 119.5 ?
C12 C17 H17 . . 119.5 ?
C8 C7 C6 . . 120.34(12) ?
C8 C7 H7 . . 119.8 ?
C6 C7 H7 . . 119.8 ?
O1 C2 C3 . . 111.90(10) ?
O1 C2 H2A . . 109.2 ?
C3 C2 H2A . . 109.2 ?
O1 C2 H2B . . 109.2 ?
C3 C2 H2B . . 109.2 ?
H2A C2 H2B . . 107.9 ?
C17 C16 C15 . . 120.25(12) ?
C17 C16 H16 . . 119.9 ?
C15 C16 H16 . . 119.9 ?
C14 C15 C16 . . 119.59(12) ?
C14 C15 H15 . . 120.2 ?
C16 C15 H15 . . 120.2 ?
C15 C14 C13 . . 120.42(12) ?
C15 C14 H14 . . 119.8 ?
C13 C14 H14 . . 119.8 ?
loop_
_geom_bond_atom_site_label_1
_geom_bond_atom_site_label_2
_geom_bond_site_symmetry_2
_geom_bond_distance
_geom_bond_publ_flag
O1 C9 . 1.3664(14) ?
O1 C2 . 1.4462(14) ?
O4 C4 . 1.2288(15) ?
C9 C8 . 1.3912(17) ?
C9 C10 . 1.4035(17) ?
C4 C10 . 1.4770(17) ?
C4 C3 . 1.4915(17) ?
C12 C13 . 1.4040(17) ?
C12 C17 . 1.4045(17) ?
C12 C11 . 1.4659(17) ?
C3 C11 . 1.3428(17) ?
C3 C2 . 1.5046(16) ?
C10 C5 . 1.4022(17) ?
C8 C7 . 1.3834(18) ?
C8 H8 . 0.9500 ?
C11 H11 . 0.9500 ?
C5 C6 . 1.3808(18) ?
C5 H5 . 0.9500 ?
C13 C14 . 1.3882(18) ?
C13 H13 . 0.9500 ?
C6 C7 . 1.4000(19) ?
C6 H6 . 0.9500 ?
C17 C16 . 1.3842(18) ?
C17 H17 . 0.9500 ?
C7 H7 . 0.9500 ?
C2 H2A . 0.9900 ?
C2 H2B . 0.9900 ?
C16 C15 . 1.394(2) ?
C16 H16 . 0.9500 ?
C15 C14 . 1.3852(19) ?
C15 H15 . 0.9500 ?
C14 H14 . 0.9500 ?
loop_
_geom_hbond_atom_site_label_D
_geom_hbond_atom_site_label_H
_geom_hbond_atom_site_label_A
_geom_hbond_site_symmetry_A
_geom_hbond_distance_DH
_geom_hbond_distance_HA
_geom_hbond_distance_DA
_geom_hbond_angle_DHA
C11 H11 O4 2_667 0.95 2.56 3.4153(15) 149.7
C17 H17 O4 2_667 0.95 2.56 3.4050(16) 148.1
C7 H7 O4 1_565 0.95 2.69 3.6131(16) 165.5
loop_
_geom_torsion_atom_site_label_1
_geom_torsion_atom_site_label_2
_geom_torsion_atom_site_label_3
_geom_torsion_atom_site_label_4
_geom_torsion_site_symmetry_1
_geom_torsion_site_symmetry_2
_geom_torsion_site_symmetry_3
_geom_torsion_site_symmetry_4
_geom_torsion
_geom_torsion_publ_flag
C2 O1 C9 C8 . . . . -158.11(11) ?
C2 O1 C9 C10 . . . . 24.05(16) ?
O4 C4 C3 C11 . . . . -21.46(17) ?
C10 C4 C3 C11 . . . . 157.66(11) ?
O4 C4 C3 C2 . . . . 159.17(12) ?
C10 C4 C3 C2 . . . . -21.72(14) ?
O1 C9 C10 C5 . . . . 179.55(10) ?
C8 C9 C10 C5 . . . . 1.79(18) ?
O1 C9 C10 C4 . . . . 4.49(18) ?
C8 C9 C10 C4 . . . . -173.27(11) ?
O4 C4 C10 C5 . . . . -0.65(18) ?
C3 C4 C10 C5 . . . . -179.76(10) ?
O4 C4 C10 C9 . . . . 174.29(11) ?
C3 C4 C10 C9 . . . . -4.83(16) ?
O1 C9 C8 C7 . . . . 179.78(11) ?
C10 C9 C8 C7 . . . . -2.35(18) ?
C4 C3 C11 C12 . . . . 177.04(11) ?
C2 C3 C11 C12 . . . . -3.7(2) ?
C13 C12 C11 C3 . . . . -29.7(2) ?
C17 C12 C11 C3 . . . . 153.47(13) ?
C9 C10 C5 C6 . . . . 0.20(18) ?
C4 C10 C5 C6 . . . . 175.21(11) ?
C17 C12 C13 C14 . . . . -1.21(18) ?
C11 C12 C13 C14 . . . . -178.02(11) ?
C10 C5 C6 C7 . . . . -1.62(19) ?
C13 C12 C17 C16 . . . . 1.34(18) ?
C11 C12 C17 C16 . . . . 178.32(11) ?
C9 C8 C7 C6 . . . . 0.90(19) ?
C5 C6 C7 C8 . . . . 1.08(19) ?
C9 O1 C2 C3 . . . . -50.13(14) ?
C11 C3 C2 O1 . . . . -130.51(13) ?
C4 C3 C2 O1 . . . . 48.81(14) ?
C12 C17 C16 C15 . . . . -0.8(2) ?
C17 C16 C15 C14 . . . . 0.0(2) ?
C16 C15 C14 C13 . . . . 0.1(2) ?
C12 C13 C14 C15 . . . . 0.52(19) ?

_cod_database_fobs_code 2022184
