#------------------------------------------------------------------------------
#$Date: 2020-05-21 07:56:55 +0300 (Thu, 21 May 2020) $
#$Revision: 252239 $
#$URL: file:///home/coder/svn-repositories/cod/cif/2/02/21/2022126.cif $
#------------------------------------------------------------------------------
#
# This file is available in the Crystallography Open Database (COD),
# http://www.crystallography.net/. The original data for this entry
# were provided by IUCr Journals, http://journals.iucr.org/.
#
# The file may be used within the scientific community so long as
# proper attribution is given to the journal article from which the
# data were obtained.
#
data_2022126
loop_
_publ_author_name
'Mroz, Damian'
'Wang, Ruimin'
'Englert, Ulli'
'Dronskowski, Richard'
_publ_section_title
;
 Can we trust the experiment? Anisotropic displacement parameters in
 1-(halomethyl)-3-nitrobenzene (halogen = Cl or Br)
;
_journal_coeditor_code           SK3749
_journal_issue                   6
_journal_name_full               'Acta Crystallographica Section C'
_journal_page_first
;
;
_journal_paper_doi               10.1107/S2053229620006221
_journal_volume                  76
_journal_year                    2020
_chemical_formula_iupac          'C7 H6 Br N O2'
_chemical_formula_moiety         'C7 H6 Br N O2'
_chemical_formula_sum            'C7 H6 Br N O2'
_chemical_formula_weight         216.04
_chemical_name_systematic
;
1-(Bromomethyl)-3-nitrobenzene
;
_space_group_crystal_system      monoclinic
_space_group_IT_number           14
_space_group_name_Hall           '-P 2ybc'
_space_group_name_H-M_alt        'P 1 21/c 1'
_atom_sites_solution_hydrogens   geom
_atom_sites_solution_primary     other
_audit_creation_method           SHELXL-2018/3
_cell_angle_alpha                90
_cell_angle_beta                 112.56(2)
_cell_angle_gamma                90
_cell_formula_units_Z            4
_cell_length_a                   12.152(9)
_cell_length_b                   4.470(3)
_cell_length_c                   15.070(11)
_cell_measurement_reflns_used    2817
_cell_measurement_temperature    100(2)
_cell_measurement_theta_max      24.2
_cell_measurement_theta_min      1.6
_cell_volume                     756.0(9)
_computing_cell_refinement
;
XDS (Kabsch <i>et al.</i>, 2010)
;
_computing_data_reduction
;
XDS (Kabsch <i>et al.</i>, 2010)
;
_computing_structure_refinement
;
SHELXL2018 (Sheldrick, 2015)
;
_diffrn_ambient_temperature      100(2)
_diffrn_measured_fraction_theta_full 0.984
_diffrn_measured_fraction_theta_max 0.973
_diffrn_measurement_device_type
'kappa diffractometer (EH1) with Dectris CdTe area detector'
_diffrn_measurement_method       \w
_diffrn_radiation_type           synchrotron
_diffrn_radiation_wavelength     0.61992
_diffrn_reflns_av_R_equivalents  0.0562
_diffrn_reflns_av_unetI/netI     0.0294
_diffrn_reflns_limit_h_max       19
_diffrn_reflns_limit_h_min       -19
_diffrn_reflns_limit_k_max       7
_diffrn_reflns_limit_k_min       -7
_diffrn_reflns_limit_l_max       24
_diffrn_reflns_limit_l_min       -24
_diffrn_reflns_number            18687
_diffrn_reflns_theta_full        21.836
_diffrn_reflns_theta_max         29.997
_diffrn_reflns_theta_min         1.583
_diffrn_source                   'beamline P24 at PETRA-III'
_exptl_absorpt_coefficient_mu    3.762
_exptl_absorpt_correction_T_max  0.747
_exptl_absorpt_correction_T_min  0.604
_exptl_absorpt_correction_type   multi-scan
_exptl_absorpt_process_details
;
(SADABS; Bruker, 2015)
;
_exptl_crystal_colour            colourless
_exptl_crystal_density_diffrn    1.898
_exptl_crystal_description       'block-shaped fragment'
_exptl_crystal_F_000             424
_exptl_crystal_size_max          0.100
_exptl_crystal_size_mid          0.060
_exptl_crystal_size_min          0.040
_refine_diff_density_max         0.905
_refine_diff_density_min         -1.293
_refine_ls_extinction_coef       0.024(3)
_refine_ls_extinction_expression Fc*=kFc[1+0.001xFc^2^\l^3^/sin(2\q)]^-1/4^
_refine_ls_extinction_method
;
SHELXL2018 (Sheldrick 2015)
;
_refine_ls_goodness_of_fit_ref   1.104
_refine_ls_hydrogen_treatment    constr
_refine_ls_matrix_type           full
_refine_ls_number_parameters     101
_refine_ls_number_reflns         3233
_refine_ls_number_restraints     0
_refine_ls_restrained_S_all      1.104
_refine_ls_R_factor_all          0.0346
_refine_ls_R_factor_gt           0.0326
_refine_ls_shift/su_max          0.000
_refine_ls_shift/su_mean         0.000
_refine_ls_structure_factor_coef Fsqd
_refine_ls_weighting_details
'w=1/[\s^2^(Fo^2^)+(0.0493P)^2^+0.4467P] where P=(Fo^2^+2Fc^2^)/3'
_refine_ls_weighting_scheme      calc
_refine_ls_wR_factor_gt          0.0880
_refine_ls_wR_factor_ref         0.0895
_reflns_number_gt                3018
_reflns_number_total             3233
_reflns_threshold_expression     'I > 2\s(I)'
_cod_data_source_file            sk3749sup1.cif
_cod_data_source_block           2b
_cod_original_sg_symbol_H-M      'P 21/c'
_cod_database_code               2022126
_shelx_space_group_comment
;
The symmetry employed for this shelxl refinement is uniquely defined
by the following loop, which should always be used as a source of
symmetry information in preference to the above space-group names.
They are only intended as comments.
;
_shelx_estimated_absorpt_t_min   0.705
_shelx_estimated_absorpt_t_max   0.864
_shelx_hkl_file
;
  -1   0   0 597.878 55.6729   1
   1   0   0 580.410 54.0392   1
   1   0   0 608.602 56.6496   1
   1   0   0 545.568 32.5837   3
  -1   0   0 509.244 30.4324   3
  -1   0   0 476.693 27.5365   2
   1   0   0 479.621 27.7118   2
  -1   0   0 615.955 57.3394   1
   2   0   0 155.163 9.27306   3
  -2   0   0 144.964 8.67627   3
  -2   0   0 147.198 8.50393   2
   2   0   0 178.277 16.5983   1
  -2   0   0 187.955 17.4980   1
   2   0   0 171.806 16.0012   1
   2   0   0 148.101 8.57215   2
  -2   0   0 152.959 14.2478   1
   3   0   0 2868.22 267.069   1
   3   0   0 2757.11 256.747   1
  -3   0   0 2798.45 260.647   1
   3   0   0 2616.19 151.048   2
  -3   0   0 2862.24 266.381   1
  -3   0   0 2460.63 142.099   2
  -3   0   0 2443.81 146.050   3
   3   0   0 2892.84 172.729   3
  -4   0   0 73.7471 6.86339   1
  -4   0   0 59.2763 3.46626   2
   4   0   0 61.2347 3.55200   2
   4   0   0 63.5500 3.84586   3
  -4   0   0 67.8043 6.31121   1
   4   0   0 69.1853 6.44485   1
   4   0   0 72.5847 6.75642   1
   5   0   0 67.6327 3.93928   2
  -5   0   0 66.4611 3.88515   2
  -5   0   0 74.9732 6.97546   1
  -5   0   0 74.5784 6.94722   1
   5   0   0 64.8285 3.91816   3
   5   0   0 71.8088 6.69113   1
   5   0   0 72.7660 6.77188   1
  -6   0   0 194.355 18.0988   1
   6   0   0 172.420 16.0554   1
  -6   0   0 178.136 16.5882   1
  -6   0   0 156.758 9.41295   3
   6   0   0 169.461 9.80303   2
  -6   0   0 175.482 10.1647   2
   6   0   0 184.583 17.1855   1
  -7   0   0 145.731 8.73854   3
   7   0   0 150.821 8.76085   2
   7   0   0 163.976 15.2731   1
  -7   0   0 164.600 15.3284   1
   7   0   0 167.348 15.5826   1
  -7   0   0 163.107 15.1858   1
  -7   0   0 149.233 8.65991   2
   7   0   0 145.898 8.77234   3
   8   0   0 353.068 21.1232   3
  -8   0   0 353.038 20.4097   2
   8   0   0 343.526 19.8772   2
  -8   0   0 334.717 20.0332   3
   8   0   0 339.756 31.6385   1
   8   0   0 380.159 35.3997   1
  -9   0   0 379.062 22.6739   3
   9   0   0 418.029 38.9068   1
   9   0   0 414.686 23.9810   2
   9   0   0 393.193 23.5246   3
   9   0   0 429.382 39.9893   1
 -10   0   0 307.369 18.4122   3
 -10   0   0 284.102 26.4639   1
  10   0   0 289.270 17.3332   3
 -10   0   0 294.688 27.4494   1
  10   0   0 280.781 16.2538   2
  11   0   0 564.094 52.5225   1
 -11   0   0 557.737 51.9398   1
 -11   0   0 584.186 34.9415   3
 -11   0   0 547.125 50.9335   1
  11   0   0 547.062 50.9209   1
  11   0   0 566.933 33.9236   3
 -12   0   0 514.450 30.7764   3
 -12   0   0 548.146 31.7266   2
  12   0   0 484.168 28.9782   3
  13   0   0 343.009 20.5616   3
  13   0   0 261.863 15.1847   2
 -13   0   0 262.538 15.2483   2
 -13   0   0 288.357 17.2954   3
  14   0   0 100.375 6.10469   3
  14   0   0 95.9539 5.63080   2
 -14   0   0 93.9154 5.52473   2
  15   0   0 46.1481 2.80042   2
 -15   0   0 47.1035 2.89160   2
 -15   0   0 48.9261 3.13484   3
 -16   0   0 25.6145 1.81089   3
  16   0   0 27.4910 1.95110   3
  16   0   0 28.6505 1.85669   2
 -16   0   0 30.6677 2.00535   2
  17   0   0 0.54526 0.89982   3
 -17   0   0 0.58594 0.72698   2
 -17   0   0 1.72125 0.82333   3
  17   0   0 2.18160 0.67370   2
 -18   0   0 33.1470 2.15097   2
  18   0   0 33.8752 2.16101   2
  19   0   0 24.1243 1.63545   2
 -19   0   0 23.2139 1.64059   2
  20   0   0 19.0124 1.39350   2
 -20   0   0 24.0948 1.79243   2
   0  -1   0 0.31595 0.13904   3
   0  -1   0 0.18358 0.14100   2
   0   1   0 0.51127 0.15750   3
   1  -1   0 82.8994 4.96232   3
  -1  -1   0 77.2609 7.19425   1
   1  -1   0 71.7093 4.14024   2
  -1  -1   0 89.6745 8.34861   1
   1  -1   0 80.2840 7.47733   1
   1  -1   0 79.1840 7.37180   1
  -1  -1   0 86.6016 5.18323   3
  -1   1   0 89.6041 8.34412   1
  -1   1   0 87.7228 8.17253   1
   1   1   0 75.2910 7.01499   1
   1   1   0 69.8679 4.03831   2
   1   1   0 78.8156 4.71062   3
  -1   1   0 81.8182 4.90891   3
   1   1   0 100.630 9.36462   1
  -1   1   0 74.8594 4.33604   2
  -2  -1   0 439.574 26.2568   3
   2  -1   0 513.153 47.7690   1
   2  -1   0 426.067 24.6291   2
   2  -1   0 459.103 27.4282   3
  -2   1   0 470.477 28.1148   3
   2   1   0 506.001 47.1000   1
  -2   1   0 417.751 24.1272   2
   2   1   0 464.722 26.8152   2
  -2   1   0 486.416 45.2719   1
  -2   1   0 576.035 53.6310   1
   2   1   0 449.930 26.8798   3
   2   1   0 407.948 37.9719   1
  -3  -1   0 1888.76 175.875   1
   3  -1   0 1848.59 106.787   2
   3  -1   0 2254.99 209.890   1
   3  -1   0 1888.42 112.779   3
   3  -1   0 2042.07 190.137   1
   3   1   0 2145.00 128.119   3
  -3   1   0 2253.67 209.816   1
  -3   1   0 2382.81 221.714   1
   3   1   0 2040.25 189.989   1
  -3   1   0 2103.76 121.445   2
  -3   1   0 1904.53 113.780   3
  -4  -1   0 307.248 18.3824   3
  -4  -1   0 354.829 33.0433   1
   4  -1   0 361.322 33.6433   1
   4  -1   0 354.686 33.0188   1
   4  -1   0 300.466 17.9751   3
  -4  -1   0 295.015 17.0465   2
   4  -1   0 327.243 18.9236   2
  -4  -1   0 283.272 26.3840   1
   4   1   0 343.022 20.5087   3
  -4   1   0 307.882 18.4095   3
  -4   1   0 336.672 31.3429   1
  -4   1   0 335.061 31.2141   1
  -4   1   0 297.735 17.2213   2
   5  -1   0 376.308 35.0298   1
   5  -1   0 371.296 34.5536   1
  -5  -1   0 414.371 23.9346   2
   5  -1   0 347.071 20.0605   2
  -5  -1   0 373.363 22.3133   3
  -5  -1   0 420.060 39.1193   1
  -5  -1   0 423.005 39.3923   1
   5  -1   0 379.531 22.6876   3
  -5   1   0 341.811 19.7695   2
  -5   1   0 379.431 35.3424   1
   5   1   0 383.180 22.1348   2
  -5   1   0 391.994 36.4927   1
  -5   1   0 356.226 21.3108   3
   6  -1   0 809.751 48.4059   3
  -6  -1   0 878.671 52.4974   3
   6  -1   0 911.051 84.8182   1
  -6  -1   0 864.456 49.9242   2
   6  -1   0 925.560 86.1658   1
   6  -1   0 893.615 51.6118   2
  -6  -1   0 840.300 78.2432   1
  -6  -1   0 904.629 84.2209   1
   6   1   0 864.237 51.6482   3
   6   1   0 808.792 46.7077   2
   6   1   0 894.334 83.2606   1
  -6   1   0 955.632 88.9913   1
  -6   1   0 900.466 83.8405   1
   6   1   0 777.188 72.3830   1
  -6   1   0 876.323 50.5946   2
  -7  -1   0 265.612 24.7316   1
   7  -1   0 274.588 25.5702   1
  -7  -1   0 274.703 16.4260   3
   7  -1   0 276.545 25.7656   1
  -7  -1   0 267.456 15.4784   2
  -7  -1   0 277.767 25.8754   1
   7  -1   0 278.509 16.1161   2
   7   1   0 276.841 16.5600   3
   7   1   0 237.382 22.1142   1
  -7   1   0 281.310 26.1930   1
   7   1   0 260.907 15.1043   2
  -7   1   0 286.124 26.6501   1
  -7   1   0 265.858 15.3902   2
  -7   1   0 252.095 15.0828   3
   7   1   0 284.535 26.4791   1
  -8  -1   0 453.941 26.2320   2
  -8  -1   0 434.664 25.9973   3
   8  -1   0 518.921 31.0382   3
   8  -1   0 471.529 27.2500   2
  -8  -1   0 459.628 42.7995   1
  -8  -1   0 446.668 41.5956   1
   8  -1   0 470.675 43.8376   1
   8  -1   0 419.199 39.0289   1
   8   1   0 449.545 25.9790   2
   8   1   0 442.330 26.4726   3
  -8   1   0 461.367 42.9536   1
   8   1   0 404.281 37.6510   1
   8   1   0 459.661 42.8099   1
  -8   1   0 451.050 26.0863   2
  -8   1   0 455.161 27.2291   3
  -8   1   0 446.741 41.5941   1
   9  -1   0 114.210 6.89316   3
   9  -1   0 115.189 10.7229   1
  -9  -1   0 108.017 6.50212   3
  -9  -1   0 113.100 10.5322   1
   9  -1   0 111.475 6.50160   2
  -9  -1   0 123.862 11.5370   1
   9  -1   0 111.078 10.3438   1
  -9  -1   0 119.131 6.95015   2
  -9   1   0 109.838 10.2286   1
   9   1   0 115.320 6.72499   2
   9   1   0 99.1062 9.23150   1
   9   1   0 111.896 6.74427   3
  -9   1   0 121.418 7.31690   3
   9   1   0 109.850 10.2323   1
  -9   1   0 112.230 10.4539   1
  -9   1   0 114.409 6.66758   2
 -10  -1   0 6.88054 0.65142   1
  10  -1   0 7.49746 0.62495   2
 -10  -1   0 8.23933 0.77748   1
 -10  -1   0 8.13044 0.74586   3
  10  -1   0 7.28210 0.80733   3
  10  -1   0 8.24580 0.78029   1
 -10  -1   0 7.68658 0.72721   2
  10  -1   0 6.71747 0.63637   1
  10   1   0 7.16143 0.67690   1
  10   1   0 7.74685 0.73605   1
  10   1   0 7.94117 0.81663   3
 -10   1   0 7.30027 0.68820   1
 -10   1   0 6.56676 0.60782   2
 -10   1   0 7.48424 0.70702   1
 -10   1   0 7.12287 0.73973   3
  10   1   0 7.97056 0.66019   2
  11  -1   0 6.25980 0.59391   1
  11  -1   0 5.08054 0.75715   3
 -11  -1   0 6.23500 0.69456   2
 -11  -1   0 5.64796 0.53739   1
 -11  -1   0 6.05373 0.57438   1
  11  -1   0 5.38710 0.51880   1
  11  -1   0 6.17484 0.60631   2
 -11  -1   0 4.51244 0.62086   3
  11   1   0 5.49585 0.52789   1
 -11   1   0 5.33798 0.50996   1
 -11   1   0 5.92806 0.66784   2
  11   1   0 5.99076 0.77916   3
 -11   1   0 4.95460 0.48346   1
  11   1   0 5.72981 0.54559   1
  11   1   0 5.42111 0.57765   2
 -11   1   0 5.91873 0.73281   3
 -12  -1   0 14.9560 1.08584   3
  12  -1   0 15.1492 1.05664   2
 -12  -1   0 15.4384 1.11940   2
  12  -1   0 15.1956 1.18474   3
  12   1   0 14.5622 1.11549   3
  12   1   0 15.6871 1.09660   2
 -12   1   0 14.6474 1.10797   3
 -12   1   0 15.2303 1.11616   2
  13  -1   0 12.3810 1.07767   3
 -13  -1   0 11.5132 0.96130   2
  13  -1   0 12.0644 0.90625   2
  13   1   0 10.7543 0.97453   3
  13   1   0 12.1376 0.95251   2
 -13   1   0 11.3294 0.96793   3
 -13   1   0 12.2152 0.92677   2
 -14  -1   0 64.0360 3.82238   2
  14  -1   0 58.3464 3.48714   2
 -14  -1   0 60.1728 3.72133   3
  14  -1   0 61.6047 3.84817   3
 -14   1   0 57.4009 3.41800   2
 -14   1   0 62.2710 3.87908   3
  14   1   0 63.7325 3.81783   2
 -15  -1   0 64.1900 3.98703   3
  15  -1   0 60.7532 3.62285   2
  15  -1   0 64.9556 4.05669   3
 -15  -1   0 62.7244 3.76696   2
  15   1   0 68.0995 4.26414   3
  15   1   0 67.2442 4.01033   2
 -16  -1   0 36.9885 2.39494   2
  16  -1   0 32.2979 2.03202   2
 -16  -1   0 32.7113 2.16763   3
  16   1   0 35.4354 2.26390   2
 -16   1   0 31.3759 2.11272   3
  16   1   0 31.4723 2.16894   3
 -17  -1   0 28.7219 1.97249   3
  17  -1   0 30.9650 1.96893   2
  17  -1   0 32.5589 2.24981   3
 -17  -1   0 30.1389 1.98917   2
  17   1   0 26.8953 1.79481   2
 -17   1   0 32.9842 2.23390   3
  18  -1   0 29.4528 2.06144   3
 -18  -1   0 33.8228 2.25772   2
  18   1   0 32.1494 2.08363   2
 -18   1   0 31.2803 2.21319   3
 -18   1   0 28.0823 1.86162   2
  19  -1   0 14.8415 1.15828   2
 -19   1   0 14.3747 1.18039   2
  19   1   0 16.9589 1.37839   2
  20  -1   0 10.4461 0.95824   2
 -20   1   0 9.40309 1.02018   2
   0  -2   0 0.33528 0.20749   3
   0  -2   0 0.67695 0.07407   1
   0  -2   0 0.06325 0.19432   2
   0   2   0 0.47004 0.17988   3
   0   2   0 0.61352 0.06389   1
   1  -2   0 147.810 8.85515   3
  -1  -2   0 134.844 12.5552   1
  -1  -2   0 132.723 7.68853   2
   1  -2   0 145.322 8.41997   2
  -1  -2   0 152.152 9.10470   3
   1   2   0 185.068 17.2245   1
   1   2   0 144.500 8.66073   3
  -1   2   0 148.469 8.88768   3
   2  -2   0 81.0153 7.54577   1
  -2  -2   0 90.2033 8.39302   1
   2  -2   0 90.2915 5.24146   2
   2  -2   0 86.8178 8.07995   1
  -2  -2   0 87.7028 8.16921   1
   2  -2   0 99.6703 5.97099   3
  -2   2   0 82.4337 4.94175   3
   2   2   0 80.7797 7.52699   1
   2   2   0 74.2090 4.30273   2
  -2   2   0 87.6592 5.09193   2
  -2   2   0 100.054 9.31402   1
   2   2   0 67.9367 4.07889   3
   3  -2   0 125.880 7.54805   3
   3  -2   0 129.914 12.0983   1
  -3  -2   0 119.913 7.19647   3
  -3  -2   0 125.308 11.6693   1
   3  -2   0 114.408 6.64538   2
  -3   2   0 125.775 7.55119   3
   3   2   0 138.615 12.9108   1
   4  -2   0 222.887 13.3418   3
   4  -2   0 228.323 21.2611   1
  -4  -2   0 214.532 12.8436   3
  -4  -2   0 239.419 22.2955   1
   4  -2   0 195.268 11.3120   2
   4   2   0 234.647 21.8469   1
   4   2   0 216.911 20.1913   1
  -4   2   0 213.179 12.7647   3
   4   2   0 189.975 10.9925   2
  -5  -2   0 220.484 20.5411   1
  -5  -2   0 175.715 10.5309   3
   5  -2   0 174.172 10.4314   3
  -5  -2   0 192.974 17.9689   1
   5   2   0 170.846 9.90204   2
  -5   2   0 172.418 16.0528   1
  -5   2   0 174.138 10.4294   3
   5   2   0 219.068 20.3952   1
   5   2   0 180.920 10.8350   3
  -5   2   0 172.763 10.0141   2
   5   2   0 192.531 17.9328   1
  -5   2   0 173.029 16.1123   1
  -6  -2   0 66.4072 4.01472   3
  -6  -2   0 75.3013 7.01284   1
  -6  -2   0 77.8132 4.55317   2
   6  -2   0 71.7419 4.33348   3
  -6  -2   0 71.3424 6.64493   1
  -6   2   0 66.6067 6.20059   1
   6   2   0 73.4042 4.43464   3
   6   2   0 70.5432 4.11670   2
  -6   2   0 63.8293 3.75562   2
  -6   2   0 86.9258 8.08957   1
   6   2   0 77.6490 7.23214   1
  -6   2   0 67.8825 4.11552   3
   6   2   0 72.4527 6.75101   1
  -7  -2   0 13.3773 0.92953   3
  -7  -2   0 12.5181 1.17420   1
  -7  -2   0 15.1354 1.41573   1
   7  -2   0 12.4790 0.83324   2
   7  -2   0 13.6735 0.94774   3
  -7  -2   0 12.0985 0.84925   2
   7   2   0 14.1130 0.99923   3
   7   2   0 12.9694 0.86902   2
   7   2   0 14.1046 1.31399   1
  -7   2   0 14.0724 1.31883   1
  -7   2   0 13.1188 1.22536   1
  -7   2   0 14.4077 0.98642   2
   7   2   0 12.1094 1.13215   1
   8  -2   0 53.0728 4.94208   1
  -8  -2   0 59.9085 5.58215   1
  -8  -2   0 58.4893 3.57397   3
   8  -2   0 56.0736 5.22081   1
  -8  -2   0 51.3152 3.01944   2
  -8  -2   0 50.3960 4.69563   1
   8  -2   0 58.0075 3.41159   2
   8   2   0 58.0765 5.41219   1
   8   2   0 49.9504 4.64966   1
   8   2   0 57.1219 3.35691   2
  -8   2   0 52.4819 3.12697   2
   8   2   0 57.5273 3.49481   3
  -8   2   0 55.3052 3.38426   3
  -8   2   0 55.0489 5.12958   1
  -8   2   0 49.9428 4.64911   1
  -9  -2   0 1.74587 0.53641   2
   9  -2   0 2.74891 0.54754   3
  -9  -2   0 2.50224 0.25892   1
   9  -2   0 2.25380 0.42399   2
   9  -2   0 2.17476 0.23432   1
  -9  -2   0 1.70445 0.19634   1
   9   2   0 2.25436 0.46976   2
  -9   2   0 2.15607 0.22526   1
  -9   2   0 2.68910 0.26837   1
   9   2   0 2.50121 0.25310   1
  -9   2   0 1.62836 0.55987   3
   9   2   0 1.83323 0.19542   1
  -9   2   0 1.38079 0.45078   2
  10  -2   0 54.3292 5.06474   1
 -10  -2   0 54.2608 3.22535   2
 -10  -2   0 47.9338 2.93476   3
  10  -2   0 57.9053 3.41202   2
  10  -2   0 57.7984 5.38697   1
  10  -2   0 52.2734 3.20564   3
  10   2   0 57.8098 5.38734   1
  10   2   0 53.2362 4.95812   1
 -10   2   0 60.5609 3.60295   2
  10   2   0 58.2295 3.44865   2
 -10   2   0 55.6317 5.18666   1
 -10   2   0 59.3967 3.64345   3
  10   2   0 59.9675 3.66730   3
 -10   2   0 60.1687 5.60629   1
  11  -2   0 7.00161 0.61112   2
 -11  -2   0 6.30528 0.67976   2
 -11  -2   0 5.56915 0.62805   3
  11   2   0 6.69750 0.66101   2
  11   2   0 5.81626 0.69842   3
 -11   2   0 7.80157 0.83556   3
 -11   2   0 6.39301 0.67221   2
  12  -2   0 1.98027 0.67719   3
  12  -2   0 2.79149 0.48121   2
 -12  -2   0 3.00861 0.59947   2
 -12   2   0 1.97098 0.49371   2
  12   2   0 2.77118 0.58054   2
 -12   2   0 2.39673 0.71109   3
  13  -2   0 12.5920 1.15495   3
  13  -2   0 10.0159 0.79568   2
 -13  -2   0 8.35842 0.81479   3
 -13   2   0 9.35231 0.97912   3
  13   2   0 10.3332 0.87565   2
 -13   2   0 9.99097 0.84780   2
  14  -2   0 -0.7115 0.86979   3
 -14  -2   0 1.24507 0.56577   3
  14  -2   0 0.50289 0.52670   2
  14   2   0 -0.1583 0.60935   3
  14   2   0 -0.4195 0.64441   2
 -14   2   0 0.55855 0.59200   2
 -14   2   0 0.51361 0.72649   3
 -15  -2   0 0.48240 0.76747   2
 -15  -2   0 0.50197 0.66850   3
  15  -2   0 -0.1336 0.91118   3
  15  -2   0 0.67495 0.51839   2
 -15   2   0 0.29149 0.61996   2
 -15   2   0 0.17220 0.78484   3
  17  -2   0 -0.5178 0.62242   2
  17   2   0 -0.0458 0.81832   2
 -17   2   0 -0.3758 0.71304   2
 -17   2   0 0.24656 0.89514   3
 -18  -2   0 -0.2973 0.94861   2
  18  -2   0 1.75773 0.92486   3
  18  -2   0 1.03537 0.67421   2
  18   2   0 1.42448 0.75544   2
 -18   2   0 2.83482 0.73747   2
 -18   2   0 0.52516 0.85289   3
  19  -2   0 0.35126 0.60701   2
 -19   2   0 -0.3942 0.65601   2
  20  -2   0 0.63669 0.60704   2
 -20   2   0 -0.9532 0.71506   2
   0  -3   0 0.06460 0.17365   2
   0  -3   0 0.08547 0.28209   3
   0  -3   0 -0.0558 0.04737   1
   0   3   0 0.19109 0.28030   3
   0   3   0 -0.0646 0.17378   2
   0   3   0 0.04076 0.04848   1
  -1  -3   0 3.76832 0.35030   1
  -1  -3   0 3.47772 0.32859   1
   1  -3   0 3.63016 0.31010   2
   1  -3   0 4.56094 0.40708   3
   1  -3   0 3.38018 0.31841   1
   1   3   0 5.16024 0.45770   3
  -1   3   0 3.77393 0.35216   1
  -1   3   0 3.59373 0.30326   2
  -1   3   0 4.62267 0.39322   3
   1   3   0 4.45861 0.41965   1
  -2  -3   0 241.298 22.4626   1
  -2  -3   0 266.762 24.8293   1
   2  -3   0 257.402 15.4132   3
  -2  -3   0 295.899 17.1018   2
   2  -3   0 235.293 21.9057   1
   2  -3   0 248.131 23.1066   1
  -2  -3   0 263.253 15.7545   3
   2  -3   0 236.658 13.6905   2
  -2   3   0 258.315 24.0585   1
  -2   3   0 258.925 15.5071   3
   2   3   0 248.511 14.8881   3
   2   3   0 270.578 25.2004   1
  -2   3   0 236.079 13.6450   2
  -2   3   0 243.478 22.6672   1
  -3  -3   0 208.683 12.5022   3
   3  -3   0 231.256 21.5254   1
   3  -3   0 208.120 19.3949   1
   3  -3   0 224.857 13.4764   3
   3   3   0 228.481 21.2745   1
  -3   3   0 226.315 21.0798   1
  -3   3   0 261.610 15.1360   2
  -3   3   0 231.431 13.8469   3
   4  -3   0 879.940 81.9122   1
  -4  -3   0 777.757 72.4328   1
   4  -3   0 870.424 51.9833   3
  -4  -3   0 782.389 46.7497   3
  -4  -3   0 686.077 63.9121   1
   4  -3   0 815.343 75.9231   1
  -4   3   0 958.051 55.2976   2
  -4   3   0 855.070 51.0948   3
  -4   3   0 862.868 80.3320   1
   4   3   0 867.399 80.7571   1
  -4   3   0 1050.35 97.7792   1
   4   3   0 703.894 42.0885   3
   4   3   0 670.151 62.4090   1
  -5  -3   0 215.722 12.9156   3
   5  -3   0 214.511 12.4135   2
   5  -3   0 254.079 23.6443   1
   5  -3   0 215.813 20.0995   1
   5  -3   0 219.818 13.1599   3
  -5   3   0 213.805 19.9052   1
  -5   3   0 210.782 12.6215   3
   5   3   0 216.349 20.1460   1
  -5   3   0 229.184 13.2910   2
   5   3   0 213.876 12.8081   3
  -5   3   0 228.449 21.2773   1
  -6  -3   0 247.453 23.0399   1
  -6  -3   0 205.651 12.3233   3
   6  -3   0 201.760 18.7901   1
   6  -3   0 197.871 18.4251   1
  -6  -3   0 170.939 15.9188   1
   6  -3   0 197.114 11.4209   2
   6  -3   0 206.912 12.3915   3
  -6   3   0 215.057 20.0161   1
   6   3   0 177.442 16.5302   1
  -6   3   0 177.269 16.5086   1
  -6   3   0 193.769 11.2288   2
   6   3   0 245.382 14.7019   3
   6   3   0 217.993 20.3067   1
  -6   3   0 207.503 12.4353   3
   7  -3   0 528.680 30.5537   2
   7  -3   0 547.794 32.7681   3
  -7  -3   0 581.812 54.1696   1
  -7  -3   0 587.799 54.7321   1
  -7  -3   0 581.138 34.7468   3
   7  -3   0 454.827 42.3530   1
   7  -3   0 547.504 50.9833   1
  -7   3   0 537.908 32.1752   3
   7   3   0 548.818 32.8164   3
  -7   3   0 514.968 47.9616   1
  -7   3   0 510.252 29.5123   2
  -7   3   0 523.025 48.7101   1
  -8  -3   0 97.2488 9.05859   1
  -8  -3   0 100.878 6.07612   3
   8  -3   0 103.025 9.59046   1
   8  -3   0 96.2605 5.63598   2
  -8  -3   0 116.979 10.8910   1
   8  -3   0 88.2383 8.22094   1
  -8   3   0 111.720 10.3995   1
   8   3   0 104.025 6.28026   3
   8   3   0 82.8629 7.72358   1
   8   3   0 109.706 10.2189   1
  -8   3   0 92.3036 8.59707   1
  -8   3   0 118.155 6.90329   2
  -9  -3   0 130.819 12.1820   1
  -9  -3   0 128.839 7.76816   3
   9  -3   0 130.064 7.58121   2
   9   3   0 130.525 7.60629   2
   9   3   0 122.982 11.4557   1
   9   3   0 139.231 8.37523   3
  -9   3   0 127.968 7.69979   3
  -9   3   0 107.601 10.0279   1
  10  -3   0 22.5459 1.53443   3
  10  -3   0 23.1712 1.44267   2
 -10  -3   0 26.0175 1.70777   3
 -10   3   0 23.9701 1.61184   3
  10   3   0 26.5949 1.76897   3
  10   3   0 22.9124 1.47200   2
  11  -3   0 14.8390 1.15217   3
  11  -3   0 14.0586 0.97200   2
 -11   3   0 12.9091 1.05403   2
  11   3   0 14.1017 1.05643   2
 -11   3   0 12.8212 1.02249   3
  11   3   0 14.6808 1.10843   3
 -12  -3   0 -0.1012 0.58437   3
 -12  -3   0 -1.6330 1.11026   2
  12  -3   0 -0.0499 0.63078   3
 -12   3   0 0.60432 0.66484   3
 -12   3   0 0.90218 0.50760   2
  12   3   0 0.91290 0.66424   2
 -13  -3   0 15.1332 1.18217   3
 -13   3   0 13.3501 1.00424   2
  13   3   0 13.6496 1.12821   2
  13   3   0 14.5025 1.15677   3
 -13   3   0 12.7280 1.11104   3
 -14  -3   0 85.8052 5.26676   3
  14  -3   0 79.9985 4.71701   2
  14  -3   0 79.9612 4.91995   3
  14   3   0 84.4999 5.18397   3
 -14   3   0 89.1337 5.44924   3
 -14   3   0 82.9563 4.89398   2
  15  -3   0 64.8676 4.07617   3
 -15  -3   0 55.5112 3.48013   3
  15  -3   0 56.3908 3.39002   2
 -15   3   0 51.3751 3.10835   2
 -15   3   0 56.8692 3.59984   3
  16  -3   0 41.8415 2.55220   2
 -16   3   0 44.3536 2.70549   2
  17  -3   0 46.6047 2.82657   2
 -17   3   0 47.9768 3.09171   3
 -17   3   0 44.0928 2.69048   2
  18  -3   0 24.4740 1.85790   3
  18  -3   0 24.6447 1.64414   2
 -18   3   0 23.5282 1.60986   2
 -18   3   0 24.8501 1.82635   3
  19  -3   0 11.5731 0.98566   2
 -19   3   0 11.3990 1.02477   2
   0  -4   0 359.867 20.8032   2
   0   4   0 393.749 23.5476   3
  -1  -4   0 405.792 23.4582   2
   1  -4   0 459.070 42.7428   1
  -1  -4   0 417.152 38.8522   1
   1  -4   0 463.816 27.7293   3
  -1  -4   0 489.893 29.2764   3
   1   4   0 335.455 31.2568   1
  -1   4   0 495.526 29.6260   3
   1   4   0 500.586 29.9240   3
   2  -4   0 101.728 6.12419   3
   2  -4   0 104.461 9.72648   1
  -2  -4   0 98.8375 5.95293   3
   2  -4   0 101.620 9.46274   1
  -2  -4   0 88.9233 8.28694   1
  -2   4   0 98.6486 5.93219   3
  -2   4   0 95.9136 5.59080   2
   2   4   0 96.3596 8.97911   1
  -2   4   0 73.8635 6.88178   1
  -2   4   0 93.3577 8.69059   1
   3  -4   0 82.5481 4.98589   3
  -3  -4   0 81.4852 7.59122   1
   3  -4   0 73.3623 4.28297   2
  -3  -4   0 84.7630 5.11692   3
  -3  -4   0 58.4249 5.44619   1
  -3   4   0 79.8775 4.82700   3
   3   4   0 62.7423 5.84663   1
   3   4   0 80.7342 4.87408   3
  -3   4   0 75.0009 6.98644   1
   3   4   0 79.5357 7.40257   1
  -3   4   0 73.2382 4.29018   2
  -4  -4   0 191.034 11.4508   3
   4  -4   0 188.031 10.8877   2
  -4  -4   0 212.963 19.8322   1
   4   4   0 196.926 18.3310   1
   4   4   0 136.058 12.6797   1
   4   4   0 179.280 10.7590   3
  -4   4   0 176.485 16.4309   1
  -4   4   0 188.576 10.9526   2
  -5  -4   0 3.57604 0.47493   3
   5  -4   0 2.62196 0.25705   1
  -5  -4   0 2.95414 0.29033   1
   5  -4   0 3.64724 0.48944   3
   5  -4   0 3.39176 0.49179   2
   5   4   0 2.46201 0.24335   1
  -5   4   0 2.63791 0.45209   3
  -5   4   0 3.87045 0.52032   2
  -5   4   0 3.52553 0.34286   1
   6  -4   0 0.44489 0.38441   2
  -6  -4   0 -0.4377 0.38982   3
   6  -4   0 0.38784 0.42668   3
  -6   4   0 -0.4287 0.40092   3
   6   4   0 0.15889 0.08894   1
  -6   4   0 0.32611 0.40075   2
   6   4   0 0.39261 0.40794   3
   7  -4   0 81.3502 4.92705   3
   7  -4   0 84.0611 4.91270   2
  -7   4   0 80.5150 4.72802   2
  -7   4   0 83.0161 5.02390   3
   8  -4   0 99.1445 5.99934   3
  -8  -4   0 90.4063 5.47897   3
  -8   4   0 100.554 5.89549   2
   8   4   0 93.4114 5.65760   3
  -8   4   0 93.8105 5.67137   3
  -9  -4   0 40.1722 2.50979   3
   9  -4   0 47.8152 2.96799   3
   9  -4   0 40.5733 2.44592   2
   9   4   0 40.8524 2.54830   3
  -9   4   0 41.8859 2.54148   2
  10  -4   0 134.440 7.84201   2
  10   4   0 129.217 7.79021   3
 -10   4   0 117.879 7.13463   3
 -10   4   0 143.686 8.40273   2
 -11  -4   0 136.703 8.26121   3
  11  -4   0 141.219 8.51979   3
  11  -4   0 143.155 8.34434   2
 -11   4   0 139.331 8.13545   2
 -11   4   0 138.119 8.34818   3
 -12  -4   0 120.514 7.30203   3
  12  -4   0 121.813 7.11385   2
  12  -4   0 123.055 7.46450   3
 -12   4   0 119.232 6.97113   2
 -12   4   0 119.766 7.24974   3
 -13  -4   0 52.7843 3.30413   3
  13  -4   0 52.1779 3.12389   2
 -13   4   0 66.5096 4.15946   3
  13   4   0 52.1415 3.28648   3
 -13   4   0 51.9598 3.12340   2
  14  -4   0 18.1234 1.22844   2
  14  -4   0 17.1551 1.33216   3
 -14   4   0 18.1747 1.26457   2
 -14   4   0 19.0583 1.41402   3
  15  -4   0 19.8818 1.33581   2
  15  -4   0 16.0264 1.26690   3
 -15   4   0 19.7585 1.49062   3
 -15   4   0 17.2301 1.26968   2
  16  -4   0 4.05667 1.02105   3
  16  -4   0 4.18125 0.67059   2
 -16   4   0 4.40593 0.72529   2
 -16   4   0 4.53051 0.92207   3
  17  -4   0 0.83992 0.57066   2
  17  -4   0 1.43823 0.98892   3
 -17   4   0 0.10735 0.59362   2
  18  -4   0 1.04652 0.61514   2
 -18   4   0 0.59108 0.65665   2
   0  -5   0 -0.8350 0.35849   3
  -1  -5   0 62.8864 3.81964   3
   1   5   0 60.2925 3.67741   3
  -1   5   0 63.6774 3.86771   3
   2  -5   0 46.8915 2.88168   3
  -2  -5   0 45.2205 2.78501   3
   2  -5   0 41.0665 2.44214   2
   2   5   0 43.6654 2.67085   3
  -2   5   0 46.6014 2.84999   3
  -3  -5   0 9.32399 0.71901   3
   3  -5   0 9.13347 0.71507   3
   3   5   0 8.92765 0.69610   3
  -3   5   0 9.48127 0.72574   3
   4  -5   0 9.16207 0.72327   2
  -4  -5   0 8.98009 0.75184   3
   4  -5   0 8.20536 0.68600   3
  -4   5   0 9.90777 0.75655   2
  -4   5   0 8.90641 0.73082   3
   4   5   0 7.64719 0.62727   3
  -5  -5   0 24.0640 1.55135   3
   5   5   0 22.2717 1.43579   3
  -5   5   0 22.3362 1.46435   3
  -6  -5   0 10.6268 0.84098   3
   6  -5   0 11.6262 0.88618   3
   6   5   0 11.1609 0.85326   3
  -6   5   0 10.8685 0.83837   3
  -7  -5   0 24.7127 1.60545   3
   7  -5   0 21.9189 1.40660   2
   7  -5   0 22.7471 1.51528   3
  -7   5   0 22.7521 1.48960   3
   7   5   0 22.0310 1.46172   3
  -8  -5   0 17.6554 1.24128   3
   8  -5   0 17.6211 1.24753   3
   8   5   0 16.5192 1.14048   3
  -8   5   0 17.0154 1.20922   3
  -8   5   0 17.0321 1.19946   2
   9  -5   0 15.8815 1.16755   3
  -9  -5   0 11.3947 0.89684   3
  -9   5   0 16.1884 1.17609   2
  -9   5   0 14.8750 1.09377   3
  10  -5   0 0.08933 0.61420   3
 -10  -5   0 -1.2552 0.55721   3
  10  -5   0 -0.1512 0.57235   2
  10   5   0 -0.3663 0.65477   3
 -10   5   0 0.04323 0.57269   2
 -11  -5   0 -0.5300 0.58306   3
  11  -5   0 0.71512 0.57421   2
  11   5   0 0.89851 0.63365   3
 -11   5   0 -0.7238 0.65698   2
 -11   5   0 -0.3277 0.67291   3
 -12  -5   0 1.19742 0.63428   3
  12  -5   0 -0.5828 0.64114   3
  12  -5   0 -0.7468 0.54965   2
 -12   5   0 -0.2852 0.58679   2
 -12   5   0 0.28330 0.70125   3
  12   5   0 -0.3685 0.60805   3
  13  -5   0 0.68753 0.60511   3
  13  -5   0 0.68454 0.54965   2
 -13   5   0 -1.1966 0.57442   2
 -13   5   0 0.60729 0.61466   3
  14  -5   0 0.68412 0.54931   2
 -14   5   0 -0.9285 0.60172   2
 -14   5   0 -0.0941 0.77652   3
  15  -5   0 3.76560 0.64102   2
  15  -5   0 5.09510 0.82757   3
 -15   5   0 3.29272 0.74915   2
 -15   5   0 3.69497 0.81858   3
  16  -5   0 3.61485 0.68600   2
  16  -5   0 1.94748 0.74171   3
 -16   5   0 2.75471 0.64434   2
 -16   5   0 2.90821 0.82117   3
   0  -6   0 58.1019 3.55677   3
   0   6   0 55.2298 3.39071   3
   1  -6   0 2.08934 0.43247   3
  -1  -6   0 1.93415 0.47543   3
   1   6   0 2.32582 0.43030   3
  -2  -6   0 9.39327 0.78864   3
   2   6   0 8.06576 0.69578   3
  -2   6   0 9.82116 0.80014   3
   3  -6   0 29.1425 1.87908   3
  -3  -6   0 28.4519 1.84011   3
  -3   6   0 29.3068 1.85472   3
   3   6   0 29.1916 1.85826   3
  -4  -6   0 0.65851 0.49077   3
   4  -6   0 0.19841 0.53358   3
   4   6   0 0.65746 0.46665   3
  -4   6   0 0.63660 0.48301   3
   5  -6   0 3.76019 0.56434   3
  -5  -6   0 3.96036 0.60926   3
  -5   6   0 5.41531 0.59599   3
   5   6   0 5.59763 0.64844   3
  -6  -6   0 -0.3519 0.54658   3
   6  -6   0 -0.0428 0.51752   3
   6   6   0 0.20235 0.53427   3
  -6   6   0 0.63548 0.51269   3
   7  -6   0 6.99189 0.77414   3
   7  -6   0 4.37460 0.60508   2
   7   6   0 5.55861 0.68996   3
  -7   6   0 5.47661 0.70358   3
   8  -6   0 10.2401 0.92949   3
  -8  -6   0 9.26295 0.90245   3
   8  -6   0 8.94541 0.80114   2
  -8   6   0 9.80798 0.91179   3
  -8   6   0 9.34058 0.90999   2
   9  -6   0 11.5488 0.97619   2
   9  -6   0 10.6479 0.93998   3
   9   6   0 13.2696 1.07284   3
  -9   6   0 10.6101 0.91733   3
  -9   6   0 11.1672 1.02901   2
 -10  -6   0 14.1315 1.14807   3
  10  -6   0 14.3893 1.15811   2
  10  -6   0 12.2058 1.03402   3
 -10   6   0 12.5798 1.03965   3
 -10   6   0 14.5097 1.18773   2
  10   6   0 12.8917 1.11814   3
  11  -6   0 12.5709 1.00476   2
  11  -6   0 12.5644 1.09286   3
 -11   6   0 13.3864 1.08401   2
 -12   6   0 3.36730 0.69282   2
 -12   6   0 2.32640 0.81096   3
  13  -6   0 1.34327 0.71343   3
 -13   6   0 1.15342 0.68735   3
  14  -6   0 1.14031 0.66567   3
 -14   6   0 0.94727 0.65135   3
   0  -7   0 -0.1711 0.51758   3
   0   7   0 0.17204 0.49685   3
   1  -7   0 0.38688 0.54386   3
  -1  -7   0 0.64260 0.50171   3
   1   7   0 0.29720 0.49045   3
  -1   7   0 0.57738 0.42347   3
  -2  -7   0 10.6545 0.86817   3
   2  -7   0 10.1585 0.82953   3
   2   7   0 10.2560 0.83747   3
  -3  -7   0 52.9489 3.26053   3
  -3   7   0 51.7477 3.18554   3
   3   7   0 52.1178 3.21007   3
  -4  -7   0 14.1890 1.06301   3
   4  -7   0 14.7532 1.09276   3
   4   7   0 15.3513 1.13481   3
  -4   7   0 14.3384 1.03907   3
   5  -7   0 12.9867 0.99524   3
  -5  -7   0 14.4097 1.09277   3
  -5   7   0 14.1179 1.04271   3
   5   7   0 12.5721 0.96233   3
   6  -7   0 17.8244 1.26742   3
  -6  -7   0 16.1433 1.23203   3
  -6   7   0 19.5175 1.37151   3
  -7  -7   0 5.93804 0.79645   3
   7  -7   0 6.22779 0.70917   3
   7   7   0 7.10991 0.72421   3
  -7   7   0 7.48272 0.77875   3
   8  -7   0 12.2821 0.99484   3
   8   7   0 12.2001 1.02032   3
  -8   7   0 12.4373 1.01710   3
   9  -7   0 6.28796 0.77431   3
  -9   7   0 6.02466 0.72602   3
  10  -7   0 0.19956 0.63423   3
 -10   7   0 0.31632 0.62142   3
  11  -7   0 -0.0225 0.71827   3
 -11   7   0 0.89055 0.74078   3
   0  -8   0 6.08828 0.70533   3
   0   8   0 5.06450 0.66134   3
   1  -8   0 4.30775 0.61625   3
  -1  -8   0 4.32868 0.63985   3
   1   8   0 4.09067 0.63967   3
  -1   8   0 3.18179 0.53128   3
  -2  -8   0 1.99181 0.59550   3
   2  -8   0 1.79434 0.50560   3
   2   8   0 2.67574 0.63084   3
  -2   8   0 1.85863 0.51712   3
   3  -8   0 -0.4430 0.58025   3
  -3   8   0 -0.9169 0.57315   3
   3   8   0 1.03840 0.59500   3
   4  -8   0 5.91126 0.69709   3
  -5   8   0 8.40499 0.90261   3
   6  -8   0 1.73038 0.61109   3
  -6   8   0 1.94268 0.63416   3
  21   0  -1 -0.4765 0.73201   2
  20   0  -1 -0.1824 0.70931   2
 -20   0   1 0.17897 0.79895   2
 -19   0   1 -0.2393 0.75189   2
  19   0  -1 -0.2910 0.69622   2
  18   0  -1 0.30141 0.69449   2
 -18   0   1 -1.8738 1.00288   3
 -16   0   1 -0.7294 0.70904   2
 -16   0   1 -1.0288 0.77296   3
  16   0  -1 -0.2935 0.59828   2
 -15   0   1 -0.9315 0.83088   3
  15   0  -1 0.60906 0.78173   3
  15   0  -1 0.29576 0.55042   2
 -15   0   1 -0.0232 0.72209   2
 -14   0   1 -0.6637 0.78638   3
  14   0  -1 -0.1997 0.71400   3
 -14   0   1 -0.3467 0.55914   2
  13   0  -1 -0.4054 0.66900   3
 -13   0   1 0.23134 0.55969   2
  12   0  -1 0.37464 0.45858   2
 -12   0   1 -1.7262 0.66181   3
  12   0  -1 -0.1551 0.68260   3
  11   0  -1 0.21810 0.10377   1
  11   0  -1 -0.3932 0.60564   3
 -11   0   1 0.22826 0.08354   1
 -11   0   1 0.89741 0.62058   3
  11   0  -1 0.00000 0.43692   2
  10   0  -1 0.02337 0.43070   2
  10   0  -1 -0.1338 0.55956   3
 -10   0   1 0.23657 0.54945   3
   9   0  -1 -0.1644 0.40580   2
  -9   0   1 -0.0978 0.08720   1
   9   0  -1 -0.2957 0.50274   3
  -9   0   1 -0.2583 0.12515   1
  -9   0   1 -0.1175 0.37908   2
   9   0  -1 0.04161 0.10889   1
  -9   0   1 -0.0512 0.47874   3
  -8   0   1 -0.2851 0.48469   3
   8   0  -1 0.37761 0.38066   2
  -8   0   1 0.69042 0.41142   2
  -8   0   1 0.22587 0.09300   1
   8   0  -1 -0.1874 0.53001   3
  -7   0   1 -0.1021 0.11040   1
  -7   0   1 -0.4650 0.39789   3
   7   0  -1 0.23654 0.35426   2
  -7   0   1 -0.1661 0.38276   2
  -7   0   1 0.16240 0.09150   1
   6   0  -1 0.21243 0.35351   2
  -6   0   1 0.30585 0.32526   2
   6   0  -1 -0.3323 0.36557   3
  -5   0   1 1.02950 0.37738   2
   5   0  -1 0.58830 0.09130   1
   5   0  -1 -0.3909 0.36857   3
   3   0  -1 0.00000 0.06255   1
  -3   0   1 0.31048 0.28465   3
  -3   0   1 0.20544 0.07127   1
   3   0  -1 -0.1421 0.31272   3
   2   0  -1 0.35481 0.19076   2
  -2   0   1 -0.1543 0.19799   3
   2   0  -1 0.60300 0.25272   3
  -2   0   1 0.12977 0.05513   1
  -2   0   1 0.09565 0.19285   2
   1   0  -1 2.14082 0.20513   1
  -1   0   1 1.62314 0.15928   1
   1   0  -1 2.30203 0.18394   2
  -1   0   1 2.01829 0.15517   2
   0   0   1 0.44155 0.05052   1
   0   0   1 0.56516 0.06022   1
   0   0   1 0.35232 0.05170   3
   0   0  -1 0.18552 0.07126   2
   0   0  -1 0.45181 0.04978   1
   0   0   1 0.28083 0.07468   2
   1   0   1 0.33521 0.10537   3
  -1   0  -1 0.12832 0.11294   3
   1   0   1 0.29651 0.14233   2
   1   0   1 0.14388 0.07915   3
  -1   0  -1 0.27841 0.07658   3
  -1   0  -1 0.31003 0.13738   2
   2   0   1 0.46435 0.19710   2
  -2   0  -1 0.30613 0.18371   3
   2   0   1 0.45476 0.20601   3
  -2   0  -1 0.21659 0.22181   2
  -3   0  -1 -0.2568 0.24207   2
  -3   0  -1 -0.0338 0.07040   1
  -3   0  -1 0.20483 0.06091   1
   3   0   1 0.00850 0.06066   1
   3   0   1 -0.6353 0.24311   3
   3   0   1 0.14269 0.19178   2
   4   0   1 0.35547 0.21841   2
  -4   0  -1 -0.3158 0.27983   2
  -4   0  -1 -0.1697 0.08072   1
  -4   0  -1 0.11909 0.06071   1
  -4   0  -1 -0.0255 0.25264   3
   4   0   1 -0.0505 0.07003   1
   5   0   1 -0.1932 0.25040   2
  -5   0  -1 0.00000 0.27861   2
  -5   0  -1 -0.1824 0.31528   3
  -5   0  -1 0.19557 0.07080   1
   5   0   1 0.42517 0.37420   3
   6   0   1 -0.5270 0.31678   2
  -6   0  -1 0.29512 0.33999   2
   6   0   1 0.16876 0.37132   3
  -6   0  -1 0.73482 0.33452   3
   6   0   1 0.49127 0.09068   1
  -6   0  -1 0.23653 0.09379   1
  -6   0  -1 0.40865 0.09114   1
   6   0   1 0.06853 0.08153   1
   7   0   1 0.69496 0.42815   3
   7   0   1 0.25299 0.31796   2
  -7   0  -1 0.17931 0.39453   3
   8   0   1 0.32152 0.09059   1
  -8   0  -1 0.51330 0.11384   1
   8   0   1 0.59200 0.11392   1
  -8   0  -1 0.67111 0.42596   3
   8   0   1 -0.0228 0.36831   2
   8   0   1 0.48731 0.47655   3
   9   0   1 -0.7840 0.50564   3
  -9   0  -1 0.19245 0.10901   1
   9   0   1 0.23159 0.45357   2
  -9   0  -1 -0.0258 0.48332   3
  -9   0  -1 0.60202 0.50684   2
 -10   0  -1 -0.3480 0.42763   2
  10   0   1 -0.3774 0.59319   3
 -10   0  -1 0.18503 0.58160   3
  10   0   1 0.57603 0.12157   1
  11   0   1 -0.4499 0.58231   3
 -11   0  -1 -0.2080 0.54352   3
 -11   0  -1 0.58591 0.51300   2
  11   0   1 0.32547 0.10464   1
  12   0   1 -0.4668 0.68473   3
  12   0   1 -0.2328 0.48283   2
 -12   0  -1 0.21200 0.51561   2
 -12   0  -1 -0.6044 0.69380   3
  13   0   1 0.13913 0.50756   2
  13   0   1 0.48060 0.80702   3
 -14   0  -1 -0.1195 0.63352   2
  14   0   1 -0.4447 0.53932   2
 -14   0  -1 -0.3810 0.78241   3
 -15   0  -1 0.60057 0.63868   2
  15   0   1 0.45679 0.92132   3
 -15   0  -1 -0.7517 0.79939   3
  15   0   1 0.09073 0.60105   2
  16   0   1 -0.4069 0.59903   2
 -16   0  -1 0.57585 0.71648   2
  16   0   1 -0.7420 0.87071   3
 -16   0  -1 -1.6135 0.77660   3
 -17   0  -1 1.04270 0.85423   2
  17   0   1 1.26368 0.70193   2
  18   0   1 0.81104 0.70078   2
 -18   0  -1 -0.2889 0.92154   2
  19   0   1 -0.3265 0.69863   2
 -19   0  -1 0.20545 0.76267   2
 -20   0  -1 0.39375 0.78125   2
  20   0   1 0.04478 0.69640   2
  21  -1  -1 9.32979 0.90276   2
 -21   1   1 9.41489 1.02621   2
  20   1  -1 18.8019 1.41731   2
 -20   1   1 21.0220 1.52658   2
  19  -1  -1 52.7776 3.40157   3
 -19  -1   1 51.1068 3.20272   2
 -19   1   1 54.9628 3.53817   3
 -19   1   1 56.7783 3.45062   2
  19   1  -1 52.7862 3.24785   2
  18  -1  -1 29.1546 2.06890   3
 -18  -1   1 25.0952 1.83550   3
 -18  -1   1 27.5551 1.86528   2
  18  -1  -1 27.0509 1.75976   2
  18   1  -1 26.1307 1.77645   2
 -17  -1   1 9.78527 1.08867   3
  17  -1  -1 13.4703 1.08699   2
 -17  -1   1 10.3154 1.07628   2
 -17   1   1 10.2938 1.06327   3
  17   1  -1 11.6548 1.03956   2
  17   1  -1 9.68719 1.23346   3
  16  -1  -1 33.1061 2.09569   2
  16  -1  -1 32.5673 2.16590   3
 -16  -1   1 33.9272 2.25364   3
 -16  -1   1 29.0732 1.91570   2
 -16   1   1 31.8449 2.05601   2
  16   1  -1 27.3285 1.77463   2
  16   1  -1 35.1974 2.38977   3
  15  -1  -1 13.1845 0.99432   2
  15  -1  -1 15.3038 1.30488   3
 -15  -1   1 14.2063 1.18779   3
 -15   1   1 14.5181 1.23606   3
 -15   1   1 14.4364 1.08299   2
  15   1  -1 18.2737 1.36336   2
  14  -1  -1 1.21915 0.50352   2
 -14  -1   1 1.33979 0.69187   3
  14  -1  -1 0.35972 0.76323   3
 -14  -1   1 -0.5161 0.62039   2
  14   1  -1 -0.1829 0.80499   3
  14   1  -1 0.99774 0.57473   2
 -14   1   1 1.09227 0.57675   2
 -14   1   1 0.04967 0.71045   3
 -13  -1   1 41.1330 2.59530   3
  13  -1  -1 42.0207 2.53953   2
 -13  -1   1 40.3637 2.46309   2
  13  -1  -1 42.0831 2.70179   3
  13   1  -1 42.7317 2.59941   2
  13   1  -1 39.1445 2.53573   3
 -13   1   1 42.0278 2.56533   2
 -13   1   1 43.6285 2.75658   3
 -12  -1   1 148.924 8.98936   3
  12  -1  -1 155.205 9.37035   3
  12  -1  -1 158.704 9.22968   2
 -12  -1   1 146.677 8.56258   2
 -12   1   1 152.076 8.86573   2
  12   1  -1 155.569 9.05233   2
  12   1  -1 148.016 8.92715   3
 -12   1   1 155.602 9.36269   3
  11  -1  -1 150.983 9.08942   3
 -11  -1   1 134.032 12.4819   1
  11  -1  -1 149.569 8.69248   2
 -11  -1   1 137.869 8.31935   3
 -11  -1   1 148.397 13.8224   1
  11  -1  -1 125.316 11.6769   1
 -11  -1   1 143.505 8.36594   2
  11  -1  -1 141.428 13.1700   1
  11   1  -1 143.470 8.66113   3
 -11   1   1 140.855 13.1224   1
  11   1  -1 140.488 13.0833   1
  11   1  -1 145.899 8.49598   2
 -11   1   1 148.262 8.93117   3
  11   1  -1 138.709 12.9162   1
 -11   1   1 128.296 11.9488   1
 -11   1   1 142.956 8.31877   2
  10  -1  -1 279.454 26.0242   1
 -10  -1   1 256.640 15.3877   3
  10  -1  -1 261.538 15.1549   2
  10  -1  -1 258.910 24.1073   1
  10  -1  -1 291.629 17.4827   3
 -10  -1   1 267.765 24.9448   1
 -10  -1   1 258.106 24.0345   1
 -10  -1   1 281.138 16.2907   2
 -10   1   1 261.016 24.3213   1
 -10   1   1 265.745 15.4125   2
  10   1  -1 262.919 15.7639   3
 -10   1   1 271.861 16.3059   3
 -10   1   1 284.214 26.4549   1
  10   1  -1 265.401 24.7125   1
  10   1  -1 277.888 16.0918   2
  10   1  -1 275.335 25.6351   1
   9  -1  -1 630.666 36.4386   2
  -9  -1   1 594.378 35.5434   3
  -9  -1   1 637.954 36.8748   2
  -9  -1   1 620.216 57.7646   1
   9  -1  -1 639.491 59.5479   1
   9  -1  -1 597.407 55.6359   1
  -9  -1   1 605.920 56.4157   1
  -9   1   1 618.108 57.5657   1
  -9   1   1 636.765 36.7886   2
   9   1  -1 627.400 58.4403   1
  -9   1   1 645.388 38.5927   3
   9   1  -1 626.397 58.3372   1
   9   1  -1 628.202 36.2874   2
   9   1  -1 611.250 36.5747   3
  -9   1   1 691.357 64.3590   1
   8  -1  -1 526.550 49.0250   1
   8  -1  -1 472.475 27.3174   2
   8  -1  -1 456.930 42.5647   1
  -8  -1   1 473.430 44.0899   1
  -8  -1   1 488.764 28.2410   2
  -8  -1   1 472.639 28.2802   3
  -8  -1   1 486.064 45.2626   1
   8   1  -1 501.973 29.0203   2
   8   1  -1 498.834 46.4465   1
   8   1  -1 486.306 45.2786   1
   8   1  -1 481.205 28.7921   3
  -8   1   1 481.782 28.8236   3
  -8   1   1 511.539 47.6360   1
  -8   1   1 491.683 28.4074   2
  -8   1   1 485.250 45.1788   1
   7  -1  -1 370.757 21.4281   2
   7  -1  -1 319.833 19.1534   3
  -7  -1   1 433.841 40.3731   1
  -7  -1   1 379.426 22.7082   3
  -7  -1   1 379.074 21.9213   2
   7  -1  -1 391.531 36.4479   1
   7  -1  -1 380.925 35.4541   1
  -7  -1   1 394.083 36.6869   1
   7   1  -1 408.418 38.0206   1
  -7   1   1 360.646 20.8503   2
  -7   1   1 359.096 33.4364   1
  -7   1   1 389.106 36.2351   1
   7   1  -1 392.815 36.5591   1
   7   1  -1 390.814 23.3742   3
   6  -1  -1 456.564 42.5115   1
   6  -1  -1 475.373 44.2755   1
  -6  -1   1 434.621 40.4858   1
  -6  -1   1 426.214 24.6327   2
  -6  -1   1 448.897 41.8080   1
   6  -1  -1 446.024 25.7703   2
  -6  -1   1 446.959 26.7067   3
   6  -1  -1 419.615 25.0866   3
  -6   1   1 460.510 26.6229   2
  -6   1   1 461.517 42.9585   1
  -6   1   1 419.592 25.0884   3
  -6   1   1 482.900 44.9663   1
   5  -1  -1 22.7723 2.12532   1
  -5  -1   1 24.1539 2.25560   1
  -5  -1   1 21.1451 1.29008   2
   5  -1  -1 22.2738 1.40930   3
   5  -1  -1 21.2839 1.27870   2
   5  -1  -1 24.6184 2.29641   1
  -5  -1   1 22.2923 2.08181   1
  -5   1   1 20.6380 1.26107   2
  -5   1   1 24.6512 2.30031   1
   5   1  -1 22.0390 1.36788   3
  -5   1   1 23.8459 2.22181   1
   5   1  -1 25.7649 2.40266   1
  -5   1   1 21.6489 1.35249   3
   5   1  -1 22.7930 2.13001   1
  -4  -1   1 9.41188 0.63093   3
   4  -1  -1 10.7491 1.00731   1
   4  -1  -1 8.78789 0.61154   3
   4  -1  -1 9.20239 0.60832   2
   4  -1  -1 10.2471 0.95656   1
   4   1  -1 9.86172 0.92611   1
  -4   1   1 9.58836 0.64907   2
   4   1  -1 10.1588 0.95283   1
  -4   1   1 10.0175 0.93711   1
  -4   1   1 10.0006 0.93863   1
  -4   1   1 8.93456 0.60866   3
   4   1  -1 9.50854 0.64794   3
   4   1  -1 9.25876 0.60575   2
   3  -1  -1 586.954 33.8907   2
   3  -1  -1 637.292 38.0771   3
   3  -1  -1 772.341 71.8863   1
   3  -1  -1 647.133 60.2552   1
  -3  -1   1 763.258 45.5894   3
  -3   1   1 574.332 33.1817   2
   3   1  -1 639.145 59.5021   1
  -3   1   1 636.333 38.0353   3
  -3   1   1 714.587 66.5400   1
   3   1  -1 659.684 39.4229   3
   3   1  -1 707.032 65.8383   1
   3   1  -1 670.875 38.7324   2
  -3   1   1 695.484 64.7630   1
  -2  -1   1 143.763 13.3845   1
   2  -1  -1 129.372 7.74640   3
   2  -1  -1 159.863 14.8853   1
  -2  -1   1 158.696 9.18543   2
  -2  -1   1 144.792 13.4811   1
  -2  -1   1 127.217 7.61451   3
   2  -1  -1 117.277 6.78282   2
   2  -1  -1 140.736 13.1013   1
   2   1  -1 111.524 6.44247   2
   2   1  -1 129.784 7.77372   3
  -2   1   1 130.984 7.82870   3
  -2   1   1 129.074 12.0172   1
   2   1  -1 148.519 13.8303   1
  -2   1   1 152.581 14.2047   1
   2   1  -1 143.508 13.3630   1
  -2   1   1 125.315 7.25555   2
   1  -1  -1 2244.75 134.095   3
  -1  -1   1 2367.97 141.370   3
  -1  -1   1 2234.45 208.073   1
   1  -1  -1 2705.47 251.732   1
   1  -1  -1 1945.35 181.190   1
   1   1  -1 2384.74 142.366   3
   1   1  -1 2378.95 137.213   2
  -1   1   1 2309.32 137.929   3
  -1   1   1 1873.67 174.516   1
  -1   1   1 2412.58 224.705   1
  -1   1   1 2009.64 116.076   2
   1   1  -1 2296.26 213.813   1
   0  -1   1 107.875 6.25076   2
   0  -1   1 110.620 10.2997   1
   0  -1   1 108.000 6.45626   3
   0  -1  -1 101.929 6.08989   3
   0   1   1 96.2125 5.74850   3
   0   1  -1 119.023 11.0844   1
   0   1  -1 92.1328 5.34253   2
   0   1  -1 98.9140 5.92013   3
   1  -1   1 302.560 28.1666   1
   1  -1   1 278.145 16.0759   2
   1  -1   1 349.619 32.5358   1
   1  -1   1 272.543 16.2836   3
  -1  -1  -1 260.280 15.5584   3
  -1  -1  -1 260.092 15.0381   2
   1   1   1 341.254 31.7628   1
  -1   1  -1 281.356 16.8060   3
  -1   1  -1 340.449 31.6885   1
  -1   1  -1 312.286 29.0738   1
  -1   1  -1 270.971 15.6698   2
   1   1   1 216.848 12.9615   3
  -2  -1  -1 2070.24 119.597   2
  -2  -1  -1 2888.77 269.055   1
   2  -1   1 2448.19 228.007   1
   2  -1   1 2410.09 143.956   3
   2  -1   1 2395.96 223.134   1
   2  -1   1 2257.63 130.313   2
  -2  -1  -1 2117.99 197.277   1
   2   1   1 2587.90 154.515   3
   2   1   1 3448.52 321.150   1
  -2   1  -1 2490.75 231.854   1
  -2   1  -1 2510.28 233.744   1
  -2   1  -1 2241.85 129.469   2
  -2   1  -1 2452.95 146.478   3
  -3  -1  -1 1481.13 137.878   1
   3  -1   1 1106.71 66.1196   3
   3  -1   1 1158.86 66.8833   2
  -3  -1  -1 1114.84 103.821   1
  -3  -1  -1 1027.83 59.3727   2
   3  -1   1 1213.13 112.934   1
   3  -1   1 1505.20 140.113   1
  -3  -1  -1 1237.53 73.9179   3
  -3   1  -1 1151.47 107.204   1
   3   1   1 1017.68 58.7653   2
  -3   1  -1 1170.23 69.8726   3
  -3   1  -1 1473.38 137.150   1
  -3   1  -1 1061.55 61.2795   2
   4  -1   1 1029.30 95.8274   1
  -4  -1  -1 911.248 54.4425   3
   4  -1   1 955.242 88.9550   1
  -4  -1  -1 1018.95 94.8627   1
   4  -1   1 953.134 56.9510   3
  -4  -1  -1 929.859 86.5846   1
   4  -1   1 891.597 51.5104   2
  -4   1  -1 952.888 88.7306   1
   4   1   1 956.565 55.2000   2
   4   1   1 978.250 91.0899   1
  -4   1  -1 1035.40 96.3987   1
   4   1   1 947.530 56.5836   3
  -4   1  -1 910.391 52.5746   2
   4   1   1 1092.70 101.736   1
  -5  -1  -1 755.551 45.1257   3
  -5  -1  -1 660.176 61.4687   1
   5  -1   1 659.769 61.4460   1
  -5  -1  -1 558.955 32.2855   2
  -5  -1  -1 641.324 59.7153   1
   5  -1   1 659.498 61.4049   1
   5  -1   1 683.287 39.4550   2
   5   1   1 597.801 34.5410   2
   5   1   1 620.504 57.7905   1
   5   1   1 739.083 44.1392   3
   5   1   1 709.372 66.0495   1
  -5   1  -1 610.095 35.2476   2
  -5   1  -1 636.955 59.3299   1
  -5   1  -1 638.171 59.4245   1
  -5   1  -1 649.681 38.8206   3
   6  -1   1 27.3611 2.55355   1
  -6  -1  -1 29.8594 2.78766   1
  -6  -1  -1 33.6136 3.12759   1
  -6  -1  -1 27.0785 1.64206   2
   6  -1   1 33.3155 3.10590   1
   6  -1   1 27.4826 1.65945   2
   6  -1   1 26.5781 1.66860   3
  -6  -1  -1 27.9223 1.74007   3
   6   1   1 29.7214 1.83814   3
   6   1   1 28.9062 2.69818   1
   6   1   1 29.0567 1.72874   2
  -6   1  -1 33.0944 3.08706   1
  -6   1  -1 28.1971 2.63050   1
   6   1   1 30.6717 2.85599   1
  -6   1  -1 27.2815 1.69977   3
  -6   1  -1 25.9136 1.59003   2
  -7  -1  -1 35.3247 2.10943   2
   7  -1   1 38.1638 3.55767   1
   7  -1   1 34.9921 2.10562   2
   7  -1   1 36.0560 3.35715   1
  -7  -1  -1 35.0254 2.15658   3
  -7  -1  -1 44.1520 4.11544   1
   7   1   1 37.4763 2.21439   2
   7   1   1 40.8542 3.80272   1
  -7   1  -1 37.4724 2.26029   2
  -7   1  -1 36.5354 3.40683   1
   7   1   1 38.8500 3.62149   1
   7   1   1 35.8237 2.21011   3
  -7   1  -1 33.6070 2.08699   3
  -7   1  -1 37.9316 3.53399   1
   8  -1   1 5.58515 0.51405   2
  -8  -1  -1 6.05546 0.57350   1
  -8  -1  -1 6.20159 0.55857   3
  -8  -1  -1 5.42511 0.57854   2
   8  -1   1 5.06528 0.48197   1
  -8  -1  -1 6.95336 0.66107   1
   8  -1   1 5.63947 0.53372   1
   8   1   1 5.56622 0.60662   3
   8   1   1 5.89083 0.55525   1
   8   1   1 4.93464 0.47441   1
  -8   1  -1 6.01002 0.57780   3
  -8   1  -1 6.27096 0.59784   2
  -8   1  -1 5.25222 0.49523   1
   8   1   1 5.61231 0.51439   2
  -8   1  -1 4.62833 0.44166   1
  -9  -1  -1 83.6470 7.79393   1
  -9  -1  -1 83.8527 7.81110   1
   9  -1   1 86.4527 5.22802   3
   9  -1   1 88.4303 8.23392   1
  -9  -1  -1 83.1472 4.85817   2
   9  -1   1 84.1877 4.93132   2
   9  -1   1 83.5370 7.78597   1
  -9  -1  -1 79.1855 4.79233   3
  -9   1  -1 92.1082 5.39509   2
  -9   1  -1 82.8803 5.01380   3
  -9   1  -1 85.6736 7.97638   1
  -9   1  -1 94.5021 8.80395   1
   9   1   1 88.2271 5.16136   2
   9   1   1 84.4196 7.86240   1
   9   1   1 85.2056 5.16958   3
   9   1   1 86.3720 8.04507   1
  10  -1   1 113.289 10.5475   1
 -10  -1  -1 125.374 11.6768   1
  10  -1   1 113.495 10.5690   1
  10  -1   1 126.429 7.36081   2
 -10  -1  -1 111.757 6.75348   3
 -10  -1  -1 114.866 10.6990   1
  10  -1   1 120.811 7.32338   3
  10   1   1 123.362 7.20221   2
 -10   1  -1 108.553 10.1110   1
  10   1   1 109.920 10.2439   1
 -10   1  -1 129.892 7.57659   2
 -10   1  -1 109.211 6.59568   3
 -10   1  -1 115.016 10.7132   1
  10   1   1 115.339 6.95117   3
 -11  -1  -1 125.577 11.7008   1
  11  -1   1 136.691 7.94315   2
 -11  -1  -1 144.662 8.42165   2
  11  -1   1 122.688 11.4286   1
  11  -1   1 139.200 8.38941   3
 -11  -1  -1 131.707 7.93240   3
 -11   1  -1 126.490 7.37396   2
  11   1   1 131.819 7.68979   2
 -11   1  -1 131.507 12.2487   1
  11   1   1 115.081 10.7196   1
 -11   1  -1 143.135 8.62950   3
  11   1   1 136.841 8.24727   3
  11   1   1 115.735 10.7806   1
  12  -1   1 172.233 10.3852   3
  12  -1   1 166.223 9.65305   2
  12   1   1 163.077 9.82441   3
  12   1   1 160.574 9.35565   2
 -12   1  -1 158.337 9.21502   2
 -12   1  -1 175.079 10.5341   3
  13  -1   1 117.372 6.87452   2
  13  -1   1 119.935 7.26913   3
 -13  -1  -1 120.144 7.27790   3
 -13  -1  -1 122.855 7.20296   2
  13   1   1 114.537 6.70304   2
 -13   1  -1 119.398 7.23858   3
 -13   1  -1 112.559 6.57734   2
 -14  -1  -1 102.528 6.24768   3
 -14  -1  -1 131.889 7.75612   2
  14  -1   1 97.6398 5.74038   2
  14  -1   1 110.256 6.71017   3
  14   1   1 107.337 6.56832   3
  14   1   1 103.981 6.10390   2
  15  -1   1 94.0803 5.54106   2
 -15  -1  -1 98.2804 6.01342   3
 -15  -1  -1 98.5306 5.83531   2
 -15   1  -1 98.0177 5.98664   3
  15   1   1 98.2212 6.03776   3
  15   1   1 95.8895 5.64393   2
  16  -1   1 53.7430 3.43721   3
 -16  -1  -1 53.7164 3.28340   2
 -16   1  -1 52.5700 3.18351   2
 -16   1  -1 52.6056 3.34795   3
  16   1   1 55.1360 3.34023   2
  17  -1   1 11.3437 1.14034   3
 -17   1  -1 11.6068 1.24726   3
 -17   1  -1 13.5863 1.10737   2
  17   1   1 14.2058 1.20272   2
  18  -1   1 2.89398 0.69790   2
 -18   1  -1 3.48145 0.80223   2
  18   1   1 2.31153 0.80156   2
 -19  -1  -1 1.69024 0.85680   2
  19  -1   1 0.53796 0.67143   2
 -19   1  -1 1.48135 0.78768   2
  19   1   1 0.70307 0.80999   2
  20  -1   1 2.99983 0.74246   2
 -20   1  -1 2.51649 0.83929   2
  20  -2  -1 0.10920 0.60386   2
 -20   2   1 0.55574 0.71707   2
  19  -2  -1 2.35580 0.96506   3
  19  -2  -1 3.47973 0.65561   2
  19   2  -1 1.86012 0.83046   2
 -19   2   1 2.83367 0.73969   2
  18  -2  -1 19.4497 1.34506   2
 -18   2   1 18.5407 1.31416   2
  18   2  -1 17.3858 1.37566   2
 -18   2   1 20.0550 1.58125   3
 -17  -2   1 57.0293 3.63215   3
  17  -2  -1 47.7734 2.90747   2
  17  -2  -1 50.9261 3.28036   3
  17   2  -1 49.8145 3.26573   3
  17   2  -1 47.2507 2.95679   2
 -17   2   1 46.1888 2.82266   2
  16  -2  -1 148.550 9.01884   3
 -16  -2   1 114.937 6.96520   3
  16  -2  -1 142.279 8.30439   2
  16   2  -1 141.974 8.62065   3
 -16   2   1 146.775 8.89151   3
 -16   2   1 144.361 8.45477   2
  15  -2  -1 147.926 8.96436   3
 -15  -2   1 123.250 7.45302   3
  15  -2  -1 155.090 9.04301   2
 -15   2   1 147.163 8.87925   3
  15   2  -1 136.025 8.22287   3
 -15   2   1 153.609 8.96494   2
  15   2  -1 152.252 8.90625   2
 -14  -2   1 85.7490 5.08071   2
 -14  -2   1 76.2281 4.66397   3
  14  -2  -1 94.1344 5.77283   3
  14  -2  -1 88.5007 5.19689   2
 -14   2   1 85.5700 5.04371   2
  14   2  -1 89.0111 5.24696   2
 -14   2   1 90.8158 5.55010   3
 -13  -2   1 171.838 10.0177   2
  13  -2  -1 174.561 10.1438   2
  13  -2  -1 206.520 12.4157   3
 -13   2   1 178.159 10.3791   2
 -13   2   1 183.961 11.0755   3
  13   2  -1 180.607 10.5192   2
  13   2  -1 163.481 9.84730   3
 -12  -2   1 157.974 9.50994   3
  12  -2  -1 177.815 10.3390   2
 -12  -2   1 183.419 10.6837   2
  12  -2  -1 180.247 10.8624   3
 -12   2   1 185.504 10.7682   2
  12   2  -1 187.776 10.9250   2
 -12   2   1 187.427 11.2609   3
  12   2  -1 166.889 10.0415   3
 -11  -2   1 88.5909 5.37306   3
 -11  -2   1 100.152 5.86824   2
  11  -2  -1 94.9091 5.55776   2
 -11   2   1 95.1717 5.58685   2
 -11   2   1 108.468 6.55515   3
  11   2  -1 97.3742 9.06735   1
  11   2  -1 102.933 6.02273   2
  11   2  -1 91.2852 5.54851   3
  10  -2  -1 70.1573 6.53732   1
 -10  -2   1 81.0289 7.54307   1
  10  -2  -1 76.4535 7.11953   1
 -10  -2   1 77.4663 4.55696   2
 -10  -2   1 70.7012 4.29001   3
  10  -2  -1 91.2225 5.34988   2
 -10  -2   1 71.0716 6.62582   1
 -10   2   1 69.8271 6.50845   1
 -10   2   1 95.3871 5.60244   2
  10   2  -1 73.3278 6.83471   1
 -10   2   1 75.7745 4.61598   3
  10   2  -1 73.9525 4.50230   3
  10   2  -1 75.4133 7.02131   1
 -10   2   1 75.0396 6.98571   1
  10   2  -1 81.7616 4.78995   2
  -9  -2   1 0.53703 0.11335   1
  -9  -2   1 0.62338 0.37149   3
   9  -2  -1 -0.5796 0.53136   3
   9  -2  -1 1.82157 0.39349   2
  -9   2   1 0.72763 0.11336   1
  -9   2   1 0.42993 0.55646   3
   9   2  -1 0.28969 0.55049   3
   9   2  -1 0.61370 0.40790   2
  -9   2   1 0.55071 0.46895   2
  -8  -2   1 85.8221 5.19392   3
  -8  -2   1 86.6726 8.07107   1
  -8  -2   1 83.6486 4.90599   2
  -8  -2   1 93.9851 8.75760   1
   8  -2  -1 82.4508 4.84006   2
   8  -2  -1 80.8014 4.89748   3
   8   2  -1 86.6246 5.23320   3
  -8   2   1 84.3382 7.85900   1
   8   2  -1 80.6561 7.50771   1
  -8   2   1 88.1568 8.21394   1
  -8   2   1 84.5291 4.94623   2
   8   2  -1 87.5743 8.15462   1
   8   2  -1 82.9817 4.84001   2
  -7  -2   1 52.5734 4.89713   1
   7  -2  -1 51.7487 3.16645   3
  -7  -2   1 54.3434 3.30316   3
  -7  -2   1 48.1119 4.48578   1
   7   2  -1 48.8654 4.55541   1
   7   2  -1 52.2288 3.18653   3
  -7   2   1 50.7160 4.72895   1
   7   2  -1 51.4684 3.04669   2
   7   2  -1 54.6293 5.08397   1
  -7   2   1 44.9782 4.19135   1
  -7   2   1 48.2977 2.86653   2
  -7   2   1 49.2733 3.01391   3
   6  -2  -1 131.045 7.86907   3
  -6  -2   1 119.621 7.17069   3
   6  -2  -1 130.001 7.54029   2
   6  -2  -1 136.441 12.7026   1
  -6  -2   1 128.818 11.9924   1
  -6  -2   1 130.642 7.60688   2
  -6  -2   1 127.417 11.8671   1
   6  -2  -1 126.535 11.7820   1
   6   2  -1 128.301 11.9534   1
   6   2  -1 131.280 12.2219   1
   6   2  -1 131.626 7.89434   3
   6   2  -1 126.276 7.32694   2
  -6   2   1 130.813 7.59844   2
  -6   2   1 125.943 7.57170   3
  -5  -2   1 2143.38 123.605   2
  -5  -2   1 1635.55 152.290   1
  -5  -2   1 1844.00 171.683   1
   5  -2  -1 1567.24 90.5005   2
   5  -2  -1 1796.80 167.286   1
  -5  -2   1 1666.48 99.5587   3
   5  -2  -1 1550.06 144.364   1
   5  -2  -1 1663.92 99.4245   3
   5   2  -1 1853.98 106.966   2
  -5   2   1 1676.46 100.202   3
   5   2  -1 2077.66 193.414   1
   5   2  -1 1685.72 156.977   1
   4  -2  -1 1968.36 113.616   2
  -4  -2   1 2353.02 219.053   1
   4  -2  -1 2103.38 195.840   1
  -4  -2   1 2135.93 198.843   1
   4  -2  -1 2009.89 120.119   3
   4  -2  -1 2011.37 187.350   1
  -4   2   1 2011.37 120.120   3
   4   2  -1 2016.98 187.815   1
   4   2  -1 2267.69 211.031   1
   4   2  -1 2018.93 120.548   3
  -4   2   1 2084.47 120.339   2
   4   2  -1 1764.82 101.953   2
   3  -2  -1 380.518 22.0017   2
  -3  -2   1 426.928 25.5297   3
  -3  -2   1 464.609 43.2580   1
   3  -2  -1 446.401 41.5496   1
   3  -2  -1 428.053 25.5872   3
   3  -2  -1 396.630 36.9356   1
  -3   2   1 444.546 41.3833   1
  -3   2   1 398.999 23.0661   2
  -3   2   1 404.483 37.6545   1
  -3   2   1 451.984 26.9975   3
   3   2  -1 474.138 44.1380   1
   3   2  -1 404.066 24.1685   3
  -2  -2   1 1206.88 112.353   1
  -2  -2   1 1131.12 105.305   1
   2  -2  -1 1251.27 116.476   1
   2  -2  -1 998.154 57.6204   2
   2  -2  -1 1032.08 61.6645   3
  -2  -2   1 990.539 59.2091   3
   2   2  -1 1012.67 58.4633   2
  -2   2   1 1111.52 103.467   1
  -2   2   1 938.419 54.1985   2
   2   2  -1 1007.28 93.7946   1
   2   2  -1 1264.57 117.715   1
  -2   2   1 1061.95 63.4366   3
   2   2  -1 911.639 54.5234   3
  -2   2   1 1031.74 96.0629   1
  -1  -2   1 1096.65 102.127   1
  -1  -2   1 1193.57 68.9052   2
   1  -2  -1 1188.38 68.5789   2
   1  -2  -1 1309.57 121.930   1
   1  -2  -1 1202.48 71.8093   3
   1  -2  -1 1238.49 115.312   1
  -1  -2   1 1277.43 76.3051   3
  -1   2   1 1186.55 110.474   1
   1   2  -1 1321.03 78.9108   3
  -1   2   1 1147.00 66.2195   2
  -1   2   1 1218.63 72.8029   3
  -1   2   1 1176.67 109.557   1
   1   2  -1 1484.27 138.169   1
   1   2  -1 1090.78 63.0181   2
   1   2  -1 1184.87 110.328   1
   0  -2  -1 354.484 20.4708   2
   0  -2   1 402.004 23.2023   2
   0  -2  -1 405.022 37.7215   1
   0  -2  -1 444.410 26.5458   3
   0  -2   1 450.810 26.9277   3
   0  -2   1 440.116 40.9641   1
   0  -2  -1 385.538 35.8942   1
   0   2  -1 336.702 31.3537   1
   0   2   1 335.665 31.2454   1
   0   2  -1 437.551 26.1350   3
   0   2   1 392.972 22.6942   2
   0   2  -1 347.860 20.1058   2
   0   2   1 457.370 27.3103   3
   1  -2   1 137.715 8.23525   3
  -1  -2  -1 150.959 8.71846   2
   1  -2   1 136.377 12.6961   1
   1   2   1 156.564 9.37200   3
   1   2   1 131.141 12.2107   1
  -1   2  -1 133.834 8.01591   3
   2  -2   1 35.4225 3.30020   1
   2  -2   1 42.4609 3.95412   1
   2  -2   1 35.4398 2.14837   3
  -2  -2  -1 36.0138 2.17198   3
   2  -2   1 34.7582 2.05448   2
  -2  -2  -1 26.4223 2.46224   1
  -2   2  -1 38.5359 2.32325   3
   2   2   1 31.2969 2.91857   1
   2   2   1 36.0608 3.35954   1
  -3  -2  -1 120.855 7.24933   3
  -3  -2  -1 145.105 13.5066   1
   3  -2   1 123.562 7.40656   3
   3   2   1 162.042 15.0823   1
  -3   2  -1 129.591 12.0712   1
  -3   2  -1 117.648 6.83781   2
  -3   2  -1 130.513 12.1532   1
  -3   2  -1 126.449 7.56981   3
   3   2   1 121.853 11.3482   1
   3   2   1 118.649 7.11091   3
  -4  -2  -1 76.2562 7.10534   1
  -4  -2  -1 73.8959 4.45100   3
   4  -2   1 69.9779 4.20805   3
  -4  -2  -1 81.2934 7.56885   1
   4   2   1 79.8972 7.44408   1
  -4   2  -1 85.2848 7.94083   1
  -4   2  -1 69.3011 6.45989   1
  -4   2  -1 66.1985 3.86362   2
   4   2   1 77.2633 7.19635   1
  -4   2  -1 68.7924 4.13747   3
   5  -2   1 322.123 18.6223   2
  -5  -2  -1 339.018 20.2667   3
   5  -2   1 330.785 19.7778   3
   5  -2   1 303.037 28.2173   1
  -5  -2  -1 403.310 37.5406   1
  -5  -2  -1 373.476 21.5610   2
  -5  -2  -1 356.658 33.2068   1
   5   2   1 331.519 19.1592   2
   5   2   1 378.486 35.2422   1
  -5   2  -1 338.511 31.5271   1
   5   2   1 337.575 20.1943   3
   5   2   1 363.614 33.8493   1
  -5   2  -1 313.345 29.1848   1
  -5   2  -1 335.125 19.3913   2
   6  -2   1 403.747 24.1389   3
   6  -2   1 388.022 22.4238   2
   6  -2   1 348.042 32.4179   1
  -6  -2  -1 421.240 39.2100   1
  -6  -2  -1 397.372 36.9946   1
  -6  -2  -1 399.212 23.8753   3
   6   2   1 446.780 26.7124   3
  -6   2  -1 358.157 33.3655   1
   6   2   1 358.773 33.4131   1
   6   2   1 395.181 22.8308   2
  -6   2  -1 369.125 34.3741   1
   6   2   1 369.241 34.3925   1
  -6   2  -1 375.504 21.7061   2
  -7  -2  -1 636.589 38.0446   3
   7  -2   1 656.137 37.8962   2
   7  -2   1 587.768 54.7441   1
  -7  -2  -1 713.709 66.4461   1
  -7  -2  -1 593.565 34.3074   2
   7  -2   1 673.632 62.7333   1
  -7  -2  -1 699.823 65.1632   1
   7   2   1 697.080 64.9113   1
  -7   2  -1 639.827 36.9796   2
  -7   2  -1 630.651 58.7205   1
   7   2   1 651.574 60.6699   1
  -7   2  -1 652.676 39.0135   3
   7   2   1 717.252 42.8603   3
  -7   2  -1 680.555 63.3508   1
   7   2   1 655.512 37.8831   2
  -8  -2  -1 923.157 55.1546   3
  -8  -2  -1 875.225 81.4941   1
   8  -2   1 870.684 81.0811   1
   8  -2   1 904.072 54.0426   3
   8  -2   1 813.893 47.0260   2
   8  -2   1 824.516 76.7708   1
  -8   2  -1 811.483 75.5547   1
  -8   2  -1 842.076 50.3523   3
   8   2   1 850.215 79.1732   1
  -8   2  -1 885.877 51.1505   2
   8   2   1 894.535 53.4714   3
   8   2   1 952.321 54.9861   2
  -8   2  -1 821.986 76.5415   1
   9  -2   1 272.273 16.3106   3
   9  -2   1 288.790 26.9009   1
   9  -2   1 273.698 25.4981   1
  -9  -2  -1 280.699 16.2535   2
  -9  -2  -1 319.965 19.1483   3
   9  -2   1 297.679 17.2390   2
   9   2   1 250.691 23.3468   1
   9   2   1 302.166 18.0965   3
  -9   2  -1 262.669 24.4728   1
  -9   2  -1 278.880 16.7065   3
  -9   2  -1 274.345 25.5603   1
  -9   2  -1 278.096 16.1005   2
   9   2   1 286.071 16.5683   2
   9   2   1 287.078 26.7317   1
 -10  -2  -1 175.270 16.3290   1
 -10  -2  -1 249.037 14.9312   3
 -10  -2  -1 224.552 13.0294   2
  10  -2   1 200.119 12.0258   3
  10  -2   1 227.165 21.1526   1
 -10  -2  -1 222.630 20.7334   1
  10  -2   1 230.567 13.3633   2
 -10   2  -1 224.564 13.0233   2
  10   2   1 230.319 13.8157   3
 -10   2  -1 214.910 12.8818   3
 -10   2  -1 216.018 20.1112   1
  10   2   1 215.782 12.5101   2
 -11  -2  -1 290.123 17.3914   3
 -11  -2  -1 303.021 17.5716   2
  11  -2   1 285.368 16.5274   2
 -11   2  -1 285.688 16.5731   2
 -11   2  -1 285.975 16.5799   2
 -11   2  -1 295.551 17.7285   3
  11   2   1 273.070 15.8333   2
  12  -2   1 56.7378 3.51147   3
  12  -2   1 57.4961 3.40441   2
  12   2   1 59.6490 3.55261   2
 -12   2  -1 57.5424 3.56077   3
 -12   2  -1 60.2680 3.57857   2
 -13  -2  -1 0.39405 0.60692   3
  13  -2   1 0.24090 0.45415   2
  13  -2   1 -0.2361 0.80793   3
 -13  -2  -1 0.82620 0.64314   2
 -13   2  -1 0.24759 0.54672   2
 -13   2  -1 -0.5381 0.68077   3
 -14  -2  -1 5.36943 0.74948   3
  14  -2   1 6.75021 1.01551   3
  14  -2   1 5.98129 0.64073   2
 -14   2  -1 5.50461 0.86152   3
 -14   2  -1 5.39463 0.69085   2
 -15  -2  -1 14.8499 1.19576   2
  15  -2   1 19.0941 1.33381   2
  15  -2   1 19.4726 1.56298   3
  15   2   1 16.3475 1.28318   2
 -15   2  -1 18.2911 1.30253   2
 -16  -2  -1 49.1306 3.04505   2
  16  -2   1 50.4022 3.30364   3
  16  -2   1 47.0942 2.86476   2
  16   2   1 47.8995 2.98415   2
 -16   2  -1 46.6818 2.86714   2
 -16   2  -1 50.1498 3.21379   3
 -17  -2  -1 48.3495 3.02046   2
  17  -2   1 45.4969 2.76644   2
  17  -2   1 50.0641 3.23262   3
 -17   2  -1 44.1161 2.69361   2
  17   2   1 49.1413 3.04745   2
  18  -2   1 32.5951 2.09493   2
 -18   2  -1 30.2030 1.96234   2
  19  -2   1 31.4412 2.00994   2
 -19   2  -1 33.2000 2.11796   2
  20  -2   1 28.1563 1.82166   2
  20  -3  -1 4.97008 0.71288   2
 -20   3   1 5.11808 0.79299   2
  19  -3  -1 6.37410 0.74209   2
 -19   3   1 6.20742 0.77818   2
  18  -3  -1 3.11785 1.05766   3
  18  -3  -1 3.51264 0.68726   2
 -18   3   1 2.07446 0.71196   2
  17  -3  -1 2.68160 0.60288   2
  17  -3  -1 3.22123 0.95863   3
 -17   3   1 2.63032 0.64588   2
 -17   3   1 2.85649 0.89406   3
  16  -3  -1 4.68181 0.97850   3
 -16  -3   1 5.70338 0.88835   3
  16  -3  -1 4.90423 0.65897   2
 -16   3   1 4.50626 0.76902   3
 -16   3   1 5.21543 0.73542   2
  16   3  -1 4.43225 0.86067   3
  15  -3  -1 2.95070 0.96515   3
 -15  -3   1 3.44988 0.77640   3
 -15   3   1 2.87132 0.87753   3
  15   3  -1 2.17366 0.83560   3
  15   3  -1 3.24399 0.81845   2
 -15   3   1 3.22155 0.59392   2
 -14  -3   1 -1.1233 0.66102   3
  14  -3  -1 1.09709 0.74717   3
 -14   3   1 -0.0535 0.73621   3
  14   3  -1 0.47200 0.75006   3
 -14   3   1 0.32737 0.57830   2
  14   3  -1 0.09527 0.74089   2
 -13  -3   1 20.2768 1.46004   3
  13  -3  -1 18.2347 1.24330   2
  13   3  -1 18.2475 1.37556   2
 -13   3   1 17.6999 1.34158   3
  12  -3  -1 35.5629 2.26799   3
  12  -3  -1 35.1289 2.13288   2
  12   3  -1 41.2930 2.59850   3
  12   3  -1 36.9062 2.28949   2
 -12   3   1 40.9866 2.61335   3
  11  -3  -1 47.0129 2.80790   2
 -11  -3   1 53.0735 3.28722   3
  11   3  -1 48.8296 2.96751   2
 -11   3   1 49.3221 3.06250   3
  11   3  -1 53.7238 3.32392   3
  10  -3  -1 106.728 6.24469   2
  10  -3  -1 112.704 6.83218   3
 -10   3   1 107.838 6.32700   2
  -9  -3   1 70.1406 6.53322   1
   9  -3  -1 61.0251 3.61022   2
   9  -3  -1 62.4436 3.82234   3
  -9  -3   1 68.0886 4.15661   3
  -9  -3   1 59.8761 5.57686   1
  -9   3   1 49.5408 4.61402   1
  -9   3   1 58.5327 3.48765   2
   9   3  -1 51.5712 4.80859   1
  -9   3   1 56.2193 5.23522   1
   9   3  -1 64.4336 6.00054   1
   8  -3  -1 159.131 14.8192   1
  -8  -3   1 183.856 17.1259   1
  -8  -3   1 184.584 17.1860   1
  -8  -3   1 169.824 10.1916   3
   8  -3  -1 175.951 10.2033   2
   8   3  -1 178.705 10.7274   3
  -8   3   1 175.397 10.1844   2
   8   3  -1 202.238 11.7281   2
  -8   3   1 154.482 14.3942   1
   7  -3  -1 180.147 10.8050   3
   7  -3  -1 147.338 13.7245   1
   7  -3  -1 182.829 10.6149   2
  -7  -3   1 185.098 11.1122   3
   7  -3  -1 189.965 17.6943   1
  -7   3   1 181.281 10.8717   3
   7   3  -1 167.720 15.6238   1
  -7   3   1 155.322 14.4701   1
  -7   3   1 206.308 19.2153   1
   7   3  -1 179.519 10.4231   2
   6  -3  -1 14.3976 0.99731   3
  -6  -3   1 12.2385 1.14810   1
   6  -3  -1 12.8490 1.19733   1
   6  -3  -1 13.4997 1.25668   1
   6  -3  -1 15.2610 0.98960   2
  -6  -3   1 15.5056 1.04713   3
  -6   3   1 13.9412 1.30440   1
  -6   3   1 14.0876 0.93769   2
   6   3  -1 15.5318 1.45175   1
   6   3  -1 15.2135 1.02745   3
  -6   3   1 14.5175 0.99495   3
  -6   3   1 13.9271 1.30139   1
   5  -3  -1 10.2172 0.95687   1
   5  -3  -1 11.2456 0.80816   3
  -5  -3   1 11.1900 0.80208   3
  -5  -3   1 9.75552 0.90757   1
  -5  -3   1 8.74865 0.81881   1
   5  -3  -1 10.4339 0.97097   1
   5  -3  -1 10.6509 0.73188   2
  -5   3   1 11.0562 0.78785   3
  -5   3   1 9.12732 0.63905   2
   5   3  -1 8.85469 0.82644   1
   5   3  -1 9.41132 0.88340   1
  -5   3   1 11.0646 1.03563   1
   5   3  -1 11.2197 0.80738   3
   5   3  -1 9.63631 0.66756   2
  -5   3   1 9.64373 0.89851   1
  -4  -3   1 85.1112 7.92816   1
  -4  -3   1 73.1891 4.42533   3
   4  -3  -1 72.5261 6.75857   1
   4  -3  -1 71.0296 4.13975   2
   4  -3  -1 82.5691 7.69155   1
   4  -3  -1 73.0494 4.41953   3
  -4  -3   1 80.2665 7.47256   1
  -4   3   1 78.0697 7.27340   1
  -4   3   1 76.4272 4.47397   2
  -4   3   1 75.5180 4.55357   3
   4   3  -1 80.8421 7.52676   1
  -4   3   1 79.7255 7.42174   1
  -3  -3   1 0.30817 0.07129   1
   3  -3  -1 0.43626 0.06606   1
   3  -3  -1 0.43673 0.28829   3
   3  -3  -1 0.55494 0.07767   1
  -3   3   1 0.81771 0.28409   3
  -3   3   1 0.13598 0.31332   2
   3   3  -1 0.61191 0.09227   1
   3   3  -1 -0.0653 0.38327   3
  -3   3   1 0.38804 0.07025   1
   2  -3  -1 27.4473 1.63098   2
  -2  -3   1 31.1682 1.85175   2
   2  -3  -1 31.1885 1.92293   3
  -2  -3   1 29.8624 1.84376   3
   2   3  -1 28.0807 1.73512   3
  -2   3   1 28.4558 1.74609   3
  -2   3   1 27.2346 1.60436   2
   2   3  -1 30.5316 2.84239   1
  -1  -3   1 63.3585 3.68485   2
  -1  -3   1 68.8758 4.14805   3
  -1  -3   1 63.6702 5.93230   1
   1  -3  -1 64.5866 6.01836   1
   1  -3  -1 72.2773 4.35362   3
   1  -3  -1 59.9408 3.47986   2
  -1   3   1 56.3607 5.24910   1
  -1   3   1 67.1857 4.04828   3
   1   3  -1 66.6142 4.00711   3
   1   3  -1 64.2197 5.98134   1
   0  -3  -1 41.4798 3.86327   1
   0  -3   1 66.0768 6.14849   1
   0  -3   1 62.9447 5.86043   1
   0  -3  -1 52.3748 3.05396   2
   0  -3   1 60.6031 3.65285   3
   0   3  -1 61.1523 3.68940   3
   0   3  -1 61.8397 5.75620   1
   0   3   1 57.8337 3.49174   3
   1  -3   1 96.9134 5.63253   2
  -1  -3  -1 81.7138 7.60751   1
  -1  -3  -1 101.166 6.08438   3
   1  -3   1 102.495 6.15905   3
   1  -3   1 88.5324 8.24232   1
  -1  -3  -1 111.702 10.3966   1
  -1   3  -1 82.5515 7.68792   1
   1   3   1 78.1530 7.27869   1
   1   3   1 87.1862 8.11830   1
  -1   3  -1 82.5119 4.80577   2
  -1   3  -1 101.126 6.06726   3
  -2  -3  -1 268.491 25.0189   1
   2  -3   1 244.604 14.6509   3
  -2  -3  -1 235.182 14.0814   3
   2  -3   1 290.294 27.0293   1
   2  -3   1 228.312 21.2629   1
   2  -3   1 292.171 16.8980   2
  -2   3  -1 215.399 20.0750   1
   2   3   1 254.486 23.6851   1
   2   3   1 235.322 14.0755   3
  -2   3  -1 264.389 15.3007   2
  -2   3  -1 244.920 14.6682   3
   3  -3   1 213.971 12.8100   3
   3  -3   1 226.995 21.1478   1
  -3  -3  -1 209.838 12.5740   3
   3  -3   1 250.132 23.2995   1
   3  -3   1 213.712 12.3839   2
  -3   3  -1 220.609 20.5460   1
  -3   3  -1 213.033 12.3264   2
  -3   3  -1 220.382 20.5246   1
  -3   3  -1 214.613 12.8682   3
  -4  -3  -1 279.236 16.6965   3
   4  -3   1 271.825 25.3177   1
   4  -3   1 235.969 13.6674   2
   4  -3   1 261.604 24.3691   1
   4  -3   1 258.257 15.4614   3
   4   3   1 239.230 22.2809   1
  -4   3  -1 251.672 23.4322   1
  -4   3  -1 237.422 13.7589   2
  -4   3  -1 254.125 23.6652   1
  -4   3  -1 248.527 14.8815   3
   4   3   1 221.351 20.6188   1
  -5  -3  -1 148.573 13.8336   1
  -5  -3  -1 118.092 10.9993   1
   5  -3   1 127.862 7.42438   2
   5  -3   1 128.244 11.9401   1
  -5  -3  -1 140.822 8.44515   3
   5  -3   1 134.591 8.08663   3
   5  -3   1 127.084 11.8395   1
  -5   3  -1 126.723 7.37451   2
  -5   3  -1 123.174 11.4766   1
  -5   3  -1 134.047 12.4831   1
  -5   3  -1 131.284 7.88426   3
   6  -3   1 6.52416 0.61190   1
  -6  -3  -1 6.38826 0.56375   3
   6  -3   1 7.19751 0.66826   3
  -6  -3  -1 7.85193 0.73487   1
  -6  -3  -1 8.05946 0.76055   1
   6  -3   1 5.74535 0.54520   1
   6  -3   1 7.01939 0.57258   2
  -6   3  -1 6.87491 0.60931   3
  -6   3  -1 7.45527 0.62649   2
  -6   3  -1 7.75948 0.73101   1
   6   3   1 6.47471 0.53723   3
  -6   3  -1 6.77034 0.64186   1
  -7  -3  -1 3.46506 0.33761   1
   7  -3   1 2.39559 0.40896   2
   7  -3   1 1.85657 0.18948   1
   7  -3   1 2.74356 0.49086   3
   7  -3   1 2.41124 0.24775   1
  -7  -3  -1 3.15822 0.50363   3
  -7   3  -1 2.54956 0.25209   1
  -7   3  -1 2.89101 0.28584   1
   7   3   1 3.60209 0.54157   3
   7   3   1 1.87892 0.19176   1
  -7   3  -1 2.38201 0.44914   2
   7   3   1 2.67750 0.27074   1
  -8  -3  -1 -0.0801 0.73839   2
  -8  -3  -1 0.45058 0.09458   1
   8  -3   1 1.44248 0.44142   2
   8  -3   1 0.00000 0.07631   1
  -8  -3  -1 0.78813 0.44667   3
  -8   3  -1 0.05984 0.09151   1
  -8   3  -1 0.35791 0.10643   1
   8   3   1 0.23313 0.09244   1
   9  -3   1 0.72391 0.48815   3
   9  -3   1 1.17129 0.40740   2
  -9  -3  -1 1.49782 0.46348   3
   9   3   1 1.67263 0.19196   1
  -9   3  -1 1.63316 0.52082   3
   9   3   1 1.39910 0.50469   3
 -10  -3  -1 33.3975 2.12667   3
  10  -3   1 36.4488 2.30729   3
  10   3   1 32.2807 2.08620   3
 -10   3  -1 31.5918 1.95841   2
 -10   3  -1 34.8824 2.22281   3
  11  -3   1 51.2511 3.17487   3
 -11  -3  -1 52.8309 3.27846   3
 -11   3  -1 48.6413 3.01646   3
 -11   3  -1 47.7952 2.90342   2
 -12  -3  -1 5.84340 0.72956   3
  12  -3   1 5.28244 0.73693   3
  12  -3   1 4.72227 0.55190   2
  12   3   1 5.39922 0.69594   3
 -12   3  -1 5.62702 0.64144   2
 -12   3  -1 5.76163 0.77191   3
 -12   3  -1 6.54962 0.69597   2
  13  -3   1 15.6111 1.06239   2
 -13  -3  -1 16.1107 1.20116   3
 -13   3  -1 16.1729 1.14803   2
 -13   3  -1 17.5128 1.33683   3
  14  -3   1 44.2388 2.67990   2
  14  -3   1 39.6143 2.55243   3
 -14   3  -1 40.5977 2.64161   3
 -14   3  -1 40.2504 2.47278   2
  15  -3   1 16.2654 1.15217   2
  15  -3   1 19.0477 1.57548   3
 -15   3  -1 14.0498 1.31602   3
 -15   3  -1 14.4629 1.06920   2
  16  -3   1 13.5198 1.04445   2
 -16   3  -1 12.6483 1.04182   2
 -16   3  -1 12.1819 1.19273   3
  17  -3   1 14.7909 1.09157   2
  17  -3   1 15.0246 1.36871   3
 -17   3  -1 14.1968 1.24525   3
 -17   3  -1 14.2567 1.06416   2
  18  -3   1 3.27719 0.62934   2
 -18   3  -1 2.50769 0.67252   2
  19  -3   1 -0.1329 0.63783   2
 -19   3  -1 0.37610 0.71365   2
  18  -4  -1 0.36574 0.61964   2
  18  -4  -1 0.70886 1.01093   3
 -18   4   1 -0.4213 0.67954   2
  17  -4  -1 1.33708 0.90522   3
  17  -4  -1 1.15428 0.59102   2
 -17   4   1 0.29985 0.66622   2
 -17   4   1 -1.7640 0.85620   3
  16  -4  -1 2.33171 0.99112   3
  16  -4  -1 1.09253 0.59233   2
 -16   4   1 1.64378 0.63946   2
 -16   4   1 0.81397 0.86661   3
  15  -4  -1 9.83431 0.99176   3
  15  -4  -1 9.48472 0.85096   2
 -15   4   1 11.2625 1.11661   3
 -15   4   1 11.6931 0.97335   2
  14  -4  -1 12.7196 0.97775   2
 -14  -4   1 12.8509 1.10959   3
  14  -4  -1 10.1230 1.00584   3
  14   4  -1 9.50254 1.06752   3
 -14   4   1 12.1784 0.98583   2
 -14   4   1 11.0354 1.02637   3
  13  -4  -1 16.1591 1.13337   2
 -13  -4   1 15.7701 1.23277   3
 -13   4   1 18.6247 1.43493   3
 -13   4   1 15.6730 1.15541   2
  13   4  -1 15.7737 1.29947   3
  12  -4  -1 33.0671 2.03888   2
 -12  -4   1 34.1075 2.20867   3
 -12   4   1 31.1138 1.94794   2
 -12   4   1 32.4552 2.11781   3
  11  -4  -1 1.50099 0.51150   2
  11  -4  -1 2.72859 0.62650   3
  11   4  -1 1.78364 0.76454   3
 -11   4   1 1.02797 0.49743   2
  10  -4  -1 10.3262 0.90756   3
 -10  -4   1 10.2331 0.88071   3
  10  -4  -1 10.6192 0.84014   2
 -10   4   1 10.7273 0.91243   2
  10   4  -1 10.9619 0.89125   3
 -10   4   1 9.72156 0.87538   3
   9  -4  -1 3.88336 0.54697   2
   9  -4  -1 3.62142 0.61497   3
  -9  -4   1 3.93070 0.55651   3
  -9   4   1 3.94065 0.65227   2
   9   4  -1 2.97640 0.58853   3
  -9   4   1 3.92943 0.61073   3
   8  -4  -1 74.4035 4.36606   2
   8  -4  -1 77.7665 4.72282   3
  -8   4   1 78.1062 4.73843   3
  -8   4   1 77.1521 4.54474   2
   7  -4  -1 0.17518 0.40365   2
  -7  -4   1 0.23911 0.45436   3
   7  -4  -1 0.19611 0.47944   3
   7   4  -1 -0.0662 0.43673   3
  -7   4   1 -0.2763 0.51427   2
  -7   4   1 0.47731 0.45351   3
   6  -4  -1 1.98422 0.38102   2
   6  -4  -1 2.49046 0.49603   3
  -6  -4   1 1.14300 0.12956   1
   6   4  -1 1.85728 0.20581   1
  -6   4   1 1.17680 0.14099   1
  -6   4   1 1.57491 0.43446   2
  -6   4   1 1.59106 0.44346   3
  -6   4   1 1.09612 0.12946   1
   5  -4  -1 135.032 7.85196   2
  -5  -4   1 137.579 8.25824   3
   5  -4  -1 143.866 8.63320   3
  -5  -4   1 131.053 12.2036   1
  -5   4   1 116.732 10.8701   1
  -5   4   1 139.214 8.36961   3
   5   4  -1 115.965 10.7981   1
  -5   4   1 138.136 8.02676   2
   5   4  -1 141.354 8.48258   3
  -5   4   1 142.597 13.2785   1
   4  -4  -1 0.98622 0.13038   1
   4  -4  -1 1.37758 0.41629   2
  -4  -4   1 0.64651 0.37935   3
  -4  -4   1 0.58537 0.26496   2
   4  -4  -1 1.14079 0.12927   1
  -4  -4   1 0.91499 0.11986   1
  -4   4   1 0.91113 0.37490   2
  -4   4   1 0.73033 0.09097   1
   4   4  -1 0.87290 0.09989   1
  -4   4   1 1.13818 0.13633   1
   4   4  -1 1.18469 0.40286   3
   3  -4  -1 5.36138 0.52157   3
  -3  -4   1 6.25864 0.59278   1
  -3  -4   1 6.65010 0.56138   3
  -3  -4   1 5.61826 0.48765   2
   3  -4  -1 6.71433 0.62988   1
   3   4  -1 6.29887 0.58978   1
  -3   4   1 5.72031 0.52869   3
  -3   4   1 5.88692 0.48857   2
   2  -4  -1 110.728 10.3087   1
   2  -4  -1 94.9219 5.72765   3
   2  -4  -1 89.8701 5.23348   2
  -2  -4   1 90.3624 5.25104   2
  -2  -4   1 77.2741 7.20261   1
   2  -4  -1 78.4971 7.30888   1
  -2  -4   1 102.677 9.56420   1
  -2   4   1 94.4975 5.67820   3
   2   4  -1 107.956 6.49817   3
   2   4  -1 116.128 10.8084   1
   1  -4  -1 20.8500 1.94497   1
  -1  -4   1 16.0039 1.49145   1
   1  -4  -1 19.7288 1.20254   2
  -1  -4   1 18.1010 1.69015   1
   1  -4  -1 18.5551 1.72526   1
  -1  -4   1 21.4128 1.35700   3
  -1   4   1 22.0496 1.38215   3
   1   4  -1 22.2049 1.40146   3
  -1   4   1 19.6270 1.82992   1
  -1   4   1 22.0073 2.04614   1
   0  -4   1 22.5036 1.42266   3
   0  -4  -1 20.2221 1.28118   3
   0  -4  -1 17.2786 1.60858   1
   0  -4   1 16.3141 1.52552   1
   0   4  -1 14.7315 1.37728   1
   0   4  -1 21.5260 1.35016   3
   0   4   1 17.1101 1.59344   1
   0   4  -1 15.5915 0.96668   2
  -1  -4  -1 28.9943 1.79757   3
  -1  -4  -1 32.0174 2.98559   1
   1  -4   1 26.8751 1.69014   3
   1  -4   1 24.7946 1.50071   2
  -1   4  -1 21.4598 2.00054   1
  -1   4  -1 24.6384 1.48866   2
  -1   4  -1 28.1174 2.62327   1
  -1   4  -1 27.0844 1.69720   3
   1   4   1 29.9671 2.78869   1
   1   4   1 27.2236 1.70090   3
   2  -4   1 6.75818 0.56866   3
  -2  -4  -1 4.77911 0.45047   1
  -2  -4  -1 7.38776 0.69112   1
   2  -4   1 5.82496 0.47047   2
  -2  -4  -1 6.90627 0.55906   3
  -2   4  -1 5.99881 0.53030   3
   2   4   1 5.58579 0.52468   1
  -2   4  -1 5.17330 0.48370   1
   2   4   1 5.79700 0.53003   3
  -2   4  -1 6.06618 0.48506   2
  -2   4  -1 5.85879 0.54808   1
   3  -4   1 2.84388 0.37303   2
  -3  -4  -1 2.21392 0.21004   1
  -3  -4  -1 2.48031 0.39943   3
   3  -4   1 2.75040 0.26817   1
   3  -4   1 2.92060 0.28541   1
  -3   4  -1 2.50249 0.38623   2
   3   4   1 2.82837 0.27873   1
   3   4   1 2.40930 0.34214   3
  -3   4  -1 2.74616 0.26759   1
  -3   4  -1 2.98662 0.28847   1
   4  -4   1 23.4669 1.44167   2
   4  -4   1 23.9073 2.22896   1
  -4  -4  -1 25.8565 1.63320   3
  -4  -4  -1 18.1039 1.68323   1
   4  -4   1 20.4936 1.91536   1
   4  -4   1 25.3439 1.61422   3
   4   4   1 20.1411 1.87509   1
  -4   4  -1 22.3948 2.09115   1
  -4   4  -1 23.1520 1.48189   3
  -4   4  -1 20.8960 1.95266   1
  -4   4  -1 25.2338 1.56922   2
   5  -4   1 37.4298 3.48697   1
  -5  -4  -1 28.2824 2.64125   1
   5  -4   1 36.5135 2.28050   3
   5  -4   1 35.7469 3.33135   1
   5  -4   1 35.8290 2.16650   2
  -5  -4  -1 41.5853 2.55787   3
  -5   4  -1 32.5056 3.03008   1
  -5   4  -1 36.8578 2.27632   3
   5   4   1 37.0274 2.29009   3
  -5   4  -1 32.0630 2.99162   1
   5   4   1 30.4807 2.84192   1
  -5   4  -1 39.6457 2.37897   2
  -6  -4  -1 55.9043 3.41325   3
   6  -4   1 65.9689 3.89807   2
   6  -4   1 60.3401 3.68369   3
  -6   4  -1 61.2194 3.73211   3
  -6   4  -1 55.1948 5.14606   1
   6   4   1 55.3042 5.15357   1
  -6   4  -1 65.6128 3.88927   2
   6   4   1 62.5619 3.81901   3
   7  -4   1 33.5850 2.02795   2
   7  -4   1 33.5169 2.12883   3
  -7   4  -1 33.6690 2.05019   2
  -7   4  -1 34.5603 2.15547   3
   8  -4   1 30.2625 1.85793   2
   8  -4   1 31.2997 2.00693   3
   8   4   1 27.4517 1.74824   3
  -8   4  -1 28.9601 1.82418   2
  -9  -4  -1 12.7670 0.97983   3
   9  -4   1 13.8485 0.99352   2
  -9   4  -1 11.7639 0.93429   3
  10  -4   1 0.71032 0.55458   3
 -10  -4  -1 -0.7840 0.53274   3
  10  -4   1 0.00000 0.47765   2
 -10   4  -1 -0.0217 0.60084   2
  10   4   1 0.26698 0.48953   3
 -10   4  -1 0.90423 0.61217   3
 -11  -4  -1 7.16161 0.74712   3
  11  -4   1 7.35304 0.72726   2
  11  -4   1 6.60848 0.80247   3
 -11   4  -1 6.88629 0.80196   3
 -11   4  -1 7.81745 0.77595   2
  11   4   1 7.26661 0.80765   3
 -12  -4  -1 1.47346 0.60138   3
  12  -4   1 2.09015 0.55186   2
  12  -4   1 1.64107 0.72220   3
 -12   4  -1 1.28090 0.70462   3
  12   4   1 1.72567 0.62419   3
 -12   4  -1 1.88421 0.66401   2
  13  -4   1 5.47798 0.67737   2
 -13   4  -1 6.28612 0.71031   2
 -13   4  -1 6.28879 0.96622   3
  14  -4   1 0.94167 0.53039   2
  14  -4   1 1.40375 0.78572   3
 -14   4  -1 -0.0503 0.71910   3
 -14   4  -1 0.97071 0.60576   2
  15  -4   1 1.35497 0.56099   2
  15  -4   1 -0.1766 0.69407   3
 -15   4  -1 0.10435 0.77488   3
 -15   4  -1 0.32373 0.53613   2
  16  -4   1 5.32429 1.02530   3
  16  -4   1 6.62990 0.75407   2
  17  -4   1 4.74431 0.69270   2
  18  -4   1 2.03981 0.59372   2
  16  -5  -1 3.19905 0.65907   2
  16  -5  -1 2.28897 0.73910   3
 -16   5   1 2.55541 0.68132   2
 -16   5   1 2.59519 0.79157   3
  15  -5  -1 4.07846 0.80132   3
  15  -5  -1 3.59354 0.64082   2
 -15   5   1 2.95036 0.79109   3
 -15   5   1 2.97729 0.69570   2
  14  -5  -1 3.51118 0.67832   2
  14  -5  -1 3.63449 0.85137   3
 -14   5   1 2.77538 0.64920   2
 -14   5   1 3.13914 0.77907   3
  13  -5  -1 7.04559 0.73833   2
  13  -5  -1 8.88005 0.93436   3
 -13  -5   1 6.19157 0.80328   3
 -13   5   1 7.12322 0.77340   3
  13   5  -1 6.46081 0.74726   3
 -13   5   1 7.09939 0.76993   2
 -12  -5   1 19.5118 1.42113   3
  12  -5  -1 20.8176 1.41691   2
  12  -5  -1 21.7486 1.60869   3
 -12   5   1 20.2644 1.48116   3
 -12   5   1 21.3093 1.43510   2
  12   5  -1 21.1628 1.50305   3
  11  -5  -1 46.9774 2.96404   3
 -11  -5   1 51.4443 3.23385   3
 -11   5   1 48.7839 2.95067   2
  10  -5  -1 16.7182 1.22110   3
 -10   5   1 17.1007 1.25063   3
  10   5  -1 16.1268 1.20600   3
 -10   5   1 17.2234 1.26043   2
   9  -5  -1 88.7539 5.40002   3
  -9  -5   1 88.1863 5.35797   3
   9  -5  -1 91.1159 5.35537   2
  -9   5   1 87.3880 5.30890   3
   9   5  -1 93.7253 5.69981   3
   8  -5  -1 159.301 9.27492   2
  -8  -5   1 153.883 9.26691   3
   8  -5  -1 166.022 9.98715   3
  -8   5   1 159.714 9.61268   3
   7  -5  -1 72.8286 4.44155   3
  -7  -5   1 83.0618 5.04671   3
   7  -5  -1 80.9754 4.76632   2
  -7   5   1 81.2827 4.79771   2
  -7   5   1 73.5340 4.47814   3
   7   5  -1 77.4790 4.71137   3
   6  -5  -1 83.2892 4.89422   2
   6  -5  -1 85.5148 5.18315   3
  -6  -5   1 87.4112 5.30484   3
  -6   5   1 79.9238 4.83989   3
   6   5  -1 91.9934 5.57917   3
  -6   5   1 80.4785 4.74651   2
   5  -5  -1 12.3491 0.90534   3
  -5  -5   1 13.5614 0.98020   3
  -5   5   1 16.4867 1.15281   2
   5   5  -1 11.6221 0.86141   3
  -5   5   1 12.8736 0.92534   3
  -4  -5   1 19.4726 1.29298   3
   4  -5  -1 20.2439 1.34520   3
   4  -5  -1 18.8459 1.22121   2
  -4   5   1 21.6636 1.41215   3
  -3  -5   1 14.0362 0.96642   3
   3  -5  -1 14.8830 1.01574   3
   3   5  -1 13.0540 0.91286   3
  -3   5   1 15.1789 1.03755   3
  -2  -5   1 102.213 6.15633   3
  -2   5   1 100.465 6.06873   3
   1  -5  -1 111.779 6.74268   3
   1   5  -1 139.397 8.38484   3
   0  -5   1 85.8027 5.00272   2
   0  -5  -1 83.9895 5.07326   3
   0  -5   1 80.7643 4.87765   3
   0   5   1 79.7073 4.80821   3
   0   5  -1 81.8615 4.94432   3
  -1  -5  -1 130.176 7.82687   3
   1  -5   1 132.387 7.70123   2
   1  -5   1 125.448 7.56100   3
  -1   5  -1 127.718 7.68789   3
   1   5   1 128.274 7.71093   3
   2  -5   1 114.251 6.87235   3
   2  -5   1 106.561 6.20550   2
  -2  -5  -1 116.316 7.00420   3
   2   5   1 106.984 6.45256   3
  -2   5  -1 113.601 6.63570   2
  -2   5  -1 113.688 6.84214   3
   3  -5   1 140.788 8.17984   2
  -3  -5  -1 145.538 8.76412   3
   3  -5   1 144.941 8.72205   3
   3   5   1 131.730 7.92412   3
  -3   5  -1 143.707 8.37414   2
  -3   5  -1 162.911 9.80085   3
  -4  -5  -1 95.8049 5.78777   3
   4  -5   1 98.7729 5.96654   3
  -4   5  -1 97.3081 5.88353   3
   4   5   1 93.0759 5.61223   3
   5  -5   1 56.5545 3.45283   3
  -5  -5  -1 54.0634 3.31770   3
   5  -5   1 55.7034 3.32405   2
  -5   5  -1 54.9933 3.36580   3
   5   5   1 64.1991 3.91733   3
  -6  -5  -1 23.1404 1.52022   3
   6  -5   1 21.7980 1.46271   3
  -6   5  -1 23.3516 1.53126   3
   6   5   1 22.8238 1.48599   3
  -6   5  -1 21.9011 1.43325   2
   7  -5   1 5.03718 0.63157   3
  -7   5  -1 4.59629 0.63469   2
  -7   5  -1 5.33730 0.61954   3
   8  -5   1 10.4531 0.87443   3
   8  -5   1 11.7058 0.88655   2
  -8  -5  -1 12.8153 1.00793   3
  -8   5  -1 12.3830 0.93370   3
  -8   5  -1 12.3139 0.94669   2
   9  -5   1 2.88238 0.54941   2
  -9  -5  -1 4.48344 0.63813   3
   9  -5   1 4.55166 0.69766   3
  -9   5  -1 2.43740 0.60012   2
   9   5   1 2.65964 0.60969   3
  10  -5   1 43.8487 2.66199   2
 -10  -5  -1 38.5670 2.44367   3
 -10   5  -1 44.7990 2.81637   3
 -10   5  -1 43.4160 2.65813   2
  10   5   1 51.6736 3.24939   3
  11  -5   1 40.1756 2.55613   3
  11  -5   1 38.1119 2.35397   2
 -11  -5  -1 32.1159 2.07668   3
 -11   5  -1 40.7614 2.59592   3
  11   5   1 33.2658 2.14323   3
 -11   5  -1 37.9565 2.36792   2
  12  -5   1 42.4325 2.70627   3
  12  -5   1 43.4227 2.66046   2
 -12   5  -1 42.4310 2.63407   2
 -12   5  -1 41.6601 2.65591   3
  13  -5   1 41.1125 2.51573   2
  13  -5   1 39.5404 2.52866   3
 -13   5  -1 39.2010 2.42770   2
 -13   5  -1 40.8748 2.59872   3
  14  -5   1 35.4920 2.19349   2
  14  -5   1 42.5932 2.79440   3
 -14   5  -1 37.2161 2.44706   3
 -14   5  -1 34.1285 2.15361   2
  15  -5   1 18.0637 1.38495   3
  15  -5   1 19.8592 1.35311   2
 -15   5  -1 18.3991 1.30896   2
 -15   5  -1 18.3185 1.39237   3
  16  -5   1 5.22969 0.69455   2
 -16   5  -1 6.95738 0.84525   2
  14  -6  -1 10.8511 0.99554   3
 -14   6   1 10.5962 0.98732   3
 -13   6   1 5.65495 0.79109   3
  12  -6  -1 31.4756 2.08775   3
  11  -6  -1 14.8730 1.18421   3
  11  -6  -1 16.0742 1.18137   2
 -11  -6   1 15.9385 1.26244   3
  11   6  -1 17.5357 1.38611   3
 -11   6   1 16.8207 1.32133   3
  10  -6  -1 1.25341 0.60169   2
  10  -6  -1 0.50855 0.65680   3
  10   6  -1 1.89890 0.64835   3
 -10   6   1 1.52686 0.68166   3
   9  -6  -1 0.68748 0.60994   3
  -9  -6   1 -0.0440 0.62931   3
  -9   6   1 0.61045 0.57565   3
  -8  -6   1 5.36334 0.81006   3
   8  -6  -1 4.65226 0.70455   3
  -8   6   1 4.52340 0.63403   3
   8   6  -1 5.30639 0.69360   3
  -7  -6   1 7.13454 0.77170   3
   7  -6  -1 6.10154 0.70951   3
   7   6  -1 8.09303 0.80584   3
  -7   6   1 7.03419 0.74631   3
  -6  -6   1 18.0354 1.26892   3
   6  -6  -1 16.2667 1.16215   3
   6   6  -1 17.3183 1.23071   3
  -6   6   1 17.3293 1.19167   3
  -5  -6   1 43.8131 2.71898   3
   5  -6  -1 45.4627 2.84260   3
  -5   6   1 44.9753 2.80054   3
   5   6  -1 47.1573 2.92936   3
  -4  -6   1 63.3412 3.88766   3
   4  -6  -1 62.2796 3.82329   3
  -4   6   1 57.5617 3.52601   3
   4   6  -1 60.9100 3.73028   3
  -3  -6   1 64.6373 3.95235   3
   3   6  -1 69.9109 4.26046   3
  -3   6   1 62.7747 3.83088   3
   2  -6  -1 3.14795 0.47135   3
  -2  -6   1 3.50077 0.54068   3
   2   6  -1 3.89515 0.50975   3
  -1  -6   1 36.8885 2.29544   3
   1  -6  -1 37.9598 2.36357   3
  -1   6   1 36.7741 2.30484   3
   0  -6  -1 126.490 7.62754   3
   0  -6   1 131.083 7.90670   3
   0   6   1 151.903 9.14009   3
   0   6  -1 127.133 7.66088   3
  -1  -6  -1 1.16341 0.48000   3
  -1   6  -1 1.06743 0.42279   3
   1   6   1 2.18395 0.46657   3
  -2  -6  -1 0.71247 0.47030   3
   2  -6   1 0.67383 0.45436   3
   2   6   1 0.55970 0.47893   3
  -2   6  -1 1.29568 0.44400   3
  -3  -6  -1 0.40859 0.49446   3
   3  -6   1 -0.0645 0.49682   3
  -3   6  -1 -0.1532 0.45734   3
   3   6   1 -0.3786 0.43966   3
   4  -6   1 14.9294 1.06400   3
  -4  -6  -1 14.2689 1.06896   3
  -4   6  -1 13.8185 0.98531   3
   4   6   1 15.2061 1.10742   3
   5  -6   1 7.27673 0.69973   3
  -5  -6  -1 6.97788 0.70046   3
   5   6   1 7.97652 0.74925   3
  -5   6  -1 6.43989 0.65519   3
   6  -6   1 42.4926 2.59138   2
   6  -6   1 43.7286 2.73959   3
  -6   6  -1 42.5931 2.65699   3
  -6   6  -1 40.0571 2.47080   2
   7  -6   1 65.8019 4.02849   3
  -7  -6  -1 69.8939 4.29092   3
   7  -6   1 65.3432 3.88240   2
  -7   6  -1 62.5742 3.74372   2
  -7   6  -1 66.7878 4.08475   3
   8  -6   1 21.8168 1.49759   3
   8  -6   1 22.6622 1.50679   2
  -8  -6  -1 23.2937 1.60354   3
  -8   6  -1 22.5650 1.52406   2
  -8   6  -1 21.4741 1.46338   3
   8   6   1 20.1263 1.41642   3
   9  -6   1 19.4680 1.38840   3
   9  -6   1 19.6861 1.36362   2
  -9  -6  -1 21.6646 1.52541   3
  -9   6  -1 20.1508 1.45702   3
  -9   6  -1 19.9325 1.43384   2
  10  -6   1 12.1257 1.01410   3
  10  -6   1 14.7093 1.12585   2
 -10   6  -1 16.1958 1.24990   2
  11  -6   1 8.22722 0.81933   2
 -11   6  -1 8.85741 0.94200   2
 -11   6  -1 7.79183 0.86762   3
  12  -6   1 5.35562 0.71776   2
  12  -6   1 6.42484 0.91887   3
 -12   6  -1 5.66801 0.81473   3
 -12   6  -1 6.78917 0.82236   2
  13  -6   1 0.67409 0.71604   3
 -13   6  -1 2.02539 0.71623   3
  14  -6   1 0.86339 0.64181   3
  12  -7  -1 0.20865 0.68864   3
 -12   7   1 0.16195 0.71268   3
  11  -7  -1 0.11185 0.61528   3
 -11   7   1 1.11708 0.80355   3
  10  -7  -1 -0.3953 0.62822   3
 -10   7   1 -0.1796 0.64223   3
   9  -7  -1 0.95336 0.61977   3
  -9   7   1 0.06527 0.59841   3
  -8  -7   1 3.02120 0.67939   3
   8  -7  -1 2.60580 0.63977   3
  -8   7   1 3.97712 0.68227   3
   8   7  -1 2.16312 0.63145   3
   7  -7  -1 1.24364 0.61333   3
  -7   7   1 0.70913 0.63831   3
   7   7  -1 0.74391 0.60178   3
   6  -7  -1 0.49909 0.57196   3
  -6  -7   1 -0.2939 0.57740   3
   6   7  -1 -0.1249 0.59536   3
  -6   7   1 -0.2694 0.54723   3
  -5  -7   1 1.75037 0.55025   3
  -5   7   1 2.38996 0.55359   3
   5   7  -1 2.50982 0.51925   3
   4  -7  -1 5.96465 0.67033   3
  -4  -7   1 5.10771 0.63987   3
   4   7  -1 5.15417 0.58852   3
  -3  -7   1 0.55368 0.49633   3
   3  -7  -1 0.85389 0.57810   3
  -3   7   1 0.36462 0.49553   3
   3   7  -1 0.37289 0.47861   3
  -2  -7   1 7.37002 0.69539   3
   2  -7  -1 6.43245 0.67328   3
  -2   7   1 6.40615 0.63054   3
   2   7  -1 6.84578 0.69598   3
  -1  -7   1 0.41438 0.50147   3
   1  -7  -1 -0.2978 0.42123   3
  -1   7   1 0.25774 0.42533   3
   1   7  -1 0.69937 0.55958   3
   0  -7   1 4.17249 0.53347   3
   0  -7  -1 4.64106 0.63550   3
   0   7   1 4.30487 0.61795   3
   0   7  -1 5.18304 0.61538   3
  -2  -7  -1 5.03535 0.59052   3
  -2   7  -1 4.03324 0.57587   3
   2   7   1 5.27628 0.74319   3
   3  -7   1 10.2600 0.84140   3
  -3  -7  -1 11.4087 0.90392   3
   3   7   1 11.3405 0.91075   3
  -3   7  -1 9.75767 0.78518   3
   4  -7   1 0.61529 0.48352   3
  -4   7  -1 1.24053 0.47062   3
   4   7   1 0.54063 0.48040   3
  -5  -7  -1 0.84318 0.57977   3
   5  -7   1 -0.4459 0.56070   3
  -5   7  -1 1.40382 0.53821   3
   6  -7   1 1.37873 0.60675   3
  -6  -7  -1 2.04698 0.59749   3
  -6   7  -1 2.05865 0.61770   3
   6   7   1 1.20623 0.49767   3
   7  -7   1 0.32585 0.62136   3
  -7  -7  -1 -0.2979 0.63198   3
   7   7   1 -0.4088 0.52072   3
  -7   7  -1 0.60473 0.61777   3
   8  -7   1 0.65049 0.64407   3
  -8   7  -1 0.28178 0.64385   3
   9  -7   1 1.02742 0.66348   3
  -9   7  -1 2.90196 0.73116   3
  10  -7   1 2.30674 0.71456   3
 -11   7  -1 0.88428 0.75396   3
  -7   8   1 2.80194 0.70065   3
  -6   8   1 1.38917 0.68187   3
   5  -8  -1 0.35242 0.57016   3
   4  -8  -1 10.1120 0.92393   3
  -4   8   1 9.50770 0.87050   3
   4   8  -1 11.4034 1.01848   3
   3  -8  -1 2.94414 0.60156   3
  -3  -8   1 1.84118 0.55247   3
   3   8  -1 1.65320 0.59054   3
  -3   8   1 1.11471 0.55536   3
   2  -8  -1 2.35335 0.52259   3
  -2  -8   1 1.26576 0.54288   3
  -2   8   1 0.98848 0.43965   3
   2   8  -1 1.75749 0.59678   3
  -1  -8   1 5.67428 0.68851   3
   1  -8  -1 4.42658 0.67188   3
   1   8  -1 4.44818 0.65267   3
  -1   8   1 3.20604 0.57606   3
   0  -8  -1 1.02177 0.58548   3
   0  -8   1 0.29693 0.49001   3
   0   8  -1 1.24073 0.47896   3
   0   8   1 1.14862 0.51483   3
   1  -8   1 1.98941 0.51230   3
  -1  -8  -1 2.42703 0.58560   3
  -1   8  -1 1.78550 0.54439   3
   1   8   1 3.08290 0.62106   3
   2  -8   1 0.17666 0.55878   3
  -2   8  -1 0.30337 0.57216   3
   2   8   1 1.86102 0.60492   3
   3  -8   1 0.42696 0.51670   3
  -3   8  -1 -0.1042 0.52728   3
   4  -8   1 0.16829 0.57858   3
  -4   8  -1 0.61258 0.53450   3
   5  -8   1 6.40475 0.71654   3
  -5   8  -1 6.58822 0.79308   3
   6  -8   1 2.84982 0.68888   3
  -6   8  -1 3.11433 0.68533   3
  21   0  -2 15.4707 1.24291   2
 -21   0   2 15.8514 1.24924   2
 -20   0   2 66.0910 3.98420   2
  20   0  -2 68.4766 4.11809   2
 -19   0   2 49.9142 3.08727   2
 -19   0   2 44.8613 2.92149   3
  19   0  -2 46.2926 3.04297   3
  19   0  -2 46.9698 2.89845   2
  18   0  -2 47.9052 2.91377   2
 -18   0   2 49.6538 3.06005   2
 -18   0   2 46.6630 2.97289   3
  18   0  -2 47.9477 3.05792   3
  17   0  -2 174.943 10.5882   3
  17   0  -2 168.141 9.80911   2
 -17   0   2 173.269 10.1130   2
 -16   0   2 81.0318 4.82224   2
 -16   0   2 84.4384 5.19699   3
  16   0  -2 91.4645 5.64278   3
 -15   0   2 144.114 8.41911   2
 -15   0   2 161.383 9.75070   3
  15   0  -2 149.757 9.05328   3
 -14   0   2 73.9835 4.40402   2
  14   0  -2 76.7066 4.52431   2
 -14   0   2 87.4502 5.32890   3
  14   0  -2 80.9141 4.94418   3
 -13   0   2 16.9626 1.31175   3
  13   0  -2 15.3007 1.08335   2
  13   0  -2 15.3129 1.17083   3
 -12   0   2 108.229 6.55334   3
  12   0  -2 108.995 6.37339   2
  12   0  -2 102.517 9.54929   1
 -12   0   2 92.8011 8.64287   1
  12   0  -2 100.932 6.13412   3
  11   0  -2 8.99980 0.84385   1
  11   0  -2 10.5617 0.99526   1
 -11   0   2 9.53168 0.84636   3
  11   0  -2 10.7286 0.79474   2
 -11   0   2 8.87382 0.77686   2
  11   0  -2 9.49719 0.86417   3
 -10   0   2 368.911 21.3496   2
  10   0  -2 377.447 22.6024   3
 -10   0   2 346.783 32.2905   1
  10   0  -2 375.020 21.6984   2
 -10   0   2 393.144 23.5217   3
 -10   0   2 379.645 35.3643   1
  10   0  -2 384.191 35.7868   1
  10   0  -2 340.302 31.6958   1
  -9   0   2 501.766 46.7312   1
   9   0  -2 513.178 47.7781   1
   9   0  -2 525.305 48.9088   1
   9   0  -2 535.168 30.9381   2
  -9   0   2 520.710 30.0926   2
  -9   0   2 526.612 49.0379   1
  -9   0   2 563.098 33.6584   3
   8   0  -2 1203.73 112.076   1
  -8   0   2 1115.74 103.894   1
   8   0  -2 1163.47 108.324   1
   8   0  -2 1225.46 70.7657   2
   8   0  -2 1246.95 74.4769   3
  -8   0   2 1187.35 68.5795   2
  -8   0   2 1203.94 112.118   1
   7   0  -2 905.529 84.3199   1
   7   0  -2 901.057 83.9070   1
   7   0  -2 859.735 51.3759   3
   7   0  -2 860.381 49.6865   2
  -7   0   2 957.012 89.1024   1
  -7   0   2 885.735 82.4861   1
  -7   0   2 825.547 47.6981   2
   6   0  -2 1836.56 105.986   2
  -6   0   2 1818.34 169.323   1
  -6   0   2 1952.86 181.762   1
   6   0  -2 1744.23 162.416   1
  -6   0   2 1784.47 102.997   2
  -6   0   2 1741.62 104.085   3
   6   0  -2 1635.74 152.345   1
   6   0  -2 1941.56 180.758   1
   6   0  -2 1720.46 102.799   3
   5   0  -2 2073.85 193.118   1
  -5   0   2 1771.54 105.860   3
   5   0  -2 1891.32 109.162   2
   5   0  -2 1983.97 184.682   1
   5   0  -2 1802.99 107.740   3
  -5   0   2 1959.65 182.471   1
  -5   0   2 2003.67 186.538   1
  -5   0   2 1867.68 107.841   2
   4   0  -2 1387.55 82.8817   3
  -4   0   2 1514.78 141.037   1
  -4   0   2 1589.87 148.031   1
  -4   0   2 1350.82 80.6786   3
   4   0  -2 1412.40 81.5295   2
   4   0  -2 1644.73 153.109   1
   4   0  -2 1564.62 145.683   1
  -4   0   2 1342.82 77.5354   2
  -3   0   2 163.554 9.80080   3
   3   0  -2 173.454 10.3888   3
  -3   0   2 188.825 17.5761   1
  -3   0   2 160.853 9.30892   2
   3   0  -2 190.283 17.7114   1
   3   0  -2 167.782 15.6210   1
   3   0  -2 169.929 9.82873   2
  -3   0   2 176.497 16.4394   1
  -2   0   2 235.645 21.9441   1
   2   0  -2 210.139 12.1509   2
   2   0  -2 245.129 22.8255   1
  -2   0   2 220.241 20.5097   1
  -2   0   2 207.536 11.9939   2
   2   0  -2 231.212 13.8244   3
  -2   0   2 212.426 12.6905   3
   2   0  -2 280.671 26.1231   1
  -1   0   2 130.385 7.78439   3
  -1   0   2 167.982 15.6341   1
   1   0  -2 134.136 8.01570   3
   1   0  -2 150.537 14.0205   1
  -1   0   2 142.068 13.2244   1
   1   0  -2 124.995 7.22829   2
   1   0  -2 159.975 14.8887   1
   0   0  -2 152.396 14.1899   1
   0   0   2 145.447 13.5395   1
   0   0  -2 164.174 15.2855   1
   0   0  -2 115.591 6.68993   2
   0   0   2 111.005 6.40937   2
   0   0   2 127.273 7.61872   3
   0   0  -2 146.641 8.76643   3
   0   0   2 105.936 6.33251   3
   0   0  -2 110.255 6.58684   3
   0   0   2 156.859 14.5998   1
   1   0   2 331.913 30.8930   1
  -1   0  -2 328.963 30.6176   1
  -1   0  -2 259.146 14.9677   2
  -1   0  -2 310.489 28.9116   1
   1   0   2 269.146 15.5522   2
   1   0   2 260.328 15.5602   3
   1   0   2 352.311 32.7938   1
   1   0   2 270.234 16.1535   3
   2   0   2 591.631 55.0869   1
  -2   0  -2 546.103 31.5299   2
  -2   0  -2 629.966 58.6426   1
   2   0   2 567.945 52.8789   1
  -2   0  -2 452.067 27.0281   3
   2   0   2 552.008 31.8696   2
  -2   0  -2 601.920 56.0467   1
  -3   0  -2 2645.74 246.281   1
   3   0   2 2555.38 237.814   1
   3   0   2 2365.67 220.254   1
  -3   0  -2 2216.51 127.942   2
  -3   0  -2 2306.24 214.674   1
  -3   0  -2 2505.06 149.652   3
   3   0   2 2315.61 133.640   2
   4   0   2 1646.49 153.283   1
   4   0   2 1497.50 139.420   1
   4   0   2 1505.63 89.9398   3
  -4   0  -2 1406.64 81.1851   2
  -4   0  -2 1523.09 141.812   1
  -4   0  -2 1261.34 75.3836   3
  -4   0  -2 1652.62 153.859   1
   4   0   2 1403.37 81.0375   2
   5   0   2 465.388 26.9025   2
   5   0   2 544.574 50.6998   1
   5   0   2 481.264 28.7618   3
  -5   0  -2 469.330 28.0552   3
   5   0   2 499.118 46.4851   1
   6   0   2 1685.68 156.956   1
   6   0   2 1660.08 154.575   1
   6   0   2 1566.11 90.4108   2
  -6   0  -2 1583.31 94.5719   3
   6   0   2 1622.09 96.9324   3
  -7   0  -2 1658.03 154.367   1
  -7   0  -2 1526.70 91.2345   3
   7   0   2 1549.22 92.5863   3
  -7   0  -2 1360.52 126.707   1
  -7   0  -2 1513.51 87.3950   2
   7   0   2 1474.63 85.1333   2
  -8   0  -2 81.7914 7.61482   1
  -8   0  -2 81.0003 4.88295   3
  -8   0  -2 84.0184 4.91413   2
  -8   0  -2 72.8011 6.78220   1
   8   0   2 80.8869 4.90227   3
   9   0   2 92.9377 5.62388   3
  -9   0  -2 96.6258 5.65595   2
  -9   0  -2 100.025 6.03939   3
   9   0   2 90.4573 8.42300   1
   9   0   2 99.8086 9.29949   1
  -9   0  -2 84.8814 7.90968   1
  -9   0  -2 97.7144 9.10637   1
 -10   0  -2 8.38098 0.73329   2
  10   0   2 7.99478 0.75599   1
 -10   0  -2 7.41110 0.70631   1
  10   0   2 9.23831 0.85735   3
 -10   0  -2 9.03008 0.84613   1
  10   0   2 9.08397 0.71781   2
 -10   0  -2 9.72629 0.86580   3
  10   0   2 8.88584 0.83805   1
 -11   0  -2 68.8303 4.06547   2
  11   0   2 69.6831 4.25462   3
  11   0   2 67.7755 4.00659   2
 -11   0  -2 69.2952 6.45432   1
  11   0   2 66.1884 6.17042   1
 -12   0  -2 108.797 6.60367   3
 -12   0  -2 96.5231 5.66739   2
  12   0   2 106.142 6.20122   2
  13   0   2 121.504 7.36816   3
 -13   0  -2 117.835 6.89717   2
 -13   0  -2 140.975 8.53022   3
  13   0   2 116.976 6.83220   2
 -14   0  -2 120.203 7.31171   3
  14   0   2 108.815 6.63649   3
  14   0   2 111.706 6.55982   2
 -14   0  -2 119.383 7.03157   2
 -15   0  -2 138.321 8.38961   3
  15   0   2 170.167 9.91153   2
 -15   0  -2 170.493 9.95990   2
  15   0   2 157.586 9.53570   3
  16   0   2 103.708 6.09606   2
 -16   0  -2 133.712 7.88352   2
 -17   0  -2 49.9518 3.10609   2
  17   0   2 47.1707 2.90511   2
 -18   0  -2 46.8581 2.91183   2
  18   0   2 44.1348 2.72446   2
  19   0   2 28.1705 1.86637   2
 -19   0  -2 28.9021 1.94123   2
 -21   1   2 6.86745 0.92255   2
  20  -1  -2 19.2051 1.39581   2
 -20  -1   2 18.1926 1.41617   2
 -20   1   2 16.5765 1.33572   2
  20   1  -2 18.5728 1.41723   2
 -19  -1   2 2.00611 0.89300   2
 -19  -1   2 2.23333 0.99999   3
  19  -1  -2 3.88742 0.70720   2
  19  -1  -2 3.27111 0.94001   3
  19   1  -2 2.30234 0.82231   2
 -19   1   2 1.43035 0.94963   3
 -18  -1   2 4.21019 0.96031   3
  18  -1  -2 3.21874 0.59237   2
 -18   1   2 1.85521 0.67776   2
  18   1  -2 1.87608 1.08635   3
  18   1  -2 3.99391 0.78812   2
 -18   1   2 1.67938 0.96520   3
  16  -1  -2 26.4003 1.71706   2
  16  -1  -2 26.2790 1.85799   3
 -16  -1   2 29.6199 1.95091   2
 -16   1   2 27.1161 1.80495   2
  16   1  -2 27.9405 2.01670   3
  16   1  -2 29.3532 1.91767   2
 -16   1   2 28.7168 1.93287   3
  15  -1  -2 6.79507 0.96305   3
  15  -1  -2 6.30457 0.68462   2
 -15  -1   2 5.74557 0.79047   3
 -15   1   2 6.22544 0.72294   2
  15   1  -2 7.08922 0.78066   2
  15   1  -2 7.40650 0.91490   3
 -15   1   2 7.52866 0.92970   3
  14  -1  -2 193.946 11.2802   2
 -14  -1   2 193.522 11.6408   3
 -14  -1   2 188.811 10.9803   2
  14  -1  -2 198.291 11.9351   3
  14   1  -2 199.703 11.6144   2
 -14   1   2 188.949 11.3675   3
 -14   1   2 189.641 11.0392   2
  14   1  -2 197.372 11.8743   3
  13  -1  -2 137.531 8.00943   2
 -13  -1   2 147.534 8.63219   2
  13  -1  -2 136.915 8.26711   3
 -13   1   2 136.555 8.23019   3
 -13   1   2 144.156 8.42446   2
  13   1  -2 142.779 8.33667   2
  13   1  -2 134.315 8.11514   3
  12  -1  -2 170.506 10.2771   3
 -12  -1   2 165.443 9.96681   3
  12  -1  -2 168.614 9.80998   2
 -12  -1   2 171.135 9.95110   2
  12   1  -2 173.830 10.4786   3
 -12   1   2 162.832 9.48087   2
  12   1  -2 165.388 15.4038   1
  12   1  -2 182.814 10.6142   2
 -12   1   2 169.294 10.1787   3
 -11  -1   2 332.757 19.9387   3
  11  -1  -2 325.888 30.3400   1
 -11  -1   2 335.909 31.2715   1
 -11  -1   2 339.684 31.6377   1
 -11  -1   2 337.694 19.5551   2
  11  -1  -2 337.703 31.4536   1
  11  -1  -2 340.704 20.4111   3
  11   1  -2 347.661 20.1275   2
  11   1  -2 335.894 31.2856   1
  11   1  -2 337.736 20.2226   3
 -11   1   2 354.042 32.9687   1
 -11   1   2 351.219 21.0384   3
 -11   1   2 320.169 29.8072   1
  11   1  -2 337.413 31.4255   1
  10  -1  -2 8.91339 0.83778   1
  10  -1  -2 7.77485 0.67511   2
 -10  -1   2 7.97909 0.75295   1
  10  -1  -2 10.0167 0.94536   1
 -10  -1   2 7.32465 0.68247   3
 -10  -1   2 7.90976 0.74579   1
 -10  -1   2 7.43625 0.69316   2
  10   1  -2 8.45723 0.68528   2
 -10   1   2 9.32242 0.88374   1
  10   1  -2 8.39826 0.79188   1
 -10   1   2 7.66185 0.75628   3
 -10   1   2 9.56342 0.90068   1
  10   1  -2 6.72551 0.70382   3
  10   1  -2 8.61929 0.81339   1
 -10   1   2 9.12179 0.76820   2
   9  -1  -2 138.491 12.8977   1
   9  -1  -2 133.919 8.08656   3
  -9  -1   2 140.073 8.14446   2
   9  -1  -2 139.861 8.13640   2
  -9  -1   2 151.998 14.1595   1
  -9  -1   2 130.531 12.1530   1
   9  -1  -2 141.714 13.1993   1
  -9  -1   2 128.013 7.70316   3
   9   1  -2 141.204 13.1520   1
  -9   1   2 140.735 8.17341   2
   9   1  -2 155.448 14.4722   1
  -9   1   2 134.210 12.5000   1
  -9   1   2 129.794 12.0880   1
   9   1  -2 126.777 7.63460   3
  -8  -1   2 145.484 13.5498   1
   8  -1  -2 128.015 7.71104   3
   8  -1  -2 139.029 12.9460   1
  -8  -1   2 143.591 8.33511   2
   8  -1  -2 131.928 12.2855   1
  -8  -1   2 130.445 7.83997   3
   8  -1  -2 134.400 7.81684   2
  -8  -1   2 152.521 14.2055   1
  -8   1   2 136.421 7.92742   2
  -8   1   2 138.317 12.8828   1
  -8   1   2 136.288 12.6880   1
  -8   1   2 145.230 8.72421   3
  -7  -1   2 17.3846 1.14121   3
   7  -1  -2 17.6774 1.10826   2
   7  -1  -2 17.7650 1.66301   1
  -7  -1   2 18.4142 1.71900   1
  -7  -1   2 17.1776 1.11143   2
   7  -1  -2 15.1772 1.00809   3
  -7  -1   2 17.5543 1.64416   1
   7  -1  -2 18.9950 1.77494   1
  -7   1   2 18.4618 1.72484   1
   7   1  -2 19.4018 1.30336   3
  -7   1   2 15.4079 1.05063   3
  -7   1   2 21.0120 1.95550   1
  -7   1   2 17.6709 1.13543   2
   6  -1  -2 60.8027 3.55804   2
   6  -1  -2 61.7386 5.75217   1
   6  -1  -2 75.9168 4.59007   3
   6  -1  -2 58.3850 5.43732   1
  -6   1   2 60.4931 3.55192   2
  -6   1   2 64.7372 3.92303   3
   6   1  -2 60.5467 3.55508   2
  -6   1   2 57.7180 5.37982   1
   6   1  -2 67.5875 6.28868   1
  -6   1   2 63.8364 5.94174   1
   6   1  -2 63.9204 3.86467   3
   5  -1  -2 277.490 25.8288   1
   5  -1  -2 203.718 18.9720   1
  -5  -1   2 216.426 12.9629   3
   5  -1  -2 210.480 12.5955   3
   5  -1  -2 215.450 12.4632   2
  -5   1   2 211.247 12.6565   3
  -5   1   2 204.240 11.8294   2
  -5   1   2 256.137 23.8410   1
   5   1  -2 227.453 21.1749   1
  -5   1   2 219.871 20.4862   1
   5   1  -2 207.105 12.0020   2
   5   1  -2 213.249 19.8506   1
   5   1  -2 219.120 13.1285   3
  -4  -1   2 56.6960 3.32154   2
   4  -1  -2 51.5977 3.01937   2
  -4  -1   2 57.9643 5.40327   1
   4  -1  -2 51.8201 3.13583   3
  -4  -1   2 64.8064 6.03279   1
   4  -1  -2 71.6761 6.67189   1
   4  -1  -2 52.7151 4.91231   1
  -4  -1   2 54.4443 3.28474   3
   4   1  -2 54.4051 3.26804   3
   4   1  -2 61.5443 5.73358   1
   4   1  -2 51.7103 3.01198   2
  -4   1   2 51.4578 3.00690   2
  -4   1   2 52.3509 3.17069   3
  -4   1   2 56.3072 5.24101   1
   4   1  -2 56.8004 5.28908   1
  -3  -1   2 622.460 57.9545   1
  -3  -1   2 563.629 33.6718   3
  -3  -1   2 639.096 59.5070   1
   3  -1  -2 597.035 55.5971   1
  -3  -1   2 697.697 40.2702   2
   3  -1  -2 595.153 35.5591   3
  -3   1   2 560.934 32.4130   2
   3   1  -2 662.319 61.6566   1
  -3   1   2 584.978 54.4541   1
   3   1  -2 612.339 36.5927   3
  -3   1   2 520.706 30.0805   2
  -3   1   2 594.053 55.3365   1
   3   1  -2 551.956 31.8871   2
   3   1  -2 643.354 59.8973   1
  -3   1   2 610.672 36.4749   3
  -2  -1   2 1492.04 89.0934   3
   2  -1  -2 1453.36 86.7890   3
  -2  -1   2 1709.96 159.195   1
  -2  -1   2 1689.73 157.313   1
   2   1  -2 1416.61 81.7795   2
  -2   1   2 1630.87 151.836   1
   2   1  -2 1884.55 175.434   1
  -2   1   2 1486.22 88.7764   3
   2   1  -2 1611.75 150.065   1
  -2   1   2 1441.07 83.2197   2
  -2   1   2 1590.75 148.105   1
   2   1  -2 1445.29 86.3765   3
  -1  -1   2 1160.85 108.068   1
   1  -1  -2 1077.29 62.1902   2
   1  -1  -2 1038.38 62.0295   3
  -1  -1   2 998.701 59.6959   3
  -1   1   2 1253.17 116.676   1
  -1   1   2 1083.76 64.7224   3
   1   1  -2 1140.78 65.8737   2
  -1   1   2 1135.98 105.772   1
   1   1  -2 1030.35 61.5521   3
   1   1  -2 1289.25 120.033   1
  -1   1   2 1190.94 110.884   1
   0  -1   2 1345.83 80.3936   3
   0  -1   2 1583.64 91.4281   2
   0  -1   2 1882.03 175.180   1
   0   1  -2 1405.86 84.0279   3
   0   1  -2 1884.51 175.471   1
   1  -1   2 717.176 66.7813   1
   1  -1   2 694.662 64.6778   1
  -1  -1  -2 550.830 32.9211   3
   1  -1   2 601.025 34.7084   2
  -1  -1  -2 727.245 67.6941   1
   1  -1   2 601.546 35.9487   3
  -1   1  -2 630.514 37.6627   3
   1   1   2 620.708 35.8469   2
  -1   1  -2 592.174 34.2046   2
  -1   1  -2 743.241 69.1925   1
  -1   1  -2 667.518 62.1505   1
   2  -1   2 248.627 23.1573   1
   2  -1   2 225.237 13.0277   2
   2  -1   2 261.030 24.2993   1
   2  -1   2 251.001 15.0028   3
  -2  -1  -2 346.602 32.2665   1
  -2  -1  -2 264.624 24.6515   1
  -2   1  -2 232.004 13.4203   2
  -2   1  -2 264.102 24.6039   1
  -2   1  -2 243.137 14.5405   3
   2   1   2 241.239 13.9162   2
   2   1   2 221.969 13.2626   3
  -2   1  -2 249.247 23.2004   1
   3  -1   2 123.063 11.4640   1
   3  -1   2 115.948 6.94575   3
  -3  -1  -2 140.563 13.0904   1
  -3  -1  -2 132.904 12.3715   1
   3  -1   2 121.752 7.06099   2
  -3  -1  -2 143.148 8.55077   3
   3  -1   2 124.789 11.6205   1
   3   1   2 128.702 7.69452   3
  -3   1  -2 121.655 7.04479   2
  -3   1  -2 128.010 11.9193   1
   3   1   2 113.367 6.55360   2
   3   1   2 131.430 12.2328   1
   3   1   2 136.418 12.6990   1
  -3   1  -2 127.472 11.8725   1
   4  -1   2 73.0058 6.79864   1
  -4  -1  -2 75.4975 7.02732   1
   4  -1   2 75.3608 7.02107   1
  -4  -1  -2 73.6942 6.86003   1
   4  -1   2 69.2480 4.04165   2
   4   1   2 73.6527 6.86250   1
  -4   1  -2 68.1553 6.35416   1
  -4   1  -2 69.5790 4.05100   2
   4   1   2 80.5662 7.49886   1
  -4   1  -2 73.8365 6.88144   1
   4   1   2 65.8889 3.82270   2
  -4   1  -2 67.7383 4.06337   3
  -5  -1  -2 79.1724 4.59054   2
  -5  -1  -2 88.7626 5.34397   3
  -5  -1  -2 100.469 9.35480   1
   5  -1   2 109.460 10.1983   1
   5  -1   2 90.6618 8.44571   1
   5  -1   2 86.9358 5.04772   2
  -5  -1  -2 94.6893 8.81832   1
   5  -1   2 78.6725 4.73588   3
  -5   1  -2 93.5011 8.70355   1
   5   1   2 94.0821 5.64072   3
   5   1   2 101.410 9.44571   1
  -5   1  -2 97.5483 9.08282   1
   5   1   2 91.9553 5.33354   2
   5   1   2 98.9922 9.21969   1
  -5   1  -2 88.8053 5.16643   2
  -5   1  -2 84.9482 5.11083   3
  -6  -1  -2 89.7856 5.23064   2
  -6  -1  -2 104.866 9.77015   1
   6  -1   2 117.764 7.08267   3
   6  -1   2 104.285 9.71257   1
   6  -1   2 108.708 6.31046   2
   6  -1   2 112.978 10.5187   1
  -6  -1  -2 113.600 10.5824   1
  -6  -1  -2 109.827 6.60029   3
   6   1   2 104.480 6.05599   2
   6   1   2 113.028 10.5227   1
  -6   1  -2 106.331 9.90488   1
   6   1   2 113.580 6.81799   3
  -6   1  -2 111.464 10.3823   1
  -6   1  -2 108.223 6.50270   3
  -6   1  -2 98.8275 5.75235   2
   6   1   2 115.800 10.7868   1
  -7  -1  -2 220.283 20.5080   1
  -7  -1  -2 191.288 17.8147   1
   7  -1   2 192.706 17.9478   1
   7  -1   2 189.864 11.0073   2
   7  -1   2 184.997 17.2277   1
  -7  -1  -2 177.319 10.6242   3
  -7  -1  -2 168.676 9.79004   2
   7   1   2 186.108 10.7795   2
  -7   1  -2 185.701 17.2901   1
   7   1   2 197.513 18.3900   1
  -7   1  -2 202.630 12.1439   3
   7   1   2 178.994 10.7483   3
   7   1   2 176.936 16.4805   1
  -7   1  -2 178.062 10.3412   2
  -7   1  -2 188.153 17.5221   1
  -8  -1  -2 71.5650 4.32618   3
   8  -1   2 74.6743 4.36421   2
  -8  -1  -2 78.5645 4.61223   2
   8  -1   2 80.6097 7.51272   1
  -8  -1  -2 81.9423 7.63607   1
   8  -1   2 85.0761 7.92612   1
  -8  -1  -2 76.4995 7.12928   1
   8   1   2 80.3960 4.71299   2
   8   1   2 78.9287 7.34686   1
   8   1   2 78.9424 7.35752   1
  -8   1  -2 77.2495 4.68299   3
  -8   1  -2 77.1874 7.19126   1
   8   1   2 75.5620 4.57280   3
  -8   1  -2 78.7901 4.62363   2
  -8   1  -2 77.6706 7.23877   1
   9  -1   2 105.850 6.38622   3
  -9  -1  -2 102.376 6.17781   3
   9  -1   2 108.390 6.31746   2
   9  -1   2 108.064 10.0612   1
  -9  -1  -2 111.507 10.3811   1
  -9  -1  -2 109.209 10.1670   1
   9  -1   2 106.603 9.92428   1
   9   1   2 104.683 6.32547   3
   9   1   2 108.588 10.1180   1
  -9   1  -2 112.790 6.81041   3
  -9   1  -2 113.546 6.63719   2
   9   1   2 111.561 6.50247   2
   9   1   2 112.270 10.4607   1
  -9   1  -2 103.657 9.65475   1
  -9   1  -2 110.464 10.2887   1
  10  -1   2 283.002 16.4010   2
  10  -1   2 266.236 24.7995   1
 -10  -1  -2 286.314 26.6737   1
 -10  -1  -2 288.382 16.7092   2
 -10  -1  -2 268.895 25.0431   1
  10  -1   2 316.883 18.9981   3
  10  -1   2 258.237 24.0547   1
 -10   1  -2 276.613 25.7550   1
 -10   1  -2 280.698 26.1369   1
 -10   1  -2 277.451 16.0652   2
  10   1   2 304.969 17.6482   2
  10   1   2 274.121 25.5196   1
  10   1   2 284.943 17.0596   3
 -10   1  -2 283.529 16.9792   3
  10   1   2 264.712 24.6289   1
 -11  -1  -2 95.7149 5.79471   3
  11  -1   2 104.956 6.37735   3
  11  -1   2 100.079 5.85493   2
 -11   1  -2 104.825 6.34854   3
 -11   1  -2 100.189 5.85928   2
 -12  -1  -2 121.086 7.33333   3
  12  -1   2 122.686 7.16655   2
  12  -1   2 118.259 7.17993   3
 -12   1  -2 110.829 6.70258   3
  12   1   2 126.422 7.63236   3
  12   1   2 126.253 7.38446   2
 -12   1  -2 129.116 7.53719   2
  13  -1   2 82.1033 5.07107   3
 -13  -1  -2 89.4558 5.28739   2
  13  -1   2 78.8544 4.65210   2
 -13  -1  -2 90.9441 5.56169   3
  13   1   2 82.0650 4.83824   2
  13   1   2 88.0463 5.41918   3
 -13   1  -2 83.4275 5.11086   3
  14  -1   2 26.1918 1.68373   2
  14  -1   2 27.3669 1.94128   3
 -14  -1  -2 28.2646 1.89759   3
 -14  -1  -2 29.1461 1.91524   2
 -14   1  -2 30.1691 2.00055   3
  14   1   2 27.8575 1.79292   2
  15  -1   2 5.23421 0.99315   3
 -15  -1  -2 9.26392 1.12641   2
 -15   1  -2 6.79412 0.97648   3
 -15   1  -2 6.75542 0.77600   2
  15   1   2 7.76025 0.85553   2
  16  -1   2 -1.0776 0.90983   3
  16  -1   2 -0.6866 0.63278   2
 -16   1  -2 0.31776 0.67987   2
  16   1   2 0.56089 0.72695   2
 -16   1  -2 -0.5306 0.86178   3
  17  -1   2 3.10566 0.69427   2
 -17  -1  -2 1.25551 0.82656   2
 -17   1  -2 1.72918 0.80765   2
  18  -1   2 11.4841 1.00869   2
 -18  -1  -2 11.8448 1.14418   2
  18   1   2 11.7590 1.17992   2
 -18   1  -2 13.4156 1.10480   2
  19  -1   2 14.8839 1.16319   2
 -19   1  -2 13.8125 1.20500   2
  20  -1   2 14.3851 1.15734   2
  21  -2  -2 0.22449 0.64657   2
 -21   2   2 -0.8082 0.72975   2
  20  -2  -2 0.17404 0.62658   2
 -20   2   2 0.34633 0.69824   2
  19  -2  -2 0.46093 0.60688   2
 -19  -2   2 1.99369 1.07754   2
 -19   2   2 -1.3610 0.85559   3
 -19   2   2 -0.0445 0.69149   2
  19   2  -2 0.16191 0.79942   2
  18  -2  -2 8.76396 0.83564   2
 -18  -2   2 9.09425 1.15042   3
  18  -2  -2 8.38748 0.98814   3
 -18   2   2 9.00523 0.88835   2
 -16  -2   2 10.4602 0.97260   3
  16  -2  -2 14.8930 1.35646   3
  16  -2  -2 12.1146 0.99973   2
  16   2  -2 12.7528 1.11267   2
 -16   2   2 12.6839 1.04840   2
  16   2  -2 11.8179 1.16425   3
  15  -2  -2 9.00811 0.77898   2
  15  -2  -2 9.38210 1.08541   3
 -15  -2   2 8.55401 0.85610   3
 -15  -2   2 6.97203 0.98134   2
 -15   2   2 7.92801 0.79820   2
 -15   2   2 10.4261 1.00856   3
  15   2  -2 9.03484 0.98257   3
  15   2  -2 10.5578 0.95037   2
  14  -2  -2 0.00000 0.49704   2
  14  -2  -2 0.42087 0.83922   3
 -14  -2   2 0.72366 0.58179   3
 -14  -2   2 -0.3439 0.81882   2
 -14   2   2 0.18256 0.57837   2
 -14   2   2 0.63576 0.69943   3
  14   2  -2 0.38532 0.60559   3
  14   2  -2 1.43180 0.63853   2
 -13  -2   2 1.35426 0.81978   2
  13  -2  -2 1.09897 0.74847   3
  13  -2  -2 2.27214 0.52356   2
 -13  -2   2 0.95476 0.55611   3
  13   2  -2 1.27847 0.61596   2
  13   2  -2 2.03048 0.70383   3
 -13   2   2 1.74797 0.59383   2
 -13   2   2 1.39746 0.70960   3
  12  -2  -2 7.18033 0.66544   2
 -12  -2   2 7.23476 0.71000   3
 -12  -2   2 7.27905 0.87611   2
  12  -2  -2 6.48474 0.77328   3
 -12   2   2 7.70958 0.75577   2
  12   2  -2 7.41125 0.75222   2
 -12   2   2 7.92871 0.88442   3
  12   2  -2 5.90459 0.76644   3
 -11  -2   2 9.03450 0.73032   3
  11  -2  -2 10.4501 0.80337   2
 -11  -2   2 9.71748 0.85775   2
 -11  -2   2 11.0874 1.03536   1
 -11   2   2 9.54466 0.80966   2
  11   2  -2 8.25912 0.78114   1
 -11   2   2 11.0775 1.04190   1
  11   2  -2 10.8243 1.01103   1
 -11   2   2 9.79146 0.86709   3
  11   2  -2 10.1531 0.83431   2
  11   2  -2 9.97324 0.84938   3
 -10  -2   2 59.3601 3.53134   2
 -10  -2   2 62.3237 5.80236   1
 -10  -2   2 55.5953 3.40276   3
  10  -2  -2 53.6951 3.29937   3
 -10  -2   2 65.8840 6.13538   1
  10  -2  -2 58.5928 3.45562   2
 -10   2   2 64.2275 5.97905   1
 -10   2   2 59.3780 5.53682   1
  10   2  -2 63.4710 3.74946   2
  10   2  -2 56.1596 5.23572   1
 -10   2   2 61.4203 3.64349   2
  10   2  -2 64.3131 5.99369   1
  10   2  -2 58.2756 3.55976   3
  -9  -2   2 19.4078 1.28889   3
  -9  -2   2 21.0128 1.38272   2
   9  -2  -2 18.7561 1.75351   1
  -9  -2   2 21.4260 2.00338   1
  -9  -2   2 19.0162 1.77161   1
   9  -2  -2 19.8305 1.36039   3
   9   2  -2 22.1061 1.39196   2
  -9   2   2 19.8685 1.85037   1
   9   2  -2 19.0650 1.78189   1
  -9   2   2 19.8307 1.35334   3
  -9   2   2 20.6718 1.32358   2
   9   2  -2 20.7333 1.38423   3
   9   2  -2 19.0946 1.78298   1
  -9   2   2 19.7730 1.84281   1
  -8  -2   2 43.9535 2.63839   2
  -8  -2   2 44.0969 2.71623   3
   8  -2  -2 43.3472 2.69885   3
   8  -2  -2 40.4501 3.76700   1
   8  -2  -2 42.3927 3.95328   1
  -8  -2   2 42.4919 3.95967   1
  -8  -2   2 41.1646 3.83829   1
   8   2  -2 36.5608 3.41268   1
   8   2  -2 42.4620 2.51995   2
   8   2  -2 41.2967 3.84256   1
  -8   2   2 38.1117 2.28232   2
  -8   2   2 40.1909 2.50192   3
   8   2  -2 43.6299 2.70413   3
   7  -2  -2 217.505 20.2489   1
   7  -2  -2 240.772 14.4404   3
  -7  -2   2 232.036 21.6074   1
  -7  -2   2 230.508 21.4596   1
  -7  -2   2 234.170 14.0346   3
   7  -2  -2 253.804 23.6239   1
   7  -2  -2 227.507 13.1710   2
  -7  -2   2 234.696 13.6121   2
   7   2  -2 223.997 20.8522   1
   7   2  -2 236.341 22.0095   1
  -7   2   2 229.501 13.7450   3
   7   2  -2 227.443 13.1821   2
   6  -2  -2 3.93425 0.39788   2
  -6  -2   2 3.82241 0.36150   1
   6  -2  -2 4.31298 0.40906   1
   6  -2  -2 4.07451 0.50674   3
  -6  -2   2 4.72447 0.44901   1
  -6  -2   2 4.99275 0.50685   3
  -6   2   2 3.86990 0.48174   3
   6   2  -2 5.00688 0.47387   1
   6   2  -2 4.96131 0.45644   2
  -6   2   2 3.69269 0.36389   1
   6   2  -2 5.01866 0.47908   1
  -5  -2   2 0.74385 0.60305   2
   5  -2  -2 0.86596 0.29661   2
   5  -2  -2 0.54913 0.07921   1
   5  -2  -2 0.78776 0.34667   3
   5   2  -2 0.50064 0.09405   1
   5   2  -2 1.78387 0.36635   3
   5   2  -2 0.88847 0.10677   1
   5   2  -2 0.39565 0.30388   2
  -5   2   2 1.13554 0.39977   3
  -5   2   2 0.25333 0.31840   2
   4  -2  -2 214.742 20.0012   1
   4  -2  -2 187.203 10.8403   2
  -4  -2   2 179.014 16.6694   1
  -4  -2   2 184.551 11.0542   3
  -4  -2   2 191.013 17.7918   1
   4  -2  -2 209.754 19.5350   1
   4  -2  -2 183.538 11.0035   3
  -4   2   2 187.277 11.2057   3
  -4   2   2 211.639 19.6993   1
   4   2  -2 182.151 16.9647   1
   4   2  -2 175.260 10.1343   2
  -4   2   2 211.657 19.7043   1
   4   2  -2 186.741 11.1911   3
  -4   2   2 199.336 11.5473   2
   4   2  -2 205.015 19.0890   1
   3  -2  -2 1.58332 0.27772   3
   3  -2  -2 1.41804 0.23718   2
  -3  -2   2 1.12431 0.11753   1
  -3  -2   2 0.94481 0.27226   3
  -3  -2   2 0.35652 0.56872   2
  -3   2   2 1.23170 0.26280   2
  -3   2   2 0.82716 0.09945   1
   3   2  -2 0.90319 0.26661   3
   3   2  -2 1.52371 0.27199   2
   3   2  -2 1.09870 0.11797   1
  -3   2   2 1.14595 0.24723   3
  -1  -2   2 3.02208 0.30297   2
   1  -2  -2 3.05837 0.21881   2
   1  -2  -2 3.61855 0.32423   3
  -1  -2   2 3.34600 0.32101   1
  -1  -2   2 3.42607 0.32593   3
   1  -2  -2 4.39705 0.41257   1
  -1  -2   2 2.43086 0.23281   1
  -1   2   2 2.88547 0.28033   3
  -1   2   2 3.02898 0.28570   1
   1   2  -2 3.58051 0.30766   2
   1   2  -2 3.74292 0.33536   3
  -1   2   2 3.48989 0.24642   2
   0  -2   2 28.5938 2.66182   1
   0  -2   2 23.1356 1.37815   2
   0  -2   2 21.0269 1.30378   3
   0  -2  -2 21.5557 1.31958   3
   0  -2   2 23.8043 2.21301   1
   0  -2  -2 16.9772 0.99549   2
   0   2   2 20.9926 1.29160   3
   0   2  -2 20.7766 1.28554   3
   1  -2   2 22.5217 2.10358   1
  -1  -2  -2 18.9918 1.76444   1
  -1  -2  -2 23.8471 1.39051   2
  -1  -2  -2 20.5665 1.26400   3
   1  -2   2 18.6567 1.17024   3
   1  -2   2 19.1863 1.14812   2
  -1   2  -2 19.9315 1.86196   1
  -1   2  -2 19.2265 1.18776   3
  -1   2  -2 18.8085 1.13603   2
  -1   2  -2 19.6277 1.83396   1
   1   2   2 21.1814 1.97108   1
  -2  -2  -2 10.5842 0.68337   3
   2  -2   2 11.3555 0.73173   3
   2   2   2 11.5996 0.73497   3
  -2   2  -2 10.4696 0.66273   2
   2   2   2 10.2333 0.95826   1
  -2   2  -2 11.2334 0.73777   3
  -2   2  -2 11.1582 1.04354   1
   3  -2   2 194.618 11.2755   2
  -3  -2  -2 212.940 19.8223   1
  -3  -2  -2 214.793 19.9937   1
  -3   2  -2 184.323 10.6671   2
  -3   2  -2 221.808 20.6574   1
  -3   2  -2 223.181 13.3542   3
  -3   2  -2 190.997 17.7902   1
   3   2   2 207.886 19.3512   1
   3   2   2 178.743 16.6519   1
   4  -2   2 14.9847 1.40098   1
  -4  -2  -2 13.8527 1.29424   1
   4  -2   2 13.1211 0.86695   3
  -4  -2  -2 14.1988 0.90381   2
   4  -2   2 13.6772 1.27337   1
   4  -2   2 11.9841 0.77595   2
  -4  -2  -2 13.6708 0.86289   3
  -4  -2  -2 13.9615 1.30137   1
  -4   2  -2 13.4170 1.25342   1
  -4   2  -2 15.4804 1.44649   1
   4   2   2 14.7271 1.37827   1
  -4   2  -2 14.1403 0.92338   2
   4   2   2 14.5525 1.35682   1
   4   2   2 12.9251 0.84066   3
  -5  -2  -2 1.18477 0.30084   3
   5  -2   2 1.77977 0.37284   2
   5  -2   2 1.97106 0.20186   1
  -5  -2  -2 1.58033 0.15850   1
  -5  -2  -2 1.83997 0.29152   2
  -5   2  -2 0.86848 0.34234   2
  -5   2  -2 1.72595 0.36058   3
  -5   2  -2 1.46983 0.16179   1
   5   2   2 1.21758 0.24812   3
   5   2   2 1.77731 0.17444   1
   6  -2   2 75.4711 7.02609   1
   6  -2   2 81.7288 4.93945   3
  -6  -2  -2 73.2876 4.41370   3
  -6  -2  -2 89.7512 8.35394   1
   6  -2   2 79.0809 7.37115   1
   6  -2   2 75.8850 4.43092   2
  -6   2  -2 74.3549 4.50021   3
   6   2   2 80.0894 7.46490   1
  -6   2  -2 82.2244 4.81219   2
  -6   2  -2 80.5192 7.50294   1
   6   2   2 79.6041 4.79786   3
  -6   2  -2 86.7279 8.07438   1
   7  -2   2 0.25658 0.41058   3
  -7  -2  -2 0.42529 0.09106   1
   7  -2   2 0.61518 0.36749   2
  -7  -2  -2 0.53402 0.40124   2
   7  -2   2 0.27238 0.07407   1
  -7  -2  -2 0.29704 0.29956   3
  -7   2  -2 -0.1999 0.40934   2
   7   2   2 0.35593 0.08685   1
   7   2   2 1.07830 0.37746   3
  -7   2  -2 0.75278 0.41409   3
   7   2   2 0.67345 0.32105   2
  -8  -2  -2 -0.4220 0.40963   3
   8  -2   2 0.11170 0.10221   1
   8  -2   2 0.25482 0.37363   2
   8  -2   2 -0.1894 0.46891   3
  -8  -2  -2 -0.1136 0.41876   2
   8   2   2 0.38157 0.38465   2
  -8   2  -2 0.31802 0.09955   1
   8   2   2 0.20349 0.08419   1
   8   2   2 0.10145 0.44644   3
  -8   2  -2 -0.1902 0.47072   3
  -8   2  -2 -0.2520 0.42226   2
   9  -2   2 -0.5713 0.39491   2
   9  -2   2 0.11968 0.52667   3
  -9  -2  -2 0.19775 0.53158   2
  -9   2  -2 0.66097 0.50342   3
   9   2   2 0.33009 0.44695   3
  -9   2  -2 -0.7475 0.48127   2
   9   2   2 0.41938 0.45631   2
  10  -2   2 7.80074 0.67385   2
 -10  -2  -2 8.48623 0.78074   3
  10   2   2 7.28225 0.69736   2
 -10   2  -2 6.23243 0.69166   3
  10   2   2 6.04547 0.57504   1
 -10   2  -2 7.99765 0.73754   2
  11  -2   2 1.88609 0.47701   2
 -11  -2  -2 2.00087 0.56445   3
  11   2   2 0.07022 0.56633   2
  11   2   2 1.60505 0.55003   3
 -11   2  -2 1.92690 0.55500   2
 -11   2  -2 1.33481 0.60470   3
 -12  -2  -2 8.39080 0.82428   3
 -12  -2  -2 8.86101 0.89279   2
  12  -2   2 7.60331 0.83705   3
  12  -2   2 9.56439 0.75707   2
 -12   2  -2 8.75721 0.91666   3
 -12   2  -2 9.58183 0.82104   2
  12   2   2 8.45699 0.81469   3
  13  -2   2 -0.4454 0.86471   3
 -13  -2  -2 0.30944 0.62411   3
  13  -2   2 -0.0880 0.45616   2
 -13  -2  -2 -0.2292 0.71283   2
  13   2   2 0.40895 0.62817   2
 -13   2  -2 0.50951 0.76705   3
 -13   2  -2 -0.2754 0.48815   2
  14  -2   2 7.78681 0.76287   2
 -14  -2  -2 8.11109 0.96345   2
 -14   2  -2 7.08276 0.76396   2
 -14   2  -2 7.63749 0.96987   3
  14   2   2 7.39444 0.84440   2
  15  -2   2 11.7280 1.26164   3
  15  -2   2 13.0958 1.00318   2
 -15   2  -2 10.7952 1.09015   3
 -15   2  -2 10.9673 0.95695   2
  15   2   2 13.0899 1.17651   2
 -16  -2  -2 4.26312 0.93070   2
  16  -2   2 3.24816 0.98790   3
  16  -2   2 5.20010 0.70039   2
 -16   2  -2 4.13563 0.74300   2
 -16   2  -2 4.36520 0.92785   3
  16   2   2 3.42627 0.85710   2
 -17  -2  -2 0.06878 0.89798   2
  17  -2   2 -0.0449 0.59532   2
 -17   2  -2 0.04531 0.65247   2
 -17   2  -2 -0.0493 0.89494   3
  18  -2   2 3.34014 0.70214   2
 -18   2  -2 4.54570 0.84313   2
  19  -2   2 0.87661 0.64739   2
  20  -3  -2 6.96463 0.76337   2
 -20   3   2 6.72193 0.81944   2
  19  -3  -2 11.3465 0.93626   2
  19  -3  -2 10.5882 1.21343   3
 -19   3   2 10.7807 0.95617   2
  18  -3  -2 0.07805 0.88723   3
  18  -3  -2 -0.3932 0.52848   2
 -18   3   2 -0.5946 0.81112   3
 -18   3   2 -1.2416 0.63855   2
 -17  -3   2 8.21444 0.98212   3
  17  -3  -2 9.50855 1.10768   3
 -17   3   2 8.83639 0.82798   2
 -17   3   2 8.68150 0.97726   3
  17   3  -2 6.71541 1.15027   3
 -16  -3   2 3.61898 0.87193   3
  16  -3  -2 4.13566 0.95036   3
  16   3  -2 5.34883 1.03851   3
 -16   3   2 2.70674 0.60367   2
 -16   3   2 3.81318 0.74353   3
  16   3  -2 2.98229 0.89285   2
 -16   3   2 2.77247 0.84735   3
  15  -3  -2 32.4949 2.03665   2
  15  -3  -2 36.4234 2.44908   3
 -15  -3   2 34.1203 2.24722   3
 -15   3   2 33.8794 2.25939   3
  15   3  -2 32.9840 2.15214   2
  15   3  -2 34.6554 2.33727   3
 -15   3   2 31.7833 2.08558   2
  14  -3  -2 56.3738 3.37303   2
 -14  -3   2 53.3256 3.32500   3
  14  -3  -2 56.1145 3.49947   3
 -14   3   2 56.8646 3.53834   3
  14   3  -2 58.2498 3.53753   2
  13  -3  -2 144.840 8.43361   2
 -13  -3   2 154.743 9.33824   3
 -13   3   2 163.758 9.89970   3
  13   3  -2 148.575 8.68661   2
  13   3  -2 154.684 9.33987   3
  12  -3  -2 142.735 8.31525   2
 -12  -3   2 155.695 9.37901   3
 -12   3   2 144.117 8.71062   3
 -12   3   2 131.434 7.67382   2
  12   3  -2 164.548 9.92329   3
  11  -3  -2 173.309 10.0727   2
  11  -3  -2 192.477 11.5667   3
 -11   3   2 177.083 10.2814   2
  11   3  -2 201.595 12.1004   3
 -10  -3   2 215.430 12.9363   3
  10  -3  -2 209.153 12.5617   3
  10  -3  -2 198.055 11.5073   2
  10   3  -2 216.314 12.5600   2
 -10   3   2 210.623 12.6416   3
 -10   3   2 200.998 11.6664   2
  10   3  -2 220.853 13.2492   3
   9  -3  -2 6.90318 0.65360   1
  -9  -3   2 9.16573 0.76600   3
  -9  -3   2 6.90213 0.65445   1
   9  -3  -2 8.19411 0.75172   3
  -9  -3   2 7.84172 0.73513   1
   9  -3  -2 8.14236 0.76868   1
   9   3  -2 8.21878 0.72488   2
   9   3  -2 8.12445 0.73443   3
  -9   3   2 6.91178 0.65176   1
  -9   3   2 8.13714 0.75277   3
  -9   3   2 7.47571 0.70306   1
   8  -3  -2 279.290 25.9858   1
   8  -3  -2 316.496 18.3208   2
  -8  -3   2 288.689 17.2940   3
   8  -3  -2 304.155 28.3312   1
   8   3  -2 306.937 28.5965   1
  -8   3   2 316.559 18.3361   2
   8   3  -2 298.659 17.2903   2
  -8   3   2 282.023 26.2468   1
   8   3  -2 296.096 27.5772   1
   8   3  -2 316.954 18.9777   3
  -8   3   2 296.516 27.6151   1
   7  -3  -2 55.8170 3.29269   2
  -7  -3   2 47.1612 4.39817   1
   7  -3  -2 58.2919 3.56369   3
   7  -3  -2 52.3750 4.88075   1
  -7  -3   2 58.2960 3.55387   3
  -7  -3   2 50.2002 4.67591   1
   7  -3  -2 56.1030 5.22392   1
   7   3  -2 55.5209 3.39068   3
   7   3  -2 49.1294 4.57764   1
  -7   3   2 52.8816 4.92079   1
  -7   3   2 56.5066 3.33516   2
   7   3  -2 57.1365 5.32463   1
  -7   3   2 57.9878 3.54380   3
   7   3  -2 51.2779 3.01774   2
  -7   3   2 50.0145 4.65838   1
   6  -3  -2 322.184 18.6192   2
  -6  -3   2 338.510 20.2458   3
  -6  -3   2 325.881 30.3474   1
   6  -3  -2 340.036 20.3401   3
   6  -3  -2 300.998 28.0352   1
   6   3  -2 363.622 33.8545   1
   6   3  -2 288.876 26.9045   1
   6   3  -2 273.020 15.8093   2
   6   3  -2 320.687 19.1873   3
  -6   3   2 301.130 17.4190   2
  -6   3   2 295.789 27.5486   1
  -6   3   2 331.794 19.8568   3
  -5  -3   2 19.1445 1.37259   2
  -5  -3   2 21.3131 1.98798   1
   5  -3  -2 21.5441 1.37069   3
   5  -3  -2 18.3100 1.70530   1
   5  -3  -2 20.0704 1.21910   2
   5  -3  -2 18.1870 1.69763   1
  -5  -3   2 24.7991 1.56626   3
  -5   3   2 19.0234 1.77598   1
  -5   3   2 19.5030 1.20397   2
  -5   3   2 22.6108 1.43280   3
  -5   3   2 20.2501 1.88668   1
   5   3  -2 21.1151 1.97431   1
  -4  -3   2 125.316 11.6657   1
   4  -3  -2 152.648 14.2150   1
  -4  -3   2 131.957 12.2856   1
  -4  -3   2 96.8953 5.68249   2
   4  -3  -2 116.629 10.8656   1
   4  -3  -2 133.384 7.99732   3
   4   3  -2 130.552 7.83745   3
   4   3  -2 129.244 12.0322   1
  -4   3   2 125.444 11.6842   1
   4   3  -2 122.721 7.11072   2
  -4   3   2 148.605 8.60759   2
  -4   3   2 125.192 7.50701   3
   4   3  -2 108.241 10.0827   1
   3  -3  -2 453.501 26.1955   2
   3  -3  -2 429.321 25.6819   3
  -3  -3   2 431.711 40.1910   1
   3  -3  -2 458.875 42.7109   1
  -3  -3   2 428.963 24.7938   2
  -3  -3   2 429.087 25.6547   3
   3   3  -2 453.584 42.2382   1
   3   3  -2 415.658 24.8572   3
  -3   3   2 458.103 26.4799   2
   3   3  -2 464.432 43.2534   1
  -3   3   2 433.877 40.4176   1
  -3   3   2 492.981 45.9007   1
  -3   3   2 433.283 25.9080   3
   3   3  -2 432.029 24.9642   2
   2  -3  -2 529.212 30.5711   2
  -2  -3   2 498.915 29.8252   3
   2  -3  -2 488.125 29.1890   3
  -2  -3   2 517.018 29.8697   2
  -2  -3   2 507.664 47.2580   1
   2  -3  -2 483.539 45.0277   1
   2   3  -2 470.385 28.1275   3
   2   3  -2 502.356 46.7745   1
  -2   3   2 548.219 51.0361   1
  -2   3   2 480.075 28.6940   3
  -1  -3   2 583.510 54.3224   1
   1  -3  -2 410.012 38.1983   1
  -1  -3   2 567.332 33.9224   3
   1  -3  -2 619.581 57.6854   1
  -1  -3   2 596.353 34.4334   2
   1   3  -2 556.477 33.2595   3
   1   3  -2 585.895 33.8545   2
  -1   3   2 543.939 32.5144   3
  -1   3   2 643.873 59.9469   1
   0  -3   2 431.316 24.9240   2
   0  -3  -2 485.231 28.9965   3
   0  -3   2 525.882 48.9507   1
   0  -3  -2 505.229 47.0355   1
   0  -3   2 462.152 27.6372   3
   0   3  -2 468.847 28.0263   3
   0   3  -2 466.208 43.4083   1
   0   3  -2 423.132 24.4711   2
  -1  -3  -2 226.240 21.0589   1
   1  -3   2 277.344 16.5818   3
   1  -3   2 268.603 25.0110   1
   1  -3   2 312.565 18.0796   2
  -1  -3  -2 261.431 15.6528   3
  -1  -3  -2 201.827 18.8038   1
  -1   3  -2 270.474 16.1846   3
  -1   3  -2 234.675 21.8499   1
   1   3   2 273.143 25.4329   1
   1   3   2 239.630 14.3476   3
   2  -3   2 187.194 17.4446   1
   2  -3   2 199.508 11.5492   2
   2  -3   2 243.459 22.6563   1
  -2  -3  -2 220.564 13.2062   3
   2  -3   2 214.097 12.8191   3
  -2   3  -2 213.329 12.7778   3
  -2   3  -2 241.659 22.4949   1
   2   3   2 203.802 12.1936   3
  -2   3  -2 194.194 18.0884   1
   2   3   2 227.436 21.1707   1
  -2   3  -2 197.223 11.4300   2
  -3  -3  -2 152.097 9.12140   3
   3  -3   2 134.978 12.5720   1
   3  -3   2 138.654 8.33026   3
   3  -3   2 129.771 7.53297   2
   3  -3   2 155.221 14.4587   1
  -3   3  -2 144.102 13.4207   1
   3   3   2 131.326 7.88460   3
  -3   3  -2 130.473 7.57998   2
  -3   3  -2 131.883 12.2783   1
   3   3   2 139.367 12.9760   1
  -3   3  -2 141.714 8.49310   3
  -4  -3  -2 11.7471 1.10179   1
   4  -3   2 12.2835 0.84252   3
  -4  -3  -2 10.1522 0.70627   3
   4  -3   2 11.2522 0.75098   2
   4  -3   2 11.0075 1.03002   1
   4  -3   2 10.5026 0.98290   1
  -4   3  -2 11.2208 1.04657   1
   4   3   2 12.5474 0.83108   3
  -4   3  -2 10.8380 1.00941   1
  -4   3  -2 10.9571 0.76056   3
  -4   3  -2 10.8616 0.75080   2
   5  -3   2 1.62775 0.17440   1
   5  -3   2 2.13179 0.36585   2
  -5  -3  -2 1.81570 0.32908   3
  -5  -3  -2 2.51687 0.24958   1
   5  -3   2 2.12892 0.21424   1
   5  -3   2 1.35392 0.34763   3
   5   3   2 2.46895 0.24048   1
  -5   3  -2 1.60973 0.16880   1
   5   3   2 2.00531 0.30847   3
  -5   3  -2 2.36055 0.39611   2
  -5   3  -2 2.36927 0.23653   1
   6  -3   2 118.102 10.9946   1
  -6  -3  -2 127.715 11.8887   1
   6  -3   2 115.224 10.7325   1
  -6  -3  -2 115.800 6.97177   3
   6  -3   2 128.338 7.72024   3
  -6  -3  -2 112.980 10.5203   1
   6  -3   2 118.820 6.90587   2
  -6   3  -2 117.884 10.9820   1
  -6   3  -2 115.283 10.7384   1
   6   3   2 117.172 7.04207   3
  -6   3  -2 119.346 7.17193   3
   6   3   2 122.794 11.4401   1
   6   3   2 121.111 11.2733   1
  -7  -3  -2 153.618 9.22413   3
   7  -3   2 137.109 7.98439   2
   7  -3   2 141.713 13.2018   1
  -7  -3  -2 150.940 14.0551   1
   7   3   2 145.721 13.5695   1
  -7   3  -2 133.344 12.4246   1
  -7   3  -2 152.675 9.16440   3
  -7   3  -2 139.094 12.9510   1
   7   3   2 138.901 12.9341   1
  -8  -3  -2 110.517 10.2900   1
   8  -3   2 121.857 7.36022   3
  -8  -3  -2 139.113 12.9478   1
   8  -3   2 102.971 9.59400   1
   8   3   2 110.802 10.3235   1
  -8   3  -2 113.117 6.81906   3
   8   3   2 115.655 6.96682   3
  -8   3  -2 109.043 6.37311   2
   8   3   2 111.376 10.3690   1
   9  -3   2 209.786 12.6037   3
  -9  -3  -2 227.954 13.6533   3
  -9   3  -2 204.444 12.2629   3
  -9   3  -2 209.932 12.1779   2
  10  -3   2 240.575 14.4410   3
 -10  -3  -2 200.565 12.0515   3
  10  -3   2 211.523 12.2950   2
  10   3   2 220.940 13.2611   3
 -10   3  -2 201.183 11.6830   2
 -10   3  -2 225.801 13.5552   3
  11  -3   2 161.610 9.40854   2
  11  -3   2 169.781 10.2199   3
 -11   3  -2 157.657 9.20728   2
 -11   3  -2 161.251 9.72839   3
  12  -3   2 55.8070 3.33528   2
  12  -3   2 56.3211 3.48283   3
 -12  -3  -2 48.8837 3.04579   3
 -12   3  -2 58.7749 3.65127   3
 -12   3  -2 59.3210 3.55496   2
  13  -3   2 47.4194 2.86063   2
 -13   3  -2 47.3984 3.04679   3
 -13   3  -2 45.9425 2.78681   2
  14  -3   2 18.9171 1.26039   2
  14  -3   2 17.2379 1.38553   3
 -14   3  -2 18.2956 1.26107   2
  15  -3   2 -0.2373 0.52197   2
 -15   3  -2 -0.1222 0.58660   2
 -15   3  -2 1.40011 0.90095   3
  16  -3   2 1.24941 0.59120   2
  16  -3   2 2.70963 0.97457   3
 -16   3  -2 0.45718 0.62705   2
 -16   3  -2 1.87460 0.87254   3
  17  -3   2 3.20782 1.04141   3
  17  -3   2 2.54727 0.63252   2
 -17   3  -2 2.22010 0.65202   2
  18  -3   2 4.93847 0.68297   2
 -18   3  -2 5.25944 0.76078   2
  19  -3   2 18.6194 1.33117   2
 -19   3  -2 19.3382 1.35341   2
 -19   4   2 9.86814 0.97648   2
  18  -4  -2 20.6739 1.39407   2
  18  -4  -2 20.2053 1.64279   3
 -18   4   2 19.9689 1.40213   2
 -18   4   2 19.5594 1.45211   3
  17  -4  -2 31.6595 1.99106   2
  17  -4  -2 31.0852 2.15425   3
 -17   4   2 30.6871 2.09311   3
 -17   4   2 28.9591 1.88471   2
  16  -4  -2 61.3712 3.66431   2
 -16  -4   2 61.1788 3.84273   3
  16  -4  -2 71.1151 4.45883   3
 -16   4   2 65.0373 4.05510   3
 -16   4   2 59.8942 3.60335   2
 -15  -4   2 21.4886 1.60227   3
  15  -4  -2 17.8090 1.35579   3
  15  -4  -2 18.8649 1.31371   2
 -15   4   2 19.1195 1.46510   3
 -15   4   2 21.1034 1.47061   2
  15   4  -2 18.1202 1.46223   3
  13  -4  -2 12.0449 0.93265   2
 -13  -4   2 13.4100 1.12062   3
 -13   4   2 12.9022 1.02686   2
 -13   4   2 11.0829 1.07827   3
  12  -4  -2 8.06651 0.81417   3
  12  -4  -2 8.42668 0.75101   2
 -12   4   2 7.59458 0.75635   2
  12   4  -2 7.01837 0.92591   3
  11  -4  -2 1.34358 0.64833   3
  11  -4  -2 1.35419 0.48756   2
 -11  -4   2 1.77298 0.58786   3
  11   4  -2 1.04331 0.67826   3
 -11   4   2 1.33542 0.68213   3
 -11   4   2 1.55665 0.54275   2
  10  -4  -2 45.3564 2.83960   3
 -10  -4   2 46.8380 2.92037   3
  10  -4  -2 44.1749 2.66051   2
 -10   4   2 50.0060 3.11602   3
  -9  -4   2 272.820 16.3598   3
   9  -4  -2 279.937 16.7747   3
   9  -4  -2 276.893 16.0608   2
   9   4  -2 287.024 17.2114   3
  -9   4   2 276.526 16.5670   3
  -9   4   2 281.538 16.3201   2
  -8  -4   2 129.910 7.81647   3
   8  -4  -2 134.377 8.10780   3
   8  -4  -2 140.326 8.17308   2
  -8   4   2 131.469 7.92966   3
  -8   4   2 158.306 9.21781   2
   8   4  -2 129.761 7.81944   3
   7  -4  -2 166.962 9.69564   2
   7  -4  -2 154.002 9.25356   3
  -7  -4   2 160.040 9.61830   3
   7   4  -2 177.830 16.5588   1
  -7   4   2 167.920 10.0908   3
  -7   4   2 167.944 9.76553   2
   7   4  -2 145.511 8.75552   3
  -7   4   2 154.779 14.4147   1
   6  -4  -2 126.517 11.7821   1
   6  -4  -2 154.620 9.29012   3
  -6  -4   2 176.811 10.6155   3
  -6  -4   2 131.251 12.2244   1
   6  -4  -2 169.439 15.7778   1
   6  -4  -2 174.901 10.1584   2
   6   4  -2 167.301 10.0494   3
   6   4  -2 117.633 10.9554   1
  -6   4   2 150.790 9.07155   3
   5  -4  -2 331.634 30.8806   1
  -5  -4   2 409.902 24.5171   3
  -5  -4   2 409.424 23.6559   2
   5  -4  -2 420.005 25.1349   3
   5   4  -2 383.003 35.6648   1
  -5   4   2 428.745 25.6560   3
   5   4  -2 418.680 38.9959   1
   5   4  -2 435.147 26.0384   3
  -5   4   2 386.883 22.3711   2
   4  -4  -2 280.132 26.0896   1
   4  -4  -2 335.816 19.4112   2
  -4  -4   2 265.800 15.3745   2
   4  -4  -2 339.808 20.3405   3
  -4  -4   2 292.971 17.5421   3
   4  -4  -2 276.618 25.7713   1
  -4  -4   2 283.889 26.4338   1
  -4   4   2 278.183 16.0961   2
   4   4  -2 211.654 19.7200   1
  -4   4   2 320.484 19.1671   3
   4   4  -2 281.189 26.1831   1
  -3  -4   2 12.2727 1.15120   1
   3  -4  -2 12.4723 0.87340   3
  -3  -4   2 11.5442 0.78493   2
   3  -4  -2 12.2601 0.80605   2
   3  -4  -2 11.5963 1.08177   1
   3   4  -2 14.2310 0.97523   3
  -3   4   2 12.5652 0.87241   3
  -3   4   2 11.5863 1.08158   1
   2  -4  -2 33.0835 2.04960   3
   2  -4  -2 25.1215 1.48868   2
  -2  -4   2 25.9517 2.41930   1
  -2  -4   2 26.8998 2.50465   1
   2  -4  -2 24.7981 2.31261   1
  -2  -4   2 30.9895 1.91379   3
   2   4  -2 26.9387 2.50729   1
  -2   4   2 29.4404 2.74168   1
   2   4  -2 23.1127 1.39303   2
   2   4  -2 29.2088 1.80090   3
  -2   4   2 29.1411 1.81201   3
   1  -4  -2 5.64328 0.53284   1
   1  -4  -2 5.29924 0.48039   3
  -1  -4   2 3.73467 0.34354   2
  -1  -4   2 5.34579 0.50176   3
   1   4  -2 3.74279 0.31982   2
  -1   4   2 5.12111 0.48295   1
   1   4  -2 3.59108 0.33836   1
   1   4  -2 5.77712 0.51138   3
   1   4  -2 5.89052 0.55194   1
  -1   4   2 5.07810 0.47494   1
   0  -4   2 18.4482 1.20519   3
   0  -4  -2 18.4666 1.72136   1
   0  -4  -2 16.9851 1.09570   3
   0   4   2 16.3580 1.05371   3
   0   4  -2 14.7487 1.37922   1
   0   4  -2 20.1296 1.26242   2
   0   4  -2 18.4239 1.18007   3
  -1  -4  -2 62.5627 5.82579   1
  -1  -4  -2 76.9258 4.64400   3
   1  -4   2 76.4744 7.12164   1
   1  -4   2 75.8974 4.57772   3
   1  -4   2 77.9399 4.55070   2
  -1   4  -2 68.4379 6.37085   1
  -1   4  -2 77.7534 4.68803   3
   1   4   2 73.4527 4.43744   3
   2  -4   2 172.168 9.98986   2
   2  -4   2 155.882 14.5210   1
   2  -4   2 158.584 14.7682   1
   2  -4   2 168.138 10.0894   3
  -2  -4  -2 173.689 10.4295   3
   2   4   2 173.189 16.1247   1
  -2   4  -2 139.173 12.9622   1
  -2   4  -2 174.334 10.1104   2
  -2   4  -2 157.824 14.7017   1
  -2   4  -2 165.367 9.91244   3
   2   4   2 193.530 11.6132   3
  -3  -4  -2 259.630 24.1893   1
   3  -4   2 311.630 18.0297   2
  -3  -4  -2 333.610 19.9652   3
  -3  -4  -2 249.459 23.2400   1
   3  -4   2 301.512 28.0722   1
   3  -4   2 314.459 29.2671   1
  -3   4  -2 300.859 28.0171   1
   3   4   2 332.462 19.8906   3
  -3   4  -2 284.449 26.4932   1
   3   4   2 264.949 24.6710   1
  -3   4  -2 323.388 18.7058   2
  -4  -4  -2 241.389 14.4514   3
   4  -4   2 229.248 13.7314   3
   4  -4   2 202.386 18.8442   1
  -4  -4  -2 245.458 22.8464   1
   4  -4   2 250.642 14.5314   2
   4  -4   2 227.208 21.1631   1
  -4   4  -2 231.573 13.8876   3
  -4   4  -2 266.206 24.7880   1
  -4   4  -2 268.268 15.5403   2
  -4   4  -2 190.751 17.7725   1
   4   4   2 223.770 20.8414   1
   4   4   2 227.645 13.6345   3
   5  -4   2 187.120 10.8506   2
  -5  -4  -2 194.135 11.6464   3
   5  -4   2 190.693 11.4372   3
   5  -4   2 173.977 16.2064   1
  -5  -4  -2 173.235 16.1354   1
   5   4   2 175.847 10.5441   3
   5   4   2 167.916 15.6437   1
  -5   4  -2 189.567 17.6470   1
  -5   4  -2 166.990 15.5512   1
  -5   4  -2 187.548 11.2528   3
  -5   4  -2 187.064 10.8476   2
  -6  -4  -2 207.442 12.4432   3
   6  -4   2 212.742 12.7609   3
   6  -4   2 208.141 12.0665   2
   6   4   2 176.495 16.4395   1
  -6   4  -2 216.121 12.5394   2
   6   4   2 149.515 13.9313   1
   7  -4   2 170.080 10.2120   3
   7  -4   2 157.052 9.13356   2
  -7   4  -2 156.023 9.09558   2
   7   4   2 162.912 9.77787   3
  -7   4  -2 157.572 9.47123   3
   8  -4   2 112.936 6.60355   2
  -8   4  -2 109.345 6.41896   2
  -8   4  -2 94.4268 5.70533   3
   9  -4   2 3.60894 0.51035   2
   9  -4   2 3.48008 0.61373   3
  -9  -4  -2 4.85337 0.61249   3
  -9   4  -2 4.27092 0.57757   2
   9   4   2 4.17408 0.56499   3
  -9   4  -2 4.21359 0.61660   3
 -10  -4  -2 -0.2705 0.52084   3
  10  -4   2 0.59093 0.50429   2
  10  -4   2 1.62618 0.60475   3
 -10   4  -2 0.79770 0.55624   2
 -10   4  -2 -0.4636 0.58651   3
 -11  -4  -2 0.06837 0.52650   3
  11  -4   2 0.04308 0.52108   2
  11  -4   2 -0.7997 0.67280   3
 -11   4  -2 0.13114 0.57914   2
 -11   4  -2 -0.5639 0.64623   3
  12  -4   2 21.6393 1.44601   2
  12  -4   2 22.8215 1.59991   3
 -12   4  -2 18.9464 1.38257   3
 -12   4  -2 21.0193 1.43524   2
  13  -4   2 29.6259 1.85582   2
 -13   4  -2 29.9257 1.95483   2
 -13   4  -2 30.0787 1.90330   2
  14  -4   2 28.9461 1.94294   3
  14  -4   2 34.7167 2.13468   2
 -14   4  -2 30.3757 2.04503   3
  15  -4   2 31.4772 1.95584   2
  15  -4   2 27.7551 1.91648   3
  16  -4   2 36.9144 2.28791   2
  16  -4   2 39.2429 2.67049   3
 -16   4  -2 37.2177 2.52713   3
 -17   4  -2 17.7630 1.28964   2
  17  -5  -2 2.98147 1.00704   3
 -17   5   2 -0.5170 0.85314   3
  16  -5  -2 0.55016 0.63383   2
  16  -5  -2 0.24860 0.71111   3
 -16   5   2 0.12842 0.76294   3
 -16   5   2 0.29776 0.58806   2
  15  -5  -2 5.36429 0.75751   2
  15  -5  -2 5.20537 0.79934   3
 -15   5   2 7.14470 0.80153   2
 -15   5   2 5.57323 0.84502   3
 -14  -5   2 0.78559 0.70713   3
  14   5  -2 -0.3332 0.60231   3
 -14   5   2 0.90278 0.73183   3
 -14   5   2 0.71437 0.62936   2
 -13  -5   2 22.2531 1.57411   3
  13  -5  -2 23.8776 1.68035   3
 -13   5   2 25.8041 1.70550   2
  13   5  -2 21.0451 1.49008   3
  12  -5  -2 32.6463 2.13659   3
 -12  -5   2 32.0318 2.09725   3
 -12   5   2 34.3716 2.26385   3
 -12   5   2 29.5501 1.89714   2
  11  -5  -2 6.99547 0.77989   3
  11  -5  -2 5.55469 0.67641   2
 -11   5   2 4.04565 0.67756   3
  11   5  -2 4.89436 0.68602   3
 -10  -5   2 6.97193 0.81781   3
  10  -5  -2 6.56597 0.67706   2
  10  -5  -2 6.19416 0.75479   3
 -10   5   2 5.45047 0.79322   3
   9  -5  -2 8.60788 0.79181   3
   9  -5  -2 9.62434 0.80886   2
  -9  -5   2 9.11898 0.83663   3
  -9   5   2 8.43812 0.79429   3
  -9   5   2 10.0226 0.92841   2
   9   5  -2 8.71670 0.82260   3
  -8  -5   2 1.27029 0.52112   3
   8  -5  -2 1.41047 0.50781   2
   8  -5  -2 0.85565 0.51775   3
  -8   5   2 -0.0214 0.51694   3
  -8   5   2 1.34591 0.61007   2
   8   5  -2 1.28630 0.54620   3
  -7  -5   2 -0.0877 0.53057   3
   7  -5  -2 -0.1286 0.51879   3
   7  -5  -2 -0.1306 0.47641   2
  -7   5   2 0.10608 0.49016   3
   7   5  -2 0.76191 0.52688   3
  -7   5   2 0.77954 0.53885   2
   6  -5  -2 0.17874 0.46333   2
  -6  -5   2 0.93689 0.51536   3
   6  -5  -2 0.04213 0.44030   3
  -6   5   2 0.68519 0.43402   3
   6   5  -2 0.06478 0.42758   3
  -6   5   2 0.02146 0.51930   2
   5  -5  -2 4.40616 0.51035   2
  -5  -5   2 3.56156 0.51635   3
   5  -5  -2 3.74384 0.53237   3
   5   5  -2 3.45150 0.48641   3
  -5   5   2 3.91293 0.54393   3
  -4  -5   2 12.8424 0.90906   3
   4   5  -2 12.2869 0.85670   3
  -4   5   2 12.9987 0.93061   3
   3  -5  -2 1.00372 0.39111   3
  -3  -5   2 1.48137 0.41319   3
  -3   5   2 1.00844 0.40131   3
   2  -5  -2 31.1053 1.94978   3
  -2  -5   2 30.8558 1.87144   2
   2   5  -2 30.5130 1.91610   3
  -1  -5   2 67.3820 3.95946   2
   1  -5  -2 68.4624 4.15395   3
  -1  -5   2 70.2003 4.25546   3
   1   5  -2 70.6424 4.27610   3
  -1   5   2 68.2391 4.14848   3
   0  -5   2 16.2768 1.04954   2
   0  -5   2 19.3309 1.25263   3
   0  -5  -2 17.4673 1.16021   3
   0   5   2 18.6501 1.22765   3
   0   5  -2 19.4768 1.26205   3
   1  -5   2 21.4297 1.37369   3
  -1  -5  -2 21.2312 1.39973   3
   1  -5   2 20.1117 1.28781   2
   1   5   2 19.4435 1.24952   3
  -1   5  -2 20.4215 1.33455   3
  -1   5  -2 20.9730 1.34003   2
   2  -5   2 5.12237 0.53204   2
   2  -5   2 5.95735 0.58138   3
  -2  -5  -2 6.00999 0.58310   3
  -2   5  -2 5.64585 0.56821   2
   2   5   2 6.09689 0.58362   3
  -2   5  -2 6.02816 0.56881   3
   3  -5   2 5.24309 0.55772   3
  -3   5  -2 4.68376 0.52272   3
   3   5   2 5.40539 0.53044   3
   4  -5   2 14.7830 1.03115   3
  -4  -5  -2 13.0412 0.94286   3
  -4   5  -2 15.6712 1.06660   3
  -4   5  -2 13.9526 0.99608   2
   4   5   2 13.5820 0.95691   3
   5  -5   2 0.42991 0.47297   3
  -5  -5  -2 1.08249 0.50385   3
   5   5   2 0.85926 0.42765   3
  -5   5  -2 1.19895 0.48601   2
  -5   5  -2 0.46475 0.46261   3
   6  -5   2 17.6161 1.22031   3
   6  -5   2 17.5895 1.20565   2
  -6   5  -2 18.7092 1.28096   2
   6   5   2 16.9025 1.16251   3
  -6   5  -2 16.8119 1.16953   3
  -7  -5  -2 2.21314 0.54372   3
   7  -5   2 1.36685 0.48260   2
   7  -5   2 1.28112 0.56380   3
  -7   5  -2 1.30993 0.51956   2
  -8  -5  -2 1.53785 0.57942   3
   8  -5   2 0.93133 0.68308   3
   8  -5   2 0.58786 0.47660   2
  -8   5  -2 1.20470 0.56451   3
  -8   5  -2 1.70347 0.55354   2
   8   5   2 0.56861 0.62556   3
   9  -5   2 14.6167 1.04582   2
   9  -5   2 14.3235 1.14798   3
  -9  -5  -2 14.1384 1.08628   3
  -9   5  -2 13.6464 1.06534   2
   9   5   2 12.7588 0.98108   3
  -9   5  -2 13.4416 1.02775   3
  10  -5   2 1.03102 0.53075   2
  10  -5   2 1.51349 0.59647   3
 -10  -5  -2 3.51320 0.66898   3
 -10   5  -2 1.83198 0.60651   2
 -10   5  -2 1.43410 0.61633   3
  11  -5   2 8.40528 0.83411   2
 -11   5  -2 9.68694 0.91409   2
  12  -5   2 13.0927 1.02994   2
  12  -5   2 10.9011 1.00466   3
 -12   5  -2 13.1325 1.07444   2
 -12   5  -2 12.9029 1.12085   3
  13  -5   2 7.90104 0.83666   3
  13  -5   2 6.75014 0.71607   2
 -13   5  -2 7.11940 0.77373   2
 -13   5  -2 6.65716 0.77556   3
  14  -5   2 1.31164 0.57566   2
  14  -5   2 0.14225 0.80856   3
 -14   5  -2 0.12014 0.62286   2
 -14   5  -2 -0.4523 0.70705   3
  15  -5   2 1.48655 0.65946   3
  15  -5   2 1.74466 0.57429   2
 -15   5  -2 0.78270 0.59383   2
 -16   5  -2 2.02197 0.75225   2
  15  -6  -2 4.84733 0.83086   3
 -15   6   2 3.22984 0.82834   3
  14  -6  -2 5.20926 0.86241   3
 -14   6   2 5.91547 0.79766   3
  13  -6  -2 1.21092 0.67868   3
 -13   6   2 1.09725 0.76104   3
  12  -6  -2 0.73798 0.63429   3
 -12  -6   2 -0.0464 0.68895   3
 -12   6   2 -0.6920 0.76132   3
  12   6  -2 0.53473 0.71617   3
 -11  -6   2 1.33284 0.67104   3
  11  -6  -2 1.38102 0.61264   3
  11   6  -2 0.84517 0.67852   3
 -11   6   2 -0.1067 0.65753   3
  10  -6  -2 6.64044 0.76940   3
 -10  -6   2 7.84808 0.86859   3
 -10   6   2 6.78014 0.76355   3
  -9  -6   2 3.28698 0.70392   3
   9  -6  -2 2.95036 0.64450   3
  -9   6   2 3.27371 0.62025   3
   9   6  -2 3.73462 0.64507   3
   8  -6  -2 8.65397 0.86402   3
  -8  -6   2 9.06975 0.88384   3
  -8   6   2 11.0927 0.97871   3
   8   6  -2 8.91035 0.84895   3
  -7  -6   2 7.35664 0.76473   3
   7  -6  -2 7.10869 0.77074   3
   7   6  -2 6.52601 0.69240   3
  -7   6   2 5.52603 0.69651   3
   6  -6  -2 12.7942 1.00479   3
  -6  -6   2 12.6261 0.97340   3
  -6   6   2 12.1780 0.96123   3
   6   6  -2 13.9291 1.04840   3
  -5  -6   2 10.7981 0.88498   3
   5   6  -2 10.5932 0.86657   3
  -5   6   2 10.9716 0.87118   3
   4  -6  -2 17.9002 1.26387   3
  -4  -6   2 19.8313 1.36968   3
   4   6  -2 19.8934 1.34742   3
   3  -6  -2 9.24984 0.81208   3
  -3  -6   2 9.75595 0.80863   3
   3   6  -2 10.2403 0.81043   3
  -3   6   2 10.7980 0.84425   3
   2  -6  -2 0.48576 0.48795   3
  -2  -6   2 1.44885 0.50097   3
  -2   6   2 0.91725 0.39897   3
   1  -6  -2 5.77766 0.63364   3
  -1   6   2 6.47833 0.69005   3
   1   6  -2 5.91586 0.58149   3
   0  -6   2 6.26233 0.60555   3
   0  -6  -2 6.42217 0.63242   3
   0   6   2 6.47916 0.64627   3
   0   6  -2 5.59013 0.57250   3
  -1  -6  -2 18.8311 1.27495   3
   1  -6   2 20.5206 1.36504   3
   1   6   2 19.3801 1.30186   3
  -1   6  -2 18.9087 1.25190   3
   2  -6   2 11.4243 0.86617   3
  -2  -6  -2 12.8664 0.96707   3
   2   6   2 12.0207 0.87817   3
  -2   6  -2 11.8795 0.86750   3
   3  -6   2 30.4191 1.92869   3
  -3  -6  -2 27.5336 1.78334   3
  -3   6  -2 30.2873 1.93844   3
   3   6   2 26.1687 1.67332   3
   4  -6   2 21.6608 1.44484   3
  -4  -6  -2 22.1973 1.48270   3
   4  -6   2 22.0731 1.43801   2
  -4   6  -2 22.3193 1.49088   3
   4   6   2 20.5960 1.35285   3
   5  -6   2 5.59372 0.61330   3
  -5  -6  -2 7.19611 0.78733   3
   5  -6   2 5.40619 0.63848   2
  -5   6  -2 5.78120 0.59589   3
  -5   6  -2 6.13009 0.67650   2
   6  -6   2 10.9289 0.89836   3
   6  -6   2 9.06023 0.76276   2
  -6  -6  -2 11.7547 0.96822   3
  -6   6  -2 9.89579 0.82735   3
  -6   6  -2 10.5654 0.89138   2
   6   6   2 10.2973 0.87582   3
  -7  -6  -2 5.87162 0.75619   3
   7  -6   2 4.48517 0.63047   2
   7  -6   2 7.33924 0.77709   3
  -7   6  -2 5.44856 0.73430   2
  -7   6  -2 6.43135 0.77086   3
   8  -6   2 -0.4330 0.54867   2
   8  -6   2 -0.2659 0.53636   3
  -8  -6  -2 0.25251 0.55561   3
  -8   6  -2 0.63278 0.65611   2
   8   6   2 0.93653 0.57240   3
  -9   6  -2 -0.2440 0.68317   3
  -9   6  -2 0.58896 0.70275   2
  10  -6   2 -0.1576 0.61926   3
  10  -6   2 -0.2347 0.58989   2
 -10   6  -2 -0.3676 0.72247   2
 -10   6  -2 -1.3487 0.58379   3
  11  -6   2 -0.5926 0.72715   3
  11  -6   2 -0.0653 0.60223   2
 -11   6  -2 -0.0909 0.62527   3
 -11   6  -2 1.03976 0.72372   2
  12  -6   2 2.42963 0.58421   2
  12  -6   2 0.74489 0.71710   3
 -12   6  -2 2.56204 0.64572   2
 -12   6  -2 1.83044 0.65091   2
 -12   6  -2 4.06214 0.76615   3
  13  -6   2 4.33458 0.76928   3
 -13   6  -2 3.77280 0.77173   3
  12  -7  -2 15.8624 1.31256   3
 -12   7   2 16.0269 1.29322   3
  11  -7  -2 5.58655 0.83615   3
 -11   7   2 6.85978 0.89645   3
  10  -7  -2 4.82221 0.76837   3
 -10   7   2 5.07864 0.80534   3
   9  -7  -2 19.0290 1.36459   3
  -9  -7   2 20.1360 1.44543   3
  -9   7   2 20.9784 1.46183   3
   8  -7  -2 6.28258 0.73913   3
  -8   7   2 5.79417 0.70596   3
   8   7  -2 5.31486 0.78917   3
   7  -7  -2 -0.2348 0.61054   3
  -7  -7   2 0.89067 0.54968   3
  -7   7   2 -0.0432 0.54633   3
   7   7  -2 0.54325 0.57375   3
  -6  -7   2 1.43139 0.58761   3
   6   7  -2 1.13322 0.54105   3
  -6   7   2 1.83980 0.62104   3
  -5  -7   2 18.3825 1.28845   3
   5  -7  -2 18.6779 1.31015   3
   5   7  -2 15.9971 1.13638   3
   4  -7  -2 8.62183 0.76222   3
  -4  -7   2 9.30790 0.79353   3
  -4   7   2 9.24683 0.80614   3
   4   7  -2 7.99802 0.72419   3
  -3  -7   2 11.5807 0.89666   3
   3  -7  -2 11.5615 0.95194   3
   3   7  -2 13.5499 1.05581   3
  -3   7   2 11.9888 0.90345   3
  -2  -7   2 25.4057 1.66551   3
   2  -7  -2 25.6822 1.69335   3
   2   7  -2 25.7203 1.65299   3
  -2   7   2 23.8293 1.55447   3
  -1  -7   2 29.1310 1.87857   3
   1  -7  -2 30.1976 1.94614   3
  -1   7   2 29.3009 1.90458   3
   0  -7   2 20.5139 1.38072   3
   0  -7  -2 19.1141 1.31763   3
   0   7   2 19.2103 1.30390   3
   0   7  -2 21.1455 1.41308   3
  -1  -7  -2 6.96013 0.70083   3
  -1   7  -2 7.52619 0.69434   3
   1   7   2 7.60941 0.75506   3
   2  -7   2 7.90077 0.75841   3
  -2  -7  -2 6.91782 0.70694   3
   2   7   2 9.44545 0.81778   3
  -2   7  -2 7.88140 0.74925   3
   3  -7   2 13.3721 1.02802   3
  -3   7  -2 13.6234 1.02134   3
   3   7   2 13.3233 1.02097   3
  -4  -7  -2 6.74833 0.71966   3
   4  -7   2 7.82245 0.73598   3
  -4   7  -2 6.99547 0.69359   3
  -5  -7  -2 0.55859 0.54625   3
   5  -7   2 0.28047 0.54592   3
   5   7   2 1.00733 0.55411   3
  -5   7  -2 0.25871 0.52181   3
   6  -7   2 4.87689 0.63843   3
  -6  -7  -2 5.34844 0.72407   3
  -6   7  -2 5.64127 0.69757   3
   6   7   2 4.92916 0.62690   3
   7  -7   2 3.55681 0.67650   3
  -7   7  -2 5.35312 0.74230   3
   8  -7   2 9.68171 0.93824   3
  -8   7  -2 8.48190 0.81832   3
   9  -7   2 26.1512 1.79430   3
 -10   7  -2 14.8172 1.22433   3
   6  -8  -2 2.21194 0.65521   3
  -6   8   2 2.09656 0.64207   3
   5  -8  -2 11.5344 0.99660   3
  -5   8   2 12.2590 1.03652   3
  -4  -8   2 3.28684 0.57107   3
   4  -8  -2 3.47906 0.66080   3
  -4   8   2 4.07140 0.67198   3
   4   8  -2 2.71526 0.55870   3
   3  -8  -2 1.02997 0.56660   3
  -3  -8   2 2.26190 0.50694   3
  -3   8   2 1.86456 0.52426   3
   3   8  -2 1.82499 0.56693   3
  -2  -8   2 0.19007 0.53439   3
   2  -8  -2 0.50526 0.50954   3
   2   8  -2 -0.0864 0.54676   3
  -2   8   2 -0.2461 0.58653   3
   1  -8  -2 0.15275 0.57616   3
  -1  -8   2 0.15110 0.49871   3
   1   8  -2 0.50095 0.48223   3
  -1   8   2 -0.0855 0.49383   3
   0  -8   2 0.38788 0.45043   3
   0  -8  -2 0.81235 0.58797   3
   0   8   2 0.60927 0.55060   3
   0   8  -2 -0.3045 0.50251   3
   1  -8   2 0.79646 0.54469   3
   1   8   2 0.83587 0.56591   3
  -2   8  -2 10.1193 0.82363   3
   3  -8   2 7.64628 0.74335   3
  -3   8  -2 6.40624 0.67723   3
   4  -8   2 0.76276 0.55946   3
  -4   8  -2 2.66052 0.58542   3
   5  -8   2 2.31892 0.63200   3
  -5   8  -2 2.67469 0.64375   3
 -21   0   3 -0.2427 0.99139   2
  21   0  -3 0.15376 0.83510   2
  20   0  -3 0.35444 0.94698   3
 -20   0   3 1.05651 0.84268   3
  20   0  -3 0.18215 0.70826   2
 -20   0   3 0.94379 0.82843   2
 -19   0   3 0.05194 0.85710   3
  19   0  -3 -0.0254 1.00678   3
 -19   0   3 -0.1590 0.78489   2
  19   0  -3 -0.8053 0.67004   2
  18   0  -3 -0.2047 0.70732   2
 -18   0   3 0.55891 0.79250   2
  18   0  -3 0.34411 0.83826   3
 -17   0   3 -0.6046 0.80374   3
  17   0  -3 0.34438 0.83894   3
 -17   0   3 -0.3112 0.64016   2
  16   0  -3 -1.1058 0.85709   3
 -16   0   3 -0.2780 0.69391   2
 -16   0   3 1.32265 0.82365   3
 -15   0   3 -0.1006 0.77481   3
  15   0  -3 -0.2502 0.77065   3
  15   0  -3 -0.2578 0.56711   2
  14   0  -3 -0.3977 0.60167   3
  14   0  -3 0.02286 0.52674   2
 -14   0   3 0.30465 0.69824   3
  13   0  -3 1.18440 0.66537   3
  13   0  -3 -0.0456 0.49901   2
 -13   0   3 -0.0230 0.55553   2
 -13   0   3 0.59397 0.68187   3
 -12   0   3 -0.2806 0.53886   2
 -12   0   3 -0.1619 0.11152   1
 -12   0   3 -0.3839 0.13805   1
  12   0  -3 -0.0778 0.10282   1
  12   0  -3 0.41212 0.47479   2
 -11   0   3 -0.2317 0.50975   3
 -11   0   3 -0.3166 0.11834   1
 -11   0   3 -0.0234 0.51210   2
  11   0  -3 0.15709 0.57608   3
  11   0  -3 -0.1840 0.45047   2
 -10   0   3 0.53810 0.11934   1
  10   0  -3 0.32297 0.42524   2
 -10   0   3 0.02329 0.48290   2
 -10   0   3 -0.2049 0.53538   3
   9   0  -3 0.05326 0.49804   3
   9   0  -3 0.98300 0.13949   1
  -9   0   3 0.72204 0.45618   2
  -9   0   3 1.00699 0.14159   1
   9   0  -3 0.57640 0.39844   2
   8   0  -3 0.23081 0.37228   2
   8   0  -3 0.16265 0.09674   1
   8   0  -3 0.40432 0.10455   1
  -8   0   3 0.04576 0.10885   1
  -8   0   3 0.32595 0.42916   2
   8   0  -3 0.40320 0.50273   3
  -8   0   3 -0.0510 0.44858   3
  -7   0   3 -0.4959 0.43074   3
   7   0  -3 0.02309 0.37247   2
  -7   0   3 0.16333 0.40320   2
   7   0  -3 -0.3770 0.47401   3
   6   0  -3 0.16089 0.31776   2
  -6   0   3 -0.2336 0.31411   3
  -6   0   3 0.46117 0.10550   1
   6   0  -3 0.26945 0.44465   3
  -6   0   3 -0.2089 0.32096   2
   5   0  -3 -0.0542 0.38775   3
   5   0  -3 0.54316 0.29927   2
  -5   0   3 -0.4150 0.34242   3
   5   0  -3 -0.0546 0.07579   1
  -5   0   3 -0.2753 0.29070   2
   5   0  -3 -0.0733 0.08713   1
   4   0  -3 -0.1396 0.26803   2
  -4   0   3 0.06605 0.27899   2
   4   0  -3 -0.1636 0.35992   3
  -4   0   3 -0.2353 0.31636   3
  -4   0   3 -0.1684 0.09489   1
  -3   0   3 -0.2065 0.25563   3
   3   0  -3 0.07108 0.24568   2
   3   0  -3 0.62454 0.08614   1
   3   0  -3 -0.2205 0.30325   3
  -3   0   3 0.09132 0.23671   2
  -3   0   3 0.36418 0.07582   1
   2   0  -3 0.42082 0.18854   2
  -2   0   3 0.34608 0.30670   2
   2   0  -3 0.37686 0.26653   3
  -2   0   3 0.39798 0.06313   1
  -2   0   3 0.20779 0.22861   3
   1   0  -3 0.71953 0.08060   1
   1   0  -3 1.12457 0.12446   1
  -1   0   3 0.71273 0.07891   1
   1   0  -3 1.11914 0.18421   2
   0   0   3 0.25477 0.06062   1
   0   0   3 0.28138 0.14962   2
   0   0   3 0.39810 0.12882   3
   0   0   3 0.35671 0.06062   1
   0   0   3 -0.1190 0.13092   3
   0   0  -3 0.28667 0.05167   1
   0   0  -3 0.22179 0.06089   1
   0   0  -3 0.27795 0.16011   2
   1   0   3 0.31526 0.15566   2
   1   0   3 0.30548 0.05451   1
   2   0   3 0.26716 0.19586   2
   2   0   3 -0.1216 0.13383   3
  -2   0  -3 0.23113 0.14126   3
  -2   0  -3 -0.0953 0.21967   2
  -3   0  -3 0.05893 0.06008   1
   3   0   3 0.14433 0.06059   1
   3   0   3 0.15748 0.17325   3
   3   0   3 0.02425 0.25147   2
  -3   0  -3 0.08369 0.06968   1
  -3   0  -3 -0.3058 0.21406   3
   4   0   3 0.37578 0.07278   1
   4   0   3 0.12153 0.28003   2
   4   0   3 0.48738 0.08138   1
  -4   0  -3 1.37719 0.27829   3
   4   0   3 -0.0826 0.30299   3
  -5   0  -3 0.48322 0.30620   2
   5   0   3 0.19312 0.25031   2
   5   0   3 0.72124 0.10339   1
   5   0   3 0.69977 0.33874   3
  -5   0  -3 0.80300 0.31348   3
  -5   0  -3 0.67765 0.09071   1
  -5   0  -3 0.78955 0.11481   1
  -6   0  -3 -0.2091 0.37467   2
  -6   0  -3 0.07559 0.08991   1
   6   0   3 0.25526 0.34323   3
  -6   0  -3 0.15348 0.33770   3
  -6   0  -3 -0.1428 0.07995   1
  -7   0  -3 0.47592 0.41121   2
   7   0   3 0.02802 0.36997   3
  -7   0  -3 0.21887 0.07009   1
  -7   0  -3 -0.2851 0.37070   3
  -7   0  -3 -0.1872 0.09111   1
  -8   0  -3 -0.1568 0.48883   3
  -8   0  -3 -0.0488 0.47786   2
  -8   0  -3 -0.1094 0.08007   1
   8   0   3 0.23316 0.09245   1
   8   0   3 -0.0271 0.47678   3
   8   0   3 -0.1891 0.38118   2
   9   0   3 -0.2969 0.36832   2
  -9   0  -3 -0.2431 0.10326   1
   9   0   3 0.11376 0.11450   1
  -9   0  -3 -0.2697 0.49191   2
   9   0   3 -0.1627 0.44741   3
  -9   0  -3 1.02140 0.48981   3
   9   0   3 0.15252 0.10079   1
  -9   0  -3 -0.0840 0.08992   1
 -10   0  -3 0.27717 0.08992   1
  10   0   3 0.00000 0.39213   2
 -10   0  -3 -0.2409 0.47930   2
  10   0   3 0.05295 0.61169   3
  10   0   3 0.13898 0.11366   1
 -11   0  -3 -1.2619 0.52866   2
 -11   0  -3 -0.2373 0.60912   3
  11   0   3 0.46004 0.45050   2
  12   0   3 0.32846 0.51355   2
 -12   0  -3 -0.8069 0.55778   2
 -12   0  -3 -0.6739 0.74135   3
  13   0   3 0.30335 0.72308   3
 -13   0  -3 -0.5401 0.62227   2
 -13   0  -3 -1.7319 0.75652   3
  13   0   3 -0.4892 0.56358   2
 -14   0  -3 0.62413 0.58589   2
 -14   0  -3 0.15041 0.79981   3
  14   0   3 -0.2082 0.58626   2
  15   0   3 0.60913 0.64777   2
 -15   0  -3 0.37555 0.70307   2
 -16   0  -3 0.20992 0.77928   2
  16   0   3 -0.0913 0.65769   2
  17   0   3 0.13549 0.70244   2
 -17   0  -3 0.09202 0.74205   2
  18   0   3 -0.3383 0.67560   2
 -18   0  -3 -0.4869 0.80130   2
  19   0   3 -0.2725 0.75874   2
  21  -1  -3 0.20452 0.68068   2
  21   1  -3 -0.9708 0.75432   2
  20  -1  -3 0.97918 0.64096   2
 -20  -1   3 -0.7484 0.94056   2
  20  -1  -3 -0.6408 0.97615   3
 -20   1   3 0.17120 0.91484   3
  20   1  -3 -0.9843 0.79115   2
 -19  -1   3 15.3676 1.35344   3
  19  -1  -3 13.6212 1.09347   2
 -19  -1   3 14.2193 1.26110   2
  19  -1  -3 11.8802 1.35848   3
 -19   1   3 13.8372 1.12116   2
  19   1  -3 12.6384 1.35003   3
  19   1  -3 15.4582 1.26154   2
 -19   1   3 15.8049 1.47484   3
 -18  -1   3 35.4235 2.34834   2
  18  -1  -3 34.0823 2.13756   2
  18  -1  -3 38.3691 2.56234   3
 -18  -1   3 37.8395 2.51417   3
 -18   1   3 36.3190 2.41245   3
 -18   1   3 34.5960 2.20664   2
  18   1  -3 39.9195 2.51232   2
  17  -1  -3 54.4096 3.43554   3
 -17  -1   3 50.9483 3.15429   2
  17  -1  -3 48.5442 2.95319   2
 -17   1   3 52.7761 3.32202   3
  17   1  -3 50.9759 3.10036   2
 -17   1   3 51.5129 3.14945   2
  17   1  -3 53.7772 3.42024   3
  16  -1  -3 152.211 8.88475   2
  16  -1  -3 152.569 9.24297   3
 -16  -1   3 162.971 9.83915   3
 -16  -1   3 212.095 12.3540   2
 -16   1   3 159.472 9.31660   2
  16   1  -3 173.226 10.0965   2
 -16   1   3 158.272 9.55653   3
  16   1  -3 165.262 9.99556   3
 -15  -1   3 101.209 6.15868   3
  15  -1  -3 111.248 6.76059   3
  15  -1  -3 98.9419 5.79814   2
 -15  -1   3 98.7205 5.82461   2
 -15   1   3 98.3316 5.79663   2
 -15   1   3 107.263 6.53118   3
  15   1  -3 105.255 6.17834   2
  15   1  -3 108.021 6.58251   3
 -14  -1   3 27.3948 1.77701   2
 -14  -1   3 29.5543 1.93161   3
  14  -1  -3 32.0743 1.99022   2
  14  -1  -3 28.6043 1.91516   3
 -14   1   3 26.8586 1.73104   2
  14   1  -3 29.7166 1.88423   2
  14   1  -3 31.6218 2.11987   3
 -14   1   3 31.4610 2.07387   3
 -13  -1   3 233.788 13.5776   2
 -13  -1   3 250.029 14.9865   3
  13  -1  -3 236.506 13.7297   2
  13  -1  -3 247.551 14.8642   3
 -13   1   3 252.078 15.1312   3
 -13   1   3 247.155 14.3448   2
  13   1  -3 246.447 14.8128   3
  13   1  -3 239.542 13.9146   2
 -12  -1   3 184.203 17.1515   1
 -12  -1   3 185.980 10.7916   2
  12  -1  -3 168.985 10.1941   3
  12  -1  -3 172.929 16.1085   1
  12  -1  -3 184.318 10.6990   2
 -12   1   3 184.423 11.0777   3
  12   1  -3 181.068 16.8623   1
 -12   1   3 187.643 10.9033   2
 -12   1   3 181.879 16.9353   1
  12   1  -3 182.377 10.6037   2
 -11  -1   3 6.13984 0.68917   2
 -11  -1   3 6.61373 0.62593   1
 -11  -1   3 6.48543 0.71076   3
  11  -1  -3 5.30222 0.50463   1
  11  -1  -3 7.26002 0.68815   1
 -11  -1   3 6.34075 0.60510   1
 -11   1   3 6.02742 0.57624   1
  11   1  -3 5.97481 0.78428   3
  11   1  -3 6.04742 0.57504   1
 -11   1   3 6.78918 0.70910   3
 -11   1   3 6.03233 0.57487   1
  11   1  -3 7.13901 0.68356   2
  11   1  -3 7.03871 0.66974   1
  10  -1  -3 0.54897 0.63271   3
 -10  -1   3 0.48440 0.13297   1
 -10  -1   3 0.45426 0.10392   1
 -10  -1   3 0.47808 0.46409   3
  10  -1  -3 0.21002 0.43015   2
 -10  -1   3 0.55298 0.53089   2
  10   1  -3 0.17407 0.09808   1
 -10   1   3 0.91574 0.48692   2
 -10   1   3 0.36043 0.12411   1
  10   1  -3 0.35960 0.54777   3
  -9  -1   3 2.50910 0.52562   2
   9  -1  -3 1.90035 0.43252   2
  -9  -1   3 2.20895 0.22504   1
   9  -1  -3 2.15457 0.22474   1
  -9  -1   3 1.75401 0.19883   1
   9  -1  -3 1.81336 0.60721   3
   9  -1  -3 2.29549 0.24330   1
  -9  -1   3 0.50620 0.52601   3
  -9   1   3 1.84357 0.46296   2
  -9   1   3 0.93588 0.55898   3
  -9   1   3 2.57853 0.25734   1
   8  -1  -3 90.7862 8.45427   1
   8  -1  -3 86.3514 5.23033   3
  -8  -1   3 90.0971 8.39212   1
   8  -1  -3 94.3991 8.79018   1
   8  -1  -3 92.1193 5.35761   2
   8   1  -3 89.4734 5.40788   3
  -8   1   3 85.6702 7.98083   1
   8   1  -3 109.130 10.1582   1
   8   1  -3 86.3616 5.03284   2
  -8   1   3 86.6831 5.23265   3
  -8   1   3 85.2860 7.93994   1
  -8   1   3 92.3809 5.39982   2
  -7  -1   3 309.470 18.5237   3
   7  -1  -3 313.440 18.1440   2
   7  -1  -3 317.717 29.5679   1
   7  -1  -3 326.596 19.5554   3
   7   1  -3 312.656 18.7160   3
  -7   1   3 316.318 18.2890   2
   7   1  -3 332.885 30.9811   1
  -7   1   3 330.814 30.7854   1
  -7   1   3 317.051 18.9776   3
   7   1  -3 330.968 30.8152   1
   7   1  -3 315.488 18.2435   2
  -6  -1   3 1002.96 93.3666   1
   6  -1  -3 994.316 92.5579   1
  -6  -1   3 825.358 49.3311   3
   6  -1  -3 807.590 75.1868   1
   6  -1  -3 782.835 46.7927   3
  -6  -1   3 867.717 50.1039   2
   6  -1  -3 831.195 48.0090   2
   6   1  -3 810.233 75.4512   1
  -6   1   3 816.875 48.8149   3
  -6   1   3 905.404 84.3012   1
   6   1  -3 828.919 47.8779   2
  -6   1   3 744.312 43.0102   2
   6   1  -3 927.026 86.3040   1
   6   1  -3 805.720 48.1533   3
  -6   1   3 1008.78 93.9115   1
   5  -1  -3 906.155 84.3627   1
   5  -1  -3 882.579 82.1956   1
  -5  -1   3 965.551 89.8931   1
  -5  -1   3 957.961 55.2943   2
   5  -1  -3 836.897 50.0178   3
   5  -1  -3 871.749 50.3552   2
  -5  -1   3 895.748 83.4152   1
  -5  -1   3 895.909 53.5328   3
   5   1  -3 950.376 54.8353   2
  -5   1   3 990.427 92.2013   1
   5   1  -3 889.540 53.1615   3
  -5   1   3 883.612 52.8002   3
   5   1  -3 919.029 85.5639   1
  -5   1   3 864.770 49.9572   2
  -5   1   3 953.778 88.8179   1
   5   1  -3 965.491 89.8961   1
  -4  -1   3 974.165 56.2161   2
  -4  -1   3 979.833 91.2111   1
  -4  -1   3 792.544 47.3676   3
  -4  -1   3 914.595 85.1522   1
   4  -1  -3 832.120 49.7395   3
  -4   1   3 861.000 49.7062   2
   4   1  -3 953.766 88.7996   1
   4   1  -3 834.598 49.8826   3
   4   1  -3 949.918 88.4391   1
   4   1  -3 899.482 51.9254   2
  -4   1   3 870.883 81.0938   1
  -4   1   3 878.798 52.5001   3
  -4   1   3 1039.52 96.7697   1
  -3  -1   3 1514.99 141.056   1
  -3  -1   3 1635.09 94.3639   2
   3  -1  -3 1437.37 82.9910   2
  -3  -1   3 1379.07 82.4246   3
   3  -1  -3 1400.69 83.6808   3
  -3  -1   3 1607.00 149.607   1
   3   1  -3 1535.13 142.952   1
   3   1  -3 1559.66 145.232   1
  -3   1   3 1553.31 144.641   1
  -3   1   3 1498.33 86.4760   2
  -3   1   3 1582.02 147.275   1
   3   1  -3 1403.29 83.8350   3
   3   1  -3 1278.81 73.8627   2
  -3   1   3 1483.64 88.6059   3
   2  -1  -3 637.904 36.8253   2
   2  -1  -3 792.004 73.7464   1
  -2  -1   3 774.503 72.0972   1
  -2  -1   3 676.374 40.4037   3
  -2  -1   3 716.016 41.3525   2
   2  -1  -3 704.860 65.6364   1
  -2  -1   3 700.074 65.1739   1
   2  -1  -3 621.339 37.1299   3
   2   1  -3 626.466 36.1966   2
   2   1  -3 762.609 70.9891   1
   2   1  -3 693.960 41.4556   3
  -2   1   3 709.661 66.0903   1
   2   1  -3 746.198 69.4760   1
  -2   1   3 803.406 74.8027   1
  -2   1   3 697.954 41.7002   3
  -1  -1   3 271.952 25.3286   1
  -1  -1   3 251.674 15.0488   3
  -1  -1   3 231.222 13.3622   2
   1  -1  -3 243.394 14.0641   2
   1  -1  -3 312.051 29.0525   1
  -1  -1   3 282.518 26.2937   1
   1   1  -3 219.744 12.7038   2
   1   1  -3 240.239 14.3596   3
   1   1  -3 265.103 24.6914   1
   1   1  -3 249.941 23.2879   1
   0  -1   3 587.072 54.6454   1
   0  -1  -3 601.113 55.9688   1
   0  -1   3 485.484 29.0224   3
   0  -1   3 577.222 53.7492   1
   0  -1  -3 529.765 31.6658   3
   0   1  -3 577.558 53.7901   1
   0   1  -3 517.520 30.9161   3
   0   1  -3 605.264 56.3587   1
  -1  -1  -3 6.46429 0.60201   1
   1  -1   3 5.19272 0.36075   3
  -1  -1  -3 8.17128 0.76659   1
  -1  -1  -3 6.96558 0.43290   2
   1  -1   3 6.89610 0.64620   1
   1  -1   3 6.01677 0.44862   2
  -1  -1  -3 7.12861 0.45918   3
   1  -1   3 7.40356 0.69087   1
  -1   1  -3 6.06972 0.56967   1
   1   1   3 9.03392 0.83774   1
  -1   1  -3 6.18041 0.42888   2
   1   1   3 4.95247 0.31731   3
   1   1   3 6.37516 0.39461   2
  -1   1  -3 6.20616 0.58038   1
   1   1   3 7.40211 0.69332   1
  -2  -1  -3 553.503 33.0552   3
   2  -1   3 614.656 36.7165   3
  -2  -1  -3 638.294 59.4193   1
   2  -1   3 564.556 32.6020   2
   2  -1   3 570.527 53.1152   1
  -2  -1  -3 508.884 29.3944   2
   2  -1   3 565.251 52.6361   1
  -2  -1  -3 553.523 51.5515   1
   2   1   3 672.700 62.6337   1
  -2   1  -3 587.922 54.7413   1
  -2   1  -3 525.789 31.4203   3
  -2   1  -3 612.580 57.0381   1
   2   1   3 448.586 26.8249   3
   2   1   3 471.357 27.2488   2
   2   1   3 579.087 53.9181   1
  -2   1  -3 537.986 31.0801   2
  -3  -1  -3 35.5876 2.14701   3
  -3  -1  -3 38.2420 3.56156   1
  -3  -1  -3 47.2882 4.40175   1
   3  -1   3 43.9829 4.09432   1
   3  -1   3 41.3512 2.41784   2
   3  -1   3 43.8876 4.08731   1
  -3  -1  -3 39.8397 2.33739   2
   3   1   3 41.2115 2.39157   2
   3   1   3 39.8403 3.71123   1
  -3   1  -3 42.5412 3.95726   1
  -3   1  -3 42.7631 2.58735   3
  -3   1  -3 40.9988 2.41693   2
  -3   1  -3 40.0803 3.73494   1
   3   1   3 39.0016 2.34442   3
   3   1   3 51.2593 4.77004   1
   4  -1   3 57.3732 3.34427   2
  -4  -1  -3 56.4945 3.28987   2
   4  -1   3 61.2280 5.69897   1
   4  -1   3 59.1505 3.56066   3
  -4  -1  -3 61.7770 5.75876   1
   4  -1   3 59.5315 5.54499   1
  -4  -1  -3 50.7983 4.73800   1
  -4   1  -3 55.6610 3.27089   2
   4   1   3 47.4795 2.86317   3
  -4   1  -3 61.7542 5.74938   1
   4   1   3 58.9544 5.49234   1
  -4   1  -3 64.2346 5.97710   1
   4   1   3 68.8980 6.41924   1
  -4   1  -3 56.1602 3.39279   3
   4   1   3 53.6365 3.11069   2
  -5  -1  -3 795.650 74.1000   1
   5  -1   3 760.556 45.4516   3
  -5  -1  -3 941.210 54.3089   2
  -5  -1  -3 796.429 47.5789   3
   5  -1   3 904.663 84.2344   1
  -5  -1  -3 897.269 83.5443   1
   5  -1   3 825.543 47.6878   2
   5   1   3 810.633 46.8220   2
   5   1   3 798.735 74.3640   1
  -5   1  -3 798.177 47.6917   3
  -5   1  -3 847.400 48.9480   2
  -5   1  -3 863.236 80.3636   1
   5   1   3 966.531 89.9693   1
   5   1   3 760.703 45.4555   3
  -6  -1  -3 525.963 30.3947   2
  -6  -1  -3 510.597 47.5417   1
   6  -1   3 587.860 54.7227   1
  -6  -1  -3 586.818 54.6484   1
   6  -1   3 570.846 53.1446   1
  -6  -1  -3 570.626 34.1047   3
   6  -1   3 566.068 32.6931   2
   6  -1   3 597.944 35.7371   3
  -6   1  -3 541.376 50.4152   1
   6   1   3 527.426 49.1186   1
  -6   1  -3 565.027 52.6073   1
   6   1   3 540.558 31.2204   2
  -6   1  -3 534.649 30.9104   2
  -6   1  -3 520.419 31.1267   3
   6   1   3 616.019 57.3587   1
  -7  -1  -3 245.123 22.8178   1
  -7  -1  -3 199.026 18.5365   1
  -7  -1  -3 241.521 14.4491   3
   7  -1   3 219.707 20.4512   1
   7  -1   3 238.921 13.8269   2
   7  -1   3 233.108 21.6971   1
  -7  -1  -3 221.300 12.7999   2
   7   1   3 244.149 14.1251   2
  -7   1  -3 258.109 15.4508   3
   7   1   3 260.368 24.2484   1
   7   1   3 216.972 20.2079   1
  -7   1  -3 227.328 21.1742   1
  -7   1  -3 233.424 21.7387   1
   7   1   3 193.425 11.5958   3
  -7   1  -3 231.271 13.4021   2
  -8  -1  -3 378.111 21.8710   2
  -8  -1  -3 339.002 31.5720   1
  -8  -1  -3 389.357 36.2718   1
   8  -1   3 398.000 37.0634   1
  -8  -1  -3 350.966 21.0152   3
   8  -1   3 379.709 21.9480   2
   8  -1   3 382.315 35.5835   1
   8   1   3 394.445 36.7313   1
   8   1   3 382.072 22.0814   2
   8   1   3 344.517 32.0703   1
  -8   1  -3 369.600 21.3837   2
  -8   1  -3 381.308 35.5034   1
  -8   1  -3 381.281 22.8150   3
  -8   1  -3 363.310 33.8255   1
   8   1   3 375.212 22.4614   3
  -9  -1  -3 275.975 25.7160   1
   9  -1   3 328.370 30.5678   1
  -9  -1  -3 304.513 17.6316   2
   9  -1   3 339.484 31.6193   1
   9  -1   3 314.846 18.2138   2
  -9  -1  -3 346.784 32.2796   1
   9  -1   3 325.687 19.5045   3
  -9   1  -3 343.756 32.0012   1
   9   1   3 346.961 32.3089   1
   9   1   3 307.809 28.6699   1
   9   1   3 327.312 19.6006   3
  -9   1  -3 349.217 20.9055   3
   9   1   3 349.893 20.2508   2
  -9   1  -3 329.957 19.1216   2
  10  -1   3 99.0755 5.79601   2
 -10  -1  -3 96.7420 5.84595   3
  10  -1   3 90.8550 8.46540   1
 -10  -1  -3 97.7399 9.10433   1
  10  -1   3 110.376 6.68562   3
 -10  -1  -3 99.9889 9.31316   1
  10  -1   3 90.8620 8.46526   1
  10   1   3 101.210 5.92928   2
 -10   1  -3 94.1996 5.52103   2
  10   1   3 86.0000 8.01333   1
 -10   1  -3 96.2100 5.81963   3
  10   1   3 102.565 9.55317   1
  11  -1   3 19.6894 1.29209   2
  11  -1   3 18.5421 1.37758   3
 -11  -1  -3 20.7376 1.40859   2
 -11  -1  -3 20.1477 1.39792   3
  11   1   3 17.7238 1.21732   2
 -12  -1  -3 18.2873 1.33017   2
 -12  -1  -3 20.6170 1.43699   3
  12  -1   3 17.5399 1.16905   2
 -12   1  -3 17.1969 1.28426   3
  12   1   3 17.8415 1.22170   2
  13  -1   3 0.23640 0.72244   3
  13   1   3 -0.0226 0.62558   2
 -13   1  -3 0.17015 0.56355   2
 -13   1  -3 0.12398 0.70927   3
 -14  -1  -3 56.8033 3.44913   2
  14  -1   3 50.0827 3.20432   3
 -14   1  -3 51.0132 3.21221   3
 -14   1  -3 49.9934 3.05218   2
  14   1   3 51.9644 3.16028   2
  15  -1   3 42.1536 2.59866   2
  15  -1   3 33.4894 2.31204   3
  15   1   3 39.0491 2.43564   2
 -15   1  -3 38.3723 2.51563   3
 -15   1  -3 42.9816 2.66807   2
  17  -1   3 42.9575 2.64683   2
 -17  -1  -3 41.5817 2.65816   2
 -17   1  -3 41.2408 2.58387   2
  17   1   3 42.6749 2.68098   2
 -18  -1  -3 38.9897 2.55421   2
  18  -1   3 32.0483 2.05476   2
  18   1   3 34.6943 2.23094   2
 -18   1  -3 32.3319 2.09669   2
  19  -1   3 15.7058 1.21455   2
 -19   1  -3 17.4931 1.38301   2
  21  -2  -3 37.1660 2.32652   2
 -21   2   3 36.9830 2.34385   2
  20  -2  -3 39.0441 2.42360   2
 -20   2   3 37.3529 2.35307   2
 -20   2   3 39.2755 2.63320   3
  20   2  -3 40.0010 2.59023   2
  19  -2  -3 27.4143 1.76544   2
  19  -2  -3 25.6316 1.85820   3
 -19   2   3 25.5627 1.70937   2
  17  -2  -3 24.8164 1.75954   3
 -17  -2   3 20.2858 1.48190   3
  17  -2  -3 20.9518 1.40117   2
 -17   2   3 25.1959 1.75277   3
 -17   2   3 20.3218 1.42112   2
  17   2  -3 25.3508 1.75954   2
 -16  -2   3 30.9501 2.10556   2
  16  -2  -3 33.3669 2.07557   2
  16  -2  -3 33.9264 2.30869   3
 -16   2   3 33.0695 2.08903   2
  16   2  -3 32.1575 2.16432   3
  16   2  -3 32.4879 2.09315   2
 -16   2   3 36.2995 2.38624   3
 -15  -2   3 4.58516 0.73837   3
 -15  -2   3 4.76677 0.98370   2
  15  -2  -3 7.06047 1.02603   3
  15  -2  -3 4.37620 0.60732   2
  15   2  -3 5.52648 0.76201   2
 -15   2   3 3.18011 0.78667   3
  15   2  -3 3.90131 0.84647   3
 -15   2   3 3.97552 0.65825   2
 -14  -2   3 38.8764 2.47211   3
 -14  -2   3 36.2266 2.29120   2
  14  -2  -3 40.6041 2.45373   2
  14  -2  -3 40.8329 2.63604   3
 -14   2   3 38.3901 2.37675   2
 -14   2   3 41.3204 2.63983   3
  14   2  -3 40.0321 2.58547   3
  14   2  -3 44.1657 2.70029   2
  13  -2  -3 92.1593 5.41171   2
  13  -2  -3 92.2138 5.66630   3
 -13  -2   3 86.0316 5.24237   3
 -13  -2   3 93.4962 5.51039   2
  13   2  -3 103.063 6.05508   2
 -13   2   3 94.8925 5.78616   3
 -13   2   3 97.6481 5.72286   2
  13   2  -3 85.8019 5.22687   3
 -12  -2   3 255.788 15.3432   3
  12  -2  -3 287.086 16.6296   2
 -12  -2   3 302.761 17.5556   2
  12   2  -3 266.423 16.0075   3
  12   2  -3 292.957 16.9814   2
 -12   2   3 274.985 15.9471   2
 -12   2   3 288.042 17.2645   3
  11  -2  -3 187.209 17.4329   1
 -11  -2   3 208.618 19.4342   1
 -11  -2   3 224.427 20.8929   1
 -11  -2   3 190.290 11.4284   3
 -11  -2   3 217.086 12.5890   2
  11  -2  -3 188.378 11.3251   3
  11   2  -3 183.922 17.1312   1
 -11   2   3 192.183 11.1682   2
  11   2  -3 212.354 12.3249   2
 -11   2   3 172.272 16.0457   1
  11   2  -3 187.917 11.2886   3
 -11   2   3 173.561 16.1623   1
  11   2  -3 199.184 18.5559   1
  10  -2  -3 478.722 44.5825   1
 -10  -2   3 459.990 42.8547   1
  10  -2  -3 471.625 28.2386   3
 -10  -2   3 513.724 47.8228   1
 -10  -2   3 472.740 28.3056   3
  10  -2  -3 483.153 44.9791   1
  10   2  -3 522.683 48.6722   1
 -10   2   3 512.149 30.6494   3
  10   2  -3 479.567 28.6938   3
  10   2  -3 500.534 28.9369   2
 -10   2   3 496.001 28.6793   2
  10   2  -3 462.852 43.1013   1
  -9  -2   3 1205.08 112.205   1
   9  -2  -3 1109.95 103.371   1
   9  -2  -3 1154.59 107.524   1
  -9  -2   3 1279.08 73.8322   2
   9  -2  -3 1244.77 74.3861   3
   9  -2  -3 1112.41 64.2475   2
  -9  -2   3 1205.01 112.221   1
  -9  -2   3 1150.02 68.7264   3
   9   2  -3 1169.46 69.9025   3
   9   2  -3 1183.69 110.224   1
   9   2  -3 1203.37 69.4701   2
  -9   2   3 1165.38 67.3301   2
  -9   2   3 1156.74 69.1409   3
   9   2  -3 1189.55 110.771   1
   8  -2  -3 343.673 32.0028   1
   8  -2  -3 335.581 19.4163   2
   8  -2  -3 365.849 21.8939   3
  -8  -2   3 341.625 31.8181   1
   8  -2  -3 336.225 31.3065   1
  -8  -2   3 365.016 21.8515   3
  -8  -2   3 343.616 32.0156   1
  -8   2   3 359.976 33.5336   1
   8   2  -3 338.243 31.4876   1
   8   2  -3 342.131 19.7980   2
  -8   2   3 354.862 33.0244   1
   8   2  -3 395.832 36.8579   1
  -8   2   3 352.813 21.1096   3
   7  -2  -3 126.786 7.63322   3
   7  -2  -3 120.937 7.02895   2
  -7  -2   3 128.325 11.9507   1
   7  -2  -3 111.273 10.3643   1
   7  -2  -3 124.149 11.5657   1
  -7  -2   3 110.197 10.2689   1
  -7   2   3 118.046 10.9990   1
  -7   2   3 128.771 7.74039   3
  -7   2   3 134.862 12.5537   1
  -7   2   3 121.285 7.06116   2
   7   2  -3 127.854 7.67854   3
   7   2  -3 137.781 12.8329   1
   7   2  -3 128.513 11.9662   1
   7   2  -3 114.099 6.64595   2
   6  -2  -3 291.874 27.1748   1
   6  -2  -3 262.146 15.7052   3
   6  -2  -3 265.506 15.3627   2
   6  -2  -3 230.159 21.4351   1
  -6  -2   3 271.196 16.2331   3
  -6  -2   3 258.275 14.9561   2
  -6  -2   3 289.456 26.9464   1
  -6   2   3 247.786 14.3333   2
  -6   2   3 298.853 27.8270   1
  -6   2   3 270.097 16.1693   3
   6   2  -3 281.848 16.8635   3
   6   2  -3 284.044 26.4578   1
  -6   2   3 260.727 24.2653   1
   6   2  -3 252.316 14.5946   2
   5  -2  -3 62.5706 5.83043   1
  -5  -2   3 64.7083 6.02166   1
   5  -2  -3 55.9144 5.20875   1
  -5  -2   3 61.0723 3.69034   3
   5  -2  -3 59.9343 3.50542   2
  -5  -2   3 61.9123 5.76204   1
   5  -2  -3 60.9049 3.69743   3
  -5   2   3 63.4180 5.90471   1
  -5   2   3 63.3635 5.90491   1
   5   2  -3 64.7495 6.03512   1
  -5   2   3 60.1860 3.52986   2
  -5   2   3 56.7273 3.43720   3
   5   2  -3 65.9538 3.85049   2
   5   2  -3 59.0983 3.57483   3
  -4  -2   3 8.54156 0.63231   3
   4  -2  -3 10.3110 0.96327   1
  -4  -2   3 9.01616 0.84172   1
   4  -2  -3 8.90603 0.59799   2
  -4  -2   3 9.21362 0.86427   1
   4  -2  -3 8.96605 0.83426   1
   4  -2  -3 8.12953 0.62189   3
   4   2  -3 9.10428 0.85174   1
   4   2  -3 8.88624 0.67239   3
  -4   2   3 9.54984 0.66977   3
   4   2  -3 9.92731 0.93113   1
  -4   2   3 8.52523 0.57221   2
   4   2  -3 8.53631 0.59296   2
  -4   2   3 8.89377 0.83071   1
  -4   2   3 8.84079 0.83133   1
   3  -2  -3 83.2887 4.82278   2
   3  -2  -3 79.7029 4.80293   3
  -3  -2   3 79.9861 7.45149   1
  -3  -2   3 92.4993 8.61671   1
  -3  -2   3 85.9790 5.18004   3
   3  -2  -3 83.3667 7.76648   1
  -3   2   3 96.7577 9.00472   1
   3   2  -3 81.5934 4.90110   3
  -3   2   3 80.3004 4.66458   2
  -3   2   3 90.8983 8.46677   1
  -3   2   3 77.3184 4.64415   3
   3   2  -3 82.7421 4.80581   2
  -2  -2   3 556.604 33.2631   3
   2  -2  -3 451.824 26.0965   2
   2  -2  -3 437.861 40.7735   1
  -2  -2   3 501.208 46.6616   1
  -2  -2   3 485.035 45.1737   1
  -2  -2   3 480.870 27.7805   2
  -2   2   3 505.751 47.0991   1
  -2   2   3 515.738 30.8161   3
  -2   2   3 439.967 25.4167   2
   2   2  -3 534.903 31.9545   3
   1  -2  -3 649.343 60.4632   1
  -1  -2   3 748.225 69.6646   1
  -1  -2   3 686.677 39.6518   2
  -1  -2   3 697.165 41.6676   3
  -1  -2   3 837.253 77.9282   1
   1  -2  -3 711.008 42.4730   3
   1  -2  -3 618.966 35.7574   2
   1   2  -3 717.656 42.8827   3
   1   2  -3 726.563 67.6531   1
  -1   2   3 657.845 61.2628   1
   0  -2  -3 496.455 29.6730   3
   0  -2   3 479.845 28.6825   3
   0   2   3 482.497 28.8361   3
   0   2  -3 487.308 29.1248   3
   1  -2   3 811.353 48.4811   3
  -1  -2  -3 823.840 49.2063   3
  -1   2  -3 832.679 49.7180   3
  -1   2  -3 857.228 49.5037   2
   1   2   3 710.918 42.4981   3
   2  -2   3 1494.38 86.2746   2
   2  -2   3 1738.22 161.825   1
  -2  -2  -3 1541.18 143.520   1
   2  -2   3 1527.58 142.241   1
   2  -2   3 1530.67 91.4479   3
   2   2   3 2289.00 213.111   1
  -2   2  -3 1733.59 161.400   1
  -2   2  -3 1567.74 93.6969   3
  -2   2  -3 1437.25 83.0102   2
  -2   2  -3 1487.70 138.525   1
  -3  -2  -3 891.192 53.2884   3
   3  -2   3 1031.12 59.5723   2
   3  -2   3 1020.25 95.0109   1
  -3  -2  -3 1478.79 137.643   1
  -3  -2  -3 1181.41 68.2021   2
   3  -2   3 1091.30 65.2173   3
  -3  -2  -3 1140.01 106.132   1
   3  -2   3 1050.70 97.8452   1
   3   2   3 1203.66 112.047   1
  -3   2  -3 980.835 56.6598   2
   3   2   3 1096.70 102.107   1
  -3   2  -3 1090.99 101.590   1
  -3   2  -3 1087.62 101.279   1
  -4  -2  -3 454.915 42.3499   1
   4  -2   3 429.885 40.0211   1
   4  -2   3 428.587 39.9079   1
   4  -2   3 402.488 23.2827   2
  -4  -2  -3 452.409 42.1203   1
  -4  -2  -3 388.326 23.2296   3
  -4   2  -3 418.429 38.9741   1
  -4   2  -3 448.968 41.7977   1
  -4   2  -3 414.757 23.9733   2
   4   2   3 381.691 35.5377   1
  -4   2  -3 431.800 25.8155   3
   4   2   3 467.536 43.5332   1
  -5  -2  -3 211.185 19.6656   1
  -5  -2  -3 202.231 12.1030   3
   5  -2   3 204.089 19.0080   1
  -5  -2  -3 155.108 14.4488   1
   5  -2   3 202.189 18.8360   1
   5  -2   3 200.206 11.6100   2
   5  -2   3 201.975 12.0985   3
  -5   2  -3 210.585 12.2066   2
  -5   2  -3 203.640 12.2003   3
  -5   2  -3 218.373 20.3284   1
   5   2   3 185.063 17.2335   1
   5   2   3 218.966 13.1123   3
   5   2   3 237.276 22.0963   1
  -5   2  -3 217.467 20.2617   1
   6  -2   3 62.9930 3.69599   2
   6  -2   3 63.3175 5.90043   1
   6  -2   3 69.1192 4.18767   3
   6  -2   3 63.3878 5.89993   1
  -6  -2  -3 58.8254 3.55525   3
  -6  -2  -3 63.9280 5.95544   1
   6   2   3 68.2908 4.11907   3
  -6   2  -3 60.0390 3.54743   2
  -6   2  -3 61.1815 5.70288   1
  -6   2  -3 64.2512 5.98392   1
   6   2   3 69.3205 6.45558   1
  -6   2  -3 62.1548 3.77069   3
   7  -2   3 0.81757 0.10702   1
   7  -2   3 0.92821 0.13293   1
   7  -2   3 1.38231 0.41242   3
   7  -2   3 0.85629 0.37328   2
  -7   2  -3 0.91725 0.11906   1
  -7   2  -3 0.79081 0.35825   3
   7   2   3 0.84913 0.40037   3
  -7   2  -3 0.84086 0.41892   2
   8  -2   3 70.1043 6.52951   1
  -8  -2  -3 69.6382 6.48715   1
  -8  -2  -3 68.2637 4.12762   3
   8  -2   3 72.7421 6.78003   1
   8  -2   3 74.6075 4.37609   2
  -8  -2  -3 77.8522 7.24791   1
   8  -2   3 87.0431 5.27616   3
   8   2   3 78.7153 4.60643   2
  -8   2  -3 78.0381 7.26439   1
  -8   2  -3 79.2467 7.37775   1
  -8   2  -3 80.2953 4.85426   3
   8   2   3 82.0766 4.96074   3
  -8   2  -3 73.7710 4.34344   2
   9  -2   3 116.140 6.76361   2
  -9  -2  -3 100.974 9.40057   1
   9  -2   3 108.795 10.1329   1
   9  -2   3 113.023 6.83083   3
   9  -2   3 109.782 10.2273   1
  -9  -2  -3 100.157 9.33008   1
  -9  -2  -3 110.997 6.51150   2
  -9  -2  -3 107.882 6.50404   3
   9   2   3 90.4592 8.42504   1
  -9   2  -3 116.491 6.80685   2
  -9   2  -3 101.888 9.49256   1
  -9   2  -3 111.779 6.74639   3
   9   2   3 95.8098 8.92500   1
  -9   2  -3 109.247 10.1719   1
   9   2   3 115.679 6.73692   2
  10  -2   3 179.332 10.4327   2
 -10  -2  -3 185.200 10.7686   2
 -10  -2  -3 208.413 12.5010   3
 -10   2  -3 177.195 10.2993   2
  11  -2   3 210.306 12.2008   2
 -11  -2  -3 237.847 14.2650   3
 -11  -2  -3 213.815 12.4359   2
 -11   2  -3 214.317 12.4460   2
 -11   2  -3 235.311 14.1411   3
  12  -2   3 151.999 9.19810   3
  12  -2   3 149.466 8.71943   2
 -12  -2  -3 197.800 11.5323   2
  12   2   3 179.864 10.4744   2
 -12   2  -3 159.410 9.31165   2
 -13  -2  -3 128.829 7.56226   2
  13  -2   3 119.259 6.95769   2
  13   2   3 131.889 7.72058   2
 -13   2  -3 125.480 7.33581   2
 -13   2  -3 132.738 8.05205   3
  14  -2   3 98.3489 6.04184   3
  14  -2   3 95.9044 5.63544   2
 -14  -2  -3 97.8366 5.81225   2
 -14   2  -3 92.5306 5.44271   2
  14   2   3 94.9580 5.61567   2
 -14   2  -3 95.4117 5.83228   3
 -15  -2  -3 60.0580 3.65478   2
  15  -2   3 67.9907 4.05413   2
  15  -2   3 62.6103 3.97913   3
 -15   2  -3 59.2101 3.71123   3
 -15   2  -3 61.8540 3.72586   2
  15   2   3 54.9954 3.36914   2
  16  -2   3 35.2231 2.19847   2
 -16   2  -3 33.3716 2.27140   3
 -16   2  -3 38.1254 2.40232   2
  17  -2   3 10.3590 0.91274   2
  18  -2   3 0.85208 0.62000   2
 -19   2  -3 1.54437 0.74357   2
 -20   3   3 0.38700 0.69355   2
  19  -3  -3 -0.5162 0.93697   3
 -19   3   3 -0.0861 0.66952   2
 -19   3   3 -0.3410 0.83074   3
  18  -3  -3 24.3548 1.81329   3
 -18   3   3 25.2828 1.68938   2
 -18   3   3 24.6967 1.75932   3
  17  -3  -3 34.7793 2.33959   3
  17  -3  -3 32.9822 2.08190   2
  17   3  -3 36.8500 2.49185   3
  17   3  -3 30.4197 2.02993   2
 -17   3   3 32.7687 2.17653   3
  16  -3  -3 11.3359 1.18155   3
 -16  -3   3 11.3837 1.09104   3
 -16   3   3 10.5294 0.98386   3
  16   3  -3 10.9861 1.08715   2
  16   3  -3 13.3245 1.29406   3
  15  -3  -3 28.2875 1.80217   2
  15  -3  -3 30.1099 2.08917   3
 -15  -3   3 33.2816 2.35286   2
  15   3  -3 26.3755 1.77915   2
 -15   3   3 28.3953 1.96981   3
  15   3  -3 29.8975 2.05830   3
 -14  -3   3 17.9444 1.33532   3
  14  -3  -3 18.1638 1.25350   2
  14  -3  -3 15.6732 1.26034   3
 -14   3   3 17.9654 1.25359   2
  14   3  -3 16.2985 1.32106   2
  14   3  -3 18.2002 1.42121   3
 -14   3   3 18.7408 1.41112   3
 -13  -3   3 18.6714 1.34579   3
  13  -3  -3 19.3456 1.30824   2
  13   3  -3 21.2952 1.52503   3
 -13   3   3 17.9233 1.37535   3
 -13   3   3 18.6724 1.27896   2
  12  -3  -3 23.5851 1.58573   3
  12  -3  -3 22.9471 1.46099   2
 -12  -3   3 23.3928 1.56200   3
  12   3  -3 26.2577 1.73374   2
  12   3  -3 23.9204 1.63973   3
 -12   3   3 23.2904 1.50861   2
 -11  -3   3 2.94190 0.62467   3
  11  -3  -3 2.50131 0.45511   2
  11  -3  -3 3.72014 0.63379   3
 -11   3   3 2.74998 0.56061   2
  11   3  -3 2.54919 0.65827   3
 -11   3   3 2.86746 0.65276   3
  10  -3  -3 1.62099 0.57699   3
  10  -3  -3 2.10334 0.42472   2
 -10  -3   3 2.36899 0.55455   3
  10   3  -3 1.59883 0.55843   3
  10   3  -3 1.26009 0.54442   2
 -10   3   3 1.29437 0.60249   3
 -10   3   3 1.41476 0.47942   2
   9  -3  -3 7.96940 0.74605   3
   9  -3  -3 8.36048 0.65434   2
   9  -3  -3 6.77381 0.63911   1
  -9  -3   3 7.34138 0.72013   3
  -9  -3   3 5.97852 1.29562   2
   9  -3  -3 5.93817 0.56371   1
  -9   3   3 7.89552 0.74850   1
   9   3  -3 7.71046 0.71003   2
   9   3  -3 6.91928 0.66163   1
   9   3  -3 6.27463 0.66423   3
   9   3  -3 6.52741 0.61704   1
  -9   3   3 7.78899 0.68322   2
  -9   3   3 7.16495 0.72171   3
  -9   3   3 6.83559 0.64264   1
   7  -3  -3 34.0708 2.12478   3
   7  -3  -3 35.7466 2.13640   2
   7  -3  -3 33.4862 3.12640   1
  -7  -3   3 32.6064 3.04291   1
  -7  -3   3 35.6968 2.21628   3
  -7   3   3 35.6094 3.31668   1
  -7   3   3 35.1493 2.12785   2
  -7   3   3 37.5364 2.33224   3
   7   3  -3 32.6956 3.04874   1
   6  -3  -3 241.820 22.5224   1
   6  -3  -3 247.585 14.8401   3
   6  -3  -3 247.731 14.3504   2
   6  -3  -3 224.337 20.8984   1
   6   3  -3 238.239 14.2639   3
  -6   3   3 249.252 14.4301   2
  -6   3   3 210.903 19.6410   1
  -6   3   3 240.791 22.4180   1
  -6   3   3 249.319 14.9349   3
  -5  -3   3 135.822 12.6518   1
   5  -3  -3 132.009 7.66478   2
  -5  -3   3 136.565 8.21230   3
   5  -3  -3 137.769 8.27187   3
   5  -3  -3 120.660 11.2367   1
  -5  -3   3 108.650 10.1217   1
  -5   3   3 128.630 11.9835   1
  -5   3   3 144.391 8.65752   3
   5   3  -3 131.989 12.2925   1
  -5   3   3 126.369 7.33745   2
   5   3  -3 118.788 6.88664   2
   5   3  -3 136.920 8.21646   3
   5   3  -3 140.075 13.0438   1
   4  -3  -3 201.020 12.0347   3
  -4  -3   3 196.603 18.3159   1
   4  -3  -3 177.497 16.5350   1
   4  -3  -3 188.712 10.9164   2
  -4  -3   3 217.902 20.2910   1
  -4  -3   3 196.909 11.4363   2
  -4  -3   3 236.471 14.1611   3
   4   3  -3 190.308 11.0134   2
  -4   3   3 179.039 16.6757   1
   4   3  -3 211.194 19.6674   1
  -4   3   3 212.256 12.7232   3
   4   3  -3 207.259 19.3067   1
  -4   3   3 177.985 10.3205   2
  -3  -3   3 168.181 15.6616   1
  -3  -3   3 214.199 19.9459   1
  -3  -3   3 174.374 10.1053   2
   3  -3  -3 150.516 14.0187   1
   3  -3  -3 175.551 16.3528   1
  -3  -3   3 202.507 12.1375   3
   3  -3  -3 178.760 10.3456   2
   3   3  -3 211.313 19.6665   1
   3   3  -3 186.930 10.8245   2
  -3   3   3 212.256 19.7566   1
   3   3  -3 205.816 12.3200   3
   3   3  -3 191.041 17.7934   1
  -3   3   3 231.417 13.8500   3
  -3   3   3 191.780 17.8507   1
  -2  -3   3 107.791 10.0411   1
   2  -3  -3 110.556 6.64079   3
  -2  -3   3 122.714 7.11543   2
  -2  -3   3 113.790 6.83024   3
   2  -3  -3 113.323 10.5483   1
   2   3  -3 112.760 10.4984   1
   2   3  -3 113.222 6.79663   3
  -2   3   3 95.8657 8.93244   1
  -1  -3   3 186.322 11.1607   3
   1  -3  -3 193.449 11.5871   3
   1  -3  -3 188.792 17.5770   1
  -1  -3   3 188.427 10.9126   2
  -1  -3   3 168.528 15.6897   1
  -1  -3   3 187.133 17.4225   1
   1   3  -3 161.228 15.0184   1
  -1   3   3 185.413 11.1002   3
   1   3  -3 174.404 16.2403   1
  -1   3   3 154.141 14.3525   1
   1   3  -3 170.250 9.85413   2
   1   3  -3 189.613 11.3612   3
   0  -3   3 14.2361 1.32778   1
   0  -3   3 13.0724 0.82399   2
   0  -3   3 15.1854 0.97452   3
   0  -3  -3 14.6012 0.93070   3
   0  -3  -3 19.0631 1.77637   1
   0   3  -3 17.6888 1.65045   1
   0   3  -3 13.8166 1.28686   1
   0   3  -3 12.0305 0.74745   2
   0   3   3 14.3771 0.90656   3
   0   3  -3 16.4597 1.05298   3
   1  -3   3 24.2676 2.26225   1
   1  -3   3 25.2584 1.56929   3
  -1  -3  -3 24.2713 1.50976   3
   1  -3   3 24.3492 2.27203   1
   1  -3   3 21.5367 1.31639   2
  -1   3  -3 21.8886 2.04241   1
  -1   3  -3 23.6434 1.41866   2
  -1   3  -3 20.5999 1.92259   1
   1   3   3 21.9825 1.36620   3
   1   3   3 21.9870 2.04715   1
  -1   3  -3 24.8788 1.54481   3
  -2  -3  -3 2.98149 0.31046   3
  -2  -3  -3 3.47820 0.32532   1
   2  -3   3 3.28594 0.38643   2
   2  -3   3 3.15682 0.36815   3
  -2   3  -3 3.16980 0.37212   3
   2   3   3 2.55346 0.27687   3
   2   3   3 2.72533 0.26182   1
   3  -3   3 23.5743 1.48671   3
  -3  -3  -3 27.2117 1.68025   3
   3  -3   3 26.0914 1.59152   2
   3  -3   3 25.0285 2.32868   1
  -3   3  -3 24.1453 2.24976   1
  -3   3  -3 24.7126 1.49974   2
  -3   3  -3 25.9151 1.61039   3
   4  -3   3 33.6124 3.13131   1
   4  -3   3 32.8582 1.97749   2
   4  -3   3 31.7484 1.97245   3
  -4  -3  -3 35.7850 3.33225   1
  -4  -3  -3 31.6110 1.93946   3
   4   3   3 38.7732 3.61452   1
  -4   3  -3 40.2617 3.74727   1
  -4   3  -3 34.1864 3.18965   1
   5  -3   3 43.6628 4.06771   1
  -5  -3  -3 63.3152 5.89411   1
   5  -3   3 49.4578 2.91701   2
   5  -3   3 48.9290 4.55468   1
   5   3   3 54.2605 5.05567   1
  -5   3  -3 49.6568 3.03197   3
  -5   3  -3 47.3896 4.42060   1
  -5   3  -3 49.3973 4.60563   1
  -6  -3  -3 74.6661 6.95736   1
   6  -3   3 74.5784 6.95028   1
   6  -3   3 76.6739 4.63493   3
   6  -3   3 75.6516 7.04798   1
   6  -3   3 70.0399 4.12517   2
  -6  -3  -3 94.3584 8.78876   1
  -6  -3  -3 80.6220 4.86919   3
  -6   3  -3 74.2995 4.36429   2
   6   3   3 77.3175 7.20380   1
  -6   3  -3 77.9479 4.71056   3
   7  -3   3 87.9588 8.19367   1
   7  -3   3 83.6217 7.79054   1
  -7  -3  -3 88.1880 5.33270   3
  -7  -3  -3 89.3727 8.32047   1
   7  -3   3 92.7337 5.60636   3
  -7  -3  -3 85.0892 7.92838   1
   7   3   3 91.8033 8.55372   1
  -7   3  -3 99.0650 5.79154   2
   7   3   3 91.6451 5.52254   3
  -7   3  -3 87.2395 5.26720   3
  -8  -3  -3 91.9258 5.55689   3
   8  -3   3 95.3433 5.76413   3
  -8   3  -3 83.0009 4.88238   2
   8   3   3 75.6645 7.05336   1
  -8   3  -3 84.5659 5.13102   3
   8   3   3 73.3015 6.82591   1
  -9  -3  -3 67.7535 4.12813   3
   9  -3   3 62.7194 3.70464   2
   9  -3   3 57.3127 3.51542   3
  -9   3  -3 59.7462 3.66684   3
  -9   3  -3 63.2428 3.76785   2
 -10  -3  -3 51.9202 3.20632   3
  10  -3   3 47.4786 2.84297   2
  10  -3   3 51.3292 3.20522   3
 -10   3  -3 49.5871 3.09945   3
 -10   3  -3 49.3377 2.98264   2
  11  -3   3 29.3482 1.81471   2
  11  -3   3 32.2894 2.09063   3
 -11   3  -3 29.5093 1.92702   3
 -11   3  -3 26.9190 1.72174   2
  12  -3   3 5.77742 0.79824   3
  12  -3   3 6.52910 0.64437   2
 -12   3  -3 6.30488 0.71900   2
 -12   3  -3 6.02663 0.80145   3
  13  -3   3 1.05022 0.50414   2
 -13   3  -3 0.78799 0.56072   2
 -14   3  -3 3.81745 0.86902   3
  15  -3   3 7.24993 0.71500   2
  15  -3   3 7.61141 1.16410   3
 -15   3  -3 7.64995 0.80582   2
  16  -3   3 11.7808 1.27939   3
  16  -3   3 13.6534 1.06305   2
 -16   3  -3 11.6512 0.97585   2
 -16   3  -3 13.0427 1.22086   3
  17  -3   3 2.78898 0.66309   2
 -17   3  -3 2.71832 0.74570   2
  18  -3   3 3.97690 0.68742   2
 -18   3  -3 4.84718 0.79061   2
  19  -4  -3 3.59020 0.67345   2
 -19   4   3 3.61826 0.77115   2
  18  -4  -3 0.33973 0.89127   3
  18  -4  -3 0.04239 0.56166   2
 -18   4   3 -0.2152 0.66924   2
 -18   4   3 0.33571 0.73866   3
  17  -4  -3 8.26043 0.79986   2
  17  -4  -3 8.75290 1.04836   3
 -17   4   3 8.78636 0.89586   2
 -17   4   3 8.70150 1.03226   3
  16  -4  -3 0.60976 0.90416   3
  16  -4  -3 -0.2783 0.59192   2
 -16   4   3 -0.8946 0.83947   3
 -16   4   3 -0.0847 0.65858   2
 -15  -4   3 5.59258 0.83807   3
  15  -4  -3 6.75240 0.86287   3
  15  -4  -3 7.40046 0.79581   2
  15   4  -3 7.34843 1.10515   3
 -15   4   3 7.75087 0.82349   2
 -15   4   3 7.96402 0.92262   3
 -14  -4   3 -0.1572 0.66315   3
  14  -4  -3 -0.6701 0.59771   2
 -14   4   3 -0.4033 0.69330   3
 -14   4   3 -1.0912 0.64088   2
  13  -4  -3 1.99679 0.68818   3
 -13  -4   3 1.94079 0.71175   3
  13  -4  -3 1.73527 0.55677   2
 -13   4   3 2.40157 0.66702   2
  13   4  -3 1.53937 0.86024   3
  12  -4  -3 16.2548 1.13794   2
 -12  -4   3 17.0746 1.28527   3
  12  -4  -3 17.3812 1.28986   3
  12   4  -3 16.5116 1.28547   3
 -12   4   3 17.0241 1.21959   2
 -12   4   3 15.2290 1.18853   3
 -11  -4   3 11.3074 0.97636   3
  11  -4  -3 9.91792 0.87572   3
  11  -4  -3 10.7536 0.85435   2
 -11   4   3 10.1924 0.89780   3
  11   4  -3 11.0347 0.99703   3
 -11   4   3 9.42776 0.81373   2
  10  -4  -3 1.40891 0.49188   2
  10  -4  -3 1.10583 0.58295   3
 -10  -4   3 1.57961 0.60561   3
  10   4  -3 0.60896 0.54567   2
  10   4  -3 -0.0469 0.61961   3
 -10   4   3 0.28868 0.56191   3
 -10   4   3 1.68719 0.54521   2
   9  -4  -3 38.4802 2.41278   3
   9  -4  -3 37.2698 2.27139   2
  -9  -4   3 37.3767 2.34318   3
  -9   4   3 37.6133 2.28696   2
   9   4  -3 34.2289 2.10300   2
   9   4  -3 37.2020 2.33593   3
  -9   4   3 37.2392 2.34974   3
  -8  -4   3 48.0216 2.95678   3
   8  -4  -3 51.1279 3.03929   2
   8  -4  -3 50.9721 3.15430   3
   8   4  -3 48.6974 3.00534   3
  -8   4   3 53.5736 3.19572   2
  -8   4   3 49.1893 3.03033   3
   8   4  -3 42.9877 2.57003   2
   7  -4  -3 1.95097 0.47701   3
  -7  -4   3 -0.1280 0.94414   2
  -7  -4   3 1.54888 0.50404   3
   7   4  -3 1.77913 0.42498   2
  -7   4   3 2.00002 0.21269   1
  -7   4   3 1.61258 0.47953   3
  -7   4   3 2.71961 0.56970   2
   6  -4  -3 52.1618 3.20300   3
   6  -4  -3 41.4575 3.86075   1
  -6  -4   3 55.8490 3.32403   2
  -6  -4   3 47.1094 2.88974   3
  -6  -4   3 41.1289 3.83238   1
   6  -4  -3 48.4675 4.51200   1
  -6  -4   3 49.1395 4.58085   1
  -6   4   3 50.2590 3.07530   3
   6   4  -3 44.0189 4.10025   1
  -6   4   3 46.7903 4.35598   1
   6   4  -3 50.6701 4.71786   1
  -6   4   3 53.2180 3.15277   2
   5  -4  -3 13.2716 1.24083   1
   5  -4  -3 14.1297 0.94174   2
  -5  -4   3 12.7627 0.87442   2
  -5  -4   3 10.6647 0.99875   1
  -5  -4   3 17.0725 1.59103   1
   5  -4  -3 14.0150 0.97050   3
  -5   4   3 14.0153 0.97197   3
   5   4  -3 10.7968 1.01303   1
  -5   4   3 11.8629 1.11318   1
   5   4  -3 13.0961 0.88106   2
   5   4  -3 14.1864 1.33038   1
  -5   4   3 11.2571 1.05570   1
  -4  -4   3 13.9154 1.30065   1
  -4  -4   3 16.1898 1.12262   3
   4  -4  -3 13.4087 0.87065   2
  -4  -4   3 8.93497 0.84015   1
   4   4  -3 11.6688 0.80524   2
  -4   4   3 11.9755 0.82457   3
   3  -4  -3 0.18214 0.23606   2
  -3  -4   3 -0.0846 0.41400   2
   3  -4  -3 0.29684 0.37322   3
  -3  -4   3 0.10544 0.39440   3
   3   4  -3 -0.0425 0.37394   3
   3   4  -3 0.17143 0.07768   1
  -2  -4   3 69.3042 4.05926   2
   2  -4  -3 75.2637 7.00502   1
   2  -4  -3 73.6017 4.44439   3
  -2  -4   3 72.8000 4.40209   3
   2   4  -3 71.9952 6.70718   1
  -2   4   3 72.8453 4.41110   3
   2   4  -3 68.2258 4.13307   3
  -1  -4   3 77.7149 4.68795   3
   1  -4  -3 80.4042 4.85206   3
   1  -4  -3 72.0210 6.70670   1
  -1  -4   3 66.9164 3.90443   2
  -1  -4   3 72.6639 6.76465   1
  -1  -4   3 71.1055 6.62199   1
   1  -4  -3 66.8099 6.21942   1
   1   4  -3 72.5779 6.76375   1
  -1   4   3 88.4360 5.32907   3
   1   4  -3 60.7214 3.56300   2
   1   4  -3 65.4094 6.09400   1
   1   4  -3 76.6705 4.64127   3
   0  -4  -3 11.9092 1.11043   1
   0  -4   3 12.0985 0.83584   3
   0  -4   3 11.1789 1.04777   1
   0  -4  -3 11.4060 0.79216   3
   0  -4   3 10.7462 0.73531   2
   0   4  -3 12.2477 0.81309   2
   0   4  -3 9.56876 0.89845   1
   0   4  -3 12.3429 0.85706   3
   0   4   3 10.7566 0.99964   1
   0   4   3 11.7769 0.79969   3
   1  -4   3 87.2854 8.13112   1
  -1  -4  -3 106.663 6.42494   3
   1  -4   3 105.901 9.85733   1
   1  -4   3 101.926 5.92980   2
   1  -4   3 104.629 6.30110   3
  -1  -4  -3 132.395 12.3251   1
  -1   4  -3 107.688 6.47993   3
   1   4   3 106.870 9.94698   1
  -1   4  -3 92.5390 8.62175   1
  -1   4  -3 97.4510 9.07145   1
  -1   4  -3 94.5315 5.51155   2
   1   4   3 102.477 6.15459   3
   2  -4   3 24.8737 2.32017   1
  -2  -4  -3 34.0832 2.10212   3
   2  -4   3 29.4898 1.76716   2
   2  -4   3 29.4866 2.74740   1
  -2   4  -3 26.1228 2.43959   1
  -2   4  -3 25.5966 2.38841   1
   2   4   3 30.5409 1.89217   3
  -2   4  -3 30.3399 1.84388   2
   3  -4   3 0.09181 0.34375   2
  -3  -4  -3 0.30376 0.33419   3
   3  -4   3 0.23547 0.37681   3
   3   4   3 0.45972 0.35184   3
  -3   4  -3 0.76277 0.35964   3
  -3   4  -3 0.53759 0.36129   2
   4  -4   3 15.5700 1.45682   1
   4  -4   3 16.4302 1.53019   1
  -4  -4  -3 13.3382 1.24125   1
   4  -4   3 16.0167 1.04905   2
   4  -4   3 17.1714 1.15003   3
  -4  -4  -3 17.6605 1.16494   3
   4   4   3 15.1416 1.41210   1
  -4   4  -3 17.3560 1.14755   3
  -4   4  -3 16.6329 1.09053   2
   4   4   3 16.9270 1.11920   3
  -4   4  -3 15.2383 1.42194   1
  -4   4  -3 15.0599 1.40573   1
  -5  -4  -3 5.09074 0.47857   1
   5  -4   3 6.35367 0.58179   2
  -5  -4  -3 6.59888 0.61487   3
   5  -4   3 6.14799 0.59942   3
  -5   4  -3 6.48708 0.60143   2
   5   4   3 6.82865 0.63823   1
   5   4   3 7.66186 0.65573   3
   6  -4   3 -0.2501 0.41903   2
  -6  -4  -3 -0.1508 0.42662   3
  -6   4  -3 0.50206 0.45628   3
   6   4   3 -0.2163 0.40460   3
  -6   4  -3 -0.3990 0.43417   2
   7  -4   3 0.58561 0.49302   2
  -7  -4  -3 -0.7522 0.41374   3
   7  -4   3 0.56170 0.47535   3
  -7   4  -3 0.75000 0.51843   2
  -7   4  -3 -0.4518 0.42602   3
   8  -4   3 0.08814 0.53331   3
   8  -4   3 -0.0445 0.40999   2
  -8   4  -3 0.37507 0.46118   3
  -8   4  -3 -0.2381 0.49875   2
   9  -4   3 4.53886 0.63982   3
   9  -4   3 5.72381 0.60897   2
  -9   4  -3 4.64862 0.64263   3
  -9   4  -3 5.87597 0.65946   2
  10  -4   3 23.7215 1.54790   2
  10  -4   3 19.2445 1.33967   3
 -10   4  -3 24.1486 1.59439   2
 -10   4  -3 21.0633 1.45513   3
  11  -4   3 19.3339 1.40229   3
  11  -4   3 19.3605 1.29435   2
 -11   4  -3 18.5289 1.35023   3
 -11   4  -3 18.0771 1.27221   2
  12  -4   3 10.8382 0.99868   3
  12  -4   3 12.1056 0.95399   2
 -12   4  -3 10.5656 0.97396   3
  13  -4   3 18.3330 1.26488   2
 -13   4  -3 18.5786 1.43902   3
  14  -4   3 8.14628 0.87817   3
  14  -4   3 9.73447 0.82772   2
 -14   4  -3 8.36541 0.83347   2
 -14   4  -3 9.81434 1.07468   3
  15  -4   3 0.17626 0.69255   3
 -15   4  -3 1.45462 0.88588   3
 -15   4  -3 0.06115 0.56356   2
 -16   4  -3 -0.1445 0.59452   2
  17  -4   3 0.08770 0.53046   2
 -17   4  -3 0.06389 0.63787   2
  17  -5  -3 18.0546 1.52464   3
 -17   5   3 15.7422 1.36408   3
  16  -5  -3 23.7260 1.70216   3
 -16   5   3 26.1985 1.84058   3
 -16   5   3 24.3125 1.65980   2
 -15  -5   3 10.5333 1.05940   3
 -15   5   3 16.2019 1.23383   2
 -15   5   3 15.3848 1.25268   3
  14  -5  -3 34.8608 2.16717   2
 -14  -5   3 28.8904 1.97326   3
  14  -5  -3 31.8429 2.09014   3
  13  -5  -3 42.2199 2.70145   3
  13  -5  -3 41.9136 2.57713   2
 -13  -5   3 39.8865 2.57613   3
 -13   5   3 41.7408 2.66802   3
  12  -5  -3 45.4430 2.77745   2
  12   5  -3 38.6692 2.44137   3
  11  -5  -3 7.64635 0.75283   2
  11  -5  -3 8.49690 0.92031   3
 -11  -5   3 8.15378 0.84626   3
  11   5  -3 7.33596 0.78482   3
 -11   5   3 7.92127 0.79308   2
 -11   5   3 9.67279 0.98120   3
 -10  -5   3 10.9995 0.94312   3
  10  -5  -3 11.3438 0.95143   3
  10  -5  -3 11.3919 0.87745   2
 -10   5   3 11.6249 0.92202   2
  10   5  -3 10.2978 0.92618   3
 -10   5   3 11.1398 0.96250   3
   9  -5  -3 1.61515 0.48970   2
   9  -5  -3 1.95505 0.52001   3
  -9  -5   3 0.92734 0.56944   3
  -9   5   3 1.55985 0.57508   2
   9   5  -3 1.62225 0.52057   3
  -9   5   3 0.92620 0.49766   3
   8  -5  -3 20.2941 1.38408   3
  -8  -5   3 21.9313 1.47576   3
   8  -5  -3 21.5021 1.41684   2
  -8   5   3 22.1295 1.46601   3
  -8   5   3 21.6277 1.41692   2
   8   5  -3 21.3476 1.43585   3
  -7  -5   3 79.5590 4.82987   3
   7  -5  -3 79.2099 4.81570   3
   7  -5  -3 81.5924 4.81027   2
  -7   5   3 79.8873 4.85706   3
  -6  -5   3 101.499 6.13962   3
   6  -5  -3 93.5017 5.64981   3
   6  -5  -3 98.1208 5.73719   2
   6   5  -3 95.8265 5.78491   3
  -6   5   3 107.988 6.53190   3
  -5  -5   3 158.063 9.50449   3
  -5   5   3 167.556 10.0715   3
  -4  -5   3 66.9357 4.08024   3
  -4  -5   3 66.5968 3.92102   2
   4  -5  -3 70.2235 4.27746   3
   4   5  -3 66.6519 4.05725   3
   3  -5  -3 67.2514 4.09183   3
   3   5  -3 67.9979 4.12796   3
  -3   5   3 71.9070 4.37234   3
   2  -5  -3 137.944 8.29195   3
  -2  -5   3 138.339 8.31522   3
  -2   5   3 142.816 8.58504   3
   2   5  -3 146.858 8.81960   3
   1  -5  -3 53.4895 3.27355   3
  -1  -5   3 54.6760 3.34069   3
  -1   5   3 53.4075 3.25066   3
   1   5  -3 54.6114 3.33935   3
   0  -5   3 48.3895 2.97165   3
   0  -5  -3 50.2211 3.07576   3
   0  -5   3 55.8731 3.33582   2
   0   5   3 46.6631 2.85352   3
   0   5  -3 47.9244 2.93173   3
   1  -5   3 4.24712 0.48836   3
   1  -5   3 4.21507 0.49624   2
  -1   5  -3 3.32759 0.44045   3
   1   5   3 3.96691 0.46780   3
   2  -5   3 18.2700 1.21800   3
   2   5   3 14.0674 0.95889   3
  -2   5  -3 15.4255 1.04872   3
   3  -5   3 7.35465 0.63817   3
  -3  -5  -3 8.92541 0.74378   3
  -3   5  -3 8.77160 0.68296   3
   3   5   3 8.88353 0.69551   3
  -3   5  -3 7.87506 0.70452   2
   4  -5   3 64.9517 3.84025   2
   4  -5   3 73.2189 4.45231   3
  -4  -5  -3 75.6397 4.59450   3
  -4   5  -3 67.6444 4.01369   2
  -4   5  -3 67.5026 4.11508   3
   4   5   3 64.7991 3.94591   3
   5  -5   3 139.441 8.38953   3
  -5  -5  -3 137.791 8.29662   3
  -5   5  -3 139.032 8.37249   3
  -5   5  -3 176.149 10.2737   2
   6  -5   3 106.626 6.24135   2
   6  -5   3 107.687 6.50157   3
  -6  -5  -3 112.491 6.78511   3
   6   5   3 96.9247 5.86956   3
  -6   5  -3 112.950 6.61791   2
   7  -5   3 95.0569 5.56923   2
  -7  -5  -3 100.819 6.11866   3
  -7   5  -3 101.110 6.11603   3
   7   5   3 93.6588 5.66929   3
  -7   5  -3 92.6625 5.46257   2
  -8  -5  -3 72.6654 4.44343   3
   8  -5   3 67.9091 4.16804   3
   8  -5   3 82.7555 4.88841   2
  -8   5  -3 68.0713 4.16299   3
  -8   5  -3 79.6197 4.74237   2
   8   5   3 68.6389 4.18981   3
   9  -5   3 36.6353 2.35517   3
   9  -5   3 35.6854 2.19567   2
  -9   5  -3 35.4679 2.25854   3
  -9   5  -3 36.9930 2.29297   2
  10  -5   3 15.8468 1.12049   2
  10  -5   3 13.0870 1.04751   3
 -10   5  -3 14.8760 1.12620   2
 -10   5  -3 15.6160 1.16634   3
  12  -5   3 0.17422 0.57704   2
  12  -5   3 1.19036 0.66763   3
 -12   5  -3 1.04347 0.70444   3
 -12   5  -3 0.52056 0.64970   2
  13  -5   3 -0.1628 0.71626   3
  13  -5   3 -0.4735 0.54555   2
 -13   5  -3 -0.7748 0.71920   3
 -13   5  -3 0.00000 0.64399   2
  14  -5   3 4.63175 0.79634   3
  14  -5   3 4.83204 0.65085   2
 -14   5  -3 3.62453 0.70394   2
  15  -5   3 8.33395 0.79262   2
 -15   5  -3 7.94302 0.78819   2
  15  -6  -3 0.75042 0.77232   3
  14  -6  -3 10.3446 1.03291   3
 -14   6   3 9.51453 0.99147   3
  13  -6  -3 28.4285 1.93737   3
  13   6  -3 29.3351 2.03881   3
 -13   6   3 30.6825 2.04051   3
 -12  -6   3 -0.6092 0.69596   3
  12  -6  -3 1.14068 0.72786   3
 -12   6   3 0.41481 0.78594   3
  12   6  -3 -0.1628 0.74180   3
  11  -6  -3 10.5163 1.00788   3
 -11   6   3 11.1828 1.03975   3
  11   6  -3 11.7499 1.01661   3
 -10  -6   3 47.5902 2.97771   3
  10  -6  -3 46.7339 2.94903   3
  10   6  -3 48.3423 3.03816   3
 -10   6   3 50.3351 3.16892   3
  -9  -6   3 29.5970 1.95266   3
   9  -6  -3 28.0182 1.85750   3
  -9   6   3 27.5174 1.83766   3
   9   6  -3 32.8077 2.14782   3
  -8  -6   3 38.1693 2.43400   3
   8  -6  -3 34.2347 2.20970   3
  -8   6   3 37.4038 2.37897   3
   8   6  -3 38.7928 2.46336   3
  -7  -6   3 8.48034 0.81078   3
   7  -6  -3 6.86263 0.79280   3
   7   6  -3 8.63313 0.80693   3
  -7   6   3 8.79982 0.84030   3
  -6  -6   3 11.9344 0.97434   3
   6   6  -3 12.5972 0.98151   3
  -6   6   3 11.8884 0.96068   3
   5  -6  -3 18.0086 1.27692   3
  -5  -6   3 18.6739 1.27571   3
   5   6  -3 18.5300 1.28845   3
  -4  -6   3 0.35350 0.48041   3
   4  -6  -3 0.71739 0.51068   3
  -4   6   3 -0.3270 0.47210   3
   4   6  -3 0.48721 0.53600   3
   3  -6  -3 4.95066 0.61597   3
  -3  -6   3 6.42506 0.65781   3
  -3   6   3 4.79907 0.56853   3
   2  -6  -3 33.7835 2.13249   3
  -2   6   3 35.2148 2.21969   3
   2   6  -3 33.0966 2.05878   3
  -1  -6   3 51.8803 3.19532   3
   1  -6  -3 50.3867 3.10564   3
  -1   6   3 52.1686 3.20636   3
   1   6  -3 51.2771 3.13271   3
   0  -6   3 31.4505 1.98477   3
   0  -6  -3 30.2644 1.91867   3
   0   6  -3 29.8625 1.89392   3
   0   6   3 31.0361 1.98402   3
  -1  -6  -3 39.0726 2.43288   3
   1  -6   3 45.3026 2.81432   3
   1   6   3 47.5135 2.96534   3
  -1   6  -3 42.7925 2.65804   3
  -2  -6  -3 51.6669 3.18321   3
   2  -6   3 51.5344 3.17750   3
   2   6   3 49.8114 3.06537   3
  -2   6  -3 49.9265 3.08497   3
   3  -6   3 65.8902 4.02415   3
   3  -6   3 61.2140 3.64936   2
  -3   6  -3 65.1557 3.89063   2
  -3   6  -3 66.4406 4.06450   3
   4  -6   3 15.6188 1.12927   3
   4  -6   3 15.3680 1.09975   2
  -4  -6  -3 16.3680 1.14784   3
  -4   6  -3 14.1579 1.02523   3
  -4   6  -3 16.3052 1.18011   2
  -5  -6  -3 2.76801 0.59532   3
   5  -6   3 0.47366 0.54593   3
   5  -6   3 0.06722 0.54215   2
   5   6   3 1.99109 0.50729   3
  -5   6  -3 1.15549 0.57770   2
  -5   6  -3 1.33798 0.50677   3
   6  -6   3 18.3136 1.28304   3
  -6  -6  -3 19.2789 1.38264   3
   6  -6   3 18.0004 1.23660   2
   6   6   3 17.8100 1.24230   3
  -6   6  -3 16.7949 1.24094   2
  -6   6  -3 17.4191 1.21423   3
   7  -6   3 3.33967 0.66379   3
  -7  -6  -3 2.70386 0.59501   3
  -7   6  -3 2.46470 0.74603   2
   7   6   3 2.68837 0.59637   3
  -8   6  -3 4.36061 0.70700   2
  -8   6  -3 3.86073 0.64221   3
   9  -6   3 2.40669 0.64374   2
   9  -6   3 2.76950 0.69936   3
  -9   6  -3 3.69018 0.83600   2
  -9   6  -3 3.16519 0.63767   3
  10  -6   3 5.36061 0.72183   3
  10  -6   3 3.93717 0.67683   2
 -10   6  -3 5.12984 0.68428   3
  11  -6   3 23.0227 1.54169   2
  11  -6   3 21.8576 1.53629   3
 -11   6  -3 20.6581 1.46748   3
  12  -6   3 20.4969 1.50007   3
 -12   6  -3 22.7119 1.62128   3
  13  -6   3 5.48560 0.79297   3
  12  -7  -3 1.06380 0.69723   3
 -12   7   3 0.57402 0.73255   3
  11  -7  -3 3.15288 0.68888   3
 -11   7   3 2.31935 0.66161   3
  10  -7  -3 6.65305 0.78977   3
 -10   7   3 8.11861 0.84758   3
   9  -7  -3 0.12867 0.66061   3
  -9   7   3 0.21226 0.67721   3
   9   7  -3 -0.5324 0.67948   3
  -8  -7   3 2.01968 0.60814   3
   8   7  -3 1.62927 0.61263   3
  -8   7   3 0.89492 0.67983   3
  -7  -7   3 2.57210 0.60468   3
   7  -7  -3 1.81826 0.57487   3
   7   7  -3 2.09508 0.55227   3
  -6  -7   3 -0.2591 0.52266   3
   6  -7  -3 -0.6518 0.55514   3
   6   7  -3 0.39007 0.52450   3
  -6   7   3 -0.1250 0.61885   3
   5  -7  -3 1.70336 0.58705   3
  -5  -7   3 0.70834 0.55010   3
   5   7  -3 1.88281 0.59185   3
  -5   7   3 1.94670 0.57408   3
   4  -7  -3 0.22532 0.54084   3
  -4  -7   3 -0.2278 0.50126   3
  -4   7   3 0.55499 0.47489   3
   4   7  -3 0.02133 0.46922   3
   3  -7  -3 0.99141 0.55695   3
  -3  -7   3 0.20929 0.50656   3
  -3   7   3 -0.1638 0.49541   3
   3   7  -3 0.12841 0.44735   3
  -2  -7   3 0.60563 0.50547   3
   2  -7  -3 1.34785 0.47835   3
  -2   7   3 1.19646 0.47012   3
   1  -7  -3 2.67134 0.57856   3
  -1   7   3 1.82892 0.53198   3
   1   7  -3 1.77176 0.45728   3
   0  -7   3 2.22500 0.53119   3
   0  -7  -3 1.52281 0.55849   3
   0   7   3 2.44071 0.47114   3
   0   7  -3 1.97760 0.54396   3
   1  -7   3 -1.2923 0.55423   3
  -1  -7  -3 0.61836 0.53954   3
  -1   7  -3 -0.6705 0.49969   3
   1   7   3 -0.2463 0.54183   3
   2  -7   3 -0.2184 0.45648   3
  -2  -7  -3 -0.1047 0.52986   3
  -2   7  -3 0.15427 0.50917   3
  -3  -7  -3 0.31224 0.50383   3
   3  -7   3 1.55844 0.47627   3
   3   7   3 0.44852 0.51694   3
  -3   7  -3 1.25154 0.50728   3
  -4  -7  -3 0.25833 0.52104   3
   4  -7   3 0.15785 0.47135   3
  -4   7  -3 0.88012 0.45993   3
   4   7   3 -0.8333 0.55488   3
   5  -7   3 0.08751 0.50542   3
  -5  -7  -3 0.91431 0.56142   3
  -5   7  -3 0.37100 0.50419   3
   5   7   3 -0.0872 0.57586   3
   6  -7   3 0.65174 0.52582   3
  -6   7  -3 0.53653 0.49582   3
   7  -7   3 2.59155 0.63362   3
  -7   7  -3 1.66618 0.65126   3
   8  -7   3 0.52847 0.65407   3
  -9   7  -3 -0.4045 0.69218   3
  10  -7   3 -1.8840 0.69921   3
 -10   7  -3 -0.1598 0.75355   3
  -6   8   3 2.26506 0.64610   3
   5  -8  -3 0.54506 0.62271   3
  -5   8   3 -0.4386 0.64330   3
   5   8  -3 0.57580 0.51616   3
  -4  -8   3 0.02140 0.51804   3
   4  -8  -3 -0.7977 0.60756   3
  -4   8   3 0.78551 0.59828   3
   4   8  -3 -0.1105 0.48646   3
  -3  -8   3 1.60895 0.50578   3
   3  -8  -3 1.58696 0.57434   3
   3   8  -3 3.08042 0.68252   3
  -3   8   3 1.39057 0.52521   3
   2  -8  -3 1.36104 0.52985   3
  -2  -8   3 1.21070 0.45931   3
  -2   8   3 0.73146 0.48285   3
   2   8  -3 1.30847 0.54278   3
  -1  -8   3 2.84829 0.62200   3
  -1   8   3 3.33286 0.50743   3
   1   8  -3 2.14935 0.54395   3
   0  -8   3 6.42174 0.71639   3
  -1   8  -3 1.56781 0.49621   3
   2  -8   3 4.95190 0.65691   3
  -2   8  -3 5.31231 0.66326   3
   3  -8   3 2.47216 0.53429   3
  -3   8  -3 2.06699 0.49750   3
   4  -8   3 -0.4291 0.59010   3
  -4   8  -3 0.19365 0.59178   3
   5  -8   3 -0.2364 0.52024   3
  -5   8  -3 1.23011 0.60665   3
 -21   0   4 18.4789 1.44180   2
  21   0  -4 19.9220 1.50697   2
  20   0  -4 12.8797 1.43434   3
  20   0  -4 15.0068 1.21070   2
 -20   0   4 15.9747 1.42829   2
 -20   0   4 11.5170 1.24771   3
  19   0  -4 0.68522 0.73680   2
  19   0  -4 1.48114 1.07712   3
 -19   0   4 1.19759 0.80700   2
  18   0  -4 1.77029 0.89266   3
 -18   0   4 1.34574 0.91974   2
 -18   0   4 1.89201 0.84905   3
  17   0  -4 47.2830 2.88748   2
  17   0  -4 47.2542 3.03419   3
 -17   0   4 50.5758 3.18642   3
  16   0  -4 74.7494 4.61619   3
 -16   0   4 78.1442 4.80636   3
  16   0  -4 73.7703 4.36914   2
 -15   0   4 59.1133 3.55421   2
 -15   0   4 70.0779 4.31670   3
  15   0  -4 62.2879 3.70995   2
  15   0  -4 67.3264 4.17596   3
  14   0  -4 585.482 33.8691   2
  14   0  -4 602.811 36.0796   3
 -14   0   4 588.027 34.0002   2
 -14   0   4 635.992 38.0563   3
 -13   0   4 622.080 35.9608   2
  13   0  -4 650.068 38.8926   3
  13   0  -4 629.419 36.4009   2
 -13   0   4 642.041 38.3982   3
 -12   0   4 138.558 8.07138   2
  12   0  -4 134.441 12.5200   1
 -12   0   4 132.899 12.3732   1
 -12   0   4 134.215 12.4954   1
  12   0  -4 131.987 12.2921   1
  12   0  -4 143.179 8.33858   2
 -11   0   4 338.866 31.5372   1
  11   0  -4 340.749 31.7343   1
 -11   0   4 353.207 21.1701   3
 -11   0   4 341.973 31.8462   1
  11   0  -4 338.585 31.5228   1
 -11   0   4 350.119 20.2578   2
  11   0  -4 356.864 20.6612   2
  11   0  -4 391.305 23.4392   3
  10   0  -4 425.321 39.5959   1
  10   0  -4 443.371 26.5297   3
 -10   0   4 430.553 40.0898   1
 -10   0   4 438.272 40.8042   1
  10   0  -4 425.054 39.5824   1
  10   0  -4 437.051 25.2663   2
 -10   0   4 435.407 25.1841   2
   9   0  -4 54.9405 5.11666   1
   9   0  -4 63.3458 5.90481   1
   9   0  -4 63.1501 3.84959   3
  -9   0   4 63.0896 3.83996   3
  -9   0   4 64.9326 6.04298   1
  -9   0   4 61.1602 3.59832   2
   9   0  -4 64.3493 3.77495   2
  -9   0   4 61.7733 5.75643   1
   9   0  -4 59.0469 5.50466   1
   8   0  -4 57.2433 3.50488   3
  -8   0   4 59.6521 3.63429   3
  -8   0   4 56.6301 5.27286   1
  -8   0   4 61.9564 5.76651   1
   8   0  -4 59.9460 5.58228   1
   8   0  -4 61.2794 3.59067   2
   8   0  -4 59.6394 5.55462   1
  -8   0   4 57.3711 3.37351   2
  -7   0   4 104.819 9.75825   1
  -7   0   4 104.033 6.25982   3
   7   0  -4 103.848 9.67294   1
  -7   0   4 118.741 11.0571   1
  -7   0   4 91.3227 5.31218   2
   7   0  -4 109.408 6.59179   3
   7   0  -4 103.063 5.99381   2
   7   0  -4 113.530 10.5695   1
  -6   0   4 287.697 26.8019   1
  -6   0   4 256.890 15.3605   3
   6   0  -4 280.416 26.1156   1
   6   0  -4 286.355 26.6436   1
  -6   0   4 277.047 25.8105   1
  -6   0   4 242.825 14.0561   2
   6   0  -4 252.354 15.1126   3
   6   0  -4 277.496 16.0475   2
  -5   0   4 51.4851 3.01416   2
   5   0  -4 51.2833 3.00025   2
  -5   0   4 53.9805 3.27612   3
  -5   0   4 63.9819 5.96092   1
   5   0  -4 56.3868 3.42333   3
  -5   0   4 50.5320 4.70867   1
   5   0  -4 58.7542 5.47323   1
   5   0  -4 53.2259 4.95520   1
   4   0  -4 2250.84 209.578   1
  -4   0   4 2064.14 119.081   2
   4   0  -4 2281.95 212.410   1
   4   0  -4 2051.47 118.406   2
  -4   0   4 2323.97 216.372   1
  -4   0   4 2319.88 215.910   1
   4   0  -4 2007.29 119.947   3
  -4   0   4 2037.96 121.774   3
   3   0  -4 892.459 51.4967   2
   3   0  -4 907.131 84.4614   1
  -3   0   4 880.718 50.8405   2
  -3   0   4 995.242 92.6564   1
  -3   0   4 908.594 84.6092   1
   3   0  -4 883.672 82.2758   1
  -3   0   4 812.284 48.5509   3
   3   0  -4 849.236 50.7426   3
   2   0  -4 2394.44 138.218   2
  -2   0   4 2757.54 256.897   1
  -2   0   4 2189.38 130.864   3
   2   0  -4 2924.94 272.447   1
   2   0  -4 2770.66 165.411   3
   2   0  -4 2697.40 251.067   1
  -2   0   4 2989.48 278.254   1
  -1   0   4 5226.55 486.742   1
  -1   0   4 4801.06 447.189   1
   1   0  -4 4862.41 452.730   1
   0   0   4 800.952 74.5691   1
   0   0  -4 822.367 76.5660   1
   0   0   4 707.209 42.2492   3
   0   0  -4 682.405 39.4022   2
   0   0   4 827.365 77.0322   1
   0   0  -4 717.246 42.8483   3
   0   0   4 570.407 32.9503   2
   0   0  -4 814.582 75.8316   1
   1   0   4 1486.91 138.460   1
   1   0   4 1489.24 85.9920   2
  -1   0  -4 1583.71 147.465   1
  -1   0  -4 1540.26 92.0359   3
   1   0   4 1758.79 163.725   1
  -1   0  -4 1712.41 159.440   1
   2   0   4 529.136 49.2742   1
   2   0   4 495.278 46.1145   1
  -2   0  -4 510.783 30.5257   3
   2   0   4 550.817 32.9074   3
   2   0   4 451.039 26.0690   2
   3   0   4 42.4137 2.48029   2
  -3   0  -4 48.4524 2.90402   3
   3   0   4 44.3847 4.13757   1
   3   0   4 51.6145 4.80890   1
  -3   0  -4 38.2265 2.25106   2
  -4   0  -4 121.280 7.03030   2
  -4   0  -4 144.115 13.4172   1
  -4   0  -4 127.475 11.8677   1
  -4   0  -4 115.486 6.92920   3
  -5   0  -4 307.975 28.6563   1
  -5   0  -4 314.487 29.2796   1
  -5   0  -4 271.964 15.7347   2
  -5   0  -4 289.706 17.3327   3
  -6   0  -4 211.676 12.6735   3
  -6   0  -4 235.233 21.8974   1
  -6   0  -4 212.633 12.3326   2
   6   0   4 215.915 20.1021   1
   6   0   4 228.277 13.2281   2
  -6   0  -4 222.132 20.6819   1
   6   0   4 246.861 22.9773   1
   7   0   4 676.839 63.0145   1
   7   0   4 630.482 58.7061   1
  -7   0  -4 627.116 36.2424   2
  -7   0  -4 637.740 59.3949   1
  -7   0  -4 639.538 38.2303   3
   7   0   4 627.428 36.2584   2
  -7   0  -4 582.779 54.2786   1
   8   0   4 364.107 21.0635   2
   8   0   4 372.722 34.7011   1
   8   0   4 383.205 35.6801   1
  -8   0  -4 354.500 20.5156   2
  -8   0  -4 368.110 34.2739   1
  -8   0  -4 350.545 32.6338   1
   9   0   4 418.690 24.2100   2
   9   0   4 444.135 41.3571   1
  -9   0  -4 421.022 24.3462   2
   9   0   4 414.661 38.6118   1
  -9   0  -4 356.639 33.2134   1
  -9   0  -4 401.644 37.4157   1
  -9   0  -4 391.009 36.4095   1
  -9   0  -4 454.662 27.1915   3
  10   0   4 228.763 21.3067   1
 -10   0  -4 223.529 20.8147   1
 -10   0  -4 266.274 15.9651   3
  10   0   4 206.826 12.4350   3
  11   0   4 310.810 17.9991   2
 -11   0  -4 338.349 20.2720   3
 -11   0  -4 368.692 21.3520   2
 -12   0  -4 270.080 16.2075   3
 -12   0  -4 242.731 14.0924   2
  12   0   4 235.707 13.6733   2
  13   0   4 15.6659 1.15447   2
 -14   0  -4 31.6776 2.06527   2
  14   0   4 32.6760 2.06183   2
  15   0   4 0.18514 0.61320   2
  16   0   4 9.26820 0.96388   2
 -16   0  -4 8.13545 0.98706   2
  17   0   4 16.3889 1.28093   2
  18   0   4 60.7793 3.68473   2
  22  -1  -4 11.4677 0.98522   2
  21  -1  -4 16.4886 1.22505   2
  21   1  -4 15.3214 1.24493   2
 -21   1   4 13.5439 1.16181   2
 -20  -1   4 15.9501 1.43007   3
  20  -1  -4 15.7697 1.33575   3
  20  -1  -4 15.0279 1.16593   2
  20   1  -4 16.7938 1.50204   3
  20   1  -4 17.4938 1.30654   2
 -20   1   4 15.5441 1.24556   2
 -19  -1   4 30.3431 2.10423   3
  19  -1  -4 25.2533 1.80855   3
  19  -1  -4 27.8473 1.81350   2
 -19  -1   4 22.2949 1.73060   2
 -19   1   4 26.1752 1.89288   3
 -19   1   4 27.9368 1.84445   2
  19   1  -4 27.2657 1.85479   2
  18  -1  -4 25.0343 1.80761   3
  18  -1  -4 23.8674 1.58353   2
 -18  -1   4 24.1892 1.71102   2
 -18   1   4 23.7183 1.62348   2
  18   1  -4 24.5864 1.69204   2
 -18   1   4 24.1243 1.74747   3
  18   1  -4 25.4665 1.83337   3
  17  -1  -4 76.2902 4.52558   2
 -17  -1   4 84.8376 5.20560   3
  17  -1  -4 81.9038 5.04585   3
 -17  -1   4 76.6947 4.59085   2
  17   1  -4 81.1159 4.84012   2
 -17   1   4 80.3936 4.93261   3
 -17   1   4 79.2488 4.70119   2
  17   1  -4 85.1430 5.27247   3
  16  -1  -4 21.2113 1.40281   2
  16  -1  -4 19.8223 1.49439   3
 -16  -1   4 21.5030 1.55998   2
 -16  -1   4 22.5666 1.64526   3
  16   1  -4 21.4402 1.49885   2
 -16   1   4 19.5580 1.43818   3
  16   1  -4 23.4866 1.72967   3
 -16   1   4 20.1076 1.38151   2
 -15  -1   4 2.13247 0.73182   2
  15  -1  -4 1.58672 0.52232   2
 -15  -1   4 2.26247 0.80972   3
  15  -1  -4 1.20281 0.81651   3
 -15   1   4 2.47902 0.64063   2
  15   1  -4 0.82046 0.55142   2
  15   1  -4 2.65977 0.88071   3
 -15   1   4 2.40670 0.79162   3
  14  -1  -4 17.5795 1.20694   2
 -14  -1   4 19.9142 1.42245   2
  14  -1  -4 19.4116 1.42890   3
 -14  -1   4 16.8263 1.25616   3
 -14   1   4 18.1832 1.31155   3
 -14   1   4 18.0322 1.24865   2
  14   1  -4 18.5991 1.26968   2
  14   1  -4 18.2311 1.41311   3
  13  -1  -4 1.25300 0.49870   2
 -13  -1   4 0.86577 0.61452   3
 -13   1   4 2.21826 0.57963   2
  13   1  -4 0.98060 0.56488   2
 -13   1   4 0.89248 0.62732   3
  13   1  -4 1.34126 0.73781   3
  12  -1  -4 -0.2282 0.44694   2
 -12  -1   4 0.44506 0.11647   1
  12  -1  -4 -0.1579 0.63676   3
 -12   1   4 0.69581 0.50769   2
  12   1  -4 0.23428 0.11353   1
 -12   1   4 0.13934 0.09323   1
 -11  -1   4 55.2405 5.14211   1
  11  -1  -4 55.2981 3.43967   3
  11  -1  -4 44.8927 4.18809   1
 -11  -1   4 51.0594 4.75630   1
  11  -1  -4 53.3412 3.17048   2
 -11  -1   4 50.9129 3.14966   3
  11  -1  -4 51.3743 4.78950   1
 -11  -1   4 60.0412 3.57851   2
 -11   1   4 44.0306 4.09933   1
  11   1  -4 52.8294 4.92358   1
  11   1  -4 49.8179 4.64175   1
 -11   1   4 51.7696 4.82557   1
 -11   1   4 53.1533 3.17787   2
  10  -1  -4 278.907 25.9715   1
  10  -1  -4 289.619 16.7609   2
 -10  -1   4 272.826 16.3618   3
  10  -1  -4 254.271 23.6681   1
  10  -1  -4 290.697 17.4356   3
 -10  -1   4 289.471 26.9519   1
 -10  -1   4 271.641 25.2866   1
 -10   1   4 272.162 25.3425   1
  10   1  -4 271.438 15.7378   2
 -10   1   4 294.987 17.0884   2
 -10   1   4 296.560 17.7666   3
 -10   1   4 263.002 24.4894   1
   9  -1  -4 189.139 11.3596   3
   9  -1  -4 185.453 10.7472   2
   9  -1  -4 178.534 16.6278   1
   9  -1  -4 180.347 16.7949   1
   9   1  -4 183.126 10.6289   2
  -9   1   4 178.539 16.6302   1
   9   1  -4 184.622 17.1900   1
   9   1  -4 183.597 11.0342   3
  -9   1   4 180.672 16.8266   1
   9   1  -4 177.642 16.5466   1
  -9   1   4 184.990 11.1045   3
  -9   1   4 189.742 11.0119   2
  -8  -1   4 328.787 19.6662   3
   8  -1  -4 321.486 19.2617   3
   8  -1  -4 336.028 19.4271   2
   8  -1  -4 328.569 30.5800   1
   8  -1  -4 345.379 32.1713   1
  -8   1   4 319.523 19.1251   3
  -8   1   4 329.357 30.6603   1
  -8   1   4 335.150 19.3791   2
  -8   1   4 340.761 31.7154   1
   8   1  -4 332.527 19.2282   2
   8   1  -4 353.531 32.9181   1
   8   1  -4 335.926 31.2831   1
   8   1  -4 326.368 19.5541   3
   7  -1  -4 1001.26 93.2340   1
   7  -1  -4 1032.95 96.1626   1
  -7  -1   4 1004.69 60.0259   3
  -7  -1   4 1031.43 96.0470   1
   7  -1  -4 967.118 57.7771   3
  -7  -1   4 1067.23 99.3718   1
  -7  -1   4 1048.96 60.5629   2
   7  -1  -4 978.264 56.5055   2
  -7   1   4 997.412 57.5750   2
   7   1  -4 1013.51 60.5623   3
  -7   1   4 1008.13 60.2202   3
   7   1  -4 1031.05 95.9926   1
  -7   1   4 1045.55 97.3447   1
   7   1  -4 1011.45 94.1776   1
   7   1  -4 1000.89 57.8263   2
  -7   1   4 951.305 88.5752   1
  -6  -1   4 193.205 17.9903   1
  -6  -1   4 206.014 19.1800   1
  -6  -1   4 206.962 12.0032   2
   6  -1  -4 201.039 12.0634   3
  -6  -1   4 192.300 11.5394   3
  -6   1   4 199.729 18.5942   1
  -6   1   4 188.771 11.3170   3
  -6   1   4 205.597 19.1507   1
   6   1  -4 197.569 18.3943   1
   6   1  -4 194.917 11.6913   3
  -6   1   4 185.272 10.7222   2
   6   1  -4 192.747 11.1664   2
   6   1  -4 205.726 19.1580   1
  -5  -1   4 811.960 48.5051   3
   5  -1  -4 756.770 45.2341   3
  -5  -1   4 782.704 45.2157   2
  -5  -1   4 794.710 74.0084   1
  -5  -1   4 841.117 78.3133   1
   5   1  -4 845.165 78.7081   1
   5   1  -4 933.650 86.9163   1
  -5   1   4 771.882 46.1193   3
   5   1  -4 874.196 52.2295   3
  -5   1   4 738.005 42.6253   2
   5   1  -4 723.933 41.8254   2
  -5   1   4 811.314 75.5379   1
  -5   1   4 810.412 75.4551   1
   4  -1  -4 339.079 20.2785   3
  -4  -1   4 407.323 37.9350   1
  -4  -1   4 365.763 34.0621   1
   4  -1  -4 449.403 41.8454   1
   4  -1  -4 360.593 20.8286   2
  -4  -1   4 377.769 22.5949   3
   4  -1  -4 403.188 37.5353   1
   4   1  -4 384.518 35.8072   1
   4   1  -4 328.982 19.0286   2
  -4   1   4 375.001 34.9117   1
  -4   1   4 300.741 28.0185   1
   4   1  -4 436.809 40.6637   1
  -4   1   4 356.877 21.3449   3
   4   1  -4 379.895 22.7264   3
   3  -1  -4 238.359 13.7771   2
  -3  -1   4 264.298 24.6114   1
  -3  -1   4 285.089 26.5463   1
   3  -1  -4 217.372 13.0076   3
   3  -1  -4 264.910 24.6737   1
   3  -1  -4 262.737 24.4729   1
   3   1  -4 267.587 24.9198   1
  -3   1   4 236.347 14.1550   3
  -2  -1   4 99.2068 9.23954   1
   2  -1  -4 77.0964 4.45875   2
   2  -1  -4 89.4756 8.32807   1
   2  -1  -4 95.0040 8.84279   1
  -2  -1   4 80.8648 7.52807   1
  -2  -1   4 79.8784 4.79070   3
  -2   1   4 87.2600 5.04683   2
   2   1  -4 86.4762 8.05407   1
   2   1  -4 71.2515 4.13148   2
  -2   1   4 81.3801 4.88024   3
   2   1  -4 78.5715 4.71885   3
   2   1  -4 102.610 9.55428   1
  -1  -1   4 115.723 10.7721   1
  -1  -1   4 102.436 5.94237   2
   1  -1  -4 102.018 5.90028   2
   1  -1  -4 142.066 13.2308   1
  -1  -1   4 113.269 10.5475   1
  -1  -1   4 113.645 6.81493   3
   1   1  -4 118.299 11.0152   1
  -1   1   4 140.231 13.0523   1
   1   1  -4 102.059 5.92057   2
   1   1  -4 111.359 10.3740   1
  -1   1   4 149.000 13.8708   1
   1   1  -4 109.441 6.56430   3
   0  -1   4 111.352 10.3724   1
   0  -1  -4 114.343 6.84551   3
   0  -1   4 108.948 6.51707   3
   0  -1  -4 126.121 7.29721   2
   0  -1   4 111.646 6.47530   2
   0  -1   4 109.133 10.1616   1
   0  -1  -4 148.580 13.8330   1
   0   1  -4 113.853 6.60700   2
   0   1  -4 107.982 10.0551   1
   0   1   4 145.555 13.5506   1
   0   1   4 129.641 12.0727   1
   0   1   4 103.729 6.00111   2
   0   1  -4 109.224 10.1675   1
  -1  -1  -4 488.056 45.4465   1
   1  -1   4 462.696 43.0831   1
   1  -1   4 424.436 24.5343   2
  -1  -1  -4 456.330 26.3424   2
  -1  -1  -4 546.412 50.8564   1
   1  -1   4 442.078 41.1623   1
  -1  -1  -4 501.069 29.9236   3
   1   1   4 369.962 34.4640   1
   1   1   4 483.944 27.9492   2
  -1   1  -4 412.432 23.8306   2
  -1   1  -4 454.157 42.2800   1
   1   1   4 537.066 49.9913   1
  -1   1  -4 457.153 42.5671   1
  -1   1  -4 396.033 23.6688   3
   2  -1   4 398.701 23.8397   3
   2  -1   4 440.943 41.0481   1
   2  -1   4 422.801 24.4440   2
  -2  -1  -4 498.445 46.4058   1
  -2  -1  -4 513.600 47.8313   1
  -2  -1  -4 458.526 26.4854   2
   2  -1   4 466.993 43.4709   1
  -2   1  -4 448.130 41.7346   1
  -2   1  -4 417.390 24.1219   2
  -2   1  -4 420.130 25.1045   3
   2   1   4 547.140 50.9366   1
  -2   1  -4 447.577 41.6961   1
   2   1   4 450.276 26.0072   2
   2   1   4 526.125 48.9929   1
  -3  -1  -4 71.0542 4.26121   3
   3  -1   4 87.0031 8.10350   1
  -3  -1  -4 83.7198 7.79795   1
   3  -1   4 71.1934 4.26910   3
  -3  -1  -4 99.2559 9.24257   1
   3  -1   4 79.6889 7.42166   1
   3  -1   4 73.5885 4.29294   2
  -3  -1  -4 80.7513 4.68545   2
  -3   1  -4 82.1929 4.93319   3
   3   1   4 74.1236 4.28715   2
  -3   1  -4 83.7482 7.80145   1
   3   1   4 88.0362 8.19608   1
  -3   1  -4 72.3541 4.21583   2
  -3   1  -4 79.5099 7.40302   1
   3   1   4 96.8369 9.01708   1
   4  -1   4 783.325 45.2400   2
   4  -1   4 831.914 77.4542   1
   4  -1   4 812.862 48.5601   3
  -4  -1  -4 882.544 82.1755   1
   4  -1   4 922.108 85.8455   1
  -4  -1  -4 972.422 58.0865   3
  -4  -1  -4 763.109 44.0820   2
  -4  -1  -4 877.279 81.6588   1
  -4   1  -4 777.305 46.4529   3
  -4   1  -4 835.185 77.7705   1
  -4   1  -4 816.862 47.1848   2
   4   1   4 895.087 83.3123   1
   4   1   4 789.518 45.6053   2
   4   1   4 952.162 88.6501   1
   5  -1   4 343.656 32.0116   1
   5  -1   4 347.019 32.3032   1
  -5  -1  -4 326.128 30.3547   1
   5  -1   4 301.078 18.0130   3
  -5  -1  -4 382.662 35.6191   1
   5  -1   4 333.529 19.2864   2
  -5  -1  -4 369.147 22.0754   3
  -5  -1  -4 359.307 20.7669   2
   5   1   4 391.848 36.4816   1
  -5   1  -4 345.854 19.9923   2
   5   1   4 369.087 21.3336   2
  -5   1  -4 342.447 31.8993   1
   5   1   4 350.168 32.5955   1
  -5   1  -4 316.620 18.9292   3
  -5   1  -4 368.794 34.3428   1
  -6  -1  -4 228.055 13.6466   3
   6  -1   4 259.150 24.1408   1
   6  -1   4 269.517 16.1240   3
   6  -1   4 232.640 13.4836   2
  -6  -1  -4 235.300 21.9177   1
  -6  -1  -4 251.655 14.5577   2
  -6  -1  -4 245.266 22.8431   1
   6  -1   4 246.307 22.9425   1
   6   1   4 234.810 13.5902   2
   6   1   4 244.084 22.7283   1
   6   1   4 299.275 27.8562   1
  -6   1  -4 241.262 14.4422   3
  -6   1  -4 237.152 13.7340   2
  -6   1  -4 240.933 22.4364   1
  -6   1  -4 259.122 24.1338   1
  -7  -1  -4 164.829 15.3521   1
   7  -1   4 170.645 15.8900   1
  -7  -1  -4 193.222 11.1910   2
  -7  -1  -4 176.324 16.4170   1
   7  -1   4 172.162 16.0284   1
   7  -1   4 184.369 10.7045   2
  -7   1  -4 184.063 17.1353   1
  -7   1  -4 175.866 10.2103   2
  -7   1  -4 168.262 15.6680   1
   7   1   4 171.506 9.94154   2
   7   1   4 172.011 16.0147   1
  -7   1  -4 202.986 12.1810   3
   7   1   4 186.180 17.3343   1
  -8  -1  -4 80.2157 4.71727   2
   8  -1   4 67.5230 6.29216   1
   8  -1   4 79.8261 4.66466   2
   8  -1   4 74.8505 6.97001   1
  -8  -1  -4 71.6748 6.67820   1
  -8  -1  -4 78.7857 4.77075   3
  -8  -1  -4 78.5074 7.31043   1
   8   1   4 72.0229 6.71133   1
  -8   1  -4 82.1670 4.96815   3
   8   1   4 75.0372 4.39614   2
   8   1   4 78.7276 7.33032   1
  -8   1  -4 77.1875 4.54479   2
  -9  -1  -4 1.35470 0.51593   3
  -9  -1  -4 1.43355 0.15779   1
   9  -1   4 1.12622 0.13800   1
  -9  -1  -4 1.49439 0.18102   1
   9  -1   4 2.27467 0.74481   3
   9   1   4 2.49501 0.51044   2
  -9   1  -4 2.13905 0.56600   3
   9   1   4 2.05182 0.21605   1
   9   1   4 1.66687 0.18595   1
  10  -1   4 50.2143 2.99248   2
  10  -1   4 54.1164 3.38840   3
 -10  -1  -4 54.0415 3.32684   3
 -10  -1  -4 48.7190 2.90811   2
  10   1   4 52.2155 3.11473   2
  10   1   4 42.2886 3.94095   1
  11  -1   4 8.20411 0.72555   2
 -11   1  -4 8.87717 0.85571   3
 -11   1  -4 7.54197 0.77287   2
  11   1   4 8.00642 0.74484   2
 -12  -1  -4 79.9725 4.72125   2
  12  -1   4 83.3130 5.11491   3
 -12   1  -4 81.1339 4.79180   2
 -12   1  -4 84.9414 5.18343   3
  12   1   4 83.1524 4.90885   2
  13  -1   4 44.1784 2.68798   2
  13  -1   4 42.7529 2.79346   3
  13   1   4 50.4358 3.04890   2
 -13   1  -4 51.0430 3.08908   2
 -13   1  -4 48.2774 3.06292   3
  14  -1   4 38.8340 2.39486   2
 -14   1  -4 41.1491 2.57635   2
  14   1   4 40.7871 2.52360   2
  15  -1   4 69.2986 4.13855   2
 -15  -1  -4 72.7814 4.38567   2
 -15   1  -4 79.7816 4.79230   2
  16  -1   4 13.5860 1.09043   2
  16   1   4 14.0744 1.16088   2
 -16   1  -4 10.5532 1.01860   2
 -17  -1  -4 18.3467 1.47349   2
  17  -1   4 17.8155 1.29248   2
  17   1   4 16.2669 1.31892   2
  18  -1   4 8.12545 0.90454   2
 -18   1  -4 6.17094 0.89580   2
  19  -1   4 5.57599 0.85494   2
 -19   1  -4 3.41707 0.88072   2
  21  -2  -4 4.07902 0.70376   2
 -21   2   4 3.45554 0.76664   2
  20  -2  -4 5.29191 0.98413   3
  20  -2  -4 4.49173 0.73199   2
 -20   2   4 4.86026 0.78562   2
 -20   2   4 5.18569 0.91408   3
  19  -2  -4 2.34818 0.94448   3
 -19  -2   4 1.91103 1.09444   3
  19  -2  -4 2.48235 0.63275   2
 -19   2   4 1.83274 0.69557   2
  19   2  -4 1.70324 0.98115   2
 -19   2   4 2.63285 0.90178   3
  18  -2  -4 0.61603 0.87540   3
 -18  -2   4 0.97945 0.74830   3
  18  -2  -4 -0.1977 0.58198   2
  18   2  -4 0.53076 0.82416   2
 -18   2   4 1.22554 0.69312   2
 -18   2   4 0.66478 0.78554   3
  17  -2  -4 19.0003 1.44611   3
  17  -2  -4 19.0486 1.32863   2
 -17   2   4 20.7608 1.51159   3
  17   2  -4 17.6461 1.40500   3
  17   2  -4 22.0797 1.60461   2
 -17   2   4 17.1917 1.26218   2
 -16  -2   4 0.33368 0.67302   3
  16  -2  -4 1.15292 0.56196   2
  16  -2  -4 2.93147 0.95025   3
 -16   2   4 1.58921 0.82121   3
  16   2  -4 1.57968 0.77906   3
 -16   2   4 0.99768 0.63856   2
  16   2  -4 0.39637 0.77899   2
  15  -2  -4 1.01067 0.51750   2
  15  -2  -4 2.37327 0.85076   3
 -15  -2   4 0.65349 0.68768   3
  15   2  -4 1.92331 0.70257   2
 -15   2   4 -0.7603 0.72855   3
  15   2  -4 1.64268 0.79639   3
 -15   2   4 -0.1371 0.60530   2
  14  -2  -4 14.7755 1.03372   2
 -14  -2   4 13.5021 1.06004   3
 -14   2   4 14.6769 1.15831   3
  14   2  -4 16.2532 1.22225   2
 -14   2   4 15.5605 1.12829   2
  14   2  -4 12.3618 1.07812   3
 -13  -2   4 2.45754 0.62161   3
  13  -2  -4 3.80550 0.74563   3
  13   2  -4 3.02131 0.62552   2
  13   2  -4 2.18391 0.70853   3
 -13   2   4 2.57179 0.59785   2
  12  -2  -4 6.09161 0.86021   3
 -12  -2   4 5.53197 0.68695   3
  12   2  -4 6.05262 0.65406   2
  12   2  -4 5.81708 0.71138   3
 -12   2   4 4.93273 0.82608   3
 -12   2   4 6.91587 0.68400   2
  11  -2  -4 15.5831 1.45681   1
  11  -2  -4 15.0762 1.12949   3
 -11  -2   4 13.7545 1.28297   1
  11  -2  -4 15.5447 1.05936   2
 -11  -2   4 14.7655 1.38471   1
  11  -2  -4 15.5602 1.45616   1
 -11   2   4 14.3961 1.04119   2
  11   2  -4 14.3214 1.33768   1
 -11   2   4 16.3682 1.18194   3
  11   2  -4 15.7860 1.09350   2
  11   2  -4 12.5213 1.17352   1
 -11   2   4 12.3385 1.15487   1
  10  -2  -4 12.8139 0.90072   2
  10  -2  -4 13.7054 1.28595   1
  10  -2  -4 13.1525 1.23289   1
 -10  -2   4 16.9233 1.39125   2
  10  -2  -4 11.3035 0.87202   3
 -10  -2   4 13.7308 1.28244   1
 -10  -2   4 12.3620 1.15508   1
 -10  -2   4 13.0223 0.99850   3
  10   2  -4 15.3171 1.05173   2
 -10   2   4 13.2473 0.99543   3
 -10   2   4 14.3927 1.34189   1
  10   2  -4 14.6009 1.36568   1
 -10   2   4 11.6067 1.09177   1
  10   2  -4 12.5546 1.17703   1
  10   2  -4 12.3621 1.04951   3
   9  -2  -4 34.1738 3.18485   1
  -9  -2   4 33.2049 3.09562   1
  -9  -2   4 30.0698 1.89370   3
  -9  -2   4 32.1034 2.99621   1
   9  -2  -4 33.0797 3.08175   1
   9  -2  -4 27.2521 1.75116   3
   9  -2  -4 34.3079 2.07770   2
   9   2  -4 33.5467 2.02305   2
   9   2  -4 35.1224 3.27348   1
  -9   2   4 30.2324 1.93539   3
  -9   2   4 32.5083 3.03524   1
  -9   2   4 33.3828 3.11697   1
   9   2  -4 30.0440 2.79664   1
   8  -2  -4 1.46896 0.40296   2
   8  -2  -4 1.50274 0.16353   1
  -8  -2   4 0.95924 0.13490   1
  -8  -2   4 0.02602 0.53964   2
  -8  -2   4 1.15332 0.13938   1
   8  -2  -4 0.64327 0.52423   3
   8   2  -4 2.63211 0.54475   3
  -8   2   4 1.09796 0.42166   2
   8   2  -4 1.32749 0.16304   1
  -8   2   4 0.74968 0.12449   1
   8   2  -4 1.06398 0.14188   1
   8   2  -4 1.50147 0.43246   2
  -8   2   4 1.08535 0.49985   3
   7  -2  -4 3.23047 0.40473   2
  -7  -2   4 3.44101 0.49039   3
   7  -2  -4 4.10704 0.40214   1
   7  -2  -4 3.53542 0.52933   3
  -7  -2   4 4.04915 0.39072   1
  -7  -2   4 3.32079 0.32579   1
  -7  -2   4 1.19790 0.72150   2
   7   2  -4 3.49081 0.33919   1
  -7   2   4 3.26921 0.31916   1
  -7   2   4 4.80319 0.59630   3
   7   2  -4 3.73364 0.36232   1
  -7   2   4 3.69191 0.35196   1
   7   2  -4 3.89258 0.52173   3
   7   2  -4 3.49180 0.43577   2
  -7   2   4 3.61712 0.45140   2
  -6  -2   4 0.21334 0.52228   2
  -6  -2   4 0.19409 0.40038   3
   6  -2  -4 0.46210 0.08458   1
   6  -2  -4 0.83119 0.12360   1
   6  -2  -4 0.30505 0.41305   3
  -6  -2   4 0.52907 0.09991   1
   6  -2  -4 0.54832 0.31585   2
   6   2  -4 0.22329 0.46402   3
   6   2  -4 0.35304 0.33047   2
  -6   2   4 0.57106 0.31580   2
  -6   2   4 0.30354 0.43669   3
   5  -2  -4 84.7064 7.88922   1
  -5  -2   4 99.4123 5.98908   3
  -5  -2   4 93.6028 8.71528   1
   5  -2  -4 90.2876 5.25701   2
   5  -2  -4 94.0674 5.67155   3
  -5  -2   4 90.1332 8.39256   1
   5  -2  -4 107.564 10.0135   1
  -5   2   4 89.7495 8.35997   1
   5   2  -4 91.2390 8.50212   1
  -5   2   4 87.3821 5.08942   2
   5   2  -4 91.5211 5.49705   3
   5   2  -4 90.5754 8.43402   1
  -5   2   4 97.3032 5.86792   3
   5   2  -4 92.2898 5.36538   2
  -5   2   4 105.248 9.80293   1
  -4  -2   4 14.1302 0.93820   3
   4  -2  -4 17.8482 1.66307   1
   4  -2  -4 13.0323 0.81535   2
   4  -2  -4 14.7297 0.96774   3
   4  -2  -4 13.9441 1.29536   1
  -4  -2   4 15.1609 1.41419   1
  -4  -2   4 15.0524 1.40441   1
  -4   2   4 16.3370 1.52372   1
  -4   2   4 15.2006 1.00272   3
  -4   2   4 14.9362 1.39216   1
   4   2  -4 14.5263 0.97371   3
  -4   2   4 14.5924 0.91655   2
   3  -2  -4 170.896 9.88014   2
  -3  -2   4 189.445 17.6266   1
  -3  -2   4 178.011 10.6680   3
  -3  -2   4 199.517 18.5729   1
   3  -2  -4 181.875 16.9392   1
   3  -2  -4 163.182 15.1998   1
  -3   2   4 177.161 10.2494   2
  -3   2   4 203.706 18.9681   1
   3   2  -4 170.317 10.2115   3
  -3   2   4 165.756 9.92612   3
  -3   2   4 176.368 16.4269   1
   2  -2  -4 0.67816 0.07531   1
   2  -2  -4 0.46422 0.18719   2
  -2  -2   4 0.56647 0.33558   3
   2  -2  -4 0.73422 0.27767   3
   2   2  -4 0.44854 0.28421   2
  -2   2   4 0.49507 0.06201   1
   2   2  -4 0.27983 0.30786   3
  -2   2   4 0.49910 0.06599   1
   1  -2  -4 10.9065 0.70280   3
  -1  -2   4 10.8390 0.71814   3
   1   2  -4 13.5652 1.26841   1
   1   2  -4 11.0374 0.72135   3
  -1   2   4 13.0738 0.84298   3
  -1   2   4 14.7239 1.36787   1
   0  -2   4 162.551 9.41645   2
   0  -2  -4 136.866 8.18906   3
   0  -2   4 131.329 7.86305   3
   0   2  -4 136.579 8.17821   3
   0   2   4 147.532 8.81988   3
   1  -2   4 117.568 10.9435   1
   1  -2   4 112.694 10.4976   1
   1  -2   4 93.4771 5.61181   3
  -1  -2  -4 111.174 6.66461   3
   1  -2   4 107.084 6.20980   2
  -1   2  -4 108.396 6.29509   2
  -1   2  -4 105.795 9.84941   1
  -1   2  -4 110.253 10.2676   1
   1   2   4 92.4087 5.54562   3
  -2  -2  -4 57.1302 3.44558   3
   2  -2   4 54.2292 5.05503   1
   2  -2   4 56.2486 3.30777   2
  -2  -2  -4 67.0714 6.24525   1
   2  -2   4 62.5638 5.83087   1
   2   2   4 47.2779 2.83549   3
  -2   2  -4 49.9527 2.93751   2
  -2   2  -4 62.8300 5.85002   1
  -2   2  -4 53.0040 3.19456   3
  -2   2  -4 51.8616 4.82860   1
   3  -2   4 2.36339 0.27255   3
  -3  -2  -4 2.61617 0.24104   1
   3  -2   4 2.79552 0.27003   1
  -3  -2  -4 2.11747 0.24896   3
   3  -2   4 2.64985 0.25728   1
   3  -2   4 2.83172 0.35354   2
  -3  -2  -4 2.85053 0.27012   1
  -3   2  -4 2.90668 0.27754   1
  -3   2  -4 3.19516 0.30882   1
   3   2   4 2.14900 0.20688   1
  -3   2  -4 2.51651 0.29678   3
  -3   2  -4 2.87824 0.37450   2
   3   2   4 3.49339 0.33135   1
   4  -2   4 2.59427 0.37709   2
   4  -2   4 3.30863 0.31159   1
  -4  -2  -4 2.93498 0.32536   3
   4  -2   4 3.31972 0.32920   1
   4  -2   4 2.81304 0.32991   3
  -4   2  -4 2.67649 0.26145   1
  -4   2  -4 2.18961 0.36800   2
   4   2   4 2.40018 0.23223   1
  -4   2  -4 2.83135 0.27429   1
  -4   2  -4 2.52412 0.33133   3
   5  -2   4 0.21028 0.09004   1
   5  -2   4 0.04691 0.35124   2
   5  -2   4 0.16619 0.06589   1
  -5  -2  -4 0.16979 0.07854   1
  -5  -2  -4 0.17907 0.24626   3
   5  -2   4 0.17900 0.29539   3
  -5  -2  -4 0.07323 0.04839   1
  -5   2  -4 0.34135 0.36704   2
  -5   2  -4 0.75706 0.29396   3
   5   2   4 0.02782 0.05516   1
  -5   2  -4 0.47788 0.09801   1
   6  -2   4 32.0720 1.93789   2
   6  -2   4 34.5922 2.14194   3
   6  -2   4 30.8815 2.87564   1
   6  -2   4 30.3027 2.82018   1
  -6   2  -4 29.5368 2.75771   1
  -6   2  -4 30.2349 2.82222   1
  -6   2  -4 32.0699 1.98402   3
   6   2   4 29.1710 2.71716   1
  -6   2  -4 29.6911 1.79811   2
   7  -2   4 0.29427 0.09266   1
   7  -2   4 0.09330 0.34934   2
  -7  -2  -4 0.59535 0.39570   2
  -7  -2  -4 0.39189 0.06799   1
  -7  -2  -4 0.44058 0.28062   3
   7  -2   4 -0.2342 0.33493   3
  -7   2  -4 0.51098 0.11222   1
  -7   2  -4 0.71142 0.43542   2
  -7   2  -4 0.18588 0.35786   3
  -8  -2  -4 70.6701 4.26999   3
   8  -2   4 63.8426 3.76302   2
  -8  -2  -4 74.6754 6.95843   1
   8  -2   4 77.1787 4.69273   3
  -8  -2  -4 84.2183 4.93560   2
  -8  -2  -4 69.1012 6.43595   1
   8  -2   4 62.7550 5.84353   1
   8  -2   4 59.9738 5.59258   1
  -8   2  -4 63.2201 5.89223   1
  -8   2  -4 67.4126 4.10531   3
  -8   2  -4 63.2021 3.73820   2
  -8   2  -4 58.4844 5.45038   1
   8   2   4 59.6778 5.56001   1
   9  -2   4 16.9913 1.12143   2
  -9  -2  -4 14.9487 1.01732   3
   9  -2   4 15.6219 1.10004   3
   9   2   4 12.8642 1.19955   1
  -9   2  -4 15.9922 1.11840   3
  -9   2  -4 16.4449 1.11113   2
 -10  -2  -4 6.38841 0.70999   2
  10  -2   4 5.30935 0.57790   2
 -10   2  -4 6.59312 0.68391   2
  10   2   4 5.00716 0.59062   2
  11  -2   4 7.57090 0.81428   3
  11  -2   4 6.93327 0.64880   2
 -11   2  -4 6.34388 0.71280   2
 -12  -2  -4 1.14164 0.67106   2
  12  -2   4 1.19731 0.50403   2
 -12   2  -4 1.98260 0.76637   3
 -12   2  -4 1.35463 0.60840   2
  12   2   4 1.48020 0.58621   2
  13  -2   4 0.76802 0.48033   2
  13  -2   4 0.62894 0.92257   3
 -13  -2  -4 -0.5035 0.65574   2
 -13   2  -4 1.31410 0.75177   3
  13   2   4 1.32849 0.64852   2
 -13   2  -4 -0.1297 0.57276   2
 -14  -2  -4 8.74835 0.95562   2
  14  -2   4 9.88491 0.83759   2
  14  -2   4 8.16113 1.08610   3
 -14   2  -4 9.98902 0.88204   2
 -14   2  -4 9.11051 1.00280   3
  14   2   4 7.92319 0.89754   2
  15  -2   4 0.66701 0.56352   2
 -15   2  -4 0.29710 0.56231   2
  16  -2   4 2.44787 0.65896   2
  17  -2   4 2.50594 0.67627   2
 -17   2  -4 1.57961 0.72796   2
 -18   2  -4 0.22428 0.59428   2
  19  -2   4 2.71500 0.76231   2
  20  -3  -4 14.0774 1.37599   3
 -20   3   4 18.4289 1.36251   2
  19  -3  -4 5.15321 1.02577   3
  19  -3  -4 5.18819 0.68897   2
 -19   3   4 5.36780 0.96651   3
  18  -3  -4 74.7396 4.66676   3
 -18  -3   4 79.6889 4.92331   3
  18  -3  -4 73.8649 4.37906   2
  18   3  -4 80.2144 4.98248   3
 -18   3   4 74.3780 4.60182   3
  18   3  -4 72.5263 4.39331   2
  17  -3  -4 65.7613 4.10959   3
  17  -3  -4 60.9277 3.62701   2
 -17  -3   4 62.9457 3.92180   3
  17   3  -4 68.9350 4.19151   2
 -17   3   4 62.4222 3.89427   3
 -15  -3   4 27.7525 2.03976   2
  15  -3  -4 26.4304 1.70011   2
 -15  -3   4 28.7068 1.94963   3
 -15   3   4 26.7617 1.88300   3
  15   3  -4 27.2481 1.88893   3
 -15   3   4 27.6774 1.80364   2
  14  -3  -4 3.01404 0.74024   3
  14  -3  -4 3.09720 0.56082   2
 -14  -3   4 4.17492 0.79093   3
  14   3  -4 2.99267 0.80814   2
  14   3  -4 2.84124 0.85524   3
 -14   3   4 3.08664 0.63510   2
 -13  -3   4 0.43583 0.65929   3
  13  -3  -4 0.17833 0.53931   2
  13  -3  -4 0.73941 0.59654   3
 -13   3   4 1.34467 0.59384   2
  13   3  -4 0.69005 0.75916   3
 -13   3   4 0.75627 0.71725   3
  13   3  -4 0.23374 0.64628   2
 -12  -3   4 4.09362 0.69748   3
  12  -3  -4 3.25580 0.51402   2
  12  -3  -4 3.76605 0.71830   3
  12   3  -4 3.43601 0.68744   3
  12   3  -4 5.36144 0.75914   2
 -12   3   4 4.00988 0.70261   3
 -12   3   4 4.88240 0.66490   2
 -11  -3   4 119.047 7.20660   3
  11  -3  -4 124.080 7.51310   3
  11  -3  -4 118.404 6.91206   2
  11   3  -4 123.364 7.46647   3
 -11   3   4 120.157 7.26936   3
 -11   3   4 119.322 6.98340   2
  11   3  -4 134.792 7.90214   2
 -10  -3   4 183.938 11.0556   3
  10  -3  -4 183.051 10.6256   2
  10  -3  -4 182.260 10.9671   3
  10   3  -4 189.827 11.0308   2
  10   3  -4 175.239 16.3251   1
  10   3  -4 188.272 11.2949   3
 -10   3   4 187.898 10.9073   2
 -10   3   4 188.806 11.3598   3
   9  -3  -4 164.781 9.56376   2
   9  -3  -4 172.240 10.3534   3
   9  -3  -4 176.188 16.4087   1
  -9  -3   4 189.127 17.6096   1
   9  -3  -4 147.235 13.7135   1
  -9   3   4 158.414 14.7541   1
  -9   3   4 172.385 10.3688   3
  -9   3   4 176.222 10.2355   2
   9   3  -4 175.549 16.3450   1
   9   3  -4 204.649 11.8839   2
  -9   3   4 171.537 15.9793   1
  -8  -3   4 297.316 27.6905   1
   8  -3  -4 289.932 26.9974   1
  -8  -3   4 289.602 26.9760   1
   8  -3  -4 325.466 18.8219   2
   8  -3  -4 328.997 19.7081   3
  -8  -3   4 314.950 18.8780   3
  -8   3   4 300.306 17.3921   2
  -8   3   4 352.024 32.7723   1
   8   3  -4 326.721 18.9150   2
  -8   3   4 319.555 29.7591   1
  -8   3   4 330.614 19.7888   3
   8   3  -4 298.037 27.7748   1
   8   3  -4 288.456 26.8673   1
   7  -3  -4 277.981 16.0765   2
   7  -3  -4 302.390 18.1054   3
  -7  -3   4 272.477 25.3806   1
   7  -3  -4 288.599 26.8727   1
  -7  -3   4 284.154 26.4710   1
   7  -3  -4 229.687 21.3749   1
  -7   3   4 257.714 24.0037   1
   7   3  -4 275.715 25.6760   1
   7   3  -4 262.642 15.2054   2
  -7   3   4 268.833 15.5557   2
   7   3  -4 259.077 24.1259   1
  -7   3   4 302.694 28.1778   1
   7   3  -4 294.441 17.6327   3
  -7   3   4 304.115 18.2070   3
  -6  -3   4 429.086 24.8205   2
  -6  -3   4 355.597 21.2851   3
   6  -3  -4 332.553 19.2186   2
   6  -3  -4 355.360 21.2451   3
  -6  -3   4 317.883 29.6069   1
   6  -3  -4 258.032 24.0303   1
  -6   3   4 362.977 21.7168   3
  -6   3   4 292.572 27.2466   1
   6   3  -4 336.314 20.1159   3
  -6   3   4 332.365 19.2060   2
   6   3  -4 345.175 32.1533   1
   6   3  -4 313.941 18.1749   2
  -6   3   4 450.620 41.9649   1
   6   3  -4 315.015 29.3332   1
   5  -3  -4 246.208 22.9407   1
  -5  -3   4 222.103 12.9247   2
  -5  -3   4 291.360 17.4423   3
  -5  -3   4 268.384 24.9919   1
  -5  -3   4 307.352 28.6244   1
   5  -3  -4 285.023 17.0502   3
   5  -3  -4 289.185 16.7192   2
   5   3  -4 298.108 27.7655   1
   5   3  -4 335.111 20.0526   3
  -5   3   4 280.273 16.2141   2
   5   3  -4 266.903 15.4440   2
   5   3  -4 293.777 27.3466   1
  -5   3   4 294.583 17.6336   3
  -5   3   4 241.858 22.5334   1
  -5   3   4 262.256 24.4229   1
  -4  -3   4 226.830 13.5903   3
   4  -3  -4 210.409 19.5939   1
  -4  -3   4 221.525 20.6248   1
   4  -3  -4 222.596 12.8745   2
  -4  -3   4 200.174 18.6447   1
  -4   3   4 222.950 20.7550   1
  -4   3   4 205.492 12.3053   3
   4   3  -4 222.022 20.6627   1
   4   3  -4 208.251 12.0652   2
   4   3  -4 234.501 14.0370   3
   4   3  -4 222.179 20.6832   1
  -4   3   4 173.795 16.1926   1
   3  -3  -4 12.0846 0.83809   3
   3  -3  -4 11.5632 1.08267   1
  -3  -3   4 10.4553 0.98183   1
  -3  -3   4 11.5850 0.81954   3
  -3  -3   4 11.8394 0.79034   2
  -3   3   4 11.2771 1.05402   1
   3   3  -4 10.9734 1.02858   1
   3   3  -4 11.5677 0.81437   3
   3   3  -4 12.3920 1.15488   1
   3   3  -4 12.2608 0.81043   2
  -3   3   4 11.8876 1.11197   1
  -2  -3   4 19.1747 1.23691   3
  -2  -3   4 19.1058 1.18736   2
   2  -3  -4 15.8506 1.47861   1
   2  -3  -4 16.4401 1.04479   3
   2  -3  -4 16.1896 1.50760   1
  -2  -3   4 16.6905 1.55808   1
  -2   3   4 18.9123 1.19187   3
  -2   3   4 15.7661 1.46874   1
   2   3  -4 18.1460 1.68875   1
  -2   3   4 14.3673 1.33972   1
   2   3  -4 20.8228 1.33356   3
   2   3  -4 16.6843 1.04151   2
   2   3  -4 17.2195 1.60631   1
  -1  -3   4 51.3535 4.78272   1
  -1  -3   4 55.0369 3.33160   3
   1  -3  -4 51.9444 3.13506   3
  -1  -3   4 55.1522 5.13693   1
  -1  -3   4 55.5308 3.26588   2
  -1   3   4 52.7281 3.19229   3
   1   3  -4 49.9759 4.65841   1
   1   3  -4 52.3020 4.87316   1
   1   3  -4 50.7584 2.97101   2
   1   3  -4 55.3454 3.34711   3
   0  -3  -4 299.396 17.9142   3
   0  -3   4 388.778 36.1843   1
   0  -3   4 300.459 17.9853   3
   0  -3   4 319.827 29.7865   1
   0  -3   4 295.030 17.0664   2
   0   3  -4 349.887 32.5902   1
   0   3   4 290.517 17.3841   3
   0   3  -4 322.644 18.6540   2
   0   3  -4 319.033 19.0825   3
   0   3  -4 320.048 29.7977   1
  -1  -3  -4 446.538 26.7060   3
   1  -3   4 439.819 26.3055   3
   1  -3   4 454.912 42.3643   1
   1  -3   4 447.348 41.6643   1
   1  -3   4 437.761 25.2934   2
  -1   3  -4 445.488 26.6389   3
  -1   3  -4 431.814 24.9553   2
  -1   3  -4 434.267 40.4464   1
  -1   3  -4 411.676 38.3392   1
   2  -3   4 194.766 11.2817   2
   2  -3   4 198.783 18.5207   1
   2  -3   4 228.508 13.6674   3
  -2  -3  -4 198.482 11.8803   3
   2  -3   4 182.001 16.9465   1
  -2   3  -4 184.999 17.2339   1
  -2   3  -4 186.507 10.8237   2
  -2   3  -4 199.366 11.9445   3
   2   3   4 186.044 11.1393   3
  -2   3  -4 182.518 16.9938   1
   3  -3   4 487.012 29.1286   3
   3  -3   4 489.835 28.3089   2
   3  -3   4 501.379 46.6764   1
  -3  -3  -4 507.138 30.3184   3
  -3   3  -4 505.308 30.2119   3
  -3   3  -4 482.603 44.9526   1
   3   3   4 441.836 26.4180   3
   4  -3   4 350.613 32.6449   1
  -4  -3  -4 386.832 23.1251   3
  -4  -3  -4 261.656 24.3673   1
   4  -3   4 395.297 22.8602   2
   4  -3   4 356.158 33.1742   1
   4   3   4 320.201 19.1563   3
  -4   3  -4 403.276 23.3255   2
   4   3   4 340.561 31.6995   1
  -4   3  -4 362.966 21.7265   3
  -5  -3  -4 393.980 36.6881   1
   5  -3   4 357.200 21.3891   3
   5  -3   4 336.683 31.3533   1
  -5  -3  -4 288.339 26.8662   1
   5  -3   4 334.790 31.1660   1
   5   3   4 345.045 20.6239   3
  -5   3  -4 365.454 21.8639   3
  -5   3  -4 373.129 21.5869   2
   5   3   4 329.979 30.7152   1
  -6  -3  -4 74.0407 4.46414   3
   6  -3   4 75.4772 4.57267   3
   6  -3   4 75.6668 7.04579   1
  -6  -3  -4 65.2273 6.07718   1
   6  -3   4 63.6441 5.92831   1
  -6  -3  -4 67.5040 6.28608   1
  -6   3  -4 75.2446 4.55095   3
  -6   3  -4 74.6155 6.95318   1
  -6   3  -4 64.2885 5.98890   1
   6   3   4 66.2949 6.17303   1
   7  -3   4 123.384 7.44745   3
  -7  -3  -4 79.6241 7.42148   1
  -7  -3  -4 123.641 7.43884   3
  -7  -3  -4 94.5636 8.80266   1
   7  -3   4 100.382 5.87245   2
   7   3   4 89.7448 8.36371   1
  -7   3  -4 100.243 9.33461   1
   7   3   4 100.759 9.38370   1
  -7   3  -4 98.6540 5.76875   2
  -7   3  -4 103.905 6.27659   3
  -8  -3  -4 61.0737 3.72129   3
   8  -3   4 60.4473 3.57252   2
   8  -3   4 64.9421 3.95304   3
  -8   3  -4 62.0718 3.78190   3
  -8   3  -4 60.8205 3.60779   2
   9  -3   4 8.39216 0.69311   3
   9  -3   4 9.80931 0.76418   2
  -9   3  -4 7.68014 0.70447   2
  10  -3   4 7.78048 0.81691   3
  10  -3   4 8.08077 0.69681   2
 -10   3  -4 6.67081 0.74772   3
 -10   3  -4 8.06695 0.73688   2
  11  -3   4 23.3174 1.58560   3
  11  -3   4 23.5439 1.51344   2
 -11   3  -4 22.3778 1.53232   3
 -11   3  -4 23.2708 1.52772   2
  12  -3   4 35.5748 2.29595   3
  12  -3   4 38.3176 2.34017   2
 -12   3  -4 33.8057 2.14476   2
  13  -3   4 60.6363 3.77171   3
  13  -3   4 66.8422 3.96735   2
 -13   3  -4 67.6968 4.04358   2
 -13   3  -4 73.8466 4.56995   3
  14  -3   4 56.7767 3.68674   3
  14  -3   4 45.6754 2.76031   2
 -14   3  -4 44.5216 2.70866   2
 -14   3  -4 47.4759 3.07191   3
  15  -3   4 43.0051 2.60548   2
  15  -3   4 44.7884 2.98240   3
 -15   3  -4 40.9252 2.50123   2
 -15   3  -4 43.1849 2.80877   3
  16  -3   4 50.0933 3.01824   2
 -16   3  -4 44.9295 2.75241   2
  17  -3   4 3.90957 0.66933   2
 -17   3  -4 4.32648 0.67643   2
  18  -3   4 7.21460 0.79324   2
 -18   3  -4 7.79558 0.89339   2
  19  -4  -4 0.37732 0.60374   2
  19  -4  -4 0.13140 1.01190   3
 -19   4   4 0.48464 0.65543   2
 -19   4   4 -0.5942 0.70603   3
  18  -4  -4 4.25803 0.65270   2
  18  -4  -4 3.90453 1.00918   3
 -18   4   4 6.00629 0.84599   3
 -18   4   4 6.01141 0.81779   2
 -17  -4   4 8.49418 0.94659   3
  17  -4  -4 10.2276 1.10589   3
  17  -4  -4 10.5206 0.88753   2
 -17   4   4 10.4105 0.95211   2
  17   4  -4 9.70461 1.09764   3
 -17   4   4 9.47066 1.08827   3
  16  -4  -4 3.83706 0.65316   2
 -16  -4   4 4.49474 0.82901   3
  16  -4  -4 2.28831 0.96609   3
 -16   4   4 1.65192 0.89435   3
 -16   4   4 4.79258 0.74961   2
  16   4  -4 3.49649 0.99537   3
  15  -4  -4 46.5113 2.98397   3
  15  -4  -4 51.6325 3.13169   2
 -15   4   4 47.3016 3.03726   3
  15   4  -4 50.6512 3.22732   3
 -15   4   4 51.5760 3.14637   2
  14  -4  -4 101.024 6.15027   3
 -14  -4   4 103.991 6.31460   3
  14  -4  -4 104.831 6.15986   2
 -14   4   4 111.841 6.57881   2
  14   4  -4 106.716 6.50493   3
  13  -4  -4 101.083 5.92744   2
 -13  -4   4 104.391 6.33906   3
  13  -4  -4 102.575 6.22198   3
  13   4  -4 107.710 6.35288   2
  13   4  -4 114.505 6.95214   3
 -13   4   4 110.057 6.47848   2
 -13   4   4 109.380 6.63262   3
 -12  -4   4 85.0042 5.20651   3
  12  -4  -4 82.4157 4.85361   2
  12  -4  -4 79.9725 4.89634   3
 -12   4   4 82.2392 4.86976   2
 -12   4   4 79.6688 4.86294   3
  12   4  -4 78.8907 4.69618   2
  12   4  -4 83.2104 5.09540   3
  11  -4  -4 53.8943 3.22787   2
  11  -4  -4 55.1669 3.42577   3
 -11  -4   4 56.1766 3.46631   3
 -11   4   4 56.0124 3.35023   2
 -11   4   4 52.3224 3.25392   3
  11   4  -4 50.9528 3.05478   2
  11   4  -4 58.9668 3.64723   3
  10  -4  -4 86.6277 5.08067   2
  10  -4  -4 86.3684 5.25987   3
 -10  -4   4 93.9389 5.70866   3
  10   4  -4 91.6975 5.40322   2
  10   4  -4 79.3410 4.82187   3
 -10   4   4 90.9659 5.34059   2
 -10   4   4 86.8802 5.29409   3
  -9  -4   4 66.6119 4.05917   3
   9  -4  -4 70.4827 4.30632   3
   9  -4  -4 73.3848 4.30680   2
  -9   4   4 70.6683 4.32031   3
  -9   4   4 65.5067 3.86026   2
   9   4  -4 63.0589 3.74473   2
   7  -4  -4 7.29099 0.66683   3
  -7  -4   4 6.76868 1.15219   2
   7  -4  -4 6.09761 0.57543   2
  -7  -4   4 6.04087 0.67460   3
  -7   4   4 5.29454 0.50513   1
   7   4  -4 7.53962 0.68813   2
  -7   4   4 6.25095 0.61488   2
  -7   4   4 7.21865 0.64239   3
   7   4  -4 6.48585 0.61303   1
   6  -4  -4 57.2265 3.37272   2
  -6  -4   4 42.4098 3.95195   1
  -6  -4   4 52.4031 4.88634   1
   6  -4  -4 59.9303 5.58553   1
   6  -4  -4 59.7493 3.66078   3
  -6   4   4 56.5626 5.26674   1
   6   4  -4 54.0738 3.20366   2
   6   4  -4 46.8032 4.35770   1
  -6   4   4 54.7651 5.10761   1
  -6   4   4 58.1265 3.53689   3
   6   4  -4 53.7687 3.28787   3
   6   4  -4 54.9458 5.12481   1
  -5  -4   4 134.057 8.05542   3
  -5  -4   4 136.098 7.90004   2
   5  -4  -4 135.681 12.6373   1
  -5  -4   4 108.336 10.0881   1
   5  -4  -4 159.430 9.25022   2
  -5  -4   4 140.475 13.0855   1
   5   4  -4 136.995 7.95715   2
  -5   4   4 134.787 12.5537   1
  -5   4   4 154.782 9.29503   3
   5   4  -4 139.560 8.39188   3
  -5   4   4 131.767 12.2760   1
   4  -4  -4 66.6450 4.04449   3
   4  -4  -4 68.5960 4.01314   2
  -4  -4   4 66.3653 3.89801   2
  -4   4   4 66.1512 6.15701   1
   4   4  -4 55.3859 5.16167   1
   4   4  -4 63.8455 3.74991   2
  -4   4   4 60.8658 5.67242   1
   4   4  -4 64.7992 6.03163   1
   3  -4  -4 349.530 20.9183   3
   3  -4  -4 334.948 31.2062   1
  -3  -4   4 394.361 22.8164   2
  -3  -4   4 400.164 23.9550   3
  -3   4   4 362.889 21.7190   3
   3   4  -4 353.656 32.9263   1
   3   4  -4 387.962 23.2019   3
  -2  -4   4 424.661 24.5396   2
  -2  -4   4 387.717 36.1048   1
  -2  -4   4 407.721 24.3882   3
   2  -4  -4 410.428 24.5640   3
   2  -4  -4 378.330 35.2366   1
   2  -4  -4 390.768 36.3890   1
  -2   4   4 433.730 25.9415   3
   2   4  -4 411.201 24.6109   3
   2   4  -4 416.113 38.7508   1
   1  -4  -4 197.601 18.3951   1
  -1  -4   4 231.393 13.4124   2
  -1  -4   4 254.135 23.6468   1
   1  -4  -4 253.771 15.1787   3
  -1  -4   4 235.218 21.9145   1
  -1  -4   4 247.170 14.8119   3
  -1   4   4 217.252 20.2245   1
  -1   4   4 251.291 15.0348   3
   1   4  -4 222.762 20.7471   1
   1   4  -4 247.769 14.8342   3
   1   4  -4 234.662 13.5995   2
   1   4  -4 230.684 21.4653   1
   0  -4   4 183.775 10.6463   2
   0  -4   4 174.081 16.2149   1
   0  -4   4 199.686 11.9805   3
   0  -4  -4 187.668 11.2542   3
   0   4   4 182.501 10.9426   3
   0   4  -4 193.392 11.5917   3
   0   4  -4 159.309 14.8374   1
   0   4  -4 211.443 12.2576   2
   0   4   4 178.843 16.6518   1
   1  -4   4 94.2303 8.77554   1
   1  -4   4 107.053 6.24406   2
  -1  -4  -4 99.5145 5.98592   3
   1  -4   4 102.513 9.54652   1
   1   4   4 95.2499 5.73429   3
  -1   4  -4 84.7223 7.89384   1
  -1   4  -4 94.0922 8.75943   1
  -1   4  -4 95.9097 5.59153   2
   2  -4   4 164.945 9.58582   2
  -2  -4  -4 176.351 10.5836   3
   2  -4   4 164.676 15.3396   1
   2  -4   4 187.871 11.2589   3
   2  -4   4 142.821 13.2999   1
   2   4   4 188.041 11.2754   3
  -2   4  -4 155.446 14.4776   1
  -2   4  -4 184.251 11.0483   3
  -2   4  -4 146.991 13.6968   1
  -2   4  -4 169.269 9.84080   2
   3  -4   4 0.75623 0.09373   1
   3  -4   4 1.21733 0.37047   2
  -3  -4  -4 0.65373 0.40456   3
   3  -4   4 0.65869 0.11494   1
   3  -4   4 0.21532 0.35534   3
  -3   4  -4 0.97107 0.39027   2
  -3   4  -4 0.32917 0.33800   3
  -3   4  -4 0.82266 0.10660   1
   4  -4   4 4.92217 0.54169   3
   4   4   4 4.36593 0.46718   3
   4   4   4 3.37048 0.31415   1
  -5  -4  -4 6.72479 0.61687   3
   5  -4   4 5.54025 0.53008   2
   5   4   4 5.41343 0.50524   1
  -5   4  -4 5.96642 0.60163   3
  -5   4  -4 5.80370 0.56613   2
   6  -4   4 99.0456 5.99454   3
  -6  -4  -4 104.379 6.30505   3
   6  -4   4 102.801 6.00655   2
  -6   4  -4 106.149 6.22469   2
  -6   4  -4 99.7749 6.04200   3
  -7  -4  -4 122.834 7.41362   3
   7  -4   4 110.656 6.67893   3
   7  -4   4 101.639 5.93229   2
  -7   4  -4 100.176 6.05971   3
  -7   4  -4 111.206 6.51486   2
  -8  -4  -4 108.786 6.57043   3
   8  -4   4 115.812 6.77623   2
   8  -4   4 131.372 7.92463   3
  -8   4  -4 121.720 7.34768   3
  -8   4  -4 122.755 7.17103   2
   9  -4   4 65.4847 3.87931   2
   9  -4   4 69.7542 4.27674   3
  -9   4  -4 67.0163 4.09603   3
  -9   4  -4 66.9838 3.98387   2
  10  -4   4 122.943 7.18773   2
  10  -4   4 112.636 6.82265   3
 -10   4  -4 121.779 7.35593   3
  11  -4   4 98.3731 5.98728   3
  11  -4   4 94.8245 5.58107   2
 -11   4  -4 94.7176 5.76719   3
  12  -4   4 27.2555 1.75093   2
  12  -4   4 26.0331 1.77490   3
 -12   4  -4 24.6548 1.64650   2
 -12   4  -4 24.3443 1.67464   3
 -13   4  -4 18.1716 1.38409   3
 -13   4  -4 20.5711 1.42259   2
 -14   4  -4 0.14503 0.57286   2
 -14   4  -4 1.70452 0.82731   3
  15  -4   4 -0.0261 0.77380   3
  15  -4   4 0.63718 0.53832   2
 -15   4  -4 0.69306 0.58710   2
  16  -4   4 0.59712 0.58965   2
 -16   4  -4 0.29731 0.61653   2
  17  -4   4 5.83030 0.71538   2
 -17   4  -4 5.29622 0.74739   2
  17  -5  -4 -0.7597 0.89344   3
 -17   5   4 1.02868 0.87707   3
  16  -5  -4 8.22278 0.81884   2
 -16   5   4 7.56459 0.99113   3
 -15  -5   4 1.44742 0.74129   3
  15  -5  -4 1.35973 0.68235   3
  15  -5  -4 0.85133 0.58849   2
  15   5  -4 1.04705 0.68069   3
 -14  -5   4 4.41366 0.80943   3
  14  -5  -4 4.92251 0.80047   3
  14  -5  -4 3.96739 0.71665   2
 -14   5   4 4.23105 0.79811   3
 -14   5   4 4.49802 0.72266   2
  13  -5  -4 11.7012 1.07573   3
 -13  -5   4 11.1577 1.07393   3
  13  -5  -4 12.6016 1.02011   2
 -13   5   4 13.0054 1.09593   2
 -13   5   4 11.4162 1.04748   3
  11  -5  -4 14.2014 1.09566   3
 -11  -5   4 16.4348 1.24347   3
  11  -5  -4 12.8393 0.99573   2
 -11   5   4 12.5050 1.07271   3
 -11   5   4 13.4197 1.07849   2
  11   5  -4 11.5812 0.97923   3
 -10  -5   4 5.11918 0.73263   3
  10  -5  -4 5.65778 0.66191   3
  10  -5  -4 5.51593 0.64566   2
 -10   5   4 5.46068 0.73175   2
 -10   5   4 5.27503 0.76252   3
  10   5  -4 4.34385 0.62907   3
   9  -5  -4 17.0945 1.20440   2
  -9  -5   4 17.0881 1.24012   3
   9  -5  -4 13.5750 1.04047   3
  -9   5   4 13.4138 1.00575   2
  -9   5   4 14.3760 1.06833   3
   8  -5  -4 9.45661 0.82321   3
   8  -5  -4 9.90380 0.76789   2
  -8  -5   4 9.24812 0.80696   3
   8   5  -4 8.38166 0.79170   3
  -8   5   4 7.51739 0.71160   3
   7  -5  -4 7.56096 0.75038   3
  -7  -5   4 9.21108 0.81400   3
  -7   5   4 8.59501 0.77871   3
   7   5  -4 8.05107 0.72860   3
  -6  -5   4 59.4976 3.63448   3
  -6  -5   4 59.3513 3.53748   2
  -6   5   4 58.9651 3.60744   3
  -5  -5   4 6.72820 0.71138   2
   5  -5  -4 4.33598 0.55074   3
   5   5  -4 5.53222 0.57449   3
   4  -5  -4 1.01300 0.46437   3
  -4  -5   4 2.07629 0.49249   2
  -4  -5   4 0.91137 0.44305   3
   4   5  -4 0.56196 0.38928   3
  -4   5   4 0.81896 0.45050   3
  -3  -5   4 11.2442 0.82977   2
   3  -5  -4 11.3151 0.86989   3
  -3  -5   4 10.4955 0.78144   3
  -3   5   4 11.4005 0.85764   3
   3   5  -4 10.1032 0.73903   3
   3   5  -4 11.2491 0.83470   2
  -2  -5   4 7.50575 0.64574   2
   2  -5  -4 5.94016 0.57375   3
  -2  -5   4 6.55665 0.59586   3
   2   5  -4 6.53553 0.57747   3
   2   5  -4 7.12635 0.68458   2
  -2   5   4 6.99118 0.62974   3
  -1  -5   4 0.26239 0.35268   2
   1  -5  -4 0.33881 0.41933   3
  -1  -5   4 0.08683 0.35822   3
  -1   5   4 0.33120 0.38714   3
   1   5  -4 0.06515 0.33450   3
   0  -5   4 -0.2015 0.46421   2
   0  -5   4 -0.1691 0.37201   3
   0   5  -4 -0.4769 0.35773   3
   0   5   4 0.51955 0.36581   3
  -1  -5  -4 3.58554 0.45355   3
   1  -5   4 3.86621 0.46499   3
  -1   5  -4 3.42172 0.44439   3
   1   5   4 2.81351 0.41907   3
  -1   5  -4 2.50565 0.47683   2
   2  -5   4 21.8140 1.43194   3
  -2  -5  -4 20.2855 1.31629   3
   2  -5   4 22.8638 1.45509   2
   2   5   4 22.7335 1.46919   3
  -2   5  -4 20.9722 1.35456   2
  -2   5  -4 21.1715 1.38649   3
   3  -5   4 18.4064 1.23030   3
   3  -5   4 18.1850 1.18951   2
  -3   5  -4 17.0122 1.15605   3
   3   5   4 16.2675 1.08432   3
  -3   5  -4 17.8649 1.17696   2
  -4  -5  -4 1.46334 0.50599   3
   4  -5   4 0.35413 0.46267   3
  -4   5  -4 2.29833 0.58002   2
  -4   5  -4 1.48519 0.47040   3
   5  -5   4 35.4944 2.24302   3
   5  -5   4 35.5565 2.16944   2
  -5  -5  -4 41.5476 2.60509   3
  -5   5  -4 36.4931 2.24423   2
   5   5   4 35.2523 2.21000   3
   6  -5   4 21.8492 1.44413   2
  -6  -5  -4 21.5250 1.43103   3
  -6   5  -4 22.8003 1.49410   2
  -6   5  -4 21.3003 1.42007   3
   6   5   4 20.2560 1.33790   3
   7  -5   4 10.8659 0.92761   3
   7  -5   4 11.1047 0.87952   2
  -7  -5  -4 9.66045 0.83804   3
  -7   5  -4 10.1203 0.83935   3
  -7   5  -4 10.9194 0.91700   2
   8  -5   4 4.49157 0.58939   2
   8  -5   4 6.02700 0.76145   3
  -8   5  -4 3.91918 0.59890   2
  -8   5  -4 3.94618 0.61688   3
   9  -5   4 3.60189 0.58206   2
   9  -5   4 2.69428 0.67832   3
  -9   5  -4 3.34229 0.63341   2
  -9   5  -4 2.74810 0.63917   3
  10  -5   4 -0.3167 0.62214   3
  10  -5   4 0.54308 0.55059   2
 -10   5  -4 0.76134 0.63347   2
 -10   5  -4 0.95062 0.62252   3
  11  -5   4 8.19818 0.88727   3
  11  -5   4 8.51713 0.81405   2
 -11   5  -4 9.94561 0.96879   3
 -11   5  -4 8.98429 0.86106   2
  12  -5   4 1.72057 0.64424   2
  12  -5   4 1.23467 0.64074   3
 -12   5  -4 0.78396 0.62727   3
 -12   5  -4 1.90116 0.72181   2
  13  -5   4 -0.4469 0.69864   3
  13  -5   4 0.96778 0.60815   2
 -13   5  -4 0.61319 0.63075   2
  14  -5   4 8.51246 1.02009   3
  14  -5   4 8.37345 0.79838   2
 -14   5  -4 7.82149 0.80675   2
  15  -5   4 0.61046 0.55778   2
 -15   5  -4 0.20234 0.58277   2
  15  -6  -4 0.14428 0.71429   3
 -15   6   4 0.33834 0.74444   3
  14  -6  -4 8.38324 1.02526   3
 -14   6   4 9.71368 1.00394   3
  13  -6  -4 4.32983 0.73677   3
 -13  -6   4 4.30783 0.75642   3
 -13   6   4 4.22889 0.80587   3
  12  -6  -4 0.74500 0.64579   3
  12   6  -4 2.54790 0.88387   3
 -12   6   4 2.28036 0.76025   3
 -11  -6   4 16.6002 1.25285   3
  11  -6  -4 15.9404 1.20148   3
 -11   6   4 17.4413 1.31058   3
  11   6  -4 14.4601 1.14314   3
  10  -6  -4 7.91775 0.83803   3
 -10  -6   4 7.91368 0.84863   3
  10   6  -4 8.34876 0.85370   3
 -10   6   4 7.41273 0.84743   3
  -9  -6   4 0.00000 0.62809   3
   9  -6  -4 0.38440 0.63434   3
  -9   6   4 1.01707 0.65271   3
   9   6  -4 0.42003 0.60803   3
  -8  -6   4 3.78772 0.67067   3
  -8   6   4 4.07728 0.70099   3
   8   6  -4 2.84083 0.59205   3
  -7  -6   4 1.89089 0.59101   3
   7  -6  -4 1.11446 0.62463   3
   7   6  -4 1.62483 0.58040   3
   6  -6  -4 8.60584 0.80293   3
  -6  -6   4 8.73970 0.80183   3
  -6   6   4 7.98698 0.79732   3
   6   6  -4 9.28573 0.87131   3
  -5  -6   4 6.84659 0.69560   3
   5  -6  -4 5.28905 0.63677   3
  -5   6   4 5.74190 0.60517   3
   4  -6  -4 30.3507 1.94282   3
  -4  -6   4 28.2661 1.83758   3
   4   6  -4 33.2403 2.12002   3
  -4   6   4 28.1320 1.79168   3
  -3  -6   4 15.7783 1.15232   3
   3  -6  -4 16.2269 1.13633   3
   3   6  -4 15.8494 1.08388   3
  -3   6   4 15.3986 1.06027   3
   2  -6  -4 16.2385 1.12081   3
  -2  -6   4 14.4008 1.01038   3
   2   6  -4 15.4922 1.05669   3
  -2   6   4 18.1621 1.27025   3
   1  -6  -4 9.63066 0.80685   3
  -1  -6   4 9.25845 0.73818   3
  -1   6   4 9.49763 0.79370   3
   1   6  -4 9.51126 0.73299   3
   0  -6   4 4.00988 0.58367   3
   0  -6  -4 3.00981 0.53649   3
   0   6   4 4.60385 0.61065   3
   0   6  -4 3.45432 0.53970   3
   1  -6   4 13.0604 0.99348   3
  -1  -6  -4 11.2878 0.83349   3
   1  -6   4 12.1334 0.90457   2
  -1   6  -4 12.6009 0.93961   3
   1   6   4 11.9190 0.94417   3
   2  -6   4 1.12846 0.51463   2
   2  -6   4 1.68556 0.45760   3
  -2   6  -4 1.39239 0.55226   2
   2   6   4 1.16433 0.55897   3
  -2   6  -4 1.22185 0.43995   3
  -3  -6  -4 0.89533 0.50396   3
   3  -6   4 0.96064 0.54072   3
   3  -6   4 1.60917 0.45024   2
  -3   6  -4 1.24512 0.51369   3
   3   6   4 0.70013 0.49017   3
  -3   6  -4 0.36046 0.51911   2
  -4  -6  -4 0.54824 0.51379   3
   4  -6   4 -0.3755 0.48605   3
   4  -6   4 0.92290 0.49272   2
  -4   6  -4 0.82278 0.44036   3
  -4   6  -4 0.52154 0.60085   2
   5  -6   4 1.47951 0.55092   3
  -5  -6  -4 1.05123 0.49890   3
   5  -6   4 1.38724 0.57641   2
  -5   6  -4 0.95211 0.51157   3
  -5   6  -4 1.34146 0.61819   2
   5   6   4 0.68035 0.46782   3
   6  -6   4 5.01141 0.67031   2
  -6  -6  -4 3.51769 0.62587   3
  -6   6  -4 4.48922 0.72124   2
   7  -6   4 18.0542 1.25690   2
  -7   6  -4 19.1348 1.37626   2
  -7   6  -4 19.2602 1.34064   3
   8  -6   4 11.5710 0.94018   3
  -8   6  -4 11.6750 0.94678   3
   9  -6   4 15.1897 1.18229   3
   9  -6   4 14.9744 1.10942   2
  -9   6  -4 15.3405 1.15921   3
  10  -6   4 4.27299 0.68528   2
  10  -6   4 3.76599 0.70323   3
 -10   6  -4 4.51199 0.77742   2
 -10   6  -4 3.70084 0.68690   3
  11  -6   4 3.86855 0.78079   3
 -11   6  -4 3.26669 0.75279   2
 -11   6  -4 3.64942 0.76368   3
  12  -6   4 1.79517 0.67568   3
 -12   6  -4 1.61391 0.75381   2
 -12   6  -4 2.25989 0.77697   3
  12  -7  -4 0.76217 0.69053   3
 -12   7   4 0.09169 0.78176   3
  11  -7  -4 11.0560 1.04266   3
 -11   7   4 11.9204 1.10158   3
  10  -7  -4 13.3981 1.10369   3
 -10  -7   4 16.8829 1.33113   3
 -10   7   4 14.5630 1.13691   3
  10   7  -4 13.7272 1.10678   3
  -9  -7   4 4.76033 0.67602   3
   9   7  -4 5.47484 0.73535   3
  -9   7   4 6.02135 0.75194   3
  -8  -7   4 6.70106 0.74932   3
   8  -7  -4 7.36176 0.80086   3
   8   7  -4 6.70186 0.77890   3
  -7  -7   4 15.3163 1.11850   3
   7  -7  -4 14.9775 1.12274   3
   7   7  -4 16.1057 1.21142   3
  -7   7   4 16.2239 1.21250   3
  -6  -7   4 16.5848 1.20832   3
   6  -7  -4 18.1957 1.28835   3
  -6   7   4 16.4390 1.19638   3
   6   7  -4 15.0969 1.09299   3
  -5  -7   4 14.8302 1.11038   3
   5  -7  -4 13.9110 1.05432   3
   5   7  -4 13.4156 0.99911   3
  -5   7   4 14.3443 1.05473   3
   4  -7  -4 5.30168 0.66105   3
  -4  -7   4 5.67998 0.66655   3
   4   7  -4 6.09728 0.63806   3
  -4   7   4 6.17433 0.65477   3
   3  -7  -4 5.27396 0.68550   3
  -3  -7   4 4.42506 0.62023   3
  -3   7   4 4.54924 0.56640   3
   2  -7  -4 2.55506 0.61420   3
  -2   7   4 2.04943 0.50620   3
   2   7  -4 1.81464 0.43605   3
  -1  -7   4 2.99028 0.59176   3
   1  -7  -4 2.58723 0.56464   3
   1   7  -4 2.91067 0.58229   3
  -1   7   4 2.24392 0.50340   3
   0  -7   4 3.61467 0.53503   3
   0   7   4 4.26491 0.60407   3
   0   7  -4 3.29101 0.54801   3
  -1  -7  -4 23.2900 1.57705   3
   1  -7   4 23.3725 1.55462   3
  -1   7  -4 22.3213 1.48242   3
   2  -7   4 34.8888 2.21431   3
  -2  -7  -4 34.3785 2.20754   3
  -2   7  -4 35.3421 2.22057   3
   2   7   4 40.1283 2.57145   3
   3  -7   4 19.5620 1.35133   3
  -3  -7  -4 20.3718 1.41109   3
   3   7   4 18.9784 1.33044   3
  -3   7  -4 19.0252 1.28875   3
  -4  -7  -4 19.4389 1.36432   3
   4  -7   4 18.8908 1.30386   3
  -4   7  -4 20.1297 1.34762   3
   5  -7   4 12.9523 0.99463   3
  -5   7  -4 12.8276 0.98843   3
   6  -7   4 10.2398 0.86917   3
  -7   7  -4 0.00000 0.53459   3
   8  -7   4 0.82031 0.68296   3
  -8   7  -4 1.15344 0.61009   3
   9  -7   4 2.49212 0.72947   3
  -9   7  -4 1.17575 0.74628   3
  -6   8   4 1.08146 0.66354   3
  -5  -8   4 3.66245 0.57568   3
  -5   8   4 2.59724 0.67375   3
   5   8  -4 1.68780 0.53392   3
  -4  -8   4 2.81150 0.60931   3
  -4   8   4 2.36402 0.63886   3
   4   8  -4 2.82753 0.60292   3
  -3  -8   4 2.52320 0.60657   3
  -3   8   4 2.80270 0.58100   3
   3   8  -4 2.55564 0.61957   3
  -2  -8   4 10.1874 0.85398   3
  -2   8   4 9.71244 0.84370   3
   1   8  -4 2.03097 0.50459   3
   0  -8   4 1.19965 0.47993   3
   0   8  -4 0.26068 0.52578   3
   1  -8   4 3.91047 0.62157   3
  -1   8  -4 3.84156 0.62449   3
   2  -8   4 1.37170 0.55984   3
  -2   8  -4 1.35611 0.54706   3
   3  -8   4 2.05126 0.58874   3
  -3   8  -4 1.60865 0.55010   3
   4  -8   4 0.08674 0.54874   3
  -4   8  -4 0.28241 0.54970   3
  22   0  -5 -0.1147 0.84551   2
 -22   0   5 -0.3624 0.86100   2
 -21   0   5 -0.0228 0.84109   2
  21   0  -5 -0.9564 0.75246   2
 -20   0   5 -0.9107 0.81316   2
  20   0  -5 1.17013 0.90386   3
 -19   0   5 0.68784 0.84356   2
 -19   0   5 -0.3809 0.86594   3
  18   0  -5 -1.5147 0.66100   2
 -18   0   5 0.12432 0.71119   3
  18   0  -5 0.41754 0.89170   3
  17   0  -5 0.22083 0.86381   3
 -17   0   5 0.17563 0.80047   3
  17   0  -5 0.11431 0.65844   2
  16   0  -5 0.04994 0.82415   3
 -16   0   5 -0.1367 0.68259   2
 -16   0   5 -0.9192 0.79264   3
  16   0  -5 0.00000 0.54922   2
  15   0  -5 -0.2745 0.68641   3
  15   0  -5 -0.0233 0.56365   2
 -15   0   5 -0.3331 0.53731   2
 -15   0   5 -0.8493 0.76948   3
 -14   0   5 0.89878 0.66565   2
  14   0  -5 -0.8133 0.67788   3
  14   0  -5 0.38655 0.55011   2
 -14   0   5 -0.2021 0.69472   3
 -13   0   5 -0.2557 0.67519   3
  13   0  -5 0.81631 0.52247   2
 -13   0   5 0.62771 0.57355   2
 -12   0   5 0.02692 0.10675   1
  12   0  -5 -0.1822 0.47230   2
 -12   0   5 0.26002 0.13403   1
  12   0  -5 0.15479 0.10229   1
 -12   0   5 -0.4184 0.53276   2
 -11   0   5 0.05184 0.62734   3
  11   0  -5 -0.7948 0.64877   3
  11   0  -5 0.00000 0.44687   2
  11   0  -5 0.37839 0.11253   1
 -11   0   5 -0.2435 0.51014   2
 -11   0   5 0.34590 0.10550   1
  10   0  -5 0.68241 0.47171   2
 -10   0   5 0.78320 0.50128   2
  10   0  -5 0.00000 0.51675   3
 -10   0   5 0.46336 0.50977   3
  10   0  -5 0.43702 0.11213   1
 -10   0   5 0.47434 0.13337   1
   9   0  -5 -0.0870 0.09312   1
   9   0  -5 0.00858 0.09187   1
  -9   0   5 0.43036 0.47102   2
  -9   0   5 0.35002 0.12490   1
   9   0  -5 1.20948 0.44694   2
   9   0  -5 -0.1044 0.57413   3
  -9   0   5 0.18900 0.10219   1
  -9   0   5 -0.4066 0.55912   3
   8   0  -5 0.05286 0.55249   3
   8   0  -5 0.04623 0.39942   2
  -8   0   5 0.02276 0.44582   2
  -8   0   5 0.40810 0.11866   1
   8   0  -5 0.09956 0.09690   1
  -8   0   5 -0.0093 0.10006   1
  -8   0   5 0.71318 0.53241   3
  -7   0   5 -0.6084 0.44133   2
   7   0  -5 0.10751 0.44352   3
   7   0  -5 0.78977 0.40141   2
   7   0  -5 0.42921 0.11099   1
  -7   0   5 0.38699 0.10961   1
  -7   0   5 0.72626 0.45657   3
   6   0  -5 0.07136 0.30143   2
   6   0  -5 0.09990 0.08642   1
  -6   0   5 0.85463 0.31932   2
   6   0  -5 0.00000 0.41405   3
  -6   0   5 -0.1033 0.36918   3
   5   0  -5 0.70182 0.09513   1
   5   0  -5 0.72777 0.29752   2
   5   0  -5 0.47941 0.32232   3
  -5   0   5 -0.0768 0.31000   3
  -5   0   5 0.30399 0.32328   2
  -4   0   5 0.49342 0.08387   1
   4   0  -5 0.55992 0.12687   1
   4   0  -5 0.07017 0.26947   2
  -4   0   5 0.00000 0.35819   2
  -4   0   5 0.91405 0.11727   1
  -4   0   5 0.52456 0.28855   3
   4   0  -5 0.79468 0.29143   3
   3   0  -5 0.36473 0.07408   1
  -3   0   5 0.10264 0.28231   3
   3   0  -5 0.29644 0.08297   1
   3   0  -5 0.35521 0.20462   2
  -2   0   5 2.16955 0.57420   2
   2   0  -5 0.10027 0.24820   3
   2   0  -5 0.43637 0.07126   1
   2   0  -5 0.06667 0.23043   2
  -1   0   5 0.02398 0.18464   3
  -1   0   5 0.04194 0.19329   2
   1   0  -5 0.04890 0.04847   1
   1   0  -5 -0.2601 0.20811   3
   0   0   5 0.07043 0.10332   3
   0   0  -5 0.20654 0.15148   3
   0   0   5 0.37572 0.06657   1
   0   0   5 0.28505 0.06981   1
   1   0   5 0.08879 0.05761   1
   1   0   5 -0.0457 0.21044   2
  -1   0  -5 0.11554 0.10169   3
  -1   0  -5 0.02328 0.18772   2
  -2   0  -5 -0.1341 0.05629   1
  -2   0  -5 0.07067 0.07356   1
  -2   0  -5 -0.0729 0.13374   3
  -3   0  -5 -0.0976 0.25289   2
  -3   0  -5 0.24465 0.23924   3
  -3   0  -5 0.07855 0.06229   1
  -3   0  -5 -0.0317 0.07543   1
   4   0   5 -0.0423 0.08045   1
   4   0   5 0.67663 0.27840   2
  -4   0  -5 -0.2260 0.24868   3
  -4   0  -5 0.51263 0.28123   2
   5   0   5 0.18824 0.07124   1
  -5   0  -5 -0.1024 0.08116   1
   5   0   5 0.21676 0.27747   2
  -5   0  -5 0.23656 0.28916   3
   5   0   5 -0.1379 0.09224   1
  -5   0  -5 -0.0237 0.30003   2
  -6   0  -5 0.14301 0.35698   2
  -6   0  -5 0.24297 0.09323   1
   6   0   5 0.26028 0.32712   2
  -6   0  -5 -0.3567 0.30836   3
  -6   0  -5 0.15972 0.08999   1
   7   0   5 -0.5383 0.37750   2
  -7   0  -5 0.20497 0.44604   2
   7   0   5 0.53858 0.11367   1
  -8   0  -5 -0.1008 0.10995   1
  -8   0  -5 -0.1040 0.42919   3
   8   0   5 -0.1957 0.11637   1
   8   0   5 0.16420 0.37833   2
  -8   0  -5 -0.1442 0.47081   2
  -9   0  -5 0.03468 0.10311   1
  -9   0  -5 -0.0679 0.10096   1
  -9   0  -5 0.00000 0.50955   3
   9   0   5 0.00000 0.41240   2
  -9   0  -5 0.74317 0.46952   2
 -10   0  -5 -0.3965 0.61063   3
  10   0   5 -0.4316 0.44492   2
 -10   0  -5 0.02255 0.51951   2
  11   0   5 0.49953 0.44470   2
 -11   0  -5 -0.0666 0.56239   2
  12   0   5 -0.1147 0.55516   2
 -12   0  -5 -0.1566 0.59276   2
  13   0   5 0.28194 0.56843   2
 -13   0  -5 -0.9235 0.66499   2
  14   0   5 -1.0711 0.61696   2
 -14   0  -5 -0.0470 0.70319   2
 -15   0  -5 0.75982 0.74273   2
  15   0   5 -0.1850 0.63927   2
 -16   0  -5 -0.2609 0.79228   2
  16   0   5 0.11703 0.67414   2
  17   0   5 -0.6122 0.67919   2
 -18   0  -5 0.11535 0.87707   2
  22  -1  -5 27.2822 1.87310   2
 -22   1   5 24.5354 1.75648   2
  21  -1  -5 14.2739 1.35812   3
  21  -1  -5 12.5557 1.06565   2
 -21   1   5 12.4760 1.12815   2
  21   1  -5 11.0365 1.10299   2
  20  -1  -5 25.3564 1.65928   2
 -20  -1   5 26.3829 1.88205   3
  20  -1  -5 25.1848 1.82931   3
 -20   1   5 23.9949 1.73154   3
  20   1  -5 24.1748 1.67821   2
 -20   1   5 26.6633 1.78335   2
  19  -1  -5 13.3034 1.08854   2
 -19  -1   5 11.9101 1.16663   2
  19  -1  -5 15.3847 1.32744   3
  19   1  -5 15.0196 1.42493   3
  19   1  -5 15.8411 1.23346   2
 -19   1   5 14.4534 1.28732   3
 -19   1   5 16.4578 1.29101   2
 -18  -1   5 5.75070 0.91626   3
  18  -1  -5 5.59735 0.91446   3
  18  -1  -5 4.91787 0.64703   2
  18   1  -5 4.98847 0.95581   3
 -18   1   5 5.06727 0.73951   2
  18   1  -5 5.17023 0.82087   2
 -18   1   5 5.10769 0.91365   3
 -17  -1   5 16.5335 1.33521   3
 -17  -1   5 18.2252 1.39595   2
  17  -1  -5 17.4568 1.34012   3
  17  -1  -5 18.1752 1.28355   2
 -17   1   5 19.8516 1.42750   2
  17   1  -5 17.9948 1.50318   3
  17   1  -5 18.2059 1.36241   2
 -17   1   5 17.3726 1.33494   3
  16  -1  -5 -0.0748 0.79506   3
 -16  -1   5 -0.1312 0.77956   3
  16  -1  -5 0.25513 0.53441   2
 -16  -1   5 1.44350 0.79191   2
  16   1  -5 -0.0497 0.90261   3
 -16   1   5 -0.8634 0.60203   2
 -16   1   5 -0.0488 0.69769   3
  16   1  -5 -0.0468 0.72766   2
 -15  -1   5 49.8629 3.04941   2
 -15  -1   5 52.6287 3.30808   3
  15  -1  -5 53.2565 3.18873   2
  15  -1  -5 46.9589 2.97653   3
  15   1  -5 45.3315 2.75287   2
 -15   1   5 48.7559 3.05991   3
 -15   1   5 50.2601 3.03639   2
  15   1  -5 53.4958 3.36278   3
  14  -1  -5 58.9651 3.50325   2
 -14  -1   5 61.0315 3.75972   3
 -14  -1   5 58.9858 3.51013   2
 -14   1   5 56.2596 3.37752   2
 -14   1   5 60.6017 3.75534   3
  14   1  -5 58.7457 3.66638   3
  13  -1  -5 87.7230 5.14648   2
  13  -1  -5 90.3881 5.51580   3
 -13  -1   5 87.8818 5.34296   3
 -13  -1   5 87.9923 5.16310   2
 -13   1   5 89.8081 5.29515   2
  13   1  -5 87.3608 5.35021   3
 -12  -1   5 232.379 21.6414   1
 -12  -1   5 250.479 14.5384   2
  12  -1  -5 225.967 21.0565   1
 -12  -1   5 261.952 15.7225   3
 -12  -1   5 257.423 23.9525   1
  12  -1  -5 251.066 14.5597   2
  12  -1  -5 247.352 23.0321   1
  12  -1  -5 269.899 16.1970   3
 -12   1   5 247.235 14.3417   2
 -12   1   5 241.424 22.4767   1
 -12   1   5 242.082 22.5420   1
  12   1  -5 219.804 20.4751   1
  12   1  -5 250.298 14.5115   2
 -12   1   5 260.250 15.6106   3
  11  -1  -5 305.146 17.6833   2
 -11  -1   5 312.476 29.0810   1
  11  -1  -5 301.229 28.0357   1
 -11  -1   5 319.733 29.7730   1
  11  -1  -5 301.026 28.0475   1
  11  -1  -5 304.210 18.2392   3
 -11   1   5 298.259 27.7656   1
  11   1  -5 307.881 17.8306   2
 -11   1   5 295.937 27.5597   1
 -11   1   5 320.520 19.1840   3
 -11   1   5 311.831 18.0698   2
  11   1  -5 313.870 18.8167   3
 -10  -1   5 469.826 28.1240   3
  10  -1  -5 424.778 25.4359   3
  10  -1  -5 440.085 25.4426   2
  10  -1  -5 432.273 40.2669   1
  10  -1  -5 507.285 47.2224   1
 -10   1   5 519.674 48.3841   1
  10   1  -5 451.572 42.0592   1
 -10   1   5 442.640 26.4988   3
 -10   1   5 416.956 24.1190   2
  10   1  -5 486.739 45.3182   1
 -10   1   5 433.290 40.3552   1
  10   1  -5 453.231 27.1216   3
  10   1  -5 485.309 28.0657   2
  -9  -1   5 524.413 31.3745   3
  -9  -1   5 518.215 29.9387   2
   9  -1  -5 525.306 48.9017   1
   9  -1  -5 481.329 44.8324   1
   9  -1  -5 492.213 29.4441   3
   9  -1  -5 523.126 30.2388   2
  -9   1   5 515.034 47.9521   1
   9   1  -5 481.632 44.8614   1
  -9   1   5 512.890 30.6621   3
  -9   1   5 496.413 28.7009   2
   9   1  -5 514.164 47.8692   1
   9   1  -5 501.567 29.9902   3
   9   1  -5 493.462 28.5343   2
  -9   1   5 497.509 46.3147   1
  -9   1   5 493.539 29.5178   3
  -8  -1   5 108.739 10.1310   1
  -8  -1   5 108.348 6.52515   3
   8  -1  -5 111.249 6.70752   3
  -8  -1   5 109.779 10.2237   1
   8  -1  -5 110.167 6.40390   2
  -8  -1   5 116.108 6.76444   2
   8   1  -5 107.503 6.26947   2
  -8   1   5 114.354 10.6454   1
  -8   1   5 109.931 6.40285   2
   8   1  -5 112.076 10.4402   1
   8   1  -5 106.516 6.43085   3
  -8   1   5 109.924 6.61747   3
   8   1  -5 111.134 10.3545   1
  -8   1   5 117.782 10.9672   1
   7  -1  -5 89.1007 5.39395   3
  -7  -1   5 93.8956 5.50481   2
  -7  -1   5 86.7979 8.08521   1
  -7  -1   5 85.4230 7.95318   1
  -7  -1   5 87.0962 5.24538   3
  -7   1   5 87.3043 8.13575   1
   7   1  -5 83.3981 5.03631   3
   7   1  -5 86.4033 8.04397   1
  -7   1   5 84.4463 4.94181   2
  -7   1   5 80.0592 4.86032   3
   7   1  -5 86.4635 8.05604   1
  -7   1   5 91.7484 8.53929   1
   7   1  -5 86.6489 5.04246   2
   6  -1  -5 172.227 9.97731   2
   6  -1  -5 176.570 16.4388   1
  -6  -1   5 161.741 15.0657   1
   6  -1  -5 201.996 18.8032   1
   6  -1  -5 165.900 9.96126   3
  -6  -1   5 169.893 15.8173   1
  -6  -1   5 185.314 10.7546   2
  -6  -1   5 147.892 8.88372   3
  -6   1   5 160.872 9.64090   3
   6   1  -5 182.126 16.9627   1
   6   1  -5 166.655 9.66850   2
  -6   1   5 164.673 15.3389   1
  -6   1   5 149.591 8.68565   2
  -6   1   5 156.781 14.6040   1
   6   1  -5 158.714 14.7811   1
   5  -1  -5 13.7414 1.27794   1
  -5  -1   5 14.5188 1.02838   2
  -5  -1   5 11.3485 0.77649   3
   5  -1  -5 12.4740 0.89441   3
  -5  -1   5 14.6917 1.37196   1
   5  -1  -5 15.9775 1.48757   1
   5  -1  -5 11.6388 0.76447   2
  -5  -1   5 13.1437 1.23205   1
   5   1  -5 13.6482 1.27492   1
  -5   1   5 13.2675 0.91164   3
   5   1  -5 14.5023 1.34941   1
   5   1  -5 12.3473 0.83125   3
   5   1  -5 12.4649 0.78925   2
   4  -1  -5 242.721 22.5959   1
  -4  -1   5 263.998 15.8015   3
   4  -1  -5 224.607 12.9939   2
  -4  -1   5 229.427 21.3686   1
   4  -1  -5 225.646 21.0015   1
  -4  -1   5 229.263 21.3471   1
  -4   1   5 228.532 13.6923   3
   4   1  -5 242.969 22.6128   1
  -4   1   5 240.850 13.9357   2
   4   1  -5 193.451 11.1997   2
   4   1  -5 247.211 14.7799   3
   4   1  -5 228.815 21.3153   1
  -3  -1   5 212.966 12.7607   3
  -3  -1   5 261.755 24.3671   1
  -3  -1   5 302.669 17.5154   2
   3  -1  -5 238.077 14.2500   3
   3  -1  -5 272.321 25.3592   1
  -3  -1   5 270.451 25.1918   1
   3  -1  -5 261.062 24.3131   1
   3  -1  -5 230.210 13.3140   2
   3   1  -5 233.527 13.5163   2
  -3   1   5 274.287 25.5356   1
   3   1  -5 254.756 23.7242   1
   3   1  -5 280.821 26.1516   1
  -3   1   5 242.772 14.0253   2
  -3   1   5 249.326 23.2208   1
   3   1  -5 234.906 14.0433   3
  -2  -1   5 394.068 22.7696   2
   2  -1  -5 429.303 39.9561   1
  -2  -1   5 411.722 38.3181   1
   2  -1  -5 421.858 39.2726   1
  -2  -1   5 357.510 21.3597   3
  -2  -1   5 409.967 38.1672   1
   2  -1  -5 315.802 18.9024   3
   2  -1  -5 339.843 19.6295   2
   2   1  -5 376.685 22.5182   3
   2   1  -5 358.809 20.7249   2
   2   1  -5 373.140 34.7416   1
  -2   1   5 371.831 34.6360   1
  -2   1   5 427.675 39.8103   1
   2   1  -5 388.862 36.2129   1
  -2   1   5 373.497 22.3206   3
   1  -1  -5 852.349 79.3458   1
  -1  -1   5 661.623 39.5392   3
   1  -1  -5 710.593 41.0311   2
   1  -1  -5 801.646 47.8880   3
  -1  -1   5 808.186 75.2441   1
  -1  -1   5 709.983 41.0117   2
   1  -1  -5 708.158 65.9435   1
  -1  -1   5 706.421 65.7757   1
   1   1  -5 673.309 38.8897   2
  -1   1   5 776.398 46.3765   3
   1   1  -5 793.166 73.8698   1
  -1   1   5 771.879 71.8583   1
  -1   1   5 969.694 90.2615   1
   1   1  -5 808.629 75.2808   1
   1   1  -5 762.434 45.5448   3
   0  -1   5 1074.68 62.0685   2
   0  -1   5 1226.56 114.205   1
   0  -1  -5 1428.97 82.4601   2
   0  -1  -5 1253.89 74.9246   3
   0  -1  -5 1821.21 169.580   1
   0  -1   5 1273.70 118.598   1
   0  -1  -5 1428.67 132.996   1
   0   1   5 1505.89 140.181   1
   0   1  -5 1147.21 68.5484   3
   0   1  -5 1136.86 65.6895   2
   0   1  -5 1261.88 117.507   1
   0   1   5 1129.53 65.2623   2
   0   1  -5 1309.88 121.962   1
   0   1   5 1574.10 146.525   1
   1  -1   5 599.816 55.8461   1
  -1  -1  -5 577.191 33.3287   2
  -1  -1  -5 660.708 39.4834   3
  -1  -1  -5 746.079 69.4541   1
   1  -1   5 588.137 54.7678   1
   1  -1   5 564.411 33.7313   3
   1  -1   5 569.599 32.9147   2
  -1   1  -5 589.772 54.9313   1
  -1   1  -5 543.911 31.4140   2
   1   1   5 589.714 54.9118   1
   1   1   5 795.638 74.0491   1
  -1   1  -5 564.802 33.7577   3
  -1   1  -5 630.295 58.6985   1
   2  -1   5 515.279 29.7661   2
   2  -1   5 587.033 35.0785   3
   2  -1   5 614.109 57.1664   1
  -2  -1  -5 557.190 51.8778   1
   2  -1   5 574.879 53.5354   1
  -2  -1  -5 515.066 29.7551   2
  -2   1  -5 510.079 30.4828   3
   2   1   5 578.324 33.3907   2
  -2   1  -5 598.662 55.7441   1
  -2   1  -5 519.722 30.0299   2
  -2   1  -5 581.660 54.1611   1
   2   1   5 588.045 54.7557   1
   2   1   5 618.934 57.6267   1
  -3  -1  -5 820.004 76.3508   1
   3  -1   5 749.379 44.7761   3
   3  -1   5 758.248 70.6171   1
  -3  -1  -5 778.682 44.9626   2
   3  -1   5 762.997 44.0713   2
  -3  -1  -5 857.943 79.8673   1
   3  -1   5 807.729 75.2086   1
   3   1   5 795.730 45.9347   2
  -3   1  -5 755.633 70.3608   1
  -3   1  -5 783.647 72.9630   1
  -3   1  -5 696.877 40.2625   2
   3   1   5 906.768 84.4333   1
   3   1   5 844.561 78.6411   1
  -3   1  -5 811.308 48.4572   3
   4  -1   5 177.899 16.5656   1
   4  -1   5 162.196 9.70586   3
  -4  -1  -5 183.912 17.1190   1
   4  -1   5 172.451 10.0088   2
  -4  -1  -5 180.188 10.4321   2
  -4  -1  -5 158.373 9.47956   3
   4  -1   5 175.029 16.2983   1
  -4  -1  -5 204.253 19.0127   1
  -4   1  -5 179.606 16.7270   1
  -4   1  -5 171.444 9.94117   2
  -4   1  -5 153.009 9.15503   3
  -4   1  -5 172.363 16.0512   1
   4   1   5 208.560 19.4183   1
   4   1   5 200.021 18.6131   1
   4   1   5 169.674 9.82169   2
  -5  -1  -5 2.07742 0.21371   1
   5  -1   5 2.97114 0.29211   1
  -5  -1  -5 3.17187 0.30709   1
   5  -1   5 1.95825 0.28224   3
   5  -1   5 2.14691 0.36137   2
  -5  -1  -5 2.48210 0.33005   2
   5  -1   5 2.82547 0.27701   1
  -5   1  -5 2.40531 0.41574   2
  -5   1  -5 1.93088 0.29220   3
   5   1   5 2.40354 0.22886   1
  -5   1  -5 2.02129 0.19969   1
   5   1   5 1.83867 0.27170   2
  -5   1  -5 2.63195 0.26102   1
   6  -1   5 4.45006 0.47916   3
   6  -1   5 4.43386 0.42460   1
  -6  -1  -5 4.12806 0.43000   2
   6  -1   5 4.14979 0.47003   2
   6  -1   5 4.46244 0.42137   1
  -6  -1  -5 3.91519 0.37171   1
  -6   1  -5 4.45972 0.48955   2
   6   1   5 3.94205 0.38075   1
  -6   1  -5 4.30904 0.41345   1
  -6   1  -5 4.31602 0.41218   1
   6   1   5 3.97539 0.39969   2
  -6   1  -5 4.48572 0.46892   3
  -7  -1  -5 36.4222 3.39641   1
   7  -1   5 36.0886 3.36340   1
   7  -1   5 33.2784 3.09871   1
   7  -1   5 39.4852 2.36156   2
  -7  -1  -5 33.5335 3.12059   1
  -7  -1  -5 35.4284 2.13179   2
   7   1   5 35.9882 3.35010   1
   7   1   5 41.9028 3.90525   1
   7   1   5 34.3618 2.05023   2
  -7   1  -5 35.7147 2.20772   3
  -7   1  -5 37.6822 2.29409   2
   8  -1   5 157.901 9.16370   2
  -8  -1  -5 157.083 14.6324   1
  -8  -1  -5 135.552 12.6305   1
  -8  -1  -5 185.772 10.7974   2
   8   1   5 149.102 13.8871   1
  -8   1  -5 149.921 13.9646   1
   8   1   5 160.879 14.9817   1
   8   1   5 157.499 9.15706   2
  -8   1  -5 147.287 13.7188   1
   9  -1   5 102.170 5.98489   2
  -9  -1  -5 103.013 6.02864   2
  -9   1  -5 95.7620 5.79879   3
   9   1   5 101.078 5.90611   2
   9   1   5 90.7322 8.44874   1
  -9   1  -5 96.9568 9.02907   1
   9   1   5 99.0027 9.21684   1
  10  -1   5 193.256 11.6375   3
  10   1   5 191.358 11.1272   2
 -10   1  -5 189.699 11.4027   3
 -10   1  -5 184.451 10.7451   2
  11  -1   5 172.578 10.4372   3
 -11  -1  -5 170.095 9.88784   2
 -11   1  -5 176.382 10.2778   2
 -11   1  -5 171.967 10.3340   3
  11   1   5 184.563 10.7200   2
  12  -1   5 71.2871 4.21848   2
 -12   1  -5 71.4949 4.24972   2
 -12   1  -5 68.2170 4.22219   3
  12   1   5 73.7781 4.37895   2
  13  -1   5 65.9205 3.92046   2
 -13  -1  -5 63.0377 3.79728   2
 -13   1  -5 64.2435 3.82805   2
  14  -1   5 43.0843 2.64713   2
 -14   1  -5 43.5693 2.66205   2
  15  -1   5 28.9617 1.88309   2
 -15  -1  -5 28.3324 1.93972   2
  15   1   5 26.1701 1.74719   2
 -15   1  -5 28.4572 1.87223   2
  16  -1   5 11.9905 1.01023   2
 -16   1  -5 10.5099 1.04086   2
  16   1   5 10.7412 1.03626   2
  17  -1   5 1.65161 0.66073   2
  17   1   5 2.88182 0.77029   2
 -17   1  -5 2.66962 0.68351   2
  18  -1   5 2.67036 0.72234   2
 -18   1  -5 1.99128 0.80972   2
  21  -2  -5 0.43719 0.65477   2
  21  -2  -5 0.00000 0.99040   3
 -21   2   5 0.77858 0.75535   2
  20  -2  -5 2.60063 0.66018   2
 -20  -2   5 1.85511 1.33576   2
  20  -2  -5 2.06123 0.84698   3
  20   2  -5 1.38688 0.81200   2
 -20   2   5 1.52636 0.72853   2
 -20   2   5 0.70514 0.77578   3
  20   2  -5 0.33566 0.88060   3
 -19  -2   5 49.4438 3.14658   3
  19  -2  -5 53.2268 3.20797   2
  19  -2  -5 50.7608 3.26249   3
 -19   2   5 55.1971 3.47581   3
 -19   2   5 52.6063 3.20860   2
  19   2  -5 56.7968 3.48746   2
  18  -2  -5 105.175 6.44346   3
  18  -2  -5 97.7410 5.75896   2
 -18   2   5 113.404 6.89901   3
  18   2  -5 106.469 6.50819   3
 -18   2   5 101.673 5.99442   2
  17  -2  -5 80.5525 4.76137   2
 -17  -2   5 82.6149 5.07682   3
  17  -2  -5 89.0015 5.48087   3
  17   2  -5 83.3800 5.14098   3
 -17   2   5 87.9100 5.40385   3
  17   2  -5 87.7506 5.21420   2
 -17   2   5 85.7536 5.07063   2
 -16  -2   5 78.2138 4.79903   3
  16  -2  -5 77.4093 4.78595   3
  16  -2  -5 79.3133 4.69634   2
 -16   2   5 79.3507 4.88457   3
  16   2  -5 88.0417 5.22435   2
 -16   2   5 81.0229 4.81448   2
  16   2  -5 78.0860 4.81110   3
 -15  -2   5 141.137 8.51947   3
 -15   2   5 144.729 8.44255   2
  15   2  -5 164.514 9.59881   2
 -15   2   5 157.550 9.51155   3
  15   2  -5 137.539 8.32403   3
 -14  -2   5 156.115 9.42494   3
  14  -2  -5 161.742 9.75295   3
  14   2  -5 153.087 9.25030   3
  14   2  -5 183.705 10.6962   2
 -14   2   5 158.620 9.25066   2
  13  -2  -5 88.0577 5.38015   3
 -13  -2   5 73.9034 4.46033   2
 -13  -2   5 78.2703 4.79247   3
 -13   2   5 86.1193 5.27463   3
  13   2  -5 87.4960 5.16139   2
 -13   2   5 83.2771 4.92432   2
  13   2  -5 76.3058 4.68959   3
  12  -2  -5 14.8274 1.04042   2
 -12  -2   5 13.4486 1.02686   3
  12  -2  -5 13.7537 1.13065   3
 -12  -2   5 12.0177 1.24306   2
 -12   2   5 13.9490 1.14100   3
  12   2  -5 13.1628 1.08174   3
  12   2  -5 13.7409 1.02244   2
  11  -2  -5 0.13033 0.57355   3
  11  -2  -5 0.39190 0.10841   1
  11  -2  -5 -0.3460 0.11316   1
  11  -2  -5 -0.5117 0.45551   2
 -11  -2   5 0.14107 0.11187   1
 -11  -2   5 0.47825 0.58804   3
 -11  -2   5 -1.2518 0.81123   2
 -11   2   5 0.16072 0.55991   3
  11   2  -5 0.30708 0.12892   1
 -11   2   5 0.42559 0.12105   1
  11   2  -5 0.58742 0.51433   2
  11   2  -5 0.02710 0.10744   1
  10  -2  -5 2.52118 0.61945   3
 -10  -2   5 3.13268 0.31338   1
 -10  -2   5 2.90288 0.29356   1
 -10  -2   5 1.28928 0.72758   2
  10  -2  -5 2.72830 0.27146   1
  10  -2  -5 3.48340 0.50174   2
  10  -2  -5 3.39035 0.33352   1
  10   2  -5 2.15788 0.22737   1
 -10   2   5 3.49908 0.54625   2
  10   2  -5 3.52805 0.34625   1
  10   2  -5 2.19683 0.62667   3
 -10   2   5 2.60828 0.63137   3
  10   2  -5 2.38680 0.48536   2
 -10   2   5 3.36981 0.32904   1
   9  -2  -5 113.531 6.61891   2
  -9  -2   5 111.047 10.3469   1
   9  -2  -5 107.092 9.96988   1
   9  -2  -5 107.218 6.48334   3
  -9   2   5 115.199 10.7272   1
   9   2  -5 109.776 6.39755   2
  -9   2   5 111.749 10.4029   1
  -9   2   5 113.233 6.58988   2
   9   2  -5 110.894 10.3337   1
   9   2  -5 114.797 6.92868   3
  -9   2   5 111.310 6.70851   3
   9   2  -5 116.063 10.8069   1
  -8  -2   5 233.208 21.7190   1
   8  -2  -5 250.058 14.9922   3
   8  -2  -5 241.476 22.4836   1
   8  -2  -5 230.501 21.4597   1
  -8  -2   5 255.346 15.2897   3
  -8  -2   5 246.561 22.9456   1
   8  -2  -5 228.518 13.2390   2
   8   2  -5 241.659 22.5138   1
   8   2  -5 238.056 22.1781   1
  -8   2   5 254.181 15.2415   3
  -8   2   5 258.414 24.0720   1
  -8   2   5 252.574 14.6276   2
  -8   2   5 235.773 21.9671   1
   8   2  -5 229.499 13.2957   2
   8   2  -5 259.988 15.5674   3
   7  -2  -5 388.057 22.4298   2
   7  -2  -5 398.855 23.8647   3
   7  -2  -5 375.954 34.9986   1
  -7  -2   5 393.556 23.5478   3
  -7  -2   5 390.812 36.3853   1
  -7  -2   5 411.830 38.3457   1
  -7  -2   5 369.480 21.3946   2
   7  -2  -5 380.462 35.4203   1
  -7   2   5 387.852 36.1166   1
   7   2  -5 382.999 22.9216   3
  -7   2   5 404.615 23.3916   2
   7   2  -5 363.326 33.8411   1
   7   2  -5 383.773 22.2021   2
  -7   2   5 406.458 37.8438   1
  -7   2   5 394.273 23.5868   3
   7   2  -5 402.917 37.5213   1
  -6  -2   5 1459.82 135.909   1
   6  -2  -5 1181.98 110.066   1
   6  -2  -5 1256.32 116.982   1
   6  -2  -5 1217.12 72.7089   3
  -6  -2   5 1228.28 73.4207   3
  -6  -2   5 1322.67 123.148   1
   6  -2  -5 1249.17 72.1102   2
  -6   2   5 1364.43 127.031   1
  -6   2   5 1190.18 71.0914   3
  -6   2   5 1310.79 75.6561   2
   6   2  -5 1290.66 77.1135   3
  -6   2   5 1272.62 118.493   1
   5  -2  -5 941.914 87.6930   1
  -5  -2   5 1015.04 94.5310   1
  -5  -2   5 970.508 58.0051   3
  -5  -2   5 1037.30 96.5849   1
   5  -2  -5 968.877 90.2337   1
   5  -2  -5 994.194 57.4171   2
  -5   2   5 1060.08 63.3255   3
  -5   2   5 1061.30 98.8198   1
   5   2  -5 952.428 56.9083   3
  -5   2   5 1050.73 60.6664   2
  -5   2   5 1066.28 99.2807   1
  -4  -2   5 437.048 26.1262   3
   4  -2  -5 390.833 36.3883   1
   4  -2  -5 449.614 26.8856   3
   4  -2  -5 472.746 44.0171   1
   4  -2  -5 431.850 24.9385   2
  -4   2   5 485.510 29.0139   3
  -4   2   5 471.025 43.8715   1
   4   2  -5 477.617 27.5987   2
   4   2  -5 434.703 25.9950   3
   4   2  -5 463.263 43.1239   1
  -4   2   5 495.935 46.1716   1
  -4   2   5 482.570 27.8686   2
   3  -2  -5 1175.73 67.8679   2
   3  -2  -5 1194.15 71.3340   3
   3  -2  -5 1397.42 130.090   1
   3  -2  -5 1483.72 138.113   1
  -3  -2   5 1141.67 68.2217   3
   3   2  -5 1184.01 110.251   1
  -3   2   5 1295.70 120.634   1
   3   2  -5 1203.92 112.117   1
  -3   2   5 1436.62 85.7893   3
   3   2  -5 1167.76 69.7513   3
  -3   2   5 1205.49 112.241   1
   3   2  -5 1150.25 66.4541   2
   2  -2  -5 993.014 92.4359   1
   2  -2  -5 770.216 46.0129   3
   2  -2  -5 797.384 46.0519   2
  -2  -2   5 711.230 41.0876   2
  -2  -2   5 779.029 72.5394   1
   2  -2  -5 817.553 76.1276   1
  -2  -2   5 807.012 48.2180   3
  -2  -2   5 804.216 74.8793   1
  -2   2   5 978.819 91.1279   1
  -2   2   5 741.848 44.3391   3
   2   2  -5 745.146 43.0488   2
   2   2  -5 819.910 76.3362   1
   2   2  -5 736.855 68.6300   1
   2   2  -5 729.488 43.6095   3
  -1  -2   5 41.4450 2.45355   2
  -1  -2   5 43.1720 2.62798   3
  -1  -2   5 46.2887 4.30889   1
   1  -2  -5 42.2213 2.56168   3
  -1  -2   5 39.8440 3.71534   1
  -1   2   5 53.7867 5.00566   1
   1   2  -5 41.2278 3.84335   1
   1   2  -5 37.6557 2.28114   3
   1   2  -5 36.2213 2.14211   2
   1   2  -5 43.6287 4.06767   1
   0  -2   5 0.13282 0.26788   3
   0  -2  -5 0.02107 0.18544   3
   0  -2   5 0.04186 0.31343   2
   0   2   5 0.30298 0.19047   3
   0   2  -5 0.19123 0.04945   1
   1  -2   5 6.38435 0.59789   1
  -1  -2  -5 6.34302 0.44643   3
   1  -2   5 6.43392 0.60242   1
   1  -2   5 6.70331 0.51711   2
  -1   2  -5 6.50331 0.61212   1
  -1   2  -5 5.97732 0.43894   3
   1   2   5 5.13125 0.34351   3
  -1   2  -5 6.44390 0.49357   2
  -1   2  -5 6.50592 0.60904   1
  -2  -2  -5 209.238 12.5109   3
   2  -2   5 206.200 19.1933   1
  -2  -2  -5 223.118 20.7772   1
   2  -2   5 192.260 17.9017   1
   2  -2   5 201.111 11.6427   2
  -2   2  -5 182.395 10.5801   2
  -2   2  -5 198.598 18.4870   1
  -2   2  -5 202.392 18.8480   1
  -2   2  -5 201.170 12.0396   3
  -3  -2  -5 585.422 34.9837   3
  -3  -2  -5 732.344 68.1691   1
   3  -2   5 540.627 31.2359   2
   3  -2   5 564.611 52.5845   1
   3  -2   5 554.034 33.1182   3
  -3  -2  -5 469.215 43.6921   1
   3  -2   5 524.436 48.8356   1
  -3   2  -5 560.806 52.2225   1
  -3   2  -5 544.187 32.5218   3
   3   2   5 784.710 73.0495   1
  -3   2  -5 544.902 50.7389   1
  -3   2  -5 535.070 30.9264   2
   3   2   5 484.936 45.1766   1
   4  -2   5 308.531 17.8611   2
   4  -2   5 307.082 18.3708   3
   4  -2   5 308.328 28.7195   1
   4  -2   5 316.478 29.4764   1
  -4   2  -5 298.578 17.2943   2
  -4   2  -5 313.094 29.1576   1
   4   2   5 445.526 41.4676   1
  -4   2  -5 355.688 21.2703   3
  -4   2  -5 314.289 29.2616   1
  -5  -2  -5 313.373 29.1820   1
   5  -2   5 310.144 18.5600   3
   5  -2   5 311.114 18.0160   2
  -5  -2  -5 280.792 26.1417   1
   5  -2   5 315.493 29.3789   1
  -5  -2  -5 297.778 17.7987   3
   5  -2   5 340.241 31.6734   1
  -5  -2  -5 348.383 20.1284   2
  -5   2  -5 317.790 29.5801   1
  -5   2  -5 323.136 19.3401   3
  -5   2  -5 320.765 29.8676   1
  -5   2  -5 303.737 17.5845   2
   5   2   5 330.928 30.8277   1
   6  -2   5 533.686 30.8660   2
   6  -2   5 547.198 50.9572   1
  -6  -2  -5 562.288 33.6318   3
  -6  -2  -5 553.449 51.5417   1
  -6  -2  -5 628.873 58.5447   1
   6  -2   5 601.107 55.9757   1
   6  -2   5 647.952 38.7289   3
  -6   2  -5 547.517 50.9962   1
  -6   2  -5 609.006 36.4091   3
  -6   2  -5 541.153 31.2920   2
  -6   2  -5 580.929 54.0835   1
  -7  -2  -5 483.345 45.0121   1
  -7  -2  -5 517.606 48.1953   1
  -7  -2  -5 558.725 32.2872   2
   7  -2   5 520.735 48.4840   1
   7  -2   5 530.205 49.3647   1
   7  -2   5 479.120 28.6672   3
  -7   2  -5 608.884 35.1922   2
   7   2   5 519.137 48.3344   1
  -7   2  -5 500.871 46.6345   1
  -7   2  -5 558.199 51.9800   1
  -7   2  -5 498.441 29.8209   3
  -8  -2  -5 151.042 14.0667   1
   8  -2   5 185.735 10.7713   2
   8  -2   5 145.838 13.5840   1
  -8  -2  -5 153.480 14.2934   1
   8  -2   5 188.963 11.3584   3
  -8  -2  -5 169.200 9.83130   2
   8   2   5 160.320 14.9360   1
  -8   2  -5 171.381 10.2958   3
  -8   2  -5 151.745 14.1297   1
  -8   2  -5 170.801 9.92182   2
   9  -2   5 140.619 8.48478   3
  -9  -2  -5 139.866 8.13573   2
   9  -2   5 127.389 7.41819   2
  -9   2  -5 136.111 7.93315   2
  -9   2  -5 139.695 8.42189   3
 -10  -2  -5 108.766 6.35488   2
  10  -2   5 110.186 6.45264   2
  10   2   5 100.097 5.86836   2
 -10   2  -5 104.496 6.12411   2
  11  -2   5 4.86048 0.68938   3
  11  -2   5 6.44539 0.63229   2
 -11   2  -5 5.38690 0.75560   3
 -11   2  -5 6.26648 0.71169   2
  12  -2   5 0.62801 0.84110   3
 -12  -2  -5 0.57277 0.63347   2
  12  -2   5 0.00000 0.44997   2
 -12   2  -5 0.42521 0.73093   3
 -12   2  -5 0.91788 0.60804   2
  13  -2   5 19.5218 1.31864   2
 -13  -2  -5 19.8696 1.44904   2
  13  -2   5 16.6774 1.41299   3
 -13   2  -5 22.6817 1.51705   2
 -13   2  -5 18.6863 1.32483   2
 -13   2  -5 18.2601 1.35333   3
  14  -2   5 86.4727 5.09450   2
  15  -2   5 38.4233 2.36036   2
 -16   2  -5 28.8560 1.86983   2
 -17   2  -5 43.4541 2.70830   2
  18  -2   5 26.6777 1.74599   2
 -18   2  -5 25.0181 1.70096   2
  20  -3  -5 1.57726 0.65619   2
  20  -3  -5 0.79105 0.95451   3
 -20   3   5 1.74365 0.83757   3
  19  -3  -5 -0.2584 0.90962   3
  19  -3  -5 -0.0213 0.61289   2
  19   3  -5 0.78815 0.77828   2
 -19   3   5 1.24530 0.83276   3
 -19   3   5 0.54517 0.70054   2
  19   3  -5 0.51494 0.84977   3
  18  -3  -5 8.10105 1.06082   3
 -18  -3   5 8.73956 1.01892   3
  18  -3  -5 11.1373 0.94002   2
  18   3  -5 8.86649 1.02463   2
 -18   3   5 9.99801 0.93314   2
 -18   3   5 8.39770 0.99790   3
  17  -3  -5 4.55089 0.69587   2
  17  -3  -5 3.41579 0.84490   3
 -17   3   5 2.83658 0.78707   3
 -17   3   5 4.94172 0.75252   2
  17   3  -5 2.88368 0.91072   3
  17   3  -5 3.67678 0.84729   2
  16  -3  -5 0.58487 0.54903   2
 -16  -3   5 -0.0551 0.72722   3
 -16   3   5 0.58676 0.65096   2
 -16   3   5 0.43663 0.74723   3
  16   3  -5 1.03345 0.89760   3
 -15  -3   5 4.64976 0.78710   3
  15  -3  -5 4.18921 0.88750   3
  15  -3  -5 3.65154 0.58655   2
  15   3  -5 3.32605 0.77180   2
 -15   3   5 3.74388 0.67569   2
  15   3  -5 3.23031 0.90361   3
  14  -3  -5 20.9270 1.40189   2
  14  -3  -5 20.9259 1.56009   3
 -14  -3   5 20.5343 1.48375   3
  14   3  -5 21.8631 1.59326   3
 -14   3   5 22.1121 1.51261   2
 -14   3   5 20.4165 1.52661   3
  14   3  -5 21.5305 1.49643   2
  13  -3  -5 9.60571 0.94631   3
  13  -3  -5 11.6639 0.92575   2
 -13  -3   5 11.2782 0.99940   3
  13   3  -5 11.1211 0.98630   2
 -13   3   5 11.6521 0.95962   2
  13   3  -5 10.6078 1.03478   3
 -13   3   5 9.84994 0.96206   3
  12  -3  -5 55.7912 3.30250   2
 -12  -3   5 58.8682 3.62995   3
  12  -3  -5 52.8549 3.28235   3
  12   3  -5 61.5802 3.81736   3
 -12   3   5 57.7789 3.58263   3
 -12   3   5 57.6192 3.44537   2
  12   3  -5 62.5758 3.75059   2
  11  -3  -5 134.910 8.14642   3
 -11  -3   5 141.929 8.57213   3
  11  -3  -5 145.294 8.46767   2
  11   3  -5 146.915 8.86868   3
  11   3  -5 144.858 8.45386   2
 -11   3   5 145.994 8.80962   3
 -11   3   5 150.945 8.79325   2
  10  -3  -5 75.9702 4.63228   3
 -10  -3   5 78.0917 4.75579   3
  10   3  -5 79.5948 4.69920   2
 -10   3   5 77.0095 7.17710   1
  10   3  -5 69.3399 6.46106   1
 -10   3   5 77.5167 4.73178   3
  -9  -3   5 104.488 6.33940   3
   9  -3  -5 108.632 6.57099   3
   9  -3  -5 111.542 6.50575   2
  -9  -3   5 97.9479 9.12845   1
   9  -3  -5 112.118 10.4390   1
  -9  -3   5 95.0995 8.86116   1
   9  -3  -5 104.526 9.73195   1
  -9   3   5 120.924 7.04162   2
   9   3  -5 100.968 9.40369   1
  -9   3   5 111.189 10.3563   1
   9   3  -5 113.937 6.89273   3
   9   3  -5 104.287 9.71955   1
  -9   3   5 109.251 10.1727   1
  -9   3   5 118.172 7.12084   3
   9   3  -5 115.991 6.76389   2
   8  -3  -5 67.0901 6.25133   1
   8  -3  -5 61.0881 5.69508   1
  -8  -3   5 63.4649 5.90765   1
   8  -3  -5 63.8914 3.90610   3
   8  -3  -5 68.1394 4.00670   2
  -8   3   5 63.5164 3.88063   3
   8   3  -5 70.3609 4.27996   3
  -8   3   5 71.5339 4.21469   2
  -8   3   5 68.6276 6.39419   1
   8   3  -5 63.8281 3.77083   2
  -8   3   5 64.3343 5.99269   1
   8   3  -5 57.0487 5.31241   1
  -4  -3   5 13.0819 0.88082   2
  -4  -3   5 12.4565 1.16264   1
  -4  -3   5 13.8951 0.98197   3
   4  -3  -5 12.0184 1.11716   1
   4  -3  -5 12.2624 0.85036   3
  -4  -3   5 13.6878 1.28301   1
   4   3  -5 13.3873 0.88406   2
   4   3  -5 14.6948 1.37171   1
   4   3  -5 13.9922 0.96472   3
   4   3  -5 14.5631 1.35622   1
  -4   3   5 14.4221 1.34546   1
  -3  -3   5 97.1029 5.83773   3
   3  -3  -5 97.4598 5.86428   3
  -3  -3   5 111.750 6.50560   2
  -3  -3   5 94.8272 8.83406   1
   3   3  -5 89.9027 8.37141   1
   3   3  -5 101.348 5.89787   2
  -3   3   5 115.921 6.97331   3
  -3   3   5 96.7538 9.01143   1
   3   3  -5 98.7149 5.94044   3
  -3   3   5 76.5850 7.13225   1
  -2  -3   5 45.9333 4.28094   1
   2  -3  -5 51.0763 3.10814   3
  -2  -3   5 53.0960 3.12570   2
  -2  -3   5 54.7637 3.32454   3
   2   3  -5 49.8920 4.64710   1
   2   3  -5 40.4023 2.37858   2
   2   3  -5 55.7914 3.39840   3
   2   3  -5 44.1099 4.11294   1
   1  -3  -5 26.4288 1.63266   3
  -1  -3   5 26.8381 2.50585   1
  -1  -3   5 25.4478 2.36849   1
  -1  -3   5 27.6058 1.66497   2
  -1  -3   5 27.3660 1.69690   3
  -1   3   5 33.7758 2.09059   3
   1   3  -5 29.2777 1.81189   3
   1   3  -5 26.8216 2.49451   1
   1   3  -5 26.1262 1.58579   2
   1   3  -5 26.7647 2.49901   1
   0  -3  -5 173.340 10.3972   3
   0  -3   5 169.212 10.1298   3
   0  -3   5 182.814 17.0341   1
   0  -3   5 189.270 10.9757   2
   0   3  -5 179.771 10.7828   3
   0   3  -5 216.417 20.1400   1
   0   3   5 190.170 11.3902   3
   1  -3   5 196.532 11.7841   3
   1  -3   5 197.984 18.4330   1
   1  -3   5 205.359 19.1155   1
  -1  -3  -5 196.191 11.7513   3
   1  -3   5 194.296 11.2455   2
  -1   3  -5 190.010 17.6886   1
  -1   3  -5 192.627 17.9378   1
   1   3   5 183.560 10.9798   3
   3  -3   5 107.098 9.97334   1
   3  -3   5 114.213 6.85525   3
  -3  -3  -5 116.578 6.99914   3
   3  -3   5 108.747 10.1276   1
   3   3   5 102.512 6.14471   3
  -3   3  -5 110.757 6.45615   2
  -3   3  -5 112.020 6.73913   3
   4  -3   5 149.770 13.9457   1
   4  -3   5 145.307 8.71504   3
  -4  -3  -5 138.800 12.9274   1
  -4  -3  -5 152.614 9.14961   3
   4  -3   5 135.251 12.5993   1
  -4   3  -5 139.219 12.9644   1
  -4   3  -5 143.605 8.34770   2
  -4   3  -5 135.784 8.15129   3
  -4   3  -5 150.952 14.0545   1
   5  -3   5 10.6037 0.76792   2
   5  -3   5 11.2655 0.80704   3
  -5  -3  -5 10.0034 0.93422   1
  -5  -3  -5 9.28279 0.86727   1
  -5  -3  -5 12.3346 0.82405   3
  -5   3  -5 12.0758 0.86037   3
  -5   3  -5 9.99008 0.93654   1
  -5   3  -5 11.0366 1.03016   1
  -5   3  -5 11.1376 0.81937   2
   5   3   5 13.6709 1.28090   1
  -6  -3  -5 7.23984 0.68385   1
   6  -3   5 7.59918 0.61830   2
  -6  -3  -5 7.90343 0.73959   1
   6  -3   5 8.56166 0.68030   3
  -6  -3  -5 7.85570 0.59986   3
  -6   3  -5 7.40295 0.69313   1
  -6   3  -5 8.58790 0.69774   3
  -6   3  -5 7.65806 0.66896   2
  -6   3  -5 8.34682 0.78278   1
   6   3   5 8.27099 0.77291   1
   7  -3   5 -0.3480 0.42759   2
   7   3   5 -0.1310 0.07793   1
   7   3   5 -0.1029 0.09177   1
  -7   3  -5 -0.3410 0.44519   2
   8  -3   5 12.4862 0.92181   3
   8  -3   5 12.9082 0.91740   2
  -8   3  -5 13.0630 0.96865   2
  -8   3  -5 11.4778 0.85298   3
   9  -3   5 39.3398 2.45682   3
   9  -3   5 41.5504 2.50044   2
  -9   3  -5 37.6157 2.35156   3
  -9   3  -5 43.1394 2.60779   2
  10  -3   5 45.8469 2.87570   3
  10  -3   5 41.0833 2.47218   2
 -10   3  -5 42.9300 2.70073   3
 -10   3  -5 41.4886 2.51879   2
  11  -3   5 19.6605 1.29173   2
 -11   3  -5 18.1266 1.32767   3
 -11   3  -5 21.1572 1.39030   2
  12  -3   5 12.2849 0.94432   2
  12  -3   5 9.21862 0.96274   3
 -12   3  -5 9.81197 0.94186   3
 -12   3  -5 12.2464 1.01219   2
  13  -3   5 15.9285 1.26901   3
  13  -3   5 19.3468 1.30497   2
 -13   3  -5 18.0070 1.43485   3
 -13   3  -5 18.2504 1.29622   2
  14  -3   5 12.6497 1.33311   3
  14  -3   5 11.8782 0.91822   2
 -14   3  -5 10.1618 1.14446   3
 -14   3  -5 12.9894 1.02450   2
  15  -3   5 13.8398 1.02407   2
 -15   3  -5 12.4062 0.98431   2
  16  -3   5 5.66076 0.70260   2
 -16   3  -5 5.50501 0.73114   2
  17  -3   5 0.56359 0.64929   2
 -17   3  -5 0.72548 0.68384   2
  19  -4  -5 5.86609 0.74578   2
  19  -4  -5 5.93558 1.01145   3
 -19   4   5 4.84455 0.75247   2
 -19   4   5 3.94254 0.83632   3
 -17  -4   5 -0.2849 0.71227   3
  17  -4  -5 0.23210 0.60770   2
 -17   4   5 -0.8027 0.88310   3
 -17   4   5 -0.0421 0.67929   2
  16  -4  -5 11.9565 1.18081   3
  16  -4  -5 15.0015 1.11059   2
  16   4  -5 13.9901 1.28816   3
 -16   4   5 16.1269 1.23294   2
 -15  -4   5 7.82023 0.88069   3
  15  -4  -5 8.42967 0.94733   3
  15  -4  -5 8.55233 0.80895   2
 -15   4   5 6.77295 0.92464   3
 -15   4   5 8.81048 0.89308   2
  15   4  -5 7.87307 1.01714   2
  15   4  -5 9.04628 1.06379   3
  14  -4  -5 8.09350 0.80474   2
 -14  -4   5 9.18507 0.93712   3
  14   4  -5 7.52200 0.87767   2
 -14   4   5 8.41805 0.86416   2
  14   4  -5 7.16734 0.97255   3
 -14   4   5 7.38206 0.89352   3
  13  -4  -5 22.6324 1.48679   2
  13  -4  -5 18.6547 1.39386   3
 -13  -4   5 19.0806 1.39199   3
  13   4  -5 22.2966 1.58413   2
 -13   4   5 23.2362 1.56755   2
 -13   4   5 22.0566 1.55763   3
  13   4  -5 20.7859 1.54584   3
 -12  -4   5 2.06514 1.51402   2
 -12  -4   5 -0.3878 0.62581   3
  12  -4  -5 -0.6592 0.59574   3
  12  -4  -5 0.19840 0.50794   2
 -12   4   5 -0.0966 0.63754   3
  12   4  -5 0.25582 0.58944   2
 -12   4   5 0.06652 0.61306   2
  12   4  -5 0.46154 0.82845   3
  11  -4  -5 2.70887 0.64234   3
 -11  -4   5 2.94725 0.66518   3
  11  -4  -5 2.35805 0.55863   2
  11   4  -5 2.31733 0.69053   3
 -11   4   5 3.55661 0.67006   3
 -11   4   5 1.91973 0.66102   2
 -10  -4   5 0.16973 0.50684   3
  10  -4  -5 0.83924 0.58988   3
  10   4  -5 0.30629 0.51840   3
 -10   4   5 -0.1749 0.60441   2
 -10   4   5 0.60708 0.61651   3
   9  -4  -5 47.5630 2.94582   3
  -9  -4   5 37.7500 2.56118   2
  -9  -4   5 46.5529 2.87333   3
  -9   4   5 47.3943 2.94760   3
   8  -4  -5 21.2608 1.43159   3
   8  -4  -5 22.2212 1.41010   2
  -8  -4   5 20.7369 1.41532   3
   8   4  -5 20.8348 1.35517   2
  -8   4   5 22.9199 1.53234   3
   8   4  -5 22.8121 1.53589   3
   7  -4  -5 21.0419 1.32351   2
  -7   4   5 20.7906 1.40291   3
   7   4  -5 19.4388 1.81910   1
   7   4  -5 22.6870 1.44559   2
   7   4  -5 21.5751 1.42901   3
  -7   4   5 22.7150 1.44340   2
   6  -4  -5 37.1823 3.46850   1
   6  -4  -5 52.3594 4.87968   1
   6  -4  -5 54.6701 3.36078   3
  -6  -4   5 53.3744 3.17100   2
   6  -4  -5 55.6229 3.26836   2
  -6  -4   5 50.6617 3.11346   3
   6   4  -5 49.1484 3.02393   3
   6   4  -5 53.5166 3.19092   2
  -6   4   5 50.7737 4.73149   1
  -6   4   5 54.0219 3.32001   3
  -6   4   5 42.9478 3.99892   1
   5  -4  -5 29.5284 1.76903   2
   5  -4  -5 19.7777 1.85040   1
  -5  -4   5 26.7414 1.64963   2
  -5  -4   5 28.8155 1.81852   3
   5   4  -5 22.7705 2.12893   1
   5   4  -5 27.5737 2.57311   1
   5   4  -5 30.4399 1.87370   2
  -5   4   5 24.8724 2.31992   1
   5   4  -5 28.2350 1.77749   3
  -4  -4   5 4.56209 0.53218   3
  -4  -4   5 5.42793 0.54398   2
  -4  -4   5 4.11450 0.39062   1
   4  -4  -5 4.90495 0.53061   3
  -4  -4   5 3.93678 0.36973   1
   4   4  -5 3.28422 0.31684   1
   4   4  -5 4.55641 0.53041   3
  -4   4   5 4.04545 0.48450   3
   4   4  -5 5.62037 0.53427   1
   4   4  -5 4.47993 0.52892   2
   3  -4  -5 13.1015 1.21906   1
   3  -4  -5 15.3005 1.03385   3
  -3  -4   5 15.0945 1.41109   1
  -3  -4   5 17.8112 1.17509   2
  -3   4   5 13.9055 0.93854   3
   3   4  -5 13.2126 1.23238   1
  -2  -4   5 24.0777 2.24657   1
   2  -4  -5 25.0627 1.58333   3
   2  -4  -5 19.6650 1.83710   1
  -2  -4   5 27.7843 1.71448   2
   2   4  -5 26.2874 2.45020   1
  -2   4   5 25.9987 1.61964   3
  -2   4   5 25.3182 2.35964   1
  -1  -4   5 0.73947 0.09565   1
  -1  -4   5 1.09107 0.12594   1
   1  -4  -5 0.59330 0.34968   3
  -1   4   5 0.71409 0.38159   3
   1   4  -5 0.97682 0.10729   1
   1   4  -5 0.57362 0.09351   1
   0  -4   5 -0.2701 0.36299   2
   0  -4  -5 0.58904 0.33520   3
   0   4   5 1.18079 0.34186   3
   0   4  -5 -0.0228 0.36820   2
   0   4  -5 0.64402 0.08730   1
   1  -4   5 2.17851 0.41837   2
   1  -4   5 2.08251 0.37799   3
   1  -4   5 2.17192 0.22435   1
  -1  -4  -5 1.86799 0.37982   3
   1  -4   5 2.23213 0.22463   1
  -1   4  -5 2.00899 0.20413   1
  -1   4  -5 1.84720 0.36297   3
  -1   4  -5 2.91724 0.28198   1
   1   4   5 1.93338 0.33593   3
  -1   4  -5 1.82036 0.37173   2
  -2  -4  -5 1.68567 0.35334   3
   2  -4   5 2.53407 0.39820   2
   2  -4   5 2.43652 0.40696   3
  -2   4  -5 2.86007 0.27230   1
  -2   4  -5 2.61577 0.41575   2
   2   4   5 2.38689 0.36230   3
  -3   4  -5 55.5099 3.38479   3
   3   4   5 54.3876 3.29457   3
  -4  -4  -5 57.4851 3.49291   3
   4  -4   5 55.2223 3.28065   2
   4  -4   5 53.9812 3.29811   3
  -4   4  -5 54.9629 3.27373   2
  -4   4  -5 52.8254 3.22764   3
   5  -4   5 14.9976 1.01452   2
  -5  -4  -5 14.6130 1.02454   3
   5  -4   5 13.7567 0.98018   3
  -5   4  -5 14.4155 1.03011   3
  -5   4  -5 14.6573 1.02778   2
   6  -4   5 67.7002 4.12852   3
   6  -4   5 62.4559 3.69758   2
  -6  -4  -5 74.7111 4.54312   3
  -6   4  -5 67.1791 3.96860   2
  -6   4  -5 67.3977 4.11279   3
   7  -4   5 33.0149 2.07933   3
   7  -4   5 30.6674 1.88249   2
  -7   4  -5 32.9309 2.02730   2
  -7   4  -5 33.1644 2.07648   3
   8  -4   5 0.54006 0.44072   2
   8  -4   5 0.68437 0.60719   3
  -8   4  -5 0.41930 0.50986   3
   9  -4   5 1.62247 0.48657   2
   9  -4   5 3.09045 0.68493   3
  -9   4  -5 3.01057 0.61341   3
  10  -4   5 0.98719 0.49111   2
  10  -4   5 0.16056 0.63086   3
 -10   4  -5 0.34391 0.58014   3
 -10   4  -5 0.31121 0.58902   2
  11  -4   5 2.82584 0.75139   3
 -11   4  -5 3.52329 0.68065   2
 -12   4  -5 1.77435 0.72204   3
 -12   4  -5 2.74414 0.68842   2
  13  -4   5 1.49460 0.78172   3
  13  -4   5 1.04531 0.53809   2
 -13   4  -5 1.19427 0.63699   2
  14  -4   5 2.04451 0.55131   2
 -14   4  -5 2.51427 0.63588   2
 -14   4  -5 1.59049 0.61082   2
 -14   4  -5 1.50304 0.88193   3
  15  -4   5 3.35312 0.59063   2
 -15   4  -5 2.99266 0.64209   2
  16  -4   5 1.44664 0.56373   2
 -16   4  -5 1.10447 0.63623   2
  18  -5  -5 1.34330 0.97594   3
  17  -5  -5 6.27401 1.03992   3
  16  -5  -5 -0.1492 0.73858   3
 -16  -5   5 0.65875 0.75260   3
  16  -5  -5 0.33718 0.63124   2
 -16   5   5 0.83837 0.76774   2
  16   5  -5 -0.4829 0.81089   3
 -16   5   5 1.31030 0.84796   3
  15  -5  -5 28.4737 1.84974   2
 -15  -5   5 30.8393 2.10698   3
  15  -5  -5 31.2006 2.18468   3
 -15   5   5 26.7812 1.79947   2
  15   5  -5 20.1853 1.58498   3
 -15   5   5 24.4676 1.72070   3
 -14  -5   5 8.00221 0.93292   3
  14  -5  -5 7.20332 0.88397   3
 -14   5   5 9.13043 0.95893   2
 -14   5   5 7.93061 0.90763   3
  14   5  -5 8.74188 0.99163   3
  13  -5  -5 23.3552 1.57311   2
 -13  -5   5 22.0148 1.55776   3
  13  -5  -5 23.1253 1.60008   3
 -13   5   5 21.9066 1.52785   3
 -13   5   5 26.8204 1.82527   2
  13   5  -5 21.6805 1.52682   3
  12  -5  -5 48.8364 3.06974   3
  12  -5  -5 52.2500 3.14955   2
 -12  -5   5 47.8041 3.00774   3
 -12   5   5 49.0186 3.09887   3
 -12   5   5 59.9761 3.63315   2
 -11  -5   5 40.8705 2.59707   3
  11  -5  -5 47.8169 2.99157   3
  11  -5  -5 45.5400 2.75539   2
  11   5  -5 40.3062 2.52286   3
 -11   5   5 47.7800 3.01887   3
 -11   5   5 53.9387 3.27585   2
  10  -5  -5 82.0423 5.01065   3
  10  -5  -5 83.1947 4.92182   2
 -10  -5   5 83.0036 5.05896   3
  10   5  -5 76.4831 4.67116   3
 -10   5   5 82.0261 4.86382   2
 -10   5   5 89.5291 5.45108   3
  -9  -5   5 62.2523 3.83722   3
   9  -5  -5 59.0009 3.61586   3
   9  -5  -5 55.5418 3.33733   2
  -9   5   5 55.5866 3.43617   3
  -8  -5   5 40.2245 2.44650   2
  -8  -5   5 48.3058 2.98409   3
  -8   5   5 45.3728 2.82888   3
   8   5  -5 44.1032 2.74387   3
  -7  -5   5 30.2534 1.86974   2
  -7  -5   5 30.7399 1.95620   3
   7  -5  -5 28.9801 1.85665   3
   6  -5  -5 14.3027 1.04399   3
   6   5  -5 13.6196 0.98573   3
  -6   5   5 13.8728 1.01406   3
  -5  -5   5 5.24396 0.62108   2
   5  -5  -5 5.15925 0.59054   3
  -5  -5   5 4.21435 0.53346   3
   5   5  -5 4.88247 0.53976   3
  -5   5   5 4.59832 0.55496   3
  -4  -5   5 29.0655 1.82326   2
   4  -5  -5 25.3746 1.65013   3
  -4  -5   5 25.9456 1.67060   3
   4   5  -5 26.5663 1.67655   2
   4   5  -5 26.1485 1.65779   3
  -4   5   5 25.4011 1.62103   3
   3  -5  -5 88.6850 5.36110   3
  -3  -5   5 82.3204 4.83742   2
  -3  -5   5 80.5113 4.88905   3
   3   5  -5 81.3120 4.91353   3
  -3   5   5 78.4932 4.75889   3
   2  -5  -5 80.0336 4.85296   3
  -2  -5   5 80.8820 4.90317   3
   2   5  -5 81.5910 4.94063   3
  -2   5   5 83.7466 5.07072   3
  -1  -5   5 121.299 7.30828   3
  -1   5   5 126.392 7.61359   3
   1   5  -5 119.879 7.21494   3
   1   5  -5 130.281 7.60063   2
   0  -5  -5 181.801 10.9046   3
   0  -5   5 178.082 10.7020   3
   0   5  -5 167.933 9.77334   2
   0   5  -5 182.746 10.9774   3
   0   5   5 185.787 11.1557   3
   1  -5   5 109.856 6.42185   2
   1  -5   5 119.320 7.19398   3
  -1  -5  -5 114.191 6.89153   3
  -1   5  -5 114.080 6.87430   3
  -1   5  -5 115.224 6.73935   2
   2  -5   5 56.6916 3.36486   2
   2  -5   5 58.7303 3.58440   3
  -2   5  -5 55.7826 3.41934   3
   2   5   5 53.9008 3.29153   3
  -2   5  -5 58.3241 3.46424   2
   3  -5   5 66.6312 4.06091   3
  -3  -5  -5 66.3619 4.04231   3
   3  -5   5 79.8531 4.71547   2
  -3   5  -5 84.8927 5.02501   2
   3   5   5 60.9820 3.70607   3
  -4  -5  -5 23.9102 1.56423   3
   4  -5   5 23.8754 1.51690   2
   4  -5   5 25.1409 1.66947   3
  -4   5  -5 24.4396 1.57227   2
   4   5   5 21.8738 1.39890   3
  -4   5  -5 23.5270 1.52192   3
   5  -5   5 3.74529 0.53615   2
   5  -5   5 2.53080 0.53169   3
  -5  -5  -5 4.11108 0.57998   3
  -5   5  -5 3.73116 0.60667   2
  -5   5  -5 3.75265 0.55061   3
   6  -5   5 -0.2284 0.52621   2
   6  -5   5 0.06650 0.48775   3
  -6   5  -5 0.49229 0.54137   2
  -6   5  -5 1.03422 0.50838   3
   7  -5   5 5.52075 0.73855   3
   7  -5   5 4.92441 0.59878   2
  -7   5  -5 4.25957 0.58309   3
  -7   5  -5 4.33966 0.63148   2
   8  -5   5 3.55948 0.57116   2
   8  -5   5 3.31488 0.71472   3
  -8   5  -5 4.21704 0.61062   2
  -8   5  -5 4.38111 0.62127   3
   9  -5   5 37.2656 2.30423   2
   9  -5   5 37.2876 2.40485   3
  -9   5  -5 36.6309 2.31790   3
  -9   5  -5 39.5993 2.46029   2
  10  -5   5 51.1676 3.20119   3
  10  -5   5 49.7163 3.00908   2
 -10   5  -5 49.9431 3.03626   2
 -10   5  -5 52.8472 3.28678   3
  11  -5   5 38.1117 2.37070   2
  11  -5   5 38.6556 2.50044   3
 -11   5  -5 34.2690 2.22005   3
 -11   5  -5 36.0579 2.26957   2
  12  -5   5 36.7288 2.40887   3
  12  -5   5 37.4778 2.32858   2
 -12   5  -5 34.3453 2.18503   2
  13  -5   5 17.4863 1.25240   2
  13  -5   5 15.8041 1.28917   3
 -13   5  -5 16.8450 1.26802   2
 -13   5  -5 14.3783 1.20805   3
  14  -5   5 12.4641 0.98111   2
 -14   5  -5 12.0938 1.06445   2
 -14   5  -5 12.0498 0.94695   2
  15  -6  -5 5.50059 0.81231   3
 -15   6   5 4.99075 0.84899   3
  14  -6  -5 18.8137 1.44558   3
 -14   6   5 19.0349 1.41960   3
  13  -6  -5 15.6991 1.22247   3
 -13   6   5 16.6856 1.28848   3
  13   6  -5 14.8592 1.22598   3
 -12  -6   5 1.06564 0.64855   3
  12  -6  -5 0.65178 0.69233   3
  12   6  -5 0.93975 0.69787   3
 -12   6   5 1.06503 0.68774   3
 -11  -6   5 -0.8902 0.62776   3
  11  -6  -5 -0.5064 0.60555   3
  11   6  -5 -0.7543 0.70407   3
 -11   6   5 1.08086 0.72803   3
  10  -6  -5 1.98649 0.60044   3
 -10  -6   5 1.35404 0.63125   3
  10   6  -5 2.35673 0.60419   3
 -10   6   5 3.16304 0.69124   3
  -9  -6   5 5.28614 0.77882   3
   9   6  -5 4.81349 0.76372   3
  -9   6   5 3.72295 0.73411   3
  -8  -6   5 10.6289 0.88770   3
   8  -6  -5 10.0819 0.89564   3
   8   6  -5 11.0085 0.98268   3
  -7  -6   5 70.2099 4.28842   3
   7  -6  -5 62.7043 3.84857   3
  -7   6   5 64.4960 3.95660   3
   7   6  -5 70.6518 4.31282   3
  -6  -6   5 34.7275 2.22053   3
   6  -6  -5 36.0696 2.29049   3
  -6   6   5 34.4303 2.16867   3
   5  -6  -5 20.3488 1.38418   3
  -5   6   5 20.1360 1.39853   3
   5   6  -5 18.4187 1.27974   3
  -4  -6   5 43.5531 2.71797   3
   4  -6  -5 41.7292 2.61217   3
   4   6  -5 43.2417 2.68022   3
  -4   6   5 40.3700 2.52047   3
  -3  -6   5 33.6671 2.11956   3
   3  -6  -5 29.0426 1.86939   3
   3   6  -5 34.3807 2.16974   3
  -3   6   5 32.4767 2.05246   3
   2  -6  -5 16.3278 1.13745   3
  -2  -6   5 16.7631 1.17268   3
   2   6  -5 17.2361 1.20640   3
  -2   6   5 14.8863 1.05739   3
  -1  -6   5 11.7270 0.90875   2
  -1  -6   5 13.0810 0.94516   3
   1  -6  -5 12.7721 0.97653   3
   1   6  -5 13.9863 0.99377   3
  -1   6   5 13.6047 0.95936   3
   0  -6   5 9.48617 0.76996   2
   0  -6   5 9.82679 0.81968   3
   0   6  -5 9.15451 0.78971   2
   0   6  -5 9.92681 0.79921   3
   0   6   5 8.53099 0.74413   3
  -1  -6  -5 1.20887 0.58331   3
   1  -6   5 0.31983 0.47375   2
   1  -6   5 0.00000 0.52724   3
  -1   6  -5 1.19729 0.51225   3
  -1   6  -5 1.25488 0.51633   2
   2  -6   5 8.50007 0.76023   2
   2  -6   5 9.68674 0.79811   3
  -2  -6  -5 9.22475 0.77089   3
  -2   6  -5 9.22169 0.81787   2
  -2   6  -5 9.59992 0.76209   3
   2   6   5 9.10765 0.76609   3
  -3  -6  -5 9.85030 0.81663   3
   3  -6   5 11.6909 0.89302   3
  -3   6  -5 12.0903 1.02306   2
   3   6   5 11.2413 0.89602   3
  -3   6  -5 11.4200 0.88773   3
  -4  -6  -5 18.6218 1.29664   3
   4  -6   5 19.8552 1.35348   2
   4  -6   5 19.5892 1.34864   3
  -4   6  -5 21.2954 1.46348   2
   4   6   5 16.9954 1.18382   3
   5  -6   5 38.7587 2.37961   2
  -5   6  -5 38.9267 2.43678   3
  -5   6  -5 47.7174 2.96469   2
   6  -6   5 47.3661 2.86503   2
   6  -6   5 49.6247 3.09017   3
  -6   6  -5 51.5248 3.19013   3
   7  -6   5 23.7244 1.60936   3
   7  -6   5 22.3784 1.47918   2
  -7   6  -5 23.5538 1.59053   3
   8  -6   5 24.1755 1.63530   3
  -8   6  -5 30.1874 2.05617   2
  -8   6  -5 22.1950 1.50215   3
   9  -6   5 8.09353 0.86054   3
  -9   6  -5 8.78537 0.91595   2
  -9   6  -5 7.80314 0.84165   3
  10  -6   5 0.02280 0.62699   3
 -10   6  -5 -0.8127 0.64577   3
 -10   6  -5 0.41956 0.65254   2
  11  -6   5 6.05263 0.80736   3
  11  -6   5 5.19976 0.70503   2
 -11   6  -5 5.55704 0.82508   3
 -11   6  -5 5.50761 0.80918   2
  12  -7  -5 0.33417 0.66176   3
 -12   7   5 0.80393 0.78337   3
 -11   7   5 -1.0349 0.75098   3
  11   7  -5 0.62824 0.64508   3
  10  -7  -5 2.81071 0.71366   3
 -10  -7   5 2.85977 0.63401   3
  10   7  -5 3.09480 0.78406   3
  -9  -7   5 1.00840 0.60293   3
   9  -7  -5 0.67985 0.63108   3
   9   7  -5 0.68845 0.63906   3
  -9   7   5 0.80392 0.66931   3
  -8  -7   5 1.02184 0.56209   3
   8  -7  -5 -0.4601 0.62126   3
   8   7  -5 1.13953 0.65005   3
  -8   7   5 0.62996 0.66995   3
   7  -7  -5 0.48758 0.58306   3
  -7  -7   5 0.71506 0.55530   3
   7   7  -5 0.00000 0.60769   3
  -7   7   5 0.67059 0.57637   3
   6  -7  -5 -0.4581 0.59561   3
  -6  -7   5 -0.3036 0.54879   3
   6   7  -5 0.21706 0.54923   3
  -6   7   5 -0.0210 0.62413   3
   5  -7  -5 2.77351 0.59662   3
  -5  -7   5 3.30132 0.60936   3
  -5   7   5 4.47212 0.61229   3
   4  -7  -5 0.50966 0.58314   3
  -4  -7   5 1.00664 0.53067   3
  -4   7   5 1.17824 0.59321   3
   4   7  -5 1.08903 0.46985   3
  -3  -7   5 1.43153 0.45652   3
   3  -7  -5 2.14599 0.56214   3
   3   7  -5 0.76890 0.46997   3
  -3   7   5 1.55677 0.49580   3
   2  -7  -5 0.16635 0.57191   3
  -2  -7   5 0.37335 0.47919   3
   2   7  -5 0.14669 0.48414   3
   1  -7  -5 0.86608 0.61933   3
  -1  -7   5 -0.4518 0.52077   3
  -1   7   5 1.23053 0.51350   3
   1   7  -5 -0.4656 0.48779   3
   0  -7  -5 0.33993 0.56097   3
   0  -7   5 0.57394 0.44434   3
   0   7   5 1.20204 0.61399   3
   0   7  -5 0.91467 0.43127   3
   1  -7   5 1.01680 0.48640   3
  -1   7  -5 2.57431 0.48834   3
  -2  -7  -5 1.07678 0.59232   3
   2  -7   5 0.66759 0.51413   3
  -2   7  -5 1.35802 0.53884   3
   3  -7   5 0.22118 0.53532   3
  -3   7  -5 0.73192 0.51242   3
   4  -7   5 0.68847 0.47970   3
  -4   7  -5 0.42645 0.46916   3
   5  -7   5 0.24413 0.53715   3
  -6   7  -5 -0.6536 0.50333   3
   7  -7   5 1.88548 0.61739   3
  -7   7  -5 1.95702 0.66062   3
   8  -7   5 2.43140 0.73626   3
  -8   7  -5 2.36403 0.71159   3
   9  -7   5 1.80600 0.70424   3
   6   8  -5 1.76850 0.55250   3
  -5  -8   5 1.82159 0.54658   3
   5   8  -5 1.31025 0.58126   3
  -4  -8   5 4.22947 0.63146   3
   4   8  -5 3.38153 0.57249   3
  -3  -8   5 3.18493 0.54464   3
   2   8  -5 0.53981 0.52261   3
  -1  -8   5 -0.6498 0.52420   3
   1   8  -5 0.50385 0.55431   3
   0  -8   5 0.87645 0.50623   3
   0   8  -5 1.25558 0.47634   3
   1  -8   5 -0.6305 0.55011   3
  -1   8  -5 0.86049 0.50975   3
   2  -8   5 2.30848 0.53729   3
  -2   8  -5 1.93061 0.52480   3
   3  -8   5 1.30311 0.59325   3
  -3   8  -5 1.77504 0.55453   3
  22   0  -6 17.9460 1.36063   2
 -21   0   6 40.3915 2.56967   2
  21   0  -6 50.8017 3.26562   3
  20   0  -6 37.0572 2.46859   3
 -20   0   6 36.1867 2.39725   3
 -20   0   6 28.1821 1.89950   2
  19   0  -6 109.500 6.45370   2
 -19   0   6 128.042 7.78904   3
 -18   0   6 130.879 7.92563   3
  18   0  -6 127.222 7.45518   2
 -18   0   6 124.851 7.33810   2
  18   0  -6 128.022 7.77775   3
 -17   0   6 25.1437 1.76407   3
  17   0  -6 27.4034 1.79916   2
 -17   0   6 29.3093 1.95526   2
  17   0  -6 25.0889 1.77631   3
 -16   0   6 46.4914 2.82320   2
 -16   0   6 52.8992 3.32559   3
  16   0  -6 55.4116 3.47784   3
  16   0  -6 47.9551 2.90336   2
 -15   0   6 12.2870 1.06797   3
 -15   0   6 10.9309 0.95131   2
  15   0  -6 10.9124 1.04474   3
  15   0  -6 12.4165 0.95806   2
 -14   0   6 -0.3530 0.69346   3
 -14   0   6 -0.0461 0.55724   2
  14   0  -6 0.89700 0.52995   2
  13   0  -6 6.23626 0.66071   2
  13   0  -6 5.47550 0.79077   3
 -13   0   6 6.76732 0.76934   2
  12   0  -6 110.877 6.47229   2
  12   0  -6 98.5231 9.17673   1
 -12   0   6 106.421 6.44879   3
  12   0  -6 96.3903 8.98179   1
 -12   0   6 107.542 10.0142   1
 -12   0   6 104.909 6.13477   2
 -12   0   6 93.9048 8.75279   1
  12   0  -6 101.960 6.17191   3
  11   0  -6 265.833 24.7742   1
 -11   0   6 255.247 23.7838   1
  11   0  -6 263.195 24.5036   1
 -11   0   6 301.170 18.0560   3
  11   0  -6 258.650 15.0011   2
 -11   0   6 264.998 24.6913   1
  11   0  -6 288.393 17.2797   3
 -11   0   6 262.737 15.2281   2
 -10   0   6 859.003 79.9935   1
 -10   0   6 942.822 87.7742   1
  10   0  -6 862.728 80.3448   1
  10   0  -6 862.573 80.3203   1
 -10   0   6 888.347 51.3196   2
  10   0  -6 955.244 57.0935   3
  10   0  -6 904.179 52.2428   2
 -10   0   6 995.081 59.4659   3
   9   0  -6 355.869 20.5919   2
   9   0  -6 356.396 33.2090   1
  -9   0   6 464.563 43.2509   1
  -9   0   6 365.635 21.1428   2
  -9   0   6 373.958 34.8217   1
  -9   0   6 393.648 23.5472   3
   9   0  -6 366.039 34.0928   1
   9   0  -6 366.135 21.9173   3
   8   0  -6 809.489 75.3750   1
   8   0  -6 824.925 49.2931   3
  -8   0   6 817.156 48.8416   3
  -8   0   6 778.973 44.9901   2
  -8   0   6 802.012 74.6771   1
   8   0  -6 865.563 80.5784   1
  -8   0   6 875.057 81.4661   1
   8   0  -6 805.670 46.5241   2
   7   0  -6 2595.26 241.740   1
  -7   0   6 2172.97 125.493   2
   7   0  -6 2267.93 135.532   3
  -7   0   6 2238.41 133.706   3
  -7   0   6 2648.63 246.664   1
  -7   0   6 2237.30 208.430   1
   7   0  -6 2296.36 132.530   2
   7   0  -6 2268.38 211.132   1
   6   0  -6 514.562 30.7698   3
  -6   0   6 500.042 29.9047   3
   6   0  -6 492.173 28.4225   2
  -6   0   6 518.186 29.9411   2
   6   0  -6 493.521 45.9496   1
  -6   0   6 486.292 45.2907   1
   6   0  -6 506.292 47.1398   1
  -6   0   6 495.545 46.1459   1
  -5   0   6 376.700 21.7554   2
   5   0  -6 372.092 34.6467   1
  -5   0   6 343.263 20.5301   3
  -5   0   6 371.349 34.5811   1
   5   0  -6 385.603 35.9029   1
  -5   0   6 371.213 34.5723   1
   5   0  -6 345.500 20.6577   3
   5   0  -6 337.667 19.5321   2
   4   0  -6 31.9866 1.87869   2
  -4   0   6 34.0890 3.17232   1
  -4   0   6 35.7852 3.33780   1
   4   0  -6 36.2867 3.37818   1
   4   0  -6 36.6307 3.41244   1
  -4   0   6 29.0573 1.75212   2
  -4   0   6 33.3042 2.04200   3
   3   0  -6 213.936 12.7906   3
   3   0  -6 166.163 9.62760   2
  -3   0   6 206.090 19.1841   1
   3   0  -6 218.901 20.3841   1
  -3   0   6 240.816 22.4239   1
   3   0  -6 220.501 20.5225   1
  -2   0   6 885.926 82.4724   1
  -2   0   6 811.396 75.5354   1
   2   0  -6 795.294 47.5115   3
  -2   0   6 811.875 48.4961   3
  -1   0   6 955.502 55.1746   2
  -1   0   6 1217.32 72.6952   3
   1   0  -6 1127.50 67.3295   3
  -1   0   6 1018.34 94.8264   1
  -1   0   6 1212.97 112.936   1
   0   0  -6 19.6223 1.82780   1
   0   0   6 21.2017 1.97280   1
   0   0  -6 18.6905 1.12602   2
   0   0   6 19.9025 1.85680   1
   0   0  -6 21.5247 2.00606   1
   0   0  -6 23.8771 1.44623   3
  -1   0  -6 1868.35 173.925   1
  -1   0  -6 1708.92 98.6745   2
  -1   0  -6 1618.40 96.7300   3
  -1   0  -6 1929.20 179.692   1
  -2   0  -6 1508.26 140.427   1
  -2   0  -6 1560.62 145.304   1
   2   0   6 1602.52 149.215   1
   2   0   6 1435.79 82.9017   2
   2   0   6 1578.27 146.950   1
  -2   0  -6 1393.75 80.5048   2
  -3   0  -6 836.526 48.3134   2
   3   0   6 812.668 46.9355   2
  -3   0  -6 909.542 84.6842   1
  -3   0  -6 821.884 76.5286   1
   3   0   6 914.120 85.1230   1
   3   0   6 841.933 78.4024   1
  -4   0  -6 563.815 52.4923   1
   4   0   6 509.697 29.4457   2
  -4   0  -6 444.972 26.6022   3
  -4   0  -6 518.898 29.9815   2
  -4   0  -6 504.413 46.9603   1
   4   0   6 480.307 44.7224   1
   4   0   6 510.871 47.5781   1
  -5   0  -6 658.192 38.0279   2
  -5   0  -6 672.359 62.6068   1
  -5   0  -6 649.930 60.5212   1
   5   0   6 679.499 63.2629   1
   5   0   6 645.779 60.1448   1
   5   0   6 680.367 39.3106   2
  -6   0  -6 547.647 50.9863   1
   6   0   6 514.307 47.8899   1
   6   0   6 528.333 30.5440   2
  -6   0  -6 510.943 29.5417   2
   6   0   6 529.440 49.3027   1
  -6   0  -6 457.401 27.3621   3
  -6   0  -6 541.945 50.4488   1
   7   0   6 34.6232 3.22862   1
   7   0   6 35.4276 2.14589   2
   7   0   6 34.0764 3.18026   1
  -7   0  -6 35.1223 3.27678   1
  -7   0  -6 34.2231 3.18757   1
  -7   0  -6 36.7223 2.24906   2
   8   0   6 49.8936 4.64623   1
  -8   0  -6 51.6622 3.09178   2
  -8   0  -6 45.6772 4.26159   1
   8   0   6 47.5167 4.42481   1
  -8   0  -6 50.6037 4.71373   1
  -8   0  -6 38.5233 2.37333   3
   8   0   6 50.5784 2.99847   2
   9   0   6 35.5658 3.31629   1
 -10   0  -6 162.000 9.45313   2
  10   0   6 162.477 9.43963   2
 -11   0  -6 60.1164 3.59602   2
  11   0   6 59.4648 3.54704   2
 -12   0  -6 192.657 11.2308   2
  12   0   6 165.635 9.63868   2
 -13   0  -6 144.447 8.45392   2
  13   0   6 137.964 8.06351   2
 -14   0  -6 120.929 7.12406   2
  14   0   6 117.919 6.91776   2
 -15   0  -6 95.8516 5.66674   2
  15   0   6 101.731 5.99304   2
  16   0   6 6.20301 0.86649   2
 -17   0  -6 10.3386 1.05158   2
  22  -1  -6 14.7886 1.22541   2
 -22   1   6 13.4666 1.21429   2
  21  -1  -6 3.92385 1.01269   3
  21  -1  -6 5.82683 0.82364   2
 -21  -1   6 3.18924 0.99850   3
 -21  -1   6 0.34720 1.28579   2
  21   1  -6 3.90535 0.85204   2
 -21   1   6 4.84860 0.93109   2
 -21   1   6 4.18479 0.81739   3
 -20  -1   6 -1.3593 1.03465   2
  20  -1  -6 0.66763 0.87051   3
  20  -1  -6 0.31691 0.70412   2
  20   1  -6 -0.0234 0.72886   2
  20   1  -6 1.17001 1.01332   3
 -20   1   6 -0.4020 0.74610   2
 -20   1   6 -0.5156 0.86433   3
  19  -1  -6 -1.1379 0.61692   2
 -19  -1   6 1.77116 0.81895   3
 -19  -1   6 1.27587 1.00714   2
  19  -1  -6 -0.1203 0.82067   3
  19   1  -6 0.16375 0.70069   2
  19   1  -6 0.70411 0.85476   3
 -19   1   6 0.39732 0.84690   3
 -19   1   6 0.02257 0.64995   2
  18  -1  -6 9.84078 1.09921   3
 -18  -1   6 8.69468 0.99695   3
 -18  -1   6 8.21613 1.09989   2
  18  -1  -6 9.30995 0.90103   2
 -18   1   6 8.84754 0.90888   2
  18   1  -6 10.3850 0.95984   2
  18   1  -6 10.3903 1.19797   3
 -18   1   6 9.28533 1.04965   3
  17  -1  -6 6.55308 0.74757   2
 -17  -1   6 5.57540 0.93311   2
  17  -1  -6 6.51723 0.95444   3
 -17  -1   6 6.35774 0.90645   3
  17   1  -6 6.09052 0.79466   2
  17   1  -6 7.07093 1.06103   3
 -17   1   6 6.85887 0.91576   3
 -17   1   6 6.66516 0.83709   2
 -16  -1   6 60.7282 3.77840   3
 -16  -1   6 67.8001 4.08309   2
  16  -1  -6 57.7576 3.60191   3
  16  -1  -6 58.0292 3.47253   2
  16   1  -6 57.3489 3.45038   2
 -16   1   6 57.3543 3.56264   3
 -16   1   6 58.2780 3.49758   2
  16   1  -6 64.6087 4.04074   3
  15  -1  -6 164.330 9.57969   2
 -15  -1   6 186.261 11.2055   3
 -15  -1   6 193.085 11.2725   2
 -15   1   6 161.801 9.44648   2
 -15   1   6 173.350 10.4351   3
  15   1  -6 172.796 10.4084   3
 -14  -1   6 85.5160 5.20382   3
  14  -1  -6 90.4753 5.50268   3
  14  -1  -6 90.7043 5.32057   2
  14   1  -6 85.9465 5.27824   3
  14   1  -6 85.9409 5.08407   2
 -14   1   6 87.3483 5.14621   2
  13  -1  -6 202.902 12.1953   3
  13  -1  -6 200.117 11.6097   2
 -13  -1   6 208.974 12.5429   3
 -13   1   6 214.371 12.8723   3
  13   1  -6 206.146 11.9869   2
 -13   1   6 189.485 11.0145   2
  12  -1  -6 91.2632 5.54575   3
 -12  -1   6 76.5767 7.13546   1
  12  -1  -6 81.4439 4.77176   2
  12  -1  -6 78.6029 7.32548   1
 -12  -1   6 77.1926 7.19379   1
  12  -1  -6 83.9701 7.81912   1
  12   1  -6 83.0139 4.89194   2
 -12   1   6 86.4172 5.25452   3
  12   1  -6 74.3012 6.92280   1
 -12   1   6 78.7928 7.34085   1
 -12   1   6 86.4097 5.08607   2
 -12   1   6 81.1872 7.55833   1
  12   1  -6 84.7573 5.18030   3
  12   1  -6 84.7985 7.89517   1
  11  -1  -6 64.3793 5.99689   1
  11  -1  -6 73.7269 4.50315   3
 -11  -1   6 70.9351 4.19042   2
  11  -1  -6 72.8465 4.28857   2
  11  -1  -6 67.3484 6.27702   1
 -11  -1   6 73.8487 4.52365   3
  11   1  -6 65.7911 6.13377   1
 -11   1   6 70.5991 4.30002   3
  11   1  -6 69.0996 4.25018   3
 -11   1   6 66.3924 6.18612   1
  11   1  -6 71.4320 4.20307   2
 -11   1   6 68.5068 6.38643   1
 -11   1   6 66.1016 3.89441   2
  11   1  -6 65.6598 6.11577   1
  10  -1  -6 95.7817 5.59153   2
 -10  -1   6 90.4095 8.41620   1
 -10  -1   6 95.8592 5.79639   3
  10  -1  -6 98.0142 5.93356   3
 -10  -1   6 88.5726 8.25312   1
 -10  -1   6 100.952 5.89866   2
  10   1  -6 93.4508 5.46043   2
 -10   1   6 89.8882 5.26843   2
  10   1  -6 86.4104 8.05402   1
  10   1  -6 86.2929 8.03432   1
 -10   1   6 92.5950 8.62515   1
 -10   1   6 98.2821 5.95124   3
  10   1  -6 93.3683 5.66301   3
 -10   1   6 87.0316 8.10972   1
  -9  -1   6 5.94846 0.75521   2
  -9  -1   6 4.60355 0.44829   1
  -9  -1   6 5.68234 0.67442   3
  -9  -1   6 5.36632 0.51097   1
   9  -1  -6 5.91060 0.72274   3
   9   1  -6 5.44325 0.57038   2
  -9   1   6 4.35852 0.42134   1
   9   1  -6 5.58903 0.53697   1
   9   1  -6 5.12993 0.71689   3
  -9   1   6 6.07192 0.57048   1
  -9   1   6 4.72027 0.54934   2
  -9   1   6 5.77369 0.64349   3
   9   1  -6 4.66888 0.44635   1
  -8  -1   6 0.39018 0.62931   2
  -8  -1   6 1.07769 0.53353   3
   8  -1  -6 0.23522 0.54630   3
   8  -1  -6 0.21770 0.09711   1
   8  -1  -6 0.28785 0.09338   1
  -8  -1   6 0.45140 0.10529   1
  -8   1   6 0.17475 0.09354   1
  -8   1   6 0.77749 0.42151   2
  -8   1   6 0.75550 0.45857   3
  -8   1   6 0.36591 0.11969   1
   8   1  -6 0.60393 0.40140   2
   8   1  -6 0.57384 0.57392   3
  -7  -1   6 225.658 21.0080   1
  -7  -1   6 219.691 13.1497   3
  -7  -1   6 204.567 19.0577   1
   7  -1  -6 211.398 19.6811   1
   7  -1  -6 204.375 19.0298   1
   7  -1  -6 211.241 12.6505   3
   7  -1  -6 197.835 11.4570   2
  -7  -1   6 218.051 12.6490   2
   7   1  -6 187.515 17.4664   1
   7   1  -6 215.855 12.9280   3
  -7   1   6 206.585 12.3955   3
   7   1  -6 226.127 21.0490   1
   7   1  -6 209.560 12.1343   2
   6  -1  -6 38.3452 3.57736   1
   6  -1  -6 36.0392 2.24722   3
   6  -1  -6 38.0979 3.54772   1
  -6  -1   6 33.7292 2.08536   3
  -6  -1   6 36.3036 3.38576   1
   6  -1  -6 32.8077 1.96365   2
  -6  -1   6 34.0188 3.17215   1
  -6  -1   6 40.3031 2.46526   2
   6   1  -6 35.6043 3.31693   1
   6   1  -6 32.6891 3.04678   1
  -6   1   6 36.2971 2.26936   3
   6   1  -6 35.1085 2.08736   2
   6   1  -6 36.5448 2.24776   3
  -5  -1   6 196.518 18.2982   1
   5  -1  -6 166.913 9.68127   2
   5  -1  -6 188.842 17.5810   1
   5  -1  -6 177.799 16.5577   1
  -5  -1   6 198.274 18.4570   1
  -5  -1   6 227.173 13.1451   2
  -5  -1   6 192.632 11.5291   3
  -5   1   6 181.227 10.8504   3
  -5   1   6 178.399 16.6075   1
   5   1  -6 180.462 10.8072   3
  -5   1   6 184.598 17.1850   1
   5   1  -6 193.694 18.0393   1
  -5   1   6 179.160 10.3644   2
   5   1  -6 172.799 10.0173   2
   5   1  -6 194.187 18.0742   1
   4  -1  -6 777.451 46.4626   3
   4  -1  -6 778.754 72.5069   1
  -4  -1   6 744.603 69.3292   1
   4  -1  -6 732.344 68.1908   1
  -4  -1   6 791.781 47.3097   3
   4  -1  -6 652.000 37.6529   2
  -4  -1   6 771.679 71.8353   1
   4   1  -6 764.360 71.1692   1
  -4   1   6 703.798 65.5426   1
   4   1  -6 731.475 43.7181   3
   4   1  -6 781.818 72.7802   1
  -4   1   6 750.562 69.8846   1
   4   1  -6 641.782 37.0874   2
  -4   1   6 711.635 41.0947   2
   3  -1  -6 240.847 14.4132   3
  -3  -1   6 212.659 19.8093   1
  -3  -1   6 229.252 13.2841   2
   3  -1  -6 208.544 19.4105   1
  -3  -1   6 221.548 13.2520   3
  -3  -1   6 223.372 20.8067   1
   3  -1  -6 206.495 11.9427   2
   3  -1  -6 239.426 22.2958   1
   3   1  -6 194.064 11.2343   2
   3   1  -6 220.329 20.5166   1
  -3   1   6 229.971 21.4191   1
   3   1  -6 222.895 20.7508   1
  -3   1   6 204.930 19.0836   1
  -3   1   6 213.775 12.3660   2
  -3   1   6 228.680 13.6622   3
   2  -1  -6 1113.25 64.3041   2
  -2  -1   6 1137.24 65.6612   2
   2  -1  -6 1348.18 125.527   1
  -2  -1   6 1234.84 114.994   1
   2  -1  -6 1190.42 110.845   1
   2  -1  -6 1420.20 84.8160   3
  -2  -1   6 1235.93 115.073   1
  -2   1   6 1275.99 76.2152   3
   2   1  -6 1199.98 111.735   1
  -2   1   6 1262.38 117.540   1
  -2   1   6 1270.19 118.262   1
   2   1  -6 1091.15 63.0244   2
   2   1  -6 1279.27 119.121   1
  -1  -1   6 422.304 39.3082   1
  -1  -1   6 362.428 20.9605   2
   1  -1  -6 392.381 22.6678   2
  -1  -1   6 390.380 36.3574   1
   1  -1  -6 410.122 24.4990   3
  -1  -1   6 375.203 22.4345   3
   1  -1  -6 381.954 35.5498   1
   1  -1  -6 509.651 47.4456   1
   1   1  -6 430.799 40.1103   1
  -1   1   6 432.803 40.2905   1
  -1   1   6 382.465 22.0960   2
   1   1  -6 366.653 21.1945   2
   1   1  -6 383.178 22.8952   3
  -1   1   6 548.700 51.0769   1
   1   1  -6 391.040 36.4035   1
  -1   1   6 352.484 21.0769   3
   0  -1   6 772.977 71.9716   1
   0  -1   6 698.278 40.3520   2
   0  -1   6 681.609 40.7403   3
   0  -1  -6 906.971 84.4251   1
   0  -1   6 817.022 76.0615   1
   0  -1  -6 772.558 46.1641   3
   0  -1  -6 839.309 48.4458   2
   0  -1  -6 1042.59 97.0569   1
   0   1  -6 777.335 72.3624   1
   0   1   6 893.735 83.2056   1
   0   1  -6 740.803 44.2687   3
   0   1  -6 705.345 40.7659   2
   0   1   6 875.320 81.4916   1
   0   1  -6 792.422 73.7995   1
  -1  -1  -6 65.4661 3.79886   2
   1  -1   6 64.0114 3.73159   2
   1  -1   6 51.6380 3.11232   3
  -1  -1  -6 80.0734 7.45550   1
   1  -1   6 66.3918 6.18752   1
   1  -1   6 63.4254 5.90508   1
   1   1   6 78.3636 7.30076   1
  -1   1  -6 58.1643 5.42035   1
  -1   1  -6 64.8358 6.03559   1
   1   1   6 74.1037 6.89850   1
  -1   1  -6 58.1613 3.48874   3
  -1   1  -6 58.0882 3.39116   2
  -2  -1  -6 1.38762 0.13763   1
  -2  -1  -6 1.50416 0.22732   2
   2  -1   6 1.47299 0.15846   1
   2  -1   6 1.10429 0.12605   1
  -2  -1  -6 2.06562 0.19851   1
   2  -1   6 1.24279 0.29170   2
   2  -1   6 1.68413 0.21662   3
  -2   1  -6 1.02342 0.12772   1
  -2   1  -6 1.15422 0.29258   2
   2   1   6 1.42212 0.14798   1
  -2   1  -6 1.38011 0.19598   3
   2   1   6 1.50607 0.14937   1
  -2   1  -6 1.61994 0.16368   1
   3  -1   6 62.8385 3.77642   3
  -3  -1  -6 64.2647 3.74511   2
   3  -1   6 65.0353 6.05462   1
   3  -1   6 69.9775 6.51620   1
  -3  -1  -6 67.8459 6.31864   1
  -3  -1  -6 64.8114 6.03900   1
   3  -1   6 65.6457 3.83910   2
  -3   1  -6 69.4674 4.06608   2
  -3   1  -6 67.7908 6.31706   1
   3   1   6 77.1375 7.18524   1
  -3   1  -6 62.8935 5.85899   1
   3   1   6 67.3076 6.26714   1
   3   1   6 68.1057 3.97239   2
  -3   1  -6 74.1350 4.44721   3
   4  -1   6 194.589 11.6630   3
  -4  -1  -6 197.091 18.3422   1
  -4  -1  -6 204.148 11.8210   2
   4  -1   6 197.182 18.3556   1
   4  -1   6 200.983 18.7063   1
   4  -1   6 203.860 11.8082   2
   4   1   6 209.282 19.4911   1
   4   1   6 239.594 22.2997   1
  -4   1  -6 172.489 10.3338   3
  -4   1  -6 202.560 18.8568   1
   4   1   6 212.223 12.2837   2
  -4   1  -6 190.089 17.7006   1
  -4   1  -6 193.337 11.1980   2
   5  -1   6 107.548 10.0164   1
   5  -1   6 106.174 6.17722   2
  -5  -1  -6 104.369 9.71587   1
   5  -1   6 114.823 10.6949   1
  -5  -1  -6 117.414 10.9276   1
  -5  -1  -6 97.9219 5.70898   2
   5   1   6 122.587 11.4143   1
  -5   1  -6 107.993 6.30512   2
   5   1   6 110.043 10.2483   1
   5   1   6 101.567 5.90524   2
  -5   1  -6 89.4476 5.37496   3
   6  -1   6 222.326 20.6992   1
   6  -1   6 221.065 12.8263   2
  -6  -1  -6 213.633 19.8945   1
   6  -1   6 214.035 19.9241   1
  -6  -1  -6 212.633 19.8092   1
  -6  -1  -6 195.854 11.3517   2
   6   1   6 210.651 19.6211   1
  -6   1  -6 209.803 19.5435   1
  -6   1  -6 215.604 12.9215   3
   6   1   6 219.281 20.4249   1
   6   1   6 196.487 11.3794   2
  -7  -1  -6 192.594 11.1676   2
   7  -1   6 171.855 9.96723   2
  -7  -1  -6 151.646 8.83461   2
  -7  -1  -6 171.470 15.9630   1
  -7  -1  -6 144.426 13.4527   1
  -7  -1  -6 181.770 16.9276   1
   7   1   6 175.122 10.1704   2
  -7   1  -6 164.363 15.3107   1
   7   1   6 171.423 15.9662   1
  -7   1  -6 155.521 14.4849   1
   7   1   6 167.222 15.5772   1
   8  -1   6 65.5636 6.10361   1
  -8  -1  -6 76.1029 4.46681   2
   8  -1   6 65.9820 6.14819   1
   8   1   6 65.9482 6.14713   1
   8   1   6 71.6835 4.19643   2
   8   1   6 79.8224 7.43212   1
  -8   1  -6 63.3253 5.90152   1
  -8   1  -6 67.4551 4.10704   3
  -8   1  -6 61.4982 5.73428   1
  -9  -1  -6 166.555 9.69239   2
   9   1   6 169.496 9.86445   2
  -9   1  -6 174.604 10.1461   2
  -9   1  -6 164.364 9.87090   3
  10  -1   6 67.4225 3.99410   2
 -10   1  -6 70.4504 4.30209   3
 -10   1  -6 67.4650 4.01777   2
  11  -1   6 78.8366 4.65388   2
 -11   1  -6 79.3069 4.69613   2
  11   1   6 83.2932 4.91550   2
  12  -1   6 36.2707 2.21949   2
 -12  -1  -6 33.0750 2.09096   2
 -12   1  -6 37.8178 2.34546   2
 -13  -1  -6 0.95405 0.64339   2
  13  -1   6 -0.4507 0.54520   2
 -13   1  -6 1.07419 0.60615   2
  13   1   6 1.19346 0.67399   2
 -14  -1  -6 11.3287 1.05249   2
  14   1   6 11.6270 1.05348   2
 -14   1  -6 12.6853 1.12864   2
  15  -1   6 0.84510 0.62203   2
 -15  -1  -6 0.13811 0.79558   2
  15   1   6 0.20309 0.72791   2
 -15   1  -6 0.85483 0.82512   2
 -16  -1  -6 20.1234 1.52610   2
  16  -1   6 23.6024 1.59355   2
  16   1   6 20.2917 1.45662   2
 -16   1  -6 23.3496 1.61531   2
  17  -1   6 7.95621 0.87469   2
 -17   1  -6 8.38271 0.98478   2
  18  -1   6 16.8632 1.31619   2
  21  -2  -6 0.00000 0.64959   2
  21  -2  -6 0.17049 0.91104   3
 -21   2   6 0.87569 0.88082   3
 -21   2   6 1.43823 0.72805   2
  21   2  -6 0.97480 0.80963   2
 -20  -2   6 6.41551 1.14780   3
  20  -2  -6 5.16234 0.90125   3
  20  -2  -6 5.01011 0.70599   2
 -20   2   6 5.23825 0.85909   3
  20   2  -6 5.66658 0.91782   2
 -20   2   6 5.07411 0.84878   2
  15  -2  -6 15.0315 1.25522   3
 -15  -2   6 13.7596 1.11794   3
  15   2  -6 14.9511 1.25229   3
  15   2  -6 16.5194 1.31080   2
 -15   2   6 14.5352 1.09847   2
  13  -2  -6 11.1082 0.85217   2
  13  -2  -6 9.47516 0.97700   3
 -13  -2   6 9.58048 0.89706   3
 -13   2   6 10.6193 0.90346   3
  13   2  -6 9.21137 0.83783   2
 -13   2   6 10.8764 0.99070   3
  13   2  -6 9.18253 0.94965   3
  12  -2  -6 7.30861 0.80150   3
 -12  -2   6 4.90807 0.68701   3
  12  -2  -6 6.57511 0.64671   2
  12   2  -6 5.50491 0.61848   2
 -12   2   6 6.70280 0.67637   2
 -12   2   6 7.50700 0.85262   3
  11  -2  -6 90.6540 5.51940   3
  11  -2  -6 80.5464 7.50061   1
 -11  -2   6 85.0040 7.92223   1
  11  -2  -6 77.8864 7.26012   1
 -11  -2   6 86.8681 8.09180   1
  11   2  -6 77.7116 7.23792   1
  11   2  -6 88.6600 5.40011   3
 -11   2   6 83.1992 7.75265   1
  11   2  -6 85.3519 7.94754   1
 -11   2   6 88.6887 5.38328   3
 -11   2   6 85.5696 7.97284   1
  10  -2  -6 8.23247 0.67426   2
  10  -2  -6 7.33538 0.77962   3
 -10  -2   6 6.51779 0.61377   1
 -10  -2   6 7.57105 0.71308   1
 -10  -2   6 7.51349 0.75465   3
  10  -2  -6 7.15252 0.67273   1
  10  -2  -6 7.93915 0.75296   1
  10   2  -6 8.46465 0.76686   2
 -10   2   6 6.85416 0.64445   1
  10   2  -6 8.06339 0.79882   3
 -10   2   6 6.76923 0.64382   1
 -10   2   6 6.88811 0.65962   2
  10   2  -6 8.96251 0.83991   1
  10   2  -6 7.41473 0.69735   1
 -10   2   6 7.48244 0.79140   3
   9  -2  -6 2.53051 0.25969   1
   9  -2  -6 2.34393 0.24312   1
  -9  -2   6 3.45549 0.55147   3
   9  -2  -6 2.72784 0.51847   3
   9  -2  -6 3.57725 0.49258   2
  -9  -2   6 2.34829 0.23994   1
  -9  -2   6 3.73145 0.36412   1
   9   2  -6 3.08361 0.30849   1
   9   2  -6 2.99537 0.60185   3
  -9   2   6 2.49678 0.56645   3
   9   2  -6 3.37125 0.33260   1
  -9   2   6 3.33597 0.32244   1
  -9   2   6 3.38832 0.55775   2
   9   2  -6 2.95783 0.49060   2
  -9   2   6 3.93545 0.38665   1
  -8  -2   6 32.5056 3.02758   1
   8  -2  -6 28.6623 1.85157   3
   8  -2  -6 32.9135 3.06854   1
  -8  -2   6 31.9883 2.02417   3
   8  -2  -6 29.6240 1.79272   2
   8   2  -6 28.3956 2.65149   1
  -8   2   6 30.4411 2.83692   1
   8   2  -6 31.8650 2.02321   3
  -8   2   6 31.4057 1.97654   3
  -8   2   6 31.2967 1.90773   2
   7  -2  -6 7.04720 0.65877   1
  -7  -2   6 8.73928 0.82305   1
   7  -2  -6 8.23169 0.77345   1
  -7  -2   6 6.13648 0.58402   3
   7  -2  -6 8.14447 0.69384   3
   7  -2  -6 7.66371 0.59784   2
  -7  -2   6 6.48315 0.60618   1
  -7   2   6 6.27923 0.59050   1
  -7   2   6 8.40858 0.79627   1
  -7   2   6 7.98721 0.62795   2
  -7   2   6 8.14539 0.71959   3
   7   2  -6 7.72621 0.65648   3
   6  -2  -6 26.3844 2.45515   1
  -6  -2   6 27.6586 2.58138   1
  -6  -2   6 23.7555 2.21603   1
  -6  -2   6 24.4369 1.55703   3
   6  -2  -6 21.9989 2.05454   1
   6  -2  -6 23.9901 1.45720   2
  -6   2   6 25.7728 2.40762   1
  -6   2   6 23.4445 1.42696   2
  -6   2   6 23.3079 1.50923   3
   6   2  -6 24.7449 1.57816   3
  -6   2   6 20.8133 1.93914   1
   6   2  -6 26.7262 2.49621   1
   6   2  -6 28.3949 1.73578   2
   5  -2  -6 42.8269 2.52362   2
  -5  -2   6 43.6260 2.67655   3
   5  -2  -6 49.8738 4.64613   1
   5  -2  -6 44.1824 2.70626   3
   5  -2  -6 40.3511 3.75765   1
   5   2  -6 44.6350 4.16041   1
  -5   2   6 45.5764 4.24165   1
  -5   2   6 43.5378 2.56267   2
   5   2  -6 43.9481 2.58913   2
   5   2  -6 44.5890 4.15044   1
   5   2  -6 46.1175 2.81424   3
  -5   2   6 37.7533 3.51906   1
   4  -2  -6 85.0606 7.91697   1
   4  -2  -6 100.963 6.07339   3
   4  -2  -6 91.3734 5.29461   2
  -4  -2   6 92.6793 5.57019   3
   4  -2  -6 103.301 9.61968   1
  -4   2   6 73.6867 6.86162   1
   4   2  -6 89.0449 5.19343   2
   4   2  -6 94.1665 5.65656   3
   4   2  -6 92.8737 8.65155   1
  -4   2   6 102.168 9.51886   1
   4   2  -6 94.2544 8.77886   1
  -4   2   6 98.3866 5.91685   3
  -3  -2   6 4.19534 0.44410   2
  -3  -2   6 4.13656 0.39348   1
   3  -2  -6 3.70226 0.33052   2
  -3  -2   6 3.70293 0.40260   3
   3  -2  -6 3.17196 0.30342   1
   3  -2  -6 4.61601 0.43171   1
   3  -2  -6 3.38574 0.38559   3
  -3  -2   6 4.12306 0.39625   1
   3   2  -6 4.43751 0.44404   3
   3   2  -6 4.40020 0.41816   1
   3   2  -6 4.36040 0.40762   1
   3   2  -6 4.68481 0.44347   2
  -3   2   6 4.26980 0.40699   1
  -3   2   6 3.91499 0.40802   3
   2  -2  -6 16.2779 1.02715   3
   2  -2  -6 16.7999 1.56819   1
  -2  -2   6 17.0689 1.06391   2
  -2  -2   6 17.3750 1.61584   1
  -2  -2   6 17.5422 1.12671   3
  -2  -2   6 16.3471 1.52796   1
  -2   2   6 15.1329 1.41137   1
  -2   2   6 17.2977 1.09755   3
   2   2  -6 17.1248 1.59583   1
   2   2  -6 16.2619 1.51937   1
   2   2  -6 16.2927 1.03870   2
  -1  -2   6 8.77076 0.81952   1
  -1  -2   6 7.96125 0.74657   1
  -1  -2   6 9.31155 0.64694   2
  -1  -2   6 9.95028 0.72718   3
   1  -2  -6 8.13128 0.56605   3
   1   2  -6 8.11049 0.76343   1
   1   2  -6 8.04778 0.60068   2
  -1   2   6 7.75531 0.51871   3
  -1   2   6 12.3368 1.14449   1
   1   2  -6 8.45911 0.79683   1
   1   2  -6 7.88565 0.55564   3
   0  -2   6 31.5897 2.94723   1
   0  -2  -6 31.3067 1.90337   3
   0  -2   6 33.5911 3.12524   1
   0  -2   6 34.6927 2.06053   2
   0   2  -6 33.4513 2.00608   2
   0   2  -6 31.6453 2.95399   1
   0   2  -6 37.8050 3.52142   1
   0   2  -6 33.4070 2.04250   3
   1  -2   6 2.17431 0.21401   1
   1  -2   6 1.81578 0.33037   2
  -1  -2  -6 1.65845 0.20798   3
   1  -2   6 1.86083 0.24675   3
  -1   2  -6 2.20011 0.21414   1
  -1   2  -6 1.20230 0.33250   2
  -1   2  -6 2.62233 0.31791   3
  -2  -2  -6 288.872 26.9004   1
   2  -2   6 312.010 29.0507   1
   2  -2   6 365.946 21.1537   2
  -2  -2  -6 299.513 17.9070   3
   2  -2   6 319.661 29.7660   1
  -2   2  -6 359.174 20.7743   2
  -2   2  -6 293.662 17.5700   3
  -2   2  -6 284.530 26.4893   1
  -2   2  -6 361.383 33.6449   1
   3  -2   6 3.38680 0.32316   3
   3  -2   6 3.03280 0.28809   1
   3  -2   6 4.03254 0.40771   2
   3  -2   6 3.32987 0.31860   1
  -3   2  -6 3.38214 0.32207   1
  -3   2  -6 3.18476 0.31174   1
   3   2   6 4.89295 0.45964   1
  -3   2  -6 3.33997 0.42477   2
  -3   2  -6 3.89507 0.34700   3
   4  -2   6 5.71312 0.54235   1
  -4  -2  -6 4.29055 0.40174   1
   4  -2   6 4.40462 0.38092   3
  -4  -2  -6 5.57970 0.52745   1
   4  -2   6 5.00142 0.48721   2
   4  -2   6 5.21880 0.49572   1
  -4   2  -6 4.92152 0.50368   2
  -4   2  -6 4.94891 0.46764   1
  -4   2  -6 4.00451 0.37871   1
  -4   2  -6 4.34063 0.40676   3
   5  -2   6 78.6175 7.32523   1
  -5  -2  -6 109.456 10.1882   1
   5  -2   6 77.7566 7.23908   1
  -5  -2  -6 76.6465 7.13555   1
   5  -2   6 84.1775 4.92024   2
   5  -2   6 81.6645 4.93447   3
  -5   2  -6 80.6167 4.72682   2
  -5   2  -6 80.7430 4.85701   3
  -5   2  -6 72.8451 6.78828   1
  -5   2  -6 82.5470 7.68600   1
   5   2   6 97.6144 9.08621   1
  -6  -2  -6 25.7576 1.54435   2
   6  -2   6 34.7435 2.13899   3
   6  -2   6 31.6960 2.95659   1
   6  -2   6 34.1551 2.05404   2
   6  -2   6 31.6208 2.94315   1
  -6  -2  -6 41.0444 3.82776   1
   6   2   6 38.3748 3.57090   1
  -6   2  -6 31.4419 2.93316   1
  -6   2  -6 35.2414 3.28488   1
  -6   2  -6 34.3390 2.09959   2
  -6   2  -6 34.0982 2.10106   3
   6   2   6 27.3822 2.54834   1
  -7  -2  -6 3.74292 0.36560   1
   7  -2   6 2.55206 0.46290   2
   7  -2   6 2.75480 0.43306   3
  -7  -2  -6 2.90870 0.44321   2
  -7  -2  -6 3.68256 0.36270   1
   7  -2   6 2.96786 0.29191   1
   7   2   6 2.28949 0.22988   1
  -7   2  -6 2.94769 0.48141   2
  -7   2  -6 3.56856 0.34970   1
  -7   2  -6 2.63353 0.44383   3
  -7   2  -6 1.90212 0.20502   1
   8  -2   6 2.18275 0.45480   2
  -8  -2  -6 1.53146 0.50793   2
   8  -2   6 1.57031 0.53158   3
   8   2   6 0.88951 0.14672   1
   8   2   6 1.39087 0.16016   1
  -8   2  -6 2.00549 0.49887   2
   9  -2   6 9.47612 0.75275   2
  -9   2  -6 8.72845 0.74577   3
  -9   2  -6 10.1910 0.83567   2
 -10  -2  -6 0.74263 0.56146   2
  10  -2   6 1.01453 0.47815   2
 -10   2  -6 0.38700 0.52453   2
  11  -2   6 12.8916 0.93751   2
 -11  -2  -6 9.53458 0.88291   2
  11  -2   6 11.1567 0.96244   3
 -11   2  -6 11.3132 0.99889   3
 -11   2  -6 13.5437 1.03073   2
  12  -2   6 2.40477 0.54891   2
 -12   2  -6 1.89476 0.65754   2
 -12   2  -6 1.72326 0.75837   3
  13  -2   6 0.04579 0.55390   2
  14  -2   6 9.55814 0.86732   2
 -14   2  -6 9.73130 0.92243   2
 -15   2  -6 3.16958 0.65302   2
  16  -2   6 0.42925 0.62466   2
 -16   2  -6 0.71670 0.67087   2
  17  -2   6 -0.5458 0.65494   2
 -17   2  -6 0.26699 0.76897   2
  18  -2   6 -0.3628 0.65307   2
 -21   3   6 8.72341 0.94125   2
  20  -3  -6 1.58244 0.95470   3
  20  -3  -6 -0.2825 0.62592   2
 -20   3   6 1.13031 0.83802   3
 -20   3   6 0.51952 0.67334   2
  19  -3  -6 6.69891 0.99243   3
 -19  -3   6 7.15001 0.95023   3
  19  -3  -6 7.63543 0.78856   2
  19   3  -6 6.63161 0.91111   2
 -19   3   6 8.30659 0.89059   2
 -19   3   6 7.77878 0.98984   3
  18  -3  -6 -0.1042 0.86000   3
  18  -3  -6 1.04821 0.56684   2
 -18  -3   6 3.58722 1.38809   2
  18   3  -6 -0.7069 0.76353   2
  18   3  -6 0.69018 0.87613   3
 -18   3   6 -0.1671 0.76140   3
 -18   3   6 1.86753 0.65271   2
  17  -3  -6 31.1953 1.99117   2
 -17  -3   6 30.6313 2.05427   3
 -17   3   6 29.5961 1.92104   2
 -17   3   6 29.7401 2.02081   3
  17   3  -6 29.6389 2.06498   3
  16  -3  -6 43.8844 2.82942   3
 -16  -3   6 48.8442 3.11024   3
  16  -3  -6 47.9728 2.91340   2
  16   3  -6 45.7488 2.97759   3
  16   3  -6 44.8539 2.78133   2
 -16   3   6 46.4913 2.83834   2
  15  -3  -6 75.8444 4.49602   2
  15  -3  -6 79.0198 4.86885   3
 -15  -3   6 73.9105 4.55375   3
 -15   3   6 75.8312 4.50889   2
  15   3  -6 74.4463 4.63401   3
 -15   3   6 78.0277 4.80724   3
  15   3  -6 76.5635 4.57295   2
  14  -3  -6 168.165 9.79379   2
 -14  -3   6 164.463 9.92817   3
  14  -3  -6 171.070 10.3303   3
  14   3  -6 185.880 10.8368   2
 -14   3   6 170.519 10.2823   3
  14   3  -6 170.473 10.3006   3
 -14   3   6 172.318 10.0490   2
 -13  -3   6 50.5077 3.17383   3
  13  -3  -6 49.8488 2.99094   2
  13  -3  -6 46.8986 2.96216   3
  13   3  -6 48.2126 2.94635   2
  13   3  -6 47.7172 3.00894   3
 -13   3   6 49.7297 3.02854   2
 -13   3   6 48.0432 3.02767   3
  12  -3  -6 140.348 8.19168   2
 -12  -3   6 138.785 8.38289   3
  12  -3  -6 160.495 9.69456   3
  12   3  -6 140.098 8.19233   2
 -12   3   6 138.574 8.38413   3
  12   3  -6 148.086 8.95287   3
 -12   3   6 145.041 8.46979   2
  11  -3  -6 135.471 8.18395   3
 -11  -3   6 125.022 7.54278   3
  11   3  -6 132.790 7.76610   2
 -11   3   6 136.894 7.98541   2
 -11   3   6 130.931 7.91269   3
  10  -3  -6 19.9878 1.37130   3
  10  -3  -6 22.9244 1.45604   2
 -10   3   6 19.2979 1.35764   3
 -10   3   6 21.8798 1.43489   2
 -10   3   6 16.1529 1.51045   1
  10   3  -6 22.4189 1.52558   3
  -9  -3   6 43.5055 2.70692   3
   9  -3  -6 50.6644 4.72578   1
   9  -3  -6 39.8834 3.71521   1
   9  -3  -6 44.5446 2.65078   2
  -9  -3   6 39.1840 3.65144   1
   9  -3  -6 42.9889 2.67402   3
  -9   3   6 45.7137 2.85445   3
  -9   3   6 43.1240 4.01614   1
  -9   3   6 39.0065 3.63580   1
  -9   3   6 47.7590 2.87275   2
   9   3  -6 39.3115 3.67123   1
   9   3  -6 44.8714 2.78687   3
  -8  -3   6 27.0403 2.52123   1
   8  -3  -6 29.4226 1.90200   3
   8  -3  -6 26.1669 2.44226   1
   8  -3  -6 32.0463 2.98411   1
  -8  -3   6 26.8486 2.49912   1
   8  -3  -6 29.3357 1.79786   2
  -8   3   6 30.6253 1.88287   2
  -8   3   6 28.8130 2.68633   1
   8   3  -6 25.7763 1.59157   2
  -8   3   6 26.5458 2.47702   1
   8   3  -6 24.3509 2.26845   1
  -8   3   6 26.9490 1.76216   3
   8   3  -6 27.0100 2.51484   1
   7  -3  -6 49.5740 4.61594   1
  -7  -3   6 52.2506 3.18861   3
  -7  -3   6 45.4154 4.23299   1
   7  -3  -6 51.8956 3.05442   2
   7  -3  -6 44.3571 4.13162   1
   7   3  -6 46.6283 2.77413   2
  -7   3   6 52.5299 4.89445   1
  -7   3   6 51.2136 4.76723   1
   7   3  -6 51.4897 3.14240   3
  -7   3   6 55.0840 3.38136   3
   7   3  -6 50.5848 4.71068   1
  -7   3   6 53.9102 3.19932   2
   7   3  -6 45.0630 4.19709   1
   6  -3  -6 160.248 9.63642   3
   6  -3  -6 157.318 9.11638   2
  -6  -3   6 152.668 14.2191   1
  -6  -3   6 160.075 9.61544   3
  -6  -3   6 138.521 12.8973   1
   6   3  -6 147.591 13.7463   1
   6   3  -6 144.321 8.38701   2
  -6   3   6 167.979 15.6380   1
   6   3  -6 157.416 14.6582   1
  -6   3   6 174.196 10.1180   2
   6   3  -6 148.562 8.92919   3
  -6   3   6 165.245 15.3859   1
  -5  -3   6 314.906 29.3318   1
  -5  -3   6 306.703 18.3606   3
  -5  -3   6 317.412 29.5673   1
   5  -3  -6 311.472 18.6553   3
  -5   3   6 319.039 29.7135   1
  -5   3   6 324.975 19.4527   3
   5   3  -6 342.206 20.4873   3
   5   3  -6 293.550 27.3324   1
  -5   3   6 357.009 33.2384   1
   5   3  -6 307.532 17.7938   2
   5   3  -6 318.118 29.6225   1
  -4  -3   6 389.090 23.2868   3
  -4  -3   6 431.707 40.1888   1
   4  -3  -6 431.633 40.1866   1
  -4  -3   6 404.129 37.6214   1
   4  -3  -6 419.878 25.1182   3
  -4  -3   6 412.858 23.8557   2
   4  -3  -6 354.441 20.4905   2
  -4   3   6 414.099 24.7585   3
   4   3  -6 407.134 37.9152   1
  -4   3   6 440.320 40.9923   1
   4   3  -6 430.013 40.0391   1
   4   3  -6 395.601 22.8727   2
   4   3  -6 371.277 22.2267   3
   3  -3  -6 646.169 60.1568   1
  -3  -3   6 504.350 30.1746   3
  -3  -3   6 496.382 46.2286   1
   3  -3  -6 518.269 30.9761   3
  -3  -3   6 648.997 60.4368   1
  -3  -3   6 565.057 32.6449   2
  -3   3   6 497.450 29.7466   3
   3   3  -6 516.903 29.8682   2
   3   3  -6 500.328 46.6089   1
   3   3  -6 516.676 30.8879   3
  -2  -3   6 275.357 15.9180   2
   2  -3  -6 339.027 31.5483   1
  -2  -3   6 246.536 22.9659   1
   2  -3  -6 260.459 15.5927   3
  -2  -3   6 240.438 22.3923   1
  -2  -3   6 282.573 16.9116   3
  -2   3   6 222.151 13.3000   3
   2   3  -6 215.304 12.4906   2
   2   3  -6 245.588 22.8710   1
   2   3  -6 248.356 23.1199   1
   2   3  -6 256.057 15.3302   3
  -1  -3   6 437.531 40.7348   1
  -1  -3   6 434.129 25.9503   3
   1  -3  -6 438.530 26.2297   3
  -1  -3   6 422.758 39.3747   1
  -1  -3   6 451.336 26.0963   2
   1   3  -6 435.458 26.0496   3
   1   3  -6 432.709 40.2874   1
   1   3  -6 431.212 40.1471   1
  -1   3   6 456.636 27.2972   3
   0  -3   6 124.577 11.6001   1
   0  -3   6 118.650 6.90945   2
   0  -3   6 110.148 6.62360   3
   0  -3  -6 110.156 6.62024   3
   0  -3   6 108.055 10.0684   1
   0   3   6 112.094 6.71618   3
  -1  -3  -6 77.1816 4.63471   3
   1  -3   6 75.2387 7.00453   1
  -1   3  -6 75.1714 4.41613   2
  -1   3  -6 78.9310 4.76436   3
   1   3   6 73.4535 4.41510   3
   2  -3   6 18.9239 1.76488   1
  -2   3  -6 17.5504 1.12365   2
  -2   3  -6 18.1358 1.69474   1
  -2   3  -6 19.3256 1.21870   3
  -3  -3  -6 22.0450 1.37076   3
   3  -3   6 19.4369 1.24147   2
   3  -3   6 21.0454 1.34132   3
  -3   3  -6 19.1487 1.78962   1
  -3   3  -6 19.3555 1.24458   3
  -3   3  -6 19.5481 1.23825   2
  -3   3  -6 20.4549 1.90570   1
   4  -3   6 1.40926 0.36915   3
   4  -3   6 0.65336 0.37636   2
  -4  -3  -6 0.85960 0.29273   3
  -4   3  -6 0.52586 0.42145   2
  -4   3  -6 0.70145 0.10178   1
  -4   3  -6 0.42840 0.32248   3
  -5  -3  -6 218.079 20.3035   1
   5  -3   6 224.686 13.0157   2
   5  -3   6 224.734 20.9296   1
   5  -3   6 226.530 21.0990   1
  -5  -3  -6 276.155 25.7033   1
   5  -3   6 219.126 13.1355   3
  -5   3  -6 216.305 20.1526   1
  -5   3  -6 222.599 20.7296   1
  -5   3  -6 229.621 13.3207   2
  -5   3  -6 232.256 13.9096   3
  -6  -3  -6 146.960 13.6830   1
  -6  -3  -6 232.857 21.6743   1
   6  -3   6 161.154 9.68847   3
   6  -3   6 165.682 9.64042   2
   6   3   6 146.293 13.6215   1
  -6   3  -6 165.942 9.64550   2
  -6   3  -6 170.045 10.2037   3
   7  -3   6 89.2661 5.22432   2
   7  -3   6 102.202 6.17672   3
  -7   3  -6 91.8375 5.38212   2
  -7   3  -6 106.379 6.42820   3
   8  -3   6 287.118 17.2235   3
   8  -3   6 245.743 14.2515   2
  -8   3  -6 256.472 15.3871   3
  -8   3  -6 234.042 13.5924   2
   9  -3   6 90.7054 5.51094   3
   9  -3   6 82.2750 4.83559   2
  -9   3  -6 82.4889 4.86356   2
  10  -3   6 103.765 6.07584   2
 -10   3  -6 105.459 6.19391   2
 -10   3  -6 102.753 6.22999   3
  11  -3   6 92.5474 5.64500   3
  11  -3   6 94.6714 5.56867   2
 -11   3  -6 85.9221 5.25363   3
 -11   3  -6 85.7920 5.06897   2
  12  -3   6 0.41840 0.59569   3
  12  -3   6 0.56216 0.51812   2
 -12   3  -6 0.80418 0.69119   3
 -12   3  -6 0.90055 0.59656   2
  13  -3   6 0.47525 0.54752   2
 -13   3  -6 1.30577 0.77574   3
 -13   3  -6 -0.9469 0.62336   2
  14  -3   6 1.32464 0.55958   2
 -14   3  -6 1.15158 0.59568   2
 -14   3  -6 2.10496 0.62429   2
  15  -3   6 3.26159 0.60136   2
 -15   3  -6 4.57937 0.67775   2
  16  -3   6 13.6995 1.04993   2
 -16   3  -6 13.2839 1.05969   2
  17  -3   6 13.9689 1.10014   2
 -17   3  -6 13.8735 1.12270   2
  19  -4  -6 20.0286 1.58791   3
  19  -4  -6 20.5247 1.41282   2
 -19   4   6 18.8654 1.38411   2
 -19   4   6 23.4247 1.66925   3
 -18  -4   6 35.7885 2.37859   3
  18  -4  -6 38.2515 2.37524   2
 -18   4   6 39.9663 2.49496   2
 -18   4   6 35.0707 2.31553   3
  17  -4  -6 23.2338 1.70436   3
  17  -4  -6 26.6528 1.73653   2
  17   4  -6 22.8144 1.73315   3
 -17   4   6 25.2674 1.68401   2
 -16  -4   6 1.04554 0.71891   3
  16  -4  -6 0.55197 0.58699   2
  16  -4  -6 -1.1407 0.84639   3
 -16   4   6 0.34337 0.69228   2
  16   4  -6 0.12758 0.87024   3
  16   4  -6 0.94506 0.82322   2
 -16   4   6 0.07808 0.83031   3
  15  -4  -6 14.2512 1.08415   2
 -15  -4   6 13.6673 1.14446   3
  15  -4  -6 11.3784 1.11313   3
  15   4  -6 13.7176 1.25392   3
 -15   4   6 12.8287 1.18192   3
 -15   4   6 14.1454 1.14725   2
  15   4  -6 16.8502 1.39875   2
 -13  -4   6 11.5313 1.01782   3
  13  -4  -6 10.7603 0.89720   2
  13  -4  -6 9.47978 0.95129   3
  13   4  -6 10.3103 0.91239   2
 -13   4   6 10.2821 0.98910   3
 -13   4   6 11.4190 1.00668   2
  13   4  -6 9.34442 1.01799   3
 -12  -4   6 21.1121 1.50490   3
  12  -4  -6 22.2453 1.56990   3
 -12   4   6 21.0212 1.50558   3
  12   4  -6 21.7705 1.57013   3
 -12   4   6 19.6660 1.36294   2
 -11  -4   6 129.727 7.83992   3
  11  -4  -6 120.653 7.30274   3
  11   4  -6 112.466 6.79719   3
 -11   4   6 130.973 7.66836   2
 -11   4   6 114.691 6.95131   3
  10  -4  -6 95.8308 5.82011   3
 -10  -4   6 96.4026 5.85573   3
  10  -4  -6 96.1304 5.64236   2
  10   4  -6 96.9425 5.68940   2
 -10   4   6 95.4500 5.79004   3
   9  -4  -6 153.326 9.22605   3
   9  -4  -6 159.055 9.26176   2
   9   4  -6 150.667 8.77164   2
   9   4  -6 156.954 9.42825   3
  -9   4   6 150.599 9.05972   3
   8  -4  -6 186.324 10.8273   2
  -8  -4   6 184.914 11.1181   3
  -8   4   6 191.188 11.4740   3
  -8   4   6 220.325 12.8029   2
   8   4  -6 195.187 11.7193   3
  -7  -4   6 176.961 10.6346   3
   7  -4  -6 167.648 9.74649   2
   7  -4  -6 166.451 10.0142   3
  -7   4   6 145.411 13.5406   1
   7   4  -6 175.885 10.5559   3
   6  -4  -6 214.946 12.8937   3
  -6  -4   6 226.348 13.5592   3
   6  -4  -6 206.524 11.9553   2
  -6  -4   6 242.534 14.0566   2
   6   4  -6 211.486 19.7045   1
   6   4  -6 254.262 14.7267   2
  -6   4   6 205.317 19.1158   1
  -6   4   6 224.775 13.4658   3
   6   4  -6 220.713 13.2284   3
  -6   4   6 173.857 16.1987   1
  -5  -4   6 38.6717 2.40261   3
  -5  -4   6 39.9074 3.72136   1
  -5  -4   6 45.2539 2.69158   2
   5  -4  -6 35.2094 3.27970   1
   5   4  -6 45.4360 2.71531   2
  -5   4   6 44.3385 4.12988   1
   5   4  -6 43.0600 4.01196   1
  -5   4   6 37.2822 3.47308   1
   5   4  -6 42.0325 2.59576   3
   4  -4  -6 46.0627 2.81499   3
  -4  -4   6 44.9075 2.77418   3
   4  -4  -6 44.3019 4.12598   1
  -4  -4   6 46.1223 2.75717   2
  -4  -4   6 46.8128 4.36321   1
  -4  -4   6 44.5002 4.14453   1
   4   4  -6 52.4342 3.12974   2
   4   4  -6 47.0798 4.39178   1
   4   4  -6 48.8124 2.98116   3
  -4   4   6 43.4074 2.65814   3
   4   4  -6 49.6868 4.63041   1
  -3  -4   6 1.04175 0.12998   1
   3  -4  -6 1.62112 0.17535   1
  -3  -4   6 -0.0649 0.42844   3
  -3  -4   6 1.46346 0.45765   2
   3  -4  -6 1.45071 0.41637   3
   3   4  -6 1.17885 0.13639   1
  -3   4   6 0.63961 0.43130   3
   3   4  -6 1.11977 0.41066   3
  -2  -4   6 15.6744 1.05397   3
   2  -4  -6 16.6846 1.12192   3
  -2  -4   6 18.7918 1.22007   2
  -2  -4   6 15.0029 1.40144   1
   2   4  -6 16.7090 1.11061   3
  -2   4   6 16.3405 1.05908   3
   2   4  -6 16.3272 1.51894   1
  -1  -4   6 51.1445 3.11409   3
   1  -4  -6 48.6279 2.96625   3
  -1  -4   6 51.5577 4.80094   1
   1   4  -6 54.8162 5.10615   1
   1   4  -6 55.6614 5.18811   1
   1   4  -6 54.1478 3.29374   3
  -1   4   6 51.9401 3.14994   3
   0  -4   6 140.869 8.45767   3
   0  -4   6 129.928 12.0999   1
   0  -4   6 137.674 7.99959   2
   0  -4  -6 137.318 8.24887   3
   0   4  -6 147.202 13.7087   1
   0   4   6 139.314 8.36795   3
   0   4  -6 146.107 8.77372   3
   0   4  -6 147.714 8.58726   2
   1  -4   6 126.179 7.34803   2
   1  -4   6 110.801 6.67591   3
   1  -4   6 110.782 10.3205   1
   1   4   6 136.779 8.22509   3
  -1   4  -6 132.538 12.3405   1
  -1   4  -6 119.892 7.00221   2
  -1   4  -6 109.402 10.1868   1
   2  -4   6 350.906 20.3132   2
  -2  -4  -6 344.866 20.6426   3
  -2   4  -6 360.498 21.5782   3
  -2   4  -6 397.302 22.9963   2
   3  -4   6 198.453 11.5113   2
   3  -4   6 185.607 11.1505   3
  -3  -4  -6 190.917 11.4457   3
  -3   4  -6 198.978 11.5670   2
   3   4   6 162.492 9.73419   3
  -3   4  -6 189.903 11.3816   3
   4  -4   6 132.273 7.96449   3
  -4  -4  -6 138.126 8.29530   3
   4  -4   6 130.858 7.64021   2
  -4   4  -6 128.157 7.70168   3
  -4   4  -6 137.270 8.00807   2
   5  -4   6 138.178 8.04072   2
   5  -4   6 136.886 8.23443   3
  -5   4  -6 140.633 8.18883   2
  -5   4  -6 150.986 9.07594   3
   6  -4   6 44.8866 2.78187   3
   6  -4   6 46.1662 2.75874   2
  -6   4  -6 49.3748 3.04367   3
   7  -4   6 72.0743 4.39986   3
   7  -4   6 68.6215 4.04298   2
  -7   4  -6 66.2913 4.03357   3
   8  -4   6 1.10162 0.55525   2
   8  -4   6 0.17657 0.58277   3
  -8   4  -6 0.98427 0.57958   2
  -8   4  -6 0.52865 0.50890   3
   9  -4   6 19.1255 1.37317   3
  -9   4  -6 18.2131 1.32104   3
  -9   4  -6 16.8564 1.17403   2
  10  -4   6 9.01583 0.90446   3
 -10   4  -6 7.68242 0.77465   2
 -11   4  -6 22.5389 1.57139   3
  12  -4   6 18.0900 1.40094   3
  12  -4   6 19.2818 1.29173   2
 -12   4  -6 19.3197 1.37055   2
  13  -4   6 32.4772 2.16285   3
  13  -4   6 39.1435 2.40389   2
 -13   4  -6 35.8513 2.37280   3
 -13   4  -6 41.2208 2.55651   2
  14  -4   6 49.4444 2.97781   2
 -14   4  -6 52.0349 3.17534   2
  15  -4   6 11.6757 0.94217   2
 -15   4  -6 10.8534 0.94224   2
  16  -4   6 6.46942 0.71607   2
 -16   4  -6 6.60161 0.75384   2
  18  -5  -6 0.27856 0.83581   3
  17  -5  -6 -0.2905 0.92971   3
 -17   5   6 0.78793 0.89481   3
  16  -5  -6 3.30922 0.79995   3
 -16   5   6 3.02332 0.80955   2
 -16   5   6 5.45937 0.93062   3
  16   5  -6 3.90875 0.88789   3
  15  -5  -6 3.95997 0.70766   2
 -15  -5   6 5.44163 0.86735   3
  15  -5  -6 4.58014 0.80532   3
 -15   5   6 3.55194 0.81993   3
  15   5  -6 2.95386 0.86116   3
 -15   5   6 5.20308 0.86350   2
 -14  -5   6 13.9204 1.18735   3
  14  -5  -6 10.7965 1.03957   3
 -14   5   6 12.5983 1.12465   3
  14   5  -6 11.4967 1.08502   3
 -14   5   6 14.1302 1.20004   2
 -13  -5   6 4.89490 0.84327   3
  13  -5  -6 3.72717 0.71160   2
  13  -5  -6 3.13239 0.77993   3
 -13   5   6 5.74511 0.85002   2
 -13   5   6 4.40042 0.81123   3
  13   5  -6 5.57903 0.92609   3
  12  -5  -6 4.27002 0.73933   2
  12  -5  -6 4.31808 0.71397   3
 -12  -5   6 4.73494 0.75927   3
 -12   5   6 4.97814 0.83388   2
  12   5  -6 3.80131 0.86713   3
 -12   5   6 3.66943 0.68173   3
 -11  -5   6 0.72794 0.62001   3
  11  -5  -6 0.37359 0.63293   2
  11  -5  -6 0.27250 0.62456   3
 -11   5   6 0.92851 0.71505   3
 -11   5   6 0.96521 0.60654   2
  11   5  -6 -0.6493 0.51024   3
  10  -5  -6 6.05455 0.78972   3
 -10  -5   6 6.71621 0.78203   3
 -10  -5   6 5.71418 0.71001   2
 -10   5   6 5.51602 0.76784   3
  10   5  -6 5.70188 0.70854   3
  -9  -5   6 8.39502 0.79675   2
  -9  -5   6 8.02227 0.78944   3
  -9   5   6 8.65506 0.80418   3
  -8  -5   6 14.1237 1.02135   2
   8  -5  -6 16.4628 1.20231   3
  -8  -5   6 14.5750 1.10953   3
   8   5  -6 14.3528 1.06893   2
   8   5  -6 15.4061 1.10983   3
   7  -5  -6 -0.6068 0.50068   3
  -7  -5   6 0.22880 0.47926   2
   7   5  -6 0.30625 0.50402   2
  -7   5   6 0.40548 0.56348   3
   7   5  -6 -0.5607 0.49350   3
   6  -5  -6 0.12733 0.49027   3
  -6  -5   6 0.04381 0.48198   3
  -6  -5   6 -0.0420 0.55655   2
   6   5  -6 -0.0655 0.45667   3
  -6   5   6 -0.1073 0.42504   3
  -5  -5   6 8.04416 0.78460   2
   5  -5  -6 7.01344 0.68131   3
  -5  -5   6 7.69646 0.67882   3
  -5   5   6 7.32018 0.68492   3
   5   5  -6 7.12864 0.64026   3
  -4  -5   6 16.1407 1.12020   2
   4  -5  -6 13.9037 1.00882   3
  -4  -5   6 13.8093 0.99365   3
   4   5  -6 14.6095 1.01466   3
  -4   5   6 13.9361 0.99923   3
   3  -5  -6 20.0068 1.32482   3
  -3  -5   6 21.7185 1.42724   3
   3   5  -6 18.6958 1.21621   2
   3   5  -6 20.4739 1.33070   3
  -2  -5   6 4.55716 0.51100   3
   2  -5  -6 5.64747 0.56946   3
   2   5  -6 5.07854 0.57446   2
  -2   5   6 5.48823 0.54069   3
   2   5  -6 6.56534 0.60783   3
  -1  -5   6 72.0077 4.23957   2
  -1  -5   6 70.4007 4.28110   3
   1  -5  -6 71.6877 4.35319   3
  -1   5   6 74.1150 4.50537   3
   1   5  -6 74.2020 4.49963   3
   1   5  -6 75.7742 4.45717   2
   0  -5   6 12.2048 0.89291   2
   0  -5   6 12.0744 0.87713   3
   0   5   6 11.7934 0.84179   3
   0   5  -6 11.9414 0.87522   3
   0   5  -6 11.8983 0.85944   2
   1  -5   6 0.20610 0.42211   2
   1  -5   6 0.14915 0.42195   3
  -1  -5  -6 -0.1025 0.38348   3
  -1   5  -6 -0.1296 0.40403   3
  -1   5  -6 0.02243 0.38768   2
   2  -5   6 24.9961 1.60477   2
  -2  -5  -6 20.9523 1.36766   3
   2  -5   6 21.3875 1.41066   3
  -2   5  -6 24.2298 1.56735   2
  -3  -5  -6 1.32438 0.43258   3
   3  -5   6 1.85325 0.45947   2
  -3   5  -6 1.12367 0.47557   2
   3   5   6 1.28124 0.39286   3
  -3   5  -6 1.01932 0.44859   3
   4  -5   6 0.16680 0.46668   2
  -4  -5  -6 0.85081 0.45660   3
   4  -5   6 0.96233 0.46781   3
  -4   5  -6 0.04558 0.45133   3
  -4   5  -6 0.64688 0.50571   2
   5  -5   6 8.37330 0.74066   3
   5  -5   6 8.85748 0.75452   2
  -5   5  -6 9.37004 0.77814   3
  -5   5  -6 8.57440 0.78877   2
   6  -5   6 1.36751 0.60394   2
   6  -5   6 1.53315 0.51336   3
  -6   5  -6 0.93329 0.60318   2
  -6   5  -6 0.68533 0.55941   3
   7  -5   6 2.66499 0.55590   2
   7  -5   6 3.14889 0.64513   3
  -7   5  -6 1.97821 0.59573   2
  -7   5  -6 2.86389 0.58354   3
   8  -5   6 5.01888 0.76095   3
   8  -5   6 5.21779 0.62479   2
  -8   5  -6 5.13592 0.66334   2
  -8   5  -6 4.62962 0.61837   3
   9  -5   6 1.38746 0.67567   3
   9  -5   6 2.56205 0.61073   2
  -9   5  -6 2.17177 0.61584   3
  -9   5  -6 2.03662 0.64219   2
  10  -5   6 16.2257 1.14209   2
  10  -5   6 15.5732 1.18968   3
 -10   5  -6 15.6012 1.21102   3
 -10   5  -6 14.8861 1.13096   2
  11  -5   6 6.83324 0.75979   2
 -11   5  -6 6.87809 0.88767   3
 -11   5  -6 7.20979 0.85289   2
  12  -5   6 1.25253 0.79107   3
  12  -5   6 0.97040 0.58441   2
 -12   5  -6 0.95698 0.78963   3
 -12   5  -6 1.94911 0.71449   2
  13  -5   6 3.58044 0.64064   2
 -13   5  -6 3.78654 0.71442   2
  14  -5   6 0.15336 0.55528   2
 -14   5  -6 -0.1839 0.66208   2
  16  -6  -6 1.91530 0.79021   3
 -16   6   6 2.44909 0.87094   3
  15  -6  -6 1.29386 0.72466   3
 -15   6   6 -0.3603 0.71358   3
  14  -6  -6 -1.3689 0.72704   3
 -14   6   6 -0.1644 0.64597   3
  14   6  -6 0.80662 0.72606   3
  13  -6  -6 2.60852 0.77365   3
 -13  -6   6 2.95811 0.72325   3
  13   6  -6 2.90541 0.74589   3
 -13   6   6 2.31200 0.76313   3
  12  -6  -6 5.07898 0.76328   3
 -12  -6   6 4.70544 0.71075   3
  12   6  -6 4.90218 0.76688   3
 -12   6   6 5.59223 0.79157   3
 -11  -6   6 2.94451 0.66271   3
  11   6  -6 3.88168 0.82905   3
 -11   6   6 3.64044 0.74177   3
  10  -6  -6 15.1646 1.15030   3
 -10  -6   6 16.7774 1.26548   3
  10   6  -6 16.0177 1.20794   3
  -9  -6   6 3.47174 0.63672   3
   9  -6  -6 4.35576 0.75181   3
  -9   6   6 4.34539 0.86061   3
   9   6  -6 3.53838 0.62001   3
   8  -6  -6 8.07468 0.78301   3
  -8  -6   6 8.77542 0.81868   3
   8   6  -6 8.12919 0.82208   3
  -8   6   6 8.02921 0.78470   3
   7  -6  -6 10.7642 0.89027   3
  -7  -6   6 13.3539 1.05188   3
  -7   6   6 11.0412 0.87849   3
   6  -6  -6 0.52277 0.57513   3
  -6   6   6 0.61265 0.60428   3
   6   6  -6 0.41599 0.47945   3
   5  -6  -6 6.41198 0.70589   3
  -5  -6   6 7.17100 0.74296   3
   5   6  -6 8.48495 0.77642   3
  -5   6   6 7.34044 0.74693   3
  -4  -6   6 1.04143 0.48122   3
   4  -6  -6 0.82057 0.51909   3
  -4   6   6 0.34272 0.48795   3
   4   6  -6 1.35094 0.51021   3
  -3  -6   6 2.66191 0.56230   2
   3  -6  -6 2.94320 0.56615   3
  -3  -6   6 2.53997 0.54473   3
  -3   6   6 2.13796 0.52025   3
   3   6  -6 2.45690 0.52170   3
  -2  -6   6 1.72402 0.48579   3
  -2  -6   6 2.35274 0.58817   2
   2  -6  -6 1.81009 0.56232   3
   2   6  -6 1.93666 0.49298   2
   2   6  -6 2.54787 0.50552   3
  -2   6   6 1.96404 0.45495   3
  -1  -6   6 15.8061 1.11150   3
  -1  -6   6 18.4931 1.29885   2
   1   6  -6 16.9130 1.16738   3
  -1   6   6 15.7354 1.10146   3
   0  -6  -6 3.10211 0.58058   3
   0  -6   6 3.88193 0.54558   2
   0  -6   6 4.61876 0.58829   3
   0   6  -6 5.07935 0.58963   3
   0   6  -6 3.58321 0.56310   2
  -1  -6  -6 32.4893 2.06477   3
   1  -6   6 35.2383 2.22411   3
   1  -6   6 32.8702 2.05846   2
  -1   6  -6 35.5027 2.21705   2
  -1   6  -6 34.8528 2.19651   3
   1   6   6 35.6840 2.24525   3
   2  -6   6 24.5792 1.63478   2
   2  -6   6 22.7487 1.51174   3
  -2  -6  -6 23.7111 1.57395   3
  -2   6  -6 23.5503 1.53653   3
  -2   6  -6 27.2785 1.83361   2
   2   6   6 21.5612 1.43792   3
   3  -6   6 14.6355 1.09955   3
  -3  -6  -6 13.7840 1.02897   3
   3  -6   6 14.5112 1.05965   2
  -3   6  -6 14.8378 1.10741   2
   3   6   6 14.1997 1.03178   3
   4  -6   6 13.4928 1.02476   2
  -4   6  -6 12.4998 0.94437   3
   5  -6   6 2.05049 0.58300   3
  -5   6  -6 1.12014 0.51760   3
   6  -6   6 0.61657 0.50874   3
  -6   6  -6 0.17626 0.55750   3
  -6   6  -6 -0.1796 0.62078   2
   7  -6   6 -0.7892 0.57879   3
  -7   6  -6 0.19622 0.57566   3
  -7   6  -6 -1.1465 0.58420   2
   8  -6   6 0.33661 0.71595   3
   8  -6   6 -0.2000 0.51192   2
  -8   6  -6 -0.2381 0.64832   2
  -8   6  -6 0.51971 0.59661   3
   9  -6   6 2.47674 0.61702   2
   9  -6   6 3.23319 0.66065   3
  -9   6  -6 3.67636 0.74446   2
  -9   6  -6 1.71350 0.59537   3
  10  -6   6 1.33852 0.64897   3
  10  -6   6 1.96645 0.65451   2
 -10   6  -6 2.98656 0.82970   2
 -10   6  -6 1.79300 0.70814   3
  11  -6   6 0.39292 0.78826   3
  11  -6   6 1.22436 0.64116   2
 -11   6  -6 0.30431 0.70118   2
 -12   7   6 3.39946 0.75819   3
  11  -7  -6 5.69917 0.75957   3
 -11  -7   6 6.15958 0.79171   3
  11   7  -6 6.84677 0.83458   3
 -10  -7   6 9.00806 0.89508   3
  10  -7  -6 9.07281 0.93184   3
  10   7  -6 9.28372 0.92292   3
 -10   7   6 9.01198 0.87472   3
   9  -7  -6 1.29799 0.65548   3
  -9  -7   6 1.50170 0.62254   3
  -9   7   6 0.75323 0.63927   3
   9   7  -6 0.72510 0.61003   3
  -8  -7   6 0.10758 0.59181   3
   8  -7  -6 1.16306 0.62814   3
  -8   7   6 1.39660 0.68798   3
   8   7  -6 0.80745 0.63118   3
  -7  -7   6 5.13230 0.65089   3
   7  -7  -6 5.51589 0.68238   3
   7   7  -6 5.36278 0.65333   3
  -7   7   6 6.12752 0.69286   3
  -6  -7   6 3.49418 0.60079   3
   6  -7  -6 3.52501 0.61246   3
  -6   7   6 4.43003 0.72551   3
   5  -7  -6 24.2709 1.64815   3
  -5   7   6 23.3187 1.58272   3
   5   7  -6 24.0721 1.58932   3
   4  -7  -6 39.2336 2.48859   3
  -4  -7   6 36.8579 2.33213   3
   4   7  -6 36.1281 2.28046   3
  -4   7   6 39.7079 2.51210   3
  -3  -7   6 8.14274 0.72996   3
   3   7  -6 8.22408 0.72906   3
  -3   7   6 7.52058 0.71612   3
  -2  -7   6 17.3285 1.20746   3
   2  -7  -6 18.9515 1.35982   3
   2   7  -6 19.0091 1.29855   3
  -1  -7   6 19.9828 1.37739   3
   1  -7  -6 20.9324 1.47022   3
   1   7  -6 20.3044 1.37504   3
  -1   7   6 20.8951 1.44843   3
   0  -7  -6 7.02430 0.76831   3
   0  -7   6 6.96305 0.68182   3
   0   7  -6 7.00455 0.67465   3
   0   7   6 4.73681 0.63706   3
  -1  -7  -6 1.00637 0.58892   3
   1  -7   6 0.48943 0.51398   3
  -1   7  -6 0.42434 0.54056   3
   2  -7   6 1.41205 0.54250   3
  -2   7  -6 1.05365 0.54261   3
   3  -7   6 5.16770 0.66186   3
  -3   7  -6 4.45131 0.61545   3
   4  -7   6 1.87075 0.53362   3
  -5   7  -6 6.20410 0.68780   3
   6  -7   6 6.58118 0.73169   3
  -6   7  -6 6.07895 0.77014   3
   7  -7   6 16.6321 1.26574   3
  -7   7  -6 15.3252 1.15818   3
   8  -7   6 9.59552 0.96257   3
  -8   7  -6 10.3671 0.93674   3
   6   8  -6 1.60511 0.52502   3
  -5  -8   6 2.89121 0.56812   3
   5   8  -6 4.24740 0.67766   3
  -4  -8   6 0.16970 0.53675   3
   4   8  -6 0.27992 0.52116   3
  -3  -8   6 0.52014 0.57223   3
   3   8  -6 0.08851 0.51123   3
  -2  -8   6 0.14777 0.44125   3
   2   8  -6 0.30320 0.45270   3
  -1  -8   6 -0.0217 0.47738   3
   1   8  -6 0.43968 0.53208   3
   0  -8   6 0.19801 0.50830   3
   0   8  -6 1.32202 0.47687   3
   1  -8   6 4.36128 0.55202   3
  -1   8  -6 5.04919 0.63645   3
   2  -8   6 5.90121 0.68631   3
  -2   8  -6 6.30612 0.67903   3
   3  -8   6 7.32523 0.77152   3
  -3   8  -6 7.74073 0.77684   3
 -22   0   7 -1.5520 1.12083   2
  21   0  -7 -0.7736 0.68156   2
  21   0  -7 -1.2941 0.98565   3
 -21   0   7 -0.2626 0.89557   3
  20   0  -7 -0.4148 0.74344   2
 -20   0   7 -0.4447 0.89205   3
  20   0  -7 -0.1738 0.84696   3
  19   0  -7 1.18983 0.77946   2
 -19   0   7 0.85632 0.88668   3
 -18   0   7 4.60288 0.87499   2
 -18   0   7 0.04945 0.78882   3
  18   0  -7 2.40211 0.75970   2
  18   0  -7 0.46331 0.88532   3
 -17   0   7 -0.2744 0.76834   3
  17   0  -7 -1.0193 0.80099   3
  17   0  -7 0.68111 0.70351   2
 -17   0   7 -1.4315 0.74477   2
  16   0  -7 -0.2544 0.55942   2
 -16   0   7 -0.3453 0.70543   3
 -16   0   7 -1.2170 0.68778   2
 -15   0   7 -0.7280 0.57657   2
  15   0  -7 -0.6500 0.71515   3
  15   0  -7 -0.5471 0.55148   2
 -14   0   7 -0.3848 0.65188   2
  14   0  -7 -0.1721 0.67609   3
  14   0  -7 0.52111 0.52204   2
  13   0  -7 0.90671 0.49618   2
 -13   0   7 0.45252 0.62561   2
  13   0  -7 -0.2710 0.65059   3
 -13   0   7 0.50329 0.66444   3
 -12   0   7 -0.3418 0.52503   2
 -12   0   7 -0.7641 0.70053   3
  12   0  -7 -0.2062 0.47503   2
  12   0  -7 -1.1195 0.73898   3
  12   0  -7 0.05389 0.10684   1
  11   0  -7 -0.8057 0.58171   3
 -11   0   7 -0.0819 0.11911   1
 -11   0   7 -0.2301 0.58315   2
  11   0  -7 0.23306 0.10267   1
  11   0  -7 0.16373 0.48504   2
  11   0  -7 -0.0269 0.10671   1
 -11   0   7 0.77045 0.62158   3
 -10   0   7 0.26571 0.10899   1
 -10   0   7 0.70352 0.12113   1
 -10   0   7 0.31056 0.56945   3
  10   0  -7 -0.0766 0.56170   3
  10   0  -7 0.94832 0.43701   2
  10   0  -7 0.37811 0.10709   1
 -10   0   7 0.71316 0.55657   2
  -9   0   7 0.32410 0.10709   1
   9   0  -7 -0.5421 0.48278   3
  -9   0   7 0.25147 0.50040   2
   9   0  -7 -0.3506 0.43082   2
  -9   0   7 0.78080 0.48677   3
  -9   0   7 -0.0186 0.09959   1
   8   0  -7 0.14006 0.40339   2
  -8   0   7 -0.1788 0.09569   1
  -8   0   7 -0.0261 0.45981   3
   8   0  -7 0.77999 0.45766   3
  -8   0   7 0.21006 0.45713   2
   7   0  -7 0.02604 0.51558   3
  -7   0   7 -0.1257 0.55013   2
   7   0  -7 0.00885 0.08424   1
   7   0  -7 0.04713 0.38011   2
  -7   0   7 -0.2485 0.09501   1
   7   0  -7 -0.1589 0.09449   1
  -7   0   7 -0.5746 0.48851   3
   6   0  -7 0.46908 0.37829   2
   6   0  -7 -0.0090 0.08566   1
   6   0  -7 -1.3169 0.48294   3
  -6   0   7 0.07815 0.66022   2
  -6   0   7 0.15574 0.45690   3
  -5   0   7 0.58709 0.30891   3
   5   0  -7 0.21182 0.08399   1
  -5   0   7 -0.1089 0.43925   2
   5   0  -7 0.29998 0.29243   2
  -5   0   7 0.57308 0.10652   1
   5   0  -7 0.26515 0.08411   1
   4   0  -7 0.18046 0.39707   3
  -4   0   7 0.23315 0.40291   2
  -4   0   7 0.22697 0.08307   1
  -3   0   7 0.29743 0.24541   3
  -3   0   7 0.21450 0.07144   1
   3   0  -7 0.32847 0.30577   3
  -3   0   7 0.49094 0.69867   2
  -2   0   7 0.11344 0.07266   1
   2   0  -7 -0.2466 0.25828   2
   2   0  -7 -0.0169 0.06020   1
  -2   0   7 -0.0250 0.05946   1
  -2   0   7 -0.0475 0.18274   3
   2   0  -7 0.04733 0.20828   3
   2   0  -7 0.27601 0.08690   1
   1   0  -7 0.17457 0.25139   2
   1   0  -7 0.25436 0.07060   1
   1   0  -7 -0.1954 0.18811   3
   0   0  -7 0.38281 0.19819   3
   0   0   7 0.17352 0.22490   2
   0   0  -7 -0.4259 0.23244   2
  -1   0  -7 0.18859 0.27158   2
  -1   0  -7 0.14596 0.08681   1
   1   0   7 0.50897 0.26653   2
  -2   0  -7 0.25273 0.29116   2
  -2   0  -7 0.28704 0.06640   1
   2   0   7 0.18761 0.27017   2
   3   0   7 0.24278 0.25173   2
  -3   0  -7 0.33348 0.27443   2
  -4   0  -7 0.46606 0.08214   1
   4   0   7 -0.1960 0.33877   2
  -4   0  -7 0.33405 0.30239   2
   4   0   7 0.34968 0.07924   1
   5   0   7 0.30753 0.07114   1
  -5   0  -7 0.31522 0.33522   2
   5   0   7 0.14754 0.36827   2
  -6   0  -7 0.19208 0.35959   2
  -6   0  -7 0.00815 0.06786   1
   6   0   7 0.12123 0.41899   2
  -7   0  -7 0.09093 0.07866   1
   7   0   7 -0.4299 0.38520   2
  -7   0  -7 -0.0241 0.44470   2
  -7   0  -7 0.24054 0.10218   1
  -8   0  -7 0.07532 0.09954   1
   8   0   7 -0.2265 0.09978   1
  -8   0  -7 -0.0918 0.47566   2
   8   0   7 0.18867 0.43473   2
   9   0   7 -0.0468 0.43101   2
  -9   0  -7 0.26383 0.52500   2
 -10   0  -7 0.04807 0.55385   2
  10   0   7 -0.7634 0.49469   2
  11   0   7 -0.3876 0.49907   2
 -11   0  -7 0.79037 0.67642   2
  12   0   7 1.04256 0.54833   2
 -12   0  -7 -0.5728 0.63451   2
  13   0   7 0.50912 0.58654   2
 -13   0  -7 0.78725 0.77359   2
  14   0   7 0.37349 0.69921   2
  15   0   7 -0.2326 0.66988   2
  17   0   7 -0.2541 0.71866   2
  22  -1  -7 -0.9231 0.74441   2
  22   1  -7 0.04578 0.81755   2
 -22   1   7 0.56201 0.80287   2
  21  -1  -7 2.51496 0.82478   3
  21  -1  -7 2.55072 0.81341   2
 -21  -1   7 3.04455 1.54918   2
 -21   1   7 2.65826 0.88246   2
 -21   1   7 2.67197 0.78938   3
  21   1  -7 2.46860 0.82401   2
  21   1  -7 2.86904 0.96301   3
  20  -1  -7 27.2101 1.84497   2
 -20  -1   7 28.2817 1.99068   3
  20  -1  -7 28.1291 1.95855   3
 -20   1   7 23.8777 1.69515   2
  20   1  -7 27.7918 1.89680   2
 -20   1   7 27.7998 1.91725   3
  20   1  -7 27.2666 1.98761   3
  19  -1  -7 47.6963 2.90284   2
 -19  -1   7 44.1068 2.80152   2
 -19  -1   7 53.6733 3.39002   3
  19  -1  -7 47.6786 3.04086   3
  19   1  -7 51.5016 3.15743   2
  19   1  -7 54.2749 3.44467   3
 -19   1   7 50.6138 3.22404   3
 -19   1   7 49.8078 3.03587   2
  18  -1  -7 37.2685 2.48396   3
 -18  -1   7 38.3022 2.50183   3
 -18  -1   7 32.5508 2.19455   2
  18   1  -7 33.5067 2.15114   2
  18   1  -7 35.3604 2.39049   3
 -18   1   7 34.9125 2.31281   3
  17  -1  -7 88.2525 5.20538   2
 -17  -1   7 88.8500 5.42997   3
 -17  -1   7 84.4972 5.03233   2
 -17   1   7 90.6542 5.34955   2
 -17   1   7 83.1167 5.11109   3
  17   1  -7 94.9623 5.83644   3
 -16  -1   7 113.170 6.88952   3
 -16  -1   7 125.547 7.38796   2
  16  -1  -7 107.434 6.29128   2
  16  -1  -7 103.162 6.29412   3
 -16   1   7 106.499 6.23983   2
 -16   1   7 98.4006 6.01607   3
  16   1  -7 117.840 7.15690   3
  15  -1  -7 47.0391 2.83697   2
 -15  -1   7 49.8106 3.12271   3
  15  -1  -7 43.9226 2.80495   3
 -15   1   7 56.5800 3.40294   2
  15   1  -7 48.9553 2.95334   2
 -14  -1   7 65.4070 4.02651   3
  14  -1  -7 72.6023 4.28467   2
  14  -1  -7 63.4681 3.92994   3
 -14   1   7 69.6562 4.26697   3
 -14   1   7 70.0826 4.16253   2
  14   1  -7 65.4826 4.04775   3
  14   1  -7 65.9405 3.92478   2
  13  -1  -7 44.0182 2.63698   2
 -13  -1   7 45.8351 2.80747   2
  13  -1  -7 47.1684 2.98160   3
 -13   1   7 45.9624 2.76369   2
  13   1  -7 46.3114 2.92924   3
  13   1  -7 45.5954 2.74921   2
 -13   1   7 46.3778 2.90383   3
 -12  -1   7 6.78668 0.77350   2
 -12  -1   7 4.89112 0.64231   3
  12  -1  -7 5.29952 0.54823   2
  12  -1  -7 7.55429 0.77667   3
  12   1  -7 5.28945 0.50451   1
  12   1  -7 4.41313 0.43332   1
  12   1  -7 6.84796 0.76837   3
  12   1  -7 5.34737 0.63001   2
 -12   1   7 4.97525 0.48073   1
 -12   1   7 4.91473 0.67951   3
 -12   1   7 4.57625 0.56334   2
 -12   1   7 4.92303 0.47376   1
 -11  -1   7 24.1293 1.65725   2
 -11  -1   7 20.7596 1.41010   3
  11  -1  -7 20.0862 1.43299   3
 -11  -1   7 20.6279 1.93137   1
 -11  -1   7 17.0563 1.59777   1
  11   1  -7 22.1903 1.43861   2
 -11   1   7 19.9809 1.86985   1
  11   1  -7 20.3170 1.89945   1
  11   1  -7 18.4125 1.71942   1
  11   1  -7 19.7318 1.36603   3
 -11   1   7 18.4047 1.72209   1
 -11   1   7 20.8030 1.35032   2
 -11   1   7 20.7405 1.42134   3
 -10  -1   7 20.0715 1.87783   1
  10  -1  -7 21.0256 1.46026   3
 -10  -1   7 20.7281 1.43661   3
 -10  -1   7 20.4934 1.91607   1
 -10  -1   7 22.5048 1.52331   2
  10  -1  -7 20.7538 1.93329   1
  10  -1  -7 19.7886 1.84298   1
  10   1  -7 19.0213 1.77620   1
  10   1  -7 19.7792 1.27099   2
 -10   1   7 21.6523 1.45589   3
  10   1  -7 20.2413 1.89277   1
  10   1  -7 18.9600 1.36292   3
 -10   1   7 20.8380 1.33703   2
   9  -1  -7 195.062 11.2970   2
  -9  -1   7 188.394 17.5458   1
  -9  -1   7 187.308 17.4468   1
   9  -1  -7 184.315 17.1634   1
   9  -1  -7 197.337 11.8531   3
  -9  -1   7 203.778 12.2361   3
  -9  -1   7 247.260 14.3493   2
   9  -1  -7 184.573 17.1894   1
   9   1  -7 196.222 11.7911   3
   9   1  -7 191.294 11.1094   2
   9   1  -7 180.487 16.8133   1
  -9   1   7 189.352 10.9784   2
   9   1  -7 194.417 18.1075   1
  -9   1   7 200.119 12.0169   3
   8  -1  -7 475.531 44.2813   1
   8  -1  -7 477.244 27.5762   2
   8  -1  -7 424.691 39.5419   1
  -8  -1   7 453.321 42.2164   1
   8  -1  -7 461.477 27.6264   3
  -8  -1   7 473.742 27.3806   2
  -8  -1   7 446.728 26.7233   3
  -8  -1   7 479.153 44.6202   1
   8   1  -7 454.813 42.3372   1
   8   1  -7 471.129 43.8784   1
   8   1  -7 439.301 26.2787   3
   8   1  -7 420.692 24.3382   2
  -8   1   7 440.337 26.3398   3
  -7  -1   7 491.388 45.7485   1
   7  -1  -7 419.118 39.0479   1
  -7  -1   7 489.596 29.2649   3
  -7  -1   7 517.476 48.1868   1
   7  -1  -7 463.502 26.8013   2
  -7  -1   7 558.355 32.2616   2
   7  -1  -7 515.513 48.0004   1
   7   1  -7 454.908 26.3028   2
   7   1  -7 473.409 28.3187   3
   7   1  -7 491.800 45.8002   1
   7   1  -7 467.993 43.5807   1
  -7   1   7 515.073 47.9531   1
  -7   1   7 501.408 46.6722   1
  -7   1   7 463.594 27.7313   3
  -6  -1   7 440.781 26.3469   3
  -6  -1   7 483.144 27.9047   2
   6  -1  -7 412.432 23.8358   2
  -6  -1   7 462.934 43.1075   1
  -6  -1   7 415.451 38.6992   1
   6  -1  -7 432.808 40.2959   1
   6  -1  -7 451.369 42.0431   1
   6   1  -7 426.559 25.5150   3
  -6   1   7 429.596 24.8429   2
   6   1  -7 410.667 38.2401   1
   6   1  -7 442.628 41.2140   1
  -6   1   7 429.104 39.9501   1
   6   1  -7 398.334 23.0333   2
  -6   1   7 427.842 39.8467   1
  -6   1   7 422.947 25.2864   3
  -5  -1   7 930.900 55.6314   3
  -5  -1   7 911.125 84.8433   1
   5  -1  -7 845.813 50.5514   3
  -5  -1   7 1020.13 58.8959   2
   5  -1  -7 903.120 84.0889   1
   5  -1  -7 822.484 47.5150   2
   5  -1  -7 894.797 83.3283   1
  -5   1   7 868.832 50.1907   2
   5   1  -7 868.093 50.1575   2
   5   1  -7 890.090 82.8690   1
  -5   1   7 949.921 88.4632   1
   5   1  -7 891.819 53.2843   3
  -5   1   7 850.943 79.2494   1
  -4  -1   7 673.322 40.2689   3
   4  -1  -7 727.041 43.4515   3
   4  -1  -7 836.110 77.8654   1
   4  -1  -7 755.595 70.3713   1
   4  -1  -7 793.840 45.8482   2
  -4  -1   7 833.541 77.6124   1
  -4  -1   7 831.854 77.4469   1
  -4  -1   7 828.692 47.8586   2
   4   1  -7 795.073 74.0281   1
  -4   1   7 925.021 86.1189   1
  -4   1   7 793.550 73.8753   1
   4   1  -7 769.566 71.6450   1
   4   1  -7 688.524 39.7909   2
  -4   1   7 801.165 46.2468   2
  -4   1   7 764.453 45.6710   3
  -3  -1   7 38.6382 2.34730   2
   3  -1  -7 38.4172 3.57869   1
  -3  -1   7 42.1569 3.92264   1
   3  -1  -7 49.8130 4.64213   1
   3  -1  -7 37.0725 2.17608   2
  -3  -1   7 41.9547 3.91098   1
   3  -1  -7 40.0693 2.45828   3
  -3   1   7 45.1015 2.72916   3
   3   1  -7 43.4645 4.05171   1
   3   1  -7 43.6127 2.58331   2
   3   1  -7 39.5385 2.39586   3
   3   1  -7 42.8687 3.99101   1
  -3   1   7 43.6428 4.06430   1
  -3   1   7 37.0430 3.45282   1
   2  -1  -7 142.548 13.2723   1
  -2  -1   7 117.888 6.83177   2
   2  -1  -7 142.504 8.54161   3
   2  -1  -7 129.972 7.51576   2
  -2  -1   7 147.966 13.7796   1
  -2  -1   7 132.464 7.93353   3
   2  -1  -7 122.177 11.3801   1
  -2  -1   7 139.659 13.0065   1
  -2   1   7 144.878 8.67936   3
   2   1  -7 118.937 6.89304   2
  -2   1   7 139.459 12.9834   1
  -2   1   7 127.493 11.8728   1
   2   1  -7 136.433 12.7075   1
   2   1  -7 132.338 7.93651   3
   2   1  -7 129.684 12.0764   1
   1  -1  -7 218.058 20.3041   1
  -1  -1   7 243.764 14.1166   2
  -1  -1   7 257.651 23.9810   1
   1  -1  -7 245.311 14.1806   2
  -1  -1   7 242.461 22.5790   1
   1  -1  -7 196.488 11.7671   3
   1  -1  -7 317.885 29.5842   1
  -1  -1   7 274.998 16.4395   3
   1   1  -7 248.281 23.1150   1
   1   1  -7 243.079 14.0724   2
  -1   1   7 235.685 13.6227   2
   1   1  -7 247.202 23.0053   1
  -1   1   7 241.237 22.4734   1
  -1   1   7 353.682 32.9028   1
   1   1  -7 241.068 14.4243   3
   0  -1  -7 201.352 18.7491   1
   0  -1   7 177.250 16.5084   1
   0  -1   7 159.186 9.22227   2
   0  -1   7 138.153 8.27920   3
   0  -1   7 183.681 17.1016   1
   0  -1  -7 223.812 20.8451   1
   0  -1  -7 177.132 10.2460   2
   0   1   7 196.355 18.2835   1
   0   1   7 192.556 17.9284   1
   0   1  -7 183.109 17.0498   1
   0   1  -7 163.246 9.77929   3
   0   1  -7 173.756 16.1807   1
   0   1  -7 170.066 9.85422   2
  -1  -1  -7 473.157 44.0579   1
   1  -1   7 387.890 22.4384   2
  -1  -1  -7 405.443 23.4363   2
   1  -1   7 498.956 46.4646   1
  -1  -1  -7 480.945 44.7769   1
   1  -1   7 393.793 36.6733   1
  -1   1  -7 384.596 22.9920   3
  -1   1  -7 392.139 22.6608   2
   1   1   7 465.717 43.3798   1
  -1   1  -7 391.610 36.4863   1
   1   1   7 423.570 39.4462   1
  -1   1  -7 470.108 43.7527   1
  -2  -1  -7 68.1646 3.95892   2
   2  -1   7 75.9091 7.07020   1
  -2  -1  -7 82.0052 7.63492   1
   2  -1   7 72.9446 4.26453   2
   2  -1   7 75.7438 7.04872   1
  -2  -1  -7 71.8239 6.69242   1
  -2   1  -7 68.4763 6.38240   1
  -2   1  -7 66.0452 3.96552   3
  -2   1  -7 75.9478 7.07125   1
   2   1   7 62.1196 5.78559   1
   2   1   7 82.6138 7.68794   1
  -2   1  -7 72.5875 4.24540   2
  -3  -1  -7 352.861 32.8601   1
   3  -1   7 326.687 18.9038   2
  -3  -1  -7 345.428 19.9675   2
   3  -1   7 346.551 32.2815   1
   3  -1   7 357.520 33.2987   1
  -3  -1  -7 320.560 29.8598   1
  -3   1  -7 374.245 22.3742   3
  -3   1  -7 329.418 19.0637   2
   3   1   7 347.803 32.3845   1
   3   1   7 371.327 34.5801   1
  -4  -1  -7 444.834 41.4268   1
   4  -1   7 430.089 40.0563   1
  -4  -1  -7 404.345 23.3834   2
   4  -1   7 411.869 23.8168   2
  -4  -1  -7 390.706 36.3972   1
   4  -1   7 391.421 36.4342   1
   4   1   7 409.105 38.0951   1
  -4   1  -7 407.881 24.3771   3
   4   1   7 398.455 23.0220   2
   4   1   7 383.569 35.7038   1
  -5  -1  -7 269.191 25.0506   1
   5  -1   7 261.732 15.1605   2
  -5  -1  -7 248.574 23.1374   1
  -5  -1  -7 273.603 15.8317   2
  -5   1  -7 256.844 23.9255   1
   5   1   7 267.875 24.9304   1
   5   1   7 292.160 27.2113   1
  -5   1  -7 255.023 23.7474   1
   5   1   7 258.239 14.9319   2
  -6  -1  -7 398.437 37.1036   1
   6  -1   7 400.711 23.1848   2
  -6  -1  -7 382.384 22.1315   2
  -6  -1  -7 433.114 40.3268   1
   6   1   7 402.044 37.4513   1
  -6   1  -7 370.358 34.4804   1
  -6   1  -7 365.195 21.8506   3
   6   1   7 401.339 37.3884   1
  -6   1  -7 371.405 21.4898   2
  -6   1  -7 359.303 33.4595   1
   6   1   7 366.308 21.1910   2
   7  -1   7 171.811 16.0031   1
  -7  -1  -7 174.303 16.2326   1
   7  -1   7 191.055 17.7804   1
  -7  -1  -7 175.961 10.2041   2
  -7  -1  -7 150.134 13.9852   1
  -7   1  -7 173.591 10.0802   2
  -7   1  -7 174.144 16.2101   1
   7   1   7 165.779 15.4425   1
  -7   1  -7 174.043 16.2122   1
   7   1   7 177.551 16.5302   1
   7   1   7 159.966 9.27307   2
  -7   1  -7 143.706 8.64052   3
   8  -1   7 38.7192 3.60800   1
   8  -1   7 38.4665 2.33705   2
  -8  -1  -7 40.3498 3.75941   1
  -8   1  -7 41.6920 2.57230   3
   8   1   7 42.7614 2.57085   2
   8   1   7 48.2381 4.49727   1
  -8   1  -7 42.6104 2.57532   2
  -8   1  -7 44.0749 4.10525   1
   9  -1   7 60.9008 3.60093   2
   9   1   7 61.3288 3.62502   2
  -9   1  -7 60.5235 3.60172   2
 -10  -1  -7 17.7357 1.28041   2
  10  -1   7 19.4989 1.28302   2
 -10   1  -7 18.8742 1.28694   2
  11  -1   7 4.33876 0.61175   2
 -11   1  -7 5.13263 0.64528   2
  12  -1   7 11.8694 0.91809   2
 -12  -1  -7 13.0153 1.06032   2
  12   1   7 13.2428 1.04298   2
 -12   1  -7 12.3325 1.04523   2
  13  -1   7 49.7828 3.02009   2
 -13   1  -7 44.6913 2.76016   2
  13   1   7 42.3611 2.64069   2
  14  -1   7 60.3657 3.62685   2
 -14  -1  -7 55.2659 3.40948   2
 -14   1  -7 63.2866 3.81981   2
  14   1   7 59.0551 3.58551   2
  15  -1   7 12.5980 1.04156   2
  15   1   7 14.2226 1.20111   2
 -15   1  -7 13.1814 1.16502   2
  16  -1   7 24.4440 1.65408   2
  17  -1   7 43.6126 2.71150   2
 -17   1  -7 41.8041 2.63371   2
  22  -2  -7 31.9055 2.09752   2
 -22   2   7 28.4041 1.91343   2
  21  -2  -7 10.1019 0.94286   2
  21  -2  -7 9.29806 1.09843   3
  21   2  -7 11.0871 1.02556   2
 -21   2   7 8.95645 1.04645   3
 -21   2   7 8.61890 0.93073   2
  20  -2  -7 19.5945 1.47512   3
  20  -2  -7 19.7396 1.38074   2
 -20   2   7 18.4057 1.41441   3
  20   2  -7 19.3839 1.45003   2
  20   2  -7 19.9206 1.63738   3
 -20   2   7 20.3878 1.44279   2
 -19  -2   7 11.8271 1.07768   3
  19  -2  -7 12.3335 1.18187   3
 -19   2   7 11.4823 1.10281   3
  19   2  -7 12.1942 1.16121   3
  19   2  -7 12.9235 1.13394   2
 -19   2   7 12.4414 1.04024   2
 -18  -2   7 5.35231 0.81549   3
  18   2  -7 5.93351 0.89752   2
 -18   2   7 4.08796 0.87239   3
 -18   2   7 4.24744 0.73420   2
  17  -2  -7 -0.1015 0.80984   3
 -17  -2   7 -0.1107 0.70049   3
  17   2  -7 0.02300 0.74209   2
  17   2  -7 0.00000 0.80113   3
 -17   2   7 0.92476 0.67561   2
  16  -2  -7 23.5891 1.70734   3
 -16  -2   7 24.9206 1.67898   3
  16  -2  -7 23.9759 1.57402   2
 -16   2   7 26.1403 1.87762   3
  16   2  -7 26.0213 1.78281   2
  16   2  -7 25.9233 1.78844   3
  15  -2  -7 62.2433 3.86959   3
  15  -2  -7 62.4360 3.69842   2
 -15  -2   7 62.1719 3.84383   3
 -15   2   7 61.2636 3.79885   3
  15   2  -7 61.0527 3.81035   3
  15   2  -7 58.8167 3.53220   2
  14  -2  -7 86.7316 5.32140   3
  14  -2  -7 93.8064 5.49831   2
 -14  -2   7 82.1012 5.01907   3
 -14   2   7 94.3772 5.73753   3
 -14   2   7 82.8181 4.89569   2
  14   2  -7 91.4974 5.38027   2
 -13  -2   7 176.396 10.6251   3
  13  -2  -7 193.968 11.2610   2
  13  -2  -7 177.963 10.7175   3
 -13   2   7 190.361 11.4332   3
  13   2  -7 169.408 10.2381   3
 -13   2   7 195.023 11.3229   2
  13   2  -7 179.779 10.4580   2
  12  -2  -7 343.386 19.8916   2
  12  -2  -7 368.732 22.0852   3
  12   2  -7 352.513 20.4278   2
  12   2  -7 388.578 23.2599   3
 -12   2   7 374.342 21.6579   2
 -12   2   7 375.558 22.4980   3
  11  -2  -7 511.639 47.6423   1
 -11  -2   7 435.625 40.5570   1
 -11  -2   7 563.716 52.4849   1
  11  -2  -7 419.477 39.0643   1
 -11  -2   7 485.458 29.0332   3
  11  -2  -7 476.763 28.5302   3
  11   2  -7 446.340 25.8166   2
  11   2  -7 412.251 38.3944   1
 -11   2   7 425.735 39.6534   1
  11   2  -7 435.924 40.6120   1
 -11   2   7 437.778 40.7707   1
 -11   2   7 476.692 28.5385   3
  11   2  -7 499.693 29.8787   3
  10  -2  -7 330.105 30.7464   1
 -10  -2   7 334.614 31.1675   1
 -10  -2   7 319.368 29.7367   1
  10  -2  -7 341.950 31.8555   1
 -10  -2   7 430.655 25.7750   3
  10  -2  -7 343.949 19.8976   2
 -10   2   7 367.612 34.2332   1
 -10   2   7 337.020 19.5132   2
 -10   2   7 302.323 28.1537   1
  10   2  -7 309.473 28.8128   1
  10   2  -7 325.485 30.3223   1
  10   2  -7 392.315 23.4894   3
  -9  -2   7 194.063 18.0746   1
  -9  -2   7 199.465 18.5826   1
   9  -2  -7 200.930 12.0682   3
   9  -2  -7 206.047 11.9541   2
   9  -2  -7 184.524 17.1854   1
  -9  -2   7 160.361 9.41304   2
  -9  -2   7 201.941 12.1181   3
   9  -2  -7 192.384 17.9132   1
  -9   2   7 205.290 12.3154   3
   9   2  -7 193.202 17.9972   1
   9   2  -7 186.487 17.3658   1
  -9   2   7 202.069 11.7224   2
  -9   2   7 177.747 16.5567   1
   9   2  -7 199.920 12.0120   3
  -9   2   7 192.661 17.9384   1
  -8  -2   7 218.520 20.3490   1
   8  -2  -7 222.917 12.9153   2
   8  -2  -7 233.411 14.0075   3
   8  -2  -7 223.216 20.7932   1
  -8  -2   7 235.527 21.9396   1
  -8  -2   7 227.286 13.6347   3
   8  -2  -7 216.341 20.1404   1
  -8   2   7 204.390 19.0246   1
  -8   2   7 240.568 14.4158   3
   8   2  -7 224.139 12.9841   2
   8   2  -7 218.971 13.1379   3
  -8   2   7 224.397 12.9936   2
  -8   2   7 229.344 21.3626   1
   7  -2  -7 43.6086 4.06281   1
  -7  -2   7 50.1380 3.07717   3
  -7  -2   7 36.3797 3.39707   1
   7  -2  -7 41.0747 2.42798   2
  -7   2   7 43.3754 4.04170   1
  -7   2   7 43.7853 2.71801   3
   7   2  -7 41.8170 3.89499   1
   7   2  -7 41.9811 2.49786   2
  -7   2   7 41.7592 2.48579   2
   7   2  -7 44.8848 2.75817   3
   7   2  -7 42.2894 3.94118   1
   6  -2  -7 88.8092 5.36307   3
   6  -2  -7 80.8099 4.71382   2
   6  -2  -7 81.1659 7.56252   1
  -6  -2   7 89.1724 5.38974   3
   6  -2  -7 88.3715 8.22774   1
   6   2  -7 87.3940 8.13855   1
   6   2  -7 91.1146 5.49894   3
  -6   2   7 90.6107 8.43461   1
  -6   2   7 79.7696 7.42650   1
  -6   2   7 86.4786 5.03911   2
   6   2  -7 79.9759 7.44777   1
   6   2  -7 78.3819 4.58103   2
   5  -2  -7 16.8565 1.56729   1
   5  -2  -7 17.2673 1.06317   2
  -5  -2   7 21.0051 1.95812   1
  -5  -2   7 19.3189 1.25510   3
  -5  -2   7 19.0987 1.78582   1
   5  -2  -7 18.4882 1.22020   3
  -5   2   7 19.7079 1.28849   3
   5   2  -7 20.6699 1.93132   1
  -5   2   7 17.3334 1.61491   1
  -5   2   7 21.1263 1.29391   2
  -5   2   7 23.2329 2.16246   1
   5   2  -7 19.4212 1.25271   3
   5   2  -7 20.5590 1.28746   2
   5   2  -7 21.8520 2.04072   1
   4  -2  -7 138.067 12.8520   1
  -4  -2   7 124.664 7.49234   3
   4  -2  -7 123.568 7.14985   2
   4  -2  -7 126.613 7.60472   3
  -4  -2   7 127.981 11.9196   1
  -4  -2   7 133.156 12.4016   1
  -4   2   7 136.950 12.7532   1
   4   2  -7 128.955 12.0102   1
   4   2  -7 127.245 7.38767   2
   4   2  -7 122.403 7.35699   3
  -4   2   7 140.536 13.0883   1
  -4   2   7 130.852 7.86436   3
   4   2  -7 129.238 12.0329   1
  -3  -2   7 740.509 44.2549   3
   3  -2  -7 711.349 66.2420   1
  -3  -2   7 726.509 41.9687   2
  -3  -2   7 921.670 85.7856   1
  -3  -2   7 782.904 72.8970   1
   3  -2  -7 870.617 52.0180   3
   3  -2  -7 775.277 44.7715   2
   3  -2  -7 727.278 67.7264   1
  -3   2   7 851.607 50.8804   3
   3   2  -7 788.799 73.4536   1
   3   2  -7 733.275 42.3785   2
   3   2  -7 837.717 77.9943   1
  -3   2   7 772.629 71.9415   1
  -3   2   7 811.658 75.5852   1
  -2  -2   7 657.793 37.9927   2
   2  -2  -7 634.301 37.9137   3
  -2  -2   7 651.448 60.6505   1
  -2  -2   7 679.581 63.2826   1
   2  -2  -7 958.908 89.2686   1
   2  -2  -7 647.692 60.2999   1
   2   2  -7 623.377 37.2719   3
  -2   2   7 722.997 43.2009   3
   2   2  -7 687.786 64.0524   1
  -2   2   7 762.053 70.9373   1
  -2   2   7 715.152 66.5929   1
   2   2  -7 628.833 36.3371   2
   2   2  -7 644.987 60.0572   1
  -1  -2   7 487.173 45.3659   1
  -1  -2   7 490.514 29.3140   3
   1  -2  -7 533.890 31.9016   3
  -1  -2   7 490.582 28.3343   2
  -1  -2   7 542.313 50.4842   1
   1   2  -7 488.290 29.1820   3
  -1   2   7 522.908 48.6957   1
   1   2  -7 482.422 44.9405   1
   1   2  -7 513.470 47.8171   1
   1   2  -7 441.643 25.5304   2
   0  -2   7 632.262 36.5282   2
   0  -2   7 668.698 62.2805   1
   0  -2  -7 694.216 41.4701   3
   0  -2   7 661.607 61.6145   1
   0  -2   7 578.745 34.6158   3
   0   2  -7 649.973 60.5209   1
   0   2  -7 638.707 38.1742   3
   0   2  -7 669.407 62.3354   1
   0   2  -7 640.251 36.9852   2
   1  -2   7 664.181 61.8385   1
   1  -2   7 571.824 34.1966   3
   1  -2   7 643.405 59.8968   1
   1  -2   7 645.043 37.2695   2
  -1   2  -7 622.467 57.9575   1
  -1   2  -7 649.119 60.4453   1
  -1   2  -7 659.400 39.3959   3
  -1   2  -7 618.909 35.7616   2
   1   2   7 696.954 64.8790   1
   2  -2   7 589.854 54.9297   1
   2  -2   7 668.819 38.6360   2
  -2  -2  -7 581.695 54.1640   1
  -2  -2  -7 664.245 61.8558   1
   2  -2   7 646.454 60.1866   1
  -2   2  -7 572.115 53.2780   1
  -2   2  -7 650.434 60.5592   1
  -2   2  -7 565.324 33.8079   3
   2   2   7 833.403 77.5918   1
   3  -2   7 251.746 14.5932   2
   3  -2   7 233.284 13.9777   3
   3  -2   7 243.227 22.6539   1
  -3  -2  -7 337.500 31.4001   1
   3  -2   7 241.328 22.4762   1
  -3  -2  -7 245.188 22.8272   1
  -3   2  -7 237.690 22.1344   1
  -3   2  -7 235.200 21.9104   1
  -3   2  -7 239.632 14.3280   3
  -3   2  -7 238.624 13.8425   2
   4  -2   7 27.9713 1.71553   3
   4  -2   7 27.3827 2.55169   1
   4  -2   7 28.7014 2.67393   1
  -4  -2  -7 29.0772 2.70890   1
  -4  -2  -7 33.4237 3.10810   1
   4  -2   7 29.1221 1.78177   2
   4   2   7 35.7804 3.33078   1
  -4   2  -7 29.4588 1.81322   3
  -4   2  -7 27.3061 2.54311   1
  -4   2  -7 27.3415 2.55594   1
  -4   2  -7 29.6332 1.80258   2
   5  -2   7 0.52423 0.09747   1
   5  -2   7 1.15006 0.12527   1
   5  -2   7 0.52930 0.33969   3
  -5  -2  -7 0.56526 0.08294   1
  -5  -2  -7 0.86636 0.12062   1
   5  -2   7 0.97206 0.39197   2
   5   2   7 0.90888 0.11187   1
  -5   2  -7 0.84951 0.10691   1
  -5   2  -7 0.48127 0.28882   3
   5   2   7 1.16266 0.13174   1
  -5   2  -7 0.92234 0.40870   2
   6  -2   7 38.1365 3.55894   1
  -6  -2  -7 46.6355 4.34754   1
   6  -2   7 47.0978 2.88235   3
   6  -2   7 37.8805 3.53137   1
   6  -2   7 40.1832 2.41762   2
  -6  -2  -7 42.9659 4.00528   1
  -6   2  -7 39.0267 3.63917   1
  -6   2  -7 40.2678 3.75266   1
  -6   2  -7 41.7627 2.55398   3
  -6   2  -7 41.8409 2.52278   2
   6   2   7 40.8361 3.80744   1
   6   2   7 45.4194 4.23335   1
   7  -2   7 68.8835 4.18437   3
  -7  -2  -7 82.6461 7.70196   1
  -7  -2  -7 86.7389 8.07370   1
   7  -2   7 79.4042 4.66206   2
   7  -2   7 65.8693 6.13206   1
  -7   2  -7 75.1873 4.41899   2
   7   2   7 83.4986 7.77210   1
  -7   2  -7 65.8754 6.13983   1
   7   2   7 77.3456 7.20616   1
  -7   2  -7 69.5345 4.23195   3
   8  -2   7 121.083 7.31014   3
   8  -2   7 117.166 6.84320   2
  -8   2  -7 109.789 6.41350   2
  -8   2  -7 107.534 6.50249   3
   9  -2   7 271.527 16.2828   3
   9  -2   7 291.213 16.8618   2
  -9   2  -7 253.461 15.2046   3
  -9   2  -7 275.406 15.9706   2
  10  -2   7 224.973 13.0676   2
 -10   2  -7 220.039 12.7857   2
  11  -2   7 55.2548 3.30570   2
  12  -2   7 47.5434 2.87533   2
 -13   2  -7 105.432 6.20180   2
 -14   2  -7 37.6216 2.36558   2
  15  -2   7 0.33161 0.58579   2
 -15   2  -7 -0.4087 0.64434   2
  16  -2   7 1.39008 0.64577   2
 -16   2  -7 1.40983 0.73599   2
  17  -2   7 1.57690 0.71089   2
 -17   2  -7 0.98234 0.79736   2
 -21   3   7 -1.4145 0.72965   2
  20  -3  -7 5.62434 0.73099   2
  20  -3  -7 3.57260 0.89854   3
 -20   3   7 4.36565 0.78103   2
 -20   3   7 5.76102 0.85956   3
  19  -3  -7 18.0817 1.46665   3
  19  -3  -7 18.8808 1.30326   2
 -19   3   7 17.1173 1.29317   2
  19   3  -7 19.4120 1.58223   3
  19   3  -7 18.5497 1.42114   2
 -19   3   7 20.1024 1.49900   3
 -18  -3   7 14.2902 1.23612   3
  18  -3  -7 16.8200 1.21565   2
 -18   3   7 16.1472 1.24978   2
  18   3  -7 16.1885 1.39161   3
 -18   3   7 16.7299 1.42097   3
  17  -3  -7 18.9483 1.49249   3
  17  -3  -7 17.9264 1.26095   2
 -17   3   7 17.6060 1.29102   2
  17   3  -7 16.1266 1.47989   3
  17   3  -7 21.4132 1.53839   2
  16  -3  -7 19.5491 1.34829   2
  16  -3  -7 17.8966 1.45980   3
 -16  -3   7 18.7070 1.38753   3
  16   3  -7 17.9262 1.34219   2
 -16   3   7 16.4901 1.31845   3
 -16   3   7 18.1894 1.31898   2
  16   3  -7 16.1200 1.36100   3
  15  -3  -7 24.7862 1.60962   2
  15  -3  -7 25.1979 1.77946   3
 -15  -3   7 24.0970 1.68920   3
 -15   3   7 25.9193 1.84354   3
 -15   3   7 23.3773 1.56549   2
  15   3  -7 22.1957 1.63823   3
  15   3  -7 25.0005 1.70256   2
  11  -3  -7 0.09998 0.60498   3
 -11   3   7 -0.1777 0.58851   2
 -11   3   7 1.78634 0.70187   3
  11   3  -7 -0.9307 0.65418   3
  11   3  -7 -0.2039 0.57417   2
  10  -3  -7 6.26339 0.61232   2
 -10  -3   7 6.81025 0.72448   3
  10  -3  -7 5.35359 0.71988   3
 -10   3   7 6.61995 0.77679   3
  10   3  -7 5.65182 0.61320   2
 -10   3   7 5.98963 0.69813   2
  10   3  -7 6.08466 0.67537   3
  -9  -3   7 31.3408 2.92825   1
   9  -3  -7 31.5424 2.04139   3
  -9  -3   7 30.6579 2.85875   1
   9  -3  -7 31.9029 1.94452   2
  -9  -3   7 34.8089 2.20971   3
   9   3  -7 31.0916 1.89415   2
   9   3  -7 28.7414 2.68317   1
  -9   3   7 31.7978 2.95960   1
  -9   3   7 36.9989 2.26135   2
   9   3  -7 35.8818 2.26548   3
  -9   3   7 35.1163 2.25445   3
  -9   3   7 30.3397 2.83212   1
   9   3  -7 29.5613 2.76080   1
  -8  -3   7 42.4117 2.65368   2
  -8  -3   7 30.7996 2.86743   1
  -8  -3   7 34.1736 3.18143   1
   8  -3  -7 34.2219 2.07728   2
  -8  -3   7 36.8955 2.31518   3
  -8   3   7 32.4716 2.08430   3
   8   3  -7 33.8746 2.05089   2
  -8   3   7 36.0027 2.20001   2
  -8   3   7 32.8047 3.05949   1
   8   3  -7 38.5052 2.42301   3
   8   3  -7 35.9749 3.35288   1
   8   3  -7 28.7518 2.67725   1
  -8   3   7 32.7336 3.05391   1
  -7  -3   7 79.7691 7.43067   1
   7  -3  -7 79.1771 4.79310   3
   7  -3  -7 88.8208 8.26887   1
   7  -3  -7 78.7524 7.34078   1
  -7  -3   7 82.8903 4.94920   2
  -7  -3   7 83.4326 5.03683   3
   7   3  -7 78.3884 7.30627   1
  -7   3   7 80.5950 4.72536   2
  -7   3   7 83.2887 7.76096   1
  -7   3   7 69.9473 6.51471   1
   7   3  -7 81.8107 4.95371   3
   6  -3  -7 176.723 10.6065   3
  -6  -3   7 161.163 15.0041   1
   6  -3  -7 174.050 16.2049   1
  -6  -3   7 155.505 9.33996   3
   6  -3  -7 180.354 16.7914   1
  -6  -3   7 187.301 17.4284   1
   6   3  -7 173.625 10.0857   2
   6   3  -7 160.436 14.9422   1
   6   3  -7 160.337 9.63693   3
  -6   3   7 175.707 10.5561   3
  -5  -3   7 162.304 9.42964   2
  -5  -3   7 167.441 15.5910   1
   5  -3  -7 159.437 9.57883   3
   5  -3  -7 161.685 15.0601   1
   5  -3  -7 159.942 9.26979   2
  -5  -3   7 164.211 9.85117   3
  -5  -3   7 188.623 17.5558   1
   5  -3  -7 175.085 16.3037   1
  -5   3   7 170.777 10.2345   3
   5   3  -7 168.095 15.6492   1
   5   3  -7 156.786 9.41490   3
   5   3  -7 181.434 10.5287   2
  -4  -3   7 111.952 6.74471   3
  -4  -3   7 107.075 9.97482   1
  -4  -3   7 97.9166 9.12130   1
  -4  -3   7 99.8059 5.81852   2
   4  -3  -7 115.249 10.7318   1
   4  -3  -7 98.4075 5.93363   3
   4  -3  -7 86.8987 8.09548   1
  -4   3   7 104.187 6.27366   3
   4   3  -7 107.793 10.0366   1
   4   3  -7 99.1290 9.23218   1
   4   3  -7 105.708 6.36228   3
   4   3  -7 104.135 6.07102   2
  -3  -3   7 70.9473 4.15566   2
   3  -3  -7 68.7444 4.16469   3
  -3  -3   7 69.3904 4.21082   3
  -3  -3   7 67.0246 6.24557   1
   3  -3  -7 80.3031 7.47314   1
   3   3  -7 83.4652 7.77144   1
   3   3  -7 64.1010 5.96780   1
  -3   3   7 75.3411 4.53646   3
   3   3  -7 71.2545 4.32066   3
  -1  -3   7 8.18229 0.77173   1
  -1  -3   7 8.30681 0.78239   1
  -1  -3   7 8.27782 0.64059   3
  -1  -3   7 7.85194 0.61521   2
   1  -3  -7 8.77974 0.64130   3
  -1   3   7 7.02928 0.50517   3
   1   3  -7 8.40372 0.63158   3
   1   3  -7 9.35795 0.70032   2
   0  -3   7 23.8435 1.49719   3
   0  -3   7 22.5993 2.11001   1
   0  -3   7 22.5239 2.09723   1
   0  -3  -7 22.1968 1.37503   3
   0   3  -7 26.1989 2.44615   1
   0   3  -7 23.8069 2.21929   1
   0   3   7 24.2709 1.50972   3
   0   3  -7 26.3067 1.64243   2
   0   3  -7 24.1507 1.51790   3
  -1  -3  -7 25.4144 1.58276   3
   1  -3   7 23.2981 1.45200   3
  -1   3  -7 25.1920 1.54955   2
  -1   3  -7 23.5110 2.19662   1
  -1   3  -7 23.7421 2.21698   1
  -1   3  -7 24.3932 1.52967   3
  -2  -3  -7 47.7882 2.89872   3
   2  -3   7 47.5482 2.83403   2
  -2   3  -7 46.9581 2.80027   2
  -2   3  -7 44.7962 4.17700   1
  -2   3  -7 47.8379 2.90609   3
  -2   3  -7 45.1534 4.20705   1
   3  -3   7 53.8586 5.01808   1
   3  -3   7 50.0674 4.66140   1
   3  -3   7 51.9648 3.16695   3
   3  -3   7 53.2189 3.13848   2
  -3   3  -7 51.4127 4.78905   1
  -3   3  -7 52.6931 3.20030   3
  -3   3  -7 57.0093 3.38705   2
  -3   3  -7 52.1190 4.85484   1
   4  -3   7 24.9968 2.33059   1
   4  -3   7 26.8625 2.49881   1
   4  -3   7 27.4059 1.69312   2
   4  -3   7 27.2961 1.71443   3
  -4   3  -7 27.0090 1.69492   3
  -4   3  -7 26.8493 1.66602   2
  -4   3  -7 27.0128 2.51620   1
  -4   3  -7 27.6280 2.57117   1
   5  -3   7 72.3227 6.73643   1
  -5  -3  -7 93.5723 8.71262   1
   5  -3   7 73.2948 4.42573   3
  -5  -3  -7 64.8598 6.04046   1
   5  -3   7 77.1251 4.51626   2
  -5   3  -7 77.8907 4.59465   2
  -5   3  -7 69.7212 6.49543   1
  -5   3  -7 81.5714 4.94580   3
   5   3   7 106.968 9.95680   1
   6  -3   7 70.1814 4.12570   2
   6  -3   7 80.2531 4.86662   3
  -6   3  -7 68.2185 4.03721   2
   6   3   7 79.3497 7.39484   1
  -6   3  -7 71.8681 4.36999   3
   7  -3   7 46.2960 2.78373   2
   7  -3   7 47.1494 2.93229   3
  -7   3  -7 46.2069 2.86402   3
  -7   3  -7 43.9563 2.65487   2
   8  -3   7 36.5783 2.21896   2
   8  -3   7 37.1533 2.33084   3
  -8   3  -7 37.3269 2.28616   2
   9  -3   7 7.63589 0.69363   2
  -9   3  -7 7.96253 0.75625   2
  -9   3  -7 7.50433 0.73983   3
  10  -3   7 33.9636 2.20840   3
  10  -3   7 32.5955 2.01109   2
 -10   3  -7 31.7895 2.07608   3
 -10   3  -7 28.8500 1.81207   2
  11  -3   7 11.6824 0.91037   2
 -11   3  -7 12.4530 0.98946   2
  13  -3   7 6.34157 0.70238   2
 -13   3  -7 6.92274 0.77971   2
  14  -3   7 2.35936 0.56957   2
 -14   3  -7 2.02618 0.67082   2
  15  -3   7 7.57860 0.75543   2
 -15   3  -7 9.61816 0.90554   2
  16  -3   7 8.32807 0.82723   2
 -16   3  -7 8.91309 0.88936   2
  19  -4  -7 1.19392 0.62523   2
 -19   4   7 1.63780 0.73515   2
 -19   4   7 0.65941 0.75137   3
  18  -4  -7 -0.7389 0.78388   3
  18  -4  -7 -0.0215 0.59433   2
 -18   4   7 0.00000 0.75502   2
  18   4  -7 0.28148 0.98533   3
 -17  -4   7 0.23778 0.72666   3
  17  -4  -7 -0.9090 0.63318   2
  17  -4  -7 1.54560 0.85019   3
 -17   4   7 1.54070 0.77804   3
  17   4  -7 1.13509 0.87982   3
 -17   4   7 -0.6298 0.67718   2
 -17   4   7 0.00000 0.69998   3
 -16  -4   7 3.35174 0.75496   3
  16  -4  -7 2.37150 0.85081   3
  16  -4  -7 2.81362 0.66309   2
  16   4  -7 1.39547 0.85295   3
 -16   4   7 3.06444 0.72617   2
 -16   4   7 2.17094 0.89208   3
  15  -4  -7 14.2316 1.25241   3
 -15  -4   7 14.4102 1.15199   3
 -15   4   7 16.6332 1.25347   2
 -15   4   7 13.3028 1.17533   3
  15   4  -7 13.1724 1.15198   2
  15   4  -7 14.2928 1.24539   3
  14  -4  -7 2.48215 0.75710   3
 -14  -4   7 3.48371 0.73820   3
 -14  -4   7 1.69725 1.59327   2
  14   4  -7 2.63834 0.85701   3
 -14   4   7 2.21367 0.82129   3
 -14   4   7 3.03555 0.78000   2
  14   4  -7 3.14372 0.75125   2
 -13  -4   7 8.90351 0.90127   3
  13  -4  -7 8.76063 0.94018   3
  13   4  -7 8.18064 0.96768   3
 -13   4   7 9.75928 0.97929   2
 -13   4   7 9.56152 0.99184   3
  12  -4  -7 28.3605 1.80785   2
 -12  -4   7 29.1402 1.92467   3
  12  -4  -7 24.7924 1.69057   3
  12   4  -7 26.6391 1.83078   3
 -12   4   7 23.8741 1.64089   3
  12   4  -7 27.1560 1.77532   2
  11  -4  -7 4.16730 0.61303   2
 -11  -4   7 2.17489 1.46437   2
  11  -4  -7 3.40147 0.64980   3
 -11  -4   7 3.60091 0.64179   3
 -11   4   7 4.16829 0.66665   3
  11   4  -7 2.94426 0.67334   2
  10  -4  -7 1.14248 0.54198   2
 -10  -4   7 -0.3073 1.25523   2
 -10   4   7 0.70148 0.61208   3
  10   4  -7 1.72198 0.57759   2
 -10   4   7 1.95271 0.63521   2
  10   4  -7 0.56624 0.57106   3
  -9  -4   7 18.0739 1.25565   3
   9  -4  -7 18.9629 1.24712   2
  -9   4   7 21.3569 1.41282   2
   9   4  -7 18.6236 1.28852   3
  -9   4   7 18.6913 1.35041   3
   9   4  -7 16.3602 1.14648   2
   8  -4  -7 21.8910 1.44642   3
  -8  -4   7 20.6240 1.41847   3
   8  -4  -7 19.4393 1.25073   2
   8   4  -7 22.1658 1.48665   3
   8   4  -7 21.7259 1.41244   2
  -6  -4   7 0.81188 0.46767   2
   6  -4  -7 -0.0449 0.46904   3
  -6  -4   7 0.63158 0.47920   3
   6   4  -7 1.54449 0.46121   3
   6   4  -7 0.76933 0.12794   1
  -6   4   7 1.21072 0.43593   3
   6   4  -7 0.46360 0.48324   2
  -5  -4   7 0.04204 0.46253   3
  -5   4   7 -0.1347 0.06007   1
  -5   4   7 -0.1071 0.08491   1
   5   4  -7 -0.0657 0.45781   3
  -4  -4   7 16.8640 1.14675   3
   4  -4  -7 20.1284 1.88286   1
  -4  -4   7 20.7673 1.35810   2
   4  -4  -7 17.2266 1.16875   3
  -4  -4   7 17.7837 1.65894   1
   4   4  -7 16.8761 1.14846   3
   4   4  -7 19.9420 1.86436   1
  -4   4   7 17.7802 1.19503   3
  -3  -4   7 86.4184 5.05946   2
  -3  -4   7 76.7451 4.64541   3
  -3  -4   7 72.5844 6.75896   1
   3  -4  -7 65.8623 6.13273   1
   3  -4  -7 80.6930 4.88371   3
  -3   4   7 76.2341 4.60418   3
   3   4  -7 73.4852 6.83991   1
   3   4  -7 77.8608 4.71272   3
  -2  -4   7 46.8420 4.36144   1
  -2  -4   7 40.7989 2.50477   3
  -2  -4   7 43.8220 4.08190   1
  -2  -4   7 41.3206 2.47183   2
   2  -4  -7 44.0105 2.70326   3
  -2   4   7 44.3947 2.72132   3
   2   4  -7 39.5832 3.69268   1
   2   4  -7 41.1826 2.53595   3
  -1  -4   7 31.8164 2.97059   1
  -1  -4   7 36.3270 2.23733   3
   1  -4  -7 37.8255 2.34696   3
  -1  -4   7 39.9270 2.41653   2
   1   4  -7 39.7807 3.71009   1
   1   4  -7 33.4828 3.11927   1
  -1   4   7 35.5663 2.19476   3
   0  -4   7 79.1680 4.78615   3
   0   4   7 80.4372 4.85171   3
   0   4  -7 85.9420 5.18880   3
  -1  -4  -7 9.48472 0.71490   3
  -1   4  -7 10.2851 0.76002   3
  -1   4  -7 9.45370 0.88299   1
   2  -4   7 -0.3754 0.38875   3
  -2  -4  -7 0.54013 0.34282   3
   2  -4   7 0.57663 0.45174   2
  -2   4  -7 0.11148 0.36793   3
  -3  -4  -7 7.63543 0.60706   3
   3  -4   7 7.48150 0.65039   3
   3  -4   7 7.49292 0.65208   2
  -3   4  -7 8.08943 0.63804   3
  -3   4  -7 8.58924 0.72458   2
   4  -4   7 5.36306 0.54796   3
   4  -4   7 4.17673 0.51974   2
  -4   4  -7 4.81208 0.52222   3
  -4   4  -7 5.07197 0.58724   2
   5  -4   7 5.57519 0.58431   2
   5  -4   7 7.16248 0.66125   3
  -5   4  -7 6.00030 0.64804   3
   6  -4   7 -0.6756 0.45552   3
   6  -4   7 0.23762 0.43801   2
  -6   4  -7 0.56641 0.40744   3
   7  -4   7 21.7354 1.50824   3
  -7   4  -7 18.2154 1.23180   3
  -7   4  -7 19.2644 1.31661   2
   8  -4   7 0.55604 0.61172   3
  -8   4  -7 -0.3533 0.53450   3
  -8   4  -7 0.96031 0.46312   2
   9  -4   7 6.47733 0.77286   3
   9  -4   7 7.56060 0.71532   2
  -9   4  -7 8.69617 0.82884   2
  10  -4   7 44.6598 2.70875   2
  10  -4   7 49.3446 3.11862   3
 -10   4  -7 46.7317 2.95611   3
 -10   4  -7 44.1750 2.69153   2
  11  -4   7 0.06759 0.41530   2
  11  -4   7 0.41838 0.69043   3
 -11   4  -7 0.52563 0.70970   3
 -11   4  -7 -0.3540 0.56073   2
  12  -4   7 5.10069 0.62981   2
  12  -4   7 4.73929 0.71582   3
 -12   4  -7 4.28333 0.62644   2
 -12   4  -7 4.14165 0.75095   3
  13  -4   7 17.8426 1.24968   2
 -13   4  -7 17.5218 1.25361   2
  14  -4   7 1.04001 0.49492   2
 -14   4  -7 2.45479 0.67461   2
  15  -4   7 0.95194 0.54835   2
 -15   4  -7 0.67816 0.63480   2
  18  -5  -7 13.3005 1.19717   3
 -18   5   7 15.0466 1.23741   3
 -18   5   7 12.7664 1.15539   3
  17  -5  -7 8.83317 1.04868   3
  17   5  -7 6.68074 1.00267   3
 -17   5   7 9.53271 1.12203   3
  16  -5  -7 20.9130 1.53764   3
 -16  -5   7 23.9052 1.70762   3
 -16   5   7 21.0537 1.53799   2
 -16   5   7 20.4646 1.51409   3
  16   5  -7 22.8043 1.67059   3
  15  -5  -7 29.9341 1.94301   2
  15  -5  -7 29.1371 1.96510   3
 -15  -5   7 28.5407 1.94739   3
 -15   5   7 27.1105 1.83603   3
 -15   5   7 27.2423 1.85033   2
  15   5  -7 27.8359 1.88548   3
 -14  -5   7 16.3880 1.30700   3
  14  -5  -7 18.7856 1.35701   2
  14  -5  -7 15.9207 1.26754   3
  14   5  -7 16.9921 1.35833   3
 -14   5   7 16.4678 1.32786   2
 -14   5   7 16.1812 1.28823   3
  13  -5  -7 10.4867 0.98588   3
  13  -5  -7 12.3165 1.04255   2
 -13  -5   7 11.4603 1.03770   3
 -13   5   7 9.25468 0.94736   2
  13   5  -7 11.9388 1.08613   3
 -13   5   7 8.75366 0.93022   3
  12  -5  -7 0.49770 0.57338   2
  12  -5  -7 -0.7160 0.63525   3
 -12  -5   7 -0.2173 0.63745   3
 -12   5   7 -0.8977 0.72768   3
  12   5  -7 -0.1862 0.64001   3
 -11  -5   7 0.86605 0.64379   3
  11   5  -7 1.03986 0.73920   2
 -11   5   7 2.65729 0.75027   3
  11   5  -7 1.12856 0.68415   3
  10  -5  -7 14.9582 1.19095   3
 -10  -5   7 17.4278 1.25935   3
 -10  -5   7 16.9488 1.22769   2
  10   5  -7 14.8978 1.15609   2
   9  -5  -7 67.8602 4.17502   3
   9   5  -7 56.8159 3.49621   3
  -9   5   7 65.2813 4.04857   3
  -8  -5   7 79.6599 4.86016   3
  -8  -5   7 76.1872 4.49469   2
   8  -5  -7 83.9574 5.10765   3
  -8   5   7 81.1171 4.94313   3
   8   5  -7 83.1745 4.91310   2
   8   5  -7 82.3286 5.00584   3
  -7  -5   7 72.9410 4.45033   3
   7  -5  -7 73.9848 4.50753   3
  -7  -5   7 76.5689 4.51912   2
   7   5  -7 73.1952 4.35012   2
   7   5  -7 76.2667 4.64571   3
  -7   5   7 80.4885 4.90300   3
   6  -5  -7 105.389 6.36601   3
  -6  -5   7 107.163 6.48241   3
  -6  -5   7 120.790 7.05555   2
   6   5  -7 108.325 6.53484   3
  -6   5   7 112.570 6.80540   3
  -5  -5   7 101.162 5.92041   2
   5  -5  -7 101.747 6.15500   3
  -5  -5   7 100.623 6.09168   3
  -5   5   7 109.579 6.62283   3
   5   5  -7 101.403 6.12516   3
   4  -5  -7 37.0249 2.32061   3
  -4  -5   7 36.2766 2.25950   3
   4   5  -7 37.4855 2.33063   3
   4   5  -7 40.0992 2.44708   2
  -4   5   7 40.9417 2.54646   3
  -3  -5   7 26.3461 1.66454   2
  -3  -5   7 26.8885 1.73035   3
   3  -5  -7 24.9895 1.60770   3
   3   5  -7 25.2717 1.62245   3
  -3   5   7 24.1643 1.56499   3
   3   5  -7 24.2329 1.51566   2
  -2  -5   7 23.2370 1.49673   3
  -2  -5   7 25.1837 1.57954   2
   2  -5  -7 27.2632 1.75552   3
  -2   5   7 25.0064 1.60213   3
   2   5  -7 24.6554 1.56375   2
   2   5  -7 24.1324 1.54158   3
  -1  -5   7 8.94443 0.75525   2
  -1  -5   7 8.72506 0.70539   3
   1   5  -7 8.66225 0.70567   3
  -1   5   7 7.69895 0.64492   3
   1   5  -7 9.55876 0.80195   2
   0  -5   7 1.64241 0.49936   2
   0  -5  -7 1.55184 0.41532   3
   0  -5   7 1.51543 0.42875   3
   0   5  -7 1.50812 0.42772   2
   0   5  -7 2.28767 0.46430   3
   1  -5   7 33.6696 2.08617   2
  -1  -5  -7 29.5031 1.87275   3
   1  -5   7 31.0114 1.94329   3
  -1   5  -7 31.6431 1.98898   3
   1   5   7 32.2830 2.01818   3
  -2  -5  -7 30.9259 1.94403   3
   2  -5   7 30.4938 1.87795   2
   2   5   7 31.4806 1.99615   3
  -2   5  -7 31.8638 2.01395   3
  -2   5  -7 31.0828 1.93731   2
   3  -5   7 61.8454 3.66993   2
   3  -5   7 65.4768 3.98405   3
  -3  -5  -7 52.0557 3.20283   3
  -3   5  -7 64.2199 3.91580   3
  -3   5  -7 66.5506 3.95940   2
   4  -5   7 107.435 6.28920   2
   4  -5   7 107.025 6.48064   3
  -4   5  -7 97.6994 5.91267   3
  -4   5  -7 104.031 6.09375   2
   5  -5   7 69.6408 4.25981   3
   5  -5   7 76.3462 4.52881   2
  -5   5  -7 70.7797 4.31412   3
  -5   5  -7 72.9121 4.33928   2
   6  -5   7 106.732 6.25074   2
   6  -5   7 111.254 6.72346   3
  -6   5  -7 111.732 6.56382   2
  -6   5  -7 116.928 7.07524   3
   7  -5   7 54.4911 3.27602   2
   7  -5   7 57.8375 3.57493   3
  -7   5  -7 55.6492 3.34538   2
  -7   5  -7 53.4822 3.30224   3
   8  -5   7 1.85693 0.72962   3
   8  -5   7 0.68548 0.52649   2
  -8   5  -7 1.14904 0.58553   2
  -8   5  -7 1.15193 0.60929   3
   9  -5   7 8.54695 0.75808   2
   9  -5   7 9.17387 0.88890   3
  -9   5  -7 9.05730 0.83840   2
  10  -5   7 1.93945 0.54563   2
 -10   5  -7 1.29619 0.65048   3
 -10   5  -7 1.68784 0.62227   2
  11  -5   7 2.44943 0.63562   2
  11  -5   7 2.35649 0.78032   3
 -11   5  -7 2.52926 0.77716   3
 -11   5  -7 2.65346 0.73964   2
  12  -5   7 3.90905 0.64722   2
 -12   5  -7 4.61536 0.73794   2
  13  -5   7 16.3842 1.17955   2
 -13   5  -7 16.4754 1.25648   2
  16  -6  -7 0.48409 0.77224   3
 -16   6   7 1.67305 0.85163   3
  15  -6  -7 6.13298 0.86592   3
 -15   6   7 5.45514 0.87270   3
 -14  -6   7 10.2114 0.93910   3
  14  -6  -7 10.0281 1.01788   3
 -14   6   7 11.7403 1.06404   3
  14   6  -7 10.9776 1.04968   3
 -13  -6   7 7.77788 0.85360   3
  13  -6  -7 7.73202 0.88810   3
  13   6  -7 9.89790 0.98793   3
 -13   6   7 7.95845 0.90104   3
 -12  -6   7 13.7544 1.12171   3
  12   6  -7 12.0006 1.05707   3
 -12   6   7 10.9350 1.02257   3
  11  -6  -7 23.9493 1.63820   3
 -11  -6   7 23.6818 1.60283   3
  11   6  -7 23.4893 1.65864   3
 -10  -6   7 24.8449 1.64745   3
  10  -6  -7 24.5759 1.68765   3
 -10   6   7 25.5944 1.77093   3
  10   6  -7 25.8669 1.73382   3
   9  -6  -7 7.74686 0.83134   3
  -9  -6   7 7.57443 0.81402   3
  -9   6   7 7.53407 0.79099   3
   8  -6  -7 8.51470 0.87131   3
  -8   6   7 7.63185 0.88672   3
  -7  -6   7 11.8210 1.00691   3
   7  -6  -7 13.3302 1.05349   3
  -7   6   7 12.6768 1.02203   3
   7   6  -7 13.2612 1.07019   3
  -6  -6   7 1.42550 0.54550   3
   6  -6  -7 0.74476 0.54625   3
   6   6  -7 0.94188 0.55119   3
  -6   6   7 1.36334 0.52270   3
  -5  -6   7 6.09884 0.65049   3
   5  -6  -7 5.74662 0.71048   3
   5   6  -7 7.39862 0.70917   3
  -5   6   7 7.33823 0.73429   3
   4  -6  -7 2.76091 0.58076   3
  -4  -6   7 2.79875 0.55155   3
  -4  -6   7 2.00219 0.53651   2
   4   6  -7 2.92598 0.55893   3
   4   6  -7 2.34832 0.54116   2
  -4   6   7 3.20000 0.56066   3
  -3  -6   7 15.6792 1.13059   2
  -3  -6   7 17.5779 1.23989   3
   3  -6  -7 16.8237 1.20515   3
   3   6  -7 17.1425 1.19365   3
  -3   6   7 16.7580 1.17069   3
   3   6  -7 19.3655 1.33639   2
   2  -6  -7 91.4686 5.55634   3
  -2  -6   7 87.2195 5.29236   3
  -2   6   7 89.8741 5.45303   3
   2   6  -7 88.8453 5.38152   3
  -1  -6   7 33.6808 2.09197   2
   1  -6  -7 33.4580 2.12928   3
  -1  -6   7 32.9634 2.09655   3
   1   6  -7 31.4857 1.95342   2
  -1   6   7 27.3494 1.75053   3
   1   6  -7 33.1160 2.08557   3
   0  -6   7 14.8878 1.06332   2
   0  -6   7 16.5509 1.16164   3
   0  -6  -7 18.1365 1.27789   3
   0   6  -7 17.0855 1.18804   3
   0   6  -7 15.9557 1.15030   2
   0   6   7 15.4361 1.08241   3
   1  -6   7 58.1551 3.50384   2
   1  -6   7 58.8381 3.61535   3
  -1  -6  -7 57.2985 3.52359   3
  -1   6  -7 57.2508 3.44975   2
   1   6   7 57.1775 3.51736   3
   2  -6   7 33.3951 2.10423   2
   2  -6   7 30.9954 1.97259   3
  -2  -6  -7 28.7351 1.86824   3
  -2   6  -7 29.0759 1.84954   3
   3  -6   7 11.0080 0.88128   2
   3  -6   7 11.7537 0.95502   3
  -3   6  -7 12.5877 0.95079   3
  -4   6  -7 1.30346 0.63230   2
  -4   6  -7 1.21243 0.52853   3
   5  -6   7 1.59187 0.53303   3
  -5   6  -7 1.36679 0.64055   2
  -5   6  -7 1.93008 0.54322   3
   6  -6   7 1.52840 0.58696   2
   6  -6   7 1.31302 0.56314   3
  -6   6  -7 1.93621 0.65609   2
  -6   6  -7 0.95259 0.58495   3
   7  -6   7 0.89159 0.57943   2
   7  -6   7 0.44230 0.58392   3
  -7   6  -7 0.83383 0.60672   2
  -7   6  -7 0.17753 0.56151   3
   8  -6   7 6.86259 0.90737   3
   8  -6   7 8.27033 0.78574   2
  -8   6  -7 8.05575 0.86206   3
  -8   6  -7 7.39710 0.79142   2
   9  -6   7 14.2385 1.18096   3
   9  -6   7 15.1981 1.10676   2
  -9   6  -7 14.6583 1.13904   2
  -9   6  -7 13.7961 1.11901   3
  10  -6   7 13.7935 1.02967   2
 -10   6  -7 13.5053 1.03670   2
 -11   6  -7 5.13626 0.77095   2
  12  -7  -7 0.84717 0.69305   3
 -12   7   7 0.77952 0.73147   3
 -11  -7   7 -0.1142 0.65325   3
  11  -7  -7 0.85584 0.65185   3
 -11   7   7 -0.9640 0.76456   3
  11   7  -7 -0.7550 0.65956   3
 -10  -7   7 -0.4087 0.59160   3
  10  -7  -7 -0.6040 0.61698   3
  10   7  -7 -0.4550 0.61431   3
 -10   7   7 0.25762 0.66132   3
  -9  -7   7 0.02145 0.63703   3
   9  -7  -7 0.04282 0.63600   3
  -9   7   7 0.57136 0.72170   3
   9   7  -7 -0.9543 0.63904   3
  -8  -7   7 0.60878 0.55016   3
   8  -7  -7 -0.1052 0.60181   3
  -8   7   7 0.40958 0.61661   3
   8   7  -7 -0.5983 0.58768   3
   7  -7  -7 0.47756 0.61676   3
  -7  -7   7 1.33332 0.55881   3
  -7   7   7 0.56253 0.66472   3
   6  -7  -7 1.22956 0.60640   3
   6   7  -7 0.82617 0.57407   3
  -6   7   7 1.85964 0.66665   3
  -5  -7   7 0.67080 0.49993   3
   5  -7  -7 0.26809 0.58988   3
  -5   7   7 1.01408 0.54644   3
   5   7  -7 0.41243 0.52539   3
  -4  -7   7 0.64985 0.55349   3
   4   7  -7 -0.1888 0.48463   3
  -4   7   7 -0.0207 0.63733   3
  -3  -7   7 1.58173 0.50376   3
   3  -7  -7 1.83063 0.64897   3
  -3   7   7 1.80159 0.62358   3
   3   7  -7 1.54417 0.49552   3
   2  -7  -7 2.55172 0.66193   3
  -2  -7   7 2.00954 0.54706   3
  -2   7   7 1.95151 0.58765   3
   2   7  -7 2.74896 0.53513   3
   1  -7  -7 -0.4773 0.61644   3
  -1  -7   7 0.04333 0.52438   3
  -1   7   7 -0.2083 0.54998   3
   1   7  -7 0.08962 0.44368   3
   0  -7  -7 2.19392 0.60935   3
   0  -7   7 3.20235 0.54392   3
   0   7  -7 3.05775 0.53252   3
   1  -7   7 0.60441 0.49255   3
  -1   7  -7 -0.6069 0.54404   3
   2  -7   7 -0.2255 0.49622   3
  -3   7  -7 4.14805 0.57062   3
   4  -7   7 -0.4178 0.53624   3
  -4   7  -7 0.36242 0.49840   3
   5  -7   7 1.99505 0.59191   3
  -5   7  -7 1.67910 0.59116   3
   6  -7   7 -1.2403 0.63350   3
  -6   7  -7 0.52358 0.55202   3
   7  -7   7 2.48240 0.74490   3
  -7   7  -7 3.35135 0.66819   3
   5   8  -7 1.60584 0.56536   3
  -4  -8   7 1.14425 0.53618   3
   4   8  -7 -0.2574 0.54268   3
  -3  -8   7 2.66403 0.57196   3
   3   8  -7 3.17303 0.56155   3
  -2  -8   7 4.38151 0.58231   3
   2   8  -7 2.99600 0.54949   3
  -1  -8   7 4.56486 0.57417   3
   1   8  -7 4.54598 0.63143   3
   0  -8   7 0.79571 0.51067   3
   0   8  -7 1.39356 0.57494   3
   1  -8   7 0.78914 0.57879   3
  -1   8  -7 0.89443 0.51661   3
   2  -8   7 1.77388 0.56823   3
  -2   8  -7 3.08934 0.60879   3
  22   0  -8 10.4403 1.02544   2
  22   0  -8 10.1758 1.22133   3
  21   0  -8 0.74418 0.75018   2
 -21   0   8 0.86477 0.86489   3
  21   0  -8 -1.3650 0.95565   3
  20   0  -8 5.64952 0.84687   2
 -20   0   8 4.46754 1.04023   2
 -20   0   8 5.69028 0.89042   3
  20   0  -8 6.06618 0.98082   3
  19   0  -8 0.57388 0.74049   2
  19   0  -8 0.49531 0.92636   3
 -19   0   8 1.18462 0.80414   3
  18   0  -8 45.0156 2.88821   3
  18   0  -8 48.0965 2.93938   2
 -18   0   8 46.8172 2.98508   3
 -18   0   8 50.4080 3.16633   2
  17   0  -8 104.179 6.12971   2
 -17   0   8 96.8048 5.71434   2
 -17   0   8 105.813 6.43480   3
 -16   0   8 166.262 9.69567   2
  16   0  -8 159.635 9.30326   2
  16   0  -8 156.654 9.45826   3
  15   0  -8 264.783 15.8971   3
 -15   0   8 267.321 15.5140   2
 -15   0   8 276.978 16.6092   3
  15   0  -8 251.686 14.6023   2
  14   0  -8 285.707 16.5624   2
  14   0  -8 294.876 17.6850   3
 -14   0   8 295.762 17.1533   2
 -14   0   8 309.728 18.5765   3
  13   0  -8 278.057 16.1206   2
 -13   0   8 289.948 17.3973   3
  13   0  -8 291.908 17.5146   3
 -13   0   8 293.883 17.0198   2
 -12   0   8 164.368 9.88257   3
 -12   0   8 155.289 14.4678   1
  12   0  -8 154.949 9.34290   3
  12   0  -8 149.943 13.9624   1
 -12   0   8 159.657 9.29589   2
  12   0  -8 154.177 14.3536   1
 -12   0   8 142.361 13.2601   1
  12   0  -8 152.534 8.87983   2
  11   0  -8 101.475 5.93669   2
 -11   0   8 117.380 7.09653   3
 -11   0   8 114.623 6.71427   2
 -11   0   8 97.7156 9.10219   1
  11   0  -8 103.416 6.26739   3
  11   0  -8 97.1547 9.04691   1
 -11   0   8 95.7788 8.91760   1
  11   0  -8 96.1728 8.95523   1
 -10   0   8 1.23273 0.16294   1
 -10   0   8 0.71421 0.12746   1
  10   0  -8 0.58184 0.42901   2
 -10   0   8 0.63003 0.48390   2
  10   0  -8 0.79439 0.12743   1
  10   0  -8 0.64371 0.10492   1
  10   0  -8 -0.2514 0.58085   3
  -9   0   8 0.51844 0.48351   2
   9   0  -8 0.45214 0.43865   2
   9   0  -8 0.48129 0.58523   3
   8   0  -8 146.159 8.49819   2
   8   0  -8 175.243 10.5352   3
  -8   0   8 184.426 10.7089   2
  -8   0   8 156.864 14.6067   1
   8   0  -8 163.637 15.2381   1
  -8   0   8 165.242 15.3876   1
   8   0  -8 146.890 13.6846   1
  -7   0   8 468.669 43.6378   1
   7   0  -8 467.547 43.5241   1
   7   0  -8 478.983 44.5910   1
  -7   0   8 484.223 28.9621   3
  -7   0   8 514.587 47.9060   1
  -7   0   8 492.681 28.4830   2
   7   0  -8 449.009 25.9498   2
  -6   0   8 354.447 32.9943   1
   6   0  -8 367.822 21.9958   3
  -6   0   8 333.439 31.0572   1
  -6   0   8 343.617 19.8869   2
   6   0  -8 338.436 19.5673   2
  -6   0   8 302.214 18.0985   3
  -5   0   8 1181.84 68.2334   2
  -5   0   8 1114.96 103.831   1
   5   0  -8 1139.04 68.0356   3
  -5   0   8 1142.79 106.418   1
  -4   0   8 525.656 31.4155   3
   4   0  -8 566.565 33.8638   3
   4   0  -8 591.556 55.0869   1
   4   0  -8 583.296 33.6929   2
   4   0  -8 552.451 51.4368   1
  -4   0   8 535.390 49.8621   1
  -4   0   8 527.682 49.1342   1
   3   0  -8 1611.69 150.077   1
   3   0  -8 1550.42 92.6047   3
   3   0  -8 1499.99 86.5983   2
   3   0  -8 1574.39 146.593   1
  -3   0   8 1626.93 97.1465   3
   2   0  -8 2134.56 127.469   3
   2   0  -8 2141.25 199.292   1
  -2   0   8 2240.70 133.866   3
   2   0  -8 1777.01 102.606   2
   2   0  -8 2085.32 194.219   1
   1   0  -8 138.751 12.9194   1
  -1   0   8 132.998 7.70088   2
  -1   0   8 169.411 15.7750   1
   1   0  -8 128.052 7.41561   2
   1   0  -8 144.524 8.65570   3
   1   0  -8 151.891 14.1384   1
  -1   0   8 146.715 13.6614   1
   0   0  -8 437.577 40.7445   1
   0   0  -8 464.318 43.2279   1
   0   0   8 401.075 23.1746   2
   0   0  -8 413.383 23.8769   2
   0   0   8 470.529 43.8073   1
   0   0   8 448.086 41.7285   1
  -1   0  -8 114.706 10.6845   1
  -1   0  -8 97.7848 5.67590   2
  -1   0  -8 117.178 10.9075   1
   1   0   8 110.470 10.2905   1
   1   0   8 102.749 9.56545   1
   1   0   8 102.584 5.96839   2
  -2   0  -8 56.9657 3.35109   2
  -2   0  -8 61.1679 5.70118   1
   2   0   8 55.7804 3.28043   2
  -2   0  -8 59.8070 5.56937   1
   2   0   8 57.7280 5.37805   1
   2   0   8 61.3792 5.71282   1
  -3   0  -8 18.3055 1.70797   1
   3   0   8 18.8884 1.76003   1
  -3   0  -8 19.8282 1.84476   1
  -3   0  -8 18.6827 1.16238   2
   3   0   8 18.8997 1.76425   1
   3   0   8 19.2500 1.17797   2
   4   0   8 283.549 26.4106   1
   4   0   8 255.149 23.7764   1
  -4   0  -8 281.561 26.2226   1
  -4   0  -8 265.234 15.3578   2
   4   0   8 280.013 16.2106   2
  -4   0  -8 253.370 23.5951   1
   5   0   8 1113.02 103.623   1
  -5   0  -8 972.689 90.5916   1
   5   0   8 1043.55 60.2703   2
   5   0   8 997.952 92.9261   1
  -5   0  -8 1029.75 59.4862   2
  -5   0  -8 1009.53 94.0140   1
  -6   0  -8 187.553 10.8949   2
  -6   0  -8 172.321 16.0531   1
  -6   0  -8 181.812 16.9311   1
   6   0   8 189.473 10.9820   2
   6   0   8 173.868 16.1886   1
   6   0   8 182.015 16.9539   1
   7   0   8 146.753 13.6628   1
   7   0   8 143.464 13.3598   1
  -7   0  -8 138.950 12.9417   1
  -7   0  -8 158.505 9.20883   2
   7   0   8 166.308 9.65299   2
  -7   0  -8 152.761 14.2260   1
   9   0   8 185.840 10.8027   2
  10   0   8 107.771 6.31325   2
 -10   0  -8 110.272 6.48095   2
 -11   0  -8 37.8839 2.34513   2
  11   0   8 42.2478 2.59444   2
  12   0   8 14.0901 1.07634   2
 -12   0  -8 14.1734 1.12721   2
  13   0   8 0.62109 0.63604   2
 -14   0  -8 1.22538 0.79910   2
  15   0   8 5.27721 0.83414   2
 -15   0  -8 5.17566 0.84424   2
  16   0   8 65.0270 3.93274   2
  22  -1  -8 6.22744 0.94274   2
  22  -1  -8 5.96505 1.03628   3
 -22  -1   8 0.28576 1.28702   2
 -22   1   8 3.60384 0.91714   3
  22   1  -8 6.06369 0.91930   2
 -22   1   8 1.90344 0.87728   2
  21  -1  -8 31.0072 2.02760   2
 -21  -1   8 32.5931 2.21903   3
  21  -1  -8 32.0156 2.20420   3
 -21   1   8 27.9104 1.89930   2
  21   1  -8 31.1189 2.17442   3
  21   1  -8 35.8139 2.31829   2
 -21   1   8 31.9668 2.12281   3
 -20  -1   8 20.6448 1.56223   3
  20  -1  -8 19.1238 1.43686   3
  20  -1  -8 20.3909 1.44493   2
  20   1  -8 20.0607 1.49791   2
 -20   1   8 19.3588 1.41700   2
 -20   1   8 21.7043 1.58808   3
  20   1  -8 20.3595 1.62464   3
 -19  -1   8 29.4489 1.99770   3
  19  -1  -8 28.9734 1.98005   3
  19  -1  -8 28.7928 1.84572   2
 -19   1   8 29.8704 1.97062   2
  19   1  -8 29.1050 1.95623   2
  19   1  -8 28.5316 1.99604   3
 -19   1   8 29.8665 2.01212   3
  18  -1  -8 36.8652 2.32321   2
 -18  -1   8 30.5210 2.04523   3
  18   1  -8 32.2709 2.22032   3
 -18   1   8 35.2800 2.24131   2
 -18   1   8 31.0377 2.05374   3
 -17  -1   8 3.96278 0.81582   3
  17  -1  -8 2.50970 0.75809   3
  17   1  -8 3.81596 0.97517   3
  17   1  -8 4.43817 0.86128   2
 -17   1   8 6.42702 0.76612   2
 -16  -1   8 2.50262 0.70966   3
  16  -1  -8 1.99041 0.57993   2
  16  -1  -8 2.56370 0.79416   3
  16   1  -8 4.21360 0.67427   2
 -16   1   8 0.94467 0.76584   3
  15  -1  -8 -0.8260 0.71594   3
  15  -1  -8 -0.0228 0.52601   2
  15   1  -8 0.77355 0.56712   2
 -15   1   8 0.09830 0.67592   3
  15   1  -8 0.59459 0.68139   3
 -15   1   8 1.09635 0.57891   2
  14  -1  -8 0.11351 0.52307   2
  14  -1  -8 -0.1013 0.66869   3
 -14  -1   8 -0.5104 0.65019   3
 -14   1   8 -0.1744 0.65775   3
  14   1  -8 0.04690 0.51327   2
  14   1  -8 1.22617 0.75880   3
 -14   1   8 -0.2738 0.60451   2
 -13  -1   8 55.2959 3.34411   2
 -13  -1   8 51.8613 3.22702   3
  13  -1  -8 51.2049 3.08576   2
  13  -1  -8 53.7069 3.33443   3
 -13   1   8 52.6763 3.15809   2
 -13   1   8 53.4541 3.29811   3
  13   1  -8 51.3243 3.20484   3
  13   1  -8 55.0447 3.27751   2
 -12  -1   8 61.7176 3.71717   2
 -12  -1   8 57.0951 5.31948   1
  12  -1  -8 62.4863 5.82182   1
  12  -1  -8 61.5852 3.78904   3
 -12  -1   8 63.2793 3.88553   3
  12   1  -8 58.8531 5.47968   1
 -12   1   8 61.2873 3.76712   3
  12   1  -8 64.1603 3.79483   2
 -12   1   8 62.2807 3.71228   2
  12   1  -8 64.1805 3.93846   3
  11  -1  -8 95.3395 8.87947   1
 -11  -1   8 94.1263 8.76702   1
  11  -1  -8 97.4735 9.08554   1
 -11  -1   8 93.1971 8.68232   1
 -11   1   8 101.839 5.95901   2
  11   1  -8 95.9648 8.93327   1
  11   1  -8 97.7027 9.10260   1
  10  -1  -8 264.626 15.3288   2
 -10  -1   8 244.334 22.7610   1
  10  -1  -8 261.684 24.3861   1
 -10  -1   8 320.329 18.5694   2
  10  -1  -8 252.639 15.1578   3
  10  -1  -8 244.456 22.7740   1
 -10  -1   8 249.953 23.2810   1
 -10  -1   8 271.121 16.2370   3
  10   1  -8 248.106 14.3716   2
 -10   1   8 253.042 15.1587   3
  10   1  -8 268.949 25.0336   1
 -10   1   8 224.814 20.9441   1
  10   1  -8 263.219 15.7849   3
  10   1  -8 256.871 23.9155   1
  -9  -1   8 288.532 26.8678   1
   9  -1  -8 304.136 28.3197   1
  -9  -1   8 304.256 28.3295   1
   9  -1  -8 296.599 27.6271   1
  -9  -1   8 298.658 17.8927   3
  -9  -1   8 327.121 18.9239   2
   9  -1  -8 283.152 16.3854   2
   9  -1  -8 304.866 18.2640   3
   9   1  -8 301.995 18.0754   3
  -9   1   8 261.818 24.3957   1
   9   1  -8 288.708 16.7093   2
  -9   1   8 312.127 18.6900   3
   9   1  -8 299.302 27.8759   1
   9   1  -8 287.611 26.7687   1
  -9   1   8 288.882 26.9195   1
  -8  -1   8 392.048 36.5117   1
   8  -1  -8 355.545 20.5865   2
   8  -1  -8 387.331 36.0723   1
  -8  -1   8 391.080 23.4141   3
   8  -1  -8 396.675 36.9417   1
  -8  -1   8 427.734 39.8267   1
  -8  -1   8 400.991 23.2153   2
  -8   1   8 374.050 22.3782   3
   8   1  -8 377.027 35.1038   1
   8   1  -8 440.128 40.9568   1
   8   1  -8 390.997 23.3986   3
  -8   1   8 362.495 20.9632   2
   8   1  -8 378.999 21.9324   2
  -8   1   8 379.124 35.3056   1
  -8   1   8 384.785 35.8320   1
   7  -1  -8 106.562 9.91916   1
   7  -1  -8 104.759 9.75526   1
  -7  -1   8 119.897 7.01139   2
  -7  -1   8 102.307 9.52432   1
   7  -1  -8 110.430 6.67147   3
  -7  -1   8 112.184 10.4506   1
   7  -1  -8 107.655 6.25003   2
  -7  -1   8 109.725 6.60796   3
  -7   1   8 103.039 6.20774   3
  -7   1   8 106.970 9.96158   1
   7   1  -8 101.738 9.48123   1
  -7   1   8 104.315 9.70981   1
   7   1  -8 108.901 10.1423   1
   7   1  -8 112.969 6.79125   3
  -7   1   8 107.410 6.25634   2
   7   1  -8 103.388 6.03264   2
  -6  -1   8 453.043 42.1784   1
   6  -1  -8 477.104 44.4256   1
   6  -1  -8 423.068 24.4508   2
  -6  -1   8 461.939 27.6178   3
  -6  -1   8 474.251 44.1531   1
   6  -1  -8 427.235 25.5646   3
   6  -1  -8 348.019 32.4040   1
  -6  -1   8 447.737 25.8956   2
   6   1  -8 458.841 27.4545   3
   6   1  -8 448.872 41.8009   1
  -6   1   8 507.376 47.2395   1
   6   1  -8 446.529 41.5705   1
  -6   1   8 434.345 25.1253   2
  -6   1   8 454.099 42.2752   1
   6   1  -8 424.152 24.5168   2
   5  -1  -8 99.4998 5.77227   2
  -5  -1   8 96.8159 5.69755   2
  -5  -1   8 100.043 9.31606   1
   5  -1  -8 102.483 9.54076   1
  -5  -1   8 105.026 9.77671   1
   5  -1  -8 101.465 6.11249   3
  -5  -1   8 110.142 6.62351   3
   5  -1  -8 96.4134 8.98120   1
   5   1  -8 94.1819 5.47469   2
  -5   1   8 99.8812 9.30074   1
   5   1  -8 102.422 9.53634   1
  -5   1   8 95.3894 5.73915   3
   5   1  -8 99.2397 9.24241   1
  -5   1   8 118.826 11.0626   1
  -5   1   8 105.986 6.15938   2
   4  -1  -8 231.461 21.5552   1
   4  -1  -8 232.909 13.9553   3
  -4  -1   8 214.517 19.9881   1
  -4  -1   8 249.459 23.2345   1
  -4  -1   8 295.003 17.0895   2
   4  -1  -8 216.044 12.4929   2
   4  -1  -8 259.252 24.1362   1
   4   1  -8 220.789 12.7748   2
   4   1  -8 226.956 21.1239   1
   4   1  -8 238.386 14.2682   3
   4   1  -8 237.167 22.0798   1
  -4   1   8 211.150 12.6332   3
  -4   1   8 248.586 23.1438   1
  -4   1   8 225.217 20.9683   1
   3  -1  -8 3.15120 0.30579   1
  -3  -1   8 3.80137 0.36234   1
   3  -1  -8 3.88064 0.37111   1
  -3  -1   8 3.13001 0.38854   3
   3  -1  -8 2.72491 0.38990   3
   3  -1  -8 3.62669 0.36127   2
   3   1  -8 3.52326 0.34190   1
  -3   1   8 2.93034 0.28202   1
   3   1  -8 3.02018 0.39260   2
  -3   1   8 3.69302 0.35468   3
  -3   1   8 4.23049 0.40392   1
   3   1  -8 2.85794 0.39320   3
   2  -1  -8 160.111 14.9055   1
   2  -1  -8 118.077 6.83601   2
  -2  -1   8 133.996 7.77808   2
   2  -1  -8 134.498 12.5191   1
  -2  -1   8 133.546 12.4385   1
   2  -1  -8 127.005 7.60240   3
  -2  -1   8 135.594 8.11918   3
  -2   1   8 119.087 11.0888   1
   2   1  -8 148.247 13.8047   1
   2   1  -8 121.098 7.04221   2
   2   1  -8 127.855 11.9021   1
   2   1  -8 129.881 7.77713   3
  -2   1   8 137.955 12.8443   1
   1  -1  -8 248.081 23.1112   1
  -1  -1   8 214.365 19.9604   1
  -1  -1   8 206.602 12.3660   3
   1  -1  -8 200.226 18.6411   1
   1  -1  -8 200.488 11.9855   3
  -1  -1   8 176.570 10.2171   2
   1  -1  -8 204.565 11.8449   2
  -1  -1   8 200.462 18.6698   1
   1   1  -8 231.182 13.8274   3
  -1   1   8 206.036 19.1933   1
   1   1  -8 214.266 19.9550   1
  -1   1   8 265.156 24.6887   1
   1   1  -8 195.578 11.3415   2
   0  -1  -8 226.541 21.0765   1
   0  -1  -8 196.565 11.3850   2
   0  -1   8 180.531 16.8121   1
   0  -1   8 180.236 10.4326   2
   0  -1  -8 205.611 19.1461   1
   0  -1   8 190.022 17.7002   1
   0   1   8 209.438 19.5039   1
   0   1   8 195.377 18.1996   1
   0   1  -8 179.079 10.3637   2
   0   1  -8 204.533 12.2381   3
   0   1  -8 188.954 17.6022   1
   0   1  -8 196.650 18.3035   1
  -1  -1  -8 528.930 49.2441   1
  -1  -1  -8 484.231 27.9621   2
  -1  -1  -8 513.471 47.8076   1
   1  -1   8 412.518 38.4174   1
   1  -1   8 448.890 25.9539   2
   1  -1   8 438.197 40.7968   1
  -1   1  -8 450.774 26.9412   3
  -1   1  -8 466.221 43.4189   1
   1   1   8 437.434 40.7440   1
  -1   1  -8 440.516 25.4628   2
   1   1   8 498.371 46.4100   1
  -1   1  -8 446.844 41.6106   1
   2  -1   8 264.987 15.3231   2
   2  -1   8 266.478 24.8247   1
   2  -1   8 265.697 24.7411   1
  -2  -1  -8 324.280 30.1888   1
  -2  -1  -8 276.771 25.7681   1
  -2  -1  -8 270.938 15.6729   2
   2   1   8 314.845 29.3211   1
   2   1   8 273.520 25.4706   1
  -3  -1  -8 169.751 9.82831   2
   3  -1   8 167.228 15.5701   1
  -3  -1  -8 175.071 16.3036   1
  -3  -1  -8 159.440 14.8487   1
   3  -1   8 174.303 10.0973   2
   3  -1   8 176.757 16.4581   1
   3   1   8 176.297 16.4139   1
  -3   1  -8 166.970 15.5502   1
  -3   1  -8 159.753 9.56303   3
  -3   1  -8 177.316 16.5123   1
   3   1   8 172.636 16.0742   1
  -4  -1  -8 191.038 17.7898   1
  -4  -1  -8 177.179 10.2790   2
  -4  -1  -8 172.061 16.0210   1
   4  -1   8 170.385 9.89097   2
  -4   1  -8 187.648 11.2546   3
   4   1   8 173.271 10.0448   2
  -4   1  -8 165.804 15.4447   1
   4   1   8 180.432 16.8132   1
   4   1   8 171.444 15.9610   1
  -4   1  -8 174.951 10.1563   2
  -4   1  -8 170.739 15.9000   1
  -5  -1  -8 124.419 7.23525   2
   5  -1   8 113.370 10.5650   1
   5  -1   8 120.769 11.2497   1
   5   1   8 115.279 10.7391   1
  -5   1  -8 126.797 11.8033   1
   5   1   8 131.562 12.2532   1
  -5   1  -8 104.007 9.68646   1
  -5   1  -8 121.770 7.08428   2
   5   1   8 119.881 6.97241   2
  -5   1  -8 120.025 7.19803   3
   6  -1   8 79.2378 7.38020   1
  -6  -1  -8 70.3180 6.55411   1
   6  -1   8 74.4979 6.93646   1
  -6  -1  -8 75.0761 6.99522   1
  -6   1  -8 69.1636 4.18119   3
  -6   1  -8 67.3873 6.27790   1
  -6   1  -8 79.6309 7.41503   1
  -6   1  -8 83.4986 4.88950   2
   6   1   8 77.5462 4.53399   2
  -7  -1  -8 40.0790 3.73441   1
  -7  -1  -8 45.0947 4.19669   1
   7  -1   8 45.4377 2.73164   2
   7  -1   8 40.9194 3.81526   1
   7  -1   8 45.2180 4.20953   1
  -7   1  -8 41.7376 3.89128   1
   7   1   8 39.6660 3.69277   1
   7   1   8 39.8918 3.71299   1
   7   1   8 42.1509 2.50170   2
  -7   1  -8 42.1082 2.53355   2
   8  -1   8 57.5219 3.41688   2
  -8  -1  -8 53.6268 3.20028   2
  -8   1  -8 58.0356 3.45105   2
   9  -1   8 17.4606 1.17691   2
  -9   1  -8 18.0507 1.25858   2
  10  -1   8 11.5647 0.88924   2
 -10  -1  -8 11.7863 1.00302   2
  10   1   8 12.1455 0.94960   2
 -10   1  -8 12.9145 1.01710   2
  11  -1   8 78.9991 4.67207   2
 -11  -1  -8 76.2776 4.52662   2
 -11   1  -8 80.6115 4.77128   2
  11   1   8 78.0414 4.63910   2
  12  -1   8 49.3454 2.97272   2
 -12  -1  -8 44.9183 2.77039   2
  12   1   8 50.0441 3.06046   2
 -12   1  -8 52.2682 3.19838   2
  13  -1   8 68.9588 4.09294   2
  13   1   8 67.2577 4.05351   2
 -13   1  -8 74.7071 4.45288   2
 -14  -1  -8 9.02733 1.04883   2
  14  -1   8 10.6132 0.93318   2
  14   1   8 8.67753 0.94373   2
 -14   1  -8 9.90252 0.96396   2
  15  -1   8 9.91232 0.92375   2
 -15   1  -8 10.2972 0.99797   2
  16  -1   8 11.8457 1.04239   2
  22  -2  -8 -0.1995 0.79168   2
 -22   2   8 0.48209 0.80785   2
 -21  -2   8 5.79912 1.37198   2
  21  -2  -8 -0.3639 0.85415   3
  21   2  -8 0.00000 0.78699   2
 -21   2   8 -0.6741 0.82406   3
 -21   2   8 -0.1710 0.71409   2
  21   2  -8 1.30236 0.87091   3
 -20   2   8 0.23870 0.69999   2
  20   2  -8 -0.4586 0.84085   3
 -19  -2   8 0.51651 0.74770   3
  19  -2  -8 0.48711 0.71424   2
 -19   2   8 0.68735 0.74079   2
  19   2  -8 1.33727 0.74376   2
  19   2  -8 1.90470 0.84952   3
 -19   2   8 2.07471 0.75189   3
  18  -2  -8 1.06979 0.64191   2
 -18  -2   8 0.27392 0.72326   3
  18  -2  -8 2.08096 0.83758   3
  18   2  -8 0.18435 0.84021   3
  18   2  -8 0.71647 0.74555   2
 -17  -2   8 10.2452 1.00310   3
  17  -2  -8 9.68842 0.87503   2
  17  -2  -8 8.92424 1.03547   3
  17   2  -8 9.35765 1.03592   3
 -17   2   8 7.39980 0.92941   3
  17   2  -8 10.1572 0.93565   2
  14  -2  -8 7.45621 0.87618   3
  14  -2  -8 8.27064 0.73344   2
  14   2  -8 6.88234 0.82811   3
  14   2  -8 6.26303 0.72473   2
 -14   2   8 9.00003 0.87877   3
 -14   2   8 8.38582 0.80989   2
  10  -2  -8 30.7911 2.87176   1
 -10  -2   8 32.1124 2.99437   1
  10  -2  -8 31.2383 2.90937   1
 -10  -2   8 36.6752 3.41543   1
  10  -2  -8 32.8284 1.99799   2
 -10   2   8 31.8909 2.97450   1
 -10   2   8 29.4719 2.75104   1
  10   2  -8 33.3827 2.03288   2
 -10   2   8 33.9149 2.07478   2
   9  -2  -8 3.81774 0.37946   1
  -9  -2   8 4.57455 0.61867   3
  -9  -2   8 3.43999 0.33612   1
   9  -2  -8 3.45422 0.34346   1
   9  -2  -8 4.04547 0.54088   2
  -9   2   8 3.45178 0.53206   2
   9   2  -8 3.42229 0.50563   2
  -9   2   8 3.30525 0.32617   1
  -9   2   8 3.48570 0.61959   3
   9   2  -8 4.53721 0.65993   3
  -9   2   8 3.25352 0.31931   1
  -8  -2   8 20.5780 1.36568   3
   8  -2  -8 22.6000 1.51843   3
   8  -2  -8 19.6955 1.23499   2
   8  -2  -8 17.4413 1.63248   1
   8  -2  -8 20.1229 1.87986   1
  -8   2   8 21.2760 1.46648   3
   8   2  -8 22.8699 2.13851   1
  -8   2   8 19.1711 1.78870   1
   8   2  -8 20.8876 1.38617   3
   8   2  -8 20.1946 1.28456   2
   8   2  -8 20.0518 1.87022   1
  -8   2   8 18.6384 1.73886   1
  -8   2   8 21.5127 1.35649   2
   7  -2  -8 2.50950 0.36805   2
   7  -2  -8 2.06578 0.52666   3
  -7  -2   8 3.48396 0.53991   3
   7  -2  -8 2.25625 0.23259   1
   7   2  -8 1.89657 0.20618   1
  -7   2   8 3.14119 0.30691   1
  -7   2   8 2.23231 0.22961   1
   7   2  -8 1.32351 0.46526   2
   7   2  -8 2.41093 0.54694   3
  -7   2   8 3.31252 0.52644   2
  -6  -2   8 111.099 10.3477   1
   6  -2  -8 112.937 10.5181   1
   6  -2  -8 118.430 7.15136   3
   6  -2  -8 116.295 10.8262   1
  -6  -2   8 109.472 6.59642   3
   6  -2  -8 109.463 6.37053   2
  -6  -2   8 111.397 10.3812   1
   6   2  -8 112.499 6.77392   3
  -6   2   8 118.002 10.9871   1
  -6   2   8 108.030 10.0602   1
  -6   2   8 120.004 6.97454   2
   6   2  -8 107.252 9.98389   1
  -6   2   8 110.510 6.64832   3
   6   2  -8 111.349 10.3727   1
   6   2  -8 108.722 6.33259   2
   5  -2  -8 36.2872 2.23505   3
  -5  -2   8 37.3340 2.29809   3
  -5  -2   8 37.1911 3.46268   1
   5  -2  -8 36.9114 3.43365   1
   5  -2  -8 34.7265 2.05783   2
   5  -2  -8 37.2820 3.47964   1
  -5  -2   8 35.3111 3.29597   1
   5   2  -8 37.5672 3.49718   1
   5   2  -8 36.4993 2.24856   3
  -5   2   8 38.2180 3.56029   1
  -5   2   8 36.0308 3.35822   1
   5   2  -8 36.0534 2.16291   2
  -5   2   8 39.3478 2.41454   3
   5   2  -8 35.9277 3.34353   1
   4  -2  -8 40.3167 2.47679   3
  -4  -2   8 41.6560 3.87911   1
   4  -2  -8 31.6567 2.95170   1
   4  -2  -8 36.8462 2.15913   2
  -4  -2   8 40.0388 2.46505   3
   4  -2  -8 35.6550 3.32320   1
  -4  -2   8 40.0227 3.72614   1
   4   2  -8 40.1229 2.39217   2
   4   2  -8 40.7601 3.79996   1
  -4   2   8 41.9440 2.55954   3
  -4   2   8 38.5548 3.59579   1
   4   2  -8 39.2802 3.65876   1
   3  -2  -8 14.1154 1.31995   1
  -3  -2   8 14.6651 1.36961   1
  -3  -2   8 14.6042 1.35957   1
   3  -2  -8 11.2141 0.76604   3
  -3  -2   8 12.7652 0.86211   2
  -3   2   8 16.8959 1.57799   1
   3   2  -8 15.6790 1.46291   1
   3   2  -8 14.9380 0.99940   3
   3   2  -8 15.1110 1.40868   1
  -3   2   8 12.8323 0.85699   3
   3   2  -8 13.8562 0.92784   2
  -2  -2   8 6.54004 0.61813   1
   2  -2  -8 6.66427 0.52231   3
  -2  -2   8 6.69259 0.56212   2
   2  -2  -8 5.84310 0.54514   1
  -2  -2   8 6.99372 0.54299   3
  -2  -2   8 6.23749 0.59160   1
   2   2  -8 7.26251 0.68728   1
  -2   2   8 5.49118 0.51613   1
   2   2  -8 6.56088 0.54780   2
   2   2  -8 6.17623 0.57698   1
   2   2  -8 7.20764 0.54903   3
  -2   2   8 5.07179 0.47679   1
   1  -2  -8 14.3053 0.93323   3
  -1  -2   8 14.7374 1.37485   1
  -1  -2   8 13.0482 1.21561   1
  -1  -2   8 17.5974 1.14774   2
  -1  -2   8 14.9354 1.00873   3
  -1   2   8 15.0300 1.39657   1
   1   2  -8 13.7282 1.28335   1
   1   2  -8 11.8393 0.78804   3
   1   2  -8 15.5475 1.45302   1
   0  -2   8 10.5866 0.75377   2
   0  -2   8 10.2461 0.96287   1
   0  -2   8 10.5374 0.98706   1
   0  -2   8 9.31620 0.61938   3
   0   2  -8 11.4658 1.06915   1
   0   2  -8 11.0714 0.77235   2
   0   2  -8 9.91374 0.67540   3
   0   2   8 15.1220 1.41060   1
   0   2  -8 9.11576 0.85555   1
   1  -2   8 0.44563 0.24513   3
  -1  -2  -8 0.18550 0.03838   1
   1  -2   8 0.16682 0.07937   1
   1  -2   8 0.04778 0.35776   2
  -1  -2  -8 0.00879 0.05225   1
   1  -2   8 0.05755 0.06846   1
  -1   2  -8 -0.1447 0.36114   2
  -1   2  -8 0.02215 0.24364   3
   2  -2   8 8.54201 0.79940   1
   2  -2   8 10.4867 0.98353   1
  -2  -2  -8 10.0570 0.93502   1
   2  -2   8 9.45344 0.72859   2
   2  -2   8 8.93580 0.61832   3
  -2  -2  -8 11.7967 1.10353   1
  -2   2  -8 9.27871 0.69798   2
  -2   2  -8 9.12992 0.64051   3
  -2   2  -8 9.41154 0.87829   1
   2   2   8 10.7270 1.00239   1
  -2   2  -8 9.84976 0.92709   1
   3  -2   8 0.77601 0.37929   2
  -3  -2  -8 1.10868 0.13190   1
   3  -2   8 0.68191 0.10501   1
  -3   2  -8 0.39051 0.39697   2
  -3   2  -8 0.26437 0.24239   3
  -3   2  -8 0.84123 0.10587   1
   3   2   8 0.88951 0.11760   1
   4  -2   8 5.16562 0.52378   2
  -4  -2  -8 4.93630 0.46798   1
   4  -2   8 4.55321 0.40722   3
  -4  -2  -8 6.20294 0.57824   1
   4  -2   8 4.99560 0.48079   1
   4  -2   8 4.63442 0.44289   1
  -4   2  -8 5.58042 0.47259   3
  -4   2  -8 4.68843 0.44407   1
  -4   2  -8 4.97220 0.53816   2
  -4   2  -8 4.94222 0.46548   1
   5  -2   8 24.1639 2.25122   1
  -5  -2  -8 23.9463 2.23375   1
  -5  -2  -8 25.8954 2.41374   1
   5  -2   8 23.8365 2.22582   1
  -5   2  -8 23.3381 2.18034   1
   5   2   8 27.2191 2.53812   1
  -5   2  -8 24.2881 2.27085   1
   6  -2   8 7.46073 0.69913   1
  -6  -2  -8 8.66993 0.81523   1
   6  -2   8 9.13921 0.72099   2
  -6  -2  -8 7.30068 0.68520   1
   6   2   8 8.56900 0.80301   1
  -6   2  -8 8.05091 0.75995   1
  -6   2  -8 8.93514 0.73006   2
  -6   2  -8 8.51406 0.68046   3
   6   2   8 7.75782 0.72879   1
   7  -2   8 0.25741 0.41192   3
   7  -2   8 0.97421 0.43800   2
  -7   2  -8 0.86209 0.48318   2
  -7   2  -8 0.71045 0.41686   3
   8  -2   8 46.9630 2.80909   2
  -8   2  -8 44.7256 2.77435   3
  -8   2  -8 43.2932 2.61206   2
   9  -2   8 13.4629 0.97055   2
  10  -2   8 14.6601 1.05014   2
  11  -2   8 22.1593 1.45532   2
 -11   2  -8 19.2057 1.32752   2
 -12   2  -8 2.02277 0.58933   2
  13  -2   8 14.7214 1.07302   2
 -13   2  -8 15.2226 1.17569   2
  14  -2   8 1.24057 0.63808   2
 -14   2  -8 2.46563 0.67875   2
  15  -2   8 5.63798 0.71630   2
 -15   2  -8 5.79879 0.76729   2
  16  -2   8 1.16741 0.67248   2
 -16   2  -8 1.59099 0.70306   2
  21  -3  -8 13.4433 1.29760   3
 -21   3   8 13.6830 1.21478   3
 -21   3   8 11.1401 0.99013   2
  20  -3  -8 22.6372 1.52309   2
  20   3  -8 23.6489 1.78332   3
 -20   3   8 22.6989 1.60954   3
  20   3  -8 21.0112 1.57778   2
 -20   3   8 20.8064 1.50324   2
  19  -3  -8 24.8444 1.64929   2
  19  -3  -8 23.7908 1.76572   3
 -19  -3   8 24.5163 1.75202   3
 -19   3   8 25.6427 1.71515   2
  19   3  -8 24.9464 1.83174   3
 -18  -3   8 33.3600 2.19383   3
  18  -3  -8 33.1302 2.24341   3
  18  -3  -8 33.7297 2.11518   2
 -18   3   8 32.7207 2.08413   2
  18   3  -8 31.6326 2.08577   2
  18   3  -8 35.1736 2.38239   3
 -18   3   8 34.5288 2.30125   3
  17  -3  -8 14.4163 1.28171   3
 -17  -3   8 16.7100 1.32291   3
  17  -3  -8 15.2106 1.14924   2
 -17   3   8 16.7284 1.31954   3
  17   3  -8 16.2040 1.35171   3
 -17   3   8 16.8462 1.27308   2
  17   3  -8 16.7368 1.31114   2
  16  -3  -8 0.18085 0.54692   2
 -16  -3   8 0.46532 0.72271   3
  16  -3  -8 -0.0267 0.76315   3
  16   3  -8 0.91632 0.73897   2
 -16   3   8 -0.3686 0.72987   3
 -16   3   8 1.95266 0.68246   2
  16   3  -8 0.87563 0.87302   3
  15  -3  -8 6.41129 0.97503   3
  15  -3  -8 5.65989 0.69337   2
 -15  -3   8 4.48488 0.78244   3
 -15   3   8 3.92048 0.74113   3
  15   3  -8 6.39850 0.80484   2
  15   3  -8 4.81034 0.90740   3
 -15   3   8 4.56466 0.73343   2
 -15   3   8 6.14807 0.95441   3
 -14  -3   8 8.09848 0.87037   3
  14  -3  -8 7.27162 0.75747   2
  14  -3  -8 6.28290 0.85730   3
 -14   3   8 7.41236 0.93569   3
  14   3  -8 8.48895 0.88007   2
 -14   3   8 8.09233 0.82304   2
  13  -3  -8 56.3116 3.52615   3
  13  -3  -8 60.0427 3.58314   2
 -13  -3   8 53.7588 3.37574   3
  13   3  -8 72.2938 4.32512   2
  13   3  -8 55.6236 3.49126   3
 -13   3   8 59.4460 3.69451   3
 -13   3   8 59.6769 3.56397   2
  12  -3  -8 120.321 7.01414   2
  12  -3  -8 114.393 6.92473   3
  12   3  -8 114.804 6.72712   2
  12   3  -8 121.409 7.35744   3
 -12   3   8 119.712 7.00530   2
 -12   3   8 122.517 7.42032   3
 -11  -3   8 100.279 6.07284   3
  11  -3  -8 92.8930 5.66318   3
  11  -3  -8 102.435 5.99082   2
 -11   3   8 100.669 6.12843   3
 -11   3   8 103.761 6.09374   2
  11   3  -8 97.5373 5.71027   2
  11   3  -8 104.055 6.30640   3
 -10  -3   8 202.727 12.1928   3
  10  -3  -8 210.312 12.2028   2
  10   3  -8 206.435 12.3957   3
  10   3  -8 181.443 10.5487   2
 -10   3   8 210.098 12.6212   3
 -10   3   8 208.523 12.1071   2
   9  -3  -8 436.974 40.7012   1
   9  -3  -8 435.418 26.0617   3
   9  -3  -8 437.712 25.3256   2
  -9  -3   8 433.228 25.9183   3
  -9  -3   8 384.737 35.8174   1
   9   3  -8 395.287 36.8240   1
   9   3  -8 425.736 25.4929   3
  -9   3   8 440.702 25.4858   2
   8  -3  -8 67.7417 6.31239   1
   8  -3  -8 58.6473 5.45782   1
  -8  -3   8 71.9419 6.69756   1
  -8  -3   8 63.7373 3.89894   3
   8  -3  -8 70.7083 4.33740   3
  -8  -3   8 58.3775 5.44031   1
  -8  -3   8 53.7439 3.30288   2
   8   3  -8 55.6756 5.19334   1
   8   3  -8 63.7281 5.93596   1
  -8   3   8 68.2282 4.01121   2
   8   3  -8 60.5492 3.58603   2
   8   3  -8 67.1749 4.09739   3
  -7  -3   8 136.626 8.05650   2
   7  -3  -8 121.887 11.3480   1
   7  -3  -8 127.145 7.65655   3
  -7  -3   8 119.437 11.1208   1
   7  -3  -8 114.744 6.68988   2
   7  -3  -8 156.249 14.5438   1
  -7  -3   8 127.597 11.8873   1
  -7   3   8 138.064 12.8527   1
  -7   3   8 96.5899 8.99502   1
   7   3  -8 119.266 6.95735   2
   7   3  -8 120.534 11.2309   1
  -7   3   8 133.436 8.03916   3
   7   3  -8 124.012 11.5453   1
  -6  -3   8 236.134 21.9982   1
   6  -3  -8 265.088 24.6788   1
   6  -3  -8 239.580 14.3721   3
   6  -3  -8 241.992 14.0049   2
  -6  -3   8 257.168 15.4141   3
   6  -3  -8 244.648 22.7763   1
  -6  -3   8 252.014 23.4594   1
  -6   3   8 265.610 24.7323   1
   6   3  -8 241.602 14.4677   3
   6   3  -8 236.172 13.6835   2
   6   3  -8 244.776 22.7882   1
  -6   3   8 238.043 14.2786   3
  -6   3   8 289.956 26.9868   1
   6   3  -8 236.996 22.0742   1
  -5  -3   8 23.3404 1.51699   3
   5  -3  -8 18.6351 1.73456   1
  -5  -3   8 23.4411 1.45876   2
  -5  -3   8 20.4338 1.90618   1
   5  -3  -8 23.3326 2.17321   1
  -5  -3   8 22.4687 2.10112   1
   5  -3  -8 25.2624 1.64276   3
   5   3  -8 23.5765 1.50900   3
  -5   3   8 24.1640 1.55368   3
  -5   3   8 22.2548 2.07150   1
   5   3  -8 22.4045 2.09270   1
   5   3  -8 24.2040 2.25717   1
  -4  -3   8 7.18627 0.65316   3
  -4  -3   8 6.24868 0.59380   1
  -4  -3   8 6.51455 0.61299   1
   4  -3  -8 5.19490 0.52228   3
   4  -3  -8 5.89397 0.54864   1
   4  -3  -8 5.11982 0.47627   1
  -4  -3   8 6.12794 0.54732   2
  -4   3   8 6.17190 0.57521   1
  -4   3   8 7.15622 0.60215   3
   4   3  -8 6.40215 0.60461   1
   4   3  -8 6.48314 0.60280   3
   4   3  -8 7.24855 0.67793   1
   3  -3  -8 21.3943 1.37255   3
  -3  -3   8 20.9247 1.95116   1
  -3  -3   8 23.2504 1.45086   2
  -3  -3   8 24.1783 2.26004   1
   3  -3  -8 24.2178 2.25936   1
  -3  -3   8 22.9058 1.48735   3
  -3   3   8 23.6973 1.50108   3
   3   3  -8 24.4068 1.52836   2
   2  -3  -8 36.0263 2.21383   3
  -2  -3   8 34.0250 3.17430   1
  -2  -3   8 33.5041 3.11856   1
   2   3  -8 39.2417 2.37182   2
  -2   3   8 38.2357 2.34319   3
   2   3  -8 36.1055 2.23247   3
  -1  -3   8 207.369 12.4244   3
   1   3  -8 215.159 20.0448   1
  -1   3   8 216.665 12.9633   3
   1   3  -8 222.718 13.3424   3
   0  -3  -8 274.607 16.4266   3
   0  -3   8 223.700 13.4036   3
   0  -3   8 231.891 13.4314   2
   0   3  -8 227.385 13.1801   2
   0   3  -8 229.704 21.3832   1
   0   3  -8 243.632 22.6764   1
   0   3  -8 228.822 13.7203   3
   1  -3   8 330.899 30.7934   1
   1  -3   8 336.193 19.4666   2
   1  -3   8 347.025 20.7591   3
  -1  -3  -8 339.350 20.2942   3
   1  -3   8 325.898 30.3510   1
  -1   3  -8 329.112 30.6464   1
  -1   3  -8 329.469 19.0735   2
  -1   3  -8 328.224 19.6376   3
  -1   3  -8 317.690 29.5919   1
   2  -3   8 341.578 31.8067   1
   2  -3   8 353.324 20.4467   2
   2  -3   8 343.985 20.5834   3
   2  -3   8 347.844 32.3937   1
  -2   3  -8 337.976 31.4867   1
  -2   3  -8 335.011 31.2062   1
  -2   3  -8 347.677 20.1189   2
  -2   3  -8 333.246 19.9404   3
   3  -3   8 140.009 13.0444   1
   3  -3   8 150.382 8.74468   2
   3  -3   8 150.008 13.9658   1
   3  -3   8 155.785 9.34552   3
  -3   3  -8 141.242 13.1539   1
  -3   3  -8 151.690 8.83982   2
  -3   3  -8 155.143 14.4439   1
  -3   3  -8 153.800 9.22197   3
   4  -3   8 123.809 7.45219   3
   4  -3   8 119.139 6.94528   2
   4  -3   8 110.198 10.2628   1
  -4   3  -8 115.751 6.95653   3
  -4   3  -8 120.200 7.00475   2
  -4   3  -8 109.720 10.2168   1
   5  -3   8 76.5863 4.49396   2
   5  -3   8 90.8003 5.50447   3
  -5   3  -8 82.4114 4.85474   2
  -5   3  -8 83.1021 5.02496   3
   6  -3   8 27.0123 1.69217   2
  -6   3  -8 26.6055 1.68794   2
   7  -3   8 1.02705 0.45716   2
  -7   3  -8 0.89240 0.51406   2
  -7   3  -8 0.28741 0.46214   3
   8  -3   8 15.1376 1.05482   3
   8  -3   8 16.7410 1.13743   2
  -8   3  -8 14.4232 1.02279   3
  -8   3  -8 16.0631 1.13648   2
   9  -3   8 82.5753 5.03769   3
   9  -3   8 71.1633 4.21801   2
  -9   3  -8 65.8891 4.02935   3
  -9   3  -8 68.1177 4.05510   2
  10  -3   8 4.66440 0.71502   3
  10  -3   8 4.12202 0.59706   2
 -10   3  -8 4.30697 0.67324   3
 -10   3  -8 4.94281 0.68964   2
  11  -3   8 23.9051 1.53084   2
 -11   3  -8 23.5407 1.55940   2
  12  -3   8 124.428 7.27499   2
 -12   3  -8 123.210 7.22779   2
  13  -3   8 18.4188 1.26951   2
 -13   3  -8 16.6723 1.24911   2
  14  -3   8 22.5844 1.49850   2
 -14   3  -8 21.0148 1.46048   2
  15  -3   8 19.8083 1.34123   2
  16  -3   8 2.16158 0.60375   2
 -20   4   8 -0.4369 0.88117   3
  19  -4  -8 7.77461 1.05514   3
 -19   4   8 5.48081 0.81281   2
  19   4  -8 6.87053 1.12419   3
 -19   4   8 6.42892 0.87794   3
 -18  -4   8 7.12079 0.93568   3
  18  -4  -8 6.92158 0.97726   3
  18   4  -8 5.52869 1.01871   3
 -18   4   8 6.85323 0.86657   2
 -18   4   8 6.12408 0.90572   3
  17  -4  -8 22.4517 1.61650   3
 -17  -4   8 22.9734 1.64574   3
  17   4  -8 20.3791 1.59323   3
 -17   4   8 23.4591 1.64757   3
 -17   4   8 23.3453 1.63342   2
  17   4  -8 21.4430 1.56752   2
  16  -4  -8 47.0861 3.01742   3
 -16  -4   8 49.7692 3.16197   3
  16   4  -8 46.8265 2.89957   2
  16   4  -8 46.7815 3.02076   3
 -16   4   8 57.1022 3.48623   2
 -16   4   8 49.8409 3.18637   3
  15  -4  -8 75.7555 4.69022   3
 -15  -4   8 71.1041 4.39349   3
 -15   4   8 76.7990 4.75365   3
  15   4  -8 70.3460 4.22105   2
  15   4  -8 76.8645 4.74750   3
 -15   4   8 69.2318 4.17251   2
  14  -4  -8 59.2643 3.55594   2
  14  -4  -8 55.0862 3.46481   3
 -14  -4   8 53.2988 3.33468   3
 -14   4   8 58.6347 3.68166   3
  14   4  -8 56.1702 3.52809   3
  13  -4  -8 47.5505 2.87553   2
  13  -4  -8 41.4394 2.66604   3
 -13  -4   8 43.4863 2.75737   3
  13   4  -8 52.3197 3.22809   2
 -13   4   8 36.4088 2.36448   3
  12  -4  -8 80.4741 4.93012   3
 -12  -4   8 80.4164 4.94235   3
  12  -4  -8 89.3295 5.25410   2
 -12   4   8 86.2288 5.10928   2
  12   4  -8 74.3563 4.56271   3
 -12   4   8 82.9366 5.08038   3
  12   4  -8 83.4199 4.95123   2
  10  -4  -8 3.42707 0.55693   2
  10  -4  -8 3.09882 0.63145   3
 -10  -4   8 4.21358 0.61641   3
 -10   4   8 3.37184 0.59576   2
  10   4  -8 2.63455 0.58676   2
  10   4  -8 4.45352 0.64820   3
   8  -4  -8 14.2067 0.99264   2
   8  -4  -8 14.3415 1.03809   3
  -8  -4   8 15.7379 1.13871   3
   8   4  -8 15.3486 1.10858   3
  -8   4   8 15.9143 1.16025   3
   8   4  -8 16.7044 1.16300   2
  -7  -4   8 90.2863 5.47164   3
   7  -4  -8 94.6631 5.73955   3
  -7   4   8 101.435 6.12965   3
   7   4  -8 95.0529 5.75732   3
   7   4  -8 99.9827 5.87328   2
   6  -4  -8 208.078 12.4975   3
  -6  -4   8 198.233 11.8937   3
  -6  -4   8 188.700 10.9683   2
   6   4  -8 196.706 11.4234   2
   6   4  -8 182.796 10.9800   3
  -6   4   8 202.692 12.1744   3
  -5  -4   8 63.9463 3.90052   3
  -5   4   8 49.3193 4.59079   1
   5   4  -8 65.0896 3.95487   3
  -5   4   8 89.2497 8.30867   1
   4  -4  -8 211.243 19.6769   1
  -4  -4   8 201.733 12.0982   3
   4  -4  -8 210.044 12.6069   3
  -4   4   8 225.968 13.5392   3
   4   4  -8 210.231 12.6060   3
  -4   4   8 189.057 17.6122   1
   4   4  -8 202.326 18.8353   1
   3  -4  -8 337.648 20.2095   3
  -3  -4   8 314.942 18.8565   3
  -3  -4   8 316.823 29.5096   1
   3   4  -8 335.162 20.0705   3
  -3   4   8 352.924 21.1241   3
   3   4  -8 307.117 28.5847   1
  -2  -4   8 166.051 9.97598   3
   2  -4  -8 171.365 10.2907   3
  -2  -4   8 170.986 9.91829   2
   2   4  -8 162.948 9.46259   2
   2   4  -8 163.075 15.1844   1
  -2   4   8 162.054 9.73463   3
   1  -4  -8 102.334 6.17475   3
  -1  -4   8 98.6558 5.76493   2
   1   4  -8 98.3132 5.92340   3
   1   4  -8 97.9179 9.12260   1
   1   4  -8 100.961 5.89881   2
   0  -4   8 42.8420 2.58221   2
   0  -4   8 40.2955 2.47395   3
   0  -4  -8 44.5961 2.73619   3
   0   4  -8 41.4983 2.56646   3
   0   4   8 36.3735 2.22785   3
   0   4  -8 42.0718 2.52663   2
   1  -4   8 18.3896 1.22424   3
  -1  -4  -8 17.8587 1.16713   3
  -1   4  -8 19.0876 1.25427   3
   2  -4   8 0.75722 0.39204   3
   2  -4   8 1.23421 0.42927   2
  -2   4  -8 1.31172 0.39811   3
   3  -4   8 7.78532 0.66500   2
   3  -4   8 8.49802 0.68408   3
  -3   4  -8 8.07708 0.64240   3
   4  -4   8 60.8613 3.59568   2
   4  -4   8 60.3686 3.69310   3
  -4   4  -8 59.7644 3.65205   3
   5  -4   8 107.208 6.48347   3
  -5   4  -8 110.371 6.45747   2
  -5   4  -8 108.120 6.54116   3
   6  -4   8 97.3071 5.90107   3
  -6   4  -8 96.3416 5.66182   2
  -6   4  -8 99.0502 6.00251   3
   7  -4   8 37.9837 2.33384   2
   7  -4   8 37.0976 2.36595   3
  -7   4  -8 39.8559 2.45687   2
   8  -4   8 69.1363 4.09457   2
  -8   4  -8 66.3367 4.05904   3
  -8   4  -8 71.1414 4.22415   2
   9  -4   8 121.035 7.07949   2
   9  -4   8 119.090 7.21732   3
  -9   4  -8 125.902 7.61395   3
  -9   4  -8 117.763 6.91561   2
  10  -4   8 30.2116 2.03885   3
  10  -4   8 25.3921 1.61962   2
 -10   4  -8 27.4877 1.84506   3
 -10   4  -8 29.2669 1.88552   2
  11  -4   8 8.62406 0.76486   2
 -11   4  -8 9.80002 0.85703   2
 -11   4  -8 6.99930 0.84440   3
  12  -4   8 0.41036 0.55156   2
 -12   4  -8 0.78463 0.65285   2
  13  -4   8 2.44784 0.58971   2
 -13   4  -8 2.22545 0.72518   2
  14  -4   8 1.91288 0.60343   2
 -14   4  -8 0.61128 0.67816   2
  15  -4   8 12.9439 1.02684   2
 -15   4  -8 12.7577 1.03155   2
  18  -5  -8 0.42886 0.83261   3
 -18   5   8 -0.3690 0.63425   3
  17  -5  -8 1.25452 0.82810   3
 -17  -5   8 1.51487 0.83330   3
  17   5  -8 0.53165 0.83558   3
 -17   5   8 0.02549 0.81309   3
 -16  -5   8 0.57164 0.71465   3
  16  -5  -8 -0.2318 0.79342   3
  16   5  -8 0.10141 0.80882   3
 -16   5   8 0.12707 0.83879   3
  15  -5  -8 -0.7363 0.72906   3
 -15  -5   8 -0.3602 0.76425   3
  15   5  -8 -0.6305 0.80461   3
 -15   5   8 0.73487 0.75271   3
 -14  -5   8 0.17746 0.69726   3
  14  -5  -8 -0.2124 0.70085   3
  14   5  -8 0.22575 0.77267   3
 -14   5   8 0.68448 0.75303   3
  13  -5  -8 1.42068 0.76824   3
 -13  -5   8 0.47213 0.68344   3
  13   5  -8 1.78495 0.80119   2
  13   5  -8 -0.4018 0.74595   3
 -13   5   8 -0.1200 0.71294   3
 -12  -5   8 1.92068 0.66871   3
  12   5  -8 1.60874 0.64129   3
 -12   5   8 1.25528 0.69053   3
  12   5  -8 2.78097 0.79437   2
 -11  -5   8 15.3065 1.14857   2
 -11  -5   8 16.4797 1.25944   3
  11  -5  -8 13.3514 1.13874   3
  11   5  -8 15.2583 1.18511   2
  10  -5  -8 3.48577 0.64761   3
 -10  -5   8 4.30171 0.81808   2
  10   5  -8 4.72350 0.72919   2
 -10   5   8 5.28188 0.78676   3
  10   5  -8 3.28226 0.68675   3
   9  -5  -8 7.75604 0.81189   3
  -9  -5   8 8.08660 0.74671   2
  -9  -5   8 6.78558 0.72209   3
   9   5  -8 7.64950 0.78262   2
  -9   5   8 8.19629 0.86144   3
   9   5  -8 6.10243 0.62448   3
  -8  -5   8 15.9163 1.15625   3
   8  -5  -8 16.3535 1.22970   3
   8   5  -8 17.5085 1.20836   3
  -8   5   8 16.2646 1.26900   3
  -7  -5   8 25.1818 1.65873   3
  -7  -5   8 26.6371 1.71696   2
   7  -5  -8 27.9471 1.84619   3
  -7   5   8 27.5433 1.81255   3
   7   5  -8 25.9524 1.68213   3
   6  -5  -8 3.02168 0.57820   3
  -6  -5   8 2.41895 0.53231   3
   6   5  -8 1.38286 0.50457   2
   6   5  -8 2.49916 0.50655   3
  -6   5   8 3.32482 0.54284   3
  -5  -5   8 6.30521 0.71015   2
  -5  -5   8 6.07347 0.61206   3
   5  -5  -8 4.84915 0.62390   3
   5   5  -8 5.37231 0.57235   3
   5   5  -8 7.37371 0.71460   2
  -5   5   8 5.92868 0.69419   3
  -4  -5   8 5.32473 0.57180   3
  -4  -5   8 4.87640 0.61919   2
   4  -5  -8 4.91253 0.62654   3
   4   5  -8 4.79311 0.54662   3
   4   5  -8 7.13634 0.77962   2
  -4   5   8 4.58965 0.59974   3
  -3  -5   8 12.8249 0.94178   3
   3  -5  -8 11.1348 0.86171   3
  -3  -5   8 14.6509 1.04086   2
  -3   5   8 13.7513 0.99494   3
   3   5  -8 13.7980 0.96104   3
   3   5  -8 13.7607 0.97670   2
  -2  -5   8 1.89871 0.51954   2
  -2  -5   8 1.85640 0.39910   3
   2  -5  -8 1.06989 0.47537   3
   2   5  -8 0.82580 0.43157   3
   2   5  -8 1.24327 0.49583   2
   1  -5  -8 0.29925 0.49382   3
  -1  -5   8 -0.0668 0.41654   3
  -1  -5   8 0.13637 0.44513   2
  -1   5   8 0.43322 0.43122   3
   1   5  -8 0.36212 0.49541   2
   0  -5  -8 18.1072 1.24353   3
   0  -5   8 18.8086 1.23744   2
   0   5  -8 16.7044 1.14300   2
   0   5   8 15.1608 1.03224   3
   0   5  -8 17.5294 1.17926   3
   1  -5   8 7.44810 0.74422   2
  -1  -5  -8 6.45120 0.63708   3
   1  -5   8 6.12311 0.57584   3
  -1   5  -8 7.34665 0.64992   3
   2  -5   8 13.8864 0.99925   2
  -2   5  -8 12.8405 0.91659   3
  -2   5  -8 13.3388 0.98550   2
   3  -5   8 16.5195 1.14188   2
   3  -5   8 20.2476 1.36669   3
  -3   5  -8 15.8166 1.12052   2
  -3   5  -8 17.0235 1.17992   3
   4  -5   8 0.75071 0.53008   2
   4  -5   8 0.54329 0.49809   3
  -4   5  -8 0.65992 0.47567   3
  -4   5  -8 1.08020 0.54108   2
   5  -5   8 26.2771 1.71689   3
   5  -5   8 29.5986 1.89848   2
  -5   5  -8 27.3965 1.77131   3
  -5   5  -8 28.5424 1.85260   2
   6  -5   8 39.5802 2.48739   3
   6  -5   8 39.4740 2.41041   2
  -6   5  -8 41.1715 2.58589   3
  -6   5  -8 39.2481 2.42832   2
   7  -5   8 3.31552 0.62316   2
   7  -5   8 2.74532 0.67662   3
  -7   5  -8 3.00797 0.57982   3
  -7   5  -8 2.97108 0.66343   2
   8  -5   8 0.55869 0.59001   2
   8  -5   8 0.30868 0.72771   3
  -8   5  -8 0.24340 0.56083   2
   9  -5   8 1.79750 0.53102   2
  -9   5  -8 1.12178 0.59452   2
  -9   5  -8 2.69990 0.73043   3
  10  -5   8 1.31795 0.57501   3
  10  -5   8 2.14952 0.54745   2
 -10   5  -8 1.54339 0.62759   2
 -10   5  -8 1.84549 0.62667   3
  11  -5   8 0.67636 0.76975   3
  11  -5   8 0.74157 0.51778   2
 -11   5  -8 0.56983 0.63123   2
  12  -5   8 0.88981 0.57828   2
  13  -5   8 2.69252 0.64097   2
  16  -6  -8 2.90060 0.79782   3
 -16   6   8 1.86820 0.82216   3
  15  -6  -8 1.63020 0.73259   3
 -15   6   8 2.79700 0.82237   3
  15   6  -8 2.50171 0.80953   3
 -14  -6   8 2.01232 0.65116   3
  14   6  -8 1.27120 0.72617   3
 -14   6   8 1.77429 0.75479   3
 -13  -6   8 6.15768 0.77599   3
  13  -6  -8 5.97797 0.81926   3
  13   6  -8 6.09797 0.88228   3
  12  -6  -8 2.79947 0.71457   3
 -12  -6   8 2.06605 0.63853   3
 -12   6   8 1.22155 0.76074   3
  12   6  -8 4.00504 0.79157   3
  11  -6  -8 2.55020 0.68319   3
 -11  -6   8 2.97753 0.67012   3
 -11   6   8 4.95369 0.83268   3
  11   6  -8 2.23036 0.67163   3
 -10  -6   8 -0.7522 0.60181   3
  10  -6  -8 1.32993 0.70718   3
 -10   6   8 0.77558 0.68261   3
   9  -6  -8 -0.7987 0.61742   3
  -9   6   8 0.16625 0.68586   3
   9   6  -8 -0.1131 0.64684   3
   8  -6  -8 2.55254 0.65527   3
  -8  -6   8 1.14248 0.64033   3
   8   6  -8 2.02453 0.62271   3
  -8   6   8 1.05880 0.61811   3
  -7  -6   8 13.5631 1.08043   3
   7  -6  -8 13.0504 1.06614   3
  -7  -6   8 11.6949 1.03168   2
   7   6  -8 12.0310 1.02275   3
  -7   6   8 12.2490 1.05874   3
   6  -6  -8 11.6774 0.94740   3
  -6  -6   8 12.5105 1.01324   2
  -6  -6   8 13.6975 1.02996   3
   6   6  -8 13.8795 1.04406   3
  -6   6   8 14.2959 1.08956   3
   6   6  -8 10.3412 0.85933   2
  -5  -6   8 25.7286 1.67841   3
  -5  -6   8 29.3898 1.91642   2
   5  -6  -8 23.3800 1.57321   3
  -5   6   8 24.8186 1.66624   3
   5   6  -8 25.4417 1.65297   3
  -4  -6   8 8.80274 0.78450   3
  -4  -6   8 7.32319 0.73068   2
   4   6  -8 7.38032 0.73637   2
  -4   6   8 8.73464 0.77660   3
   4   6  -8 9.09488 0.80635   3
  -3  -6   8 11.2841 0.88601   3
  -3  -6   8 11.9977 0.95329   2
   3  -6  -8 11.3014 0.96422   3
   3   6  -8 12.2931 0.98837   2
   3   6  -8 12.6746 0.95762   3
   2  -6  -8 11.0192 0.91570   3
  -2  -6   8 10.4512 0.86550   3
   2   6  -8 10.2135 0.81342   3
  -2   6   8 11.0470 0.88509   3
  -1  -6   8 0.22743 0.57642   2
   1  -6  -8 -0.3762 0.57478   3
  -1  -6   8 -0.5113 0.42187   3
   1   6  -8 0.43927 0.50607   2
   1   6  -8 0.00000 0.40908   3
  -1   6   8 -0.1668 0.45877   3
   0  -6   8 1.14958 0.56762   2
   0  -6  -8 1.51056 0.59354   3
   0  -6   8 0.95558 0.52566   3
   0   6   8 1.63671 0.43864   3
   1  -6   8 0.16203 0.56001   2
  -1   6  -8 0.74239 0.47025   3
   2  -6   8 5.79880 0.62335   3
  -2   6  -8 5.67109 0.66700   2
  -2   6  -8 6.14819 0.65409   3
   3  -6   8 1.16918 0.52965   3
  -3   6  -8 -0.1146 0.47927   3
  -3   6  -8 0.39840 0.62097   2
   4  -6   8 3.00948 0.69885   2
   4  -6   8 2.11975 0.60188   3
  -4   6  -8 1.65329 0.53804   3
  -4   6  -8 3.07431 0.67716   2
   5  -6   8 22.6522 1.51407   3
   5  -6   8 23.7865 1.55732   2
  -5   6  -8 23.7740 1.57681   3
  -5   6  -8 22.0449 1.52004   2
   6  -6   8 3.26179 0.61886   3
   6  -6   8 4.51276 0.70052   2
  -6   6  -8 4.49792 0.61259   3
  -6   6  -8 3.66844 0.71332   2
   7  -6   8 5.81129 0.81493   3
   7  -6   8 7.51539 0.82619   2
  -7   6  -8 6.23803 0.79317   2
  -7   6  -8 6.94368 0.75937   3
   8  -6   8 15.9682 1.27726   3
   8  -6   8 16.0993 1.16738   2
  -8   6  -8 19.2772 1.37637   2
   9  -6   8 2.20697 0.59072   2
  -9   6  -8 0.38259 0.61900   3
  -9   6  -8 0.97040 0.66063   2
  10  -6   8 1.70495 0.57619   2
 -10   6  -8 0.64956 0.67094   2
  12  -7  -8 5.02061 0.82389   3
  12   7  -8 5.23135 0.89151   3
 -12   7   8 5.97702 0.85029   3
 -11  -7   8 11.2525 1.03669   3
  11  -7  -8 11.5148 1.08459   3
  11   7  -8 12.9443 1.13806   3
 -11   7   8 12.2996 1.14708   3
 -10  -7   8 11.3905 0.95751   3
  10  -7  -8 11.8927 1.04658   3
  10   7  -8 12.3118 1.03569   3
 -10   7   8 12.3228 1.14063   3
  -9  -7   8 5.53562 0.67954   3
   9  -7  -8 5.62202 0.82964   3
  -9   7   8 5.17055 0.73129   3
   8  -7  -8 10.2768 0.97967   3
  -8   7   8 8.97555 0.99276   3
   8   7  -8 9.77532 0.89489   3
  -7  -7   8 4.61290 0.65209   3
   7  -7  -8 6.21440 0.79357   3
  -7   7   8 5.49219 0.87991   3
   7   7  -8 5.36550 0.68136   3
  -6  -7   8 4.30110 0.61838   3
  -6   7   8 3.17573 0.64800   3
   6   7  -8 4.01343 0.63766   3
   5  -7  -8 5.12289 0.71629   3
  -5  -7   8 5.54705 0.66774   3
   5   7  -8 5.43343 0.66976   3
  -4  -7   8 -0.0840 0.55442   3
   4  -7  -8 -0.4163 0.64117   3
   4   7  -8 -0.1893 0.48598   3
  -4   7   8 -0.1472 0.64788   3
   3  -7  -8 1.41959 0.64310   3
  -3  -7   8 1.48295 0.50554   3
  -3   7   8 1.16597 0.66429   3
   3   7  -8 0.92552 0.47361   3
  -2  -7   8 2.41941 0.55075   3
   2  -7  -8 3.03214 0.67622   3
  -2   7   8 1.29147 0.63152   3
   2   7  -8 1.69880 0.51401   3
  -1  -7   8 4.37667 0.62303   3
   1   7  -8 4.54810 0.61946   3
   0  -7   8 15.8711 1.11951   3
   0   7  -8 16.5507 1.17141   3
   1  -7   8 31.1768 1.99284   3
  -2   7  -8 30.2737 1.93118   3
   3  -7   8 9.85860 0.91262   3
  -3   7  -8 8.66761 0.77859   3
   4  -7   8 2.09267 0.58845   3
  -4   7  -8 3.87632 0.62356   3
   5  -7   8 6.86338 0.73831   3
  -5   7  -8 7.80961 0.81281   3
   6  -7   8 3.71420 0.70542   3
  -6   7  -8 2.25489 0.59641   3
  -5  -8   8 0.69352 0.53178   3
   5   8  -8 0.06476 0.54624   3
  -4  -8   8 4.30385 0.62998   3
   4   8  -8 5.03515 0.66022   3
  -3  -8   8 6.38455 0.69314   3
   3   8  -8 5.25109 0.66124   3
  -2  -8   8 1.78396 0.46732   3
   2   8  -8 1.24164 0.50329   3
  -1  -8   8 1.85892 0.50529   3
   1   8  -8 1.55099 0.53631   3
   0  -8   8 0.00000 0.51302   3
   0   8  -8 0.65858 0.48302   3
 -22   0   9 0.42472 0.79708   3
  22   0  -9 0.44745 0.98452   3
  22   0  -9 0.39314 0.82593   2
  21   0  -9 1.03012 0.75521   2
  21   0  -9 -0.5190 0.89733   3
 -21   0   9 -0.2090 0.89107   3
 -21   0   9 -1.1538 1.10303   2
 -20   0   9 1.58511 1.07909   2
  20   0  -9 -1.2536 0.81128   3
 -20   0   9 0.18238 0.77392   3
  20   0  -9 -0.3532 0.75953   2
  19   0  -9 -0.8928 0.92766   3
  19   0  -9 -1.0306 0.72855   2
 -19   0   9 -0.6858 0.83833   3
 -19   0   9 -0.6574 1.05495   2
 -18   0   9 1.37349 0.80951   3
 -16   0   9 0.59618 0.76520   3
  16   0  -9 -0.1702 0.58844   3
  15   0  -9 -0.1232 0.62352   3
 -15   0   9 -0.5891 0.67513   3
 -15   0   9 1.36879 0.64147   2
  15   0  -9 0.29941 0.53067   2
  14   0  -9 0.07520 0.63425   3
 -14   0   9 1.23294 0.67001   2
 -14   0   9 -0.9899 0.65342   3
  14   0  -9 0.60043 0.53211   2
 -13   0   9 -0.2101 0.56487   2
 -13   0   9 -0.9680 0.57346   3
  13   0  -9 -0.2751 0.66028   3
  13   0  -9 0.16291 0.48260   2
  12   0  -9 -0.2529 0.11409   1
 -12   0   9 0.14337 0.63317   2
 -12   0   9 0.05026 0.60820   3
  12   0  -9 -0.1737 0.62779   3
 -12   0   9 0.37151 0.10521   1
  12   0  -9 -0.6384 0.46309   2
  11   0  -9 0.79228 0.62648   3
  11   0  -9 -1.1832 0.49071   2
  11   0  -9 -0.2284 0.11492   1
 -11   0   9 0.17478 0.11434   1
 -11   0   9 -0.3036 0.61235   3
 -11   0   9 -0.6937 0.54230   2
 -10   0   9 0.02687 0.10655   1
 -10   0   9 0.15219 0.58603   3
  10   0  -9 -0.1995 0.57602   3
  10   0  -9 0.14261 0.09542   1
  10   0  -9 0.56145 0.45817   2
 -10   0   9 -0.0764 0.64547   2
  -9   0   9 0.15650 0.66111   2
   9   0  -9 0.05012 0.55140   3
   9   0  -9 -0.1854 0.42711   2
  -9   0   9 0.24517 0.10801   1
   9   0  -9 0.02677 0.09551   1
  -9   0   9 0.30532 0.55984   3
  -8   0   9 0.39134 0.10826   1
   8   0  -9 0.09330 0.42994   2
  -8   0   9 0.70770 0.66433   2
  -8   0   9 0.28024 0.56055   3
  -7   0   9 -0.2713 0.59395   2
  -7   0   9 0.59633 0.10432   1
   7   0  -9 0.43915 0.53997   3
  -7   0   9 0.32433 0.10153   1
   6   0  -9 0.15070 0.08436   1
  -6   0   9 -0.2735 0.66176   2
   6   0  -9 0.97041 0.47761   3
   6   0  -9 0.33384 0.09405   1
  -6   0   9 0.32539 0.44059   3
   5   0  -9 0.83392 0.36143   3
   5   0  -9 0.69465 0.30981   2
   5   0  -9 1.18806 0.14551   1
  -5   0   9 -0.1485 0.38120   3
   4   0  -9 -0.0171 0.08123   1
   4   0  -9 0.31681 0.33892   2
  -4   0   9 0.07737 0.31212   3
   4   0  -9 0.00000 0.36353   3
   3   0  -9 0.59305 0.09071   1
   3   0  -9 0.28285 0.25067   2
   3   0  -9 0.36094 0.08588   1
   3   0  -9 0.81236 0.31543   3
  -2   0   9 -0.0333 0.08924   1
  -2   0   9 0.04371 0.08319   1
  -2   0   9 -0.1884 0.26524   2
   2   0  -9 0.10575 0.05805   1
   2   0  -9 0.09671 0.26598   3
   2   0  -9 -0.1327 0.28026   2
   2   0  -9 -0.0604 0.08206   1
  -1   0   9 0.08534 0.24578   2
   1   0  -9 0.00000 0.06294   1
   1   0  -9 0.33028 0.20763   3
   1   0  -9 0.09343 0.29601   2
   0   0  -9 0.04413 0.27960   2
   0   0   9 0.06204 0.06457   1
   0   0  -9 0.28860 0.07628   1
   0   0   9 -0.1493 0.22111   2
   0   0  -9 0.10273 0.04700   1
  -1   0  -9 0.05655 0.06727   1
   1   0   9 -0.0459 0.29088   2
   1   0   9 0.18368 0.06952   1
  -1   0  -9 -0.3036 0.32283   2
   2   0   9 0.14108 0.29797   2
  -2   0  -9 0.00000 0.37888   2
   2   0   9 0.35837 0.09688   1
  -2   0  -9 0.09182 0.08936   1
   2   0   9 -0.0484 0.06711   1
  -3   0  -9 0.08806 0.06666   1
   3   0   9 0.24393 0.30913   2
  -3   0  -9 0.36079 0.36024   2
   3   0   9 0.05809 0.06909   1
   4   0   9 0.16272 0.08295   1
   4   0   9 -0.2260 0.37612   2
  -4   0  -9 0.24373 0.33695   2
  -5   0  -9 0.27219 0.42761   2
   5   0   9 0.46157 0.39182   2
  -5   0  -9 0.24187 0.07425   1
   6   0   9 0.36615 0.42183   2
   6   0   9 0.69790 0.11195   1
  -6   0  -9 -0.1180 0.40778   2
  -6   0  -9 0.73499 0.10455   1
  -6   0  -9 0.48213 0.09890   1
   7   0   9 0.11596 0.09195   1
  -7   0  -9 -0.1404 0.45823   2
   7   0   9 0.00000 0.44041   2
  -8   0  -9 0.69494 0.52454   2
   8   0   9 -0.0480 0.47050   2
  -9   0  -9 -0.2356 0.59713   2
   9   0   9 -0.2639 0.46981   2
 -10   0  -9 0.33567 0.71819   2
  10   0   9 0.76135 0.54821   2
 -11   0  -9 1.15872 0.64179   2
  11   0   9 0.87395 0.60941   2
 -11   0  -9 0.30108 0.66483   2
  12   0   9 0.20548 0.60496   2
 -13   0  -9 0.56947 0.70654   2
  14   0   9 -0.8724 0.73341   2
 -14   0  -9 2.22873 0.82914   2
  15   0   9 -0.5618 0.72818   2
 -15   0  -9 -0.1653 0.81604   2
  22  -1  -9 9.31238 1.08596   3
  22  -1  -9 10.7130 1.03993   2
 -22   1   9 10.8174 1.10448   3
  22   1  -9 9.34334 1.23185   3
 -22   1   9 7.97076 1.07017   2
  22   1  -9 11.6138 1.05620   2
  21  -1  -9 4.60869 0.92450   3
 -21  -1   9 4.53362 0.93542   3
  21  -1  -9 8.28163 0.99626   2
  21   1  -9 7.52981 1.04238   3
 -21   1   9 5.96718 0.97681   3
  21   1  -9 5.39510 0.87307   2
 -20  -1   9 10.2286 1.08693   3
  20  -1  -9 9.34724 1.05052   3
  20  -1  -9 12.0495 1.06033   2
 -20   1   9 11.2014 1.12577   3
  20   1  -9 10.8544 1.21632   3
 -20   1   9 9.35192 0.98961   2
  19  -1  -9 8.32914 0.88735   2
 -19   1   9 6.32252 0.94394   3
 -19   1   9 9.26803 0.96862   2
  19   1  -9 4.51951 0.89957   3
  18  -1  -9 5.13271 0.80646   2
 -18  -1   9 2.68178 0.79444   3
  18   1  -9 2.05819 0.83575   3
 -18   1   9 5.03424 0.87007   2
 -17  -1   9 12.9607 1.12160   3
  17  -1  -9 14.7350 1.16811   2
  17  -1  -9 13.4532 1.15399   3
 -17   1   9 14.0577 1.18220   2
  17   1  -9 15.2567 1.20123   2
 -17   1   9 12.9746 1.15616   3
  16  -1  -9 12.9198 1.05664   3
  16  -1  -9 10.8804 0.86451   2
 -16  -1   9 10.1551 1.14064   2
 -16   1   9 11.9305 1.01890   3
  16   1  -9 11.7366 0.96093   2
  16   1  -9 10.9152 1.00150   3
 -16   1   9 11.2848 0.94257   2
  15  -1  -9 60.6967 3.77985   3
  15  -1  -9 59.5853 3.55690   2
 -15  -1   9 61.6923 3.82591   3
 -15  -1   9 52.3331 3.22491   2
 -15   1   9 64.8013 4.01136   3
  15   1  -9 69.2447 4.09815   2
 -15   1   9 67.5099 4.03102   2
  15   1  -9 62.0754 3.86509   3
 -14  -1   9 179.400 10.4746   2
 -14  -1   9 210.892 12.6872   3
  14  -1  -9 189.483 11.4062   3
  14   1  -9 205.502 12.3561   3
 -14   1   9 189.902 11.4160   3
 -14   1   9 203.443 11.8311   2
  14   1  -9 195.926 11.3789   2
  13  -1  -9 147.697 8.90966   3
 -13  -1   9 132.047 7.74111   2
 -13  -1   9 133.428 8.05138   3
 -13   1   9 133.115 7.77128   2
  13   1  -9 129.572 7.81593   3
 -13   1   9 141.896 8.55556   3
  13   1  -9 141.021 8.21378   2
  12  -1  -9 121.120 11.2828   1
  12  -1  -9 134.452 8.10949   3
 -12  -1   9 136.621 8.24366   3
 -12  -1   9 121.637 11.3304   1
  12  -1  -9 128.195 7.46092   2
  12   1  -9 137.873 8.31816   3
 -12   1   9 135.507 8.16013   3
 -12   1   9 123.781 11.5237   1
  12   1  -9 140.681 8.18355   2
  12   1  -9 122.378 11.4028   1
  11  -1  -9 331.636 30.8831   1
  11  -1  -9 328.122 18.9929   2
 -11  -1   9 328.172 30.5739   1
 -11  -1   9 344.426 32.0653   1
  11  -1  -9 320.173 29.8150   1
 -11  -1   9 356.590 21.3431   3
 -11   1   9 333.356 31.0349   1
  11   1  -9 340.611 19.7147   2
  11   1  -9 316.838 29.5078   1
 -11   1   9 317.111 29.5176   1
  11   1  -9 339.916 20.3497   3
  11   1  -9 347.064 32.3210   1
  10  -1  -9 225.664 21.0147   1
 -10  -1   9 241.528 14.4710   3
  10  -1  -9 212.502 19.7975   1
 -10  -1   9 206.592 12.0055   2
 -10  -1   9 223.170 20.7920   1
  10  -1  -9 237.133 13.7416   2
 -10  -1   9 235.281 21.9130   1
  10  -1  -9 243.627 14.6308   3
 -10   1   9 239.934 14.3979   3
 -10   1   9 246.411 14.2765   2
  10   1  -9 234.061 21.7985   1
 -10   1   9 217.545 20.2645   1
  10   1  -9 236.928 22.0662   1
  10   1  -9 240.678 13.9603   2
  10   1  -9 245.321 14.7151   3
 -10   1   9 204.811 19.0697   1
  -9  -1   9 27.4431 1.76340   3
  -9  -1   9 27.0811 2.52115   1
   9  -1  -9 27.1758 1.66990   2
  -9  -1   9 26.8364 2.50792   1
   9  -1  -9 28.0443 2.62087   1
   9  -1  -9 25.7803 2.40028   1
  -9  -1   9 23.3782 1.62630   2
  -9   1   9 26.4837 1.67116   2
  -9   1   9 25.3199 2.36002   1
  -9   1   9 28.8232 1.84254   3
  -9   1   9 25.2015 2.35142   1
   9   1  -9 25.9029 1.68217   3
   9   1  -9 27.9592 2.61166   1
   9   1  -9 25.0277 2.33110   1
   9   1  -9 26.4191 1.64924   2
  -8  -1   9 13.3009 1.24177   1
   8  -1  -9 12.5461 1.17769   1
   8  -1  -9 13.2068 0.90268   2
  -8  -1   9 13.3460 0.98561   3
  -8  -1   9 12.7438 1.19341   1
   8  -1  -9 13.1930 1.23293   1
   8  -1  -9 14.0054 1.04373   3
  -8   1   9 15.0492 1.04415   2
   8   1  -9 13.6798 1.27582   1
  -8   1   9 12.4049 1.15681   1
   8   1  -9 12.5987 0.88725   2
  -8   1   9 14.0181 1.31120   1
   8   1  -9 14.9503 1.07014   3
   8   1  -9 13.2380 1.23321   1
   7  -1  -9 1.80366 0.37781   2
   7  -1  -9 2.01991 0.55556   3
  -7  -1   9 1.07087 0.50491   3
   7  -1  -9 0.84577 0.10938   1
  -7  -1   9 0.82023 0.11300   1
   7  -1  -9 0.46438 0.10626   1
  -7   1   9 0.96311 0.47681   3
   7   1  -9 1.80345 0.43075   2
   7   1  -9 0.64842 0.11468   1
  -7   1   9 0.75890 0.51253   2
   6  -1  -9 55.4267 3.40512   3
  -6  -1   9 59.8964 5.57434   1
   6  -1  -9 55.1946 5.13887   1
  -6  -1   9 58.6423 5.45849   1
   6  -1  -9 52.9189 3.11566   2
   6  -1  -9 57.6320 5.37022   1
   6   1  -9 54.1331 5.04339   1
   6   1  -9 58.3660 3.44217   2
   6   1  -9 59.8003 3.64980   3
  -6   1   9 57.2856 3.38344   2
  -6   1   9 63.5955 5.91965   1
  -6   1   9 59.1305 5.50392   1
   6   1  -9 56.2396 5.23959   1
  -6   1   9 56.7299 3.46284   3
   5  -1  -9 142.540 13.2777   1
   5  -1  -9 129.299 12.0457   1
  -5  -1   9 144.548 8.67993   3
  -5  -1   9 147.357 8.55456   2
  -5  -1   9 136.656 12.7214   1
  -5  -1   9 132.368 12.3247   1
   5  -1  -9 121.522 7.05301   2
   5  -1  -9 133.390 8.01673   3
   5   1  -9 120.699 7.01470   2
   5   1  -9 136.617 12.7164   1
  -5   1   9 124.322 11.5847   1
  -5   1   9 138.540 12.8999   1
  -5   1   9 135.378 8.13840   3
   5   1  -9 139.420 8.35974   3
   5   1  -9 128.322 11.9509   1
   4  -1  -9 423.967 39.4749   1
  -4  -1   9 361.916 20.9525   2
   4  -1  -9 367.506 21.2407   2
  -4  -1   9 359.742 33.5014   1
   4  -1  -9 413.929 38.5392   1
  -4  -1   9 405.012 37.7135   1
   4  -1  -9 389.948 23.3252   3
  -4   1   9 426.267 39.6715   1
   4   1  -9 330.741 19.1302   2
   4   1  -9 382.516 35.6178   1
  -4   1   9 376.812 22.5360   3
   4   1  -9 374.836 34.9086   1
  -4   1   9 449.067 41.8048   1
   4   1  -9 355.849 21.2747   3
  -3  -1   9 482.437 44.9304   1
  -3  -1   9 488.722 45.4977   1
   3  -1  -9 470.864 28.1413   3
   3  -1  -9 483.279 44.9940   1
  -3  -1   9 469.450 28.0629   3
  -3  -1   9 430.520 24.8803   2
   3  -1  -9 444.499 25.6764   2
   3  -1  -9 446.050 41.5259   1
   3   1  -9 482.173 44.8880   1
  -3   1   9 485.873 45.2332   1
  -3   1   9 468.061 43.5963   1
   3   1  -9 456.446 27.2865   3
   3   1  -9 481.136 44.8014   1
   3   1  -9 422.613 24.4461   2
   2  -1  -9 326.302 18.8594   2
   2  -1  -9 333.624 31.0619   1
   2  -1  -9 366.940 21.9368   3
  -2  -1   9 340.847 20.3853   3
  -2  -1   9 365.394 34.0053   1
  -2  -1   9 376.089 34.9987   1
  -2  -1   9 340.451 19.6940   2
   2  -1  -9 410.396 38.2045   1
  -2   1   9 338.228 31.5009   1
   2   1  -9 347.411 20.0885   2
  -2   1   9 453.608 42.2211   1
   2   1  -9 323.718 30.1630   1
   2   1  -9 379.424 35.3400   1
   2   1  -9 382.219 22.8350   3
  -2   1   9 308.834 17.8445   2
  -1  -1   9 508.873 47.3895   1
   1  -1  -9 615.089 57.2661   1
  -1  -1   9 579.326 34.6376   3
  -1  -1   9 491.420 28.4048   2
   1  -1  -9 634.544 59.0615   1
  -1  -1   9 524.160 48.8215   1
   1  -1  -9 704.394 40.6515   2
  -1   1   9 604.297 56.2548   1
   1   1  -9 580.182 54.0347   1
   1   1  -9 509.318 29.4465   2
  -1   1   9 624.126 58.1125   1
   1   1  -9 557.899 51.9445   1
   1   1  -9 614.738 36.7495   3
   0  -1   9 286.534 26.6895   1
   0  -1   9 264.404 15.2954   2
   0  -1   9 309.892 28.8644   1
   0  -1  -9 352.696 20.3822   2
   0  -1  -9 367.611 34.2363   1
   0  -1  -9 350.142 32.6057   1
   0   1  -9 285.366 17.0562   3
   0   1   9 299.428 27.8740   1
   0   1   9 352.526 32.8122   1
   1  -1   9 203.178 18.9294   1
   1  -1   9 209.186 19.4871   1
  -1  -1  -9 261.982 24.3765   1
  -1  -1  -9 210.412 19.5997   1
  -1  -1  -9 237.746 13.7497   2
   1  -1   9 226.177 13.0996   2
  -1   1  -9 199.985 11.9821   3
   1   1   9 245.503 22.8572   1
  -1   1  -9 235.716 21.9594   1
  -1   1  -9 253.754 23.6091   1
   1   1   9 231.012 21.5139   1
  -2  -1  -9 574.258 53.4632   1
  -2  -1  -9 436.048 25.1905   2
   2  -1   9 413.219 23.8861   2
  -2  -1  -9 489.376 45.5736   1
   2   1   9 495.062 46.1101   1
  -2   1  -9 433.429 40.3537   1
   2   1   9 441.291 41.1053   1
  -2   1  -9 459.948 42.8162   1
  -2   1  -9 430.905 24.9188   2
   4  -1   9 97.4290 9.07405   1
   4  -1   9 100.430 9.35792   1
  -4   1  -9 103.548 6.05496   2
  -4   1  -9 96.5317 8.99261   1
   4   1   9 110.720 10.3059   1
   4   1   9 103.558 6.03251   2
   4   1   9 99.8592 9.30023   1
  -4   1  -9 102.398 9.53506   1
   5  -1   9 18.4623 1.72316   1
  -5  -1  -9 20.6486 1.92988   1
   5  -1   9 19.6507 1.83717   1
   5  -1   9 20.4547 1.31096   2
  -5  -1  -9 18.5718 1.73824   1
  -5   1  -9 20.3344 1.29564   2
   5   1   9 18.6974 1.16564   2
  -5   1  -9 18.1603 1.69758   1
  -5   1  -9 19.6912 1.83695   1
  -6  -1  -9 26.2409 1.65340   2
   6  -1   9 20.7226 1.93282   1
  -6  -1  -9 22.8960 2.14066   1
  -6  -1  -9 22.5148 2.10072   1
   6  -1   9 21.9567 2.05017   1
  -6   1  -9 23.4164 2.18587   1
   6   1   9 23.6614 1.46115   2
  -6   1  -9 21.7651 2.02953   1
   6   1   9 24.2974 2.26898   1
   6   1   9 22.5283 2.09710   1
   7  -1   9 302.988 17.5417   2
  -7  -1  -9 316.297 18.3264   2
  -7   1  -9 278.913 16.1702   2
   8  -1   9 116.893 6.83271   2
  -8  -1  -9 107.667 6.32357   2
  -8   1  -9 112.372 6.57934   2
   8   1   9 102.166 5.97970   2
   9  -1   9 76.4449 4.52310   2
  -9  -1  -9 79.8704 4.72387   2
  -9   1  -9 78.4457 4.65790   2
   9   1   9 72.8160 4.28566   2
 -10  -1  -9 133.173 7.81913   2
  10  -1   9 111.445 6.54045   2
 -10   1  -9 107.574 6.31195   2
  10   1   9 110.066 6.45056   2
 -11  -1  -9 42.8650 2.67955   2
  11  -1   9 48.1284 2.92291   2
 -11   1  -9 49.8426 3.03819   2
  11   1   9 46.5783 2.84198   2
 -12  -1  -9 29.2414 1.90715   2
  12  -1   9 27.9847 1.77596   2
  12   1   9 30.7522 1.98135   2
 -12   1  -9 29.6551 1.96590   2
 -13  -1  -9 19.6227 1.42379   2
  13  -1   9 26.0540 1.71579   2
 -13   1  -9 27.5682 1.82490   2
  14  -1   9 3.58506 0.70148   2
 -14   1  -9 3.95201 0.75894   2
  15  -1   9 0.54774 0.65733   2
 -15   1  -9 1.39009 0.77491   2
  16  -1   9 0.72069 0.69637   2
  22  -2  -9 2.65821 0.93059   3
 -22   2   9 4.52593 0.86069   2
  21  -2  -9 11.9267 1.17194   3
 -21  -2   9 14.0806 1.27987   3
  21  -2  -9 15.2346 1.22475   2
  21   2  -9 11.9118 1.23291   3
 -21   2   9 11.6589 1.15001   2
 -21   2   9 12.0999 1.20356   3
  21   2  -9 13.3822 1.14677   2
 -20  -2   9 31.7884 2.12550   3
  20  -2  -9 37.4895 2.34785   2
  20   2  -9 34.2654 2.23522   2
  20   2  -9 30.7193 2.06858   3
 -20   2   9 35.0450 2.33130   3
 -19  -2   9 64.6397 4.00417   3
  19  -2  -9 64.3916 4.02826   3
  19  -2  -9 71.2859 4.23298   2
  19   2  -9 63.5535 3.95889   3
  19   2  -9 72.3866 4.36691   2
  18  -2  -9 70.6321 4.40111   3
  18  -2  -9 72.4757 4.31842   2
 -18  -2   9 71.4321 4.39889   3
 -18   2   9 75.5375 4.64888   3
  18   2  -9 82.3152 4.91717   2
  18   2  -9 73.6518 4.56206   3
 -18   2   9 78.8744 4.71273   2
  17  -2  -9 77.5332 4.79813   3
  17  -2  -9 77.8189 4.62236   2
 -17  -2   9 77.2910 4.74044   3
 -17   2   9 80.9537 4.80263   2
  17   2  -9 76.5052 4.73461   3
  17   2  -9 86.6256 5.15409   2
 -17   2   9 72.8051 4.50345   3
  16  -2  -9 88.9885 5.47610   3
 -16  -2   9 89.5225 5.48070   3
  16  -2  -9 92.5451 5.43305   2
  16   2  -9 92.0674 5.45056   2
 -16   2   9 88.6738 5.42297   3
 -16   2   9 86.0924 5.08628   2
  15  -2  -9 67.9239 4.03567   2
  15  -2  -9 58.8517 3.65335   3
  15   2  -9 66.3534 3.95852   2
  15   2  -9 63.2119 3.92348   3
 -15   2   9 61.9110 3.81575   3
 -15   2   9 64.1037 3.85166   2
  14  -2  -9 12.8596 1.07127   3
  14  -2  -9 12.2097 0.96470   2
 -14  -2   9 12.6192 1.07820   3
  14   2  -9 11.8569 1.09035   3
  14   2  -9 10.6989 0.89643   2
 -14   2   9 11.1821 0.94665   2
 -14   2   9 11.5184 0.97363   3
 -13  -2   9 2.33037 0.64098   3
  13  -2  -9 1.00285 0.72588   3
  13  -2  -9 1.83894 0.52315   2
 -13  -2   9 5.49453 1.04448   2
 -13   2   9 1.96694 0.64922   3
 -13   2   9 2.06266 0.61328   2
  13   2  -9 0.73808 0.69174   3
 -12  -2   9 1.42298 1.01653   2
  12  -2  -9 4.30375 0.75080   3
 -12  -2   9 5.49576 0.75593   3
  12  -2  -9 5.12096 0.59797   2
  12   2  -9 4.45981 0.61369   2
 -12   2   9 3.91864 0.66961   3
 -12   2   9 3.60685 0.64144   2
  12   2  -9 6.09922 0.83148   3
 -11  -2   9 117.839 7.12085   3
  11  -2  -9 118.299 7.16402   3
  11   2  -9 115.167 6.73552   2
 -11   2   9 115.829 7.00080   3
  11   2  -9 124.181 7.51071   3
 -11   2   9 105.458 9.82420   1
 -10  -2   9 143.020 13.3244   1
  10  -2  -9 154.148 8.96225   2
 -10  -2   9 159.624 9.60114   3
  10  -2  -9 149.500 13.9233   1
 -10  -2   9 154.329 14.3771   1
  10  -2  -9 133.887 12.4707   1
  10   2  -9 192.767 11.2170   2
 -10   2   9 154.016 14.3440   1
  10   2  -9 151.080 14.0694   1
 -10   2   9 156.820 9.11099   2
  10   2  -9 148.333 13.8159   1
 -10   2   9 140.465 13.0855   1
  10   2  -9 163.223 9.80634   3
   9  -2  -9 113.431 10.5696   1
  -9  -2   9 128.783 7.76244   3
   9  -2  -9 131.725 12.2705   1
   9  -2  -9 133.751 7.79385   2
   9  -2  -9 139.351 8.40003   3
   9   2  -9 124.255 11.5760   1
  -9   2   9 134.352 12.5112   1
  -9   2   9 112.746 10.5064   1
   9   2  -9 126.543 7.37308   2
   9   2  -9 119.349 11.1151   1
  -9   2   9 134.803 7.84164   2
   9   2  -9 130.055 7.84175   3
   8  -2  -9 463.770 27.7485   3
   8  -2  -9 417.187 38.8456   1
  -8  -2   9 436.131 40.6139   1
   8  -2  -9 434.184 40.4334   1
   8  -2  -9 400.261 23.1432   2
  -8  -2   9 415.906 24.8898   3
  -8  -2   9 410.033 38.1707   1
   8   2  -9 430.556 25.7529   3
  -8   2   9 458.724 27.4541   3
  -8   2   9 410.543 38.2284   1
   8   2  -9 386.481 22.3746   2
  -8   2   9 443.327 25.6321   2
   8   2  -9 403.856 37.6250   1
   8   2  -9 427.564 39.8045   1
  -8   2   9 430.383 40.0795   1
  -7  -2   9 886.726 82.5500   1
   7  -2  -9 922.304 85.8913   1
   7  -2  -9 834.947 48.2435   2
  -7  -2   9 1023.70 95.3061   1
   7  -2  -9 959.489 57.3681   3
   7  -2  -9 853.915 79.5244   1
  -7  -2   9 888.476 53.1130   3
  -7   2   9 895.121 53.4949   3
  -7   2   9 867.023 50.0842   2
   7   2  -9 944.312 54.5494   2
   7   2  -9 926.549 55.3633   3
  -7   2   9 900.301 83.8384   1
  -7   2   9 825.073 76.8199   1
   7   2  -9 805.358 75.0003   1
   7   2  -9 1003.97 93.4767   1
  -6  -2   9 442.414 41.1798   1
   6  -2  -9 415.634 38.7021   1
   6  -2  -9 447.147 41.6391   1
  -6  -2   9 438.818 26.2540   3
   6  -2  -9 456.681 26.3953   2
  -6  -2   9 484.748 45.1408   1
   6  -2  -9 514.675 30.7878   3
  -6   2   9 467.353 27.9601   3
   6   2  -9 436.363 25.2386   2
  -6   2   9 470.286 27.1660   2
  -6   2   9 461.404 42.9752   1
  -6   2   9 375.245 34.9543   1
   6   2  -9 474.385 44.1601   1
   6   2  -9 446.022 41.5481   1
   5  -2  -9 352.536 21.0965   3
   5  -2  -9 268.445 24.9877   1
  -5  -2   9 282.417 26.2985   1
   5  -2  -9 291.960 16.8923   2
  -5  -2   9 290.189 27.0313   1
  -5  -2   9 287.165 17.1863   3
   5   2  -9 268.828 15.5616   2
  -5   2   9 326.044 19.5047   3
   5   2  -9 283.398 16.9763   3
   5   2  -9 295.360 27.4891   1
  -5   2   9 285.002 26.5305   1
   5   2  -9 269.358 25.0923   1
  -4  -2   9 450.437 41.9458   1
   4  -2  -9 421.659 39.2623   1
   4  -2  -9 522.741 31.2557   3
  -4  -2   9 429.583 24.8425   2
  -4  -2   9 442.446 41.1888   1
   4  -2  -9 439.082 40.8955   1
   4   2  -9 446.879 41.6219   1
   4   2  -9 439.607 26.2953   3
  -4   2   9 415.768 38.7368   1
   4   2  -9 413.200 23.9086   2
   4   2  -9 423.723 39.4603   1
  -4   2   9 469.680 28.0699   3
  -4   2   9 405.321 37.7412   1
  -3  -2   9 130.472 12.1492   1
  -3  -2   9 129.401 7.51550   2
  -3  -2   9 131.853 12.2837   1
  -3  -2   9 129.748 7.79984   3
   3  -2  -9 138.467 8.31129   3
   3   2  -9 130.005 12.1119   1
   3   2  -9 134.163 7.80236   2
   3   2  -9 133.376 8.01077   3
  -3   2   9 144.848 8.68976   3
  -3   2   9 115.733 10.7831   1
   3   2  -9 139.467 12.9913   1
  -3   2   9 160.952 14.9832   1
   2  -2  -9 23.2044 1.43989   3
  -2  -2   9 23.5414 2.19523   1
  -2  -2   9 19.8844 1.85827   1
  -2  -2   9 24.8854 1.53814   2
  -2  -2   9 24.2277 1.50962   3
  -2   2   9 23.7914 2.21770   1
   2   2  -9 25.0561 1.57241   3
   2   2  -9 20.6094 1.92250   1
   2   2  -9 29.4981 1.81014   2
   2   2  -9 21.3673 1.98985   1
  -1  -2   9 -0.2498 0.08197   1
  -1  -2   9 0.11499 0.30360   3
   1  -2  -9 -0.0972 0.26729   3
  -1  -2   9 0.24047 0.32740   2
   1   2  -9 0.34278 0.30169   3
   1   2  -9 -0.1860 0.37502   2
   1   2  -9 0.25303 0.08026   1
   0  -2   9 278.592 16.1280   2
   0  -2   9 300.252 27.9625   1
   0  -2   9 283.855 26.4301   1
   0  -2  -9 290.027 27.0207   1
   0   2  -9 286.678 16.5964   2
   0   2  -9 263.737 15.7862   3
   0   2  -9 294.024 27.3793   1
   0   2  -9 303.958 28.2911   1
   1  -2   9 358.471 33.3769   1
   1  -2   9 333.504 19.3069   2
   1  -2   9 304.424 28.3371   1
  -1  -2  -9 393.754 36.6540   1
   1  -2   9 275.736 16.5036   3
  -1  -2  -9 339.726 31.6368   1
  -1   2  -9 325.499 30.3109   1
  -1   2  -9 329.648 30.6931   1
  -1   2  -9 331.305 19.8169   3
   1   2   9 345.414 32.1568   1
  -1   2  -9 338.115 19.5618   2
  -2  -2  -9 114.182 10.6307   1
   2  -2   9 104.142 6.08183   2
   2  -2   9 104.811 9.76654   1
   2  -2   9 97.8869 5.88942   3
  -2  -2  -9 136.446 12.7023   1
   2  -2   9 96.6148 9.00298   1
  -2   2  -9 119.984 7.00035   2
  -2   2  -9 111.176 10.3583   1
   2   2   9 129.622 12.0684   1
  -2   2  -9 102.847 6.17195   3
  -2   2  -9 98.4535 9.17254   1
   3  -2   9 372.537 21.5667   2
   3  -2   9 353.740 32.9578   1
  -3  -2  -9 549.603 51.1676   1
  -3  -2  -9 390.257 36.3363   1
   3  -2   9 379.952 35.3728   1
   3  -2   9 417.834 24.9869   3
  -3   2  -9 361.301 33.6594   1
  -3   2  -9 347.074 20.7777   3
  -3   2  -9 367.027 34.1786   1
  -3   2  -9 383.779 22.1930   2
   4  -2   9 385.579 35.9105   1
   4  -2   9 362.279 21.6916   3
  -4  -2  -9 437.826 40.7762   1
   4  -2   9 384.358 35.7868   1
  -4  -2  -9 542.374 50.4861   1
   4   2   9 475.607 44.2636   1
  -4   2  -9 382.547 35.6377   1
  -4   2  -9 392.091 36.4960   1
  -5  -2  -9 307.918 28.6812   1
   5  -2   9 284.525 26.4831   1
   5  -2   9 280.439 16.2461   2
   5  -2   9 278.409 25.9232   1
  -5  -2  -9 315.561 29.3698   1
  -5   2  -9 277.540 25.8528   1
   5   2   9 295.649 27.5382   1
  -5   2  -9 256.592 15.3732   3
  -5   2  -9 298.807 17.3097   2
   6  -2   9 216.402 12.5729   2
   6   2   9 193.367 18.0054   1
  -6   2  -9 209.735 12.1829   2
  -6   2  -9 209.686 12.5633   3
   7  -2   9 35.6693 2.18491   2
  -7   2  -9 35.1765 2.20422   3
  -7   2  -9 33.5852 2.05716   2
   8  -2   9 55.1919 3.30495   2
   9  -2   9 61.5710 3.67541   2
 -10   2  -9 1.14169 0.59056   2
 -11   2  -9 20.8749 1.42553   2
  12  -2   9 36.1142 2.25042   2
 -12   2  -9 35.9254 2.27764   2
  13  -2   9 36.7248 2.28583   2
 -13   2  -9 39.2100 2.46272   2
  14  -2   9 32.5651 2.07034   2
 -14   2  -9 31.4106 2.01495   2
  15  -2   9 37.9407 2.36375   2
 -15   2  -9 38.1636 2.40375   2
  16  -2   9 34.7369 2.20352   2
 -16   2  -9 33.0101 2.13817   2
 -21   3   9 1.04409 0.72173   2
 -21   3   9 1.93810 0.79959   3
  20  -3  -9 0.53303 0.89358   3
 -20  -3   9 1.00216 0.74495   3
  20   3  -9 0.54081 0.90663   3
 -20   3   9 0.06381 0.73516   2
 -19  -3   9 0.70964 0.78072   3
  19  -3  -9 1.99325 0.67394   2
  19  -3  -9 -0.2531 0.80743   3
 -19  -3   9 4.77614 1.45653   2
 -19   3   9 1.71369 0.74974   2
 -19   3   9 0.61443 0.75709   3
  19   3  -9 2.29990 0.93067   3
  19   3  -9 -0.1105 0.78901   2
  18  -3  -9 0.54370 0.65144   2
 -18  -3   9 1.35942 0.71788   3
  18  -3  -9 -0.2621 0.86499   3
 -18   3   9 0.61410 0.81072   3
  18   3  -9 0.16238 0.89322   3
  18   3  -9 0.64374 0.79278   2
 -18   3   9 1.98200 0.74459   2
  17  -3  -9 2.08594 0.73363   2
  17   3  -9 0.81648 0.83841   3
 -17   3   9 3.90140 0.81290   2
 -16  -3   9 8.65590 0.93164   3
  16  -3  -9 8.59056 0.98605   3
  16  -3  -9 7.86718 0.79725   2
  16   3  -9 8.13167 0.99104   3
  16   3  -9 5.63794 0.79948   2
 -16   3   9 7.29236 0.80964   2
 -16   3   9 8.59772 0.94627   3
  15  -3  -9 7.33996 0.97751   3
 -15  -3   9 9.13323 0.96027   3
 -15  -3   9 12.2356 1.49092   2
  15  -3  -9 8.32386 0.80598   2
  15   3  -9 8.08082 0.93144   2
 -15   3   9 7.52799 0.90591   3
 -15   3   9 8.66767 0.86991   2
  14  -3  -9 15.8834 1.12603   2
  14  -3  -9 16.3155 1.31608   3
  14   3  -9 17.2043 1.34895   3
 -14   3   9 17.2459 1.24633   2
  14   3  -9 17.4477 1.28820   2
 -14   3   9 15.7270 1.27442   3
 -13  -3   9 60.2663 3.74284   3
  13  -3  -9 61.9018 3.69148   2
  13  -3  -9 60.4315 3.75890   3
 -13   3   9 55.6187 3.33149   2
  13   3  -9 59.7277 3.71809   3
  13   3  -9 58.1608 3.49143   2
 -13   3   9 58.2794 3.63575   3
  12  -3  -9 67.6676 4.00989   2
 -12  -3   9 73.1451 4.48528   3
  12  -3  -9 69.7140 4.32451   3
  12   3  -9 75.5998 4.63969   3
 -12   3   9 65.9159 4.06692   3
 -12   3   9 68.1146 4.03957   2
  12   3  -9 66.4552 3.93838   2
 -11  -3   9 41.5963 2.63624   3
  11  -3  -9 43.9683 2.63233   2
 -11   3   9 44.1045 2.65415   2
 -11   3   9 42.7060 2.68483   3
  11   3  -9 38.8257 2.35212   2
  11   3  -9 44.8174 2.82067   3
  10  -3  -9 90.4783 5.50257   3
 -10  -3   9 91.5590 5.54834   3
  10   3  -9 82.8136 4.87864   2
  10   3  -9 90.2913 5.48459   3
 -10   3   9 92.4873 5.43256   2
  -9  -3   9 39.6616 2.47805   3
   9  -3  -9 45.8353 2.88038   3
   9   3  -9 40.2638 2.42247   2
  -9   3   9 41.1283 2.47890   2
   9   3  -9 39.4714 2.47364   3
  -9   3   9 46.7831 2.91848   3
   9   3  -9 39.7853 3.70468   1
  -9   3   9 41.5418 3.87087   1
  -9   3   9 35.7189 3.33158   1
   8  -3  -9 8.10414 0.66372   2
  -8  -3   9 7.30849 0.69056   1
  -8  -3   9 5.78118 0.54272   1
  -8  -3   9 7.60723 0.73273   3
   8  -3  -9 7.57596 0.71563   1
   8  -3  -9 7.59329 0.71187   1
  -8   3   9 8.18677 0.77033   1
  -8   3   9 7.03780 0.66272   1
   8   3  -9 6.21867 0.59029   1
   8   3  -9 6.80923 0.64233   1
   8   3  -9 7.49092 0.72380   3
   6  -3  -9 0.00870 0.10345   1
  -6  -3   9 -0.3402 0.62712   2
  -6  -3   9 -0.1608 0.40442   3
   6  -3  -9 0.69577 0.47511   3
   6  -3  -9 0.48855 0.34842   2
  -6  -3   9 0.26129 0.10026   1
   6   3  -9 -0.2020 0.41971   3
  -6   3   9 -0.5142 0.51183   3
   6   3  -9 -0.0162 0.09656   1
  -5  -3   9 50.6760 4.71622   1
  -5  -3   9 54.2786 3.31007   3
   5  -3  -9 54.0022 5.03495   1
   5  -3  -9 53.3145 4.96501   1
  -5  -3   9 49.5383 4.61868   1
  -5  -3   9 53.1086 3.14597   2
   5  -3  -9 52.2197 3.20839   3
   5   3  -9 49.4787 4.60692   1
  -5   3   9 45.6939 4.25380   1
  -5   3   9 54.9128 3.34994   3
   5   3  -9 48.1842 4.49440   1
  -4  -3   9 48.8161 4.54782   1
  -4  -3   9 48.9776 3.00408   3
   4  -3  -9 38.8349 3.61856   1
  -4  -3   9 48.2493 4.50073   1
   4  -3  -9 54.0829 3.31163   3
   4  -3  -9 50.4433 4.69644   1
   4   3  -9 50.5623 3.00622   2
   4   3  -9 56.3623 3.46159   3
  -4   3   9 51.1040 3.11835   3
  -4   3   9 52.9059 4.93024   1
   3  -3  -9 79.5471 4.80073   3
   3  -3  -9 98.4667 9.16817   1
  -3  -3   9 70.9469 6.61204   1
  -3  -3   9 82.1491 7.65467   1
   3   3  -9 73.5903 6.85731   1
   3   3  -9 88.3003 8.22826   1
  -3   3   9 84.4939 5.09433   3
   3   3  -9 80.5415 4.87588   3
  -2  -3   9 64.9009 3.81540   2
  -2  -3   9 56.7843 3.46566   3
   2   3  -9 62.9936 3.82922   3
  -2   3   9 66.1493 3.99797   3
   2   3  -9 68.2646 6.35624   1
   2   3  -9 77.2148 4.53925   2
   2   3  -9 60.7383 5.65908   1
   1  -3  -9 26.5585 1.65861   3
  -1  -3   9 25.0461 1.55552   2
  -1  -3   9 24.9750 2.32816   1
  -1  -3   9 23.9163 1.50688   3
  -1  -3   9 25.0321 2.33234   1
   1   3  -9 27.0594 2.51828   1
   1   3  -9 25.6628 1.57516   2
   1   3  -9 25.8705 1.62814   3
   1   3  -9 24.3633 2.27105   1
   0  -3   9 130.721 12.1699   1
   0  -3   9 121.050 7.26516   3
   0  -3   9 127.609 7.41792   2
   0  -3   9 124.061 11.5550   1
   0  -3  -9 132.325 7.94496   3
   0   3  -9 126.731 7.36746   2
   0   3  -9 125.924 11.7239   1
   0   3  -9 131.984 7.92216   3
   0   3  -9 121.769 11.3363   1
   1  -3   9 115.128 10.7243   1
   1  -3   9 108.860 10.1379   1
  -1   3  -9 109.690 10.2178   1
  -1   3  -9 120.178 7.23304   3
  -1   3  -9 109.528 10.1985   1
   2  -3   9 56.6812 5.27756   1
   2  -3   9 61.8777 3.66613   2
   2  -3   9 61.7842 5.75578   1
   2  -3   9 59.3635 3.59444   3
  -2   3  -9 64.6213 3.91917   3
  -2   3  -9 57.6745 5.37707   1
  -2   3  -9 56.6285 5.27691   1
  -2   3  -9 61.3649 3.61747   2
   3  -3   9 22.5958 2.11243   1
   3  -3   9 24.9023 1.55154   2
   3  -3   9 23.9154 1.52260   3
  -3   3  -9 21.9146 2.04517   1
  -3   3  -9 24.8246 1.57009   2
  -3   3  -9 23.8014 1.50497   3
   4  -3   9 0.53912 0.37071   3
   4  -3   9 1.01052 0.44351   2
  -4   3  -9 0.81559 0.38802   3
  -4   3  -9 1.33697 0.45939   2
   5  -3   9 2.28664 0.44846   2
   5  -3   9 1.93576 0.50826   3
  -5   3  -9 1.98062 0.51617   2
   6  -3   9 8.70423 0.71106   2
  -6   3  -9 8.85101 0.70840   2
  -6   3  -9 8.20095 0.67434   3
   7  -3   9 18.9526 1.29542   3
   7  -3   9 19.1904 1.27501   2
  -7   3  -9 16.8875 1.15591   2
  -7   3  -9 17.7531 1.20399   3
   8  -3   9 41.6203 2.54340   2
   8  -3   9 37.2631 2.33978   3
  -8   3  -9 38.2667 2.40767   3
  -8   3  -9 43.9603 2.67773   2
   9  -3   9 52.9665 3.17298   2
  -9   3  -9 52.8056 3.19036   2
  -9   3  -9 47.9835 2.99547   3
  10  -3   9 2.49458 0.54376   2
 -10   3  -9 1.43901 0.52754   2
  11  -3   9 9.09093 0.80011   2
 -11   3  -9 8.73167 0.84106   2
  12  -3   9 22.9798 1.52173   2
 -12   3  -9 21.9275 1.50456   2
  13  -3   9 5.19383 0.64782   2
 -13   3  -9 4.67284 0.75806   2
  14  -3   9 2.60039 0.60984   2
  15  -3   9 0.24220 0.58342   2
 -15   3  -9 0.38808 0.67064   2
  20  -4  -9 2.07480 0.90179   3
 -20   4   9 2.00065 0.84862   3
 -19  -4   9 3.09234 0.69791   3
  19  -4  -9 2.25445 0.87377   3
 -19   4   9 2.59434 0.79716   3
  19   4  -9 2.14608 0.95569   3
  18  -4  -9 3.33970 0.94728   3
  18  -4  -9 2.23650 0.66896   2
 -18  -4   9 2.72662 0.79407   3
  18   4  -9 1.08428 0.82395   2
 -18   4   9 1.94469 0.79243   3
  18   4  -9 1.56870 0.96195   3
 -17  -4   9 2.11933 0.79689   3
  17  -4  -9 2.53148 0.63723   2
  17  -4  -9 1.70169 0.76588   3
  17   4  -9 1.29744 0.77408   2
  17   4  -9 1.13601 0.90895   3
 -17   4   9 0.16656 0.75918   3
  16  -4  -9 1.94605 0.84516   3
  16  -4  -9 2.53860 0.64998   2
 -16  -4   9 2.23738 0.76193   3
  16   4  -9 2.90462 0.85670   2
  16   4  -9 2.97166 0.93818   3
 -16   4   9 2.21753 0.90781   3
  15  -4  -9 7.25628 1.03131   3
  15  -4  -9 6.04680 0.74042   2
 -15  -4   9 7.22513 0.80970   3
  15   4  -9 6.31420 0.96433   3
 -15   4   9 8.04146 0.94202   2
 -15   4   9 7.30112 0.99722   3
 -14  -4   9 1.75625 0.73880   3
 -14  -4   9 4.55509 1.53508   2
  14  -4  -9 1.50520 0.79946   3
  14  -4  -9 1.61955 0.64790   2
  14   4  -9 3.51207 0.83537   2
 -14   4   9 2.44852 0.83109   3
 -14   4   9 2.35555 0.73554   2
  13  -4  -9 -0.0900 0.56999   2
  13  -4  -9 0.04852 0.82744   3
 -13   4   9 -0.1782 0.81226   3
 -13   4   9 0.59448 0.65952   2
  13   4  -9 -0.1219 0.77795   3
  13   4  -9 0.18555 0.69474   2
 -12  -4   9 0.28189 0.62026   3
  12  -4  -9 0.80933 0.54392   2
  12   4  -9 0.98352 0.62950   2
 -12   4   9 2.82537 0.77022   3
  12   4  -9 0.62536 0.60862   3
 -12   4   9 2.96218 0.63670   2
  11  -4  -9 6.41004 0.70495   2
  11  -4  -9 7.98751 0.86290   3
 -11  -4   9 6.23832 0.72282   3
  11   4  -9 6.94434 0.76963   2
  11   4  -9 5.30773 0.69051   3
 -11   4   9 8.11461 0.79434   2
  10  -4  -9 50.9912 3.17090   3
 -10  -4   9 53.5834 3.31269   3
  10   4  -9 52.4180 3.15300   2
  10   4  -9 52.1890 3.21227   3
 -10   4   9 51.3571 3.19591   3
   9  -4  -9 8.09952 0.82233   3
  -9  -4   9 8.02586 0.72605   3
   9   4  -9 10.2195 0.87648   2
   9   4  -9 9.89245 0.87221   3
  -9   4   9 8.21960 0.85923   3
   8  -4  -9 26.1311 1.73343   3
  -8  -4   9 36.0496 2.29712   2
  -8  -4   9 26.6299 1.74400   3
   8   4  -9 26.8227 1.71356   3
   8   4  -9 28.3524 1.78535   2
  -8   4   9 27.4674 1.82623   3
  -7  -4   9 70.7294 4.17090   2
  -7  -4   9 67.4370 4.12218   3
   7  -4  -9 65.8521 4.03779   3
   7   4  -9 69.3192 4.22129   3
  -7   4   9 65.3143 3.98855   3
   7   4  -9 75.6403 4.47482   2
  -6  -4   9 1.76653 0.51018   3
  -6  -4   9 1.52578 0.48830   2
   6   4  -9 1.58002 0.50702   3
  -6   4   9 1.96076 0.57693   3
   6   4  -9 0.91515 0.43718   2
  -5  -4   9 9.83735 0.79386   3
  -5  -4   9 10.9414 0.84278   2
   5   4  -9 9.25800 0.74264   2
   5   4  -9 11.5079 0.87893   3
  -4  -4   9 7.27272 0.65456   2
   4  -4  -9 5.72514 0.61549   3
  -4  -4   9 7.54823 0.69818   3
  -4   4   9 7.27391 0.70572   3
   4   4  -9 6.07932 0.59757   3
   4   4  -9 5.12454 0.53716   2
  -4   4   9 5.86622 0.55374   1
  -3  -4   9 17.0238 1.12304   3
  -3  -4   9 17.4764 1.16224   2
   3   4  -9 17.0977 1.13859   2
  -3   4   9 18.6105 1.26746   3
   2  -4  -9 8.67839 0.73330   3
  -2  -4   9 8.45168 0.69799   2
   2   4  -9 10.0758 0.76434   3
   2   4  -9 8.98609 0.69952   2
  -1  -4   9 0.66257 0.36851   2
   1  -4  -9 0.77171 0.44809   3
  -1  -4   9 0.58551 0.40558   3
  -1   4   9 0.61558 0.37365   3
   1   4  -9 1.05191 0.39518   2
   1   4  -9 0.47264 0.42544   3
   0  -4   9 33.3425 2.03552   2
   0  -4   9 35.4979 2.22170   3
   0  -4  -9 35.7498 2.21610   3
   0   4  -9 38.5346 2.34858   2
   0   4  -9 37.1134 2.28981   3
   1  -4   9 0.76319 0.40783   3
   1  -4   9 0.15968 0.52561   2
  -1   4  -9 1.63136 0.44255   3
   2  -4   9 19.1275 1.26003   3
   2  -4   9 19.0323 1.24557   2
  -2   4  -9 20.4975 1.34315   3
   3  -4   9 53.6885 3.28157   3
   3  -4   9 56.8165 3.37809   2
  -3   4  -9 53.4197 3.18957   2
  -3   4  -9 54.7457 3.35158   3
   4  -4   9 27.8029 1.76847   3
  -4   4  -9 24.2581 1.57696   3
  -4   4  -9 26.5209 1.69397   2
   5  -4   9 9.94205 0.78034   3
  -5   4  -9 10.4485 0.85275   2
  -5   4  -9 10.9781 0.83207   3
   6  -4   9 19.0950 1.27152   2
   6  -4   9 19.6423 1.33119   3
  -6   4  -9 19.2473 1.29193   2
   7  -4   9 6.89740 0.70309   2
  -7   4  -9 6.83943 0.75850   2
  -7   4  -9 5.58564 0.65361   3
   8  -4   9 13.1108 1.07573   3
   8  -4   9 11.8242 0.92542   2
  -8   4  -9 11.9859 0.95874   2
  -8   4  -9 10.9256 0.90307   3
   9  -4   9 -0.7157 0.59057   3
  -9   4  -9 0.76819 0.67113   3
  10  -4   9 1.97330 0.54253   2
 -10   4  -9 1.94351 0.60381   2
 -10   4  -9 -0.0229 0.73145   3
  11  -4   9 19.1259 1.28383   2
 -11   4  -9 19.7897 1.37071   2
  12  -4   9 0.41090 0.52599   2
 -12   4  -9 0.41576 0.63023   2
  13  -4   9 1.63753 0.59442   2
 -13   4  -9 1.70528 0.65489   2
  14  -4   9 3.57622 0.63400   2
 -14   4  -9 4.21010 0.73423   2
  18  -5  -9 -0.9327 0.83194   3
 -18   5   9 0.20841 0.71332   3
  17  -5  -9 4.02363 0.85240   3
 -17  -5   9 2.55906 0.76791   3
  17   5  -9 2.69051 0.82998   3
 -17   5   9 3.89698 0.91877   3
  16  -5  -9 12.0878 1.16578   3
 -16  -5   9 12.4778 1.11383   3
  16   5  -9 11.3138 1.05895   3
 -16   5   9 11.6689 1.19816   3
 -15  -5   9 17.6857 1.36285   3
  15  -5  -9 17.5625 1.35449   3
  15   5  -9 17.8905 1.41717   3
 -15   5   9 17.8388 1.39922   3
 -14  -5   9 40.3820 2.60020   3
  14   5  -9 35.8073 2.31917   2
 -14   5   9 34.5446 2.28079   3
  14   5  -9 39.0206 2.53347   3
  13  -5  -9 42.8502 2.77581   3
 -13  -5   9 45.3531 2.87486   3
  13   5  -9 43.5188 2.73909   2
  12  -5  -9 17.8356 1.38322   3
 -12   5   9 16.8109 1.32834   3
  12   5  -9 23.6641 1.64304   3
  12   5  -9 22.2514 1.64048   2
  11  -5  -9 43.6063 2.76682   3
 -11  -5   9 41.0071 2.62673   3
 -11  -5   9 48.3819 3.07842   2
 -11   5   9 43.4573 2.77866   3
  11   5  -9 44.8108 2.77574   2
  11   5  -9 47.0098 2.95877   3
 -10  -5   9 46.0605 2.89259   3
 -10  -5   9 47.7784 2.90808   2
  10  -5  -9 46.2274 2.92304   3
  10   5  -9 52.6501 3.21963   2
 -10   5   9 48.1434 3.05927   3
  10   5  -9 44.6687 2.80008   3
   9  -5  -9 7.02498 0.80340   3
  -9  -5   9 8.06656 0.82075   3
  -9  -5   9 7.54160 0.75281   2
  -9   5   9 7.38984 0.85355   3
   9   5  -9 7.48305 0.74888   3
  -8  -5   9 5.01972 0.66104   3
   8  -5  -9 3.81003 0.70694   3
  -8   5   9 6.21965 0.82318   3
   8   5  -9 5.19924 0.64127   3
  -7  -5   9 0.71027 0.54462   3
   7  -5  -9 -0.5874 0.57444   3
  -7   5   9 -0.0221 0.55944   3
   7   5  -9 0.56264 0.51995   3
   7   5  -9 -0.1965 0.57847   2
  -6  -5   9 1.10211 0.50926   3
  -6  -5   9 0.81729 0.59469   2
   6  -5  -9 1.67748 0.61517   3
   6   5  -9 1.40728 0.48384   3
   6   5  -9 1.14825 0.55561   2
  -6   5   9 0.64163 0.63532   3
  -5  -5   9 9.18883 0.77469   3
  -5  -5   9 10.8820 0.89091   2
   5  -5  -9 8.56812 0.79622   3
   5   5  -9 8.15371 0.71266   3
   5   5  -9 9.97025 0.83222   2
  -5   5   9 8.62859 0.78187   3
  -4  -5   9 108.590 6.54481   3
  -4  -5   9 120.915 7.05974   2
   4   5  -9 109.412 6.59600   3
  -4   5   9 119.726 7.22290   3
  -3  -5   9 101.990 5.96450   2
   3  -5  -9 101.497 6.14031   3
  -3  -5   9 87.8490 5.33083   3
   3   5  -9 94.8710 5.73974   3
   3   5  -9 95.6104 5.61643   2
  -2  -5   9 81.0798 4.76545   2
  -2  -5   9 80.0995 4.85638   3
   2  -5  -9 83.2345 5.04934   3
  -2   5   9 93.6922 5.67349   3
   2   5  -9 85.0406 5.01308   2
  -1  -5   9 117.001 6.83547   2
   1  -5  -9 105.196 6.36396   3
   1   5  -9 125.021 7.30919   2
   1   5  -9 113.511 6.84279   3
  -1   5   9 103.699 6.25719   3
   0  -5  -9 42.3332 2.64206   3
   0  -5   9 45.5332 2.74861   2
   0  -5   9 42.0782 2.61632   3
   0   5  -9 46.5024 2.88328   3
   0   5  -9 43.3587 2.62378   2
   1  -5   9 84.9747 5.01527   2
   1  -5   9 76.2875 4.65237   3
  -1   5  -9 79.5655 4.83473   3
   2  -5   9 31.9626 2.05233   3
   2  -5   9 27.7633 1.77054   2
  -2   5  -9 28.8909 1.82437   2
  -2   5  -9 27.6834 1.76671   3
   3  -5   9 5.16740 0.65710   3
   3  -5   9 4.78889 0.63149   2
  -3   5  -9 4.21918 0.62128   2
  -3   5  -9 3.35328 0.54128   3
   4  -5   9 1.37878 0.48036   3
   4  -5   9 0.70834 0.53466   2
  -4   5  -9 0.54289 0.46230   2
  -4   5  -9 1.70785 0.51918   3
   5  -5   9 3.89364 0.63308   2
   5  -5   9 3.44315 0.58486   3
  -5   5  -9 3.21013 0.56817   3
  -5   5  -9 4.05373 0.66350   2
   6  -5   9 3.27892 0.60943   3
   6  -5   9 3.14495 0.63140   2
  -6   5  -9 2.26152 0.60398   3
  -6   5  -9 3.43799 0.68772   2
   7  -5   9 26.8505 1.72566   2
   7  -5   9 27.1927 1.84453   3
  -7   5  -9 26.0726 1.71138   2
   8  -5   9 42.8950 2.62520   2
   8  -5   9 46.5803 2.95377   3
  -8   5  -9 42.8557 2.64512   2
  -8   5  -9 39.7626 2.51391   3
   9  -5   9 17.7242 1.34538   3
   9  -5   9 16.8992 1.18321   2
  -9   5  -9 16.9471 1.28151   3
  -9   5  -9 19.3383 1.39056   2
  10  -5   9 25.3644 1.62442   2
  11  -5   9 12.1718 0.92181   2
 -12   5  -9 14.3352 1.11737   2
  16  -6  -9 3.88747 0.90481   3
 -16   6   9 3.85732 0.89779   3
 -15  -6   9 1.72822 0.76581   3
 -15   6   9 0.48514 0.82728   3
 -14  -6   9 7.54273 0.83281   3
  14  -6  -9 6.92037 0.92011   3
  14   6  -9 7.39464 0.80588   3
  13  -6  -9 4.46506 0.82312   3
 -13  -6   9 4.83943 0.72381   3
  13   6  -9 3.37207 0.74743   3
 -13   6   9 3.62911 0.79353   3
 -12  -6   9 3.53246 0.69040   3
  12  -6  -9 2.96540 0.71142   3
  12   6  -9 2.51780 0.71235   3
 -12   6   9 2.61624 0.70087   3
 -11  -6   9 4.20583 0.72162   3
  11  -6  -9 5.40986 0.84352   3
 -11   6   9 4.91746 0.83833   3
  10  -6  -9 5.34912 0.72970   3
  10   6  -9 3.26744 0.69915   3
 -10   6   9 5.24336 0.79582   3
  -8  -6   9 34.4878 2.20998   3
  -8  -6   9 33.4804 2.16596   2
   8  -6  -9 34.9251 2.28426   3
   8   6  -9 32.2763 2.08795   3
  -8   6   9 34.3271 2.24803   3
  -7  -6   9 51.2790 3.12583   2
  -7  -6   9 49.2940 3.07790   3
   7  -6  -9 52.5323 3.27652   3
  -7   6   9 51.2570 3.21211   3
   7   6  -9 45.3314 2.78920   2
   7   6  -9 51.3648 3.19585   3
   6  -6  -9 15.3911 1.12789   3
  -6  -6   9 20.0724 1.37051   3
  -6  -6   9 21.6243 1.47559   2
   6   6  -9 21.6406 1.46198   3
  -6   6   9 21.2678 1.47986   3
   6   6  -9 19.2657 1.33552   2
   5  -6  -9 13.7241 1.08802   3
  -5  -6   9 13.1452 0.98248   3
  -5   6   9 14.7499 1.18667   3
   5   6  -9 14.3427 1.05922   3
  -4  -6   9 9.06572 0.84168   2
  -4  -6   9 10.8516 0.85674   3
   4  -6  -9 9.39697 0.84696   3
  -4   6   9 9.11248 0.89535   3
   4   6  -9 10.2686 0.83006   3
   4   6  -9 9.96694 0.90286   2
   3  -6  -9 9.29948 0.85125   3
  -3  -6   9 9.28555 0.82748   2
  -3  -6   9 8.12260 0.74336   3
   3   6  -9 9.08054 0.86150   2
  -3   6   9 9.39353 0.85220   3
   3   6  -9 9.16991 0.79141   3
  -2  -6   9 13.1400 0.98661   3
   2  -6  -9 11.6493 0.99551   3
  -2   6   9 13.8194 1.04786   3
   2   6  -9 11.4346 0.85989   3
  -1  -6   9 1.48819 0.54576   3
   1  -6  -9 0.04180 0.59786   3
  -1  -6   9 1.91769 0.60494   2
   0   6  -9 3.20524 0.61110   2
   0   6  -9 2.79055 0.53614   3
  -1   6  -9 10.2463 0.79029   3
  -1   6  -9 12.2866 1.00616   2
   2  -6   9 15.5174 1.14423   2
  -2   6  -9 16.6511 1.20195   2
   3  -6   9 0.41097 0.55702   2
   3  -6   9 1.55899 0.52968   3
  -3   6  -9 0.13856 0.48273   3
  -3   6  -9 0.98900 0.59683   2
   4  -6   9 61.1009 3.75423   3
  -4   6  -9 65.9731 4.05894   3
  -4   6  -9 68.3773 4.10575   2
   5  -6   9 73.4961 4.36565   2
   5  -6   9 84.7259 5.18525   3
  -5   6  -9 71.3771 4.27436   2
  -5   6  -9 74.5870 4.57727   3
   6  -6   9 1.22663 0.57070   2
   6  -6   9 0.73970 0.56719   3
  -6   6  -9 0.81889 0.60872   3
  -6   6  -9 -0.2304 0.66351   2
   7  -6   9 10.1227 0.99262   3
   7  -6   9 8.33171 0.80497   2
  -7   6  -9 8.74331 0.88324   2
   8  -6   9 11.5546 0.93630   2
  -8   6  -9 9.83609 0.88016   3
  -8   6  -9 10.3213 0.94570   2
   9  -6   9 1.64865 0.59037   2
  -9   6  -9 1.69865 0.77779   2
  12   7  -9 -0.3006 0.73763   3
 -11  -7   9 -0.8520 0.68400   3
  11  -7  -9 -0.5830 0.76020   3
 -11   7   9 -0.0683 0.75118   3
  11   7  -9 -0.7044 0.69999   3
  10  -7  -9 1.74558 0.74418   3
 -10  -7   9 1.39776 0.62474   3
 -10   7   9 1.90070 0.81184   3
   9  -7  -9 0.21472 0.63780   3
  -9   7   9 -0.3462 0.71410   3
   9   7  -9 -0.4234 0.66536   3
  -8  -7   9 -0.3703 0.55112   3
   8  -7  -9 0.36279 0.70434   3
  -8   7   9 -0.3486 0.72191   3
   8   7  -9 -0.1924 0.61164   3
   7  -7  -9 -0.8239 0.67396   3
  -7  -7   9 0.38123 0.55922   3
   7   7  -9 1.59033 0.59078   3
  -7   7   9 0.90142 0.68475   3
  -6  -7   9 0.97404 0.54772   3
   6  -7  -9 2.19038 0.70189   3
   6   7  -9 1.88331 0.59540   3
  -6   7   9 0.94045 0.73576   3
  -5  -7   9 0.41287 0.52594   3
   5  -7  -9 -0.1484 0.67625   3
  -5   7   9 -0.4441 0.67475   3
   5   7  -9 0.41414 0.47960   3
   4  -7  -9 0.14791 0.62763   3
  -4  -7   9 0.12649 0.53346   3
  -4   7   9 1.36644 0.67070   3
   4   7  -9 0.59343 0.48965   3
  -3  -7   9 0.58636 0.48382   3
   3   7  -9 0.17273 0.47507   3
  -2  -7   9 0.16799 0.50823   3
   2   7  -9 1.17277 0.51609   3
  -1  -7   9 0.39573 0.55630   3
   0  -7   9 0.06520 0.47818   3
   0   7  -9 -0.2674 0.53928   3
   1  -7   9 15.7387 1.12736   3
  -1   7  -9 16.0090 1.14729   3
   2  -7   9 0.27197 0.59841   3
  -2   7  -9 -0.6655 0.50491   3
   3  -7   9 0.54618 0.60089   3
  -3   7  -9 0.53600 0.56405   3
   4  -7   9 4.13204 0.61316   3
  -4   7  -9 5.65647 0.69718   3
   5  -7   9 1.04841 0.56445   3
  -5   7  -9 1.11750 0.61472   3
  22   0 -10 26.3421 1.78731   2
  22   0 -10 23.4170 1.73347   3
 -22   0  10 24.6113 1.75433   3
  21   0 -10 49.2694 3.16930   3
  21   0 -10 47.6136 2.91323   2
 -21   0  10 50.1921 3.18378   3
  20   0 -10 71.1308 4.26751   2
  20   0 -10 75.5283 4.70197   3
 -20   0  10 77.1490 4.78932   3
 -19   0  10 30.1245 2.12419   2
  19   0 -10 37.6876 2.37481   2
 -19   0  10 36.1681 2.40518   3
  18   0 -10 10.8152 1.09935   3
  18   0 -10 9.92494 0.95130   2
 -18   0  10 11.0450 1.27867   2
 -17   0  10 36.5610 2.35354   3
  17   0 -10 34.6308 2.24782   3
  17   0 -10 35.7604 2.23787   2
 -17   0  10 36.3793 2.43374   2
 -16   0  10 1.43662 0.65404   3
  16   0 -10 2.62855 0.66330   3
  16   0 -10 2.41323 0.59969   2
 -16   0  10 1.71672 0.76289   2
  15   0 -10 63.7615 3.79132   2
 -15   0  10 63.1194 3.88878   3
  15   0 -10 65.8723 4.06831   3
 -15   0  10 65.0930 3.89529   2
 -14   0  10 5.59307 0.83081   2
  14   0 -10 5.41543 0.73486   3
 -14   0  10 7.16162 0.81256   3
  14   0 -10 7.19441 0.73167   2
  13   0 -10 70.8522 4.17788   2
  13   0 -10 82.1165 5.00356   3
 -13   0  10 84.8010 5.18431   3
 -12   0  10 442.591 26.4901   3
  12   0 -10 455.975 26.3899   2
  12   0 -10 431.481 40.1884   1
 -12   0  10 420.765 39.1896   1
 -12   0  10 473.532 27.3848   2
  12   0 -10 453.458 27.1387   3
 -11   0  10 378.100 35.1968   1
 -11   0  10 389.219 36.2461   1
  11   0 -10 376.788 35.0993   1
  11   0 -10 375.224 34.9481   1
  10   0 -10 307.870 17.8352   2
 -10   0  10 299.462 17.9406   3
  10   0 -10 309.244 18.5316   3
 -10   0  10 306.057 28.5054   1
 -10   0  10 309.966 28.8548   1
  -9   0  10 603.848 34.9231   2
  -9   0  10 616.701 57.4453   1
  -9   0  10 621.955 57.9045   1
  -9   0  10 593.409 35.4822   3
  -8   0  10 399.935 37.2554   1
   8   0 -10 412.447 38.4046   1
   8   0 -10 412.954 38.4449   1
  -8   0  10 399.253 23.1037   2
  -8   0  10 426.933 39.7593   1
   8   0 -10 459.112 27.4600   3
   7   0 -10 541.879 32.3888   3
   7   0 -10 526.913 49.0745   1
   7   0 -10 506.551 29.2975   2
  -7   0  10 601.015 34.7482   2
  -7   0  10 552.935 33.0749   3
   7   0 -10 508.028 47.3077   1
   6   0 -10 101.926 9.49546   1
   6   0 -10 94.2216 5.50339   2
   6   0 -10 107.723 6.50001   3
  -6   0  10 108.746 6.53066   3
   6   0 -10 100.910 9.40456   1
  -5   0  10 40.9126 3.81146   1
  -5   0  10 42.5960 2.59780   3
   5   0 -10 41.8089 3.89729   1
  -5   0  10 38.5652 3.59624   1
   5   0 -10 38.7576 2.29551   2
   5   0 -10 38.4942 3.58411   1
   5   0 -10 39.8344 2.44655   3
  -4   0  10 19.6311 1.83384   1
   4   0 -10 16.2247 1.03627   3
  -4   0  10 17.6325 1.64294   1
   4   0 -10 17.7621 1.65604   1
  -4   0  10 16.8388 1.06346   3
   4   0 -10 18.5202 1.14883   2
   4   0 -10 19.5514 1.82506   1
   3   0 -10 383.018 35.6776   1
  -3   0  10 426.528 39.6931   1
  -3   0  10 318.544 19.0592   3
   3   0 -10 439.223 40.8808   1
   3   0 -10 384.150 22.1962   2
   3   0 -10 413.443 24.6978   3
  -3   0  10 421.392 39.2344   1
  -2   0  10 241.978 22.5213   1
   2   0 -10 189.164 11.3145   3
  -2   0  10 205.620 11.9047   2
   2   0 -10 186.191 17.3427   1
  -2   0  10 209.974 19.5494   1
   2   0 -10 216.033 20.1257   1
   2   0 -10 193.133 11.1780   2
   1   0 -10 488.485 45.4778   1
  -1   0  10 530.503 49.3908   1
  -1   0  10 384.202 22.2331   2
  -1   0  10 495.862 46.1834   1
   1   0 -10 535.745 49.8719   1
   1   0 -10 504.073 29.1231   2
   0   0  10 894.107 83.2291   1
   0   0 -10 801.635 46.3207   2
   0   0 -10 833.546 77.6195   1
   0   0  10 682.627 39.4583   2
   0   0 -10 891.584 83.0013   1
   0   0  10 802.658 74.7374   1
   1   0  10 683.920 63.6572   1
   1   0  10 598.278 55.7187   1
  -1   0 -10 636.510 59.2727   1
  -1   0 -10 699.119 65.0841   1
   1   0  10 695.625 40.1808   2
  -1   0 -10 588.362 33.9979   2
  -2   0 -10 426.495 39.7190   1
  -2   0 -10 470.407 43.7934   1
   2   0  10 396.502 22.9458   2
   2   0  10 423.522 39.4408   1
   2   0  10 414.009 38.5441   1
  -2   0 -10 418.461 24.2022   2
   3   0  10 34.1634 3.18749   1
  -3   0 -10 34.7202 2.07704   2
  -3   0 -10 33.2096 3.09908   1
   3   0  10 40.0663 3.73701   1
  -3   0 -10 39.0430 3.64082   1
   3   0  10 34.9236 2.08437   2
  -4   0 -10 697.509 64.9595   1
   4   0  10 664.981 61.9254   1
  -4   0 -10 698.629 40.3827   2
   4   0  10 645.663 60.1304   1
  -4   0 -10 641.566 59.7386   1
   4   0  10 747.246 43.1674   2
   5   0  10 140.108 13.0525   1
  -5   0 -10 135.632 12.6321   1
   5   0  10 139.719 13.0178   1
   5   0  10 172.568 10.0334   2
  -5   0 -10 143.796 13.3936   1
  -5   0 -10 161.111 9.35587   2
  -6   0 -10 50.2067 4.67434   1
   6   0  10 44.5485 4.15019   1
  -6   0 -10 47.2157 2.83762   2
   6   0  10 50.3698 3.00583   2
  -7   0 -10 14.7169 1.03871   2
   7   0  10 13.8178 0.97706   2
   8   0  10 82.4650 4.86902   2
  -8   0 -10 79.9201 4.74035   2
   9   0  10 74.0785 4.40011   2
  -9   0 -10 74.9215 4.45888   2
  10   0  10 70.9240 4.19350   2
 -11   0 -10 191.324 11.1769   2
  11   0  10 189.330 11.0369   2
 -12   0 -10 90.2846 5.35274   2
  13   0  10 48.9270 2.98974   2
  14   0  10 25.2292 1.71840   2
 -14   0 -10 24.5425 1.72073   2
 -22  -1  10 0.41068 0.87539   3
  22  -1 -10 0.13901 0.74739   2
  22  -1 -10 2.56516 0.89673   3
 -22   1  10 0.61021 0.77874   3
  22   1 -10 0.45867 0.66052   2
  22   1 -10 -0.0970 1.01391   3
  21  -1 -10 1.25635 0.68424   2
  21  -1 -10 0.73922 0.86574   3
 -21  -1  10 1.00223 0.84817   3
 -21   1  10 2.43021 1.00370   2
  21   1 -10 1.66602 0.90317   3
 -21   1  10 0.68902 0.81219   3
 -20  -1  10 1.31874 0.86495   3
  20  -1 -10 1.85433 0.78162   2
  20   1 -10 3.29345 0.97346   3
 -20   1  10 4.34115 1.04743   2
  19  -1 -10 12.3284 1.07916   2
 -19  -1  10 10.4066 1.08451   3
  19  -1 -10 13.6562 1.20582   3
  19   1 -10 9.94044 0.95964   2
  19   1 -10 12.4979 1.27229   3
  18  -1 -10 22.2687 1.53741   2
  18  -1 -10 22.7730 1.63165   3
 -18  -1  10 20.5991 1.55400   3
 -18   1  10 21.3301 1.59681   3
  18   1 -10 19.4167 1.39173   2
 -18   1  10 21.1622 1.54189   2
  17  -1 -10 32.6768 2.07682   2
  17  -1 -10 31.3559 2.10261   3
  17   1 -10 31.6147 2.13632   3
 -17   1  10 32.0014 2.06875   2
 -17   1  10 32.4082 2.16135   3
  17   1 -10 33.0424 2.11639   2
  16  -1 -10 88.2137 5.37612   3
 -16  -1  10 83.5090 5.11467   3
  16   1 -10 84.8240 5.18583   3
 -16   1  10 89.3863 5.27164   2
  16   1 -10 81.6538 4.82416   2
 -16   1  10 91.8589 5.60733   3
 -15  -1  10 88.3520 5.36880   3
  15  -1 -10 87.6932 5.36170   3
 -15   1  10 88.1282 5.38824   3
  15   1 -10 88.6845 5.41619   3
  15   1 -10 96.6365 5.68616   2
 -15   1  10 93.5563 5.50973   2
 -14  -1  10 94.5614 5.74418   3
  14  -1 -10 96.5124 5.66462   2
  14  -1 -10 108.227 6.57537   3
 -14   1  10 93.9845 5.55931   2
  14   1 -10 95.8696 5.63967   2
 -14   1  10 102.864 6.24471   3
  14   1 -10 95.1922 5.79352   3
 -13  -1  10 52.1936 3.21620   2
 -13  -1  10 52.3194 3.25193   3
  13  -1 -10 52.9564 3.16460   2
  13  -1 -10 51.9575 3.22593   3
 -13   1  10 48.9070 3.06821   3
  13   1 -10 50.7197 3.16167   3
  13   1 -10 53.7361 3.22117   2
 -12  -1  10 8.50306 1.00154   2
  12  -1 -10 12.2852 1.03818   3
  12  -1 -10 10.7098 0.84628   2
 -12  -1  10 10.6154 0.91226   3
  12   1 -10 11.0078 0.93867   3
  12   1 -10 10.4973 0.86080   2
 -12   1  10 10.8562 0.92366   3
  11  -1 -10 12.8597 1.20854   1
  11  -1 -10 14.9265 1.08212   2
 -11  -1  10 12.0197 0.99614   3
  11  -1 -10 11.0738 1.03666   1
 -11  -1  10 12.6493 1.18657   1
  11  -1 -10 11.0126 0.98698   3
 -11  -1  10 10.3044 0.96684   1
 -11   1  10 9.26208 0.87046   3
 -11   1  10 14.4023 1.11932   2
  11   1 -10 12.2948 1.15272   1
  11   1 -10 10.6136 0.84973   2
 -11   1  10 11.5236 1.07788   1
 -11   1  10 9.83369 0.92617   1
  11   1 -10 12.5522 1.02885   3
  11   1 -10 9.62657 0.89858   1
 -10  -1  10 -0.4405 0.59867   3
  10  -1 -10 0.07138 0.11675   1
  10  -1 -10 0.04349 0.09311   1
 -10  -1  10 0.14018 0.83981   2
  10  -1 -10 0.87117 0.46113   2
  10   1 -10 -0.0350 0.11433   1
  10   1 -10 0.17798 0.10585   1
 -10   1  10 -0.0241 0.55521   2
 -10   1  10 0.47731 0.10712   1
  10   1 -10 -0.5308 0.45868   2
  10   1 -10 1.19281 0.61425   3
 -10   1  10 1.09119 0.60023   3
   9  -1 -10 96.9359 9.03341   1
  -9  -1  10 100.224 6.06824   3
   9  -1 -10 102.441 9.54469   1
  -9  -1  10 97.2061 9.05391   1
  -9  -1  10 113.939 6.70803   2
   9  -1 -10 94.5580 5.52124   2
  -9  -1  10 107.638 10.0218   1
   9  -1 -10 100.232 6.07494   3
   9   1 -10 110.459 10.2890   1
   9   1 -10 102.838 6.22812   3
  -9   1  10 89.6714 5.26616   2
   9   1 -10 95.1640 5.57780   2
  -9   1  10 101.666 9.46627   1
   9   1 -10 97.9546 9.12269   1
  -9   1  10 98.2994 9.15528   1
   8  -1 -10 111.325 10.3695   1
  -8  -1  10 112.683 10.4876   1
   8  -1 -10 112.643 10.4872   1
  -8  -1  10 117.562 7.07521   3
   8  -1 -10 105.888 6.16739   2
   8  -1 -10 116.695 7.04016   3
  -8  -1  10 104.904 9.76662   1
  -8   1  10 116.264 7.00977   3
  -8   1  10 107.679 10.0320   1
   8   1 -10 112.234 10.4542   1
   8   1 -10 106.457 9.92020   1
  -8   1  10 129.415 7.55703   2
   8   1 -10 118.576 6.90946   2
  -8   1  10 109.035 10.1605   1
   7  -1 -10 57.0057 3.36186   2
  -7  -1  10 60.1639 5.60166   1
   7  -1 -10 57.6880 3.53841   3
  -7  -1  10 63.4195 3.79803   2
  -7  -1  10 55.5943 5.17971   1
   7  -1 -10 54.2722 5.05802   1
   7  -1 -10 60.5183 5.63667   1
  -7   1  10 65.4406 3.84743   2
   7   1 -10 57.5066 3.39408   2
  -7   1  10 61.9308 5.76410   1
  -7   1  10 60.6697 3.69138   3
  -7   1  10 54.5695 5.08552   1
   7   1 -10 60.4191 3.67283   3
   7   1 -10 54.8149 5.11108   1
   7   1 -10 57.4854 5.35617   1
  -6  -1  10 283.311 16.4477   2
   6  -1 -10 323.803 19.3934   3
   6  -1 -10 335.122 31.1942   1
  -6  -1  10 318.586 29.6571   1
   6  -1 -10 324.855 30.2608   1
  -6  -1  10 344.126 32.0371   1
  -6  -1  10 373.049 22.3021   3
   6  -1 -10 304.719 17.6193   2
  -6   1  10 324.186 30.1944   1
   6   1 -10 309.837 17.9309   2
  -6   1  10 349.926 32.5915   1
   6   1 -10 321.236 29.9075   1
   6   1 -10 291.282 27.1416   1
  -6   1  10 316.192 18.9304   3
  -6   1  10 342.908 19.8438   2
   6   1 -10 354.326 21.1831   3
  -5  -1  10 85.6670 5.16833   3
   5  -1 -10 111.552 10.3888   1
  -5  -1  10 97.3629 9.07074   1
   5  -1 -10 89.9222 5.24500   2
   5  -1 -10 104.570 9.73912   1
  -5  -1  10 100.021 5.85988   2
   5  -1 -10 95.6528 5.75866   3
  -5  -1  10 83.7995 7.80493   1
   5   1 -10 89.8778 5.25615   2
  -5   1  10 105.474 9.81569   1
   5   1 -10 101.704 9.47117   1
  -5   1  10 101.313 9.43300   1
   5   1 -10 100.893 9.39524   1
  -5   1  10 95.7794 5.75738   3
   5   1 -10 93.4184 5.62820   3
   4  -1 -10 364.961 21.1092   2
   4  -1 -10 354.632 33.0271   1
  -4  -1  10 386.376 23.0877   3
   4  -1 -10 356.980 21.3589   3
   4  -1 -10 381.651 35.5268   1
  -4  -1  10 356.983 33.2292   1
  -4  -1  10 365.900 34.0668   1
  -4   1  10 338.116 20.2171   3
   4   1 -10 344.441 32.0674   1
  -4   1  10 375.106 34.9090   1
  -4   1  10 377.686 35.1629   1
   4   1 -10 337.757 19.5351   2
   4   1 -10 364.806 21.8154   3
   4   1 -10 353.214 32.8971   1
   3  -1 -10 439.838 40.9572   1
  -3  -1  10 449.591 41.8595   1
   3  -1 -10 409.346 23.6490   2
  -3  -1  10 474.869 44.2175   1
  -3  -1  10 407.888 23.5871   2
  -3  -1  10 449.819 26.8933   3
   3  -1 -10 604.846 56.3179   1
   3  -1 -10 458.063 27.3997   3
   3   1 -10 468.664 43.6410   1
  -3   1  10 462.295 43.0455   1
   3   1 -10 447.484 26.7400   3
   3   1 -10 443.344 41.2657   1
  -3   1  10 443.405 41.2834   1
   3   1 -10 415.126 24.0125   2
  -2  -1  10 140.245 13.0575   1
   2  -1 -10 166.971 15.5474   1
   2  -1 -10 137.156 12.7715   1
  -2  -1  10 135.809 8.14159   3
  -2  -1  10 146.139 8.48254   2
  -2  -1  10 160.155 14.9079   1
   2  -1 -10 141.736 8.22563   2
   2   1 -10 158.470 9.20205   2
  -2   1  10 187.902 17.4951   1
  -2   1  10 157.680 14.6839   1
   2   1 -10 153.561 9.19928   3
  -2   1  10 151.447 8.78330   2
   1  -1 -10 134.979 12.5647   1
   1  -1 -10 118.166 11.0046   1
  -1  -1  10 117.582 10.9477   1
  -1  -1  10 114.148 10.6345   1
   1  -1 -10 114.812 6.67832   2
   1   1 -10 128.764 7.72669   3
  -1   1  10 127.236 11.8476   1
  -1   1  10 129.345 12.0406   1
   0  -1 -10 0.89561 0.33465   2
   0  -1  10 0.97184 0.32346   2
   0  -1 -10 0.87927 0.10276   1
   0  -1 -10 1.32205 0.15630   1
   0   1 -10 0.86167 0.10071   1
   0   1  10 0.53984 0.08896   1
   0   1  10 0.85577 0.09699   1
   0   1 -10 1.07146 0.23577   3
  -1  -1 -10 170.317 15.8630   1
  -1  -1 -10 140.327 13.0724   1
  -1  -1 -10 164.525 9.54674   2
  -1   1 -10 142.322 8.52806   3
   1   1  10 161.824 15.0649   1
  -1   1 -10 151.037 8.77362   2
  -1   1 -10 136.957 12.7563   1
   1   1  10 145.203 13.5236   1
  -1   1 -10 140.105 13.0457   1
   2  -1  10 59.7937 5.57278   1
   2  -1  10 65.9891 6.14691   1
  -2   1 -10 69.0666 6.42972   1
  -2   1 -10 65.3631 6.09080   1
   2   1  10 63.5072 5.91653   1
   2   1  10 59.3594 5.52673   1
  -2   1 -10 63.2288 3.73045   2
   3  -1  10 249.911 23.2723   1
   3  -1  10 259.838 24.1897   1
   3  -1  10 256.189 14.8314   2
  -3  -1 -10 273.533 25.4702   1
  -3   1 -10 241.050 22.4541   1
   3   1  10 255.794 23.8180   1
  -3   1 -10 262.269 15.1936   2
  -3   1 -10 264.392 24.6298   1
   4  -1  10 30.9739 1.87978   2
   4  -1  10 31.6224 2.94603   1
  -4  -1 -10 32.0823 2.98733   1
  -4  -1 -10 27.9914 2.60501   1
   4  -1  10 32.2509 3.00389   1
  -4  -1 -10 29.6157 1.81089   2
  -4   1 -10 33.2257 2.02606   2
  -4   1 -10 28.9974 2.69937   1
  -4   1 -10 30.0052 2.79340   1
   4   1  10 30.8034 1.85445   2
  -5  -1 -10 237.234 22.0836   1
   5  -1  10 252.642 23.5158   1
  -5  -1 -10 263.602 24.5336   1
  -5  -1 -10 263.798 15.2848   2
   5  -1  10 236.667 22.0272   1
   5   1  10 233.136 21.7195   1
  -5   1 -10 244.048 22.7184   1
   5   1  10 233.578 21.7574   1
  -5   1 -10 243.922 22.7063   1
  -6  -1 -10 41.4209 2.49622   2
   6  -1  10 38.5309 2.31965   2
   6   1  10 38.3540 2.30040   2
   6   1  10 34.5590 3.22189   1
  -6   1 -10 36.6754 2.22639   2
  -7  -1 -10 98.7230 5.80752   2
   7  -1  10 93.7314 5.51148   2
   7   1  10 95.9473 5.62602   2
  -7   1 -10 94.0287 5.53101   2
   8  -1  10 118.163 6.89829   2
  -8   1 -10 121.064 7.09519   2
   9  -1  10 9.81078 0.86803   2
  -9  -1 -10 10.2575 0.94182   2
   9   1  10 9.86734 0.84082   2
  -9   1 -10 9.07343 0.87633   2
 -10  -1 -10 33.4691 2.14399   2
  10  -1  10 33.0640 2.06169   2
 -10   1 -10 34.2033 2.15020   2
  10   1  10 33.3515 2.09439   2
  11  -1  10 0.88899 0.59295   2
 -11  -1 -10 0.55921 0.67110   2
 -11   1 -10 1.53758 0.70856   2
  11   1  10 1.14202 0.64442   2
  12  -1  10 1.15979 0.54538   2
 -12   1 -10 1.32531 0.73617   2
  13  -1  10 3.37804 0.70059   2
 -13   1 -10 2.67216 0.71840   2
  14  -1  10 7.00217 0.80710   2
 -14   1 -10 7.43200 0.85912   2
  15  -1  10 10.1547 0.94710   2
  22  -2 -10 1.33300 0.81904   2
  22  -2 -10 -0.2429 0.82827   3
 -22   2  10 -0.2443 0.80645   3
  21  -2 -10 3.24109 0.75200   2
 -21  -2  10 -0.5927 0.85049   3
  21   2 -10 2.58526 0.78917   2
 -21   2  10 1.43307 0.86987   3
  21   2 -10 0.98879 0.89259   3
  20  -2 -10 6.34194 0.84119   2
  20  -2 -10 2.60842 0.86648   3
 -20  -2  10 3.97800 0.81170   3
  20   2 -10 5.51491 0.85248   2
  20   2 -10 2.98704 0.83565   3
 -20   2  10 8.78311 1.02482   2
  19  -2 -10 0.27463 0.76907   3
 -19  -2  10 -0.7016 0.71247   3
 -19   2  10 1.16737 0.73778   3
  19   2 -10 0.79012 0.84121   3
  19   2 -10 1.44694 0.70325   2
 -18  -2  10 1.30990 0.63051   3
  18  -2 -10 0.78311 0.77819   3
  18  -2 -10 1.40203 0.61535   2
  18   2 -10 1.06583 0.67929   2
 -18   2  10 2.48583 0.73842   3
  18   2 -10 1.74281 0.85854   3
 -18   2  10 3.42553 0.74318   2
 -17  -2  10 4.28286 0.72051   3
  17  -2 -10 5.28647 0.86699   3
  17  -2 -10 5.26457 0.73006   2
  17   2 -10 6.67297 0.83412   2
 -17   2  10 4.87961 0.78253   3
  14  -2 -10 1.75837 0.60774   2
 -14  -2  10 0.16470 0.60400   3
  14  -2 -10 0.75403 0.71513   3
 -14   2  10 1.22395 0.67987   2
 -14   2  10 1.50462 0.70943   3
  14   2 -10 1.64918 0.71385   3
  13  -2 -10 2.39904 0.52769   2
 -13  -2  10 1.08967 1.05718   2
 -13  -2  10 1.89664 0.69556   3
  13  -2 -10 3.41569 0.75741   3
  13   2 -10 1.63969 0.73934   3
  13   2 -10 1.46134 0.54396   2
 -13   2  10 1.65837 0.66107   3
 -13   2  10 1.68405 0.62995   2
 -12  -2  10 43.0939 2.68949   3
  12  -2 -10 38.6956 2.34782   2
  12  -2 -10 39.5533 2.56864   3
 -12   2  10 38.2713 2.36751   2
  12   2 -10 38.3537 2.32978   2
 -12   2  10 37.2233 2.36671   3
  12   2 -10 43.8214 2.74345   3
 -11  -2  10 15.3423 1.14395   3
 -11   2  10 14.1413 1.12578   3
  11   2 -10 13.4547 1.08914   3
  11   2 -10 14.3261 1.04833   2
 -10  -2  10 4.36189 0.62122   3
  10  -2 -10 4.29541 0.74935   3
  10  -2 -10 4.44328 0.42392   1
  10  -2 -10 5.70985 0.64197   2
  10  -2 -10 5.42169 0.51406   1
 -10   2  10 3.38553 0.33960   1
  10   2 -10 4.56071 0.43677   1
  10   2 -10 4.84301 0.47278   1
 -10   2  10 4.23357 0.41007   1
  10   2 -10 4.55119 0.57127   2
  10   2 -10 5.51083 0.71851   3
 -10   2  10 5.11748 0.70766   2
   9  -2 -10 9.70729 0.76746   2
   9  -2 -10 8.21298 0.77771   1
  -9  -2  10 9.91751 0.93166   1
   9  -2 -10 10.5292 0.98933   1
   9  -2 -10 8.15268 0.83436   3
  -9  -2  10 9.66562 0.90800   1
   9   2 -10 9.10417 0.85160   1
  -9   2  10 10.1983 0.94048   3
  -9   2  10 10.0084 0.93740   1
  -9   2  10 10.6545 0.86434   2
   9   2 -10 9.85779 0.92770   1
  -9   2  10 10.0563 0.93961   1
   8  -2 -10 2.93615 0.48715   2
   8  -2 -10 2.43546 0.25293   1
  -8  -2  10 2.97104 0.62652   3
  -8  -2  10 1.00417 0.87645   2
  -8  -2  10 1.77542 0.19116   1
  -8  -2  10 2.09553 0.22233   1
   8  -2 -10 1.66781 0.18443   1
   8  -2 -10 3.61435 0.72301   3
   8  -2 -10 2.12569 0.21685   1
  -8   2  10 3.06540 0.52426   2
   8   2 -10 2.30804 0.23311   1
  -8   2  10 1.87514 0.20098   1
  -8   2  10 2.48688 0.25275   1
   8   2 -10 1.71667 0.49998   3
   8   2 -10 1.85020 0.19645   1
  -8   2  10 3.03124 0.70210   3
   8   2 -10 2.21285 0.45894   2
   7  -2 -10 2.92981 0.28367   1
   7  -2 -10 2.65179 0.40572   2
  -7  -2  10 3.40117 0.32875   1
  -7  -2  10 4.54391 0.43382   1
  -7  -2  10 3.77160 0.54610   3
   7  -2 -10 2.90515 0.68712   3
   7  -2 -10 3.65840 0.34960   1
  -7   2  10 3.55585 0.54233   2
  -7   2  10 2.56356 0.25006   1
  -7   2  10 3.45527 0.33201   1
   7   2 -10 4.45312 0.43154   1
  -7   2  10 3.18993 0.61942   3
   7   2 -10 4.20425 0.40231   1
   7   2 -10 4.52666 0.53176   2
   6  -2 -10 12.7324 0.99930   3
  -6  -2  10 9.28518 0.86912   1
  -6  -2  10 11.6105 1.08963   1
   6  -2 -10 9.75376 0.91707   1
   6  -2 -10 11.7620 0.78381   2
   6   2 -10 11.7720 1.10098   1
   6   2 -10 11.3300 1.06522   1
  -6   2  10 10.9862 1.03186   1
   6   2 -10 11.5910 0.83885   3
   6   2 -10 12.4195 0.87586   2
  -6   2  10 10.5169 0.86127   3
  -6   2  10 12.0724 0.88347   2
  -5  -2  10 7.71305 0.73116   1
  -5  -2  10 8.34025 0.78110   1
  -5  -2  10 7.60288 0.66565   3
   5  -2 -10 10.1732 0.86784   3
  -5   2  10 7.28129 0.67301   3
   5   2 -10 8.75028 0.70803   3
  -5   2  10 7.12492 0.66664   1
  -5   2  10 7.55742 0.70664   1
   5   2 -10 8.52002 0.67574   2
   5   2 -10 7.68263 0.72486   1
   5   2 -10 8.10378 0.75732   1
  -4  -2  10 11.6452 1.09449   1
   4  -2 -10 12.5722 0.98286   3
   4  -2 -10 11.3844 0.73812   2
  -4  -2  10 10.6458 0.99391   1
  -4  -2  10 10.4683 0.77563   3
  -4  -2  10 11.9004 0.81584   2
  -4   2  10 11.3538 1.05640   1
   4   2 -10 10.7902 0.77245   3
   4   2 -10 10.6916 1.00422   1
  -4   2  10 9.07747 0.84569   1
  -4   2  10 9.48927 0.75080   3
   4   2 -10 11.9692 0.83189   2
   4   2 -10 10.9172 1.02535   1
   3  -2 -10 38.6411 2.41016   3
  -3  -2  10 35.0205 2.15180   3
   3  -2 -10 41.9182 3.90386   1
  -3  -2  10 42.5180 2.55080   2
  -3  -2  10 38.1959 3.55920   1
   3  -2 -10 41.1193 3.82799   1
  -3  -2  10 43.2703 4.02930   1
   3   2 -10 36.3639 2.23670   3
   3   2 -10 36.0010 2.17094   2
   3   2 -10 36.7441 3.42570   1
   3   2 -10 44.7263 4.16305   1
   2  -2 -10 207.868 12.4555   3
  -2  -2  10 162.164 15.0988   1
   2  -2 -10 183.776 17.1107   1
   2  -2 -10 220.543 20.5344   1
  -2  -2  10 154.882 14.4269   1
  -2  -2  10 167.729 10.0618   3
  -2  -2  10 159.532 9.26852   2
   2   2 -10 146.042 13.6025   1
   2   2 -10 173.906 10.4242   3
   2   2 -10 161.383 15.0247   1
   2   2 -10 154.426 8.96605   2
   1  -2 -10 2.05027 0.19900   1
   1  -2 -10 2.77217 0.27735   1
  -1  -2  10 1.89436 0.20063   1
  -1  -2  10 1.87042 0.38486   2
  -1  -2  10 1.66288 0.32587   3
  -1  -2  10 1.78293 0.18455   1
   1   2 -10 2.13978 0.21055   1
   1   2 -10 2.02642 0.39800   2
   1   2 -10 1.78642 0.30244   3
   1   2 -10 1.89320 0.19098   1
  -1   2  10 2.81875 0.26704   1
   0  -2  10 1.35670 0.26487   3
   0  -2  10 1.28443 0.14989   1
   0  -2 -10 2.00692 0.19984   1
   0  -2  10 1.97173 0.44935   2
   0  -2  10 2.01204 0.20575   1
   0   2 -10 2.38770 0.42516   2
   0   2 -10 2.00415 0.20986   1
   0   2 -10 1.53398 0.15836   1
   0   2 -10 1.18503 0.30820   3
   0   2  10 1.39426 0.13487   1
   1  -2  10 245.579 22.8699   1
   1  -2  10 201.641 18.7889   1
  -1  -2 -10 240.570 22.4043   1
  -1  -2 -10 200.240 18.6522   1
   1  -2  10 203.892 11.8333   2
  -1   2 -10 207.329 12.4209   3
  -1   2 -10 206.732 12.0003   2
  -1   2 -10 234.261 21.8051   1
  -1   2 -10 203.076 18.9081   1
   1   2  10 224.935 20.9429   1
   2  -2  10 15.3808 1.43182   1
   2  -2  10 14.8595 0.98958   2
  -2  -2 -10 14.8894 1.39240   1
   2  -2  10 14.1918 1.32268   1
  -2  -2 -10 17.2866 1.61491   1
   2  -2  10 14.4229 0.92915   3
  -2   2 -10 15.2950 1.42477   1
  -2   2 -10 15.8210 1.04517   2
  -2   2 -10 14.0298 1.31349   1
  -3  -2 -10 20.5955 1.91879   1
   3  -2  10 19.0609 1.78109   1
   3  -2  10 16.4923 1.53667   1
  -3  -2 -10 22.1489 2.06359   1
   3   2  10 21.3441 1.99374   1
  -3   2 -10 16.1112 1.50106   1
  -3   2 -10 18.4438 1.72113   1
  -3   2 -10 18.6815 1.18473   3
   4  -2  10 3.56420 0.33898   1
  -4  -2 -10 4.36971 0.41714   1
  -4  -2 -10 2.52635 0.25157   1
   4  -2  10 2.87169 0.44498   2
   4  -2  10 4.04005 0.38851   1
  -4   2 -10 3.02600 0.48658   2
   4   2  10 3.99397 0.38253   1
  -4   2 -10 3.12942 0.42755   3
   5  -2  10 4.39517 0.53764   2
   5   2  10 3.56282 0.34734   1
  -5   2 -10 4.07699 0.44139   3
  -5   2 -10 3.94405 0.54762   2
   6  -2  10 2.30779 0.47089   2
   7  -2  10 27.6086 1.74855   2
  -8   2 -10 1.29169 0.53149   2
  -9   2 -10 13.1322 1.01500   2
  10  -2  10 4.84173 0.64384   2
 -10   2 -10 4.94927 0.69950   2
  11  -2  10 0.93588 0.57854   2
 -11   2 -10 -0.3544 0.58686   2
  12  -2  10 6.44171 0.74510   2
 -12   2 -10 5.75405 0.80219   2
  13  -2  10 -0.0932 0.56361   2
 -13   2 -10 -0.5341 0.72239   2
  14  -2  10 0.51148 0.61489   2
 -14   2 -10 1.93430 0.62598   2
 -14   2 -10 1.14764 0.81581   2
  15  -2  10 0.73584 0.61654   2
 -15   2 -10 1.65248 0.74173   2
  21  -3 -10 -0.0497 0.90297   3
 -21   3  10 0.49794 0.77319   2
  20  -3 -10 5.24825 0.76526   2
 -20  -3  10 5.47739 0.83548   3
  20  -3 -10 5.89620 0.91890   3
  20   3 -10 4.96622 0.96267   3
 -20   3  10 5.34376 0.88670   2
  20   3 -10 4.73811 0.91822   2
 -20   3  10 4.48256 0.82212   3
 -19  -3  10 20.0456 1.49977   3
  19  -3 -10 21.7655 1.53827   2
  19  -3 -10 18.9041 1.48116   3
  19   3 -10 18.1917 1.42722   2
 -19   3  10 17.8861 1.38784   3
 -19   3  10 20.1712 1.46471   2
  19   3 -10 20.7221 1.62571   3
  18  -3 -10 24.3441 1.64765   2
  18  -3 -10 25.7209 1.85064   3
 -18  -3  10 23.0962 1.64650   3
  18   3 -10 23.7425 1.75346   3
  18   3 -10 27.3115 1.87348   2
 -18   3  10 24.9350 1.70954   2
 -18   3  10 26.1819 1.85264   3
 -17  -3  10 34.6650 2.27439   3
  17  -3 -10 30.1910 2.00607   2
  17  -3 -10 34.2190 2.31648   3
  17   3 -10 34.5742 2.33530   3
 -17   3  10 35.0762 2.30515   3
 -17   3  10 29.2381 1.95501   2
 -16  -3  10 68.8143 4.25566   3
  16  -3 -10 65.0054 4.06097   3
  16  -3 -10 69.1673 4.11581   2
 -16   3  10 67.4128 4.04236   2
 -16   3  10 64.6712 4.00969   3
  16   3 -10 66.1817 3.97147   2
  15  -3 -10 83.7654 5.15593   3
  15  -3 -10 87.0511 5.13672   2
  15   3 -10 87.9190 5.22075   2
  15   3 -10 84.2098 5.17698   3
 -15   3  10 80.2938 4.94029   3
 -15   3  10 79.0739 4.68101   2
  14  -3 -10 51.4960 3.11861   2
  14  -3 -10 49.6795 3.15961   3
 -14  -3  10 51.5503 3.22619   3
 -14   3  10 53.5437 3.38070   3
 -14   3  10 53.3886 3.25576   2
  14   3 -10 50.5468 3.19475   3
  14   3 -10 55.8797 3.37823   2
 -14   3  10 50.3543 3.14753   3
 -13  -3  10 44.7004 2.82047   3
  13  -3 -10 43.9797 2.67137   2
  13   3 -10 46.6201 2.94658   3
 -13   3  10 41.4600 2.66199   3
  13   3 -10 48.3537 2.95098   2
 -13   3  10 43.7753 2.67907   2
 -12  -3  10 17.2746 1.29332   3
  12  -3 -10 19.2699 1.31326   2
  12  -3 -10 17.4955 1.38884   3
 -12   3  10 17.4177 1.20760   2
  12   3 -10 15.8566 1.12545   2
  12   3 -10 17.5900 1.33699   3
 -12   3  10 17.4255 1.37489   3
   9  -3 -10 45.7113 2.86251   3
  -9  -3  10 45.4110 2.82105   3
   9  -3 -10 44.8036 2.69053   2
   9   3 -10 46.4115 2.88256   3
  -9   3  10 46.4494 2.91244   3
   9   3 -10 45.4007 2.74332   2
  -8  -3  10 132.511 7.98890   3
   8  -3 -10 101.479 9.45409   1
   8  -3 -10 140.097 8.14412   2
  -8  -3  10 131.071 12.2129   1
   8   3 -10 142.803 8.59202   3
  -8   3  10 122.243 11.3838   1
  -8   3  10 125.250 11.6606   1
   8   3 -10 125.796 11.7160   1
  -7  -3  10 127.898 7.70936   3
   7  -3 -10 121.429 7.05462   2
   7  -3 -10 90.7629 8.45433   1
   7  -3 -10 131.269 7.92558   3
  -7  -3  10 111.730 10.4085   1
   7  -3 -10 119.901 11.1700   1
  -7  -3  10 121.378 11.3089   1
   7   3 -10 124.323 7.47510   3
  -7   3  10 136.201 8.20873   3
   7   3 -10 114.910 10.7072   1
  -7   3  10 116.128 10.8193   1
   7   3 -10 125.786 11.7143   1
  -7   3  10 113.084 10.5302   1
  -6  -3  10 247.520 23.0423   1
   6  -3 -10 237.697 14.2512   3
   6  -3 -10 168.662 15.7123   1
   6  -3 -10 216.015 20.1130   1
  -6  -3  10 212.679 19.8167   1
  -6   3  10 259.911 15.5734   3
  -6   3  10 212.822 19.8107   1
  -5  -3  10 330.416 30.7555   1
  -5  -3  10 303.098 28.2317   1
   5  -3 -10 313.158 18.7517   3
   5  -3 -10 341.743 31.8287   1
  -5   3  10 343.363 20.5719   3
   5   3 -10 324.569 19.4353   3
   5   3 -10 324.964 18.7998   2
  -5   3  10 301.355 28.0619   1
   4  -3 -10 103.927 9.68104   1
  -4  -3  10 117.592 7.07036   3
   4  -3 -10 133.457 12.4244   1
  -4  -3  10 105.436 6.15845   2
   4  -3 -10 97.9631 5.90851   3
   4   3 -10 117.945 7.09738   3
   4   3 -10 103.580 9.65059   1
  -4   3  10 113.688 6.85933   3
  -4   3  10 101.973 9.49278   1
   4   3 -10 97.8603 9.11446   1
   4   3 -10 107.619 6.27582   2
  -3  -3  10 486.897 28.1503   2
  -3  -3  10 490.461 29.3452   3
   3   3 -10 481.840 28.8104   3
   3   3 -10 445.948 41.5346   1
   3   3 -10 453.620 42.2389   1
   3   3 -10 442.063 25.5817   2
  -3   3  10 487.006 29.1305   3
   2  -3 -10 187.267 11.2161   3
  -2  -3  10 161.013 9.36406   2
  -2  -3  10 159.853 9.58892   3
  -2  -3  10 163.369 15.2099   1
  -2  -3  10 160.975 14.9934   1
   2   3 -10 155.395 14.4717   1
   2   3 -10 158.777 14.7924   1
   2   3 -10 162.961 9.47072   2
   2   3 -10 170.884 10.2477   3
  -1  -3  10 51.6548 3.15611   3
  -1  -3  10 54.2534 5.05252   1
  -1  -3  10 51.2036 4.76859   1
   1  -3 -10 56.1918 3.42428   3
   1   3 -10 54.2238 5.05176   1
   1   3 -10 54.9362 3.33697   3
   1   3 -10 52.3190 4.87281   1
   0  -3  10 115.813 6.75018   2
   0  -3  10 118.438 11.0336   1
   0  -3  10 110.595 10.3017   1
   0   3 -10 113.959 10.6123   1
   0   3 -10 121.113 7.05944   2
   0   3 -10 115.064 10.7155   1
   0   3 -10 123.232 7.40527   3
   1  -3  10 0.79382 0.36389   3
   1  -3  10 0.21048 0.43110   2
   1  -3  10 0.38087 0.09061   1
  -1   3 -10 0.31480 0.07490   1
  -1   3 -10 0.48636 0.42691   2
  -1   3 -10 0.20202 0.37042   3
  -1   3 -10 0.40768 0.09093   1
   2  -3  10 80.0477 4.71037   2
   2  -3  10 76.8799 4.66023   3
  -2   3 -10 82.1925 4.84128   2
  -2   3 -10 84.2322 5.07521   3
   3  -3  10 46.6833 2.86658   3
   3  -3  10 48.9925 2.93734   2
  -3   3 -10 47.7448 2.91622   3
  -3   3 -10 48.8960 2.92379   2
   4  -3  10 157.904 9.18871   2
  -4   3 -10 149.582 9.00354   3
  -4   3 -10 156.755 9.12071   2
   5  -3  10 64.0094 3.80373   2
  -5   3 -10 65.7972 3.90871   2
   6  -3  10 125.695 7.58141   3
   6  -3  10 126.442 7.38433   2
  -6   3 -10 123.055 7.20069   2
  -6   3 -10 112.994 6.82079   3
   7  -3  10 83.1658 4.89995   2
  -7   3 -10 76.1011 4.61911   3
  -7   3 -10 81.9741 4.84498   2
   8  -3  10 74.0426 4.37577   2
  -8   3 -10 72.6758 4.31390   2
   9  -3  10 62.6010 3.72298   2
  -9   3 -10 62.4713 3.72917   2
  10  -3  10 2.01801 0.52250   2
 -10   3 -10 2.62073 0.60898   2
  11  -3  10 2.40036 0.53704   2
 -11   3 -10 2.78500 0.63646   2
  12  -3  10 0.43983 0.58672   2
  13  -3  10 3.00267 0.65032   2
 -14   3 -10 6.30315 0.82187   2
  15  -3  10 19.4874 1.37475   2
 -15   3 -10 20.1244 1.42271   2
  20  -4 -10 11.5963 1.11251   3
 -20   4  10 11.2557 1.04576   3
 -19  -4  10 12.8799 1.14045   3
  19  -4 -10 14.2272 1.29818   3
  19   4 -10 13.6296 1.32062   3
 -19   4  10 13.9056 1.18569   3
  18  -4 -10 11.0728 1.14993   3
  18  -4 -10 10.6047 0.94640   2
 -18  -4  10 13.6844 1.17916   3
 -18   4  10 12.4708 1.06960   2
  18   4 -10 11.1306 1.06054   2
 -18   4  10 11.6323 1.06721   3
  18   4 -10 10.0152 1.15903   3
  17  -4 -10 1.49719 0.66533   2
  17  -4 -10 1.23851 0.84074   3
 -17  -4  10 2.59911 0.79594   3
  17   4 -10 1.77837 0.90737   3
 -17   4  10 1.36923 0.76642   3
 -17   4  10 1.83857 0.74761   2
 -16  -4  10 0.42538 0.76047   3
  16  -4 -10 -0.2566 0.84702   3
 -16   4  10 0.11738 0.67148   3
 -16   4  10 0.38757 0.76898   2
  16   4 -10 -0.2836 0.87942   3
 -16   4  10 -0.2271 0.74951   3
  14  -4 -10 10.0023 0.91438   2
 -14   4  10 8.14048 0.97654   3
 -14   4  10 9.42253 0.97417   2
  14   4 -10 10.7734 1.01486   2
  14   4 -10 9.77693 1.01841   3
  13  -4 -10 27.0036 1.88488   3
  13  -4 -10 24.5427 1.60157   2
 -13  -4  10 26.1597 1.80100   3
  13   4 -10 26.5453 1.81582   3
 -13   4  10 24.5792 1.65530   2
  13   4 -10 25.5064 1.67291   2
 -12  -4  10 105.532 6.36645   2
 -12  -4  10 88.9992 5.41056   3
  12  -4 -10 95.8367 5.65138   2
  12  -4 -10 90.7268 5.54637   3
 -12   4  10 106.465 6.50319   3
  12   4 -10 96.6743 5.70748   2
  12   4 -10 82.8008 5.03939   3
 -12   4  10 92.5749 5.45286   2
 -11  -4  10 128.375 7.74262   3
  11  -4 -10 127.147 7.44089   2
  11  -4 -10 132.653 8.05074   3
  11   4 -10 123.392 7.45831   3
  11   4 -10 124.593 7.30535   2
 -11   4  10 125.405 7.61686   3
 -10  -4  10 81.9533 4.98773   3
  10  -4 -10 79.1021 4.85630   3
 -10   4  10 82.0317 5.01605   3
  10   4 -10 84.6465 5.01696   2
  10   4 -10 77.9294 4.75301   3
   9  -4 -10 90.4062 5.52505   3
  -9  -4  10 89.7585 5.46556   3
  -9   4  10 96.0494 5.85130   3
   9   4 -10 93.6688 5.51564   2
  -8  -4  10 118.297 7.16033   3
  -8  -4  10 128.760 7.50617   2
   8  -4 -10 128.807 7.79241   3
   8   4 -10 123.750 7.45596   3
   8   4 -10 124.229 7.25382   2
  -8   4  10 138.245 8.36591   3
  -7  -4  10 58.3784 3.46599   2
  -7  -4  10 61.3092 3.74925   3
   7   4 -10 59.6341 3.63913   3
   7   4 -10 60.7058 3.59749   2
  -7   4  10 62.9508 3.87374   3
   6  -4 -10 44.9989 2.79314   3
  -6  -4  10 46.8044 2.90455   3
  -6   4  10 47.4183 2.95047   3
   6   4 -10 46.5887 2.88848   3
  -5  -4  10 1.13364 0.49416   3
  -5  -4  10 0.39283 0.42743   2
   5   4 -10 -0.5969 0.43295   2
  -4  -4  10 51.7977 3.09456   2
   4   4 -10 50.4011 3.08673   3
  -4   4  10 53.9682 3.30987   3
   4   4 -10 43.0538 2.57143   2
   3  -4 -10 3.62939 0.49927   3
  -3  -4  10 3.47181 0.50646   2
   3   4 -10 4.18195 0.55302   2
   3   4 -10 3.34223 0.47770   3
   2  -4 -10 48.0882 2.95761   3
  -2  -4  10 48.1821 2.94485   3
  -2  -4  10 51.3821 3.05990   2
   2   4 -10 51.0393 3.12186   3
   2   4 -10 50.7095 3.01218   2
  -2   4  10 47.2488 2.92250   3
  -1  -4  10 81.6278 4.94319   3
   1  -4 -10 88.9699 5.38996   3
  -1  -4  10 84.7214 4.95676   2
   1   4 -10 82.4745 4.98992   3
   0  -4  10 239.346 14.3510   3
   0  -4  10 259.524 15.0412   2
   0   4 -10 252.150 15.1021   3
   1  -4  10 212.978 12.3605   2
   1  -4  10 188.467 11.3126   3
  -1   4 -10 222.831 12.9527   2
  -1   4 -10 203.272 12.1886   3
   2  -4  10 14.2508 0.97664   3
  -2   4 -10 14.3861 1.01594   3
  -2   4 -10 16.9865 1.22259   2
   3  -4  10 148.876 8.95956   3
  -3   4 -10 146.312 8.80720   3
  -3   4 -10 155.021 9.04979   2
   4  -4  10 74.8035 4.55443   3
   4  -4  10 74.2406 4.37549   2
  -4   4 -10 72.0872 4.38531   3
  -4   4 -10 74.2388 4.40968   2
   5  -4  10 20.4275 1.33934   2
   5  -4  10 19.1985 1.30661   3
  -5   4 -10 20.1983 1.37113   3
  -5   4 -10 20.3202 1.35775   2
   6  -4  10 10.1616 0.83297   2
   6  -4  10 9.78189 0.83404   3
  -6   4 -10 10.5449 0.88960   2
  -6   4 -10 9.23635 0.77343   3
   7  -4  10 18.7348 1.25507   2
   7  -4  10 16.6339 1.26019   3
  -7   4 -10 16.1503 1.17148   3
  -7   4 -10 17.5043 1.23784   2
   8  -4  10 4.45604 0.67968   3
   8  -4  10 4.59992 0.60424   2
  -8   4 -10 3.47742 0.59169   2
  -8   4 -10 3.67900 0.63030   3
   9  -4  10 11.9859 0.91618   2
  -9   4 -10 12.2170 0.97615   2
  10  -4  10 18.6379 1.26181   2
 -10   4 -10 19.9628 1.37700   2
  11  -4  10 27.9981 1.77830   2
 -11   4 -10 28.1454 1.83207   2
  12  -4  10 41.1943 2.53512   2
 -12   4 -10 39.5562 2.43463   2
  13  -4  10 9.46373 0.85941   2
 -13   4 -10 10.4626 0.92583   2
  14  -4  10 6.22573 0.77065   2
 -14   4 -10 5.51241 0.79081   2
  18  -5 -10 1.82767 0.78197   3
 -18   5  10 1.88162 0.71561   3
 -17  -5  10 2.87193 0.78997   3
  17  -5 -10 3.68075 0.85403   3
 -17   5  10 3.19714 0.90688   3
  17   5 -10 3.12525 0.88026   3
 -16  -5  10 -0.2325 0.71050   3
  16  -5 -10 0.05133 0.87524   3
 -16   5  10 -0.3281 0.88861   3
  16   5 -10 1.43372 0.77482   3
 -15  -5  10 11.3936 1.07834   3
  15   5 -10 10.6138 1.05467   3
 -15   5  10 10.9295 1.11144   3
 -14  -5  10 13.2356 1.11667   3
  14  -5 -10 11.3255 1.08781   3
  14   5 -10 13.0779 1.21151   2
 -13  -5  10 1.80321 1.31366   2
  13  -5 -10 2.64533 0.77954   3
 -13   5  10 0.70657 0.77734   3
  13   5 -10 0.65157 0.68927   3
  13   5 -10 -0.0917 0.73913   2
 -12  -5  10 2.93976 1.10328   2
 -12  -5  10 -0.1693 0.69192   3
  12  -5 -10 1.44454 0.82111   3
  12   5 -10 1.87641 0.75533   2
  12   5 -10 0.99993 0.66518   3
 -12   5  10 2.18430 0.73942   3
  11  -5 -10 7.08379 0.90244   3
 -11  -5  10 7.56323 0.94689   2
 -11  -5  10 7.17321 0.84864   3
  11   5 -10 7.00319 0.81138   3
 -11   5  10 5.96468 0.86178   3
 -10  -5  10 -1.4638 0.60391   3
 -10  -5  10 0.76275 0.73624   2
  10  -5 -10 -0.1347 0.61730   3
  10   5 -10 0.39091 0.63243   3
 -10   5  10 -1.2338 0.70477   3
  -9  -5  10 0.53793 0.59180   3
   9  -5 -10 -0.3179 0.62447   3
   9   5 -10 0.17900 0.61865   2
   9   5 -10 -0.0226 0.62076   3
  -9   5  10 1.94691 0.72257   3
  -8  -5  10 6.31299 0.72762   2
   8  -5 -10 5.06575 0.76815   3
  -8  -5  10 5.81149 0.71072   3
  -8   5  10 7.98037 0.92311   3
   8   5 -10 5.51736 0.78848   2
   8   5 -10 6.49103 0.69221   3
  -7  -5  10 4.39249 0.61613   3
  -7  -5  10 5.43452 0.76431   2
   7  -5 -10 5.53027 0.75462   3
   7   5 -10 4.06069 0.59589   3
  -7   5  10 5.07829 0.75137   3
  -6  -5  10 4.04472 0.60807   3
  -6  -5  10 5.62443 0.75652   2
   6  -5 -10 4.56545 0.72110   3
  -6   5  10 3.71522 0.68545   3
   6   5 -10 4.21714 0.55887   3
   6   5 -10 2.91962 0.60457   2
  -5  -5  10 19.8993 1.34985   3
  -5  -5  10 21.8526 1.46952   2
   5  -5 -10 20.4006 1.43744   3
   5   5 -10 20.5135 1.37982   2
   5   5 -10 19.2179 1.29693   3
  -5   5  10 20.8283 1.44726   3
   4  -5 -10 24.1504 1.58388   3
  -4  -5  10 20.6574 1.36206   3
  -4  -5  10 25.1716 1.62146   2
   4   5 -10 28.2122 1.80215   2
  -4   5  10 26.4685 1.74598   3
  -3  -5  10 6.98073 0.70722   2
   3  -5 -10 7.69933 0.74922   3
  -3  -5  10 6.33139 0.61864   3
  -3   5  10 7.84859 0.75129   3
   3   5 -10 7.56787 0.65535   3
   3   5 -10 8.02217 0.76040   2
   2  -5 -10 19.9086 1.34459   3
  -2  -5  10 22.3512 1.46007   2
   2   5 -10 23.1729 1.51777   3
   2   5 -10 21.5334 1.41886   2
  -1  -5  10 9.72256 0.80297   3
  -1  -5  10 10.1598 0.82166   2
   1   5 -10 9.08477 0.78275   3
   1   5 -10 10.5382 0.89608   2
   0  -5  10 5.16988 0.60020   3
   0  -5  10 4.82565 0.58826   2
   0   5 -10 4.10459 0.59471   2
   0   5 -10 5.19878 0.56727   3
   1  -5  10 0.23402 0.56616   2
   1  -5  10 -0.5818 0.44314   3
  -1   5 -10 0.40608 0.42193   3
   2  -5  10 19.9148 1.32698   3
   2  -5  10 21.2230 1.41529   2
  -2   5 -10 21.6744 1.44788   2
  -2   5 -10 22.3542 1.47798   3
   3  -5  10 10.1902 0.85897   2
   3  -5  10 9.79725 0.88618   3
  -3   5 -10 9.58489 0.84587   2
  -3   5 -10 8.31020 0.73410   3
   4  -5  10 35.8870 2.20673   2
   4  -5  10 41.4655 2.61936   3
  -4   5 -10 36.4641 2.27683   2
  -4   5 -10 37.1791 2.34530   3
   5  -5  10 12.2487 0.95108   3
   5  -5  10 12.5846 0.97687   2
  -5   5 -10 13.1731 1.02712   2
   6  -5  10 5.64553 0.66737   2
  -6   5 -10 5.89116 0.72040   3
  -6   5 -10 5.35911 0.72012   2
   7  -5  10 10.8977 0.91151   2
   7  -5  10 12.1747 1.07038   3
  -7   5 -10 12.4096 1.04888   2
   8  -5  10 2.02972 0.71956   3
   8  -5  10 2.00749 0.57143   2
  -8   5 -10 1.94283 0.63155   3
   9  -5  10 10.2738 0.86747   2
 -10   5 -10 0.29393 0.59910   2
 -11   5 -10 3.16169 0.65522   2
 -12   5 -10 3.96556 0.74029   2
 -15  -6  10 1.87533 0.74064   3
  15  -6 -10 1.60193 0.78914   3
 -15   6  10 1.33208 0.86846   3
  14  -6 -10 0.56913 0.75136   3
 -14  -6  10 0.82815 0.65078   3
 -14   6  10 1.00259 0.73534   3
  14   6 -10 0.63377 0.64361   3
  13  -6 -10 5.43541 0.90226   3
 -13  -6  10 4.31738 0.77458   3
 -13   6  10 4.39398 0.85322   3
  13   6 -10 4.12220 0.82713   3
 -12  -6  10 13.7745 1.17637   3
  12  -6 -10 12.1660 1.14314   3
  12   6 -10 13.9450 1.16070   3
 -12   6  10 11.0386 1.03976   3
  11  -6 -10 4.98734 0.76640   3
 -11  -6  10 5.73973 0.82061   3
  11   6 -10 4.70662 0.72880   3
 -11   6  10 5.85215 0.83339   3
 -10  -6  10 6.30150 0.77339   3
  10  -6 -10 6.11599 0.78045   3
  10   6 -10 7.06516 0.82507   3
 -10   6  10 6.24509 0.88763   3
  -9  -6  10 8.17108 0.96723   2
  -9  -6  10 7.41449 0.81621   3
   9  -6 -10 7.85757 0.90654   3
   9   6 -10 8.49694 0.89547   3
  -9   6  10 9.01972 1.01498   3
   8  -6 -10 -0.4606 0.65151   3
  -8  -6  10 -0.9863 0.61333   3
  -8  -6  10 -0.2715 0.74598   2
   8   6 -10 -0.2604 0.64470   3
  -8   6  10 0.00000 0.72983   3
   8   6 -10 -0.4735 0.62346   2
  -7  -6  10 1.50978 0.70059   2
  -7  -6  10 1.35380 0.60058   3
   7   6 -10 1.30137 0.64429   3
   7   6 -10 1.48338 0.61218   2
  -7   6  10 1.88607 0.71552   3
  -6  -6  10 0.96789 0.67875   2
   6  -6 -10 0.51202 0.70413   3
  -6  -6  10 0.63802 0.49814   3
   6   6 -10 1.15724 0.48292   3
   6   6 -10 0.95657 0.65121   2
   5  -6 -10 1.13309 0.66950   3
  -5  -6  10 2.36844 0.61038   3
  -5   6  10 2.53467 0.67394   3
   5   6 -10 2.75041 0.66989   3
  -4  -6  10 -0.4701 0.62285   2
   4  -6 -10 0.00000 0.59703   3
  -4  -6  10 0.02106 0.50968   3
   4   6 -10 -0.4036 0.62907   2
   4   6 -10 0.10226 0.51752   3
  -4   6  10 -0.3841 0.65725   3
  -3  -6  10 5.13445 0.70062   2
   3  -6 -10 3.25258 0.64655   3
  -3  -6  10 4.07110 0.60215   3
  -3   6  10 2.94787 0.67192   3
   2   6 -10 5.31578 0.59705   3
  -1  -6  10 14.3289 1.06028   3
   1   6 -10 14.9981 1.08489   3
   1   6 -10 15.8794 1.14631   2
   0  -6  10 16.1281 1.16784   2
   0  -6  10 16.5100 1.19767   3
   0   6 -10 16.1350 1.17491   2
   0   6 -10 17.5604 1.23978   3
   1  -6  10 14.5971 1.07363   3
   1  -6  10 16.8344 1.26196   2
  -1   6 -10 16.7002 1.25192   2
  -1   6 -10 14.5379 1.04614   3
   2  -6  10 13.5317 1.01901   3
   2  -6  10 15.1145 1.14549   2
  -2   6 -10 12.5699 0.96185   3
  -2   6 -10 12.7600 1.01861   2
   3  -6  10 -0.3867 0.47550   3
   3  -6  10 0.02434 0.56092   2
  -3   6 -10 0.07105 0.60025   2
  -3   6 -10 0.74390 0.48592   3
   4  -6  10 5.87713 0.76782   2
   4  -6  10 5.45407 0.69862   3
  -4   6 -10 6.39360 0.71910   3
  -4   6 -10 5.85434 0.77033   2
   5  -6  10 1.50717 0.57880   2
   5  -6  10 1.64756 0.64559   3
  -5   6 -10 1.76727 0.63283   2
  -5   6 -10 0.62074 0.60976   3
   6  -6  10 5.99943 0.73791   2
   6  -6  10 5.24218 0.70899   3
  -6   6 -10 6.76283 0.83026   2
   7  -6  10 -1.2153 0.69328   3
   7  -6  10 0.35148 0.56690   2
  -7   6 -10 0.04470 0.63934   3
  -7   6 -10 0.45773 0.58007   2
   8  -6  10 6.24262 0.70070   2
  -8   6 -10 6.62204 0.76853   2
   9  -6  10 2.45223 0.64801   2
  -9   6 -10 1.66508 0.70677   2
  12   7 -10 0.29989 0.73599   3
 -11  -7  10 2.23351 0.60802   3
 -10   7  10 0.38616 0.79970   3
  10   7 -10 -0.4878 0.67659   3
  -9  -7  10 1.78182 0.58344   3
  -9   7  10 0.84547 0.75882   3
   9   7 -10 1.73338 0.66525   3
  -8  -7  10 9.46467 0.84034   3
   8  -7 -10 8.06863 0.92621   3
   8   7 -10 9.75969 0.89534   3
   7  -7 -10 9.20315 0.99166   3
  -7  -7  10 8.35662 0.79387   3
  -7   7  10 8.02094 0.96810   3
   7   7 -10 7.25971 0.77198   3
  -6  -7  10 8.99690 0.81957   3
  -6   7  10 11.0537 1.00014   3
   6   7 -10 10.3487 0.88941   3
  -5  -7  10 12.7099 0.98097   3
  -5   7  10 12.8640 1.16085   3
   5   7 -10 11.7473 0.93441   3
  -4  -7  10 24.3137 1.61271   3
   4   7 -10 23.2328 1.53634   3
  -3  -7  10 10.2413 0.81386   3
   3   7 -10 9.95637 0.81392   3
  -2  -7  10 1.95414 0.53751   3
   1   7 -10 1.88535 0.57481   3
   0  -7  10 0.89418 0.52788   3
   0   7 -10 1.78834 0.56566   3
   1  -7  10 2.45933 0.60129   3
  -1   7 -10 1.45317 0.56574   3
   2  -7  10 0.54151 0.49646   3
  -2   7 -10 0.71633 0.50844   3
   3  -7  10 9.83940 0.86678   3
  -3   7 -10 11.2568 0.96335   3
   4  -7  10 6.98377 0.73340   3
  -4   7 -10 7.80646 0.79015   3
  18   0 -11 -0.8599 0.81091   3
 -18   0  11 1.76213 1.17686   2
 -18   0  11 -1.0010 0.77087   3
  18   0 -11 -0.2094 0.69693   2
  17   0 -11 -0.8188 0.68883   3
 -17   0  11 -0.2934 0.69927   3
  17   0 -11 -0.4422 0.69708   2
  16   0 -11 0.06983 0.53633   2
 -16   0  11 0.05114 0.79540   2
  16   0 -11 1.04840 0.72423   3
 -16   0  11 0.86014 0.70296   3
 -15   0  11 -0.5139 0.85847   2
  15   0 -11 -0.0466 0.50976   2
 -15   0  11 -0.5703 0.62746   3
  15   0 -11 -0.2900 0.61146   3
 -14   0  11 0.18139 0.80605   2
 -14   0  11 0.02490 0.71213   3
  14   0 -11 0.09229 0.50505   2
  14   0 -11 -0.8812 0.59246   3
  13   0 -11 0.57532 0.50374   2
 -13   0  11 -1.0687 0.78073   2
 -13   0  11 0.22423 0.68523   3
  13   0 -11 -1.3613 0.65352   3
 -12   0  11 -0.5967 0.68379   3
  12   0 -11 0.79839 0.68621   3
  12   0 -11 -0.0694 0.47998   2
 -11   0  11 -0.7721 0.65759   3
 -11   0  11 0.05276 0.82051   2
  11   0 -11 -0.3939 0.48048   2
 -10   0  11 -0.8774 0.60675   3
  10   0 -11 -0.4282 0.60958   3
 -10   0  11 -0.7535 0.74409   2
   9   0 -11 0.32701 0.49813   3
  -9   0  11 0.13869 0.73500   2
   8   0 -11 -0.4513 0.57925   3
   8   0 -11 0.09764 0.08446   1
   8   0 -11 -0.2398 0.10820   1
   8   0 -11 -0.0683 0.41958   2
  -8   0  11 -0.2513 0.58050   3
   7   0 -11 -0.4265 0.38791   2
   7   0 -11 0.18229 0.09293   1
   7   0 -11 0.42572 0.44080   3
  -7   0  11 0.00000 0.49191   3
   7   0 -11 0.17643 0.09444   1
  -6   0  11 0.07736 0.11246   1
  -6   0  11 -0.2167 0.71344   2
   6   0 -11 -0.0227 0.39289   2
  -6   0  11 -0.0176 0.09444   1
   6   0 -11 0.40222 0.10179   1
   6   0 -11 0.48699 0.47937   3
  -6   0  11 -0.2603 0.42956   3
  -5   0  11 -0.1537 0.06737   1
   5   0 -11 -0.0963 0.34416   3
   5   0 -11 0.21298 0.08106   1
  -5   0  11 -0.7890 0.55190   2
  -5   0  11 1.17987 0.35155   3
   5   0 -11 -0.4435 0.33209   2
   4   0 -11 0.00000 0.32372   3
   4   0 -11 0.48144 0.30254   2
  -4   0  11 0.42212 0.08691   1
  -4   0  11 0.21907 0.26780   3
  -3   0  11 -0.0767 0.08115   1
  -3   0  11 -0.1234 0.30809   2
   3   0 -11 -0.4343 0.31852   3
   3   0 -11 -0.1333 0.30712   2
   3   0 -11 0.02571 0.08155   1
   2   0 -11 -0.0768 0.07107   1
  -2   0  11 0.23730 0.08760   1
   2   0 -11 -0.3734 0.27836   2
  -2   0  11 -0.3432 0.27180   2
   1   0 -11 0.21120 0.06514   1
   1   0 -11 0.43642 0.08652   1
  -1   0  11 0.18827 0.24100   2
   1   0 -11 0.06717 0.33536   2
   0   0  11 0.31715 0.31666   2
   0   0 -11 0.00784 0.07458   1
   0   0  11 0.25117 0.07710   1
   0   0 -11 -0.2615 0.10062   1
   0   0 -11 -0.3788 0.33943   2
  -1   0 -11 -0.1136 0.31412   2
   1   0  11 0.36601 0.34260   2
   1   0  11 0.25737 0.07901   1
  -1   0 -11 0.26587 0.08895   1
  -2   0 -11 0.09842 0.09756   1
  -2   0 -11 0.16949 0.07680   1
  -2   0 -11 0.22899 0.36933   2
   2   0  11 0.08590 0.07431   1
   2   0  11 -0.1881 0.35223   2
  -3   0 -11 0.58630 0.10370   1
  -3   0 -11 0.81600 0.44240   2
   3   0  11 0.19511 0.39338   2
  -3   0 -11 0.83145 0.12365   1
   3   0  11 0.92142 0.13230   1
   4   0  11 0.23723 0.08063   1
  -4   0 -11 0.36693 0.45091   2
   4   0  11 0.42806 0.40612   2
   4   0  11 0.19543 0.10228   1
  -5   0 -11 -0.0497 0.45833   2
   5   0  11 0.56438 0.42405   2
   5   0  11 0.69739 0.09997   1
  -7   0 -11 -0.3102 0.57735   2
   7   0  11 -0.3162 0.50443   2
  -8   0 -11 0.53211 0.58516   2
   8   0  11 -0.2901 0.52917   2
   9   0  11 -0.1917 0.49699   2
 -10   0 -11 0.23781 0.76711   2
 -11   0 -11 0.22069 0.76274   2
  11   0  11 0.23556 0.56990   2
  12   0  11 -0.7313 0.68455   2
 -12   0 -11 -0.3577 0.77261   2
  13   0  11 0.04574 0.65867   2
  14   0  11 -0.3550 0.76335   2
  22  -1 -11 5.60149 0.89946   2
  22  -1 -11 6.19362 0.92459   3
 -22  -1  11 5.55516 0.92962   3
 -22   1  11 5.46564 0.80557   3
  22   1 -11 6.27385 1.06617   3
  21  -1 -11 22.5412 1.55675   2
 -21  -1  11 26.0142 1.83479   3
  21  -1 -11 23.3925 1.73532   3
  21   1 -11 26.0122 1.82529   3
  21   1 -11 24.4185 1.67576   2
 -20  -1  11 26.6337 1.87902   3
  20  -1 -11 25.9085 1.74707   2
  20  -1 -11 27.1748 1.88562   3
 -20   1  11 20.2899 1.62956   2
 -20   1  11 26.5041 1.87819   3
  20   1 -11 28.7433 1.89060   2
  19  -1 -11 35.5645 2.34137   3
  19  -1 -11 36.8781 2.34897   2
 -19   1  11 35.4717 2.35082   2
  19   1 -11 35.2966 2.32061   3
  19   1 -11 35.9645 2.26697   2
 -19   1  11 37.3421 2.43563   3
  18  -1 -11 72.1452 4.46526   3
  18   1 -11 71.2970 4.27362   2
 -18   1  11 82.5099 4.98328   2
 -18   1  11 72.4750 4.46436   3
 -17  -1  11 24.5912 1.85742   2
 -17  -1  11 30.9883 2.06987   3
  17  -1 -11 32.5412 2.16603   3
 -17   1  11 30.8055 2.06012   3
  17   1 -11 29.7084 1.89861   2
  17   1 -11 32.0255 2.12911   3
 -17   1  11 37.0214 2.41914   2
  16  -1 -11 16.6844 1.31229   3
  16  -1 -11 15.8192 1.18646   2
 -16  -1  11 14.3604 1.18621   3
 -16   1  11 14.9962 1.19554   2
  16   1 -11 16.9629 1.20432   2
 -16   1  11 17.7083 1.37117   3
  16   1 -11 14.8800 1.22092   3
  15  -1 -11 48.6612 2.93188   2
 -15  -1  11 48.6980 3.04205   3
  15  -1 -11 46.3508 2.93427   3
  15   1 -11 46.4176 2.92221   3
  15   1 -11 49.9421 3.00761   2
 -15   1  11 47.9901 3.03426   3
 -14  -1  11 0.20495 0.62005   3
  14  -1 -11 0.79902 0.74169   3
  14  -1 -11 0.32280 0.53127   2
  14   1 -11 0.69770 0.65792   3
 -14   1  11 0.49616 0.70961   3
 -13  -1  11 38.0705 2.43402   3
  13  -1 -11 38.3716 2.44320   3
  13  -1 -11 34.7229 2.12930   2
  13   1 -11 37.4157 2.40223   3
  13   1 -11 33.4634 2.08589   2
 -13   1  11 39.1362 2.43406   2
 -13   1  11 41.2815 2.62446   3
 -12  -1  11 20.5021 1.39534   3
  12  -1 -11 17.5376 1.19041   2
  12   1 -11 19.2429 1.27378   2
 -12   1  11 18.0979 1.26161   3
  12   1 -11 20.3395 1.41574   3
 -12   1  11 19.5394 1.32919   2
  11  -1 -11 92.8996 8.64981   1
 -11  -1  11 108.491 6.55663   3
 -11  -1  11 104.865 9.76782   1
  11  -1 -11 113.239 6.85425   3
 -11   1  11 93.7108 8.73261   1
  11   1 -11 106.082 9.87739   1
 -11   1  11 95.9325 8.93948   1
  11   1 -11 102.917 6.02356   2
  11   1 -11 110.675 6.68481   3
  10  -1 -11 144.034 13.4167   1
  10  -1 -11 123.000 7.15506   2
 -10  -1  11 134.825 12.5593   1
  10  -1 -11 154.639 14.4040   1
 -10  -1  11 144.035 13.4099   1
  10  -1 -11 145.319 8.75585   3
 -10   1  11 158.004 9.19579   2
  10   1 -11 131.811 12.2762   1
 -10   1  11 142.498 13.2682   1
  10   1 -11 136.824 12.7429   1
 -10   1  11 132.248 12.3134   1
   9  -1 -11 126.468 7.62017   3
   9  -1 -11 110.950 10.3302   1
  -9  -1  11 115.453 10.7542   1
  -9  -1  11 131.190 7.91655   3
   9  -1 -11 113.328 10.5571   1
  -9  -1  11 124.106 11.5595   1
   9  -1 -11 124.389 7.24608   2
   9   1 -11 127.133 11.8457   1
   9   1 -11 121.915 11.3509   1
   9   1 -11 126.567 7.38720   2
  -9   1  11 133.836 8.04403   3
  -9   1  11 115.543 10.7662   1
  -9   1  11 121.233 11.2859   1
  -8  -1  11 538.575 50.1696   1
   8  -1 -11 522.301 48.6297   1
   8  -1 -11 510.154 47.5041   1
  -8  -1  11 638.457 36.9087   2
   8  -1 -11 560.919 33.5505   3
   8  -1 -11 522.389 30.2098   2
  -8  -1  11 554.938 51.6621   1
  -8   1  11 555.887 33.2478   3
   8   1 -11 524.721 48.8788   1
  -8   1  11 552.357 31.9268   2
   8   1 -11 531.301 30.7252   2
  -8   1  11 571.906 53.2548   1
   8   1 -11 549.547 51.1625   1
  -8   1  11 527.367 49.1220   1
   8   1 -11 575.635 34.4123   3
   7  -1 -11 361.587 33.6908   1
  -7  -1  11 375.763 34.9950   1
  -7  -1  11 406.187 24.2881   3
   7  -1 -11 359.102 21.5048   3
   7  -1 -11 370.662 34.5236   1
  -7  -1  11 312.590 18.1573   2
   7  -1 -11 349.254 20.2121   2
  -7  -1  11 374.075 34.8418   1
   7   1 -11 363.117 33.8118   1
  -7   1  11 398.563 23.8500   3
  -7   1  11 354.008 20.5032   2
   7   1 -11 420.775 25.1636   3
  -7   1  11 365.262 34.0209   1
   7   1 -11 344.266 19.9169   2
  -7   1  11 413.219 38.4726   1
   7   1 -11 358.288 33.3477   1
   6  -1 -11 65.2101 3.96831   3
   6  -1 -11 64.2678 5.98593   1
  -6  -1  11 64.0139 5.96419   1
   6  -1 -11 58.0917 3.40686   2
  -6  -1  11 70.9498 4.29698   3
  -6  -1  11 74.7192 4.41117   2
   6  -1 -11 61.4198 5.71770   1
  -6  -1  11 61.1705 5.70410   1
   6   1 -11 63.3315 3.72599   2
   6   1 -11 63.3433 5.89828   1
   6   1 -11 69.0733 4.19221   3
  -6   1  11 64.2434 5.98296   1
  -6   1  11 64.2448 5.97903   1
   6   1 -11 65.3915 6.08750   1
  -6   1  11 64.3083 3.90780   3
   5  -1 -11 246.996 22.9995   1
   5  -1 -11 227.515 13.6241   3
  -5  -1  11 223.766 20.8404   1
   5  -1 -11 226.881 21.1179   1
  -5  -1  11 213.166 19.8460   1
   5  -1 -11 225.068 13.0386   2
  -5  -1  11 199.563 11.9697   3
  -5   1  11 236.013 21.9744   1
   5   1 -11 201.060 18.7341   1
   5   1 -11 215.665 12.4904   2
  -5   1  11 221.143 20.5982   1
   5   1 -11 206.418 19.2308   1
  -5   1  11 249.607 14.9493   3
   5   1 -11 216.610 12.9727   3
  -4  -1  11 155.753 9.03774   2
   4  -1 -11 161.112 9.67923   3
  -4  -1  11 163.315 15.2099   1
   4  -1 -11 161.530 15.0380   1
  -4  -1  11 155.913 14.5239   1
   4  -1 -11 161.600 15.0445   1
  -4  -1  11 163.838 9.81969   3
   4  -1 -11 151.622 8.78807   2
  -4   1  11 170.585 15.8842   1
  -4   1  11 176.614 16.4400   1
   4   1 -11 159.173 9.53214   3
   4   1 -11 147.786 8.59694   2
  -3  -1  11 2.15269 0.40087   2
  -3  -1  11 2.18076 0.33186   3
   3  -1 -11 1.99663 0.19802   1
   3  -1 -11 1.63188 0.30087   2
  -3  -1  11 1.50014 0.16234   1
  -3  -1  11 1.90787 0.20730   1
   3  -1 -11 2.40611 0.23613   1
  -3   1  11 2.25855 0.28393   2
   3   1 -11 1.74496 0.30318   3
  -3   1  11 1.51406 0.15190   1
  -3   1  11 1.89302 0.18689   1
   2  -1 -11 11.9935 0.79208   2
   2  -1 -11 10.3731 0.96919   1
  -2  -1  11 11.1577 0.75060   3
  -2  -1  11 12.1706 0.83777   2
   2  -1 -11 12.5420 1.16792   1
  -2   1  11 11.7644 1.10174   1
  -2   1  11 11.5923 0.73099   2
   2   1 -11 12.2441 1.14088   1
   2   1 -11 11.5275 1.07527   1
   2   1 -11 12.0536 0.79624   3
  -2   1  11 15.2237 1.41733   1
   1  -1 -11 100.794 9.38953   1
   1  -1 -11 101.003 5.86700   2
   1  -1 -11 111.906 10.4184   1
  -1   1  11 107.397 10.0005   1
   1   1 -11 99.5618 9.27276   1
  -1   1  11 108.136 10.0752   1
   1   1 -11 96.2580 8.96772   1
   1   1 -11 97.5996 5.69259   2
   0  -1  11 223.594 20.8084   1
   0  -1  11 205.900 19.1777   1
   0   1  11 228.435 21.2693   1
   0   1 -11 201.490 11.6872   2
   0   1  11 237.250 22.0902   1
   0   1 -11 220.396 20.5250   1
   0   1 -11 207.609 19.3335   1
   0   1 -11 192.303 11.5184   3
   1  -1  11 116.942 10.8874   1
   1  -1  11 118.083 6.88552   2
   1  -1  11 122.994 11.4555   1
  -1   1 -11 121.656 11.3338   1
  -1   1 -11 125.782 11.7124   1
   1   1  11 127.594 11.8826   1
  -1   1 -11 118.875 6.93752   2
   1   1  11 120.785 11.2445   1
   2  -1  11 188.154 17.5226   1
  -2  -1 -11 131.490 12.2538   1
  -2  -1 -11 178.902 16.6666   1
   2  -1  11 169.238 9.83735   2
   2  -1  11 170.355 15.8630   1
  -2  -1 -11 175.295 10.1753   2
  -2   1 -11 170.468 15.8760   1
  -2   1 -11 185.731 17.2978   1
  -2   1 -11 171.498 9.96152   2
   3  -1  11 304.894 28.3796   1
  -3  -1 -11 317.185 29.5497   1
   3  -1  11 340.332 19.6900   2
  -3  -1 -11 400.407 37.2805   1
   3  -1  11 325.962 30.3357   1
  -3  -1 -11 335.016 19.3873   2
   3   1  11 327.084 30.4590   1
   3   1  11 347.637 32.3717   1
  -3   1 -11 311.276 28.9943   1
  -3   1 -11 338.627 19.5949   2
  -3   1 -11 321.336 29.9228   1
  -4  -1 -11 184.331 17.1581   1
   4  -1  11 214.261 12.4389   2
  -4  -1 -11 171.769 9.97160   2
   4  -1  11 167.511 15.6002   1
   4  -1  11 163.066 15.1895   1
  -4  -1 -11 154.027 14.3500   1
  -4   1 -11 184.903 10.7496   2
   4   1  11 173.498 16.1520   1
  -4   1 -11 164.233 15.2952   1
   4   1  11 155.543 14.4860   1
  -4   1 -11 167.279 15.5755   1
  -5  -1 -11 94.0728 5.49893   2
   5  -1  11 90.3475 5.30375   2
  -5   1 -11 88.9585 5.23463   2
   5   1  11 86.1364 5.03220   2
   5   1  11 83.7678 7.80164   1
  -6  -1 -11 59.7253 3.56815   2
   6  -1  11 56.8597 3.39478   2
   6   1  11 58.3632 3.45765   2
  -6   1 -11 55.0432 3.29933   2
   7  -1  11 16.0208 1.11994   2
  -7  -1 -11 15.8406 1.12143   2
  -7   1 -11 15.1867 1.07426   2
   7   1  11 15.0566 1.02835   2
  -8  -1 -11 16.2649 1.22486   2
   8  -1  11 18.5959 1.27314   2
  -8   1 -11 18.3954 1.28180   2
  -9  -1 -11 0.86219 0.60123   2
   9  -1  11 1.80838 0.59527   2
  -9   1 -11 1.24589 0.59582   2
 -10  -1 -11 33.0149 2.11493   2
  10  -1  11 33.1313 2.07019   2
 -10   1 -11 34.1190 2.16643   2
  11  -1  11 22.7642 1.51603   2
 -11   1 -11 20.9434 1.49809   2
  12  -1  11 13.9093 1.09127   2
 -12   1 -11 14.8302 1.28171   2
  13  -1  11 40.0104 2.51825   2
 -13   1 -11 35.7973 2.28508   2
  14  -1  11 27.9527 1.82354   2
  22  -2 -11 11.8707 1.08049   2
 -22   2  11 12.0639 1.23409   3
  21  -2 -11 6.05928 0.79011   2
 -21  -2  11 7.37111 1.01745   3
  21  -2 -11 6.24062 0.92450   3
  21   2 -11 6.62276 1.02919   3
  21   2 -11 6.28003 0.85443   2
  20  -2 -11 -1.2193 0.80484   3
 -20  -2  11 -0.2611 0.74685   3
  20  -2 -11 -0.2687 0.67076   2
 -20   2  11 0.02500 0.71511   3
  20   2 -11 0.17677 0.88903   3
 -20   2  11 0.95137 0.99408   2
  20   2 -11 -0.1094 0.65518   2
 -19   2  11 1.82224 0.69127   2
  18  -2 -11 0.98027 0.68286   2
  18  -2 -11 1.21481 0.81826   3
  18   2 -11 0.56631 0.73631   3
 -18   2  11 0.33939 0.77343   3
  17  -2 -11 36.0151 2.25165   2
  17  -2 -11 36.3693 2.37369   3
 -17  -2  11 39.3801 2.58539   3
 -17   2  11 37.5998 2.37721   2
  17   2 -11 37.3949 2.36603   2
  17   2 -11 37.6554 2.47759   3
 -17   2  11 37.2301 2.39678   3
 -16  -2  11 84.7570 5.21372   3
  16  -2 -11 82.6719 5.10181   3
  16  -2 -11 82.6335 4.88411   2
 -16   2  11 79.3391 4.85661   3
  16   2 -11 83.2786 5.12427   3
 -16   2  11 88.8016 5.26463   2
 -15  -2  11 77.0931 4.74338   3
  15  -2 -11 75.3420 4.65034   3
  15  -2 -11 78.9986 4.67404   2
  15   2 -11 76.2364 4.50853   2
 -15   2  11 84.8248 5.01175   2
 -15   2  11 76.7959 4.71226   3
  15   2 -11 78.3179 4.80118   3
  14  -2 -11 124.009 7.26031   2
  14  -2 -11 124.505 7.55361   3
 -14  -2  11 124.564 7.53732   3
  14   2 -11 123.255 7.46521   3
  14   2 -11 125.637 7.34997   2
 -14   2  11 122.411 7.40586   3
 -14   2  11 133.412 7.81675   2
 -13  -2  11 173.874 10.4672   3
  13  -2 -11 159.823 9.31256   2
  13   2 -11 169.077 10.1939   3
 -13   2  11 156.118 9.41651   3
  13   2 -11 150.631 8.77250   2
 -13   2  11 172.868 10.0740   2
  12  -2 -11 284.072 17.0633   3
 -12  -2  11 312.197 18.7392   3
  12   2 -11 303.008 17.5542   2
  12   2 -11 312.890 18.7572   3
 -12   2  11 306.171 17.7413   2
 -11  -2  11 255.969 15.3545   3
  11  -2 -11 247.090 14.8583   3
 -11   2  11 257.081 15.4358   3
  11   2 -11 245.209 14.2226   2
  11   2 -11 256.481 15.3822   3
  10  -2 -11 30.8134 1.89925   2
  10  -2 -11 28.0905 1.88108   3
 -10  -2  11 27.6818 1.78130   3
 -10  -2  11 29.4180 2.74095   1
  10  -2 -11 27.4480 2.56713   1
 -10   2  11 29.2693 2.72665   1
 -10   2  11 26.1439 1.73147   3
 -10   2  11 33.1870 2.06922   2
 -10   2  11 28.1114 2.62640   1
  10   2 -11 31.1757 1.93589   2
  10   2 -11 28.2916 1.85045   3
  10   2 -11 28.7290 2.68233   1
   9  -2 -11 44.5188 2.84103   3
   9  -2 -11 31.9880 1.95745   2
  -9  -2  11 32.4432 2.06006   3
  -9  -2  11 38.4882 3.59132   1
  -9  -2  11 33.3190 3.11117   1
   9   2 -11 37.1089 3.46344   1
   9   2 -11 32.0712 2.99222   1
  -9   2  11 38.3593 2.41149   3
  -9   2  11 35.8823 3.34436   1
   9   2 -11 34.9261 2.12394   2
   9   2 -11 34.0433 2.18215   3
  -9   2  11 29.2763 1.85527   2
  -9   2  11 33.2778 3.10025   1
  -8  -2  11 0.02468 0.51580   3
  -8  -2  11 -1.1514 0.93824   2
   8  -2 -11 -0.6324 0.55080   3
   8  -2 -11 0.25462 0.40001   2
   8   2 -11 -0.0260 0.09268   1
  -8   2  11 0.70829 0.54400   2
  -8   2  11 0.65915 0.60914   3
  -7  -2  11 89.1981 8.30901   1
   7  -2 -11 80.5635 4.71396   2
  -7  -2  11 77.1971 7.19752   1
   7  -2 -11 84.8300 5.15669   3
  -7   2  11 94.7111 5.75408   3
   7   2 -11 88.5401 5.17166   2
  -7   2  11 91.4059 8.51058   1
   7   2 -11 85.4705 5.17390   3
  -7   2  11 79.3082 7.39376   1
   7   2 -11 85.2408 7.93476   1
   7   2 -11 85.1195 7.93317   1
  -7   2  11 87.9874 5.14181   2
  -6  -2  11 25.5747 2.38268   1
   6  -2 -11 24.9932 1.62168   3
  -6  -2  11 27.3957 1.74067   3
  -6  -2  11 24.0701 2.24774   1
   6  -2 -11 25.9921 2.42547   1
   6  -2 -11 19.6151 1.82551   1
  -6   2  11 23.9386 2.22745   1
  -6   2  11 28.1969 1.80614   3
   6   2 -11 26.8247 1.70693   3
   6   2 -11 27.6105 1.70507   2
   6   2 -11 25.8679 2.41247   1
   6   2 -11 28.0272 2.61566   1
  -5  -2  11 286.339 26.6582   1
  -5  -2  11 296.017 17.7383   3
   5  -2 -11 288.507 26.8553   1
  -5  -2  11 292.530 16.9332   2
  -5  -2  11 294.406 27.4093   1
   5  -2 -11 293.991 17.0123   2
   5  -2 -11 292.436 17.5281   3
   5  -2 -11 321.114 29.8969   1
   5   2 -11 282.166 16.9062   3
  -5   2  11 317.062 18.9987   3
   5   2 -11 298.936 17.3031   2
   5   2 -11 279.623 26.0597   1
   5   2 -11 293.946 27.3854   1
   4  -2 -11 814.371 75.8213   1
  -4  -2  11 747.297 44.6777   3
  -4  -2  11 757.780 43.7801   2
  -4  -2  11 806.155 75.0591   1
   4  -2 -11 797.994 74.2944   1
   4  -2 -11 613.366 35.4744   2
  -4  -2  11 717.244 66.7929   1
   4   2 -11 751.063 69.9205   1
   4   2 -11 783.466 46.8251   3
   4   2 -11 769.205 71.6220   1
   4   2 -11 765.948 44.2570   2
  -3  -2  11 200.942 11.6631   2
  -3  -2  11 194.428 11.6631   3
  -3  -2  11 192.804 17.9553   1
   3  -2 -11 170.439 10.2377   3
   3  -2 -11 224.778 20.9348   1
   3  -2 -11 203.538 18.9520   1
  -3  -2  11 200.797 18.6885   1
   3   2 -11 197.303 18.3707   1
  -3   2  11 246.548 22.9584   1
   3   2 -11 198.981 11.9249   3
   3   2 -11 187.048 17.4211   1
   3   2 -11 196.342 11.3875   2
   2  -2 -11 180.418 16.7979   1
   2  -2 -11 168.355 15.6704   1
  -2  -2  11 140.216 13.0560   1
  -2  -2  11 137.443 8.26073   3
  -2  -2  11 137.127 7.96501   2
  -2  -2  11 133.842 12.4650   1
  -2   2  11 141.230 13.1568   1
   2   2 -11 141.374 8.21435   2
   2   2 -11 125.336 11.6730   1
   2   2 -11 135.450 12.6159   1
   2   2 -11 134.290 8.05803   3
   1  -2 -11 518.917 48.3249   1
  -1  -2  11 522.017 48.6281   1
  -1  -2  11 533.405 49.6635   1
  -1  -2  11 507.013 29.3084   2
  -1   2  11 564.146 52.5332   1
   1   2 -11 526.028 30.4079   2
   1   2 -11 521.787 48.5825   1
   1   2 -11 547.370 32.7267   3
   1   2 -11 528.671 49.2122   1
   0  -2  11 402.734 24.0978   3
   0  -2  11 433.893 25.0811   2
   0  -2 -11 418.921 38.9968   1
   0  -2  11 417.137 38.8456   1
   0  -2  11 427.710 39.8367   1
   0   2 -11 423.505 39.4361   1
   0   2 -11 413.730 24.7309   3
   0   2  11 385.940 35.9578   1
   0   2 -11 435.400 40.5298   1
   0   2 -11 433.347 25.0769   2
   1  -2  11 55.5369 5.16857   1
   1  -2  11 57.6950 3.48456   3
  -1  -2 -11 59.2676 5.52386   1
   1  -2  11 58.3265 3.43819   2
  -1  -2 -11 59.3110 5.51892   1
   1  -2  11 54.0964 5.03846   1
  -1   2 -11 53.6376 4.99257   1
   1   2  11 60.6914 5.64909   1
  -1   2 -11 59.6161 3.51891   2
  -1   2 -11 56.1424 5.23136   1
   2  -2  11 30.5991 1.87280   2
  -2  -2 -11 33.9611 3.16382   1
   2  -2  11 28.4696 2.65762   1
   2  -2  11 30.6722 2.85915   1
  -2  -2 -11 34.5314 3.21549   1
  -2   2 -11 29.5513 2.75883   1
  -2   2 -11 32.9626 2.02899   2
  -2   2 -11 28.9394 1.78950   3
   2   2  11 34.7397 3.23663   1
  -2   2 -11 27.2226 2.53985   1
  -3  -2 -11 11.8003 1.10055   1
  -3  -2 -11 12.7408 1.18691   1
   3  -2  11 13.0882 1.22041   1
   3  -2  11 14.1745 0.96827   2
   3   2  11 14.6099 1.36329   1
  -3   2 -11 14.7285 1.02622   2
  -3   2 -11 13.6696 0.92594   3
   4  -2  11 14.0246 0.97635   2
   4   2  11 14.8849 1.38882   1
  -4   2 -11 15.1885 1.03066   3
   4   2  11 13.9801 1.30889   1
   5  -2  11 34.2271 2.07887   2
   6  -2  11 101.639 5.95307   2
  -6   2 -11 102.332 5.99809   2
  -7   2 -11 185.471 10.8035   2
   8  -2  11 126.457 7.38915   2
  -8   2 -11 121.635 7.12294   2
   9  -2  11 79.5958 4.71042   2
  -9   2 -11 74.9442 4.44841   2
  10  -2  11 52.0559 3.14502   2
 -10   2 -11 53.9512 3.26393   2
  11  -2  11 39.5984 2.43128   2
 -11   2 -11 37.8933 2.37205   2
  12  -2  11 29.9084 1.92310   2
 -12   2 -11 30.2781 1.98085   2
  13  -2  11 2.91268 0.61752   2
 -13   2 -11 3.25259 0.80304   2
  14  -2  11 -0.4241 0.61715   2
 -14   2 -11 -0.3412 0.75818   2
 -14   2 -11 -0.8043 0.60101   2
  21  -3 -11 1.54954 0.79738   3
 -21   3  11 1.10435 0.72898   3
  21   3 -11 -0.6284 0.91263   3
 -20  -3  11 11.4918 1.07169   3
  20  -3 -11 11.6066 1.03138   2
  20  -3 -11 10.9917 1.14576   3
 -20   3  11 11.4111 1.07213   3
  20   3 -11 12.2425 1.12296   2
 -20   3  11 11.1084 1.05471   2
  20   3 -11 12.5671 1.18577   3
  19  -3 -11 19.4206 1.39501   2
 -19  -3  11 17.2454 1.34818   3
  19  -3 -11 18.9545 1.48291   3
  19   3 -11 18.7973 1.41269   2
 -19   3  11 20.0859 1.47144   2
  19   3 -11 18.2806 1.49966   3
 -19   3  11 15.6768 1.26427   3
  18  -3 -11 7.57182 1.03480   3
 -18  -3  11 8.51670 0.95543   3
  18  -3 -11 10.1128 0.99046   2
 -18  -3  11 12.7261 1.52404   2
 -18   3  11 9.05463 1.01537   3
  18   3 -11 7.96067 1.11726   3
 -18   3  11 10.9639 1.06151   2
  18   3 -11 8.74073 0.98423   2
  16  -3 -11 9.23001 0.91766   2
  16  -3 -11 9.02660 1.03974   3
  16   3 -11 8.27879 0.93612   2
 -16   3  11 8.28699 0.94367   3
 -16   3  11 10.2544 1.02451   2
  16   3 -11 9.12071 1.01285   3
  15  -3 -11 11.0551 1.07465   3
 -15  -3  11 12.1027 1.11270   3
  15  -3 -11 10.9856 0.96289   2
 -15   3  11 10.9080 1.02544   3
  15   3 -11 10.1737 1.09332   3
  15   3 -11 9.90646 0.95611   2
 -15   3  11 9.60655 0.97285   2
  13  -3 -11 16.9690 1.32264   3
 -13  -3  11 16.9467 1.27932   3
  13   3 -11 19.0244 1.36147   2
 -13   3  11 18.2894 1.34856   2
  13   3 -11 17.7043 1.30757   3
 -12  -3  11 2.45939 0.68362   3
  12  -3 -11 3.54455 0.71690   3
  12  -3 -11 3.35622 0.61874   2
  12   3 -11 2.77454 0.68473   3
  12   3 -11 2.82229 0.56781   2
 -12   3  11 2.31919 0.82122   3
 -11  -3  11 3.92239 0.69614   3
  11  -3 -11 3.79658 0.79431   3
  11  -3 -11 3.87824 0.63466   2
  11   3 -11 4.24169 0.67078   3
  11   3 -11 3.78607 0.59731   2
 -11   3  11 4.29557 0.82199   3
  10  -3 -11 23.0549 1.62644   3
 -10  -3  11 22.0618 1.51071   3
  10  -3 -11 22.3255 1.44723   2
  10   3 -11 21.4642 1.43987   3
 -10   3  11 25.0964 1.61842   2
 -10   3  11 23.9141 1.62240   3
   9  -3 -11 38.7307 2.50129   3
   9  -3 -11 33.3731 2.03133   2
  -9  -3  11 32.7119 2.09858   3
  -9   3  11 34.0185 2.09298   2
   9   3 -11 32.1820 2.05750   3
  -9   3  11 35.6044 2.28691   3
  -8  -3  11 69.4256 4.22143   3
   8  -3 -11 66.3095 3.89921   2
  -8   3  11 63.0728 5.87712   1
   8   3 -11 70.1067 4.27893   3
   8   3 -11 63.8749 3.79010   2
  -7  -3  11 67.4673 4.11748   3
  -7  -3  11 69.1678 6.44506   1
   7  -3 -11 74.7228 4.59031   3
  -7   3  11 64.2933 5.99042   1
  -7   3  11 71.3728 4.37348   3
   7   3 -11 63.5731 3.75898   2
  -7   3  11 62.7397 5.84531   1
   6  -3 -11 113.005 6.85092   3
   6  -3 -11 100.067 9.31635   1
  -6  -3  11 85.1143 7.93597   1
   6   3 -11 96.3177 5.80901   3
  -6   3  11 93.6348 8.72403   1
   6   3 -11 81.8735 7.63070   1
   6   3 -11 92.1643 8.58733   1
  -6   3  11 103.259 6.25655   3
   6   3 -11 91.7470 5.37975   2
  -5  -3  11 27.5028 1.70341   2
   5  -3 -11 28.7010 1.90245   3
   5  -3 -11 32.1139 2.98826   1
  -5   3  11 31.2879 2.03852   3
  -5   3  11 23.2708 2.17342   1
   5   3 -11 27.1460 2.53073   1
   5   3 -11 30.1033 1.84738   2
   5   3 -11 24.9801 2.32845   1
  -4  -3  11 32.0288 1.95560   2
  -4  -3  11 28.9996 2.70985   1
  -4  -3  11 33.0598 2.08244   3
  -4  -3  11 28.0821 2.61482   1
   4  -3 -11 35.7034 3.32214   1
   4  -3 -11 30.0957 1.93365   3
   4   3 -11 29.6789 1.84634   2
   4   3 -11 33.7855 2.11397   3
  -4   3  11 25.3780 2.36458   1
   4   3 -11 26.7792 2.50070   1
   4   3 -11 26.7725 2.49806   1
  -3  -3  11 138.238 8.03644   2
  -3  -3  11 143.627 8.64649   3
  -3  -3  11 124.251 11.5792   1
  -3  -3  11 126.876 11.8202   1
   3  -3 -11 134.894 8.11496   3
   3   3 -11 121.414 11.3079   1
   3   3 -11 127.732 7.44508   2
   3   3 -11 142.933 8.58711   3
   3   3 -11 122.766 11.4321   1
  -2  -3  11 12.7979 1.20131   1
  -2  -3  11 11.9791 1.11823   1
  -2  -3  11 13.5137 0.95159   2
  -2  -3  11 10.6457 0.76404   3
   2   3 -11 12.0475 1.12795   1
   2   3 -11 13.3150 0.92283   3
   2   3 -11 11.9510 1.11820   1
   2   3 -11 14.7485 1.01299   2
  -1  -3  11 81.1889 7.56624   1
  -1  -3  11 77.0802 4.51536   2
  -1  -3  11 76.2797 7.10183   1
   1   3 -11 76.7532 7.15197   1
   1   3 -11 77.2910 4.55199   2
   1   3 -11 73.9955 4.46213   3
   1   3 -11 79.3166 7.38769   1
   0  -3  11 0.96302 0.12832   1
   0  -3  11 0.71927 0.37094   3
   0  -3  11 0.29633 0.45520   2
   0   3 -11 0.98937 0.48443   2
   0   3 -11 0.94842 0.37266   3
   0   3 -11 0.68224 0.10034   1
   1  -3  11 27.7562 1.75112   3
   1  -3  11 28.9539 1.77961   2
  -1   3 -11 29.0247 1.81336   3
  -1   3 -11 26.2950 1.66798   2
   2  -3  11 53.0602 3.24002   3
   2  -3  11 61.1878 3.63215   2
  -2   3 -11 62.1505 3.70297   2
   3  -3  11 53.5701 3.18683   2
  -3   3 -11 48.8207 2.99345   3
  -3   3 -11 53.7348 3.22148   2
   4  -3  11 35.4782 2.19894   3
   4  -3  11 39.5902 2.41175   2
  -4   3 -11 38.7287 2.35655   2
  -4   3 -11 40.6767 2.52830   3
   5  -3  11 17.9723 1.19135   2
   5  -3  11 17.9821 1.22909   3
  -5   3 -11 18.5827 1.26256   2
   6  -3  11 19.4560 1.27764   2
  -6   3 -11 18.9885 1.28054   2
  -6   3 -11 15.7160 1.08400   3
   7  -3  11 16.0858 1.12711   2
  -7   3 -11 16.5570 1.16756   2
   8  -3  11 11.3573 0.91184   2
  -8   3 -11 11.6436 0.94744   2
   9  -3  11 9.42742 0.81116   2
  -9   3 -11 8.73455 0.82153   2
  10  -3  11 -0.2740 0.52604   2
 -10   3 -11 -0.1551 0.56176   2
  11  -3  11 5.62140 0.67490   2
  12  -3  11 3.05972 0.66769   2
 -12   3 -11 2.68521 0.74150   2
 -13   3 -11 5.31175 0.81790   2
  14  -3  11 5.90315 0.72041   2
 -14   3 -11 6.52400 0.85015   2
  20  -4 -11 -0.2499 0.87963   3
 -20   4  11 0.45487 0.76380   3
  19  -4 -11 0.25723 0.87729   3
 -19  -4  11 2.12101 0.78755   3
  19   4 -11 1.40063 0.89654   3
 -19   4  11 1.59185 0.81031   3
 -18  -4  11 0.98860 0.76427   3
  18  -4 -11 1.78694 0.88323   3
  18   4 -11 -0.7171 0.87343   3
 -18   4  11 0.11693 0.74612   3
 -18   4  11 0.08506 0.80847   2
 -17  -4  11 5.35173 1.55978   2
  17  -4 -11 9.43328 1.05821   3
  17  -4 -11 8.93019 1.01712   2
 -17  -4  11 8.90275 0.96814   3
 -17   4  11 7.38902 0.95171   2
 -17   4  11 7.60088 0.92957   3
  17   4 -11 8.90295 1.11693   2
  17   4 -11 7.91397 1.04632   3
  16  -4 -11 3.88507 0.96255   3
 -16  -4  11 5.33902 0.75623   3
 -16  -4  11 5.87767 1.51662   2
 -16   4  11 4.88822 0.83557   3
  16   4 -11 4.88714 0.82348   2
 -16   4  11 5.05048 0.88399   2
  15  -4 -11 12.6632 1.07698   2
  15   4 -11 12.8056 1.11335   2
  15   4 -11 11.7746 1.09209   3
 -15   4  11 14.7259 1.23557   2
 -15   4  11 12.5698 1.25024   3
  14  -4 -11 7.67490 0.80439   2
  14  -4 -11 8.39245 1.02309   3
 -14  -4  11 8.35043 0.84337   3
  14   4 -11 8.37904 0.94942   3
 -14   4  11 10.7294 1.01812   2
  14   4 -11 8.60542 0.86262   2
  13  -4 -11 4.97155 0.70056   2
  13  -4 -11 5.08962 0.92858   3
 -13  -4  11 4.75602 0.70352   3
  13   4 -11 5.59416 0.76444   2
 -13   4  11 5.08648 0.79817   2
  13   4 -11 6.24453 0.84573   3
 -13   4  11 5.53801 0.91552   3
  12  -4 -11 5.62063 0.87973   3
  12  -4 -11 5.74403 0.73836   2
 -12  -4  11 7.00729 0.84745   3
  12   4 -11 6.52189 0.80074   2
  12   4 -11 6.92697 0.79691   3
 -12   4  11 6.84116 0.88742   3
 -11  -4  11 0.52198 0.54693   3
 -11  -4  11 0.10597 1.19032   2
  11  -4 -11 1.13610 0.77121   3
 -11   4  11 0.30328 0.77854   3
  11   4 -11 0.92893 0.57650   3
  11   4 -11 2.19039 0.67460   2
 -10  -4  11 1.07740 0.55315   3
  10  -4 -11 -0.4713 0.76415   3
  10   4 -11 0.49090 0.56579   3
  10   4 -11 0.78683 0.64749   2
 -10   4  11 1.62371 0.76950   3
  -8  -4  11 0.86619 0.55171   3
  -8  -4  11 0.30514 0.49216   2
   8  -4 -11 0.76287 0.62945   3
   8   4 -11 0.48790 0.43435   2
   8   4 -11 0.39279 0.55923   3
  -8   4  11 0.22027 0.64620   3
  -7  -4  11 11.2643 0.90515   3
   7  -4 -11 11.6712 0.98442   3
  -7  -4  11 8.83897 0.73354   2
   7   4 -11 9.91329 0.79215   2
   7   4 -11 10.7715 0.85598   3
  -7   4  11 12.4508 1.05641   3
  -6  -4  11 5.67086 0.58539   2
  -6  -4  11 5.45476 0.70485   3
   6   4 -11 5.37795 0.58917   2
  -6   4  11 5.65038 0.79381   3
  -5  -4  11 -0.3239 0.44775   2
   5   4 -11 -0.3821 0.46984   3
   4  -4 -11 124.068 7.49814   3
  -4  -4  11 105.539 6.37676   3
  -4  -4  11 108.549 6.34927   2
   4   4 -11 114.833 6.92623   3
  -4   4  11 117.918 7.11418   3
  -3  -4  11 29.9856 1.84246   2
   3  -4 -11 35.2900 2.24262   3
  -3  -4  11 33.1863 2.10974   3
   3   4 -11 29.8139 1.86348   2
   3   4 -11 30.5540 1.91583   3
  -2  -4  11 0.30476 0.47650   2
   2   4 -11 -0.4435 0.37703   3
  -1  -4  11 111.045 6.69796   3
  -1  -4  11 95.4561 5.58850   2
   1   4 -11 100.983 6.09736   3
   1   4 -11 106.998 6.26514   2
   0  -4  11 3.60715 0.53578   3
   0   4 -11 3.52719 0.46100   3
   0   4 -11 4.30960 0.53983   2
   1  -4  11 19.6994 1.34548   3
  -1   4 -11 17.2421 1.16405   3
  -1   4 -11 16.7379 1.12636   2
   2  -4  11 3.08695 0.53760   3
   2  -4  11 2.41983 0.49206   2
  -2   4 -11 2.40493 0.44939   3
  -2   4 -11 3.17149 0.61348   2
   3  -4  11 10.5184 0.82387   2
   3  -4  11 12.5553 0.99984   3
  -3   4 -11 9.83240 0.83994   2
   4  -4  11 14.7085 1.03254   2
  -4   4 -11 15.6900 1.11737   2
  -4   4 -11 14.2911 1.03960   3
   5  -4  11 4.84845 0.63040   2
  -5   4 -11 4.23092 0.61299   2
  -5   4 -11 5.04003 0.66086   3
   6  -4  11 13.7814 1.10888   3
   6  -4  11 11.0294 0.89444   2
  -6   4 -11 10.6091 0.89314   2
  -6   4 -11 8.80110 0.76352   3
   7  -4  11 3.85752 0.57621   2
   7  -4  11 3.43357 0.69343   3
  -7   4 -11 3.54166 0.61783   3
  -7   4 -11 2.73659 0.60854   2
   8  -4  11 3.31168 0.58075   2
  -8   4 -11 4.72419 0.62294   2
   9  -4  11 8.17433 0.75829   2
  -9   4 -11 8.51762 0.82268   2
  10  -4  11 2.98883 0.58281   2
 -10   4 -11 3.01038 0.64234   2
  11  -4  11 2.60456 0.56773   2
 -11   4 -11 1.38894 0.64010   2
  12  -4  11 0.94161 0.52917   2
 -12   4 -11 -0.0662 0.63562   2
  13  -4  11 0.18169 0.49712   2
 -13   4 -11 0.23094 0.58532   2
  18  -5 -11 9.91938 1.04661   3
 -18   5  11 9.51190 0.95428   3
 -17  -5  11 1.81890 0.76100   3
 -17   5  11 1.67394 0.68117   3
  17   5 -11 2.57145 0.85147   3
  16  -5 -11 8.02446 1.01496   3
 -16  -5  11 11.1678 1.05040   3
  16   5 -11 9.24008 0.99772   3
  15  -5 -11 12.4650 1.18599   3
 -15  -5  11 13.5515 1.18905   3
 -15   5  11 12.5232 1.14208   3
  15   5 -11 13.2514 1.21248   2
  14   5 -11 0.74124 0.82730   2
 -14   5  11 3.52873 0.83790   3
 -13  -5  11 1.26193 0.70779   3
  13  -5 -11 3.08013 0.82777   3
  13   5 -11 1.24002 0.91839   2
  13   5 -11 1.21070 0.76114   3
 -13   5  11 1.03683 0.81478   3
  12  -5 -11 12.2825 1.23631   3
 -12  -5  11 11.1729 1.05594   3
 -12   5  11 13.7090 1.28426   3
  12   5 -11 11.2065 0.99433   3
 -11  -5  11 13.9845 1.11965   2
 -11  -5  11 14.5445 1.16062   3
  11  -5 -11 15.3814 1.29255   3
  11   5 -11 16.3569 1.26074   2
  11   5 -11 12.8432 1.04881   3
 -11   5  11 14.0108 1.18476   3
 -10  -5  11 40.7043 2.57887   3
  10   5 -11 39.4644 2.51384   3
  10   5 -11 41.7980 2.61848   2
 -10   5  11 42.8257 2.75712   3
  -9  -5  11 66.3780 4.08515   3
   9  -5 -11 67.8438 4.17490   3
   9   5 -11 71.7235 4.40479   3
  -9   5  11 71.6944 4.44170   3
   9   5 -11 85.7142 5.11747   2
  -8  -5  11 68.5783 4.09232   2
   8  -5 -11 61.0589 3.79477   3
  -8  -5  11 64.1390 3.95474   3
   8   5 -11 67.8192 4.14473   3
   8   5 -11 67.3098 4.03437   2
  -8   5  11 66.9887 4.15121   3
  -7  -5  11 108.668 6.56972   3
  -7  -5  11 119.994 7.02178   2
   7   5 -11 101.963 6.18003   3
   7   5 -11 111.050 6.54602   2
  -7   5  11 110.960 6.75254   3
  -6  -5  11 17.4174 1.23063   2
   6  -5 -11 14.3789 1.13112   3
  -6  -5  11 13.3851 0.99929   3
   6   5 -11 14.2290 1.04977   3
  -5  -5  11 3.43027 0.64634   2
   5  -5 -11 3.64447 0.68051   3
   5   5 -11 3.70713 0.62134   2
  -5   5  11 3.50580 0.74182   3
   4  -5 -11 40.9617 2.60599   3
  -4  -5  11 40.4101 2.48138   2
  -4   5  11 43.6280 2.77686   3
   4   5 -11 38.2426 2.39125   3
   4   5 -11 37.3853 2.31026   2
  -3  -5  11 0.30573 0.50452   3
   3  -5 -11 0.58706 0.55018   3
   3   5 -11 0.75067 0.49551   3
  -2  -5  11 3.60093 0.60402   3
  -2  -5  11 3.50546 0.57316   2
   2   5 -11 3.89607 0.60967   2
   2   5 -11 2.89502 0.52697   3
  -1  -5  11 25.1657 1.64667   3
  -1  -5  11 24.7257 1.59537   2
   1   5 -11 25.6875 1.67188   3
   1   5 -11 26.0239 1.70041   2
   0  -5  11 29.5319 1.86914   2
   0  -5  11 30.5041 1.95543   3
   0   5 -11 29.7555 1.87686   2
   0   5 -11 30.9570 1.96821   3
   1  -5  11 5.23503 0.62092   3
   1  -5  11 5.95165 0.73200   2
  -1   5 -11 5.37780 0.63510   3
   2  -5  11 72.2328 4.41682   3
   2  -5  11 75.4071 4.46896   2
  -2   5 -11 69.0664 4.20138   3
  -2   5 -11 73.5922 4.37257   2
   3  -5  11 87.7639 5.16766   2
   3  -5  11 88.3343 5.36112   3
  -3   5 -11 83.6492 5.07165   3
  -3   5 -11 86.0205 5.08914   2
   4  -5  11 34.4262 2.13736   2
   4  -5  11 36.2301 2.30808   3
  -4   5 -11 33.7204 2.12803   2
   5  -5  11 46.4912 2.82107   2
  -5   5 -11 47.2272 2.95071   3
  -5   5 -11 49.7004 3.02544   2
   6  -5  11 11.8330 0.95471   2
   6  -5  11 13.1187 1.10186   3
   7  -5  11 2.43842 0.52852   2
   7  -5  11 2.44520 0.73370   3
  -7   5 -11 1.79277 0.61640   3
  -8   5 -11 3.10405 0.66232   2
  -9   5 -11 1.76265 0.64130   2
  10  -5  11 6.27488 0.73918   2
 -10   5 -11 8.47562 0.86195   2
  11  -5  11 9.06468 0.83285   2
 -11   5 -11 9.20528 0.87333   2
 -15  -6  11 13.2436 1.16432   3
  15  -6 -11 12.4641 1.18851   3
 -15   6  11 11.7692 1.16560   3
 -14  -6  11 1.25271 0.67611   3
  14  -6 -11 2.55357 0.81727   3
 -14   6  11 1.03648 0.79557   3
  13  -6 -11 12.0361 1.16992   3
 -13   6  11 14.2376 1.17165   3
  13   6 -11 10.8446 1.01290   3
 -12  -6  11 18.0433 1.32814   3
  12  -6 -11 17.0711 1.37050   3
  12   6 -11 16.4828 1.26475   3
 -12   6  11 17.0869 1.31290   3
 -11  -6  11 7.61021 0.84260   3
  11  -6 -11 7.97160 0.95308   3
  11   6 -11 7.37663 0.82484   3
 -11   6  11 6.71950 0.88748   3
 -10  -6  11 12.5526 1.09598   2
 -10  -6  11 11.9394 0.95711   3
  10  -6 -11 11.7405 1.10162   3
  10   6 -11 11.0231 0.97808   3
 -10   6  11 12.1065 1.11916   3
  -9  -6  11 1.48648 0.80593   2
  -9  -6  11 2.75150 0.61531   3
   9   6 -11 2.45957 0.67032   3
  -9   6  11 1.82242 0.86292   3
   9   6 -11 2.45869 0.70169   2
  -8  -6  11 -0.5099 0.58435   3
   8  -6 -11 0.33619 0.73972   3
   8   6 -11 0.09057 0.65217   2
   8   6 -11 0.27907 0.59042   3
  -7  -6  11 16.4325 1.20179   3
   7  -6 -11 14.2261 1.19036   3
  -7   6  11 17.1291 1.35234   3
   7   6 -11 17.8349 1.29655   3
   7   6 -11 16.1085 1.21496   2
   6  -6 -11 10.6519 0.98514   3
  -6  -6  11 7.48661 0.72485   3
  -6  -6  11 10.2853 0.92330   2
   6   6 -11 9.20742 0.84926   2
  -6   6  11 10.4286 1.04787   3
   6   6 -11 10.0746 0.84989   3
   5  -6 -11 23.3907 1.66058   3
  -5  -6  11 21.4185 1.44389   3
  -5   6  11 23.0541 1.67497   3
   5   6 -11 22.4890 1.51212   3
  -4  -6  11 15.7118 1.15822   2
  -4  -6  11 18.7962 1.34604   3
   4  -6 -11 19.4420 1.42732   3
  -4   6  11 17.8556 1.34242   3
   3   6 -11 25.5684 1.69641   2
   3   6 -11 21.5368 1.43615   3
  -2  -6  11 15.9230 1.15015   3
   2   6 -11 16.7657 1.15424   3
  -1  -6  11 35.9927 2.27790   3
  -1  -6  11 36.4692 2.26245   2
   1   6 -11 37.4093 2.35028   3
   1   6 -11 34.7492 2.16108   2
   0  -6  11 26.5024 1.72630   3
   0  -6  11 26.2049 1.69340   2
   0   6 -11 25.8819 1.69187   2
   0   6 -11 27.0062 1.76945   3
   1  -6  11 18.8555 1.32376   2
   1  -6  11 17.5966 1.22687   3
  -1   6 -11 17.6654 1.26349   2
  -1   6 -11 17.5761 1.22893   3
   2  -6  11 0.57738 0.58439   3
   2  -6  11 0.23807 0.57596   2
  -2   6 -11 -0.0467 0.56505   2
  -2   6 -11 1.41351 0.51836   3
   3  -6  11 4.48735 0.63307   3
   3  -6  11 3.52948 0.64961   2
  -3   6 -11 3.70106 0.60712   3
  -3   6 -11 3.97946 0.68646   2
   4  -6  11 2.59449 0.66432   2
   4  -6  11 3.56608 0.62366   3
  -4   6 -11 2.65497 0.67086   2
  -4   6 -11 4.05701 0.68481   3
   5  -6  11 0.77240 0.58397   2
  -5   6 -11 1.49055 0.66473   2
  -5   6 -11 -0.8959 0.61601   3
   6  -6  11 9.02019 0.88030   2
   6  -6  11 9.39534 0.96879   3
  -6   6 -11 8.54666 0.87032   3
  -6   6 -11 8.93542 0.91918   2
   7  -6  11 7.07711 0.76382   2
  -7   6 -11 5.03958 0.77264   2
   8  -6  11 11.1287 0.92227   2
  -8   6 -11 9.00066 0.88037   2
 -11  -7  11 1.93248 0.65811   3
  11   7 -11 2.97263 0.72402   3
 -10  -7  11 -0.1309 0.55213   3
  10   7 -11 0.27410 0.62630   3
  -9  -7  11 6.19530 0.72640   3
   9   7 -11 6.03135 0.76506   3
  -8  -7  11 -0.0873 0.52840   3
   8   7 -11 0.10709 0.58907   3
  -7  -7  11 1.91265 0.51439   3
   7   7 -11 1.23292 0.49738   3
  -6  -7  11 1.21001 0.53251   3
   6   7 -11 1.88904 0.55583   3
  -5  -7  11 0.88428 0.56947   3
   5   7 -11 0.95532 0.57328   3
  -4  -7  11 3.13886 0.56389   3
   4   7 -11 3.00170 0.55451   3
  -3  -7  11 2.35283 0.56483   3
   3   7 -11 3.04924 0.62755   3
   2   7 -11 0.28093 0.49926   3
  -1  -7  11 0.93478 0.51421   3
   1   7 -11 0.59116 0.57533   3
   0  -7  11 0.76746 0.48248   3
   0   7 -11 0.71704 0.44374   3
   1  -7  11 4.13416 0.62835   3
  -1   7 -11 3.48093 0.58186   3
   2  -7  11 -0.5465 0.55111   3
  -2   7 -11 0.55301 0.55770   3
   3  -7  11 0.14110 0.59504   3
  -3   7 -11 -0.5615 0.59202   3
  22   0 -12 0.50332 0.73801   2
 -22   0  12 4.56326 1.13508   2
 -22   0  12 0.56582 0.75782   3
  21   0 -12 6.17772 1.01185   3
  21   0 -12 5.98815 0.84928   2
 -21   0  12 3.18748 1.07494   2
 -20   0  12 26.4041 1.88751   3
  20   0 -12 27.3083 1.80477   2
  20   0 -12 26.3210 1.87494   3
  19   0 -12 22.6460 1.64492   3
 -19   0  12 23.1430 1.65375   3
  19   0 -12 22.2556 1.51190   2
 -18   0  12 23.1007 1.83412   2
 -17   0  12 145.119 8.77521   3
  17   0 -12 135.025 7.90820   2
  17   0 -12 136.432 8.26769   3
  16   0 -12 163.591 9.87846   3
 -16   0  12 169.748 10.2210   3
  16   0 -12 162.544 9.48706   2
  15   0 -12 153.519 9.26691   3
 -15   0  12 159.699 9.62516   3
  15   0 -12 142.844 8.34782   2
  14   0 -12 54.3630 3.37287   3
  14   0 -12 52.4195 3.14940   2
 -14   0  12 54.5254 3.38481   3
  13   0 -12 110.658 6.47112   2
  13   0 -12 110.717 6.69457   3
 -13   0  12 111.078 6.73029   3
 -12   0  12 -0.3754 0.57818   3
 -12   0  12 -0.1047 0.84438   2
  11   0 -12 9.31131 0.84507   3
  11   0 -12 7.50955 0.71052   1
  10   0 -12 12.2038 0.89229   2
 -10   0  12 9.31138 1.00846   2
 -10   0  12 10.1360 0.94800   1
  10   0 -12 10.0018 0.90861   3
 -10   0  12 11.6002 1.08748   1
  10   0 -12 12.1840 1.14097   1
  10   0 -12 10.7705 1.01548   1
 -10   0  12 11.5095 0.99171   3
   9   0 -12 852.493 79.3705   1
  -9   0  12 824.612 76.7970   1
  -9   0  12 894.573 83.3010   1
  -9   0  12 954.441 57.0109   3
   9   0 -12 873.078 50.4270   2
   9   0 -12 794.615 74.0180   1
   9   0 -12 920.264 54.9962   3
  -8   0  12 256.375 23.8624   1
   8   0 -12 249.989 23.2751   1
  -8   0  12 262.647 15.7289   3
   8   0 -12 266.894 15.9800   3
  -8   0  12 254.487 23.7048   1
   8   0 -12 240.668 22.4204   1
   8   0 -12 232.709 13.4814   2
  -7   0  12 18.2855 1.70963   1
   7   0 -12 19.1169 1.28830   3
  -7   0  12 18.9784 1.26723   3
   7   0 -12 18.9182 1.77129   1
   7   0 -12 19.1518 1.79023   1
  -7   0  12 20.6594 1.92813   1
   7   0 -12 20.1400 1.30384   2
   6   0 -12 931.657 86.7467   1
  -6   0  12 900.168 53.7828   3
  -6   0  12 959.017 89.2912   1
   6   0 -12 904.862 84.2491   1
  -6   0  12 822.385 47.5276   2
  -6   0  12 935.857 87.1399   1
   6   0 -12 910.752 52.6185   2
   6   0 -12 916.929 54.7886   3
  -5   0  12 503.492 46.8761   1
   5   0 -12 490.585 28.3538   2
   5   0 -12 482.676 44.9572   1
  -5   0  12 531.932 31.7889   3
  -5   0  12 508.056 47.3103   1
   5   0 -12 459.861 27.5029   3
   5   0 -12 489.321 45.5512   1
  -4   0  12 499.601 46.5276   1
   4   0 -12 572.229 34.2062   3
  -4   0  12 484.869 45.1627   1
   4   0 -12 513.749 47.8338   1
   4   0 -12 493.882 45.9894   1
   4   0 -12 469.176 27.1343   2
   3   0 -12 191.056 11.0626   2
  -3   0  12 221.689 20.6344   1
  -3   0  12 184.999 17.2260   1
   3   0 -12 203.923 18.9867   1
  -3   0  12 198.167 11.4924   2
   3   0 -12 189.407 17.6407   1
  -2   0  12 161.667 15.0515   1
  -2   0  12 153.820 14.3252   1
   2   0 -12 150.277 8.72704   2
   2   0 -12 142.914 13.3130   1
   2   0 -12 166.291 15.4876   1
  -2   0  12 136.029 7.90122   2
   1   0 -12 128.976 12.0073   1
   1   0 -12 130.632 12.1683   1
  -1   0  12 108.995 6.34226   2
   1   0 -12 123.358 7.17851   2
  -1   0  12 125.325 11.6749   1
  -1   0  12 134.961 12.5667   1
   0   0 -12 4.20457 0.40748   1
   0   0  12 3.42099 0.33455   1
   0   0 -12 3.41065 0.32590   1
   0   0 -12 2.98928 0.44370   2
   0   0  12 3.63791 0.44548   2
   0   0  12 3.46480 0.33149   1
   1   0  12 29.5506 2.75221   1
   1   0  12 32.0225 1.93790   2
   1   0  12 31.0948 2.89946   1
  -1   0 -12 30.6410 1.85702   2
  -1   0 -12 34.7864 3.24384   1
  -1   0 -12 28.7026 2.67380   1
  -2   0 -12 157.842 9.18045   2
   2   0  12 169.295 9.81754   2
  -2   0 -12 168.987 15.7321   1
   2   0  12 149.031 13.8841   1
   2   0  12 161.182 15.0122   1
  -2   0 -12 159.863 14.8885   1
  -3   0 -12 271.805 25.3012   1
  -3   0 -12 303.438 28.2494   1
   3   0  12 282.812 16.3721   2
   3   0  12 266.437 24.8306   1
  -3   0 -12 278.032 16.1241   2
   3   0  12 264.667 24.6310   1
  -4   0 -12 300.307 17.4165   2
   4   0  12 320.191 18.5580   2
   4   0  12 291.660 27.1550   1
  -5   0 -12 175.836 10.2365   2
   5   0  12 191.911 11.1668   2
   6   0  12 164.345 9.56996   2
  -6   0 -12 148.237 8.65779   2
   7   0  12 213.324 12.3938   2
   8   0  12 70.9210 4.20531   2
  -8   0 -12 70.7916 4.21481   2
  -9   0 -12 6.47786 0.82657   2
  10   0  12 8.39578 0.88957   2
 -10   0 -12 7.72664 0.90709   2
 -11   0 -12 9.25853 1.01365   2
  11   0  12 8.56046 0.84513   2
 -12   0 -12 4.53855 0.87594   2
  12   0  12 5.82663 0.81626   2
  22  -1 -12 10.5602 1.00111   2
  22  -1 -12 7.09479 1.06599   3
 -22  -1  12 9.37704 1.01238   3
  22   1 -12 9.84816 1.11845   3
  22   1 -12 7.61484 0.88559   2
 -22   1  12 5.97136 1.18548   2
 -21  -1  12 17.4817 1.60115   2
 -21  -1  12 15.1951 1.32149   3
  21  -1 -12 12.7085 1.19043   3
  21  -1 -12 14.3128 1.16197   2
  21   1 -12 15.2326 1.19879   2
 -21   1  12 13.0929 1.18134   3
  20  -1 -12 16.5430 1.29186   3
  20   1 -12 14.4131 1.34273   3
  20   1 -12 17.9442 1.31631   2
 -20   1  12 15.9456 1.26781   3
 -19  -1  12 13.3310 1.21834   3
  19  -1 -12 11.6962 1.12441   3
  19   1 -12 11.8015 1.21042   3
  19   1 -12 12.5975 1.06024   2
 -19   1  12 12.1900 1.14500   3
 -18   1  12 14.2518 1.41389   2
  17  -1 -12 8.68470 0.99804   3
  17  -1 -12 9.96408 0.91043   2
 -17  -1  12 9.79539 1.03622   3
  17   1 -12 9.25474 1.01077   3
  17   1 -12 10.2925 0.94503   2
 -17   1  12 10.2792 1.05316   3
  16  -1 -12 -0.3608 0.74096   3
  16  -1 -12 0.04639 0.64138   2
 -16  -1  12 0.71984 0.76365   3
  16   1 -12 0.29555 0.65478   2
  16   1 -12 0.19597 0.70069   3
 -16   1  12 0.22237 0.70675   3
 -15  -1  12 10.0925 0.94015   3
  15  -1 -12 10.8147 0.93243   2
  15  -1 -12 8.76587 0.91400   3
  15   1 -12 10.3749 0.89778   2
  15   1 -12 9.21216 0.92695   3
 -15   1  12 9.97780 0.96113   3
  14  -1 -12 38.5960 2.48254   3
  14  -1 -12 43.0215 2.60408   2
 -14  -1  12 39.2045 2.49234   3
  14   1 -12 40.4166 2.58074   3
  14   1 -12 41.1904 2.52342   2
 -14   1  12 38.2854 2.46060   3
 -13  -1  12 31.7067 2.06168   3
  13  -1 -12 31.7602 1.96811   2
  13   1 -12 32.1165 1.98397   2
 -13   1  12 31.3396 2.02360   2
 -13   1  12 31.3566 2.06463   3
  13   1 -12 32.6178 2.11867   3
  12  -1 -12 201.279 11.6911   2
  12  -1 -12 222.218 13.3393   3
 -12  -1  12 210.405 12.6411   3
  12   1 -12 209.299 12.5776   3
  12   1 -12 215.032 12.4765   2
 -12   1  12 236.551 13.7530   2
  11  -1 -12 36.3477 2.23388   2
 -11  -1  12 36.0386 2.30578   3
  11  -1 -12 34.9045 2.27520   3
  11   1 -12 34.9150 2.13007   2
 -11   1  12 35.0292 2.26708   3
 -11   1  12 31.0537 2.89403   1
  10  -1 -12 133.010 8.04350   3
  10  -1 -12 112.012 10.4290   1
 -10  -1  12 113.762 10.5950   1
 -10  -1  12 115.787 10.7807   1
  10  -1 -12 124.842 7.26647   2
  10  -1 -12 106.949 9.95908   1
 -10   1  12 149.638 9.02764   3
  10   1 -12 116.906 6.80938   2
 -10   1  12 109.545 10.2081   1
  10   1 -12 138.206 8.33342   3
 -10   1  12 120.550 7.07306   2
 -10   1  12 111.477 10.3814   1
  10   1 -12 114.265 10.6447   1
  10   1 -12 112.766 10.5031   1
   9  -1 -12 270.546 16.2164   3
  -9  -1  12 246.829 22.9957   1
   9  -1 -12 236.876 22.0692   1
   9  -1 -12 235.293 13.6626   2
  -9  -1  12 240.564 22.4022   1
  -9  -1  12 274.717 16.4696   3
   9  -1 -12 226.797 21.1295   1
   9   1 -12 256.562 23.8862   1
   9   1 -12 252.833 15.1601   3
  -9   1  12 218.121 20.3220   1
  -9   1  12 297.208 17.8134   3
   9   1 -12 224.298 20.8847   1
  -9   1  12 243.752 22.7075   1
   8  -1 -12 26.0369 2.42423   1
   8  -1 -12 29.4192 1.90774   3
  -8  -1  12 27.6467 2.57421   1
  -8  -1  12 27.5005 1.79029   3
  -8  -1  12 25.7666 2.40433   1
   8  -1 -12 26.9429 1.66999   2
   8  -1 -12 25.1515 2.34720   1
   8   1 -12 26.2578 1.70178   3
  -8   1  12 26.4856 2.47468   1
   8   1 -12 26.3318 1.65583   2
  -8   1  12 22.9578 1.56637   2
   8   1 -12 26.2894 2.44899   1
   8   1 -12 24.3930 2.27304   1
  -8   1  12 25.9676 2.42677   1
   7  -1 -12 281.030 26.1623   1
   7  -1 -12 268.301 24.9979   1
  -7  -1  12 277.350 25.8107   1
  -7  -1  12 273.014 15.8288   2
   7  -1 -12 266.059 15.9436   3
   7  -1 -12 255.157 14.7913   2
  -7  -1  12 303.967 18.1980   3
  -7  -1  12 284.841 26.5368   1
   7   1 -12 250.061 23.2808   1
  -7   1  12 284.672 17.0639   3
  -7   1  12 278.675 25.9443   1
   7   1 -12 303.462 18.1628   3
  -7   1  12 272.398 25.3682   1
   7   1 -12 272.488 25.3736   1
   7   1 -12 280.528 16.2402   2
  -7   1  12 222.465 12.9131   2
  -6  -1  12 29.6636 1.84657   3
  -6  -1  12 39.2809 2.47442   2
  -6  -1  12 35.7424 3.32493   1
  -6  -1  12 35.9342 3.35179   1
   6  -1 -12 38.8482 3.62461   1
   6  -1 -12 37.3535 2.24785   2
   6  -1 -12 35.2213 2.19376   3
   6  -1 -12 36.5493 3.41124   1
   6   1 -12 37.7437 2.26771   2
  -6   1  12 36.9456 3.44001   1
  -6   1  12 35.1772 2.17376   3
   6   1 -12 33.9243 2.11784   3
  -6   1  12 36.0017 3.35904   1
   5  -1 -12 66.9011 6.23645   1
  -5  -1  12 68.5500 6.38900   1
   5  -1 -12 77.0244 7.17647   1
  -5  -1  12 80.3030 4.84014   3
   5  -1 -12 75.2981 4.57259   3
  -5  -1  12 74.6857 6.96126   1
   5  -1 -12 71.9114 4.20556   2
   5   1 -12 72.2132 4.38225   3
  -5   1  12 74.1492 6.90981   1
  -5   1  12 75.5750 7.03776   1
  -5   1  12 70.1177 4.24724   3
   4  -1 -12 3.75188 0.36396   1
   4  -1 -12 3.33943 0.40256   2
   4  -1 -12 4.36947 0.41526   1
  -4  -1  12 4.07172 0.49216   3
  -4  -1  12 3.67219 0.48094   2
   4   1 -12 3.78994 0.43775   3
   4   1 -12 3.78785 0.36360   1
  -4   1  12 4.03475 0.38222   1
  -4   1  12 4.59809 0.43735   1
   4   1 -12 3.49106 0.33563   1
   3  -1 -12 195.167 18.1814   1
   3  -1 -12 186.973 10.8406   2
  -3  -1  12 186.102 11.1534   3
  -3  -1  12 212.408 12.3206   2
   3  -1 -12 210.735 19.6263   1
   3   1 -12 196.092 18.2589   1
   3   1 -12 197.549 18.3836   1
   3   1 -12 202.914 12.1395   3
   3   1 -12 182.881 10.6006   2
  -3   1  12 202.539 11.7254   2
  -3   1  12 174.716 16.2697   1
  -3   1  12 239.474 22.2981   1
   2  -1 -12 171.421 9.95824   2
  -2  -1  12 171.615 15.9765   1
  -2  -1  12 150.763 14.0443   1
   2   1 -12 156.167 9.07914   2
  -2   1  12 158.976 14.8006   1
  -2   1  12 171.402 15.9623   1
   2   1 -12 167.613 15.6073   1
   2   1 -12 142.468 13.2658   1
  -1  -1  12 239.428 22.2905   1
  -1  -1  12 222.349 20.7162   1
  -1   1  12 246.257 22.9249   1
   1   1 -12 239.356 14.3110   3
   1   1 -12 227.864 21.2182   1
  -1   1  12 246.159 22.9254   1
   1   1 -12 235.594 13.6503   2
   1   1 -12 216.055 20.1148   1
   0  -1  12 101.043 9.41475   1
   0  -1  12 110.374 10.2793   1
   0  -1 -12 96.8530 5.62743   2
   0  -1 -12 120.823 11.2491   1
   0  -1 -12 97.8101 9.10974   1
   0  -1  12 111.433 6.48665   2
   0   1 -12 97.6801 9.09387   1
   0   1 -12 114.136 10.6273   1
   0   1 -12 107.637 6.28354   2
   1  -1  12 92.3307 5.41221   2
  -1  -1 -12 100.111 9.31936   1
   1  -1  12 85.6962 7.97820   1
  -1  -1 -12 97.0001 9.03084   1
   1  -1  12 78.3151 7.29909   1
  -1  -1 -12 95.0611 5.55586   2
  -1   1 -12 87.2733 8.12464   1
  -1   1 -12 86.0502 5.05122   2
   1   1  12 80.6003 7.51262   1
  -1   1 -12 76.8751 7.15775   1
   1   1  12 91.3260 8.50159   1
   2  -1  12 97.5680 9.08749   1
   2  -1  12 103.359 6.03217   2
  -2  -1 -12 106.942 6.23378   2
   2  -1  12 109.642 10.2122   1
  -2  -1 -12 107.259 9.99475   1
  -2  -1 -12 94.1640 8.76848   1
   2   1  12 96.1084 8.95326   1
   2   1  12 98.9760 9.22085   1
  -2   1 -12 105.898 9.86204   1
  -2   1 -12 97.2056 9.05022   1
  -2   1 -12 106.300 6.22104   2
  -3  -1 -12 56.6359 3.34639   2
  -3  -1 -12 50.8325 4.73471   1
  -3  -1 -12 58.6930 5.47053   1
   3  -1  12 48.8790 4.55578   1
   3  -1  12 53.5797 4.99387   1
  -3   1 -12 53.2205 4.96139   1
   3   1  12 53.5229 4.98580   1
  -4  -1 -12 53.8648 3.19429   2
   4  -1  12 57.4633 3.39926   2
   4   1  12 53.5098 4.98481   1
  -4   1 -12 58.2433 3.45433   2
  -5  -1 -12 8.06439 0.67215   2
   5  -1  12 7.46192 0.65743   2
  -5   1 -12 7.23810 0.66322   2
  -6  -1 -12 2.44048 0.59047   2
   6  -1  12 1.91762 0.47545   2
  -6   1 -12 1.41641 0.53459   2
   7  -1  12 8.22861 0.78345   2
  -7   1 -12 6.87378 0.71540   2
   8  -1  12 10.1154 0.85683   2
  -8  -1 -12 9.29738 0.91643   2
  -8   1 -12 11.2141 0.92545   2
   9  -1  12 39.4685 2.43437   2
  -9   1 -12 42.1679 2.60213   2
  10  -1  12 48.0716 2.93544   2
 -10   1 -12 49.5398 3.04770   2
  11  -1  12 32.6536 2.05997   2
 -11   1 -12 31.4180 2.03964   2
  12  -1  12 24.2163 1.60815   2
 -13   1 -12 9.44216 0.97319   2
  14  -1  12 3.22519 0.72762   2
  21  -2 -12 1.32221 0.68285   2
  21  -2 -12 0.38238 0.78877   3
 -21  -2  12 -0.3582 0.81636   3
 -21  -2  12 -0.5670 1.37188   2
  21   2 -12 0.05043 0.88766   3
 -21   2  12 2.75405 1.03117   2
 -21   2  12 -0.5664 0.78570   3
  21   2 -12 -0.2448 0.79473   2
  20  -2 -12 0.58038 0.77153   3
 -20  -2  12 0.38698 0.85147   3
 -20  -2  12 3.34998 1.40639   2
  20  -2 -12 -0.4743 0.65053   2
 -20   2  12 0.42231 0.79256   3
 -20   2  12 -1.2442 1.04248   2
  20   2 -12 0.71176 0.74312   2
  19  -2 -12 9.82641 0.93093   2
  19  -2 -12 9.37730 1.00493   3
 -19   2  12 7.70076 0.96632   3
  19   2 -12 7.76324 0.94327   3
  19   2 -12 8.38434 0.92530   2
 -19   2  12 7.13101 1.01435   2
 -18  -2  12 1.17517 1.38690   2
  18  -2 -12 1.09558 0.64397   2
  18  -2 -12 0.17541 0.77192   3
 -18  -2  12 0.08062 0.79827   3
  18   2 -12 0.68698 0.75578   3
 -18   2  12 -0.4049 0.88101   2
 -18   2  12 -0.2225 0.70714   3
 -16  -2  12 6.41530 0.90141   3
  16  -2 -12 9.16364 1.03363   3
  16  -2 -12 7.75294 0.79841   2
 -16   2  12 8.68352 1.01113   2
 -16   2  12 8.04835 0.92670   3
  16   2 -12 8.44954 0.88536   2
  16   2 -12 6.00452 0.82975   3
  15  -2 -12 8.22448 0.95293   3
  15  -2 -12 9.86568 0.90257   2
 -15  -2  12 9.12104 0.87180   3
 -15   2  12 9.29000 0.90232   3
 -15   2  12 8.20404 0.98989   2
  15   2 -12 7.63243 0.76745   2
  15   2 -12 8.58152 0.86142   3
 -14  -2  12 22.5172 1.58382   3
  14  -2 -12 20.5138 1.40463   2
  14   2 -12 22.1205 1.46269   2
  14   2 -12 24.0822 1.66312   3
 -14   2  12 23.1508 1.61222   3
 -14   2  12 22.4693 1.60342   2
 -13  -2  12 -0.2137 0.61729   3
  13  -2 -12 0.36876 0.72444   3
  13  -2 -12 0.48011 0.52678   2
  13   2 -12 -0.8041 0.71339   3
 -13   2  12 0.76160 0.66470   2
  13   2 -12 -0.0446 0.46236   2
  12  -2 -12 18.5131 1.38234   3
  12  -2 -12 17.4160 1.20400   2
 -12  -2  12 20.4936 1.42843   3
 -12   2  12 18.8828 1.33176   2
  12   2 -12 16.6711 1.26653   3
  12   2 -12 18.4793 1.26153   2
 -12   2  12 18.3747 1.34571   3
 -11  -2  12 29.8725 1.94157   3
  11  -2 -12 33.4253 2.16104   3
  11  -2 -12 30.8022 1.91161   2
 -11   2  12 35.8245 2.27316   3
  11   2 -12 34.2939 2.12286   2
  11   2 -12 33.0485 2.14855   3
 -11   2  12 32.3151 2.09373   2
 -10  -2  12 12.1490 0.94182   3
  10  -2 -12 11.4211 1.03320   3
  10  -2 -12 11.0568 0.81866   2
  10   2 -12 12.5002 0.93846   2
 -10   2  12 13.3310 1.04868   2
 -10   2  12 11.8757 0.96475   3
   9  -2 -12 8.62641 0.88181   3
   9  -2 -12 6.45780 0.61587   1
   9  -2 -12 7.67844 0.68907   2
  -9  -2  12 7.55324 0.71450   1
   9  -2 -12 5.58294 0.53060   1
   9   2 -12 7.30469 0.69387   1
   9   2 -12 7.63744 0.70540   2
  -9   2  12 6.93001 0.76555   3
   9   2 -12 8.01320 0.77908   3
  -8  -2  12 17.9710 1.68114   1
   8  -2 -12 17.4208 1.63055   1
  -8  -2  12 20.5156 1.91471   1
   8  -2 -12 19.6614 1.37781   3
   8   2 -12 18.7983 1.75160   1
  -8   2  12 15.4983 1.19847   2
   8   2 -12 17.0441 1.59457   1
   8   2 -12 21.6168 1.39619   2
  -8   2  12 21.7225 1.44741   3
   7  -2 -12 5.00715 0.70708   3
  -7  -2  12 3.03790 0.29804   1
   7  -2 -12 4.07904 0.51654   2
  -7  -2  12 3.57604 0.57713   3
   7  -2 -12 3.41860 0.32933   1
   7  -2 -12 2.92363 0.29092   1
   7   2 -12 2.41427 0.50478   3
   7   2 -12 3.50825 0.34224   1
  -7   2  12 2.58390 0.54159   3
   7   2 -12 3.42723 0.33736   1
   6  -2 -12 16.0791 1.01343   2
  -6  -2  12 16.6466 1.55344   1
   6  -2 -12 17.0514 1.59624   1
   6  -2 -12 15.5596 1.45313   1
  -6  -2  12 15.6591 1.09893   3
  -6  -2  12 16.9466 1.58162   1
   6  -2 -12 16.3955 1.14341   3
   6   2 -12 14.8707 1.01243   2
   6   2 -12 16.0327 1.49855   1
  -6   2  12 14.1064 1.32170   1
   6   2 -12 16.1235 1.11165   3
  -6   2  12 18.1046 1.68630   1
  -6   2  12 16.8151 1.16097   3
   6   2 -12 18.4803 1.72421   1
  -5  -2  12 137.896 8.02264   2
   5  -2 -12 141.037 13.1407   1
  -5  -2  12 135.853 12.6508   1
   5  -2 -12 145.830 8.45411   2
  -5  -2  12 140.809 13.1157   1
  -5  -2  12 141.495 8.49929   3
   5   2 -12 141.717 8.50353   3
   5   2 -12 140.471 13.0814   1
   5   2 -12 131.781 12.2757   1
  -5   2  12 140.678 8.45847   3
  -5   2  12 154.104 14.3527   1
   5   2 -12 138.209 8.04468   2
  -5   2  12 149.440 13.9120   1
   4  -2 -12 43.7381 4.07008   1
  -4  -2  12 38.4749 2.30285   2
  -4  -2  12 45.5528 2.80922   3
  -4  -2  12 33.5888 3.13261   1
   4  -2 -12 34.6616 3.23130   1
   4  -2 -12 37.2056 2.32602   3
  -4  -2  12 37.1722 3.46621   1
   4   2 -12 41.6728 2.56302   3
   4   2 -12 38.0304 2.29096   2
   4   2 -12 36.2968 3.37964   1
   4   2 -12 38.4482 3.58335   1
  -4   2  12 39.6947 3.69826   1
  -4   2  12 47.6134 4.44126   1
   3  -2 -12 17.7872 1.65507   1
  -3  -2  12 17.0554 1.13153   2
   3  -2 -12 16.0500 1.50083   1
  -3  -2  12 17.5851 1.17763   3
  -3  -2  12 13.7055 1.28503   1
  -3  -2  12 14.6086 1.36245   1
   3   2 -12 13.7278 1.28506   1
   3   2 -12 19.5345 1.30978   3
   3   2 -12 13.9854 1.30649   1
   3   2 -12 16.0426 1.07937   2
  -2  -2  12 13.1261 1.22518   1
   2  -2 -12 11.9207 1.11484   1
   2  -2 -12 13.1398 1.22871   1
  -2  -2  12 12.1636 1.13927   1
  -2  -2  12 13.6508 0.93969   3
   2   2 -12 11.6673 1.08919   1
   2   2 -12 11.2510 1.04967   1
   2   2 -12 13.2520 0.92350   3
   2   2 -12 14.1224 0.99181   2
  -1  -2  12 49.4420 2.93649   2
   1  -2 -12 52.7719 4.91508   1
  -1  -2  12 47.8673 4.46555   1
  -1  -2  12 50.5178 4.70358   1
  -1  -2  12 46.4249 2.82354   3
   1   2 -12 51.3506 3.04620   2
   1   2 -12 50.5353 3.07056   3
   1   2 -12 50.7014 4.72732   1
   1   2 -12 50.0517 4.66761   1
   0  -2  12 0.11349 0.08100   1
   0  -2 -12 -0.1078 0.08551   1
   0   2 -12 -0.5003 0.34401   3
   0   2 -12 0.19650 0.08765   1
   1  -2  12 12.9799 1.21476   1
   1  -2  12 14.4642 0.99394   2
  -1  -2 -12 12.0705 1.12667   1
  -1  -2 -12 13.2498 1.24092   1
   1  -2  12 12.5690 1.17690   1
   1   2  12 12.9542 1.20670   1
  -1   2 -12 13.2792 0.93726   2
  -1   2 -12 13.9541 0.93520   3
   2  -2  12 4.11265 0.52058   2
  -2  -2 -12 3.75704 0.36217   1
   2  -2  12 4.20457 0.39921   1
  -2  -2 -12 4.65034 0.44193   1
  -2   2 -12 4.73548 0.43241   3
   2   2  12 5.78748 0.55093   1
  -2   2 -12 4.70847 0.55656   2
   2   2  12 3.53928 0.34001   1
   3  -2  12 2.49753 0.47495   2
   3   2  12 1.85351 0.19018   1
   4  -2  12 15.2180 1.03273   2
  -4   2 -12 15.6588 1.09303   2
  -5   2 -12 2.24525 0.52290   2
  -6   2 -12 1.38051 0.51220   2
   7  -2  12 14.6700 1.06944   2
  -7   2 -12 13.5728 1.01269   2
   8  -2  12 2.85696 0.60351   2
  -8   2 -12 2.82770 0.58754   2
   9  -2  12 1.97188 0.60222   2
  -9   2 -12 3.41545 0.66925   2
  10  -2  12 0.30304 0.59083   2
 -10   2 -12 -0.4677 0.64665   2
  11  -2  12 -0.1833 0.55441   2
 -11   2 -12 -0.1341 0.61790   2
  12  -2  12 4.70064 0.69381   2
 -12   2 -12 4.89503 0.80199   2
  13  -2  12 3.87031 0.67165   2
 -13   2 -12 3.80847 0.80272   2
  14  -2  12 0.11121 0.64060   2
 -14   2 -12 0.73844 0.62554   2
  21  -3 -12 3.90896 0.89830   3
  21   3 -12 3.52586 0.88045   3
 -21   3  12 4.42715 0.84362   3
 -20  -3  12 24.9689 1.77064   3
  20  -3 -12 26.0017 1.87607   3
  20  -3 -12 24.4241 1.66643   2
  20   3 -12 25.6336 1.85411   3
 -20   3  12 24.9802 1.75526   3
  20   3 -12 24.7459 1.72618   2
  19  -3 -12 14.2117 1.17241   2
  19  -3 -12 14.6927 1.31084   3
 -19  -3  12 13.9242 1.19785   3
 -19   3  12 13.1642 1.20831   2
 -19   3  12 15.6672 1.26878   3
  19   3 -12 14.9292 1.23693   2
  18  -3 -12 -1.0683 0.71793   2
  18  -3 -12 1.87274 0.86310   3
  18   3 -12 -0.6851 0.89872   3
  18   3 -12 0.17868 0.74621   2
 -18   3  12 -0.8108 0.78384   3
 -18   3  12 0.63630 0.73306   2
  17  -3 -12 2.53939 0.88374   3
 -17  -3  12 1.87910 0.77900   3
 -17   3  12 1.19906 0.83458   3
  17   3 -12 0.98310 0.72076   2
  17   3 -12 1.45771 0.87476   3
 -16  -3  12 10.2058 1.02141   3
 -16   3  12 11.6181 1.09692   2
 -16   3  12 9.54809 1.12702   3
  16   3 -12 9.46485 1.10899   3
  16   3 -12 12.1293 1.12466   2
 -15  -3  12 8.59525 0.93111   3
 -15  -3  12 12.3562 1.48243   2
 -15   3  12 8.63738 0.97255   2
 -15   3  12 8.12735 1.00275   3
  15   3 -12 8.79877 0.88426   2
  15   3 -12 7.79235 0.95303   3
  14  -3 -12 14.8796 1.14237   2
 -14  -3  12 17.2399 1.32026   3
  14  -3 -12 13.1652 1.19846   3
  14   3 -12 15.5881 1.17928   2
  14   3 -12 15.4881 1.31183   3
 -14   3  12 15.9587 1.30886   2
  13  -3 -12 191.278 11.5352   3
 -13  -3  12 186.346 11.2208   3
  13  -3 -12 185.319 10.7886   2
  13   3 -12 184.480 10.7566   2
 -13   3  12 194.980 11.7415   3
  13   3 -12 188.447 11.3413   3
  12  -3 -12 73.6258 4.35858   2
  12  -3 -12 76.5932 4.70324   3
 -12  -3  12 79.3711 4.85995   3
 -12   3  12 77.8683 4.78904   3
  12   3 -12 72.2656 4.29567   2
  12   3 -12 73.0649 4.48143   3
  11  -3 -12 95.4632 5.81942   3
 -11  -3  12 99.9280 6.06848   3
  11  -3 -12 95.5080 5.60061   2
 -11   3  12 99.3572 6.06135   3
  11   3 -12 99.4854 6.02515   3
 -11   3  12 99.5963 5.84863   2
  10  -3 -12 121.429 7.36853   3
  10  -3 -12 133.048 7.75779   2
 -10  -3  12 129.034 7.77952   3
  10   3 -12 112.742 6.61842   2
 -10   3  12 131.493 7.68820   2
  10   3 -12 119.076 7.18790   3
 -10   3  12 124.661 7.54887   3
   9  -3 -12 47.0549 2.78368   2
  -9  -3  12 51.7954 3.19411   3
  -9  -3  12 44.6986 2.86136   2
  -9   3  12 56.0401 3.47216   3
   9   3 -12 55.5222 3.31029   2
   8  -3 -12 117.129 7.14202   3
  -8  -3  12 103.951 6.29549   3
   8   3 -12 104.032 6.27555   3
  -8   3  12 108.665 6.60145   3
   8   3 -12 102.737 6.00375   2
  -7  -3  12 8.80767 0.70293   2
   7  -3 -12 10.6949 1.03781   3
   7   3 -12 7.95765 0.72188   3
  -7   3  12 7.12880 0.80789   3
   7   3 -12 8.44491 0.72899   2
  -6  -3  12 0.93111 0.47472   3
  -6  -3  12 1.42523 0.45879   2
   6   3 -12 0.96800 0.46684   2
  -6   3  12 1.29388 0.62633   3
  -6   3  12 0.91872 0.11345   1
   6   3 -12 0.63205 0.47185   3
   5  -3 -12 85.3962 5.21174   3
  -5  -3  12 65.2489 3.98017   3
   5  -3 -12 71.8941 6.69951   1
   5   3 -12 68.7181 6.39967   1
   5   3 -12 76.7860 4.54383   2
   5   3 -12 68.4862 4.16724   3
  -5   3  12 79.1017 7.36622   1
   4  -3 -12 27.9732 2.60631   1
  -4  -3  12 23.0661 2.15632   1
  -4  -3  12 22.9069 1.45729   2
   4  -3 -12 27.5809 1.83159   3
   4   3 -12 21.2686 1.98239   1
  -4   3  12 31.2326 2.90512   1
   4   3 -12 21.8369 1.42956   2
  -3  -3  12 10.2674 0.81946   3
   3  -3 -12 10.0132 0.93010   1
  -3  -3  12 9.34404 0.88247   1
  -3  -3  12 7.40550 0.62993   2
   3   3 -12 8.68780 0.72625   3
  -3   3  12 7.30447 0.67996   1
   3   3 -12 10.1141 0.79506   2
   3   3 -12 8.24609 0.77271   1
  -2  -3  12 333.553 19.3084   2
   2   3 -12 365.279 21.8600   3
   2   3 -12 340.672 19.7209   2
  -1  -3  12 133.543 8.03070   3
  -1  -3  12 136.446 7.93969   2
   1   3 -12 136.878 7.97596   2
   1   3 -12 137.795 8.27754   3
   0  -3  12 111.950 6.74937   3
   0  -3  12 123.940 7.23859   2
   0   3 -12 125.546 7.54124   3
   0   3 -12 120.257 7.02769   2
   1  -3  12 164.904 9.90830   3
   1  -3  12 185.516 10.7904   2
  -1   3 -12 181.727 10.5725   2
   2  -3  12 48.0838 2.88147   2
  -2   3 -12 46.6932 2.80937   2
  -2   3 -12 47.2226 2.88702   3
   3  -3  12 63.1804 3.84659   3
   3  -3  12 70.8790 4.20339   2
  -3   3 -12 67.9595 4.04377   2
  -3   3 -12 60.0506 3.66129   3
   4  -3  12 30.4539 1.91147   2
  -4   3 -12 28.8170 1.81986   2
   5  -3  12 4.31298 0.59982   2
  -5   3 -12 2.89602 0.55161   2
   6  -3  12 12.9225 0.94540   2
  -6   3 -12 12.2155 0.93392   2
   7  -3  12 9.39813 0.79966   2
  -7   3 -12 9.54960 0.86407   2
   8  -3  12 33.9802 2.10724   2
  -8   3 -12 31.2953 1.98374   2
   9  -3  12 32.2046 2.00872   2
  10  -3  12 29.1911 1.84923   2
 -11   3 -12 27.1252 1.78904   2
 -12   3 -12 17.0086 1.28212   2
  13  -3  12 13.3425 1.07276   2
 -13   3 -12 12.1754 1.11038   2
  20  -4 -12 6.25724 0.98757   3
 -20   4  12 5.93710 0.87647   3
  19  -4 -12 12.5899 1.21357   3
 -19  -4  12 10.1513 1.04493   3
  19   4 -12 8.85675 1.08947   3
 -19   4  12 10.6118 1.05956   3
  18  -4 -12 6.79904 0.98453   3
 -18  -4  12 8.61070 0.96221   3
 -18   4  12 6.89757 0.92325   3
  18   4 -12 6.49585 0.87301   2
  17  -4 -12 33.8684 2.19677   2
 -17  -4  12 33.7844 2.26985   3
 -17   4  12 35.6489 2.33255   2
  17   4 -12 35.0072 2.27792   2
  17   4 -12 31.6016 2.17093   3
 -17   4  12 33.5755 2.21743   3
  16  -4 -12 70.7191 4.41536   3
 -16  -4  12 71.7381 4.46082   3
  16  -4 -12 72.0447 4.33262   2
 -16   4  12 78.6986 4.72271   2
  16   4 -12 74.5004 4.47267   2
  16   4 -12 74.8702 4.62244   3
 -15  -4  12 17.5832 1.36284   3
  15  -4 -12 18.1968 1.47160   3
  15  -4 -12 17.1521 1.32742   2
 -15   4  12 20.4496 1.53769   2
 -15   4  12 13.7437 1.11879   3
  15   4 -12 18.4097 1.43420   3
  14  -4 -12 20.5936 1.46509   2
 -14  -4  12 22.8470 1.63419   3
 -14  -4  12 15.7601 1.67914   2
  14  -4 -12 19.9963 1.52285   3
 -14   4  12 21.9083 1.63525   3
 -14   4  12 20.1340 1.57040   2
  14   4 -12 22.7100 1.55879   2
  14   4 -12 23.8538 1.68865   3
 -13  -4  12 8.45251 0.93335   3
 -13  -4  12 12.5938 1.56287   2
  13  -4 -12 9.26873 1.05541   3
  13   4 -12 10.1963 1.00355   3
 -13   4  12 9.78620 1.06000   3
  13   4 -12 9.43508 0.90431   2
 -12  -4  12 7.56201 0.89679   3
  12  -4 -12 9.64945 1.09063   3
  12   4 -12 7.42015 0.87793   3
 -12   4  12 6.82669 0.95000   3
  12   4 -12 8.36571 0.88580   2
  11  -4 -12 7.74299 0.96212   3
 -11  -4  12 6.56623 0.73097   3
 -11   4  12 7.09492 0.94388   3
  11   4 -12 9.53695 0.96141   2
  11   4 -12 6.72087 0.75547   3
 -10  -4  12 36.6311 2.33780   3
  10  -4 -12 36.5523 2.40690   3
 -10   4  12 36.7783 2.40518   3
  10   4 -12 36.8546 2.34398   3
  10   4 -12 43.4579 2.68591   2
   9  -4 -12 28.8971 1.97404   3
  -9  -4  12 27.6116 1.81816   3
  -9  -4  12 28.3723 1.79478   2
   9   4 -12 27.7656 1.80256   3
   9   4 -12 29.1542 1.87148   2
  -9   4  12 26.8965 1.85550   3
  -8  -4  12 88.1905 5.18998   2
   8  -4 -12 100.127 6.13030   3
  -8  -4  12 81.5440 4.96959   3
  -8   4  12 85.4810 5.23040   3
   8   4 -12 79.9061 4.72935   2
  -7  -4  12 56.7150 3.35322   2
  -7  -4  12 52.1840 3.23501   3
   7   4 -12 58.6011 3.48965   2
   7   4 -12 57.6546 3.54472   3
  -7   4  12 66.3551 4.11437   3
   6  -4 -12 40.9565 2.59064   3
  -6  -4  12 36.6005 2.22328   2
   6   4 -12 36.1286 2.20954   2
   6   4 -12 38.4205 2.40311   3
  -5  -4  12 283.686 17.0116   3
  -5  -4  12 290.078 16.8160   2
   5   4 -12 284.502 17.0326   3
   5   4 -12 261.169 15.1439   2
  -4  -4  12 114.214 6.66613   2
  -4  -4  12 108.807 6.57250   3
   4  -4 -12 99.1302 6.00433   3
   4   4 -12 116.978 7.06667   3
  -3  -4  12 40.7243 2.52086   3
  -3  -4  12 42.2202 2.55147   2
   3   4 -12 43.6500 2.68689   3
  -2  -4  12 22.4378 1.44436   3
   2   4 -12 22.7926 1.47160   3
   2   4 -12 22.5033 1.45360   2
  -1  -4  12 14.6423 1.05705   3
   1   4 -12 13.2189 0.95448   3
   1   4 -12 13.8844 0.99915   2
   0  -4  12 18.9431 1.24754   2
   0  -4  12 20.0810 1.34597   3
   0   4 -12 20.6730 1.37724   3
   0   4 -12 20.9199 1.37366   2
   1  -4  12 18.1579 1.21476   2
   1  -4  12 21.4501 1.41815   3
  -1   4 -12 21.3084 1.40350   3
  -1   4 -12 19.9681 1.31725   2
   2  -4  12 38.3269 2.32409   2
   2  -4  12 41.2468 2.55750   3
  -2   4 -12 43.8556 2.67161   2
   3  -4  12 47.9131 2.88342   2
  -3   4 -12 47.6382 2.87444   2
  -3   4 -12 47.9372 2.94700   3
   4  -4  12 49.5144 3.05702   3
   4  -4  12 52.2680 3.15997   2
  -4   4 -12 57.7825 3.55182   3
  -4   4 -12 53.0890 3.21725   2
   5  -4  12 37.4143 2.36638   3
   5  -4  12 40.5617 2.48154   2
  -5   4 -12 40.1112 2.46997   2
  -5   4 -12 39.2814 2.46930   3
   6  -4  12 52.8877 3.18230   2
  -6   4 -12 45.5499 2.84351   3
  -6   4 -12 54.6381 3.30350   2
   7  -4  12 53.8947 3.23297   2
  -7   4 -12 55.0499 3.31425   2
   8  -4  12 21.7057 1.44695   2
  -8   4 -12 22.9041 1.49823   2
   9  -4  12 7.72098 0.76218   2
  -9   4 -12 8.37573 0.82681   2
  10  -4  12 4.64407 0.63905   2
 -10   4 -12 4.68295 0.72297   2
  11  -4  12 -0.5658 0.54317   2
 -11   4 -12 -0.5581 0.61615   2
  12  -4  12 0.29985 0.55802   2
 -12   4 -12 -0.1108 0.63824   2
 -18   5  12 -0.6559 0.77309   3
  18   5 -12 0.42192 0.90104   3
 -17  -5  12 -0.2044 0.75893   3
  17  -5 -12 0.52739 0.82886   3
  17   5 -12 0.04993 0.79648   3
 -16  -5  12 0.25938 0.68487   3
  16  -5 -12 0.17494 0.79735   3
 -16   5  12 -0.1498 0.87906   3
  15  -5 -12 0.74046 0.81462   3
 -15   5  12 0.25279 0.88994   3
  15   5 -12 0.07517 0.77188   3
  15   5 -12 0.90782 0.80451   2
  14  -5 -12 0.79704 0.87687   3
 -14  -5  12 -0.3773 0.77483   3
  14   5 -12 0.74911 0.76920   3
  14   5 -12 1.20402 0.84768   2
 -14   5  12 2.20235 0.86334   3
 -13  -5  12 1.92219 0.78630   3
  13  -5 -12 3.50959 0.86408   3
  13   5 -12 2.79809 0.77634   3
 -13   5  12 3.40275 0.83817   3
 -11  -5  12 21.7767 1.51404   3
  11  -5 -12 25.4085 1.77548   3
 -11   5  12 23.5282 1.69190   3
  11   5 -12 22.7431 1.56280   3
  11   5 -12 24.3372 1.66204   2
 -10  -5  12 0.15058 0.69391   2
  10  -5 -12 1.27361 0.71380   3
 -10  -5  12 -0.6914 0.63387   3
  10   5 -12 0.92996 0.62384   3
  10   5 -12 0.24933 0.65283   2
 -10   5  12 -0.5040 0.79208   3
   9  -5 -12 1.38077 0.81017   3
  -9  -5  12 0.89858 0.62596   2
  -9  -5  12 0.88961 0.59678   3
   9   5 -12 0.87965 0.68407   2
   9   5 -12 1.76681 0.63972   3
  -9   5  12 -0.3764 0.77639   3
  -8  -5  12 81.4836 4.97295   3
  -8  -5  12 83.0727 4.92114   2
   8   5 -12 80.3405 4.89981   3
   8   5 -12 81.6485 4.84110   2
  -8   5  12 89.2134 5.49566   3
  -7  -5  12 0.45170 0.59473   2
  -7  -5  12 0.19046 0.65188   3
   7  -5 -12 1.23952 0.73234   3
   7   5 -12 0.96830 0.63746   2
  -7   5  12 0.69147 0.76072   3
   6  -5 -12 0.53217 0.63639   3
  -6  -5  12 0.98820 0.59296   2
  -6  -5  12 1.40336 0.60310   3
   6   5 -12 0.95299 0.53641   3
  -6   5  12 0.56017 0.71899   3
   5  -5 -12 4.43237 0.70042   3
  -5  -5  12 5.91798 0.73597   2
   5   5 -12 4.84627 0.61637   3
  -5   5  12 5.60672 0.76508   3
   5   5 -12 5.23425 0.69603   2
  -4  -5  12 0.08561 0.54248   2
  -4  -5  12 0.50125 0.43657   3
   4  -5 -12 1.14703 0.66807   3
   4   5 -12 1.40803 0.58296   2
   4   5 -12 0.48594 0.46779   3
  -3  -5  12 -0.1086 0.50189   3
  -3  -5  12 -0.5505 0.55815   2
   3   5 -12 -0.4074 0.49538   3
   3   5 -12 0.59616 0.55963   2
  -2  -5  12 7.49695 0.69824   3
  -2  -5  12 7.77851 0.78325   2
   2   5 -12 7.96649 0.72054   3
   2   5 -12 8.01934 0.85283   2
  -1  -5  12 7.44469 0.75160   3
  -1  -5  12 6.64547 0.71819   2
   1   5 -12 7.76341 0.80134   2
   1   5 -12 6.78947 0.65315   3
   0  -5  12 5.86086 0.71108   2
   0  -5  12 6.37013 0.67933   3
   0   5 -12 5.86864 0.69879   2
   0   5 -12 6.41755 0.64901   3
   1  -5  12 3.95943 0.68297   2
   1  -5  12 3.49964 0.57891   3
  -1   5 -12 3.10051 0.59000   3
  -1   5 -12 3.31301 0.72076   2
   2  -5  12 3.86146 0.59990   3
   2  -5  12 4.47916 0.62736   2
  -2   5 -12 3.52646 0.55440   3
  -2   5 -12 3.61243 0.61879   2
   3  -5  12 13.3641 1.03334   3
   3  -5  12 15.1724 1.12154   2
  -3   5 -12 13.2814 1.01061   3
  -3   5 -12 13.4337 1.04758   2
   4  -5  12 8.79494 0.74697   2
   4  -5  12 9.13311 0.84431   3
  -4   5 -12 9.26382 0.83309   3
   5  -5  12 8.49637 0.80597   3
   5  -5  12 9.03531 0.82088   2
   6  -5  12 -0.1297 0.66607   3
  -6   5 -12 0.46289 0.61748   2
  -6   5 -12 0.32098 0.58855   3
  -7   5 -12 0.47378 0.54583   2
   8  -5  12 0.76659 0.55199   2
  -8   5 -12 1.25020 0.61348   2
   9  -5  12 -0.1908 0.57713   2
  -9   5 -12 0.44366 0.61873   2
  10  -5  12 5.40452 0.69209   2
 -10   5 -12 5.68022 0.76240   2
 -15  -6  12 1.63057 0.73866   3
 -15   6  12 -0.6898 0.84025   3
  14  -6 -12 -0.7888 0.84146   3
  14   6 -12 -0.0243 0.61498   3
 -14   6  12 0.09868 0.84138   3
 -13  -6  12 1.59260 0.66995   3
  13  -6 -12 1.41815 0.85560   3
  13   6 -12 1.90984 0.69153   3
 -13   6  12 1.89598 0.84493   3
 -12  -6  12 0.36989 0.63584   3
  12  -6 -12 -0.3963 0.84634   3
  12   6 -12 -1.3135 0.68309   3
 -12   6  12 -0.3789 0.83365   3
  11  -6 -12 -0.2814 0.85126   3
 -11  -6  12 1.96426 0.71214   3
 -11   6  12 -1.0750 0.84840   3
  11   6 -12 -0.5792 0.71371   3
 -10  -6  12 0.98628 0.75751   2
 -10  -6  12 1.69889 0.63144   3
 -10   6  12 0.36198 0.82136   3
  10   6 -12 0.75248 0.62716   3
  10   6 -12 0.28058 0.70037   2
  -9  -6  12 17.4859 1.32637   2
   9  -6 -12 16.5065 1.34923   3
  -9  -6  12 16.3867 1.19849   3
   9   6 -12 18.1038 1.31431   3
  -8  -6  12 6.68236 0.74711   3
   8  -6 -12 4.71983 0.88617   3
  -8  -6  12 5.77625 0.80082   2
  -8   6  12 6.61112 0.99900   3
   8   6 -12 5.55367 0.80654   2
   8   6 -12 5.72356 0.72594   3
   7  -6 -12 1.93194 0.76619   3
  -7  -6  12 3.37938 0.71223   2
  -7  -6  12 2.13284 0.62259   3
   7   6 -12 2.28105 0.66294   3
  -7   6  12 2.28596 0.93055   3
   6  -6 -12 28.9527 1.94520   3
  -6  -6  12 32.6886 2.12480   3
  -6  -6  12 29.9949 1.94706   2
  -6   6  12 30.7605 2.09955   3
   5   6 -12 3.92320 0.60348   3
   5   6 -12 3.69178 0.60415   2
  -4  -6  12 4.22403 0.66066   3
   4   6 -12 3.98426 0.57998   3
   4   6 -12 4.31046 0.75995   2
  -3  -6  12 1.14263 0.53186   3
  -3  -6  12 1.54463 0.60192   2
   3   6 -12 1.80882 0.62518   2
   3   6 -12 1.39185 0.51044   3
  -2  -6  12 0.95435 0.52497   3
   2   6 -12 0.57961 0.49052   3
  -1  -6  12 1.92502 0.61457   2
   1   6 -12 0.94320 0.57049   2
   1   6 -12 0.35209 0.46000   3
   0  -6  12 3.57964 0.59833   3
   0  -6  12 3.67853 0.63305   2
   0   6 -12 3.43899 0.61365   3
   0   6 -12 3.26371 0.62228   2
   1  -6  12 1.62593 0.56365   3
   1  -6  12 2.91012 0.70303   2
  -1   6 -12 2.87396 0.72685   2
  -1   6 -12 2.66167 0.47561   3
   2  -6  12 5.95795 0.68889   3
   2  -6  12 6.21387 0.74653   2
  -2   6 -12 5.95439 0.73233   2
  -2   6 -12 4.16599 0.62302   3
   3  -6  12 2.02269 0.60697   3
   3  -6  12 2.83700 0.62534   2
  -3   6 -12 3.81320 0.69080   2
   4  -6  12 5.63516 0.75252   2
  -4   6 -12 4.40816 0.72959   2
  -4   6 -12 5.54553 0.72534   3
   6  -6  12 4.58383 0.69138   2
  -6   6 -12 3.89802 0.73501   2
   7  -6  12 3.38593 0.63195   2
  -7   6 -12 3.82687 0.72595   2
 -11  -7  12 6.35626 0.80819   3
  11   7 -12 7.20013 0.86943   3
 -10  -7  12 1.03722 0.57056   3
  10   7 -12 0.41701 0.61935   3
  -9  -7  12 3.25997 0.66083   3
   9   7 -12 5.26489 0.72987   3
  -8  -7  12 7.43584 0.76360   3
   8   7 -12 6.59366 0.75163   3
  -7  -7  12 1.37820 0.53653   3
   7   7 -12 1.17233 0.56569   3
  -6  -7  12 5.91694 0.72354   3
   6   7 -12 5.10673 0.69953   3
  -5  -7  12 0.36399 0.51822   3
   4   7 -12 0.43830 0.50630   3
  -3  -7  12 6.25917 0.63936   3
   3   7 -12 7.46440 0.73360   3
  -2  -7  12 6.31437 0.69503   3
   2   7 -12 6.26988 0.65615   3
  -1  -7  12 14.4708 1.11067   3
   1   7 -12 13.4565 1.04092   3
   0  -7  12 14.3512 1.05704   3
   0   7 -12 14.2325 1.07501   3
   1  -7  12 8.14175 0.78488   3
  -1   7 -12 7.72601 0.69849   3
   2  -7  12 5.90004 0.65956   3
 -23   0  13 0.10468 1.11556   2
  22   0 -13 0.18355 0.68724   2
  22   0 -13 1.73750 0.85244   3
  21   0 -13 0.51314 0.76981   3
 -21   0  13 0.17367 0.79156   3
  21   0 -13 -0.2984 0.60829   2
  20   0 -13 0.22938 0.66066   2
  20   0 -13 -1.1198 0.80343   3
 -20   0  13 -0.2067 0.76765   3
 -19   0  13 -0.7792 0.80008   3
  19   0 -13 -1.6842 0.84467   3
  19   0 -13 0.34383 0.63379   2
 -18   0  13 -0.0517 0.79627   3
  18   0 -13 -0.1968 0.81174   3
  18   0 -13 0.06877 0.63385   2
 -17   0  13 -0.9002 0.82060   3
  17   0 -13 0.25244 0.60810   2
  17   0 -13 -0.2250 0.87996   3
 -15   0  13 -0.4216 0.70939   3
  14   0 -13 0.29301 0.67158   3
 -14   0  13 0.22156 0.62291   3
 -14   0  13 1.06969 0.90172   2
 -13   0  13 -0.2150 0.95987   2
 -13   0  13 -0.4695 0.67969   3
 -12   0  13 -0.9222 0.81241   2
  12   0 -13 -0.5144 0.48954   2
  12   0 -13 -0.2225 0.65287   3
  11   0 -13 -0.8200 0.57408   3
  11   0 -13 0.04418 0.48352   2
 -11   0  13 0.12459 0.57567   3
 -10   0  13 -0.0522 0.10356   1
  10   0 -13 0.34769 0.10339   1
  10   0 -13 -0.3962 0.12034   1
 -10   0  13 0.10359 0.12322   1
  10   0 -13 -0.4255 0.49016   2
   9   0 -13 -0.7260 0.59903   3
  -9   0  13 0.35892 0.11454   1
  -9   0  13 0.34057 0.51879   3
  -9   0  13 0.21934 0.10436   1
   9   0 -13 0.25201 0.10991   1
   9   0 -13 0.40356 0.46493   2
   8   0 -13 0.53932 0.12622   1
  -8   0  13 0.60457 0.52054   3
   8   0 -13 0.48707 0.56405   3
   8   0 -13 0.42347 0.43651   2
   8   0 -13 0.70123 0.11191   1
  -8   0  13 0.65097 0.12069   1
  -7   0  13 0.42516 0.41271   3
   7   0 -13 0.13272 0.48419   2
   7   0 -13 0.27853 0.10354   1
   7   0 -13 -0.0484 0.47906   3
  -7   0  13 -0.3570 0.85688   2
  -6   0  13 0.06097 0.09325   1
   6   0 -13 0.35907 0.10926   1
   6   0 -13 0.72602 0.43089   2
  -6   0  13 0.56518 0.37848   3
   6   0 -13 -0.1440 0.39597   3
  -6   0  13 1.08398 0.74929   2
  -6   0  13 0.25179 0.07729   1
   5   0 -13 0.33864 0.10071   1
   5   0 -13 0.04851 0.40024   3
  -5   0  13 0.41895 0.40668   3
   5   0 -13 0.04467 0.38594   2
  -4   0  13 0.33452 0.09184   1
   4   0 -13 0.59658 0.09857   1
  -4   0  13 0.18688 0.33491   2
   4   0 -13 0.19476 0.34819   3
   4   0 -13 0.11130 0.33339   2
   4   0 -13 0.58220 0.10185   1
   3   0 -13 -0.0601 0.09198   1
  -3   0  13 -0.0418 0.36149   2
   3   0 -13 0.02170 0.35000   2
  -3   0  13 0.15956 0.07991   1
  -3   0  13 0.05904 0.09028   1
  -2   0  13 0.17447 0.32663   2
   2   0 -13 0.00000 0.39324   2
  -1   0  13 -0.0418 0.28860   2
   1   0 -13 -0.2603 0.37488   2
  -1   0  13 -0.1698 0.07693   1
   0   0  13 0.08901 0.06737   1
   0   0  13 -0.0715 0.43934   2
   0   0 -13 -0.3326 0.41056   2
   1   0  13 -0.2459 0.38637   2
  -1   0 -13 -0.6009 0.38461   2
  -1   0 -13 -0.2900 0.09583   1
   2   0  13 0.28815 0.41496   2
  -2   0 -13 0.79810 0.48678   2
   3   0  13 -0.2662 0.41815   2
  -3   0 -13 -0.5227 0.46531   2
  -4   0 -13 -0.5349 0.42013   2
   4   0  13 -0.4766 0.43351   2
   5   0  13 0.51359 0.53534   2
   6   0  13 0.53764 0.50678   2
  -7   0 -13 0.83635 0.63318   2
  -8   0 -13 0.21744 0.66803   2
   8   0  13 0.24113 0.55560   2
   9   0  13 -0.0954 0.60479   2
  -9   0 -13 0.48522 0.71873   2
  10   0  13 0.14023 0.70006   2
 -10   0 -13 -0.1429 0.82317   2
  11   0  13 -0.2594 0.59776   2
 -11   0 -13 -1.1710 0.78695   2
 -22  -1  13 1.63189 0.81354   3
  22  -1 -13 3.27466 0.91413   3
  22   1 -13 2.67725 0.71973   2
 -22   1  13 1.56729 0.76638   3
 -21   1  13 0.46126 0.80125   3
  21   1 -13 -0.3121 0.84511   3
 -20  -1  13 1.63354 0.78631   3
 -20   1  13 7.59749 1.20428   2
  20   1 -13 1.44116 0.84565   3
  19   1 -13 -0.1728 0.81497   3
  18  -1 -13 31.7512 2.01123   2
  18  -1 -13 37.1103 2.42707   3
 -18  -1  13 37.1732 2.43496   3
  18   1 -13 36.6554 2.30026   2
 -18   1  13 35.5001 2.29773   3
  18   1 -13 38.5540 2.50613   3
  17  -1 -13 31.5441 1.98143   2
  17  -1 -13 33.4225 2.20988   3
 -17  -1  13 34.2857 2.26901   3
  17   1 -13 35.1378 2.33204   3
 -17   1  13 33.3815 2.19969   3
  17   1 -13 35.3718 2.20520   2
 -17   1  13 31.8629 2.17286   2
  16  -1 -13 23.9016 1.55126   2
 -16  -1  13 26.0436 1.81379   3
  16  -1 -13 24.5455 1.73932   3
 -16   1  13 21.4319 1.62293   2
  16   1 -13 28.0381 1.80658   2
 -16   1  13 26.2195 1.81174   3
  16   1 -13 25.9082 1.82205   3
 -15  -1  13 99.5488 6.03785   3
  15  -1 -13 93.5095 5.48428   2
  15   1 -13 91.8316 5.40558   2
 -15   1  13 95.9508 5.67819   2
 -15   1  13 99.1821 6.02166   3
  15   1 -13 98.6949 5.99557   3
  14  -1 -13 90.2658 5.53827   3
 -14  -1  13 94.5173 5.73905   3
  14  -1 -13 92.2020 5.40850   2
  14   1 -13 98.3907 5.77092   2
 -14   1  13 86.9796 5.33348   3
 -14   1  13 84.7016 5.03352   2
  14   1 -13 92.3260 5.63407   3
  13  -1 -13 50.2151 3.15870   3
  13  -1 -13 51.6293 3.08304   2
 -13  -1  13 49.6607 3.11661   3
  13   1 -13 46.8514 2.95382   3
  13   1 -13 53.3482 3.20951   2
  12  -1 -13 190.472 11.4578   3
  12  -1 -13 192.519 11.1981   2
 -12  -1  13 204.617 12.3024   3
  12   1 -13 179.418 10.4190   2
 -12   1  13 180.961 10.8801   3
  11  -1 -13 85.2791 5.01682   2
  11  -1 -13 79.0193 4.83459   3
 -11   1  13 71.5973 4.28447   2
  11   1 -13 84.3738 5.12386   3
  11   1 -13 83.3291 4.89934   2
 -11   1  13 72.6375 4.45446   3
 -10  -1  13 30.3651 2.83453   1
  10  -1 -13 33.8240 2.06180   2
 -10  -1  13 31.3234 2.01811   3
  10  -1 -13 26.1511 2.44681   1
 -10   1  13 27.1734 1.82236   2
 -10   1  13 30.5027 2.84858   1
  10   1 -13 30.8730 1.97970   3
  10   1 -13 29.9140 2.79065   1
 -10   1  13 26.2828 2.45137   1
  10   1 -13 29.7941 1.85417   2
  -9  -1  13 4.57177 0.44414   1
   9  -1 -13 3.91649 0.72289   3
   9  -1 -13 4.29976 0.54482   2
  -9  -1  13 3.83668 0.67549   3
  -9  -1  13 3.54833 0.35468   1
   9  -1 -13 3.15415 0.30854   1
   9  -1 -13 4.10940 0.39799   1
  -9   1  13 4.76597 0.69739   3
   9   1 -13 4.16067 0.40123   1
  -9   1  13 3.78356 0.37089   1
   9   1 -13 4.59631 0.57688   2
   9   1 -13 3.90796 0.37886   1
  -9   1  13 4.67683 0.45127   1
   9   1 -13 4.24693 0.69542   3
   8  -1 -13 15.6314 1.05191   2
  -8  -1  13 15.0587 1.09646   3
  -8  -1  13 14.7670 1.38224   1
  -8  -1  13 16.4850 1.54451   1
   8  -1 -13 12.7330 1.19447   1
   8  -1 -13 14.3236 1.34136   1
   8  -1 -13 15.8939 1.14471   3
  -8   1  13 15.4080 1.46047   2
  -8   1  13 15.4430 1.43906   1
  -8   1  13 16.0627 1.49889   1
   8   1 -13 16.3808 1.20828   3
  -8   1  13 14.6592 1.09143   3
   8   1 -13 19.4391 1.31386   2
   7  -1 -13 211.103 19.6526   1
   7  -1 -13 213.437 12.8139   3
   7  -1 -13 203.366 18.9318   1
  -7  -1  13 198.407 18.4725   1
   7  -1 -13 202.355 11.7408   2
  -7  -1  13 198.098 11.8968   3
  -7  -1  13 202.701 11.8047   2
  -7  -1  13 184.798 17.2113   1
  -7   1  13 209.293 19.4795   1
  -7   1  13 200.269 12.0104   3
  -7   1  13 194.504 18.1149   1
   7   1 -13 212.053 12.7356   3
  -6  -1  13 245.620 14.7230   3
   6  -1 -13 251.613 23.4243   1
   6  -1 -13 237.424 22.1158   1
   6  -1 -13 253.991 14.7086   2
   6  -1 -13 258.961 15.5157   3
   6   1 -13 238.149 22.1838   1
  -6   1  13 243.168 22.6368   1
   6   1 -13 249.282 14.9213   3
  -6   1  13 214.393 12.8588   3
  -6   1  13 246.477 22.9635   1
   6   1 -13 220.297 20.5272   1
   5  -1 -13 101.253 9.43207   1
   5  -1 -13 107.152 6.46251   3
   5  -1 -13 108.367 6.30987   2
  -5  -1  13 116.121 6.99159   3
  -5  -1  13 114.772 6.69225   2
   5  -1 -13 113.883 10.6096   1
  -5   1  13 122.518 11.4090   1
   5   1 -13 118.831 6.93915   2
   5   1 -13 109.349 10.1832   1
   5   1 -13 107.149 9.97778   1
  -5   1  13 110.729 10.3080   1
   5   1 -13 104.238 6.27259   3
  -4  -1  13 232.304 21.6400   1
   4  -1 -13 249.113 14.9167   3
  -4  -1  13 227.715 13.6528   3
  -4  -1  13 209.728 19.5304   1
   4  -1 -13 216.234 12.5271   2
  -4   1  13 209.775 19.5344   1
  -4   1  13 248.982 23.1742   1
   4   1 -13 214.163 12.4084   2
   4   1 -13 257.212 23.9473   1
  -4   1  13 212.116 12.2748   2
   4   1 -13 217.625 13.0389   3
   4   1 -13 217.411 20.2514   1
  -3  -1  13 201.294 18.7503   1
  -3  -1  13 219.652 20.4521   1
   3   1 -13 202.977 11.7756   2
  -3   1  13 179.593 16.7294   1
  -3   1  13 230.100 21.4220   1
   3   1 -13 204.707 19.0596   1
  -3   1  13 201.606 11.6753   2
   3   1 -13 206.749 19.2594   1
   2  -1 -13 196.886 18.3323   1
  -2  -1  13 192.505 17.9282   1
  -2  -1  13 191.430 17.8288   1
  -2  -1  13 180.519 10.4698   2
   2   1 -13 234.931 14.0500   3
   2   1 -13 189.395 17.6419   1
  -2   1  13 175.268 10.1710   2
   2   1 -13 206.224 11.9588   2
   2   1 -13 168.607 15.7016   1
  -1  -1  13 146.305 8.51096   2
  -1  -1  13 138.758 12.9260   1
   1  -1 -13 163.167 15.1902   1
  -1  -1  13 140.951 13.1301   1
   1  -1 -13 147.722 13.7561   1
   1  -1 -13 154.197 8.94837   2
   1   1 -13 131.373 12.2379   1
  -1   1  13 138.878 12.9306   1
   1   1 -13 138.677 12.9167   1
   1   1 -13 146.124 8.51119   2
   0  -1 -13 60.3401 5.62149   1
   0  -1  13 47.4743 4.42093   1
   0  -1  13 50.9332 4.74785   1
   0  -1 -13 52.4197 3.08316   2
   0  -1 -13 48.3963 4.50819   1
   0  -1  13 54.9322 3.25358   2
   0   1  13 55.5302 5.16857   1
   0   1  13 55.5614 5.17152   1
   0   1 -13 53.4664 4.98138   1
   0   1 -13 58.0541 5.41302   1
   0   1 -13 53.3371 3.16289   2
   1  -1  13 29.9998 1.84837   2
   1  -1  13 29.8136 2.77771   1
  -1  -1 -13 31.2793 2.91414   1
  -1  -1 -13 32.1560 1.95259   2
   1  -1  13 28.3989 2.65305   1
  -1  -1 -13 30.8393 2.87773   1
   1   1  13 30.5408 2.84901   1
  -1   1 -13 26.9137 2.50643   1
  -1   1 -13 29.6981 1.83123   2
  -1   1 -13 28.3369 2.64207   1
   1   1  13 27.9786 2.60611   1
   2  -1  13 0.58345 0.43019   2
   2  -1  13 -0.0239 0.08539   1
  -2  -1 -13 -0.0978 0.42247   2
  -2  -1 -13 0.26468 0.07871   1
   2   1  13 0.15612 0.08843   1
  -3  -1 -13 18.4505 1.21392   2
   3  -1  13 18.5763 1.24230   2
  -3   1 -13 17.5575 1.18995   2
   4  -1  13 18.0327 1.20703   2
  -4  -1 -13 16.5549 1.13851   2
  -4   1 -13 16.2097 1.12260   2
  -5  -1 -13 61.7300 3.67750   2
   5  -1  13 67.6590 4.01735   2
  -5   1 -13 60.6899 3.61009   2
   6  -1  13 120.184 7.03192   2
  -6  -1 -13 122.105 7.15883   2
  -6   1 -13 101.213 5.96866   2
   7  -1  13 77.9144 4.61470   2
  -7   1 -13 75.3446 4.47853   2
   8  -1  13 47.0071 2.84948   2
  -8   1 -13 48.8955 2.99531   2
   9  -1  13 40.1834 2.49017   2
  -9   1 -13 38.5517 2.42163   2
  10  -1  13 28.3846 1.82532   2
 -10   1 -13 27.2971 1.81848   2
  11  -1  13 8.73869 0.86425   2
 -12   1 -13 -0.8960 0.76061   2
  13  -1  13 0.33690 0.67277   2
  22  -2 -13 12.2117 1.18293   3
 -22   2  13 11.3701 1.12090   3
  22   2 -13 10.2904 1.12458   3
 -21  -2  13 40.0407 2.61142   3
  21  -2 -13 34.4745 2.20798   2
  21  -2 -13 40.6695 2.65426   3
  21   2 -13 44.0265 2.74933   2
 -21   2  13 39.2468 2.55627   3
  20  -2 -13 33.8917 2.27566   3
  20  -2 -13 32.7433 2.11787   2
 -20   2  13 33.4819 2.24786   3
  20   2 -13 31.8908 2.19600   3
  20   2 -13 36.2119 2.30230   2
  19  -2 -13 37.3404 2.34694   2
  19  -2 -13 37.9788 2.47564   3
 -19  -2  13 37.4251 2.46090   3
  19   2 -13 37.7188 2.50671   3
 -19   2  13 39.5370 2.58635   3
  18  -2 -13 35.8846 2.36210   3
 -18  -2  13 33.7580 2.24446   3
  18  -2 -13 34.1178 2.17094   2
  18   2 -13 34.3008 2.25745   3
 -18   2  13 33.5057 2.20242   3
  18   2 -13 36.0330 2.29533   2
  17  -2 -13 28.0661 1.82831   2
  17  -2 -13 30.7215 2.11462   3
 -17  -2  13 27.2758 1.88348   3
  17   2 -13 28.6314 1.95885   3
 -17   2  13 30.6220 2.09939   3
 -17   2  13 22.0464 1.64680   2
 -16  -2  13 31.9623 2.12862   3
 -16   2  13 32.2699 2.13022   3
  16   2 -13 30.3587 2.05874   3
  16   2 -13 34.7174 2.20810   2
 -16   2  13 28.1374 1.96188   2
  15  -2 -13 5.50023 0.95273   3
  15  -2 -13 6.31355 0.76456   2
 -15  -2  13 8.24104 0.94221   3
  15   2 -13 6.08280 0.70615   2
 -15   2  13 4.41879 0.92330   2
  15   2 -13 6.47788 0.87696   3
  14  -2 -13 29.5331 1.96987   3
  14  -2 -13 26.1148 1.70776   2
 -14  -2  13 27.0390 1.80550   3
  14   2 -13 27.3211 1.85445   3
  14   2 -13 28.9434 1.82758   2
 -13  -2  13 73.7717 4.51662   3
  13  -2 -13 69.9804 4.32722   3
  13  -2 -13 65.6786 3.89417   2
 -13   2  13 66.4068 4.09108   3
  13   2 -13 65.8923 4.05168   3
 -13   2  13 62.9848 3.76858   2
  13   2 -13 64.6819 3.88187   2
  12  -2 -13 19.5754 1.27782   2
  12  -2 -13 18.8373 1.37941   3
 -12  -2  13 17.0221 1.21644   3
 -12   2  13 19.8740 1.43399   3
  12   2 -13 18.6147 1.34786   3
 -12   2  13 20.6030 1.45721   2
  12   2 -13 19.6364 1.32029   2
  11  -2 -13 89.0406 5.23075   2
  11  -2 -13 80.6575 4.94960   3
 -11  -2  13 77.8960 4.75446   3
 -11   2  13 81.0041 4.94302   3
  11   2 -13 83.7851 4.93522   2
  10  -2 -13 260.236 15.6400   3
  10  -2 -13 265.367 15.3973   2
  10   2 -13 248.969 14.4512   2
 -10   2  13 240.075 13.9475   2
 -10   2  13 253.548 15.2246   3
  10   2 -13 262.661 15.7476   3
  -9  -2  13 270.570 16.2415   3
   9  -2 -13 247.976 14.9132   3
   9   2 -13 275.245 15.9566   2
   9   2 -13 290.102 17.3871   3
  -9   2  13 258.018 15.4683   3
  -8  -2  13 242.177 22.5596   1
  -8  -2  13 243.639 14.6173   3
   8  -2 -13 257.541 14.9157   2
   8  -2 -13 225.433 20.9932   1
   8  -2 -13 254.570 15.2682   3
   8   2 -13 243.377 14.5901   3
  -8   2  13 212.690 19.8158   1
  -8   2  13 274.298 16.4351   3
  -8   2  13 224.754 20.9389   1
   8   2 -13 236.760 13.7307   2
   8   2 -13 234.206 21.8067   1
  -7  -2  13 117.078 10.9098   1
  -7  -2  13 124.658 7.51350   3
   7  -2 -13 125.666 11.7009   1
   7  -2 -13 134.087 8.10209   3
   7  -2 -13 130.696 7.59409   2
  -7  -2  13 122.912 11.4520   1
   7  -2 -13 112.658 10.4933   1
   7   2 -13 119.250 11.1050   1
  -7   2  13 138.074 12.8553   1
  -7   2  13 101.336 9.44274   1
   7   2 -13 126.998 11.8301   1
   7   2 -13 126.557 7.62333   3
   7   2 -13 125.526 7.30780   2
  -6  -2  13 122.810 7.40095   3
  -6  -2  13 117.207 10.9187   1
  -6  -2  13 120.633 7.02586   2
   6  -2 -13 119.416 11.1201   1
   6  -2 -13 132.444 7.69580   2
   6  -2 -13 129.428 12.0471   1
  -6  -2  13 118.612 11.0519   1
  -6   2  13 123.706 11.5197   1
   6   2 -13 117.498 6.85632   2
  -6   2  13 129.776 12.0882   1
   6   2 -13 112.659 10.4956   1
   6   2 -13 117.175 10.9100   1
   6   2 -13 116.411 7.00514   3
   5  -2 -13 195.734 11.3486   2
  -5  -2  13 213.424 19.8748   1
   5  -2 -13 203.622 18.9728   1
   5  -2 -13 214.214 19.9535   1
  -5  -2  13 214.174 12.8503   3
   5  -2 -13 208.586 12.5354   3
  -5  -2  13 206.409 19.2250   1
  -5  -2  13 213.893 12.4128   2
   5   2 -13 199.742 18.5981   1
  -5   2  13 250.407 23.3053   1
   5   2 -13 227.858 13.2037   2
   5   2 -13 205.572 19.1435   1
  -5   2  13 202.568 18.8618   1
   5   2 -13 217.412 13.0456   3
   4  -2 -13 12.3408 0.91441   3
   4  -2 -13 12.1230 1.13625   1
  -4  -2  13 16.6364 1.10356   2
  -4  -2  13 14.3095 1.33899   1
   4  -2 -13 15.4828 1.44379   1
  -4  -2  13 15.3248 1.04543   3
  -4  -2  13 13.6187 1.27883   1
   4   2 -13 14.2957 1.33982   1
   4   2 -13 16.2279 1.09321   3
   4   2 -13 14.0050 1.31193   1
  -4   2  13 14.3894 1.34571   1
   4   2 -13 15.4403 1.04455   2
  -4   2  13 15.2195 1.41933   1
  -3  -2  13 19.5724 1.83021   1
  -3  -2  13 18.8706 1.76148   1
  -3  -2  13 22.5892 1.46952   3
  -3  -2  13 19.3810 1.24953   2
   3  -2 -13 20.9916 1.95503   1
   3  -2 -13 20.4268 1.90696   1
   3   2 -13 18.3338 1.71148   1
   3   2 -13 18.9312 1.76936   1
   3   2 -13 19.3415 1.26586   2
   3   2 -13 24.7733 1.60476   3
  -3   2  13 18.2089 1.70405   1
  -2  -2  13 28.1705 1.74072   2
   2  -2 -13 25.6799 2.38969   1
  -2  -2  13 32.9631 2.05387   3
  -2  -2  13 28.2503 2.63582   1
  -2  -2  13 29.8566 2.78399   1
   2  -2 -13 38.6238 3.60101   1
  -2   2  13 28.5964 2.66830   1
   2   2 -13 28.2521 1.73573   2
   2   2 -13 26.4414 2.46566   1
   2   2 -13 28.2153 2.63502   1
  -1  -2  13 184.653 17.1922   1
  -1  -2  13 171.306 9.94927   2
   1  -2 -13 168.363 15.6764   1
  -1  -2  13 193.374 18.0088   1
   1  -2 -13 259.801 24.1723   1
  -1   2  13 172.696 16.0870   1
   1   2 -13 180.595 10.8282   3
   1   2 -13 185.115 10.7481   2
   0  -2  13 129.622 12.0758   1
   0  -2  13 162.837 9.46346   2
   0  -2 -13 185.675 17.2873   1
   0  -2 -13 146.204 13.6141   1
   0   2 -13 155.926 9.35259   3
   0   2  13 163.311 15.2055   1
   0   2  13 132.088 12.3073   1
   0   2 -13 158.378 9.20974   2
   1  -2  13 127.533 7.44092   2
   1   2  13 106.021 9.87371   1
   1   2  13 114.025 10.6158   1
  -1   2 -13 120.785 7.25294   3
   2  -2  13 283.527 16.4319   2
  -3   2 -13 188.590 10.9621   2
  -4   2 -13 63.4850 3.77838   2
   5  -2  13 44.2605 2.68378   2
  -5   2 -13 44.2675 2.68289   2
   6  -2  13 44.3835 2.68977   2
  -6   2 -13 43.4376 2.64125   2
   7  -2  13 11.7160 0.96106   2
  -7   2 -13 11.3839 0.95320   2
   8  -2  13 1.38061 0.63076   2
  -8   2 -13 1.48039 0.63958   2
   9  -2  13 4.15805 0.65711   2
  -9   2 -13 3.85016 0.69488   2
  10  -2  13 9.07731 0.86096   2
 -10   2 -13 10.5901 0.97018   2
  11  -2  13 34.1138 2.16333   2
 -11   2 -13 33.9477 2.14777   2
  12  -2  13 33.4788 2.12961   2
 -12   2 -13 31.6341 2.06055   2
  13  -2  13 14.2409 1.10211   2
 -13   2 -13 14.7970 1.20347   2
  21  -3 -13 0.71252 0.86497   3
 -21  -3  13 -0.8078 0.71670   3
 -21   3  13 0.57187 0.79327   3
  21   3 -13 0.07498 0.82484   3
 -19   3  13 4.37979 1.08129   2
  19   3 -13 2.07686 0.81810   3
  18  -3 -13 2.18569 0.89475   3
 -18  -3  13 0.86903 0.74695   3
  18   3 -13 3.17027 0.83702   2
 -18   3  13 0.53702 0.77882   3
 -18   3  13 2.12362 0.95289   2
  18   3 -13 2.48654 0.82640   3
 -17  -3  13 4.70819 0.83855   3
 -17  -3  13 3.32188 1.31028   2
  17   3 -13 7.04960 0.85375   2
  17   3 -13 5.02530 0.88821   3
 -17   3  13 5.41374 0.88554   3
  16  -3 -13 20.0328 1.53268   3
  16  -3 -13 20.5983 1.44011   2
 -16  -3  13 22.4780 1.60865   3
  16   3 -13 20.8425 1.54567   3
  15  -3 -13 -0.1123 0.62103   2
  15  -3 -13 0.23419 0.80155   3
 -15  -3  13 1.08948 0.76008   3
 -15   3  13 0.28561 0.73317   3
  15   3 -13 0.66107 0.63029   2
  15   3 -13 0.82610 0.73843   3
  14  -3 -13 17.0948 1.37596   3
  14  -3 -13 15.4397 1.15587   2
 -14  -3  13 16.2986 1.29861   3
  14   3 -13 19.0167 1.35619   2
  14   3 -13 16.4691 1.33397   3
 -14   3  13 16.7892 1.29986   3
  13  -3 -13 82.4459 5.07617   3
 -13  -3  13 81.6984 5.01393   3
  13  -3 -13 78.9018 4.66598   2
 -13   3  13 80.9610 4.95179   3
  13   3 -13 81.1604 4.98267   3
 -13   3  13 75.1116 4.50085   2
  12  -3 -13 24.1759 1.57863   2
  12  -3 -13 26.6942 1.83184   3
 -12  -3  13 21.2834 1.48137   3
 -12   3  13 21.2279 1.65135   2
 -12   3  13 24.1293 1.66613   3
  12   3 -13 21.7747 1.50812   3
  11  -3 -13 16.0643 1.36067   3
  11  -3 -13 14.8766 1.05462   2
 -11  -3  13 15.6193 1.19204   3
 -11   3  13 17.5065 1.34028   3
  11   3 -13 16.4870 1.20344   3
 -11   3  13 15.1277 1.18695   2
  11   3 -13 17.0418 1.16672   2
 -11   3  13 17.0823 1.24711   3
   9  -3 -13 0.77321 0.76264   3
  -9   3  13 -0.0804 0.73690   3
   9   3 -13 -0.3922 0.55834   3
   9   3 -13 0.42625 0.49107   2
  -8  -3  13 0.81499 0.52743   3
   8  -3 -13 0.13542 0.74492   3
   8   3 -13 1.09414 0.52664   3
   8   3 -13 1.12113 0.49678   2
  -8   3  13 0.66968 0.70729   3
  -7  -3  13 15.8703 1.11961   3
  -7  -3  13 15.1596 1.02884   2
   7   3 -13 15.1816 1.09662   3
  -7   3  13 15.7769 1.21153   3
   7   3 -13 16.7171 1.14340   2
   6  -3 -13 62.6490 3.88629   3
  -6  -3  13 51.3080 3.16373   3
  -6  -3  13 49.6644 2.95934   2
   6   3 -13 54.2871 3.34135   3
   6   3 -13 53.5103 3.20376   2
  -6   3  13 49.4976 3.08689   3
  -5  -3  13 40.5359 2.54066   3
  -5  -3  13 38.1659 2.31758   2
   5  -3 -13 52.4271 3.28858   3
   5   3 -13 37.6896 2.30795   2
   5   3 -13 46.1049 2.84785   3
  -4  -3  13 34.2058 2.17750   3
  -4  -3  13 34.0530 2.08019   2
   4   3 -13 34.3510 2.14711   3
   4   3 -13 32.1594 1.98983   2
  -3  -3  13 17.0566 1.14582   2
   3   3 -13 17.5090 1.17870   2
  -2  -3  13 44.5612 2.67302   2
   2   3 -13 50.7940 3.12130   3
   2   3 -13 46.8446 2.82607   2
  -1  -3  13 49.1554 3.00988   3
  -1  -3  13 51.3195 3.06527   2
   1   3 -13 54.6229 3.25045   2
   0  -3  13 36.0872 2.21753   2
   0   3 -13 35.4244 2.17053   2
   0   3 -13 34.1785 2.13201   3
   1  -3  13 21.0371 1.36481   2
  -1   3 -13 22.1148 1.44255   2
  -1   3 -13 20.2151 1.33266   3
   2  -3  13 1.42746 0.38072   3
   2  -3  13 0.47749 0.44009   2
  -2   3 -13 0.89024 0.47124   2
  -2   3 -13 0.87800 0.33809   3
   3  -3  13 9.03518 0.75241   2
  -3   3 -13 8.53071 0.76096   2
   4  -3  13 1.33875 0.47673   2
  -4   3 -13 0.54990 0.52336   2
   5  -3  13 29.2664 1.83947   2
  -5   3 -13 30.1387 1.88875   2
   6  -3  13 19.2178 1.31054   2
  -6   3 -13 17.8031 1.23341   2
   7  -3  13 14.8601 1.07468   2
  -7   3 -13 14.6423 1.11467   2
   8  -3  13 22.0192 1.47143   2
   9  -3  13 12.8458 1.00760   2
  -9   3 -13 13.0710 1.06708   2
 -10   3 -13 4.32725 0.66488   2
  11  -3  13 1.73737 0.59511   2
 -11   3 -13 3.02971 0.69280   2
  12  -3  13 4.43448 0.72619   2
 -12   3 -13 5.34964 0.82193   2
  13  -3  13 -0.0907 0.67946   2
 -19  -4  13 1.75060 0.66116   3
 -19   4  13 1.11744 0.75855   3
 -18   4  13 5.67970 0.93744   3
  18   4 -13 4.38302 0.81125   2
  18   4 -13 4.92733 0.92226   3
 -17  -4  13 1.72148 0.77481   3
  17  -4 -13 2.48373 0.88240   3
  17   4 -13 1.73132 0.84035   3
  17   4 -13 2.55240 0.76713   2
  16  -4 -13 0.70326 0.77369   3
 -16  -4  13 1.13865 0.76870   3
  16   4 -13 0.52575 0.83284   2
  16   4 -13 0.12549 0.82836   3
 -16   4  13 1.63812 0.74208   3
  15  -4 -13 8.11958 1.03126   3
 -15  -4  13 10.9559 1.04010   3
 -15   4  13 9.18857 0.92200   3
  15   4 -13 9.51432 0.87754   2
  15   4 -13 10.2327 0.99705   3
 -14  -4  13 17.7537 1.29978   3
  14  -4 -13 16.2349 1.36219   3
  14   4 -13 17.5412 1.29519   2
 -14   4  13 18.7013 1.37124   3
  14   4 -13 16.5727 1.29620   3
 -14   4  13 16.5643 1.31504   3
 -13  -4  13 3.59161 1.30666   2
 -13  -4  13 0.72391 0.71108   3
  13  -4 -13 -0.2570 0.79175   3
  13   4 -13 -0.5315 0.69101   3
  13   4 -13 0.71085 0.66540   2
 -13   4  13 1.07301 0.86376   3
 -12  -4  13 1.35461 1.22400   2
  12  -4 -13 -0.3743 0.82361   3
 -12  -4  13 0.73026 0.66488   3
  12   4 -13 0.96592 0.69874   2
 -12   4  13 1.07133 0.83366   3
  12   4 -13 0.31206 0.68663   3
 -11  -4  13 46.6182 2.93829   3
  11  -4 -13 49.9461 3.18876   3
  11   4 -13 46.8842 2.86104   2
  11   4 -13 46.9059 2.93041   3
 -11   4  13 42.1311 2.71785   3
 -10  -4  13 23.8529 1.62673   2
 -10  -4  13 19.3507 1.36494   3
  10  -4 -13 21.6246 1.62110   3
  10   4 -13 19.5305 1.36963   3
 -10   4  13 17.8681 1.42248   3
  10   4 -13 19.9072 1.37223   2
  -9  -4  13 10.7967 0.91638   3
  -9  -4  13 11.2880 0.89599   2
   9  -4 -13 8.94807 0.93699   3
   9   4 -13 10.8414 0.92024   2
  -9   4  13 9.91465 1.01795   3
   8  -4 -13 24.3439 1.80171   3
  -8  -4  13 21.7381 1.44788   2
   8   4 -13 18.9616 1.27492   2
   8   4 -13 21.3685 1.46537   3
  -8   4  13 28.0674 1.98379   3
  -7  -4  13 5.77998 0.70975   3
  -7  -4  13 6.89161 0.70247   2
   7  -4 -13 9.59054 0.99469   3
  -7   4  13 8.46346 0.99796   3
   7   4 -13 7.28958 0.71305   2
   7   4 -13 8.50899 0.80491   3
  -6  -4  13 0.72592 0.51677   3
   6  -4 -13 1.85677 0.81710   3
  -6  -4  13 0.94152 0.47930   2
  -6   4  13 1.25168 0.72903   3
   6   4 -13 0.77954 0.53908   3
   5  -4 -13 2.54865 0.73379   3
  -5  -4  13 2.46337 0.51607   2
  -5  -4  13 2.63343 0.57001   3
   5   4 -13 2.52527 0.57059   3
  -4  -4  13 3.39108 0.61299   2
  -4  -4  13 4.18572 0.58493   3
   4   4 -13 3.87781 0.58520   2
   4   4 -13 4.87192 0.59297   3
  -3  -4  13 3.97582 0.58992   3
   3   4 -13 4.99528 0.57566   2
   3   4 -13 3.30017 0.48430   3
  -2  -4  13 9.29447 0.76459   3
   2   4 -13 9.00476 0.74800   3
   2   4 -13 11.2637 0.95625   2
  -1  -4  13 8.34507 0.70295   3
  -1  -4  13 8.05490 0.66743   2
   1   4 -13 8.08803 0.67358   3
   1   4 -13 8.17712 0.67754   2
   0  -4  13 10.0529 0.85163   3
   0  -4  13 10.5066 0.83847   2
   0   4 -13 11.3579 0.89514   3
   0   4 -13 12.1002 0.92114   2
   1  -4  13 5.03480 0.58585   2
  -1   4 -13 4.70479 0.51786   3
  -1   4 -13 4.25594 0.62736   2
   2  -4  13 17.9270 1.20162   2
   2  -4  13 16.5947 1.14264   3
  -2   4 -13 17.5380 1.20289   2
  -2   4 -13 16.3375 1.12957   3
   3  -4  13 21.7653 1.45572   3
   3  -4  13 23.8417 1.56053   2
  -3   4 -13 23.6757 1.54501   2
  -3   4 -13 22.7429 1.48712   3
   4  -4  13 0.63832 0.47653   3
   4  -4  13 -0.2714 0.51167   2
  -4   4 -13 0.22072 0.48566   3
  -4   4 -13 0.48153 0.55475   2
   5  -4  13 5.32777 0.66617   2
  -5   4 -13 5.33864 0.70236   2
   6  -4  13 4.08472 0.56712   2
  -6   4 -13 3.28190 0.63489   2
   7  -4  13 5.69587 0.69252   2
  -7   4 -13 6.46400 0.75056   2
   8  -4  13 6.65054 0.72479   2
  -8   4 -13 6.87039 0.71003   2
   9  -4  13 2.27993 0.57463   2
  -9   4 -13 2.18739 0.67026   2
  10  -4  13 2.76619 0.58432   2
 -10   4 -13 2.45996 0.64416   2
  11  -4  13 7.60614 0.73755   2
 -11   4 -13 7.74060 0.83311   2
 -17  -5  13 25.7759 1.83796   3
  17  -5 -13 25.3327 1.80927   3
 -17   5  13 26.2592 1.80446   3
  17   5 -13 22.0785 1.62533   3
 -16  -5  13 8.46323 0.93724   3
  16  -5 -13 7.89357 1.02048   3
 -16   5  13 9.29747 0.96256   3
  16   5 -13 8.21547 0.99549   3
  15  -5 -13 19.9696 1.53775   3
 -15  -5  13 22.1719 1.59803   3
 -15   5  13 21.1394 1.61136   3
  15   5 -13 19.8804 1.48375   3
  15   5 -13 22.5406 1.63443   2
 -14  -5  13 21.8798 1.56809   3
 -14  -5  13 22.0281 1.65567   2
  14  -5 -13 19.7349 1.55676   3
  14   5 -13 20.5178 1.48841   3
 -14   5  13 23.3900 1.72271   3
  13  -5 -13 17.6584 1.51099   3
 -13  -5  13 17.4097 1.32330   3
 -13   5  13 17.0560 1.39545   3
  13   5 -13 17.9641 1.38112   2
  13   5 -13 17.8791 1.32140   3
  12  -5 -13 39.2151 2.60357   3
 -12  -5  13 38.5141 2.45233   3
 -12   5  13 39.3455 2.58456   3
  12   5 -13 38.9975 2.50815   3
  11  -5 -13 0.47064 0.90612   3
 -11  -5  13 0.87591 0.60862   3
 -11  -5  13 1.49154 0.71189   2
  11   5 -13 1.51170 0.66525   3
  11   5 -13 0.65476 0.72739   2
 -11   5  13 0.42195 0.79189   3
 -10  -5  13 1.25826 0.67649   2
 -10  -5  13 1.92234 0.70497   3
  10   5 -13 0.39597 0.76032   2
 -10   5  13 1.32500 0.83684   3
  10   5 -13 1.48120 0.65183   3
  -9  -5  13 4.13786 0.74114   2
   9  -5 -13 4.56947 0.93601   3
  -9  -5  13 3.91592 0.69040   3
   9   5 -13 5.40417 0.87484   2
   9   5 -13 3.25776 0.64282   3
   7  -5 -13 10.9541 1.03085   3
  -7  -5  13 13.0281 1.04031   2
   7   5 -13 12.0721 0.96855   3
  -7   5  13 12.2513 1.13716   3
   7   5 -13 10.7251 0.93094   2
  -6  -5  13 39.2001 2.42795   2
  -6  -5  13 33.7813 2.15895   3
   6  -5 -13 33.5986 2.19583   3
  -6   5  13 39.6517 2.56140   3
   6   5 -13 35.2422 2.23861   3
   6   5 -13 36.7105 2.28189   2
  -5  -5  13 45.0965 2.81562   3
  -5  -5  13 51.3149 3.09111   2
   5   5 -13 49.0985 3.03403   3
   5   5 -13 54.7256 3.31358   2
  -4  -5  13 39.6487 2.44782   2
   4   5 -13 36.1380 2.25215   2
   4   5 -13 34.8401 2.19035   3
  -3  -5  13 57.7823 3.46082   2
  -3  -5  13 57.9367 3.55101   3
   3   5 -13 60.5051 3.71673   3
   3   5 -13 57.6723 3.45111   2
  -2  -5  13 46.3629 2.87837   3
   2   5 -13 47.6672 2.94830   3
  -1  -5  13 42.6088 2.66549   3
  -1  -5  13 41.6492 2.55786   2
   1   5 -13 43.3706 2.64815   2
   1   5 -13 43.8587 2.74996   3
   0  -5  13 22.8632 1.51916   2
   0  -5  13 26.4585 1.77913   3
   0   5 -13 21.5465 1.43970   3
   0   5 -13 22.7856 1.53134   2
   1  -5  13 1.39156 0.52519   2
   1  -5  13 1.46306 0.59432   3
  -1   5 -13 0.56418 0.54165   2
   2  -5  13 0.56532 0.56634   2
  -2   5 -13 0.85030 0.50566   3
   3  -5  13 2.60895 0.56186   2
   3  -5  13 2.47365 0.59926   3
  -3   5 -13 1.68734 0.55194   3
   4  -5  13 10.8347 0.91787   3
   4  -5  13 12.5072 1.01355   2
  -4   5 -13 11.6464 0.98839   3
  -4   5 -13 12.6211 1.00945   2
  -5   5 -13 17.8648 1.29093   3
  -5   5 -13 15.9507 1.17911   2
  -6   5 -13 21.5593 1.47299   2
   7  -5  13 9.21708 0.84559   2
  -7   5 -13 8.91235 0.87909   2
   8  -5  13 13.6042 1.05712   2
  -8   5 -13 14.2509 1.09920   2
   9  -5  13 12.7870 1.02360   2
  -9   5 -13 12.4362 1.02820   2
  10  -5  13 4.51386 0.67030   2
 -10   5 -13 3.82757 0.66426   2
  15   6 -13 0.99763 0.85663   3
 -14  -6  13 -0.5891 0.67399   3
  14   6 -13 -0.6072 0.72144   3
 -14   6  13 0.39338 0.83851   3
 -13  -6  13 1.28588 0.69448   3
  13  -6 -13 0.47849 0.86858   3
 -13   6  13 0.74167 0.84315   3
  13   6 -13 0.31340 0.71610   3
 -12  -6  13 5.96406 0.83622   3
 -12   6  13 4.69600 0.90099   3
  12   6 -13 5.24731 0.81366   3
  11  -6 -13 1.43047 0.90296   3
 -11  -6  13 0.26539 0.60827   3
  11   6 -13 0.72633 0.91775   2
  11   6 -13 -0.0227 0.64979   3
  10  -6 -13 6.77546 1.01321   3
 -10  -6  13 6.59244 0.84709   2
 -10  -6  13 7.03896 0.80756   3
  10   6 -13 7.43376 0.85330   3
 -10   6  13 7.96133 1.03682   3
  10   6 -13 6.28976 0.85916   2
   9  -6 -13 62.1714 3.90576   3
  -9  -6  13 71.7081 4.28498   2
  -9  -6  13 63.7206 3.91927   3
   9   6 -13 67.0855 4.13843   3
   9   6 -13 71.2920 4.27622   2
  -9   6  13 66.8192 4.16539   3
  -8  -6  13 10.0080 0.86062   3
  -8  -6  13 10.5349 0.99350   2
   8   6 -13 10.2050 0.95018   3
  -8   6  13 12.6437 1.28613   3
   7  -6 -13 1.67864 0.81258   3
  -7  -6  13 0.48417 0.65481   2
  -7  -6  13 0.47665 0.54823   3
   6   6 -13 22.0375 1.49545   2
   6   6 -13 21.7784 1.46623   3
  -5  -6  13 6.34468 0.67513   3
   5   6 -13 6.72293 0.76174   2
   5   6 -13 6.39278 0.66910   3
  -4  -6  13 1.50768 0.51227   3
   4   6 -13 1.64670 0.58758   3
  -3  -6  13 0.27270 0.57597   2
  -3  -6  13 0.58598 0.47753   3
   3   6 -13 0.09097 0.62883   2
   3   6 -13 -0.2404 0.50490   3
  -2  -6  13 7.47115 0.73901   3
  -2  -6  13 7.34013 0.76203   2
   2   6 -13 7.81589 0.73539   3
   2   6 -13 6.83572 0.77199   2
  -1  -6  13 0.65334 0.56452   2
  -1  -6  13 0.65456 0.50408   3
   1   6 -13 -0.3506 0.56554   2
   1   6 -13 1.01074 0.50764   3
   0  -6  13 3.99838 0.60000   3
   0  -6  13 3.91076 0.69542   2
   0   6 -13 2.77510 0.68328   2
   0   6 -13 5.11314 0.66194   3
   1  -6  13 12.1653 0.98028   3
   1  -6  13 12.2423 1.01424   2
  -1   6 -13 12.6797 0.98833   3
  -1   6 -13 12.6332 1.03084   2
   2  -6  13 10.6997 0.92107   2
   2  -6  13 10.8559 0.94495   3
  -2   6 -13 10.2559 0.90333   2
  -2   6 -13 10.3430 0.88975   3
   3  -6  13 24.3977 1.69067   3
   3  -6  13 22.6800 1.51743   2
  -3   6 -13 23.9917 1.61658   2
  -3   6 -13 23.9394 1.62408   3
   5  -6  13 5.61862 0.73200   2
  -5   6 -13 5.56111 0.75895   2
   6  -6  13 3.12561 0.67006   2
  -6   6 -13 4.37258 0.71194   2
 -10  -7  13 1.58539 0.56571   3
  10   7 -13 1.71050 0.61218   3
  -9  -7  13 -0.1306 0.55092   3
   9   7 -13 -0.2557 0.58600   3
  -8  -7  13 -0.2785 0.54209   3
   8   7 -13 -0.0849 0.60734   3
  -7  -7  13 4.76011 0.69842   3
   7   7 -13 4.03572 0.63446   3
  -6  -7  13 1.54788 0.59964   3
   5   7 -13 0.95943 0.56295   3
  -4  -7  13 3.16731 0.51457   3
   4   7 -13 1.92629 0.48172   3
  -3  -7  13 0.97162 0.58094   3
   3   7 -13 0.67711 0.50463   3
  -2  -7  13 0.92413 0.53257   3
   2   7 -13 2.20587 0.59434   3
  -1  -7  13 1.24913 0.60274   3
   1   7 -13 0.55939 0.51695   3
   0  -7  13 4.16927 0.62680   3
   0   7 -13 4.40148 0.65590   3
 -23   0  14 -0.9345 1.19626   2
  22   0 -14 6.18163 0.81190   2
 -22   0  14 5.41489 0.83966   3
  22   0 -14 5.17561 0.85432   3
 -21   0  14 52.4701 3.29445   3
  21   0 -14 52.1788 3.28832   3
  21   0 -14 51.5562 3.13289   2
 -20   0  14 38.2250 2.51459   3
  20   0 -14 37.3773 2.34291   2
  20   0 -14 37.7990 2.51675   3
  19   0 -14 6.23748 0.94578   3
  19   0 -14 5.53818 0.74463   2
 -19   0  14 4.91714 0.88283   3
  18   0 -14 2.12375 0.66487   2
  18   0 -14 -0.0992 0.81860   3
 -18   0  14 1.03930 0.80038   3
 -18   0  14 -1.1372 0.98259   2
  17   0 -14 4.96751 0.89290   3
  17   0 -14 3.35574 0.68392   2
 -17   0  14 3.60309 0.79861   3
 -16   0  14 28.7624 1.99775   3
  16   0 -14 25.2997 1.76800   3
 -15   0  14 37.5347 2.39421   3
  14   0 -14 128.925 7.51893   2
  14   0 -14 131.859 7.97685   3
  13   0 -14 197.580 11.8764   3
  13   0 -14 202.358 11.7569   2
 -13   0  14 215.576 12.9514   3
 -12   0  14 160.698 9.67485   3
  12   0 -14 157.034 9.47352   3
  12   0 -14 156.533 9.11136   2
 -11   0  14 85.8142 5.23092   3
  11   0 -14 81.6828 4.81534   2
  11   0 -14 85.3955 5.19008   3
 -10   0  14 316.928 18.9926   3
  10   0 -14 305.115 18.2767   3
  10   0 -14 296.721 17.1947   2
   9   0 -14 246.558 22.9485   1
  -9   0  14 246.080 22.9214   1
   9   0 -14 268.892 16.1299   3
  -9   0  14 280.560 16.8155   3
   9   0 -14 255.655 23.8061   1
  -9   0  14 280.804 26.1561   1
   8   0 -14 26.8571 1.67974   2
   8   0 -14 24.8641 1.62718   3
  -8   0  14 24.3149 1.59053   3
   8   0 -14 24.3512 2.26928   1
  -8   0  14 26.1922 2.44019   1
   8   0 -14 24.3357 2.26784   1
  -8   0  14 25.9515 2.42114   1
   7   0 -14 1.85340 0.50243   2
   7   0 -14 1.18362 0.14984   1
  -7   0  14 1.14801 0.13191   1
  -7   0  14 1.78125 0.51715   3
  -7   0  14 -0.8618 0.86472   2
   7   0 -14 2.31669 0.50445   3
  -6   0  14 10.2694 0.96671   1
   6   0 -14 10.5646 0.98906   1
   6   0 -14 10.5236 0.98892   1
  -6   0  14 10.3783 0.76573   3
   6   0 -14 11.1055 0.81158   2
  -6   0  14 10.5381 0.98714   1
   5   0 -14 118.219 7.11820   3
  -5   0  14 106.631 9.92498   1
   5   0 -14 101.193 9.42903   1
   5   0 -14 102.569 5.98683   2
   5   0 -14 97.8506 9.11439   1
  -5   0  14 101.252 9.43056   1
  -5   0  14 94.9395 5.55274   2
  -4   0  14 182.241 16.9708   1
   4   0 -14 166.291 9.66744   2
   4   0 -14 150.413 14.0112   1
  -4   0  14 164.803 15.3500   1
  -4   0  14 176.605 10.2554   2
   4   0 -14 153.871 9.23043   3
   4   0 -14 166.385 15.4899   1
   3   0 -14 252.284 23.4973   1
   3   0 -14 250.054 14.5002   2
  -3   0  14 263.661 24.5517   1
   3   0 -14 211.523 19.7057   1
  -3   0  14 225.195 20.9815   1
  -3   0  14 254.963 14.7639   2
   2   0 -14 554.045 51.5729   1
   2   0 -14 526.559 49.0471   1
  -2   0  14 544.691 50.7111   1
  -2   0  14 543.190 31.4016   2
   2   0 -14 560.326 32.3965   2
  -2   0  14 562.802 52.4010   1
   1   0 -14 176.396 10.2573   2
   1   0 -14 165.442 15.4070   1
   1   0 -14 170.931 15.9157   1
  -1   0  14 184.700 17.2042   1
  -1   0  14 181.661 16.9226   1
  -1   0  14 180.061 10.4513   2
   0   0  14 201.816 11.7149   2
   0   0  14 194.150 18.0823   1
   0   0  14 163.327 15.2148   1
   0   0 -14 180.328 10.4668   2
   1   0  14 187.483 17.4586   1
   1   0  14 200.564 18.6912   1
   1   0  14 206.594 11.9920   2
  -1   0 -14 217.692 12.6472   2
  -2   0 -14 62.8762 3.73961   2
   2   0  14 62.7104 3.72020   2
   4   0  14 0.29889 0.48782   2
  -5   0 -14 2.10097 0.62651   2
  -6   0 -14 21.3757 1.46026   2
   7   0  14 69.6545 4.14384   2
  -7   0 -14 68.1895 4.08572   2
   8   0  14 32.7072 2.08730   2
  -8   0 -14 32.6023 2.08522   2
  -9   0 -14 76.6039 4.61236   2
   9   0  14 78.3539 4.68369   2
  10   0  14 75.6239 4.53380   2
 -10   0 -14 75.9686 4.59260   2
  22  -1 -14 5.76046 0.82972   2
  22  -1 -14 4.25464 0.89821   3
  22   1 -14 5.15926 0.78093   2
 -22   1  14 1.66259 1.06098   2
  22   1 -14 4.34170 0.99302   3
 -22   1  14 6.59584 0.95273   3
  21  -1 -14 0.04528 0.67813   2
 -21  -1  14 3.80754 1.09663   2
  21  -1 -14 1.22432 0.73950   3
 -21  -1  14 -0.4069 0.83944   3
  21   1 -14 -0.7004 0.70601   2
 -21   1  14 -0.2047 1.06106   2
  21   1 -14 -0.0723 0.90128   3
 -21   1  14 -0.2437 0.69720   3
  20  -1 -14 16.3869 1.34757   3
 -20  -1  14 16.4490 1.34603   3
  20  -1 -14 19.6954 1.44239   2
  20   1 -14 17.1401 1.40108   3
 -20   1  14 16.0241 1.31224   3
  20   1 -14 18.8423 1.33920   2
 -19  -1  14 4.90184 0.87090   3
  19  -1 -14 4.41024 0.68118   2
  19  -1 -14 6.32315 0.94520   3
  19   1 -14 5.07274 0.90374   3
  19   1 -14 5.06369 0.78309   2
 -19   1  14 5.79526 0.91483   3
  18  -1 -14 19.2458 1.33858   2
  18  -1 -14 20.5437 1.49077   3
 -18  -1  14 21.1871 1.51821   3
  18   1 -14 21.2185 1.55248   3
  18   1 -14 20.7105 1.44250   2
 -18   1  14 20.2233 1.46551   3
 -17  -1  14 78.7705 4.84367   3
  17  -1 -14 74.7861 4.43263   2
  17  -1 -14 77.8730 4.81060   3
  17   1 -14 75.7271 4.49052   2
  17   1 -14 77.9597 4.80727   3
 -17   1  14 74.0637 4.54809   3
  16  -1 -14 29.0643 1.85440   2
 -16  -1  14 27.2334 2.00879   2
 -16  -1  14 30.3873 2.06414   3
  16   1 -14 29.2973 2.02051   3
  16   1 -14 30.4482 1.95153   2
 -16   1  14 29.2967 1.95692   3
 -15  -1  14 21.7123 1.76339   2
  15  -1 -14 26.8157 1.75199   2
 -15  -1  14 26.0177 1.79124   3
  15  -1 -14 27.7016 1.87558   3
  15   1 -14 26.0236 1.69111   2
  15   1 -14 25.5090 1.73062   3
  14  -1 -14 6.37956 0.79789   3
  14  -1 -14 7.25303 0.78863   2
 -14  -1  14 5.99861 0.81472   3
 -14   1  14 6.77387 0.84039   3
 -14   1  14 5.64658 1.02899   2
  14   1 -14 6.71585 0.71300   2
  13  -1 -14 27.2776 1.74687   2
  13  -1 -14 27.1722 1.82221   3
 -13  -1  14 24.3513 1.68051   3
 -13   1  14 26.2221 1.77813   3
  13   1 -14 28.5746 1.81745   2
  13   1 -14 24.7380 1.65629   3
  12  -1 -14 2.98504 0.75381   3
  12  -1 -14 3.49832 0.57589   2
 -12   1  14 4.22291 0.82480   3
  12   1 -14 3.30831 0.63430   3
  12   1 -14 3.63646 0.57260   2
 -11  -1  14 71.5331 4.38033   3
  11  -1 -14 67.4540 4.14786   3
  11   1 -14 67.9985 4.15393   3
 -11   1  14 70.0480 4.30647   3
  11   1 -14 66.3509 3.92290   2
 -10  -1  14 58.4533 3.62065   3
  10  -1 -14 51.8673 3.20662   3
  10   1 -14 61.4183 3.79173   3
  10   1 -14 58.5258 3.48977   2
  -9  -1  14 48.5801 4.52904   1
   9  -1 -14 52.1515 3.23423   3
   9  -1 -14 41.9827 3.91043   1
   9  -1 -14 49.6820 2.97502   2
  -9   1  14 48.5366 4.52091   1
  -9   1  14 50.7125 3.13934   3
  -9   1  14 46.3503 4.32521   1
  -9   1  14 49.3942 3.14710   2
   9   1 -14 47.9080 2.89218   2
   8  -1 -14 79.5632 7.40824   1
  -8  -1  14 90.5303 5.47686   3
   8  -1 -14 82.3298 4.83944   2
   8  -1 -14 77.2471 4.71698   3
   8  -1 -14 74.7462 6.96619   1
  -8  -1  14 64.6486 3.87463   2
  -8   1  14 71.3720 4.32959   3
  -8   1  14 81.3701 7.57984   1
   8   1 -14 76.8907 7.15871   1
  -8   1  14 64.4775 3.89453   2
   8   1 -14 88.9249 5.39812   3
  -8   1  14 80.6214 7.51294   1
   8   1 -14 79.4016 7.39968   1
  -7  -1  14 102.516 6.19429   3
   7  -1 -14 125.750 7.31592   2
  -7   1  14 99.4156 9.25790   1
  -7   1  14 105.878 6.38407   3
   7   1 -14 114.426 6.88972   3
  -7   1  14 116.090 10.8142   1
   7   1 -14 109.610 10.2079   1
   7   1 -14 109.537 10.1991   1
  -6  -1  14 107.724 10.0316   1
   6  -1 -14 113.589 6.85303   3
  -6  -1  14 101.758 9.48113   1
   6  -1 -14 110.149 6.43070   2
  -6  -1  14 123.612 7.45250   3
  -6   1  14 107.869 10.0474   1
  -6   1  14 110.361 10.2809   1
   6   1 -14 105.106 9.78564   1
   6   1 -14 108.795 6.56192   3
   6   1 -14 96.4167 5.64190   2
   6   1 -14 98.4662 9.16840   1
  -5  -1  14 130.182 12.1232   1
  -5  -1  14 130.406 12.1452   1
  -5  -1  14 140.505 8.43905   3
   5  -1 -14 125.258 7.29780   2
   5  -1 -14 134.044 8.07291   3
   5  -1 -14 134.657 12.5405   1
   5  -1 -14 127.428 11.8694   1
  -5   1  14 123.658 11.5114   1
   5   1 -14 135.244 8.13094   3
   5   1 -14 116.636 10.8668   1
  -5   1  14 117.915 10.9848   1
   5   1 -14 129.684 7.56570   2
   5   1 -14 129.510 12.0589   1
  -4  -1  14 61.6582 5.74586   1
  -4  -1  14 63.6396 3.85555   3
   4  -1 -14 67.2194 6.26145   1
  -4  -1  14 61.0319 5.68440   1
  -4  -1  14 61.4739 3.61991   2
   4  -1 -14 56.4264 5.25586   1
   4   1 -14 62.8447 3.71690   2
  -4   1  14 64.6710 3.78764   2
   4   1 -14 63.6174 5.92753   1
   4   1 -14 65.9337 3.98521   3
   4   1 -14 62.2682 5.80399   1
  -3  -1  14 61.9487 5.76727   1
  -3  -1  14 58.6839 3.46623   2
  -3  -1  14 61.1912 5.69987   1
   3  -1 -14 66.4207 3.90823   2
   3  -1 -14 56.8252 5.29420   1
   3  -1 -14 63.0494 5.87723   1
   3   1 -14 60.4958 5.63679   1
   3   1 -14 65.4261 3.85728   2
   3   1 -14 61.6382 5.74145   1
   3   1 -14 60.8567 3.69751   3
  -3   1  14 67.1537 6.25097   1
  -3   1  14 55.8147 5.20048   1
  -3   1  14 64.2373 3.76643   2
  -2  -1  14 16.4681 1.54029   1
  -2  -1  14 17.5977 1.64552   1
   2  -1 -14 14.8503 1.38745   1
   2  -1 -14 14.1556 1.31973   1
   2  -1 -14 17.2897 1.12603   2
  -2  -1  14 14.9481 0.98705   2
   2   1 -14 15.3574 1.43859   1
   2   1 -14 14.8777 0.98364   3
  -2   1  14 16.6088 1.54868   1
  -2   1  14 16.8813 1.57833   1
   2   1 -14 13.2041 1.23201   1
   2   1 -14 18.7693 1.25477   2
   1  -1 -14 3.31898 0.49766   2
  -1  -1  14 2.12466 0.21702   1
  -1  -1  14 2.24550 0.22598   1
  -1  -1  14 1.99430 0.42005   2
   1  -1 -14 2.88777 0.28555   1
  -1   1  14 2.33557 0.23655   1
  -1   1  14 1.51604 0.15447   1
   1   1 -14 2.61149 0.45135   2
   1   1 -14 2.07964 0.20553   1
   0  -1 -14 6.82453 0.64566   1
   0  -1 -14 8.36299 0.67027   2
   0  -1 -14 6.38693 0.60127   1
   0  -1  14 6.44005 0.60653   1
   0  -1  14 7.37478 0.68942   1
   0   1  14 7.60828 0.71619   1
   0   1 -14 6.68946 0.63302   1
   0   1  14 8.50658 0.79457   1
   1  -1  14 103.744 6.06861   2
  -1  -1 -14 110.553 6.45075   2
  -1   1 -14 92.6350 5.42047   2
   1   1  14 94.1558 8.76899   1
   2  -1  14 55.8495 3.30906   2
  -2  -1 -14 57.3061 3.39224   2
  -2   1 -14 56.4210 3.35703   2
  -3  -1 -14 55.7096 3.31928   2
   3  -1  14 52.7117 3.14680   2
  -3   1 -14 53.0809 3.18137   2
   4  -1  14 97.5296 5.73059   2
  -4   1 -14 101.240 5.93866   2
   5  -1  14 59.8669 3.58498   2
  -5   1 -14 52.2051 3.13582   2
   6  -1  14 50.6857 3.07411   2
  -6   1 -14 50.1181 3.03086   2
   7  -1  14 10.4030 0.91837   2
  -7   1 -14 10.3473 0.92820   2
   8  -1  14 16.5025 1.18796   2
  -8   1 -14 16.7082 1.22141   2
   9  -1  14 3.30909 0.70302   2
  -9   1 -14 1.41877 0.70834   2
  10  -1  14 0.32388 0.69295   2
 -11   1 -14 -0.1411 0.73161   2
  12  -1  14 0.07079 0.62526   2
 -12   1 -14 0.72894 0.75851   2
 -22   2  14 0.07266 0.74610   3
 -21  -2  14 4.34129 1.45620   2
 -19  -2  14 0.71826 0.90310   3
 -19   2  14 3.54847 0.97202   2
 -17  -2  14 10.5923 1.06270   3
  17  -2 -14 11.7333 0.93844   2
  17   2 -14 11.3909 0.94180   2
 -17   2  14 10.7253 1.07089   3
  17   2 -14 10.5630 1.09806   3
  16  -2 -14 9.97770 0.85908   2
  16  -2 -14 12.7865 1.23696   3
 -16  -2  14 11.9991 1.11985   3
  16   2 -14 11.4187 1.10411   3
  16   2 -14 11.7306 0.98834   2
 -16   2  14 8.30939 1.07402   2
  15  -2 -14 9.03724 0.82521   2
  15  -2 -14 8.11501 0.98306   3
 -15  -2  14 9.62915 1.05692   3
  15   2 -14 7.58859 0.91228   3
  15   2 -14 9.76606 0.89955   2
 -15   2  14 7.74307 1.05680   2
 -15   2  14 7.06932 0.87992   3
  14  -2 -14 3.44234 0.75748   3
  14  -2 -14 2.54351 0.62244   2
 -14  -2  14 2.82200 0.68366   3
 -14   2  14 2.59894 0.71487   3
 -14   2  14 2.77358 0.94682   2
  14   2 -14 2.54199 0.58579   2
  14   2 -14 3.06930 0.74408   3
  13  -2 -14 39.7736 2.42773   2
  13  -2 -14 37.3193 2.40557   3
 -13  -2  14 37.1950 2.37434   3
  13   2 -14 37.1768 2.29793   2
 -13   2  14 38.8851 2.48673   3
  12  -2 -14 6.98350 0.87597   3
 -12  -2  14 6.38157 0.75262   3
  12  -2 -14 7.25381 0.73624   2
 -12  -2  14 4.53972 1.06764   2
 -12   2  14 8.42731 0.87810   3
  12   2 -14 7.30690 0.72790   2
  12   2 -14 7.35554 0.84330   3
  11  -2 -14 -0.6145 0.61966   3
 -11  -2  14 -0.2067 1.02073   2
 -11   2  14 0.15945 0.73478   2
  11   2 -14 0.32733 0.60943   3
 -11   2  14 -0.3218 0.57187   3
  11   2 -14 0.45030 0.49284   2
  10  -2 -14 10.9735 0.89103   2
 -10  -2  14 10.0228 0.85533   3
  10  -2 -14 11.2685 1.02660   3
 -10   2  14 9.17868 0.91870   3
  10   2 -14 10.9782 0.93823   3
  10   2 -14 9.44149 0.78138   2
  -9  -2  14 -0.4331 0.96680   2
   9  -2 -14 1.13624 0.49744   2
  -9  -2  14 0.97322 0.57653   3
   9   2 -14 1.24557 0.51251   2
   9   2 -14 1.00228 0.59168   3
  -8  -2  14 2.95235 0.58104   3
   8  -2 -14 3.30797 0.49269   2
  -8  -2  14 0.36391 0.86850   2
  -8   2  14 3.61372 0.64917   3
   8   2 -14 2.98020 0.61317   3
   8   2 -14 3.02263 0.51220   2
   7  -2 -14 0.62876 0.43980   2
   7  -2 -14 0.36569 0.63220   3
   7   2 -14 0.72508 0.45564   2
  -7   2  14 0.18685 0.71753   2
   6  -2 -14 17.7177 1.13666   2
  -6  -2  14 16.2565 1.08606   2
   6  -2 -14 12.7281 1.19678   1
  -6  -2  14 16.8753 1.15843   3
   6  -2 -14 14.7740 1.11150   3
  -6  -2  14 15.3386 1.43684   1
  -6   2  14 15.8805 1.48217   1
   6   2 -14 14.9020 1.39678   1
  -6   2  14 14.9502 1.39734   1
   6   2 -14 14.8002 0.99376   2
   6   2 -14 17.1842 1.17371   3
  -5  -2  14 1.92319 0.47842   2
  -5  -2  14 2.10531 0.22681   1
  -5  -2  14 1.58397 0.46132   3
   5  -2 -14 0.62515 0.51586   3
   5   2 -14 1.71867 0.18867   1
   5   2 -14 2.66910 0.52709   3
   5   2 -14 2.09400 0.47204   2
  -4  -2  14 0.57105 0.11988   1
  -4  -2  14 0.02296 0.45461   3
  -4  -2  14 0.42328 0.46198   2
   4  -2 -14 0.32833 0.11611   1
   4   2 -14 0.59928 0.51279   3
   4   2 -14 0.76407 0.46602   2
  -4   2  14 0.38824 0.10040   1
  -3  -2  14 34.9643 3.25637   1
   3  -2 -14 42.9608 4.00295   1
   3  -2 -14 43.2168 4.03147   1
  -3  -2  14 38.4503 2.32617   2
  -3  -2  14 42.1177 2.60365   3
   3   2 -14 38.8545 2.35870   2
  -3   2  14 43.1053 4.01563   1
  -3   2  14 37.8042 3.52166   1
  -2  -2  14 1.13642 0.42802   2
   2  -2 -14 0.77699 0.11174   1
   2   2 -14 0.31865 0.41955   2
  -2   2  14 0.65549 0.08775   1
   2   2 -14 0.68647 0.40279   3
  -1  -2  14 7.11279 0.65003   2
  -1   2  14 6.31047 0.59770   1
   1   2 -14 6.49269 0.55534   3
  -1   2  14 9.10110 0.85580   1
   0  -2  14 11.3462 0.86116   2
   0   2 -14 10.1342 0.71416   3
   1  -2  14 10.0087 0.82241   2
  -1   2 -14 9.12587 0.74041   2
  -2   2 -14 5.39248 0.60505   2
   3  -2  14 13.2148 0.97042   2
  -3   2 -14 12.7779 0.94548   2
   4  -2  14 0.84029 0.49787   2
  -4   2 -14 0.61005 0.56767   2
   5  -2  14 4.05761 0.59879   2
  -5   2 -14 5.01757 0.66398   2
   6  -2  14 15.9060 1.15191   2
  -6   2 -14 15.6998 1.14888   2
   7  -2  14 4.86133 0.68993   2
  -7   2 -14 4.73386 0.67853   2
   8  -2  14 1.52481 0.60387   2
  -8   2 -14 0.78154 0.60910   2
   9  -2  14 2.11269 0.65638   2
  -9   2 -14 1.75774 0.66616   2
  10  -2  14 5.21543 0.70080   2
 -10   2 -14 5.62568 0.78012   2
  11  -2  14 0.57293 0.60725   2
 -11   2 -14 0.48570 0.66130   2
  12  -2  14 0.80390 0.63507   2
 -12   2 -14 0.57997 0.72162   2
  21  -3 -14 4.67784 0.86240   3
 -21  -3  14 4.56385 0.88455   3
 -21   3  14 5.81979 0.82104   3
  20  -3 -14 5.85717 0.98322   3
  20   3 -14 6.02500 0.93542   3
  20   3 -14 6.49602 0.88381   2
 -20   3  14 7.96414 0.97682   3
  19  -3 -14 32.9405 2.16087   2
 -19  -3  14 32.0412 2.12755   3
 -19  -3  14 23.9043 1.97241   2
  19   3 -14 30.6137 2.00850   2
 -19   3  14 32.2364 2.15201   3
  19   3 -14 29.5910 2.06350   3
  18  -3 -14 12.1039 1.19862   3
 -18  -3  14 11.6104 1.08476   3
  18  -3 -14 11.3090 1.08437   2
  18   3 -14 11.6587 1.01800   2
  18   3 -14 12.4793 1.17992   3
  17  -3 -14 50.1355 3.19681   3
 -17  -3  14 50.3203 3.19434   3
  17  -3 -14 52.7465 3.23862   2
  17   3 -14 48.4620 3.10325   3
  17   3 -14 51.5605 3.14937   2
  16  -3 -14 74.5295 4.45773   2
  16  -3 -14 77.2592 4.78421   3
 -16  -3  14 79.6336 4.90510   3
  16   3 -14 75.8053 4.50913   2
  16   3 -14 76.5050 4.72727   3
 -16   3  14 73.1332 4.53285   3
 -15  -3  14 3.77361 0.80731   3
 -15  -3  14 0.12442 1.25427   2
  15  -3 -14 3.71036 0.83961   3
  15  -3 -14 2.65497 0.64811   2
 -15   3  14 1.86471 0.75587   3
  15   3 -14 3.96376 0.87787   3
 -14  -3  14 14.0913 1.17127   3
 -14  -3  14 10.6156 1.39346   2
  14  -3 -14 13.5033 1.17883   3
  14  -3 -14 11.7763 0.93836   2
 -14   3  14 8.43728 0.98155   2
  14   3 -14 11.2955 1.08138   3
 -14   3  14 13.3021 1.13052   3
  13  -3 -14 32.5747 2.20078   3
  13  -3 -14 31.2845 1.96420   2
 -13  -3  14 34.9893 2.28219   3
 -13   3  14 33.5111 2.22779   3
 -13   3  14 27.9830 1.89646   2
  13   3 -14 37.0419 2.33706   2
  13   3 -14 35.6835 2.33363   3
 -12  -3  14 8.63628 0.85421   3
  12  -3 -14 8.96141 0.83899   2
  12  -3 -14 7.16851 0.96790   3
  12   3 -14 8.10132 0.75729   2
 -12   3  14 7.27086 0.86816   3
  11  -3 -14 20.6656 1.40052   2
 -11  -3  14 18.4848 1.33607   3
  11  -3 -14 18.1888 1.40322   3
  11   3 -14 18.5049 1.33279   3
  11   3 -14 18.6287 1.26421   2
 -11   3  14 19.3259 1.41719   3
  10  -3 -14 43.6785 2.76905   3
  10   3 -14 41.5140 2.61409   3
 -10   3  14 42.9016 2.69352   3
  10   3 -14 41.6583 2.53037   2
  -9  -3  14 59.6311 3.67701   3
  -9   3  14 68.2035 4.24199   3
   9   3 -14 57.7756 3.54193   3
   9   3 -14 61.4648 3.66017   2
  -9   3  14 60.4536 3.71007   3
  -8  -3  14 64.6770 3.82638   2
  -8  -3  14 59.6104 3.65739   3
   8  -3 -14 61.8458 3.84296   3
   8   3 -14 67.3502 3.99066   2
   8   3 -14 62.2663 3.81220   3
  -7  -3  14 188.054 11.3038   3
   7  -3 -14 149.269 9.00208   3
  -7  -3  14 148.439 8.63081   2
   7   3 -14 149.450 8.70122   2
   7   3 -14 152.274 9.16749   3
  -7   3  14 173.193 10.4501   3
  -6  -3  14 158.738 9.53313   3
   6  -3 -14 135.662 8.19288   3
  -6  -3  14 171.059 9.93734   2
   6   3 -14 161.751 9.41187   2
   6   3 -14 164.575 9.88253   3
  -5  -3  14 63.0790 3.73037   2
  -5  -3  14 68.4444 4.17982   3
   5   3 -14 62.6563 3.70807   2
  -4  -3  14 115.447 6.97902   3
  -4  -3  14 108.434 6.34984   2
   4   3 -14 109.288 6.38529   2
   4   3 -14 110.864 6.68215   3
  -3  -3  14 14.1523 1.00269   3
  -3  -3  14 14.6219 1.00903   2
   3   3 -14 15.7471 1.08407   3
   3   3 -14 16.1563 1.12286   2
  -2  -3  14 0.15429 0.50786   2
  -2  -3  14 0.77537 0.38996   3
   2   3 -14 0.90404 0.46869   2
  -1  -3  14 4.53391 0.54157   2
   1   3 -14 5.67297 0.62141   2
   0  -3  14 24.5312 1.54988   2
   0   3 -14 24.5339 1.57417   2
   1  -3  14 52.3138 3.12891   2
  -1   3 -14 58.1967 3.48112   2
   2  -3  14 74.6653 4.40644   2
  -2   3 -14 74.7151 4.41443   2
   3  -3  14 40.2764 2.44200   2
  -3   3 -14 42.5505 2.58860   2
   4  -3  14 53.3804 3.19219   2
  -4   3 -14 52.7722 3.17090   2
   5  -3  14 85.9090 5.06659   2
  -5   3 -14 82.8957 4.90939   2
   6  -3  14 26.1529 1.68419   2
   7  -3  14 17.6381 1.24060   2
  -8   3 -14 11.4125 0.94968   2
   9  -3  14 6.94334 0.79208   2
  -9   3 -14 6.47579 0.77583   2
  10  -3  14 3.74304 0.63120   2
 -10   3 -14 4.01683 0.71601   2
  11  -3  14 4.04377 0.67334   2
 -11   3 -14 3.24292 0.68904   2
  12  -3  14 0.82128 0.64881   2
 -12   3 -14 0.31276 0.66918   2
  19  -4 -14 3.61466 0.93254   3
  19   4 -14 3.27301 0.85218   3
 -18  -4  14 0.51867 1.19518   2
 -18  -4  14 4.58472 0.79804   3
  18  -4 -14 4.36792 0.95557   3
  18   4 -14 4.90170 0.80687   2
 -18   4  14 4.55558 0.89698   3
  18   4 -14 5.01947 0.88368   3
  17  -4 -14 -0.6925 0.81830   3
 -17  -4  14 -0.5938 0.73846   3
  17   4 -14 -0.5725 0.84895   3
 -17   4  14 -0.4449 0.82433   3
 -15  -4  14 10.8219 1.04463   3
  15  -4 -14 10.5056 1.11920   3
 -15  -4  14 15.4077 1.73694   2
 -15   4  14 11.3017 1.04134   3
  15   4 -14 9.80288 1.03673   3
  15   4 -14 12.0107 1.06514   2
 -14  -4  14 43.1543 2.75693   3
  14  -4 -14 44.8116 2.89898   3
 -14   4  14 44.1771 2.82432   3
  14   4 -14 43.7508 2.80906   3
  14   4 -14 41.9680 2.59517   2
  13  -4 -14 80.5234 4.99054   3
 -13   4  14 83.0104 5.11653   3
  13   4 -14 89.8642 5.31687   2
 -13   4  14 84.2126 5.15564   3
 -12  -4  14 16.6442 1.25654   3
  12  -4 -14 13.9294 1.22154   3
 -12   4  14 14.4848 1.27143   3
  12   4 -14 16.4042 1.20442   3
  12   4 -14 17.1952 1.27508   2
 -11  -4  14 32.7857 2.11922   3
  11  -4 -14 35.2742 2.37683   3
 -11   4  14 36.9965 2.45512   3
  11   4 -14 37.5650 2.34130   2
 -10  -4  14 94.3194 5.74729   3
 -10  -4  14 103.255 6.06758   2
  10   4 -14 105.000 6.16639   2
 -10   4  14 100.291 6.14645   3
  -9  -4  14 44.6943 2.69347   2
   9  -4 -14 49.5798 3.17293   3
   9   4 -14 47.4148 2.97078   3
   9   4 -14 46.8654 2.85062   2
  -8  -4  14 5.41126 0.63603   2
   8  -4 -14 6.70984 0.95095   3
  -8  -4  14 8.38810 0.81239   3
  -8   4  14 5.04086 0.87134   3
   8   4 -14 6.70911 0.76050   3
  -7  -4  14 0.64968 0.54889   2
  -7  -4  14 1.45094 0.63851   3
   7  -4 -14 0.83265 0.88910   3
   7   4 -14 1.02496 0.58833   3
  -7   4  14 1.18960 0.73973   3
  -6  -4  14 3.57295 0.61955   3
   6  -4 -14 4.57724 1.00181   3
  -6  -4  14 3.75813 0.54759   2
   6   4 -14 4.14789 0.57057   3
   6   4 -14 3.64473 0.56905   2
  -5  -4  14 10.2788 0.89492   3
   5   4 -14 12.4280 0.95645   3
   4   4 -14 23.6287 1.52950   2
   4   4 -14 26.7862 1.73996   3
  -3  -4  14 57.6234 3.53203   3
  -3  -4  14 57.9345 3.43818   2
   3   4 -14 58.8829 3.60366   3
   3   4 -14 62.3002 3.70184   2
  -2  -4  14 66.8139 4.06910   3
  -2  -4  14 65.6938 3.90818   2
   2   4 -14 66.4534 3.93056   2
   2   4 -14 71.1800 4.32017   3
  -1  -4  14 132.993 7.79617   2
  -1  -4  14 103.826 6.27519   3
   1   4 -14 126.007 7.36913   2
   0  -4  14 33.5224 2.07865   2
   0   4 -14 37.1852 2.32105   3
   0   4 -14 32.0217 2.00063   2
   1  -4  14 33.6580 2.10807   2
   1  -4  14 31.3141 1.99029   3
  -1   4 -14 31.5198 1.97773   2
  -1   4 -14 32.6175 2.07677   3
   2  -4  14 73.1435 4.34519   2
   2  -4  14 67.8397 4.14129   3
  -2   4 -14 68.2182 4.16864   3
  -2   4 -14 72.9376 4.33196   2
   3  -4  14 9.00904 0.76895   3
   3  -4  14 9.80163 0.87151   2
  -3   4 -14 10.9718 0.86808   3
  -3   4 -14 10.7802 0.91145   2
   4  -4  14 1.06747 0.54341   2
  -4   4 -14 1.33271 0.58625   2
   5  -4  14 0.88308 0.55228   2
  -5   4 -14 -0.4145 0.58991   2
   6  -4  14 2.15245 0.57010   2
  -6   4 -14 1.73735 0.58382   2
   7  -4  14 13.8234 1.02778   2
  -7   4 -14 14.6971 1.13545   2
   8  -4  14 19.0291 1.31097   2
  -8   4 -14 19.1785 1.33666   2
   9  -4  14 8.46953 0.82519   2
  -9   4 -14 9.74604 0.91603   2
  10  -4  14 17.4946 1.21523   2
 -10   4 -14 19.2358 1.36251   2
  11  -4  14 12.6694 1.00848   2
 -11   4 -14 11.7742 1.01960   2
  17  -5 -14 0.45797 0.86772   3
 -17  -5  14 1.06067 0.73998   3
 -17   5  14 0.09307 0.74232   3
  17   5 -14 0.25088 0.82802   3
  16  -5 -14 2.22316 0.89962   3
 -16  -5  14 2.56227 0.81749   3
 -16   5  14 0.11654 0.74363   3
  16   5 -14 1.42445 0.82481   3
 -15  -5  14 3.53623 0.77813   3
  15  -5 -14 1.78337 0.91195   3
 -15  -5  14 5.44225 1.09270   2
 -15   5  14 1.74357 0.70676   3
  15   5 -14 1.79519 0.82296   3
 -15   5  14 2.47957 0.83733   3
  14  -5 -14 0.25032 0.82618   3
 -14  -5  14 0.37938 0.61706   2
 -14  -5  14 1.14098 0.70950   3
  14   5 -14 1.27298 0.71996   2
  14   5 -14 2.22177 0.78761   3
 -14   5  14 1.37132 0.89403   3
 -13  -5  14 0.14456 0.74216   3
  13  -5 -14 -0.5246 0.83684   3
 -13  -5  14 -1.1524 0.65176   2
  13   5 -14 1.09017 0.68899   3
 -13   5  14 0.22799 0.89180   3
  13   5 -14 0.74435 0.70162   2
 -12  -5  14 4.26142 0.75136   3
 -12  -5  14 6.22204 0.78846   2
  12   5 -14 5.33987 0.74417   3
  12   5 -14 5.48244 0.79635   2
 -12   5  14 3.74865 0.86989   3
 -11  -5  14 -0.6478 0.67166   2
  11  -5 -14 1.21434 0.92699   3
 -11  -5  14 0.55430 0.68605   3
  11   5 -14 0.48320 0.68348   3
  11   5 -14 -0.3390 0.67688   2
 -10  -5  14 10.0164 0.96652   3
 -10  -5  14 11.9627 0.99731   2
  10  -5 -14 12.5901 1.25976   3
 -10   5  14 8.02400 1.02141   3
  10   5 -14 12.1306 1.06983   2
   9  -5 -14 0.57793 1.00670   3
  -9  -5  14 0.89080 0.67584   2
   9   5 -14 0.61808 0.71208   2
  -9   5  14 1.41188 0.87202   3
  -8  -5  14 0.68431 0.61591   2
   8  -5 -14 1.46772 0.91501   3
   8   5 -14 0.31804 0.49985   3
  -8   5  14 0.54264 0.86834   3
   8   5 -14 -0.3518 0.62142   2
   7  -5 -14 4.93238 1.02092   3
  -7  -5  14 3.59335 0.61405   3
  -7  -5  14 5.09649 0.71560   2
  -7   5  14 5.53882 1.02018   3
   7   5 -14 3.44857 0.61212   3
   7   5 -14 5.08187 0.79618   2
  -6  -5  14 8.67186 0.85388   2
  -6  -5  14 7.38450 0.70694   3
   6   5 -14 6.58653 0.69404   3
   6   5 -14 7.78771 0.80895   2
  -5  -5  14 9.79166 0.84616   3
  -5  -5  14 11.0142 0.95239   2
   5   5 -14 10.6199 0.89661   2
   5   5 -14 10.2116 0.85764   3
  -4  -5  14 6.56534 0.71259   2
  -4  -5  14 6.90667 0.66324   3
   4   5 -14 7.43574 0.67826   3
   4   5 -14 7.02757 0.71625   2
  -2  -5  14 13.2079 0.99142   3
  -2  -5  14 13.8653 1.01967   2
   2   5 -14 15.0012 1.09474   3
   2   5 -14 14.4948 1.06879   2
  -1  -5  14 9.90525 0.84996   2
  -1  -5  14 9.40152 0.82433   3
   1   5 -14 10.8021 0.93136   2
   1   5 -14 10.0393 0.84461   3
   0  -5  14 -0.2234 0.54068   3
   0  -5  14 0.42911 0.54929   2
   1  -5  14 0.31297 0.49189   3
   1  -5  14 0.92286 0.55958   2
  -1   5 -14 0.93057 0.52437   3
   2  -5  14 1.43062 0.58666   2
   2  -5  14 1.56326 0.70819   3
  -2   5 -14 1.69374 0.50823   3
  -2   5 -14 2.01980 0.58177   2
   3  -5  14 4.33388 0.76995   3
  -3   5 -14 3.86467 0.66385   2
  -3   5 -14 3.84614 0.66825   3
  -4   5 -14 1.44187 0.55284   3
  -4   5 -14 2.64637 0.64932   2
   5  -5  14 1.86375 0.59334   2
  -5   5 -14 2.28832 0.62514   2
   6  -5  14 1.64622 0.56616   2
  -6   5 -14 1.65392 0.62569   2
   7  -5  14 8.71743 0.82092   2
  -7   5 -14 7.60509 0.82967   2
   8  -5  14 0.36387 0.58689   2
  -8   5 -14 -0.1162 0.64259   2
   9  -5  14 1.06025 0.61075   2
  -9   5 -14 1.38735 0.62309   2
 -14  -6  14 4.96487 0.80259   3
  14   6 -14 2.32569 0.74637   3
 -13  -6  14 5.95048 0.82173   3
  13   6 -14 4.92409 0.79300   3
 -12  -6  14 5.27133 0.70615   3
 -12   6  14 4.00553 0.93072   3
  12   6 -14 3.31181 0.70789   3
 -11  -6  14 0.36024 0.64401   3
 -11   6  14 0.58289 0.85503   3
  11   6 -14 0.29540 0.69996   3
  11   6 -14 0.99224 0.70765   2
 -10  -6  14 2.14775 0.78280   2
 -10  -6  14 3.60380 0.65254   3
  10   6 -14 4.41980 0.70190   3
 -10   6  14 4.15699 0.95175   3
  10   6 -14 3.23479 0.75586   2
  -9  -6  14 0.24041 0.50493   3
  -9  -6  14 -0.2359 0.69172   2
  -8  -6  14 2.04841 0.70557   2
  -8  -6  14 1.96619 0.55904   3
   8   6 -14 1.67829 0.64746   3
  -7  -6  14 -0.1686 0.62603   3
   7   6 -14 -0.3745 0.63446   2
   7   6 -14 -0.1846 0.51913   3
  -6  -6  14 1.34757 0.60645   2
  -6  -6  14 1.73907 0.54328   3
   6   6 -14 0.48556 0.53421   3
   6   6 -14 0.80404 0.60942   2
  -5  -6  14 4.66984 0.63362   3
  -5  -6  14 5.02257 0.69995   2
   5   6 -14 5.21012 0.76068   2
   5   6 -14 4.59768 0.61542   3
  -4  -6  14 1.26088 0.53542   3
   4   6 -14 1.61424 0.53523   3
  -3  -6  14 4.65364 0.66693   3
  -3  -6  14 4.47310 0.65415   2
   3   6 -14 4.78723 0.63501   3
   3   6 -14 3.56403 0.68450   2
  -2  -6  14 11.1389 0.93854   2
  -2  -6  14 11.4878 0.93971   3
   2   6 -14 12.2044 0.96166   3
   2   6 -14 10.9632 0.93038   2
  -1  -6  14 2.42734 0.56357   3
  -1  -6  14 2.10746 0.62055   2
   1   6 -14 3.42072 0.71901   2
   1   6 -14 3.37062 0.59339   3
   0  -6  14 7.86502 0.88274   3
   0  -6  14 5.58886 0.73462   2
   0   6 -14 7.07292 0.80411   2
   1  -6  14 5.29403 0.69330   2
  -1   6 -14 4.90740 0.58599   3
  -1   6 -14 4.80841 0.68244   2
   2  -6  14 -0.5022 0.52734   3
   2  -6  14 0.80695 0.56343   2
  -2   6 -14 0.14382 0.57992   2
  -2   6 -14 0.48823 0.56270   3
   3  -6  14 -0.3742 0.54607   2
  -3   6 -14 -0.5599 0.58892   2
   4  -6  14 3.03665 0.75575   2
  -4   6 -14 3.70183 0.70190   2
   5  -6  14 0.83295 0.56448   2
  -5   6 -14 0.54066 0.67951   2
  -6   6 -14 3.17445 0.63254   2
  -9  -7  14 2.12443 0.60243   3
   9   7 -14 2.68477 0.66167   3
  -8  -7  14 3.56728 0.58764   3
   7   7 -14 7.75073 0.79476   3
  -6  -7  14 12.5042 1.01471   3
   6   7 -14 13.9663 1.08815   3
  -5  -7  14 8.71669 0.77436   3
   5   7 -14 8.83715 0.79141   3
  -4  -7  14 3.33689 0.58464   3
   4   7 -14 2.16602 0.52963   3
  -3  -7  14 -0.2125 0.53770   3
   3   7 -14 -0.1944 0.52280   3
  -2  -7  14 -0.9354 0.53906   3
   2   7 -14 0.98535 0.60504   3
 -22   0  15 -0.6227 0.73991   3
  22   0 -15 -2.0012 0.80295   3
  22   0 -15 -0.1573 0.69919   2
 -22   0  15 1.01840 1.04976   2
  19   0 -15 0.42711 0.83536   3
 -19   0  15 1.41097 0.77614   3
  19   0 -15 0.45160 0.65034   2
 -18   0  15 0.88067 0.79790   3
 -18   0  15 0.37495 0.92565   2
  18   0 -15 -1.3790 0.83982   3
 -17   0  15 -1.3549 0.74530   3
  17   0 -15 -0.0998 0.85067   3
 -16   0  15 0.52220 0.80431   3
  15   0 -15 -0.5449 0.57758   2
 -15   0  15 2.10063 1.05082   2
  15   0 -15 0.37464 0.74189   3
 -14   0  15 -0.1571 0.57616   3
  14   0 -15 0.13293 0.61256   2
  14   0 -15 -0.8020 0.68934   3
  13   0 -15 -0.5044 0.69369   3
  13   0 -15 0.77996 0.51347   2
 -13   0  15 0.89287 0.69339   3
  12   0 -15 -0.2823 0.52535   2
 -12   0  15 -0.7882 1.07019   2
  12   0 -15 0.89180 0.70079   3
 -12   0  15 0.02636 0.66692   3
 -11   0  15 0.39128 1.00558   2
 -11   0  15 -0.5530 0.52149   3
  11   0 -15 0.11339 0.49641   2
  11   0 -15 -0.2554 0.64628   3
  10   0 -15 -0.6664 0.62451   3
  10   0 -15 -0.2008 0.48845   2
 -10   0  15 0.58708 0.92554   2
 -10   0  15 0.25653 0.62089   3
   9   0 -15 -0.1351 0.54482   2
  -9   0  15 -0.6437 0.57200   3
  -9   0  15 -1.4430 0.93960   2
   9   0 -15 -0.3886 0.56117   3
  -8   0  15 -0.2726 0.51792   3
   8   0 -15 0.04330 0.10300   1
   8   0 -15 -0.6025 0.53023   3
  -7   0  15 -0.3210 0.10321   1
   7   0 -15 0.27947 0.11081   1
  -7   0  15 0.52396 0.49409   3
   7   0 -15 -0.3369 0.49169   2
  -6   0  15 0.08441 0.09036   1
   6   0 -15 0.06738 0.41402   2
   6   0 -15 -0.3811 0.53111   3
  -5   0  15 0.02064 0.42796   2
   5   0 -15 -0.6424 0.43381   2
   5   0 -15 0.17008 0.09104   1
   5   0 -15 -0.0493 0.46111   3
  -5   0  15 0.03507 0.09387   1
  -4   0  15 0.31633 0.10170   1
  -4   0  15 -0.4350 0.40572   2
   4   0 -15 -0.3008 0.42074   2
   3   0 -15 -0.0454 0.41854   2
  -3   0  15 0.16880 0.09035   1
   3   0 -15 -0.0417 0.09909   1
  -3   0  15 -0.2134 0.34423   2
   3   0 -15 0.01604 0.07631   1
  -2   0  15 -0.0816 0.07764   1
   2   0 -15 -0.5452 0.45227   2
  -2   0  15 0.31684 0.36502   2
  -2   0  15 0.12357 0.08819   1
  -1   0  15 0.08168 0.09715   1
   1   0 -15 -0.2278 0.42949   2
  -1   0  15 0.35597 0.43422   2
   0   0 -15 0.56631 0.44365   2
   0   0  15 -0.1582 0.44267   2
   1   0  15 0.64749 0.45290   2
  -1   0 -15 0.09522 0.49366   2
  -3   0 -15 0.04767 0.54924   2
   3   0  15 -0.1221 0.47817   2
  -4   0 -15 -0.0237 0.49203   2
   5   0  15 -0.9660 0.52863   2
  -5   0 -15 -1.2232 0.56368   2
   6   0  15 -0.9455 0.58654   2
  -6   0 -15 0.18874 0.59797   2
  -7   0 -15 -0.3535 0.59725   2
   7   0  15 0.50654 0.63915   2
   8   0  15 0.69984 0.69505   2
  -8   0 -15 0.64819 0.69144   2
  -9   0 -15 0.20790 0.74514   2
   9   0  15 -1.3920 0.66358   2
 -22  -1  15 17.0035 1.32003   3
  22  -1 -15 19.9342 1.43545   2
  22  -1 -15 23.7138 1.75506   3
  22   1 -15 18.6254 1.49833   3
  22   1 -15 20.6807 1.46827   2
 -22   1  15 21.5583 1.61286   3
  21  -1 -15 39.0854 2.58153   3
 -21  -1  15 34.7730 2.29664   3
  21  -1 -15 35.7399 2.27223   2
  21   1 -15 35.4037 2.37936   3
 -21   1  15 35.8909 2.35996   3
  21   1 -15 36.3029 2.31703   2
 -20  -1  15 2.26442 0.86781   3
  20  -1 -15 4.05314 0.73052   2
  20  -1 -15 2.36093 0.86587   3
  20   1 -15 3.77316 0.79745   2
  20   1 -15 3.35164 0.95506   3
 -20   1  15 3.89973 0.85281   3
  19  -1 -15 15.0345 1.29163   3
  19  -1 -15 14.6103 1.14944   2
 -19  -1  15 14.8909 1.26343   3
 -19   1  15 14.2597 1.23470   3
  19   1 -15 14.9513 1.27454   3
  19   1 -15 15.9098 1.23853   2
  18  -1 -15 39.2283 2.45821   2
 -18  -1  15 40.2099 2.59605   3
  18   1 -15 40.3237 2.60865   3
 -18   1  15 39.7579 2.58943   3
  18   1 -15 39.9915 2.48880   2
  15  -1 -15 7.68966 0.82456   2
  15  -1 -15 7.15055 0.89561   3
 -15  -1  15 8.23888 0.93807   3
  15   1 -15 9.36077 0.90120   2
 -15   1  15 7.11924 0.88559   3
  14  -1 -15 26.0029 1.68962   2
  14  -1 -15 23.6379 1.65473   3
  14   1 -15 24.5249 1.55657   2
 -14   1  15 23.6202 1.64156   3
  14   1 -15 26.3866 1.79440   3
  13  -1 -15 15.4635 1.21459   3
 -13  -1  15 15.6096 1.22595   3
  13  -1 -15 17.3190 1.20908   2
  13   1 -15 16.1500 1.28601   3
  13   1 -15 17.0762 1.18743   2
 -13   1  15 15.7186 1.24619   3
  12  -1 -15 79.1604 4.85736   3
  12  -1 -15 78.7989 4.64020   2
 -12  -1  15 73.9519 4.52913   3
  12   1 -15 72.1608 4.27139   2
  12   1 -15 70.8650 4.33464   3
 -12   1  15 73.4016 4.49247   3
 -11  -1  15 132.233 7.98497   3
  11   1 -15 127.908 7.45769   2
 -11   1  15 120.546 7.28203   3
  11   1 -15 134.187 8.09257   3
  10  -1 -15 89.8799 5.27123   2
  10  -1 -15 94.7928 5.76518   3
 -10  -1  15 104.417 6.32709   3
 -10   1  15 82.7079 5.04644   3
  10   1 -15 103.655 6.28576   3
  -9  -1  15 167.276 10.0706   3
   9  -1 -15 141.966 8.26409   2
   9  -1 -15 142.303 8.59773   3
   9   1 -15 164.612 9.91877   3
  -9   1  15 127.210 7.66930   3
  -8  -1  15 96.4317 5.82222   3
   8  -1 -15 117.795 6.88461   2
  -8   1  15 101.034 9.41201   1
   8   1 -15 108.751 6.57005   3
  -8   1  15 135.021 8.15214   3
   8   1 -15 103.079 6.02415   2
   7  -1 -15 30.2205 1.85867   2
   7  -1 -15 30.4988 1.97637   3
  -7  -1  15 26.3291 2.45325   1
  -7  -1  15 35.1227 2.24544   3
   7  -1 -15 27.2369 2.54322   1
   7   1 -15 26.2869 2.45527   1
   7   1 -15 28.2003 1.73504   2
   7   1 -15 27.7092 1.78975   3
  -6  -1  15 43.3771 2.60005   2
   6  -1 -15 36.9689 3.45081   1
  -6  -1  15 44.0267 4.09990   1
  -6  -1  15 48.1682 4.48514   1
  -6  -1  15 49.0788 3.03886   3
   6  -1 -15 44.9845 2.79835   3
   6  -1 -15 46.2265 4.30310   1
   6   1 -15 43.1962 4.02684   1
   6   1 -15 43.3752 2.60978   2
  -5  -1  15 43.5917 4.06602   1
   5  -1 -15 40.3082 3.75633   1
   5  -1 -15 41.2165 3.84339   1
  -5  -1  15 45.7199 2.73836   2
  -5  -1  15 45.9682 4.28808   1
  -5   1  15 41.0918 3.83059   1
  -5   1  15 42.7758 3.98862   1
   5   1 -15 37.5416 3.50208   1
  -5   1  15 41.3135 2.47332   2
   5   1 -15 43.6756 2.68892   3
   5   1 -15 42.1688 2.53579   2
   4  -1 -15 17.0978 1.59787   1
  -4  -1  15 18.5941 1.23482   2
   4  -1 -15 14.3173 1.33405   1
   4  -1 -15 16.4026 1.08621   2
  -4  -1  15 17.0289 1.58870   1
  -4  -1  15 15.1798 1.41910   1
   4   1 -15 15.8603 1.48417   1
  -4   1  15 14.2318 1.32938   1
   4   1 -15 18.7457 1.21900   3
  -4   1  15 18.3316 1.71331   1
  -3  -1  15 67.9201 6.32606   1
   3  -1 -15 72.4417 4.27227   2
  -3  -1  15 72.2860 6.73512   1
   3  -1 -15 75.4050 7.02017   1
   3  -1 -15 59.9911 5.58572   1
  -3  -1  15 60.2397 3.55451   2
  -3   1  15 58.7788 3.47010   2
   3   1 -15 63.8346 5.94594   1
  -3   1  15 57.6703 5.36898   1
  -3   1  15 69.6199 6.48145   1
   3   1 -15 72.8356 4.30037   2
   3   1 -15 60.6892 3.69152   3
  -2  -1  15 28.0183 2.61507   1
  -2  -1  15 26.5610 1.63682   2
   2  -1 -15 23.1049 2.15525   1
   2  -1 -15 28.4791 1.73472   2
  -2   1  15 27.3813 2.55029   1
  -2   1  15 28.6473 2.66796   1
   2   1 -15 29.3365 1.82321   2
  -1  -1  15 80.3940 4.70978   2
   1  -1 -15 87.2265 5.11585   2
  -1   1  15 68.3391 6.36537   1
   1   1 -15 76.5247 4.50732   2
   0  -1  15 185.266 10.7666   2
   0  -1 -15 207.699 12.0672   2
   0   1 -15 188.003 10.9436   2
  -1  -1 -15 131.014 7.63638   2
   1  -1  15 120.119 7.00408   2
  -1   1 -15 120.907 7.05037   2
  -2  -1 -15 34.4564 2.10400   2
   2  -1  15 41.6720 2.53328   2
  -2   1 -15 40.8055 2.48211   2
   3  -1  15 75.6889 4.45518   2
  -3   1 -15 75.0659 4.44562   2
   4  -1  15 76.9590 4.55520   2
  -4   1 -15 73.5013 4.36372   2
   5  -1  15 0.50561 0.55477   2
  -5   1 -15 1.13354 0.58633   2
   6  -1  15 0.76334 0.57713   2
  -6   1 -15 0.74782 0.58363   2
   7  -1  15 8.50463 0.82853   2
  -7   1 -15 8.48063 0.81024   2
   8  -1  15 4.89754 0.71581   2
  -9   1 -15 24.5412 1.68611   2
  10  -1  15 7.95057 0.85259   2
 -10   1 -15 9.46480 1.00343   2
  11  -1  15 14.4661 1.11928   2
 -11   1 -15 14.0133 1.19291   2
  20  -2 -15 1.51731 0.64267   2
  20  -2 -15 -0.4841 0.79893   3
 -20  -2  15 1.72398 0.80887   3
  20   2 -15 1.30747 0.82986   3
 -20   2  15 -0.2435 0.77676   3
 -20   2  15 0.60538 0.95898   2
  20   2 -15 0.89360 0.69491   2
 -19  -2  15 7.91039 1.45685   2
  19  -2 -15 3.95350 0.72068   2
 -19  -2  15 3.88270 0.78701   3
  19   2 -15 4.85692 0.75140   2
 -19   2  15 4.19837 0.75645   3
  19   2 -15 3.52365 0.80892   3
  18  -2 -15 61.9541 3.87712   3
 -18  -2  15 61.2736 3.81694   3
  18  -2 -15 62.0972 3.71857   2
  18   2 -15 61.7815 3.71010   2
  18   2 -15 57.7194 3.62454   3
 -17  -2  15 35.2230 2.32626   3
  17  -2 -15 38.6121 2.53237   3
  17  -2 -15 39.1982 2.45758   2
  17   2 -15 37.0678 2.31047   2
 -17   2  15 34.6587 2.29518   3
  17   2 -15 32.2781 2.17555   3
 -16  -2  15 15.7488 1.55290   2
  16  -2 -15 13.0296 1.14770   3
  16  -2 -15 14.2615 1.10833   2
 -16  -2  15 12.6914 1.13610   3
 -16   2  15 13.3288 1.13105   3
  16   2 -15 13.5049 1.07400   2
  16   2 -15 10.4220 1.07946   3
  15  -2 -15 91.3215 5.58024   3
 -15  -2  15 96.5840 5.90426   3
  15  -2 -15 94.2052 5.56788   2
  15   2 -15 89.4806 5.47868   3
  15   2 -15 96.3644 5.69203   2
 -15   2  15 85.9381 5.25353   3
 -14  -2  15 113.280 6.86806   3
  14  -2 -15 136.516 7.98980   2
  14  -2 -15 145.257 8.78007   3
 -14   2  15 147.041 8.90529   3
  14   2 -15 133.676 7.82242   2
  13  -2 -15 81.5559 5.01852   3
  13   2 -15 70.2855 4.17820   2
 -13   2  15 73.1929 4.51078   3
  13   2 -15 80.0682 4.90258   3
 -12  -2  15 26.2867 1.74775   3
  12  -2 -15 30.4325 2.00849   3
 -12   2  15 28.5578 1.88661   3
  12   2 -15 28.9955 1.91657   3
  12   2 -15 27.8418 1.77466   2
  11  -2 -15 10.8147 0.88540   2
 -11  -2  15 10.3822 0.94341   3
  11  -2 -15 10.6414 1.02124   3
 -11   2  15 12.1836 1.06974   3
  11   2 -15 10.8444 0.97414   3
  11   2 -15 11.9738 0.93562   2
  10  -2 -15 8.04345 0.91093   3
 -10  -2  15 7.17750 0.80397   3
  10   2 -15 8.24190 0.74474   2
  10   2 -15 8.12977 0.85357   3
 -10   2  15 7.71730 0.87123   3
  -9  -2  15 10.7690 0.93670   3
   9  -2 -15 10.4242 0.83618   2
   9   2 -15 8.88723 0.86264   3
   9   2 -15 11.5734 0.88121   2
  -9   2  15 8.02410 1.05108   2
  -8  -2  15 68.9665 4.22378   3
   8  -2 -15 70.0528 4.13338   2
   8  -2 -15 70.1051 4.31237   3
   8   2 -15 69.0444 4.08252   2
  -7  -2  15 130.810 7.87741   3
   7  -2 -15 130.784 7.61147   2
   7  -2 -15 120.054 7.25592   3
  -7  -2  15 123.526 7.19761   2
   7   2 -15 126.619 7.38603   2
   7   2 -15 126.171 7.59381   3
  -7   2  15 115.682 6.98250   3
   6  -2 -15 213.076 12.7863   3
  -6  -2  15 197.025 11.4232   2
  -6  -2  15 188.057 11.3026   3
   6   2 -15 195.212 11.3485   2
   6   2 -15 206.965 12.4167   3
  -5  -2  15 172.525 10.3616   3
  -5  -2  15 162.356 9.45317   2
   5   2 -15 170.601 10.2629   3
   5   2 -15 167.298 9.74595   2
  -4  -2  15 134.508 7.84391   2
   4   2 -15 134.796 7.84871   2
   4   2 -15 163.378 9.82324   3
  -3  -2  15 155.152 9.01929   2
  -3  -2  15 149.751 8.99675   3
   3   2 -15 148.774 8.94594   3
  -2  -2  15 150.899 8.78981   2
   2   2 -15 139.675 8.39949   3
  -1  -2  15 50.4609 3.01205   2
   1   2 -15 53.1970 3.16359   2
   0   2 -15 19.4022 1.27835   2
  -1   2 -15 6.71522 0.62351   2
   2  -2  15 4.86309 0.56860   2
  -2   2 -15 4.12804 0.55816   2
   3  -2  15 20.6386 1.35428   2
  -3   2 -15 21.4251 1.40691   2
   4  -2  15 48.1670 2.92572   2
  -4   2 -15 49.8956 3.00903   2
   5  -2  15 64.2080 3.82656   2
  -5   2 -15 65.3376 3.91197   2
   6  -2  15 65.5762 3.92139   2
  -6   2 -15 71.3657 4.26184   2
   7  -2  15 81.6119 4.83864   2
  -7   2 -15 80.3767 4.76003   2
   8  -2  15 118.561 6.96018   2
   9  -2  15 12.7331 1.03326   2
  -9   2 -15 12.6461 1.05669   2
  10  -2  15 10.3570 0.91858   2
 -10   2 -15 10.5257 0.99332   2
  11  -2  15 7.44417 0.82096   2
 -11   2 -15 7.11706 0.86615   2
 -21   3  15 3.80669 0.78871   3
  21   3 -15 2.33255 0.77268   3
 -20  -3  15 4.51583 0.82814   3
 -20  -3  15 0.55373 1.20508   2
  20   3 -15 5.57306 0.96674   3
  20   3 -15 4.81870 0.86020   2
 -20   3  15 3.50811 0.87602   3
  19  -3 -15 4.88923 0.93322   3
 -19  -3  15 5.55529 0.86096   3
  19   3 -15 4.35950 0.88730   3
  19   3 -15 4.36493 0.78184   2
  18  -3 -15 4.21628 0.92218   3
  18  -3 -15 4.31304 0.70992   2
 -18  -3  15 4.02903 0.80599   3
  18   3 -15 3.01907 0.79876   2
 -18   3  15 2.74186 0.79532   3
 -18   3  15 -0.6246 1.03632   2
  18   3 -15 1.89813 0.80752   3
  17  -3 -15 8.40386 0.83921   2
 -17  -3  15 9.03329 0.97993   3
  17  -3 -15 8.75169 1.09205   3
  17   3 -15 12.4465 1.19537   2
 -17   3  15 9.17347 1.05572   3
  17   3 -15 8.41630 1.01062   3
 -16  -3  15 4.91084 0.80478   3
 -16  -3  15 0.27710 1.34795   2
  16  -3 -15 4.41632 0.87073   3
  16   3 -15 5.78821 0.84917   3
 -16   3  15 4.32044 0.81963   3
 -16   3  15 1.34716 1.08358   2
  15  -3 -15 12.2345 1.15519   3
  15  -3 -15 12.1817 1.00691   2
 -15  -3  15 11.1852 1.05714   3
  15   3 -15 10.8765 1.10657   3
 -15   3  15 10.0948 1.04949   3
  14  -3 -15 5.02867 0.86911   3
  14  -3 -15 4.38544 0.69619   2
 -14  -3  15 5.67243 0.81907   3
  14   3 -15 4.67867 0.73063   2
  14   3 -15 5.11253 0.81573   3
 -14   3  15 4.06821 0.81889   3
  13  -3 -15 0.99719 0.65275   2
 -13  -3  15 -0.2524 0.72204   3
  13  -3 -15 0.15767 0.78056   3
 -13   3  15 0.12990 0.83805   2
 -13   3  15 1.58649 0.71402   3
  13   3 -15 -0.1320 0.60824   2
  12  -3 -15 14.8884 1.11695   2
  12  -3 -15 14.2156 1.24868   3
  12   3 -15 13.5475 1.00571   2
 -12   3  15 14.4712 1.18916   3
  12   3 -15 14.4028 1.14430   3
 -11  -3  15 20.0156 1.43192   3
  11  -3 -15 19.5270 1.50451   3
  11   3 -15 18.0206 1.21431   2
 -11   3  15 21.4152 1.54387   3
  11   3 -15 20.3648 1.42955   3
 -10  -3  15 29.0403 1.89888   3
  10   3 -15 28.0820 1.80024   2
  10   3 -15 30.9416 2.00945   3
 -10   3  15 27.8261 1.86548   3
  -9  -3  15 18.9697 1.35736   3
   9  -3 -15 17.8829 1.35427   3
  -9  -3  15 17.6529 1.21106   2
   9   3 -15 18.1274 1.31094   3
   9   3 -15 18.0225 1.21998   2
   8  -3 -15 11.0643 1.03985   3
  -8  -3  15 11.6755 0.97506   3
  -8  -3  15 10.5587 0.81350   2
  -8   3  15 10.1103 0.90272   3
   8   3 -15 13.0860 1.00055   3
   8   3 -15 11.1758 0.87466   2
   7  -3 -15 47.3552 2.99022   3
  -7  -3  15 47.8377 2.96082   3
  -7  -3  15 45.1079 2.72961   2
   7   3 -15 47.2181 2.84839   2
   7   3 -15 49.7459 3.06171   3
  -6  -3  15 19.7387 1.34972   3
  -6  -3  15 17.8177 1.20789   2
   6   3 -15 18.1659 1.22986   2
   6   3 -15 21.5976 1.43793   3
  -5  -3  15 14.4214 1.07515   3
  -5  -3  15 13.3159 0.96326   2
   5   3 -15 15.5417 1.11784   3
   5   3 -15 13.8052 1.01062   2
  -4  -3  15 11.7608 0.90077   3
  -4  -3  15 10.6723 0.84040   2
   4   3 -15 12.5583 1.02299   2
   4   3 -15 10.9489 0.84134   3
  -3  -3  15 5.46998 0.57545   2
   3   3 -15 4.99116 0.53960   3
   3   3 -15 5.01384 0.55419   2
  -2  -3  15 14.3864 1.01340   2
   2   3 -15 14.5629 1.02580   2
   2   3 -15 13.7704 0.96496   3
  -1  -3  15 12.8916 0.90371   3
  -1  -3  15 16.1705 1.13207   2
   1   3 -15 17.9841 1.21664   2
   1   3 -15 15.4208 1.06947   3
   0  -3  15 20.5420 1.33338   2
   0   3 -15 21.7246 1.40639   3
   0   3 -15 20.1349 1.31759   2
   1  -3  15 38.9021 2.36754   2
  -1   3 -15 42.8892 2.61185   2
   2  -3  15 27.1290 1.71023   2
  -2   3 -15 29.9153 1.87575   2
   3  -3  15 15.2544 1.12763   2
  -3   3 -15 13.0384 0.99894   2
   4  -3  15 8.06373 0.78875   2
   5  -3  15 8.21388 0.77713   2
  -6   3 -15 6.00227 0.71377   2
  -7   3 -15 -0.4744 0.57381   2
   8  -3  15 1.91416 0.60649   2
  -8   3 -15 2.30601 0.61725   2
   9  -3  15 0.26129 0.57468   2
  -9   3 -15 -0.2789 0.64260   2
  10  -3  15 5.56147 0.71517   2
 -10   3 -15 6.70410 0.80917   2
  11  -3  15 1.43892 0.58827   2
 -11   3 -15 2.82747 0.65678   2
 -19  -4  15 1.00053 0.76204   3
  19  -4 -15 -0.7513 0.85410   3
  19   4 -15 -0.1961 0.83614   3
 -19   4  15 0.33471 0.73646   3
  18  -4 -15 5.83726 1.01551   3
 -18  -4  15 4.17841 0.73337   3
  18   4 -15 2.62510 0.83682   3
 -18   4  15 4.10850 0.87238   3
  18   4 -15 3.07098 0.69739   2
  17  -4 -15 12.0285 1.16742   3
 -17  -4  15 11.6669 1.07030   3
  17   4 -15 10.5177 1.06960   3
 -17   4  15 11.1601 1.09499   3
  17   4 -15 9.61875 0.90489   2
 -16  -4  15 0.20546 0.73461   3
  16  -4 -15 -0.1543 0.82057   3
 -16  -4  15 -0.0831 1.46799   2
  16   4 -15 1.49429 0.79546   3
 -16   4  15 1.59499 0.79996   3
  16   4 -15 0.74701 0.70414   2
  15  -4 -15 4.11613 0.89431   3
 -15  -4  15 5.18710 0.85191   3
 -15   4  15 5.53287 0.88461   3
  15   4 -15 5.06322 0.87136   3
  15   4 -15 4.94344 0.79190   2
 -14  -4  15 10.9259 1.05227   3
  14  -4 -15 11.3957 1.12482   3
  14   4 -15 14.2153 1.14277   2
  14   4 -15 13.2457 1.17296   3
 -14   4  15 11.0639 1.04418   3
  13  -4 -15 2.19380 0.90146   3
 -13  -4  15 2.26303 1.07885   2
 -13  -4  15 2.49721 0.72155   3
  13   4 -15 1.20429 0.78537   2
  13   4 -15 2.68748 0.71280   3
 -13   4  15 2.05567 0.77163   3
 -12  -4  15 0.19516 0.64412   3
 -12   4  15 0.98255 0.71185   3
  12   4 -15 2.06272 0.77546   2
 -11  -4  15 -0.5456 0.58020   2
  11  -4 -15 -1.4558 0.82940   3
  11   4 -15 1.29880 0.65177   3
  11   4 -15 0.99852 0.62747   2
 -10  -4  15 7.37987 0.79708   3
  10  -4 -15 8.04922 1.02883   3
 -10  -4  15 10.0385 0.97015   2
  10   4 -15 9.95628 0.93532   2
  10   4 -15 7.75247 0.81529   3
 -10   4  15 10.6313 1.19328   3
   9  -4 -15 0.13553 0.83498   3
  -9  -4  15 -0.4530 0.59638   2
  -9  -4  15 0.75264 0.57710   3
   9   4 -15 -0.1542 0.60574   3
  -9   4  15 -0.8709 0.84195   3
   8  -4 -15 9.04887 1.02839   3
  -8  -4  15 10.7364 0.92801   3
  -8  -4  15 9.84403 0.85432   2
   8   4 -15 10.6629 0.89161   3
  -8   4  15 8.22473 1.02218   3
  -7  -4  15 9.51497 0.87895   3
   7   4 -15 9.52926 0.79407   2
   7   4 -15 10.6454 0.92782   3
  -6  -4  15 1.04916 0.57713   3
   6   4 -15 1.54854 0.48657   2
   6   4 -15 0.77170 0.52439   3
  -5  -4  15 21.0283 1.42302   3
  -5  -4  15 20.5753 1.35878   2
   5   4 -15 21.7791 1.43732   2
   5   4 -15 23.7181 1.56748   3
  -4  -4  15 17.1523 1.15827   2
  -4  -4  15 17.0725 1.18168   3
   4   4 -15 18.7506 1.27375   2
   4   4 -15 17.6505 1.23948   3
  -3  -4  15 7.66862 0.70531   2
   3   4 -15 7.57828 0.68781   2
   3   4 -15 8.34168 0.72207   3
  -2  -4  15 5.02257 0.58438   2
   2   4 -15 4.36674 0.58711   2
   2   4 -15 3.35622 0.51434   3
  -1  -4  15 1.62948 0.57136   2
  -1  -4  15 0.70746 0.55942   3
   1   4 -15 1.05736 0.52603   2
   1   4 -15 0.98594 0.48210   3
   0  -4  15 -0.2552 0.58797   2
   0   4 -15 -0.2215 0.46307   3
   0   4 -15 -0.3011 0.58713   2
   1  -4  15 7.99548 0.77742   2
  -1   4 -15 8.25464 0.73692   3
  -1   4 -15 9.09889 0.84362   2
   2  -4  15 13.5534 1.03783   2
  -2   4 -15 11.9624 0.95703   2
  -2   4 -15 8.59764 0.68683   3
   4  -4  15 8.16569 0.79868   2
  -4   4 -15 7.50160 0.80635   2
   5  -4  15 10.2097 0.87207   2
  -5   4 -15 10.7939 0.92498   2
   6  -4  15 -0.0995 0.54473   2
  -6   4 -15 -0.3641 0.58723   2
   7  -4  15 1.65029 0.58718   2
  -7   4 -15 1.64953 0.63348   2
   8  -4  15 7.04291 0.75069   2
  -8   4 -15 7.40182 0.81253   2
   9  -4  15 0.91125 0.55255   2
  -9   4 -15 1.31529 0.67648   2
  10  -4  15 0.55439 0.55886   2
 -17  -5  15 5.41713 0.87583   3
  17   5 -15 6.26110 0.90585   3
  16  -5 -15 0.25447 0.78388   3
 -16  -5  15 -0.5082 0.72681   3
 -16   5  15 0.98848 0.69910   3
  16   5 -15 1.49299 0.79389   3
 -15  -5  15 0.80088 0.71590   3
  15  -5 -15 0.40842 0.87057   3
 -15  -5  15 0.80994 0.59616   2
 -15   5  15 1.51801 0.74510   3
  15   5 -15 1.90299 0.72189   2
  15   5 -15 0.12496 0.74235   3
 -14  -5  15 3.93338 0.70669   2
 -14  -5  15 5.54392 0.81336   3
 -14   5  15 4.22019 0.76127   3
 -14   5  15 3.94847 0.92320   3
  14   5 -15 3.53116 0.76128   2
  14   5 -15 4.74060 0.78245   3
 -13  -5  15 3.01500 0.72565   3
 -13  -5  15 2.52117 0.70790   2
  13  -5 -15 2.66570 0.96839   3
 -13   5  15 2.80636 1.09467   3
  13   5 -15 2.51968 0.75847   2
  13   5 -15 3.56920 0.73473   3
  12  -5 -15 6.96313 1.00450   3
 -12  -5  15 6.72325 0.87357   3
 -12  -5  15 7.50113 0.85203   2
  12   5 -15 7.14957 0.88002   2
  12   5 -15 7.30888 0.87381   3
 -11  -5  15 54.1695 3.37021   3
  11  -5 -15 57.9173 3.69763   3
 -11   5  15 53.1190 3.41138   3
   9  -5 -15 27.6984 2.03143   3
  -9  -5  15 22.5548 1.56667   3
  -9  -5  15 29.9821 1.99984   2
   9   5 -15 21.3395 1.45102   3
  -9   5  15 21.0791 1.62211   3
  -8  -5  15 39.3611 2.45808   2
   8   5 -15 35.1728 2.22677   2
  -7  -5  15 5.07895 0.69854   2
  -7  -5  15 5.16741 0.68341   3
   7   5 -15 5.37795 0.70017   2
   7   5 -15 4.93102 0.66301   3
  -6  -5  15 7.84200 0.81286   2
  -6  -5  15 8.57544 0.87314   3
   6   5 -15 8.24391 0.82861   2
   6   5 -15 7.74051 0.75539   3
  -5  -5  15 0.91623 0.56260   3
  -5  -5  15 0.47342 0.61979   2
   5   5 -15 1.14528 0.52690   3
   5   5 -15 0.28874 0.56294   2
  -4  -5  15 7.23469 0.75266   3
   4   5 -15 6.98059 0.71373   3
  -3  -5  15 7.94496 0.80980   2
  -3  -5  15 8.96393 0.80806   3
   3   5 -15 8.23878 0.84546   2
   3   5 -15 8.12976 0.75812   3
  -2  -5  15 15.3675 1.16726   3
  -2  -5  15 15.7607 1.18487   2
  -1  -5  15 14.5118 1.11400   2
   1   5 -15 14.8051 1.07709   3
   0  -5  15 24.7326 1.67164   3
   0  -5  15 23.4312 1.54489   2
   0   5 -15 24.5337 1.63033   3
   1  -5  15 26.6176 1.77267   3
  -1   5 -15 25.6041 1.67535   2
  -1   5 -15 26.0201 1.71704   3
   2  -5  15 19.0914 1.33966   3
  -2   5 -15 18.5483 1.30054   3
  -2   5 -15 19.7055 1.35826   2
   3  -5  15 19.4443 1.34637   2
  -3   5 -15 19.2748 1.34415   2
   4  -5  15 16.0597 1.13952   2
  -4   5 -15 15.9450 1.19564   2
   5  -5  15 3.22912 0.65329   2
  -5   5 -15 4.33039 0.65801   2
   6  -5  15 0.46568 0.59297   2
  -6   5 -15 0.61882 0.62737   2
   7  -5  15 0.81288 0.59595   2
  -7   5 -15 0.04824 0.55579   2
   8  -5  15 2.21854 0.61796   2
  -8   5 -15 2.45945 0.58813   2
 -14  -6  15 15.7583 1.21743   3
  14   6 -15 16.0098 1.25173   3
 -13  -6  15 4.13907 0.74198   3
  13   6 -15 2.84711 0.71078   3
 -12  -6  15 0.45060 0.69402   3
  12   6 -15 -0.3739 0.74555   3
 -11  -6  15 0.27772 0.61108   3
  11   6 -15 0.70669 0.73274   2
  11   6 -15 1.51274 0.73126   3
 -10  -6  15 0.56554 0.67567   2
 -10  -6  15 0.20215 0.54365   3
   9   6 -15 1.06526 0.67891   2
   9   6 -15 0.96882 0.61584   3
  -8  -6  15 1.36602 0.55752   3
   8   6 -15 1.07632 0.57999   3
  -7  -6  15 4.68010 0.73540   2
  -7  -6  15 4.46219 0.61668   3
   7   6 -15 4.49186 0.70355   2
   7   6 -15 3.91023 0.59280   3
  -6  -6  15 10.3942 0.90797   3
   6   6 -15 11.1846 0.91486   3
  -5  -6  15 10.4878 0.93860   2
  -5  -6  15 10.7474 0.96060   3
   5   6 -15 9.72799 0.82052   3
   5   6 -15 9.40766 0.94554   2
  -4  -6  15 2.93997 0.56366   3
  -4  -6  15 3.03815 0.57906   2
   4   6 -15 3.01281 0.61893   2
   4   6 -15 2.60629 0.56375   3
  -3  -6  15 22.6449 1.51817   2
  -3  -6  15 20.5655 1.40267   3
   3   6 -15 23.8724 1.60578   2
   3   6 -15 21.7165 1.48293   3
  -2  -6  15 23.6921 1.58920   3
  -2  -6  15 24.1045 1.60223   2
   2   6 -15 24.2207 1.61187   3
   2   6 -15 23.2395 1.59024   2
  -1  -6  15 2.05209 0.54588   3
  -1  -6  15 3.63326 0.67519   2
   0  -6  15 1.23029 0.54145   3
   0  -6  15 2.38810 0.65919   2
   0   6 -15 2.48730 0.70237   2
   0   6 -15 2.48641 0.57725   3
   2  -6  15 0.78700 0.62335   2
  -2   6 -15 1.01212 0.63854   2
   3  -6  15 5.41743 0.72259   2
  -3   6 -15 4.74436 0.73275   2
   4  -6  15 -0.1709 0.67496   2
  -4   6 -15 0.16560 0.59960   2
  -7  -7  15 1.13464 0.56296   3
  -6  -7  15 0.76429 0.57658   3
   6   7 -15 1.60117 0.65154   3
  -5  -7  15 0.06463 0.49773   3
  22   0 -16 22.4629 1.64110   3
  22   0 -16 24.7784 1.65190   2
 -22   0  16 23.6700 1.68385   3
 -20   0  16 13.8546 1.18605   3
  20   0 -16 15.9439 1.32047   3
 -19   0  16 73.5036 4.53182   3
  19   0 -16 76.3565 4.70009   3
  18   0 -16 39.5431 2.45592   2
 -18   0  16 42.5855 2.74840   3
  17   0 -16 58.4491 3.52252   2
  17   0 -16 60.3347 3.78207   3
 -16   0  16 30.4118 2.07956   3
  16   0 -16 29.9987 1.91868   2
  16   0 -16 29.4878 1.96238   3
  15   0 -16 26.2273 1.79023   3
 -15   0  16 26.0641 1.81241   3
  15   0 -16 25.4319 1.66868   2
  14   0 -16 64.3234 3.98068   3
 -14   0  16 65.9156 4.09568   3
  14   0 -16 61.1057 3.65209   2
 -13   0  16 24.4101 1.71439   3
  13   0 -16 23.3446 1.51753   2
  13   0 -16 24.1370 1.64979   3
  12   0 -16 21.8164 1.50185   3
  12   0 -16 20.2684 1.36342   2
 -12   0  16 20.0094 1.45448   3
  11   0 -16 30.8708 2.02440   3
  11   0 -16 33.3083 2.05973   2
 -11   0  16 31.5967 2.05915   3
  10   0 -16 274.417 15.8944   2
  10   0 -16 270.157 16.1910   3
 -10   0  16 267.217 16.0244   3
   9   0 -16 98.3203 5.78328   2
  -9   0  16 107.241 6.29758   2
   8   0 -16 162.372 9.44367   2
  -8   0  16 161.396 9.70343   3
   7   0 -16 229.932 13.3488   2
   7   0 -16 259.521 15.5638   3
   6   0 -16 198.911 11.9417   3
  -6   0  16 217.807 12.6594   2
   6   0 -16 214.052 12.4365   2
   5   0 -16 95.7815 5.61054   2
  -5   0  16 89.3905 8.32426   1
  -5   0  16 108.336 6.32658   2
  -4   0  16 16.9603 1.12042   2
  -4   0  16 17.0232 1.59291   1
   4   0 -16 19.2745 1.26972   2
  -3   0  16 76.4244 4.49641   2
   3   0 -16 89.4603 5.24644   2
  -2   0  16 0.04164 0.38376   2
   2   0 -16 0.75284 0.42127   2
   1   0 -16 23.8306 1.52768   2
  -1   0  16 25.0647 1.61387   2
  -1   0 -16 53.5331 3.22205   2
   1   0  16 52.7229 3.14778   2
  -2   0 -16 152.459 8.89390   2
  -3   0 -16 292.125 16.9571   2
   3   0  16 297.949 17.2697   2
  -4   0 -16 17.5124 1.23912   2
   4   0  16 19.2688 1.31234   2
  -5   0 -16 76.7575 4.56681   2
   5   0  16 82.0709 4.87177   2
   6   0  16 92.2131 5.45794   2
  -6   0 -16 87.9252 5.21395   2
   7   0  16 2.12525 0.68784   2
  -7   0 -16 4.14235 0.77757   2
  -8   0 -16 6.79769 0.87964   2
  22  -1 -16 8.43218 1.07891   3
 -22  -1  16 5.52422 0.83164   3
 -22  -1  16 2.62482 1.23579   2
  22   1 -16 8.33971 0.91048   2
  22   1 -16 4.66707 0.91614   3
 -22   1  16 6.99535 0.99418   3
 -21  -1  16 5.26587 1.36262   2
 -21  -1  16 4.17969 0.80830   3
  21  -1 -16 3.96037 0.89874   3
  21  -1 -16 4.57316 0.76368   2
  21   1 -16 3.77100 0.84069   3
 -21   1  16 2.41024 0.78997   3
  21   1 -16 3.53525 0.78433   2
 -21   1  16 4.40275 1.17967   2
 -20  -1  16 5.49815 0.86825   3
  20  -1 -16 4.21720 0.73784   2
  20  -1 -16 4.83597 0.93586   3
 -20  -1  16 2.85415 1.51521   2
 -20   1  16 4.98741 0.92367   3
 -20   1  16 2.66788 1.12314   2
  20   1 -16 3.55580 0.93792   3
  20   1 -16 5.00868 0.78471   2
 -19  -1  16 4.87528 0.89874   3
  19  -1 -16 3.98048 0.73898   2
  19   1 -16 5.09920 0.78512   2
 -19   1  16 3.54089 0.85395   3
  19   1 -16 4.51977 0.90907   3
  17  -1 -16 0.29057 0.64375   2
  17  -1 -16 0.64600 0.78967   3
 -17  -1  16 0.17950 0.70526   3
  17   1 -16 0.02138 0.71420   2
 -17   1  16 1.05542 0.75608   3
  16  -1 -16 48.2702 2.93968   2
  16  -1 -16 46.8298 2.98825   3
 -16   1  16 47.6269 3.00725   3
  16   1 -16 46.5794 2.97617   3
  16   1 -16 47.4516 2.88872   2
  15  -1 -16 18.0627 1.39792   3
  15  -1 -16 19.6815 1.34562   2
  15   1 -16 18.2009 1.29760   2
  15   1 -16 17.9689 1.36116   3
 -15   1  16 18.5658 1.40088   3
  14  -1 -16 30.1191 1.92935   2
 -14  -1  16 31.6978 2.13602   3
  14  -1 -16 32.3501 2.13919   3
 -14   1  16 30.0457 2.01352   3
  14   1 -16 30.4139 2.05810   3
  14   1 -16 29.1248 1.84311   2
 -13  -1  16 67.8292 4.21272   3
  13  -1 -16 61.0246 3.78723   3
  13  -1 -16 60.3333 3.61313   2
 -13   1  16 55.5569 3.44103   3
  13   1 -16 59.5966 3.54533   2
  13   1 -16 61.4866 3.83335   3
  12  -1 -16 10.4133 0.89026   2
 -12  -1  16 9.90663 1.03582   3
  12  -1 -16 9.01874 0.95466   3
  12   1 -16 10.4812 1.05401   3
 -12   1  16 9.20714 0.91417   3
  11  -1 -16 94.9690 5.78626   3
  11  -1 -16 85.5845 5.05379   2
 -11  -1  16 108.105 6.55971   3
 -11   1  16 107.404 6.51389   3
  11   1 -16 105.857 6.43230   3
 -10  -1  16 42.5650 2.70662   3
  10  -1 -16 38.4340 2.35857   2
  10  -1 -16 38.1256 2.44865   3
 -10   1  16 38.2478 2.42614   3
  10   1 -16 35.4312 2.18323   2
   9  -1 -16 26.1716 1.67730   2
  -9  -1  16 22.0429 1.45921   3
   9   1 -16 24.0657 1.59860   3
   9   1 -16 24.8851 1.57930   2
  -9   1  16 25.6639 1.71581   3
   8  -1 -16 13.6980 1.00620   2
   8  -1 -16 12.4980 1.02954   3
   8   1 -16 12.7933 0.91096   2
  -7  -1  16 20.2569 1.31965   2
  -7  -1  16 22.7518 1.53032   3
   7  -1 -16 20.0565 1.37228   3
   7   1 -16 20.1962 1.32144   2
  -6  -1  16 0.43874 0.50546   2
   6  -1 -16 1.01391 0.43804   2
   6   1 -16 -0.1882 0.54353   3
   6   1 -16 -0.1549 0.43328   2
  -5  -1  16 61.5318 3.64553   2
   5  -1 -16 64.3669 3.78866   2
   5   1 -16 63.2609 3.76124   2
   5   1 -16 69.4006 4.20508   3
   4  -1 -16 96.7806 5.67136   2
  -4  -1  16 88.4801 5.18484   2
   4   1 -16 89.1524 5.24018   2
  -4   1  16 95.9420 5.60161   2
   4   1 -16 83.1418 5.03699   3
   3  -1 -16 71.9518 4.24243   2
   3   1 -16 76.7975 4.52270   2
  -2  -1  16 77.5324 4.57043   2
   2  -1 -16 82.6834 4.85998   2
   2   1 -16 76.5376 4.49684   2
  -1  -1  16 65.4912 3.88416   2
   1  -1 -16 53.2783 3.16003   2
   1   1 -16 60.8558 3.61128   2
   0  -1  16 73.2281 4.33172   2
   0  -1 -16 76.9382 4.55538   2
   0   1 -16 66.1191 3.92732   2
   1  -1  16 1.37176 0.50894   2
  -1   1 -16 0.86703 0.48595   2
   2  -1  16 31.4099 1.94500   2
  -2   1 -16 30.1403 1.89229   2
   3  -1  16 5.81882 0.66246   2
  -3   1 -16 6.75891 0.72530   2
   4  -1  16 2.35662 0.62222   2
  -4   1 -16 1.58569 0.62715   2
   5  -1  16 0.57809 0.55500   2
  -5   1 -16 -0.2097 0.59045   2
   6  -1  16 30.1096 1.94522   2
   7  -1  16 3.74226 0.74155   2
  -8   1 -16 15.0702 1.17466   2
   9  -1  16 30.1588 1.95731   2
  -9   1 -16 30.2970 2.03211   2
  10  -1  16 10.2425 0.93500   2
 -10   1 -16 8.83359 0.95387   2
 -21  -2  16 0.35045 0.79863   3
  21   2 -16 0.77467 0.66298   2
  21   2 -16 -0.0983 0.89243   3
 -21   2  16 0.63135 0.85487   3
 -20  -2  16 2.21013 0.80131   3
  20  -2 -16 1.60291 0.69252   2
  20   2 -16 1.27170 0.79557   3
  20   2 -16 1.70543 0.71448   2
 -20   2  16 2.06542 0.77527   3
 -19  -2  16 0.88515 0.77905   3
  19  -2 -16 1.24865 0.69358   2
  19  -2 -16 0.69927 0.82236   3
  19   2 -16 1.19577 0.66330   2
  19   2 -16 -0.1008 0.77592   3
  15  -2 -16 2.26689 0.84961   3
 -15  -2  16 1.52568 0.83927   3
  15   2 -16 3.53693 0.75753   2
  15   2 -16 1.12225 0.84184   3
 -15   2  16 1.56250 0.83180   3
  13  -2 -16 0.65028 0.62431   2
  13  -2 -16 0.15223 0.78153   3
 -13  -2  16 -0.3890 0.71327   3
 -13   2  16 -0.5155 0.71892   2
  13   2 -16 -1.1828 0.57653   2
  13   2 -16 0.45442 0.66658   3
 -13   2  16 0.00000 0.68551   3
  12  -2 -16 3.79660 0.83541   3
 -12  -2  16 2.05028 0.72408   3
  12  -2 -16 2.49679 0.64213   2
  12   2 -16 1.57200 0.72530   3
 -12   2  16 3.06391 0.89710   3
  12   2 -16 2.60302 0.57968   2
 -11  -2  16 1.01502 1.23257   2
  11  -2 -16 0.25264 0.88942   3
 -11  -2  16 1.23275 0.69195   3
  11  -2 -16 0.83749 0.58399   2
  11   2 -16 0.17852 0.51417   2
  11   2 -16 1.62709 0.67127   3
 -11   2  16 0.88443 0.83788   3
 -10  -2  16 -1.3998 1.14748   2
  10  -2 -16 0.76497 0.49249   2
 -10  -2  16 0.78542 0.67507   3
 -10   2  16 -1.1287 1.12464   2
  10   2 -16 -0.0244 0.67019   3
  10   2 -16 0.42227 0.48648   2
   9  -2 -16 35.7573 2.32561   3
   9  -2 -16 36.0010 2.21520   2
  -9  -2  16 36.9854 2.38587   3
  -9   2  16 36.1251 2.36508   3
   9   2 -16 35.8254 2.27982   3
   9   2 -16 32.5276 2.02593   2
   8  -2 -16 1.60826 0.73022   3
  -8  -2  16 0.77929 0.54560   3
   8  -2 -16 2.19579 0.51628   2
  -8  -2  16 1.32393 0.50010   2
   8   2 -16 1.33901 0.49938   3
  -8   2  16 1.09908 0.60459   3
   8   2 -16 1.04178 0.49575   2
  -7  -2  16 14.0379 1.03595   3
  -7  -2  16 14.8531 1.03899   2
   7  -2 -16 12.0845 1.02814   3
   7   2 -16 14.0740 1.00178   2
   7   2 -16 15.2181 1.10418   3
  -6  -2  16 16.5849 1.10939   2
   6   2 -16 18.7946 1.25073   2
  -5  -2  16 0.15593 0.48760   2
   5   2 -16 0.56161 0.51761   2
   5   2 -16 0.34916 0.53778   3
  -4  -2  16 3.94740 0.63132   3
  -4  -2  16 2.39898 0.46946   2
   4   2 -16 4.17388 0.63086   3
  -3  -2  16 6.64690 0.61725   2
   3   2 -16 7.74802 0.67540   3
   3   2 -16 7.37900 0.71328   2
   2   2 -16 0.53158 0.48483   2
   1   2 -16 27.8282 1.76130   2
   0  -2  16 10.5904 0.85507   2
   0   2 -16 9.67844 0.80105   2
   1  -2  16 0.11719 0.45904   2
  -1   2 -16 0.75507 0.48931   2
   2  -2  16 13.9195 1.03575   2
  -2   2 -16 13.8417 1.03082   2
   3  -2  16 1.27174 0.59692   2
  -3   2 -16 1.34685 0.61533   2
   4  -2  16 2.51976 0.58624   2
  -4   2 -16 2.84902 0.62397   2
   5  -2  16 0.93491 0.53855   2
  -5   2 -16 1.44435 0.65469   2
   6  -2  16 5.04310 0.69848   2
  -6   2 -16 3.68252 0.68889   2
   8  -2  16 5.75655 0.73714   2
  -8   2 -16 5.32962 0.73184   2
   9  -2  16 2.82815 0.70020   2
  -9   2 -16 3.41101 0.75479   2
  10  -2  16 5.30301 0.73010   2
 -10   2 -16 4.61089 0.77432   2
 -20  -3  16 -0.5158 0.70930   3
 -20  -3  16 2.46116 1.25620   2
  20  -3 -16 -0.0976 0.83250   3
  20   3 -16 -0.1980 0.81097   2
  20   3 -16 -1.7897 0.77648   3
 -20   3  16 0.86974 0.79282   3
 -18  -3  16 -0.4415 0.71425   3
  18  -3 -16 0.97345 0.93364   3
 -18   3  16 -1.7312 0.91208   3
  18   3 -16 -0.5105 0.75819   3
  18   3 -16 0.00000 0.77627   2
  17  -3 -16 3.83458 0.79171   2
  17  -3 -16 3.72081 0.89728   3
 -17  -3  16 4.12849 0.82850   3
 -17   3  16 3.24967 0.79763   3
  17   3 -16 2.86875 0.78911   3
  16  -3 -16 14.6888 1.34768   3
 -16  -3  16 14.9022 1.22503   3
  16  -3 -16 16.0525 1.26142   2
  16   3 -16 16.6971 1.31788   2
 -16   3  16 14.3099 1.17440   3
  16   3 -16 12.6642 1.18571   3
  15  -3 -16 45.4586 2.80551   2
 -15  -3  16 42.1049 2.71573   3
  15  -3 -16 41.3810 2.71205   3
 -15   3  16 39.8131 2.61284   3
  15   3 -16 45.5154 2.77841   2
 -14  -3  16 37.9989 2.48565   3
  14  -3 -16 37.9078 2.47663   3
  14  -3 -16 37.4790 2.37144   2
 -14   3  16 38.5912 2.53456   3
  14   3 -16 37.4315 2.30857   2
  13  -3 -16 45.9268 2.93652   3
  13   3 -16 45.1201 2.86486   3
 -13   3  16 45.9988 2.90557   3
  13   3 -16 48.2740 2.92216   2
 -12  -3  16 58.0592 3.58913   3
  12   3 -16 61.7028 3.69060   2
 -12   3  16 60.5536 3.77823   3
  12   3 -16 57.8913 3.57873   3
 -11  -3  16 17.3026 1.29337   3
  11  -3 -16 17.0040 1.37092   3
  11   3 -16 18.6045 1.33630   3
  11   3 -16 17.4716 1.20252   2
 -10  -3  16 63.6312 3.90643   3
 -10  -3  16 54.1339 3.24425   2
  10  -3 -16 59.7570 3.75172   3
  10   3 -16 60.5950 3.72733   3
 -10   3  16 60.8966 3.79846   3
  10   3 -16 58.5074 3.49009   2
   9  -3 -16 4.93162 0.84161   3
  -9  -3  16 5.05562 0.65617   3
  -9  -3  16 5.18902 0.60783   2
   9   3 -16 5.30985 0.62771   2
  -9   3  16 6.08514 0.84696   3
   9   3 -16 6.21938 0.72976   3
   8  -3 -16 10.5741 1.01610   3
  -8  -3  16 10.1396 0.81764   2
  -8  -3  16 12.1791 0.98237   3
   8   3 -16 12.1624 0.95654   3
   8   3 -16 10.6058 0.85645   2
  -7  -3  16 0.10563 0.48677   2
  -7  -3  16 0.73211 0.55374   3
   7   3 -16 -0.0221 0.53575   2
   7   3 -16 0.67068 0.53430   3
  -6  -3  16 28.2127 1.77587   2
  -6  -3  16 29.6115 1.91906   3
   6   3 -16 30.8971 1.99046   3
   6   3 -16 28.3304 1.78889   2
  -5  -3  16 39.7974 2.51482   3
  -5  -3  16 36.4167 2.23777   2
   5   3 -16 33.6967 2.07876   2
  -4  -3  16 90.4189 5.30926   2
   4   3 -16 92.8156 5.44904   2
   4   3 -16 100.482 6.08357   3
  -3  -3  16 42.1450 2.61407   3
  -3  -3  16 45.2914 2.73625   2
   3   3 -16 45.2873 2.79155   3
   3   3 -16 45.5283 2.74860   2
  -2  -3  16 42.0766 2.61614   3
  -2  -3  16 44.6511 2.70405   2
   2   3 -16 44.4938 2.69061   2
   2   3 -16 47.9354 2.95398   3
  -1  -3  16 132.065 7.72830   2
   1   3 -16 141.674 8.51940   3
   1   3 -16 132.487 7.73369   2
   0  -3  16 16.7090 1.16085   2
   0   3 -16 17.2174 1.18412   2
   1  -3  16 15.9966 1.10841   2
  -1   3 -16 17.3724 1.21696   2
   2  -3  16 15.9155 1.14738   2
  -2   3 -16 16.1728 1.22710   2
   3  -3  16 1.83083 0.58285   2
   4  -3  16 5.70141 0.70804   2
  -4   3 -16 4.82702 0.71602   2
  -5   3 -16 16.7731 1.19190   2
   6  -3  16 9.61438 0.85051   2
  -6   3 -16 9.43271 0.88325   2
   7  -3  16 37.5349 2.33212   2
  -7   3 -16 36.6215 2.28431   2
   8  -3  16 8.91034 0.82398   2
  -8   3 -16 8.35935 0.84952   2
   9  -3  16 12.6648 1.03918   2
  -9   3 -16 11.8323 1.01264   2
  10  -3  16 22.1932 1.52328   2
 -10   3 -16 22.1539 1.55204   2
 -19  -4  16 11.8610 1.06719   3
  19   4 -16 12.0917 1.10936   3
 -18  -4  16 28.6060 1.94671   3
  18  -4 -16 29.1003 2.07421   3
  18   4 -16 29.5696 2.01100   3
  18   4 -16 29.3807 1.94798   2
 -18   4  16 27.7943 1.94540   3
  17  -4 -16 8.61129 1.07754   3
 -17  -4  16 7.96206 0.84813   3
 -17   4  16 7.43119 0.95287   3
  17   4 -16 6.60420 0.88332   2
  17   4 -16 8.69582 0.97551   3
  16  -4 -16 6.62259 0.97168   3
 -16  -4  16 5.16827 0.85315   3
  16   4 -16 6.03598 0.92254   3
  16   4 -16 5.70107 0.75815   2
 -16   4  16 7.18616 0.93823   3
 -15  -4  16 10.8544 1.02925   3
  15  -4 -16 11.3202 1.13807   3
 -15   4  16 12.2002 1.14303   3
  15   4 -16 11.0795 0.98555   3
  15   4 -16 12.1221 1.09506   2
 -14  -4  16 -0.8390 1.05719   2
 -14  -4  16 1.22338 0.70101   3
  14  -4 -16 0.91686 0.89341   3
 -14   4  16 0.99351 0.80676   3
  14   4 -16 3.05153 0.76084   2
 -13  -4  16 1.90632 0.73544   3
 -13   4  16 1.49379 0.76872   3
  13   4 -16 3.02486 0.77723   2
  12  -4 -16 7.13408 1.05082   3
 -12  -4  16 10.0632 0.92411   2
  12   4 -16 8.67920 0.87560   3
 -10  -4  16 16.8540 1.22851   2
 -10  -4  16 15.0792 1.17341   3
  10  -4 -16 13.7559 1.29578   3
  10   4 -16 14.3784 1.11087   3
 -10   4  16 14.9072 1.19536   3
  -9  -4  16 41.0606 2.59502   3
   9  -4 -16 39.6683 2.64938   3
   9   4 -16 44.1619 2.79169   3
   9   4 -16 49.1365 3.00474   2
  -9   4  16 44.7717 2.84128   3
  -9   4  16 43.3414 2.80406   3
  -8  -4  16 27.7516 1.83817   3
   8   4 -16 29.7046 1.91253   2
   8   4 -16 29.3300 1.91089   3
  -7  -4  16 81.9412 4.99413   3
   7   4 -16 83.5290 5.07366   3
   7   4 -16 80.2122 4.76433   2
  -6  -4  16 57.3066 3.55100   3
  -6  -4  16 50.6451 3.04186   2
   6   4 -16 49.7113 3.00041   2
   6   4 -16 53.1029 3.29061   3
  -5  -4  16 15.8338 1.15167   3
  -5  -4  16 18.9005 1.30805   2
   5   4 -16 19.4725 1.33891   3
   5   4 -16 18.7818 1.29932   2
  -4  -4  16 36.6971 2.24519   2
  -4  -4  16 41.1162 2.57291   3
   4   4 -16 38.9093 2.39358   2
  -3  -4  16 3.90883 0.62911   2
   3   4 -16 4.43887 0.60159   3
   3   4 -16 4.10166 0.65367   2
  -2  -4  16 1.20572 0.56697   2
  -2  -4  16 0.94057 0.45429   3
   2   4 -16 0.61274 0.44941   3
   2   4 -16 0.17321 0.59865   2
  -1  -4  16 5.56441 0.63442   3
  -1  -4  16 5.94487 0.70972   2
   1   4 -16 5.34363 0.67002   3
   1   4 -16 5.37904 0.70080   2
   0  -4  16 5.21133 0.68560   2
   0  -4  16 4.79761 0.55971   3
   0   4 -16 5.19086 0.58350   3
   0   4 -16 5.09200 0.63370   2
   1  -4  16 20.5949 1.38937   2
  -1   4 -16 20.0879 1.36803   2
   2  -4  16 63.2844 3.77748   2
  -2   4 -16 61.2760 3.68451   2
   3  -4  16 15.9680 1.17072   2
   4  -4  16 27.1406 1.75429   2
  -4   4 -16 29.5096 1.89444   2
   5  -4  16 15.6176 1.12778   2
  -5   4 -16 16.7879 1.22754   2
   6  -4  16 16.2518 1.17331   2
  -6   4 -16 15.4434 1.15557   2
   7  -4  16 11.3789 0.93125   2
  -7   4 -16 12.1268 1.01641   2
   8  -4  16 0.74769 0.58352   2
  -8   4 -16 0.06973 0.61590   2
   9  -4  16 0.95934 0.60788   2
 -17  -5  16 -0.3818 0.64406   3
  17   5 -16 -0.3718 0.70900   3
 -16  -5  16 -0.1258 0.74744   3
  16   5 -16 0.44955 0.76933   3
 -15  -5  16 6.57746 0.90130   3
 -15  -5  16 5.78147 0.75933   2
  15   5 -16 5.30903 0.81747   2
 -15   5  16 3.37738 0.83167   3
  15   5 -16 4.77014 0.85264   3
 -14  -5  16 -0.2330 0.78087   2
  14  -5 -16 0.56879 0.91019   3
 -14  -5  16 0.64889 0.74031   3
  14   5 -16 -0.3479 0.71442   3
  14   5 -16 0.36190 0.75569   2
  13  -5 -16 2.08225 0.94984   3
 -13  -5  16 -0.4033 0.67853   3
 -13  -5  16 0.13005 0.64924   2
  13   5 -16 0.25821 0.70314   2
 -13   5  16 1.09827 0.71982   3
 -12  -5  16 7.97443 0.84028   2
 -12  -5  16 9.15305 0.97172   3
  12  -5 -16 9.03943 1.06200   3
  12   5 -16 9.45222 0.87380   2
  12   5 -16 9.07715 0.99404   3
 -12   5  16 10.1073 1.17385   3
 -11  -5  16 0.55805 0.61819   2
  11   5 -16 -0.0448 0.74785   2
  11   5 -16 1.00695 0.65461   3
 -10  -5  16 4.64975 0.67267   3
  10  -5 -16 4.04759 1.02549   3
 -10  -5  16 6.16490 0.80899   2
  10   5 -16 4.01483 0.62409   3
  10   5 -16 5.51605 0.84238   2
  -9  -5  16 8.33416 0.86906   3
  -9  -5  16 7.85480 0.84339   2
   9   5 -16 6.63936 0.78708   2
   9   5 -16 8.58010 0.82672   3
  -8  -5  16 0.13263 0.58370   3
  -8  -5  16 1.86938 0.70121   2
   8   5 -16 1.97586 0.61062   3
   8   5 -16 1.94486 0.57320   2
  -7  -5  16 0.54744 0.63069   2
  -7  -5  16 0.26293 0.57852   3
   7   5 -16 -0.4878 0.58541   3
   7   5 -16 0.61522 0.60377   2
  -6  -5  16 0.81791 0.60404   2
  -6  -5  16 0.42113 0.58524   3
   6   5 -16 1.84162 0.55477   3
   6   5 -16 1.25938 0.73818   2
  -5  -5  16 4.50384 0.69534   2
   5   5 -16 4.99009 0.59552   3
   5   5 -16 4.77432 0.73526   2
  -4  -5  16 3.57903 0.59670   3
  -4  -5  16 4.33935 0.63159   2
   4   5 -16 2.80973 0.60541   2
   4   5 -16 2.77546 0.56383   3
  -3  -5  16 11.5083 0.95362   2
  -3  -5  16 10.1405 0.87046   3
  -2  -5  16 -0.4202 0.56480   2
   2   5 -16 0.86358 0.60004   3
   1   5 -16 1.58519 0.49810   2
   0  -5  16 5.06461 0.67487   3
   0   5 -16 5.00978 0.68409   2
   0   5 -16 5.80587 0.71277   3
   1  -5  16 9.32219 0.87137   2
  -1   5 -16 8.70608 0.80508   3
  -1   5 -16 9.04798 0.85037   2
   2  -5  16 0.67064 0.54370   2
  -2   5 -16 0.60413 0.61248   2
   3  -5  16 8.12630 0.80465   2
  -3   5 -16 8.72562 0.87097   2
   4  -5  16 9.99490 0.87967   2
  -4   5 -16 9.58677 0.90921   2
   5  -5  16 3.08430 0.60187   2
  -5   5 -16 3.27241 0.67032   2
   6  -5  16 1.36727 0.59070   2
  -6   5 -16 0.51939 0.54139   2
   7  -5  16 1.38042 0.62478   2
  -7   5 -16 -0.0968 0.61316   2
 -13  -6  16 1.50123 0.71147   3
  13   6 -16 1.36242 0.71001   3
 -12  -6  16 0.53938 0.69230   3
  11   6 -16 0.09171 0.68104   3
 -10  -6  16 2.91367 0.66079   3
  10   6 -16 3.23263 0.76571   3
  10   6 -16 4.60932 0.73984   2
  -9  -6  16 1.94809 0.57798   3
   9   6 -16 2.31470 0.67318   2
   9   6 -16 1.47588 0.69249   3
  -8  -6  16 8.13336 0.77026   3
  -8  -6  16 7.31682 0.86064   2
   8   6 -16 8.98348 0.82021   3
   8   6 -16 8.55872 0.84566   2
  -7  -6  16 3.94123 0.70804   2
  -7  -6  16 3.23609 0.73511   3
   7   6 -16 2.77798 0.57594   3
   7   6 -16 4.17838 0.69132   2
  -6  -6  16 0.76422 0.56972   2
  -6  -6  16 2.36242 0.60880   3
   6   6 -16 1.57578 0.59651   2
   6   6 -16 1.90198 0.58127   3
  -5  -6  16 1.66669 0.59498   2
  -5  -6  16 0.17671 0.53465   3
   5   6 -16 1.39773 0.56140   3
   5   6 -16 1.23944 0.63159   2
  -4  -6  16 -0.6120 0.50495   3
  -4  -6  16 -0.4356 0.58111   2
   4   6 -16 -0.1603 0.60683   2
   4   6 -16 0.81452 0.60547   3
  -3  -6  16 -0.3702 0.52710   3
  -3  -6  16 -0.5196 0.59866   2
   3   6 -16 -0.9058 0.65225   2
  -2  -6  16 5.78746 0.73208   2
   2   6 -16 5.45445 0.75770   2
   2   6 -16 5.78621 0.70221   3
  -1  -6  16 2.98375 0.62755   2
  -1  -6  16 2.08484 0.60499   3
   1   6 -16 3.01713 0.64178   2
   0  -6  16 2.79582 0.65568   2
   0   6 -16 3.19598 0.67464   2
   1  -6  16 2.46906 0.59150   2
  -1   6 -16 2.50387 0.63801   2
   2  -6  16 2.20842 0.65025   2
  -2   6 -16 2.71879 0.74846   2
   3  -6  16 4.88989 0.69717   2
  -3   6 -16 5.57802 0.73305   2
  22   0 -17 -1.3655 0.80295   3
 -22   0  17 -0.0244 0.75110   3
 -22   0  17 -0.6125 1.12262   2
  21   0 -17 -0.2571 0.79698   3
 -21   0  17 0.88939 0.76103   3
 -21   0  17 0.16777 1.06308   2
  20   0 -17 0.44207 0.68755   2
 -20   0  17 -0.5468 0.79297   3
  18   0 -17 -0.1556 0.61452   2
  18   0 -17 -0.2839 0.80679   3
  17   0 -17 0.09469 0.70320   3
 -17   0  17 0.12345 0.76054   3
  17   0 -17 -0.3702 0.62720   2
  15   0 -17 0.40747 0.56826   2
 -15   0  17 0.89737 0.79528   3
  14   0 -17 -0.3597 0.65961   3
 -14   0  17 0.17425 0.73943   3
  14   0 -17 -0.4934 0.54261   2
 -13   0  17 -0.0599 1.13859   2
 -13   0  17 0.59659 0.76573   3
  13   0 -17 0.35448 0.61257   2
  13   0 -17 0.65207 0.71737   3
 -12   0  17 0.27406 0.71265   3
  12   0 -17 0.67948 0.57406   2
  12   0 -17 0.87635 0.58919   3
  11   0 -17 -0.2426 0.61393   3
  11   0 -17 1.07290 0.59227   2
 -11   0  17 0.03142 1.01366   2
 -11   0  17 -1.0285 0.66234   3
  10   0 -17 0.40912 0.52370   2
 -10   0  17 -0.1734 0.93231   2
 -10   0  17 -0.2708 0.65011   3
   9   0 -17 0.17033 0.66926   3
  -9   0  17 -1.2069 0.94803   2
   9   0 -17 0.62725 0.51616   2
   8   0 -17 0.22908 0.67207   3
  -8   0  17 -0.8655 0.64416   3
  -8   0  17 -0.0919 0.58208   2
   7   0 -17 -0.0731 0.58967   3
   6   0 -17 -0.0219 0.47861   2
  -6   0  17 0.29305 0.45820   2
  -5   0  17 -0.0420 0.50831   2
   5   0 -17 -1.0197 0.47491   2
  -4   0  17 -0.0425 0.44021   2
   4   0 -17 -0.9123 0.57809   2
   3   0 -17 0.37257 0.53021   2
  -3   0  17 -0.5585 0.42067   2
  -2   0  17 -0.1878 0.45672   2
  -1   0  17 0.18449 0.53135   2
   0   0 -17 0.02180 0.47726   2
  -1   0 -17 0.27026 0.57081   2
   1   0  17 -0.2093 0.45552   2
   2   0  17 -0.2396 0.52441   2
  -2   0 -17 0.74357 0.56217   2
   3   0  17 -0.3204 0.53948   2
  -3   0 -17 0.19052 0.57618   2
   4   0  17 1.19702 0.59102   2
  -4   0 -17 0.16683 0.63150   2
   5   0  17 1.04674 0.67308   2
  -5   0 -17 1.06911 0.62954   2
   6   0  17 -0.3122 0.58094   2
  -6   0 -17 0.60475 0.61633   2
 -22  -1  17 0.92373 0.73396   3
  22  -1 -17 0.44228 0.91910   3
  22   1 -17 -0.7926 0.84477   3
  22   1 -17 1.73363 0.76438   2
 -22   1  17 0.28419 0.88111   3
  21   1 -17 1.64539 0.86333   3
  20  -1 -17 10.9443 1.14988   3
  20  -1 -17 10.0460 0.94853   2
 -20  -1  17 10.1814 1.04456   3
  20   1 -17 11.0424 1.18240   3
  20   1 -17 9.62067 0.92021   2
  19  -1 -17 13.8337 1.08990   2
 -19  -1  17 14.6780 1.23442   3
  19  -1 -17 12.3935 1.15963   3
  19   1 -17 13.8995 1.06018   2
  19   1 -17 11.9203 1.08932   3
 -18  -1  17 17.0471 1.38132   3
  18  -1 -17 19.7827 1.38425   2
  18  -1 -17 17.2542 1.35360   3
 -18   1  17 18.4514 1.37089   3
  18   1 -17 18.1302 1.30862   2
  17  -1 -17 18.4957 1.31166   2
  17  -1 -17 17.7566 1.41198   3
  17   1 -17 17.4109 1.26329   2
 -17   1  17 18.7272 1.42321   3
  17   1 -17 17.3107 1.42019   3
 -16  -1  17 36.5338 2.41093   3
  16  -1 -17 38.1239 2.37548   2
  16  -1 -17 34.3155 2.27455   3
  16   1 -17 36.6687 2.41666   3
  16   1 -17 36.1373 2.26978   2
 -16   1  17 33.9672 2.23980   3
 -15  -1  17 58.1239 3.63364   3
  15  -1 -17 58.2059 3.50282   2
  15  -1 -17 56.4160 3.55154   3
  15   1 -17 59.6263 3.74828   3
  15   1 -17 53.0394 3.20773   2
 -15   1  17 56.7164 3.55340   3
 -14  -1  17 22.2591 1.63864   3
  14  -1 -17 25.9889 1.71163   2
  14  -1 -17 24.8037 1.70931   3
 -14   1  17 24.0227 1.68623   3
  14   1 -17 24.6267 1.75552   3
  13  -1 -17 16.3186 1.25893   3
  13  -1 -17 17.1038 1.21597   2
 -13  -1  17 18.0387 1.36894   3
 -13   1  17 15.5493 1.22530   3
  13   1 -17 17.9913 1.37622   3
 -12  -1  17 14.0757 1.20063   3
  12  -1 -17 10.5140 1.02296   3
  12  -1 -17 11.3310 0.90204   2
  12   1 -17 10.0697 0.86314   2
 -12   1  17 9.75190 0.97859   3
  12   1 -17 12.9885 1.09343   3
 -11  -1  17 -0.1793 0.67623   3
  11  -1 -17 0.27152 0.54742   2
 -11  -1  17 -1.0931 0.92791   2
  11   1 -17 -0.3959 0.73498   3
  11   1 -17 -1.0110 0.53171   2
 -11   1  17 0.04921 0.67670   3
 -11   1  17 -0.9033 1.04067   2
  10  -1 -17 7.41495 0.72084   2
 -10  -1  17 6.16849 0.67904   3
  10  -1 -17 6.74846 0.83726   3
  10   1 -17 6.22169 0.64502   2
  10   1 -17 7.32925 0.82876   3
  -9  -1  17 27.8861 1.80292   3
   9   1 -17 32.4567 1.98829   2
   9   1 -17 30.5335 1.99306   3
   8  -1 -17 55.9597 3.44806   3
   8  -1 -17 64.1567 3.83223   2
  -8  -1  17 61.6657 3.80006   3
   8   1 -17 57.5115 3.42532   2
   8   1 -17 55.3795 3.45071   3
  -7  -1  17 81.9688 4.98724   3
  -7  -1  17 83.3125 4.90589   2
   7  -1 -17 80.7741 4.76244   2
   7   1 -17 81.3389 4.94414   3
   7   1 -17 79.1194 4.65430   2
  -6  -1  17 113.452 6.85447   3
   6  -1 -17 122.959 7.17682   2
  -6  -1  17 124.874 7.30168   2
   6   1 -17 121.364 7.08077   2
   6   1 -17 116.082 7.00774   3
  -6   1  17 123.052 7.18303   2
  -5  -1  17 86.6805 5.08979   2
   5  -1 -17 88.6871 5.19714   2
   5   1 -17 86.0757 5.23632   3
  -5   1  17 92.2488 5.40563   2
   5   1 -17 87.2215 5.11842   2
   4  -1 -17 55.6058 3.33316   2
  -4  -1  17 46.3217 2.76021   2
  -4   1  17 41.0701 2.44983   2
   4   1 -17 52.2499 3.13918   2
  -3  -1  17 62.0076 3.65834   2
   3  -1 -17 67.2345 3.96757   2
   3   1 -17 65.8835 3.89585   2
   2  -1 -17 28.4335 1.79782   2
  -2  -1  17 24.4094 1.54849   2
   2   1 -17 23.5391 1.48861   2
  -1  -1  17 3.18701 0.60293   2
   1   1 -17 3.68167 0.59829   2
   0  -1  17 7.14016 0.67723   2
   0   1 -17 6.37275 0.61871   2
   1  -1  17 12.9181 1.00912   2
  -1   1 -17 13.0125 1.00954   2
   2  -1  17 32.6520 2.07245   2
  -2   1 -17 28.7108 1.84827   2
   3  -1  17 5.38899 0.65675   2
  -3   1 -17 6.88293 0.74787   2
   4  -1  17 43.2571 2.65663   2
  -4   1 -17 39.8981 2.49409   2
   5  -1  17 55.8792 3.38370   2
  -6   1 -17 27.0646 1.78120   2
   7  -1  17 31.7541 2.03530   2
  -7   1 -17 30.0837 1.96335   2
   8  -1  17 6.17921 0.83937   2
  -8   1 -17 5.85937 0.86704   2
   9  -1  17 1.65284 0.65288   2
  -9   1 -17 0.79339 0.75275   2
  21  -2 -17 10.5878 1.13122   3
 -21  -2  17 10.8357 1.08433   3
  21   2 -17 10.8262 1.01262   2
  21   2 -17 9.14807 0.99367   3
  20  -2 -17 12.0543 1.22821   3
 -20  -2  17 11.4662 1.07740   3
  20   2 -17 13.7063 1.15063   2
  20   2 -17 11.2310 1.08236   3
 -20   2  17 13.8976 1.20154   3
 -19  -2  17 23.6212 1.69205   3
  19  -2 -17 23.7192 1.70918   3
 -19   2  17 21.2328 1.55596   3
  19   2 -17 25.4304 1.71474   2
  19   2 -17 24.8880 1.77639   3
  18  -2 -17 11.9070 1.12585   3
 -18  -2  17 12.7585 1.19586   3
  18   2 -17 10.4269 1.12859   3
 -18   2  17 10.2649 0.99569   3
  18   2 -17 12.7436 1.11612   2
 -17  -2  17 0.32936 0.75257   3
  17  -2 -17 1.03608 0.79524   3
  17   2 -17 -0.1582 0.70312   2
 -17   2  17 -0.9383 0.76064   3
  16  -2 -17 -0.6498 0.67375   2
 -16  -2  17 0.09297 1.28524   2
  16  -2 -17 1.18932 0.93459   3
  16   2 -17 -0.3343 0.69314   2
  16   2 -17 -0.0501 0.74465   3
  15  -2 -17 15.7654 1.21188   2
  15  -2 -17 13.3634 1.21271   3
 -15  -2  17 13.7554 1.14753   3
  15   2 -17 13.2337 1.07375   2
  15   2 -17 15.2606 1.27329   3
 -15   2  17 13.7122 1.18477   3
  14  -2 -17 42.6699 2.62743   2
  14  -2 -17 43.2221 2.78036   3
 -14  -2  17 43.8339 2.80249   3
 -14   2  17 40.6138 2.63423   3
  14   2 -17 40.5493 2.62680   3
  14   2 -17 44.7223 2.74078   2
  13  -2 -17 28.3924 1.97886   3
  13  -2 -17 30.0120 1.92494   2
 -13  -2  17 28.1182 1.90290   3
  13   2 -17 28.5138 1.95104   3
 -13   2  17 26.4131 1.86405   3
  13   2 -17 30.6869 1.95557   2
 -12  -2  17 79.7284 4.87531   3
  12  -2 -17 72.3698 4.30711   2
  12   2 -17 70.1753 4.17128   2
 -12   2  17 71.5632 4.43418   3
  12   2 -17 77.6691 4.77292   3
 -11  -2  17 142.960 8.63603   3
  11  -2 -17 133.037 8.05783   3
  11  -2 -17 141.527 8.26750   2
  11   2 -17 135.382 8.16674   3
  11   2 -17 126.937 7.42812   2
  10  -2 -17 86.4755 5.09343   2
  10  -2 -17 79.1045 4.88742   3
 -10  -2  17 79.0725 4.85003   3
 -10   2  17 81.8780 5.01077   3
  10   2 -17 80.3247 4.89371   3
  10   2 -17 74.7475 4.41439   2
   9  -2 -17 41.0648 2.62952   3
  -9  -2  17 45.8659 2.87467   3
   9   2 -17 41.5555 2.61517   3
   9   2 -17 42.6612 2.57908   2
  -9   2  17 39.7305 2.52183   3
  -8  -2  17 68.6301 4.19068   3
   8  -2 -17 53.6654 3.33112   3
  -8  -2  17 64.7320 3.82470   2
   8   2 -17 67.6782 4.14396   3
   8   2 -17 66.2616 3.92186   2
  -7  -2  17 62.4851 3.71764   2
  -7  -2  17 58.7970 3.62173   3
   7   2 -17 57.3807 3.44155   2
  -6  -2  17 2.60483 0.52960   2
  -6  -2  17 0.89393 0.58002   3
   6   2 -17 1.09853 0.50359   3
  -5  -2  17 1.39110 0.48336   2
   4   2 -17 0.09215 0.50691   3
   4   2 -17 0.70045 0.52062   2
   3   2 -17 49.1836 2.95601   2
  -2  -2  17 165.334 9.62589   2
   2   2 -17 165.314 9.63796   2
  -1  -2  17 63.3699 3.77431   2
   1   2 -17 64.9721 3.87444   2
   0  -2  17 55.8905 3.37019   2
   0   2 -17 48.5373 2.95013   2
   1  -2  17 163.149 9.52370   2
  -1   2 -17 163.588 9.56092   2
   2  -2  17 61.2630 3.66223   2
  -2   2 -17 56.4427 3.39756   2
   3  -2  17 20.8813 1.44480   2
  -3   2 -17 21.7176 1.50522   2
   4  -2  17 16.6974 1.19830   2
  -4   2 -17 14.3676 1.10484   2
   5  -2  17 0.24213 0.52999   2
  -5   2 -17 -0.7909 0.58960   2
   6  -2  17 0.16735 0.55086   2
  -6   2 -17 -0.0479 0.60681   2
   7  -2  17 -0.1674 0.66121   2
  -7   2 -17 -0.2808 0.59314   2
   8  -2  17 12.9137 1.07691   2
  -8   2 -17 10.5954 1.00052   2
   9  -2  17 12.7278 1.02752   2
  -9   2 -17 10.8666 0.96977   2
  20  -3 -17 3.75370 0.82073   3
 -20  -3  17 0.64721 1.34930   2
 -20  -3  17 3.53495 0.76099   3
  20   3 -17 4.81745 0.80061   3
 -20   3  17 1.74746 0.70411   3
  20   3 -17 5.36719 0.80889   2
  19  -3 -17 0.68747 0.91840   3
 -19  -3  17 3.71110 1.32087   2
 -19  -3  17 1.49112 0.70711   3
  19   3 -17 0.73235 0.72236   3
 -19   3  17 1.52167 0.82332   3
  19   3 -17 0.50347 0.84369   2
 -18  -3  17 2.53692 1.07502   2
 -18  -3  17 1.39069 0.73666   3
  18  -3 -17 0.46975 0.84320   3
 -18   3  17 -0.2303 1.14994   2
  18   3 -17 1.16742 0.72594   3
 -18   3  17 0.94870 0.76906   3
  17  -3 -17 5.07270 0.88428   3
 -17  -3  17 5.76135 0.82081   3
  17   3 -17 5.96235 0.83759   3
  17   3 -17 4.87468 0.78092   2
 -17   3  17 5.10946 0.83798   3
  16  -3 -17 4.33986 0.99942   3
 -16  -3  17 4.04496 0.81691   3
  16   3 -17 4.96945 0.82156   2
 -16   3  17 2.60932 0.97504   3
  15  -3 -17 11.7351 1.21266   3
  15   3 -17 9.61932 0.87296   2
 -15   3  17 11.8168 1.18994   3
  15   3 -17 9.26722 0.98205   3
  14  -3 -17 14.8201 1.35740   3
 -14  -3  17 16.6472 1.30928   3
 -14   3  17 14.5697 1.28235   3
  14   3 -17 14.8340 1.20511   3
  14   3 -17 15.3729 1.13888   2
 -13  -3  17 11.5504 1.02617   3
  13   3 -17 13.3069 1.03306   2
  13   3 -17 12.4681 1.03230   3
 -13   3  17 13.4044 1.27721   3
 -12  -3  17 3.54438 0.72615   3
  12  -3 -17 1.93183 0.85018   3
  12   3 -17 2.43749 0.68362   3
  12   3 -17 3.10776 0.70568   2
 -11  -3  17 -0.0884 0.71262   2
 -11  -3  17 1.71684 0.65584   3
  11  -3 -17 0.48796 0.81938   3
  11   3 -17 1.07170 0.62715   3
 -11   3  17 0.00000 0.79261   3
  11   3 -17 1.56708 0.62687   2
 -10  -3  17 3.94918 0.63611   2
  10  -3 -17 4.07763 0.73367   3
 -10  -3  17 3.63979 0.69420   3
 -10   3  17 2.07995 0.68115   3
  10   3 -17 3.01374 0.65770   2
  10   3 -17 5.25066 0.73808   3
  -9  -3  17 3.49189 0.64464   3
  -9  -3  17 2.41137 0.56057   2
   9  -3 -17 2.94967 0.73373   3
   9   3 -17 2.27584 0.57119   2
   9   3 -17 2.78478 0.65299   3
  -8  -3  17 27.8995 1.76227   2
  -8  -3  17 31.1514 2.03661   3
   8   3 -17 29.0979 1.83057   2
   8   3 -17 31.5303 2.04022   3
  -7  -3  17 14.9212 1.12835   3
  -7  -3  17 14.8468 1.04190   2
   7   3 -17 15.1089 1.07617   2
   7   3 -17 17.0909 1.23217   3
  -6  -3  17 6.64767 0.79912   3
  -6  -3  17 7.68871 0.71109   2
   6   3 -17 6.62893 0.68232   2
  -5  -3  17 40.1808 2.44227   2
   5   3 -17 45.0583 2.79459   3
   5   3 -17 42.5612 2.59894   2
  -4  -3  17 18.0986 1.24460   3
  -4  -3  17 18.1824 1.22493   2
   4   3 -17 18.1331 1.24455   2
   4   3 -17 19.5287 1.35531   3
  -3  -3  17 0.60980 0.43128   3
  -3  -3  17 0.68300 0.48227   2
   3   3 -17 0.85164 0.51640   2
   3   3 -17 0.12723 0.41992   3
  -2  -3  17 22.7205 1.48326   2
   2   3 -17 22.4337 1.45445   2
  -1  -3  17 20.0254 1.33167   2
   1   3 -17 18.4096 1.26720   2
   0  -3  17 1.18144 0.58715   2
   0   3 -17 0.57639 0.55780   2
   1  -3  17 0.57189 0.54905   2
   2  -3  17 1.01338 0.59800   2
  -2   3 -17 2.13917 0.63691   2
  -3   3 -17 0.02373 0.57405   2
  -4   3 -17 12.0848 1.00899   2
   5  -3  17 11.8955 0.94113   2
  -5   3 -17 11.5693 0.96077   2
   6  -3  17 10.1591 0.90100   2
  -6   3 -17 9.91304 0.91543   2
   7  -3  17 11.9076 0.97478   2
  -7   3 -17 11.3904 0.97290   2
   8  -3  17 2.52794 0.65946   2
  -8   3 -17 2.61160 0.65413   2
   9  -3  17 1.67571 0.62542   2
  -9   3 -17 2.15180 0.65935   2
 -18  -4  17 0.11000 1.33070   2
 -18  -4  17 1.41731 0.73712   3
  18   4 -17 1.88920 0.76818   2
 -18   4  17 1.41782 0.75303   3
  18   4 -17 0.90224 0.70528   3
  17  -4 -17 0.45387 0.91544   3
 -17  -4  17 -0.1296 0.76964   3
  17   4 -17 0.44388 0.74150   2
  17   4 -17 -0.3111 0.81619   3
 -17   4  17 0.58178 0.88007   3
 -16  -4  17 -0.4053 1.24501   2
 -16  -4  17 0.80575 0.74347   3
  16  -4 -17 1.07966 0.91156   3
 -16   4  17 0.07276 0.77383   3
  16   4 -17 0.26595 0.79796   3
  16   4 -17 -0.5003 0.70740   2
 -15  -4  17 1.44298 1.05794   2
 -15  -4  17 2.94665 0.73299   3
 -15   4  17 3.50873 0.90519   3
  15   4 -17 2.86580 0.75995   2
  14  -4 -17 3.72814 0.94659   3
  14   4 -17 3.93866 0.81420   3
  14   4 -17 3.35834 0.77894   2
 -13  -4  17 1.57550 0.66228   2
  13  -4 -17 1.03849 0.85689   3
 -13  -4  17 1.90312 0.69792   3
  13   4 -17 1.56994 0.62912   2
  13   4 -17 1.53666 0.70225   3
 -13   4  17 0.68702 0.78191   3
  12  -4 -17 4.95037 0.92717   3
 -12  -4  17 6.05910 0.74639   2
 -12  -4  17 4.09978 0.76038   3
  12   4 -17 4.51433 0.70611   3
 -12   4  17 5.06656 0.94224   3
 -11  -4  17 15.1781 1.21593   3
  11  -4 -17 14.1026 1.28660   3
 -11  -4  17 14.4470 1.13202   2
  11   4 -17 13.2469 1.07503   3
 -11   4  17 14.7035 1.24331   3
 -10  -4  17 6.00101 0.75618   3
  10  -4 -17 2.68070 0.87618   3
  10   4 -17 5.97097 0.77876   3
  10   4 -17 5.48748 0.72570   2
  -9  -4  17 1.65523 0.63982   3
   9   4 -17 0.51545 0.64548   2
   9   4 -17 0.81308 0.64604   3
  -8  -4  17 3.22880 0.66253   2
  -8  -4  17 2.84174 0.70292   3
   8   4 -17 3.03874 0.68838   3
   8   4 -17 4.33420 0.67278   2
  -7  -4  17 0.70189 0.62742   3
  -7  -4  17 1.77944 0.61503   2
   7   4 -17 1.43206 0.62209   2
   7   4 -17 2.15661 0.59942   3
  -6  -4  17 12.8879 1.00881   2
  -6  -4  17 11.5003 0.92435   3
   6   4 -17 12.0868 0.97676   2
   6   4 -17 12.9450 1.01641   3
  -5  -4  17 13.0693 0.99483   2
   5   4 -17 12.9355 0.97178   2
   5   4 -17 11.8068 0.93057   3
  -4  -4  17 0.13164 0.55610   2
  -4  -4  17 0.29996 0.49501   3
   4   4 -17 0.94007 0.56730   2
   4   4 -17 0.55789 0.52284   3
  -3  -4  17 14.0991 1.01148   2
  -3  -4  17 14.6719 1.09181   3
   3   4 -17 14.1207 1.04005   3
   3   4 -17 14.6918 1.06074   2
  -2  -4  17 23.3034 1.54382   2
  -2  -4  17 18.4741 1.27250   3
   2   4 -17 20.3311 1.39378   3
   2   4 -17 24.2897 1.61993   2
  -1  -4  17 0.07058 0.56915   2
   1   4 -17 -0.3996 0.59576   2
   1   4 -17 0.84857 0.46678   3
   0  -4  17 2.49678 0.58656   2
   0   4 -17 3.57865 0.62562   2
   1  -4  17 7.80878 0.78038   2
  -1   4 -17 8.42421 0.81379   2
   2  -4  17 0.75251 0.57796   2
  -2   4 -17 -0.3450 0.56784   2
   3  -4  17 0.66416 0.56679   2
  -3   4 -17 0.79440 0.58240   2
   4  -4  17 2.42620 0.58234   2
  -4   4 -17 0.48741 0.58963   2
   5  -4  17 0.37042 0.56900   2
  -5   4 -17 0.61671 0.60118   2
   6  -4  17 2.92830 0.62376   2
  -6   4 -17 2.57945 0.65101   2
   7  -4  17 2.12998 0.62056   2
   8  -4  17 2.36966 0.69649   2
  -8   4 -17 2.87439 0.58290   2
 -16  -5  17 13.7064 1.17989   3
  16   5 -17 13.5016 1.18070   3
 -15  -5  17 8.10590 0.95393   2
 -15  -5  17 8.54494 0.94060   3
  15   5 -17 9.39795 1.01553   2
  15   5 -17 9.91211 1.00118   3
 -14  -5  17 8.74768 0.95078   2
 -14  -5  17 8.78190 0.96664   3
  14   5 -17 8.84560 1.00596   2
 -13  -5  17 2.76834 0.72832   2
  13   5 -17 2.77930 0.72895   2
 -13   5  17 2.60394 0.86735   3
  13   5 -17 1.96835 0.74766   3
 -12  -5  17 0.58270 0.66670   3
 -12  -5  17 0.02128 0.61284   2
  12   5 -17 -0.4226 0.76865   2
  12   5 -17 0.16068 0.70709   3
 -11  -5  17 -0.1970 0.63034   2
 -11  -5  17 -0.6611 0.63036   3
  11   5 -17 -0.6998 0.57124   3
  11   5 -17 0.29023 0.74590   2
 -10  -5  17 1.74018 0.67664   2
 -10  -5  17 1.27705 0.62982   3
  10   5 -17 1.00379 0.55218   3
  -9  -5  17 9.19002 0.88286   3
  -9  -5  17 8.56943 0.89344   2
   9   5 -17 9.92314 0.99578   2
   9   5 -17 8.74848 0.84618   3
  -8  -5  17 11.7551 0.94252   3
  -8  -5  17 14.0717 1.08815   2
   8   5 -17 13.3706 1.11600   2
   8   5 -17 12.2921 0.98813   3
  -7  -5  17 7.76349 0.79988   2
   7   5 -17 6.97603 0.75843   3
   7   5 -17 7.04367 0.75469   2
  -6  -5  17 21.1341 1.45704   3
  -6  -5  17 24.9538 1.64060   2
   6   5 -17 24.7836 1.63378   3
   6   5 -17 23.3779 1.55453   2
  -5  -5  17 28.1496 1.78238   2
  -5  -5  17 27.1917 1.77791   3
  -4  -5  17 17.9092 1.26847   2
   4   5 -17 15.0756 1.11338   3
  -3  -5  17 12.5113 0.99138   3
   3   5 -17 15.0241 1.18235   2
   3   5 -17 13.2319 1.04265   3
  -2  -5  17 6.30013 0.72740   3
   2   5 -17 6.66569 0.75217   2
  -1  -5  17 7.55789 0.76323   3
  -1  -5  17 8.34856 0.86229   2
   1   5 -17 9.29851 0.82462   2
   1   5 -17 10.2398 0.91061   3
   0  -5  17 0.55276 0.58145   2
   0   5 -17 1.47666 0.64809   2
   1  -5  17 10.4517 0.93150   2
  -1   5 -17 11.3933 0.97093   2
   2  -5  17 4.56794 0.68653   2
  -2   5 -17 2.65982 0.64671   2
   3  -5  17 9.33002 0.86054   2
  -3   5 -17 9.45137 0.89404   2
   4  -5  17 10.4980 0.90864   2
  -4   5 -17 11.6456 0.99143   2
   5  -5  17 9.79728 0.89556   2
  -5   5 -17 9.98294 0.93088   2
   6  -5  17 8.91158 0.84443   2
  -6   5 -17 8.95872 0.90048   2
 -13  -6  17 2.87958 0.77335   3
  12   6 -17 4.42035 0.76001   3
 -11  -6  17 5.36485 0.75056   3
  11   6 -17 6.59698 0.85410   3
 -10  -6  17 9.50257 0.93351   3
  10   6 -17 8.64095 0.89359   2
  10   6 -17 8.34223 0.91589   3
  -9  -6  17 7.44763 0.80767   3
  -9  -6  17 8.22390 0.84861   2
   9   6 -17 8.11319 0.82296   3
   9   6 -17 10.1999 0.99455   2
  -8  -6  17 4.49979 0.69133   2
  -8  -6  17 2.87383 0.57709   3
   8   6 -17 4.52580 0.73413   2
   8   6 -17 3.47715 0.58179   3
  -7  -6  17 2.50683 0.66085   2
  -7  -6  17 1.49582 0.57243   3
   7   6 -17 1.49013 0.68672   2
   7   6 -17 1.82950 0.58513   3
  -6  -6  17 2.21143 0.51968   3
  -6  -6  17 0.46910 0.62152   2
   6   6 -17 1.18144 0.68057   2
   6   6 -17 2.21690 0.63825   3
  -5  -6  17 -0.0889 0.56237   3
   5   6 -17 -1.5057 0.53591   3
  -4  -6  17 1.83449 0.60763   2
  -4  -6  17 0.50089 0.59898   3
   4   6 -17 1.12375 0.63411   2
   4   6 -17 0.53821 0.49739   3
  -3  -6  17 2.90603 0.62981   3
  -3  -6  17 3.49854 0.65867   2
   3   6 -17 2.53615 0.66413   2
  -2  -6  17 2.07092 0.62360   2
   2   6 -17 1.44243 0.60935   2
  -1  -6  17 5.07878 0.69341   2
   1   6 -17 3.33288 0.65373   2
   0  -6  17 4.68104 0.73044   2
   0   6 -17 4.00931 0.69580   2
   1  -6  17 0.83031 0.61898   2
  -1   6 -17 1.87655 0.63750   2
   2  -6  17 12.0267 1.05789   2
  -2   6 -17 12.3154 1.08583   2
 -22   0  18 10.4786 1.12342   3
 -22   0  18 13.2164 1.48447   2
 -21   0  18 0.95149 0.77838   3
  21   0 -18 2.01865 0.75020   2
 -21   0  18 -3.3455 1.28474   2
  20   0 -18 0.89014 0.70034   2
  20   0 -18 0.30387 0.74576   3
 -19   0  18 3.86061 0.87691   3
  19   0 -18 2.42526 0.59881   2
  19   0 -18 3.09908 0.88496   3
 -18   0  18 7.01048 0.90944   3
  18   0 -18 8.14284 0.94619   3
  18   0 -18 9.21713 0.90366   2
  17   0 -18 12.8926 1.16096   3
 -17   0  18 12.8026 1.18153   3
  17   0 -18 13.9883 1.06877   2
 -16   0  18 77.4416 4.78690   3
  16   0 -18 76.1014 4.69320   3
  16   0 -18 80.5778 4.77114   2
  15   0 -18 52.4039 3.30127   3
 -15   0  18 51.6426 3.25826   3
  15   0 -18 55.3407 3.32882   2
  14   0 -18 49.0397 2.98880   2
 -14   0  18 46.0211 2.95187   3
  14   0 -18 46.3810 2.94032   3
 -13   0  18 53.7554 3.36924   3
  13   0 -18 58.5352 3.51904   2
  13   0 -18 53.1086 3.32243   3
 -12   0  18 105.638 6.43462   3
  12   0 -18 91.8265 5.59849   3
  12   0 -18 106.641 6.27006   2
  11   0 -18 44.6932 2.73659   2
 -11   0  18 46.4041 2.91768   3
  10   0 -18 1.18974 0.64655   2
 -10   0  18 1.13368 0.76454   2
  10   0 -18 1.12403 0.59143   3
   9   0 -18 67.8304 4.02919   2
  -9   0  18 76.1130 4.69369   3
   9   0 -18 75.0373 4.60590   3
   8   0 -18 5.12748 0.64520   2
   8   0 -18 6.52474 0.83679   3
   7   0 -18 76.2976 4.50673   2
  -7   0  18 79.0010 4.65240   2
   6   0 -18 47.6302 2.87727   2
  -6   0  18 52.6515 3.14501   2
  -5   0  18 80.3579 4.74264   2
   5   0 -18 81.2049 4.78441   2
  -4   0  18 114.218 6.67261   2
   4   0 -18 113.791 6.68575   2
  -3   0  18 229.764 13.3233   2
   2   0 -18 72.2454 4.28025   2
   1   0 -18 60.2006 3.58290   2
   0   0 -18 39.8649 2.47320   2
   0   0  18 37.1586 2.28789   2
  -1   0 -18 1.66729 0.56026   2
   1   0  18 1.05147 0.49558   2
   2   0  18 20.5034 1.39782   2
  -2   0 -18 20.7219 1.42032   2
  -3   0 -18 3.76478 0.60402   2
   3   0  18 2.33835 0.59560   2
  -4   0 -18 13.6330 1.07940   2
   4   0  18 12.6954 1.01363   2
  -5   0 -18 11.5903 1.04271   2
 -22  -1  18 10.6262 1.48028   2
 -21  -1  18 6.68066 0.84504   3
  21  -1 -18 7.50556 0.84023   2
 -21  -1  18 2.78907 1.28544   2
  21  -1 -18 5.29753 1.00318   3
  21   1 -18 4.22039 0.84692   3
  21   1 -18 6.37346 0.82181   2
  20  -1 -18 4.82263 0.76912   2
  20  -1 -18 5.70899 1.00184   3
 -20  -1  18 4.16283 0.88751   3
 -20   1  18 2.43790 1.09239   2
 -20   1  18 6.33771 0.99623   3
  20   1 -18 6.71088 0.81671   2
  19  -1 -18 17.4897 1.30295   2
  19  -1 -18 16.2495 1.36389   3
 -19   1  18 18.4322 1.47600   3
  19   1 -18 17.8929 1.29610   2
  19   1 -18 14.8059 1.29327   3
 -19   1  18 17.5986 1.52417   2
 -18  -1  18 5.01223 0.86639   3
  18  -1 -18 7.35570 0.98779   3
  18  -1 -18 6.52574 0.80761   2
  18   1 -18 6.60009 0.78603   2
 -18   1  18 7.44314 0.95372   3
  18   1 -18 4.76896 0.93111   3
  17  -1 -18 15.2523 1.25023   3
  17  -1 -18 17.1520 1.25984   2
 -17  -1  18 16.1312 1.30397   3
  17   1 -18 15.9270 1.36208   3
  17   1 -18 14.8601 1.13098   2
 -17   1  18 15.6474 1.23872   3
  16  -1 -18 7.91704 0.84769   2
  16  -1 -18 7.49587 0.97053   3
  16   1 -18 6.71166 1.11215   3
 -16   1  18 6.72780 0.95276   3
 -15  -1  18 3.89656 0.89795   3
  15  -1 -18 1.61480 0.80755   3
  15  -1 -18 2.26099 0.65733   2
 -15   1  18 1.00906 0.83940   3
  15   1 -18 2.86349 0.87984   3
 -14  -1  18 4.77836 1.43928   2
  14  -1 -18 5.16623 0.83516   3
 -14  -1  18 5.79344 0.85756   3
  14  -1 -18 3.55872 0.69200   2
 -14   1  18 0.41411 1.43132   2
 -14   1  18 2.88283 0.86755   3
  14   1 -18 3.66494 0.68690   2
  14   1 -18 4.69264 0.84185   3
  13  -1 -18 7.71480 0.97672   3
 -13  -1  18 10.1000 1.00544   3
  13  -1 -18 9.87635 0.91693   2
  13   1 -18 8.99726 0.89506   2
 -13   1  18 9.23649 1.03572   3
  13   1 -18 8.74287 0.94029   3
  12  -1 -18 13.5145 1.04246   2
 -12  -1  18 13.4659 1.17267   3
  12   1 -18 13.4448 1.03197   2
  12   1 -18 14.0534 1.20491   3
 -12   1  18 11.0129 1.01987   3
 -11  -1  18 39.9875 2.53464   3
  11  -1 -18 43.9138 2.80149   3
  11   1 -18 40.6746 2.60086   3
  11   1 -18 46.3890 2.81410   2
  10  -1 -18 26.3370 1.76634   3
 -10  -1  18 22.0372 1.49511   3
  10   1 -18 25.4389 1.64714   2
 -10   1  18 28.6919 1.94777   3
 -10   1  18 18.1121 1.40466   2
   9  -1 -18 57.4129 3.57229   3
   9  -1 -18 64.5132 3.85159   2
   9   1 -18 62.2530 3.71173   2
   9   1 -18 60.8939 3.76269   3
  -9   1  18 58.4481 3.65946   3
  -8  -1  18 67.7946 4.02115   2
  -8  -1  18 64.2905 3.95721   3
   8  -1 -18 69.6122 4.13400   2
   8   1 -18 72.6209 4.29559   2
   8   1 -18 60.7815 3.77127   3
  -7  -1  18 5.43929 0.72559   3
   7  -1 -18 4.82139 0.58905   2
  -7  -1  18 6.07797 0.65049   2
   7   1 -18 5.08917 0.64236   3
   7   1 -18 6.60906 0.71656   2
  -7   1  18 5.12191 0.58072   2
  -6  -1  18 68.8458 4.08200   2
   6   1 -18 72.4930 4.29275   2
   5  -1 -18 16.2306 1.17147   2
  -5  -1  18 14.9401 1.06294   2
  -5   1  18 14.4569 1.03624   2
   5   1 -18 16.7632 1.20662   2
  -4  -1  18 1.44410 0.62693   2
   4  -1 -18 1.88762 0.56202   2
   4   1 -18 1.59686 0.56216   2
  -3  -1  18 1.25075 0.55237   2
   3  -1 -18 0.43835 0.38478   2
   3   1 -18 0.91180 0.50022   2
  -2  -1  18 -0.4224 0.55969   2
   2   1 -18 0.68761 0.48010   2
  -1  -1  18 0.84992 0.63515   2
   1   1 -18 1.17743 0.55856   2
   0  -1  18 53.4032 3.20811   2
   0   1 -18 49.0791 2.96940   2
   1  -1  18 33.3410 2.09631   2
  -1   1 -18 36.1802 2.26976   2
   2  -1  18 30.3474 1.95886   2
  -2   1 -18 28.4496 1.86269   2
   3  -1  18 49.1485 3.00104   2
   4  -1  18 7.47886 0.78883   2
  -4   1 -18 7.18656 0.83916   2
  -5   1 -18 22.2467 1.53214   2
   6  -1  18 18.8521 1.35217   2
   7  -1  18 1.83276 0.67677   2
  -7   1 -18 1.27810 0.65737   2
   8  -1  18 1.16922 0.63390   2
 -21  -2  18 1.13117 0.79194   3
 -21   2  18 0.97451 0.85770   3
  21   2 -18 2.02201 0.69886   2
  21   2 -18 0.63647 0.78102   3
 -20  -2  18 -0.9173 1.09207   2
  20  -2 -18 1.72626 0.84407   3
 -20  -2  18 0.41353 0.79617   3
  20   2 -18 1.55449 0.77865   2
 -20   2  18 1.17853 0.83737   3
  20   2 -18 1.00603 0.80985   3
 -19  -2  18 0.51706 0.79639   3
  19  -2 -18 1.33209 0.65772   2
  19  -2 -18 1.45827 0.85564   3
  19   2 -18 -0.7877 0.67417   2
 -19   2  18 2.73107 0.88529   3
 -18  -2  18 -1.8889 1.28429   2
  18  -2 -18 -1.0108 0.86797   3
 -18   2  18 0.34089 0.77684   3
  18   2 -18 0.33288 0.61360   2
  18   2 -18 1.46460 0.79198   3
 -17  -2  18 -0.4671 1.39924   2
  17  -2 -18 2.66461 0.76135   2
  17  -2 -18 2.04826 0.84167   3
  17   2 -18 3.42114 0.73273   2
 -17   2  18 2.46921 0.80692   3
 -17   2  18 0.83349 1.02222   2
  17   2 -18 2.36996 0.74107   3
  16  -2 -18 0.58667 0.80679   3
 -16  -2  18 0.03030 1.32652   2
 -16  -2  18 2.22266 0.79614   3
  16   2 -18 0.13564 0.62509   2
  16   2 -18 1.81438 0.83171   3
 -16   2  18 1.17932 0.78387   3
 -15  -2  18 4.38562 0.95386   3
  15  -2 -18 3.98258 0.75230   2
  15  -2 -18 3.74855 0.85152   3
  15   2 -18 4.67042 0.74673   2
  15   2 -18 3.74211 0.81230   3
 -15   2  18 3.96990 0.79174   3
 -14   2  18 6.66252 1.55434   2
 -13  -2  18 7.25949 0.89700   3
  13  -2 -18 6.55867 0.74564   2
  13  -2 -18 6.53032 0.96531   3
 -13   2  18 1.51419 1.53938   2
  13   2 -18 6.25328 0.89517   3
 -13   2  18 6.02269 0.92734   3
  13   2 -18 6.37078 0.74454   2
  12  -2 -18 8.66119 1.02046   3
  12  -2 -18 8.62062 0.83668   2
 -12  -2  18 9.91987 0.96025   3
  12   2 -18 8.24615 0.88630   3
  12   2 -18 9.79593 0.90444   2
 -11  -2  18 4.21583 0.72817   3
  11  -2 -18 4.12774 0.73171   2
  11  -2 -18 3.36489 0.83168   3
 -11   2  18 2.97511 0.70928   3
  11   2 -18 4.03505 0.70388   3
  11   2 -18 2.99795 0.57578   2
  10  -2 -18 0.95315 0.75285   3
 -10  -2  18 0.78812 0.68314   3
  10  -2 -18 1.38874 0.62948   2
 -10   2  18 0.22280 0.59916   3
  10   2 -18 1.45905 0.64725   3
  10   2 -18 0.33309 0.51166   2
  -9  -2  18 0.55915 0.49552   2
  -9  -2  18 0.78986 0.60565   3
   9   2 -18 0.25285 0.52964   2
  -8  -2  18 0.06525 0.50112   2
   8   2 -18 0.20355 0.57229   3
  -7  -2  18 36.8730 2.25515   2
  -7  -2  18 35.4334 2.25419   3
   7   2 -18 38.0350 2.39821   3
  -6  -2  18 0.27930 0.56332   3
   6   2 -18 -0.7688 0.58949   3
   6   2 -18 0.13468 0.51721   2
   5   2 -18 4.78209 0.62448   2
   5   2 -18 5.90488 0.70254   3
  -4  -2  18 41.2947 2.49930   2
   4   2 -18 47.6626 2.88589   2
  -3  -2  18 3.63337 0.55160   2
   3   2 -18 4.17796 0.61790   2
  -2  -2  18 0.85408 0.56966   2
   2   2 -18 0.88857 0.51185   2
  -1  -2  18 13.1236 1.04096   2
   1   2 -18 12.9516 1.05331   2
   0  -2  18 1.58771 0.60103   2
   0   2 -18 1.68653 0.54407   2
   1  -2  18 2.33829 0.64661   2
  -1   2 -18 3.60567 0.64746   2
   2  -2  18 2.48388 0.65168   2
  -2   2 -18 1.21509 0.63134   2
   3  -2  18 3.37086 0.63359   2
  -3   2 -18 3.54995 0.64587   2
   4  -2  18 0.34283 0.56423   2
  -4   2 -18 -0.9184 0.59688   2
   5  -2  18 6.96146 0.74202   2
  -5   2 -18 7.54787 0.79092   2
   6  -2  18 6.71555 0.76044   2
  -6   2 -18 6.10630 0.76678   2
   7  -2  18 -0.1424 0.65637   2
  -7   2 -18 -0.1622 0.66719   2
   8  -2  18 0.28097 0.62041   2
 -20  -3  18 17.6379 1.37142   3
  20   3 -18 17.1107 1.33821   3
 -19  -3  18 4.10452 0.84153   3
  19  -3 -18 4.07904 0.84983   3
  19   3 -18 3.41752 0.82343   3
 -19   3  18 4.12337 0.81503   3
  18  -3 -18 14.0898 1.27031   3
 -18  -3  18 14.5671 1.23603   3
  18   3 -18 17.6102 1.37013   2
 -18   3  18 13.1933 1.18321   3
  17  -3 -18 9.56369 1.12089   3
 -17  -3  18 8.36678 1.00767   3
 -17   3  18 8.81054 1.07743   3
  17   3 -18 8.89924 0.89095   2
  17   3 -18 8.05406 0.98500   3
  16  -3 -18 1.47947 0.93799   3
 -16   3  18 1.97000 0.87792   3
  16   3 -18 1.75425 0.66518   2
  16   3 -18 2.32808 0.72796   3
 -15  -3  18 -1.7713 1.03605   2
 -15  -3  18 1.13732 0.68003   3
  15   3 -18 2.59730 0.64489   2
 -15   3  18 0.12285 0.94609   3
  15   3 -18 1.09132 0.72038   3
 -13  -3  18 0.49109 0.98268   2
 -13  -3  18 2.47088 0.70680   3
  13  -3 -18 1.92935 0.87736   3
  13   3 -18 2.01332 0.68562   3
  13   3 -18 2.22522 0.68017   2
 -13   3  18 1.93223 0.80063   3
  12  -3 -18 26.0242 1.90148   3
 -12  -3  18 25.3687 1.73366   3
 -12   3  18 25.2183 1.83524   3
  12   3 -18 25.7950 1.73004   3
  12   3 -18 27.7715 1.80235   2
 -11  -3  18 20.1679 1.37276   2
 -11  -3  18 19.0687 1.37865   3
  11  -3 -18 18.2164 1.44522   3
 -11   3  18 18.0512 1.41618   3
  11   3 -18 20.8998 1.42574   2
 -10  -3  18 33.5330 2.17722   3
 -10  -3  18 40.1780 2.48411   2
  10   3 -18 39.8991 2.46469   2
  10   3 -18 37.5463 2.39937   3
  -9  -3  18 56.8618 3.56620   3
  -9  -3  18 51.5966 3.11550   2
   9   3 -18 51.6590 3.20657   3
   9   3 -18 51.8481 3.13667   2
  -8  -3  18 49.9452 3.11973   3
  -8  -3  18 50.7248 3.06528   2
   8   3 -18 52.4370 3.16285   2
  -7  -3  18 40.7700 2.48757   2
   7   3 -18 43.1321 2.65241   2
   7   3 -18 44.9668 2.82165   3
  -6  -3  18 12.8220 1.01868   2
  -6  -3  18 12.7297 1.08548   3
   6   3 -18 11.3691 0.94959   3
   6   3 -18 10.4248 0.87444   2
  -5  -3  18 66.9651 4.11610   3
  -5  -3  18 57.1072 3.41243   2
   5   3 -18 61.9034 3.79928   3
   5   3 -18 60.1984 3.59460   2
  -4  -3  18 2.44874 0.61870   2
   4   3 -18 1.69431 0.53262   3
   4   3 -18 1.88143 0.54193   2
  -3  -3  18 17.0594 1.20799   2
   3   3 -18 18.6122 1.28206   2
  -2  -3  18 5.44629 0.68169   2
   2   3 -18 6.03856 0.73555   2
  -1  -3  18 38.2892 2.36118   2
   0  -3  18 31.8229 2.00535   2
  -1   3 -18 23.8256 1.56002   2
  -2   3 -18 55.6525 3.35964   2
   3  -3  18 15.0365 1.12069   2
  -3   3 -18 15.1449 1.14984   2
   4  -3  18 5.59203 0.68749   2
  -4   3 -18 5.97095 0.74320   2
   5  -3  18 23.7660 1.56488   2
  -5   3 -18 20.2495 1.41840   2
   6  -3  18 7.82870 0.80523   2
  -6   3 -18 7.37281 0.80543   2
   7  -3  18 -0.4572 0.66528   2
  -7   3 -18 0.37587 0.59542   2
   8  -3  18 0.85021 0.65300   2
  -8   3 -18 0.04539 0.62747   2
 -17  -4  18 7.60327 1.30947   2
 -17  -4  18 5.98839 0.88446   3
 -17   4  18 7.22540 1.05835   3
  17   4 -18 7.32095 0.89368   2
 -16  -4  18 3.74269 0.78988   3
  16  -4 -18 5.04346 0.92030   3
  16   4 -18 6.11244 0.86088   2
  16   4 -18 6.42374 0.93006   3
  15  -4 -18 23.3045 1.73004   3
  15   4 -18 25.2379 1.71131   3
 -15   4  18 22.5234 1.65068   3
  15   4 -18 29.2780 1.96536   2
  14  -4 -18 15.6720 1.39613   3
 -14  -4  18 16.0312 1.27266   3
 -14  -4  18 17.3860 1.25779   2
  14   4 -18 15.5249 1.23574   2
  14   4 -18 16.8354 1.27954   3
 -14   4  18 16.2845 1.39164   3
  13  -4 -18 14.4563 1.33322   3
 -13  -4  18 13.3763 1.04454   2
 -13  -4  18 13.4604 1.10072   3
  13   4 -18 12.7535 1.06469   3
 -13   4  18 11.0446 1.17591   3
 -12  -4  18 21.0346 1.49078   3
  12  -4 -18 22.0409 1.68007   3
  12   4 -18 22.9237 1.56001   2
  12   4 -18 22.6645 1.56995   3
 -12   4  18 21.0088 1.62570   3
 -11  -4  18 18.0638 1.33489   3
  11   4 -18 17.0695 1.27730   3
  11   4 -18 18.3530 1.29659   2
 -10  -4  18 8.67722 0.89780   3
 -10  -4  18 9.33899 0.85637   2
  10   4 -18 8.80988 0.91854   2
  10   4 -18 7.29146 0.84232   3
  -9  -4  18 0.70303 0.62374   3
  -9  -4  18 -0.8597 0.58411   2
   9   4 -18 0.13415 0.63954   3
   9   4 -18 0.06701 0.64336   2
  -8  -4  18 3.13086 0.60121   2
  -8  -4  18 1.82095 0.66782   3
   8   4 -18 1.82385 0.64411   3
   8   4 -18 2.02924 0.66014   2
  -7  -4  18 10.2314 0.91487   3
  -7  -4  18 13.2352 1.03928   2
  -6  -4  18 28.6889 1.83027   2
   6   4 -18 26.1229 1.72785   2
   6   4 -18 29.3566 1.91844   3
  -4  -4  18 38.6705 2.41269   2
  -4  -4  18 33.4757 2.15429   3
   4   4 -18 34.5391 2.20799   3
   4   4 -18 33.9906 2.13727   2
  -3  -4  18 32.9212 2.05548   2
   3   4 -18 33.5605 2.11346   2
   3   4 -18 29.2200 1.89004   3
  -2  -4  18 48.1737 2.91926   2
   2   4 -18 52.8086 3.18373   2
  -1  -4  18 15.3424 1.12954   2
   1   4 -18 15.5551 1.15313   2
   0  -4  18 2.66784 0.60922   2
   0   4 -18 1.76287 0.57215   2
   1  -4  18 19.0556 1.33474   2
  -1   4 -18 18.6323 1.30181   2
   2  -4  18 2.83868 0.61501   2
  -2   4 -18 2.53373 0.63344   2
   3  -4  18 -0.3469 0.57092   2
  -3   4 -18 -0.3370 0.61015   2
   4  -4  18 2.98121 0.58217   2
  -4   4 -18 1.17552 0.62076   2
   5  -4  18 11.4253 0.96328   2
   6  -4  18 4.39537 0.67161   2
  -7   4 -18 1.86165 0.63246   2
 -16  -5  18 0.34409 0.73007   3
 -15  -5  18 1.97567 0.70709   3
  15   5 -18 3.54637 0.78993   2
  15   5 -18 1.04208 0.71338   3
 -14  -5  18 -0.5684 0.83378   3
 -14  -5  18 0.83489 0.68342   2
  14   5 -18 1.20746 0.73491   2
  14   5 -18 -1.0573 0.74958   3
 -13  -5  18 0.53130 0.75900   2
 -13  -5  18 -1.0320 0.64509   3
  13   5 -18 0.66868 0.73565   3
  13   5 -18 -1.8171 0.99565   2
 -12  -5  18 1.73061 0.65619   2
 -12  -5  18 0.77650 0.72865   3
  12   5 -18 0.80172 0.65522   3
  12   5 -18 0.02258 0.78050   2
 -11  -5  18 0.83637 0.62956   3
 -11  -5  18 -0.3528 0.68589   2
  11   5 -18 0.38765 0.60208   3
  11   5 -18 -0.4946 0.69934   2
 -10  -5  18 2.12082 0.70489   3
 -10  -5  18 2.18323 0.67918   2
  10   5 -18 2.94452 0.75390   2
  10   5 -18 3.77060 0.67887   3
  -9  -5  18 2.53460 0.62397   2
  -9  -5  18 0.90779 0.63336   3
   9   5 -18 2.35916 0.66114   3
   9   5 -18 2.00851 0.75401   2
  -8  -5  18 0.19865 0.58280   3
  -8  -5  18 0.88056 0.63405   2
   8   5 -18 0.68554 0.65816   2
   8   5 -18 1.18348 0.61416   3
  -7  -5  18 8.55353 0.82774   2
  -7  -5  18 7.62778 0.76117   3
   7   5 -18 7.87518 0.81874   3
   7   5 -18 7.84438 0.87090   2
  -6  -5  18 2.82849 0.60386   3
  -5  -5  18 0.72407 0.62763   3
  -5  -5  18 1.47434 0.65915   2
   5   5 -18 1.33650 0.59290   3
  -4  -5  18 1.11966 0.52793   3
   4   5 -18 0.92889 0.64806   3
   4   5 -18 1.44100 0.64718   2
  -3  -5  18 3.35691 0.77758   3
   3   5 -18 4.13782 0.66744   3
   3   5 -18 2.34499 0.64848   2
  -2  -5  18 3.16123 0.63811   2
   2   5 -18 3.36789 0.66449   2
  -1  -5  18 0.31152 0.55215   2
   1   5 -18 -0.3225 0.54308   2
   0  -5  18 0.29280 0.56220   2
   0   5 -18 -0.5255 0.57785   2
   1  -5  18 4.63200 0.71358   2
  -1   5 -18 4.08361 0.70445   2
   2  -5  18 1.70421 0.59757   2
  -2   5 -18 1.28185 0.61302   2
   3  -5  18 0.53288 0.58468   2
  -3   5 -18 0.46545 0.62090   2
   4  -5  18 4.25811 0.60976   2
  -4   5 -18 4.29527 0.61874   2
  -5   5 -18 -0.2959 0.65340   2
 -11  -6  18 -0.2913 0.61635   3
 -10  -6  18 1.20748 0.62798   3
  10   6 -18 0.71828 0.62261   3
  -9  -6  18 -0.2868 0.60672   3
   9   6 -18 0.28978 0.61632   2
   9   6 -18 -0.1939 0.56882   3
  -8  -6  18 1.43319 0.59146   2
   8   6 -18 1.20550 0.56529   3
   8   6 -18 -0.0217 0.60104   2
  -7  -6  18 3.73571 0.67974   2
  -7  -6  18 4.58753 0.66678   3
   7   6 -18 4.96098 0.70291   3
   7   6 -18 5.22751 0.75930   2
  -6  -6  18 0.08649 0.64226   3
  -6  -6  18 2.15958 0.63582   2
   6   6 -18 0.02417 0.66834   2
  -5  -6  18 2.41415 0.55633   2
   5   6 -18 2.76799 0.59461   2
  -4  -6  18 1.00604 0.60588   2
   4   6 -18 2.54645 0.66076   2
  -3  -6  18 1.67103 0.62368   2
   3   6 -18 2.35248 0.63611   2
  -2  -6  18 1.63063 0.59901   2
   2   6 -18 2.26510 0.61879   2
  -1  -6  18 1.32746 0.62309   2
   1   6 -18 2.57847 0.63857   2
   0  -6  18 -0.0241 0.63742   2
   0   6 -18 0.00000 0.57611   2
 -22   0  19 -0.2454 1.38219   2
  21   0 -19 -0.4304 0.66940   2
  21   0 -19 -0.0966 0.77045   3
 -20   0  19 -0.5198 0.81688   3
  20   0 -19 0.08703 0.67677   2
  20   0 -19 -0.1204 0.92749   3
 -19   0  19 0.24522 0.78237   3
  19   0 -19 -0.2860 0.63357   2
 -19   0  19 0.74501 1.38649   2
  19   0 -19 -1.1220 0.76165   3
  18   0 -19 -0.0661 0.63487   2
  18   0 -19 1.11873 0.83797   3
 -18   0  19 -0.2962 0.81466   3
 -15   0  19 -0.8664 0.81698   3
 -15   0  19 1.58690 1.05474   2
  15   0 -19 0.22378 0.61874   2
  15   0 -19 -0.1929 0.82215   3
 -14   0  19 1.80561 1.21941   2
  14   0 -19 0.41547 0.72596   3
  14   0 -19 0.35941 0.62109   2
 -14   0  19 -0.7193 0.68217   3
  13   0 -19 0.00000 0.64456   2
 -13   0  19 -1.7832 1.23970   2
 -13   0  19 -0.7835 0.72294   3
  12   0 -19 1.16739 0.74918   3
 -12   0  19 -0.3471 0.93312   2
 -12   0  19 -1.5231 0.86574   3
  12   0 -19 1.09254 0.61649   2
  11   0 -19 0.20184 0.59426   2
 -11   0  19 0.13863 0.79858   2
 -11   0  19 0.81140 0.83688   3
  11   0 -19 0.49316 0.78670   3
 -10   0  19 -0.4342 0.76509   2
 -10   0  19 0.23362 0.79961   3
  10   0 -19 0.24393 0.58759   2
  10   0 -19 -0.3080 0.76234   3
   9   0 -19 0.22112 0.72979   3
   9   0 -19 0.20452 0.52360   2
   8   0 -19 -0.0682 0.49760   2
  -8   0  19 -0.2360 0.46964   2
   7   0 -19 -0.2532 0.53029   2
  -7   0  19 -0.0216 0.57137   2
  -6   0  19 0.10787 0.54679   2
   6   0 -19 1.12051 0.58217   2
  -5   0  19 0.19350 0.42109   2
   4   0 -19 0.35075 0.55562   2
   3   0 -19 0.50424 0.45990   2
  -2   0  19 0.16342 0.59171   2
   2   0 -19 0.30003 0.58495   2
   1   0 -19 -0.4833 0.50618   2
  -1   0  19 0.22204 0.56276   2
   0   0 -19 -0.1149 0.58243   2
   0   0  19 0.04567 0.55242   2
  -1   0 -19 0.00000 0.59294   2
   1   0  19 0.23970 0.57992   2
   2   0  19 -0.5991 0.57973   2
  -2   0 -19 -0.6970 0.61559   2
   3   0  19 -0.5369 0.59040   2
  -3   0 -19 -0.4942 0.59643   2
 -22  -1  19 1.10094 1.19980   2
 -21  -1  19 0.05966 1.06535   2
 -21  -1  19 4.00200 0.85223   3
  21  -1 -19 4.11453 0.96262   3
 -21   1  19 3.79276 0.85670   3
  21   1 -19 3.15881 0.72791   2
  20  -1 -19 2.63101 0.69006   2
 -20  -1  19 -0.9843 1.16835   2
  20  -1 -19 2.29253 0.81363   3
 -20   1  19 2.64228 0.85501   3
  20   1 -19 3.45443 0.89585   3
  20   1 -19 2.94923 0.72456   2
 -19  -1  19 7.72321 0.96645   3
  19  -1 -19 6.94430 0.83985   2
  19  -1 -19 6.58784 0.96113   3
  19   1 -19 6.50535 0.98742   3
  19   1 -19 5.32241 0.81450   2
 -19   1  19 5.96767 1.54550   2
 -19   1  19 6.66270 0.88791   3
 -18  -1  19 4.07668 1.20871   2
  18  -1 -19 2.25551 0.87261   3
  18  -1 -19 2.35529 0.68451   2
 -18  -1  19 1.13859 0.76869   3
  18   1 -19 2.13279 0.80057   3
 -18   1  19 2.00066 0.91475   3
  17  -1 -19 3.82151 0.68116   2
  17  -1 -19 2.84620 0.78970   3
 -17  -1  19 3.24508 0.79977   3
 -17   1  19 2.54262 0.85638   3
  17   1 -19 2.69716 0.88748   3
  16  -1 -19 11.4748 0.98834   2
 -16  -1  19 8.73904 1.39284   2
 -16  -1  19 10.3503 1.11919   3
  16  -1 -19 12.2884 1.23955   3
 -16   1  19 10.0136 1.17071   3
  16   1 -19 10.4226 1.10846   3
  16   1 -19 9.68498 0.97091   2
 -16   1  19 7.77672 1.53821   2
  15  -1 -19 4.52592 0.91297   3
  15  -1 -19 5.23550 0.73202   2
 -15  -1  19 5.46225 0.86271   3
 -15  -1  19 0.71077 1.35297   2
 -15   1  19 1.46212 1.23765   2
 -15   1  19 4.62023 0.94246   3
  15   1 -19 4.14935 0.82512   3
  14  -1 -19 24.6786 1.64533   2
 -14  -1  19 28.7558 1.95993   3
  14   1 -19 26.9256 1.90636   3
 -14   1  19 26.5561 1.88902   3
  14   1 -19 25.6334 1.69825   2
  13  -1 -19 85.4620 5.24585   3
 -13  -1  19 72.0747 4.43356   3
  13   1 -19 78.2470 4.63551   2
  13   1 -19 77.5518 4.77849   3
 -12  -1  19 16.5564 1.25192   3
  12  -1 -19 14.4178 1.13111   2
  12  -1 -19 17.0875 1.36188   3
  12   1 -19 17.9522 1.26183   2
 -12   1  19 17.9613 1.38186   3
  12   1 -19 16.0374 1.29702   3
  11  -1 -19 19.4497 1.43926   3
 -11  -1  19 17.0690 1.25569   3
  11  -1 -19 22.5188 1.52468   2
 -11   1  19 20.0948 1.49073   3
  11   1 -19 20.2624 1.39728   2
  10  -1 -19 118.630 6.96346   2
  10  -1 -19 98.8102 5.99168   3
  10   1 -19 108.769 6.40253   2
  10   1 -19 113.023 6.85840   3
   9  -1 -19 16.1220 1.16072   2
  -9  -1  19 16.9438 1.18527   2
  -9  -1  19 16.5247 1.29030   3
   9   1 -19 16.0531 1.21758   3
   9   1 -19 17.6122 1.23669   2
  -8  -1  19 4.01158 0.79292   3
  -8  -1  19 2.86280 0.58647   2
   8  -1 -19 4.07576 0.61259   2
   8   1 -19 4.73038 0.72869   3
   8   1 -19 3.24128 0.63953   2
  -8   1  19 3.11066 0.54765   2
  -7  -1  19 24.4715 1.59364   2
   7  -1 -19 21.6052 1.43784   2
   7   1 -19 23.7699 1.57952   2
  -7   1  19 23.4274 1.53958   2
   6  -1 -19 3.16377 0.59519   2
  -6  -1  19 3.46332 0.61395   2
   6   1 -19 3.10515 0.58782   2
  -5  -1  19 25.0598 1.59959   2
   5  -1 -19 27.8105 1.78675   2
   5   1 -19 28.2671 1.81317   2
  -4  -1  19 21.2988 1.39208   2
   4   1 -19 23.2735 1.52311   2
  -3  -1  19 47.3709 2.88103   2
   3   1 -19 47.0492 2.85638   2
  -2  -1  19 52.0253 3.15839   2
   2   1 -19 51.0355 3.10125   2
  -1  -1  19 29.6219 1.90285   2
   1   1 -19 26.9372 1.73124   2
   0  -1  19 58.2583 3.49984   2
   0   1 -19 61.2890 3.67473   2
   1  -1  19 41.7686 2.57634   2
   2  -1  19 6.68450 0.78396   2
  -3   1 -19 6.33968 0.82065   2
   4  -1  19 0.59908 0.60736   2
  -4   1 -19 0.71499 0.61115   2
   5  -1  19 4.04574 0.70883   2
   6  -1  19 1.30635 0.65673   2
  -6   1 -19 -0.0464 0.64174   2
   7  -1  19 2.08412 0.67449   2
  20  -2 -19 8.44910 0.98586   3
 -20  -2  19 7.65738 0.94572   3
 -20   2  19 7.88226 0.94008   3
  19  -2 -19 14.4340 1.24279   3
 -19   2  19 13.2945 1.16568   3
  19   2 -19 13.5762 1.21126   3
  19   2 -19 14.0321 1.14486   2
 -18  -2  19 15.2560 1.28808   3
  18  -2 -19 17.4787 1.29883   2
  18  -2 -19 16.6134 1.33538   3
 -18   2  19 17.6058 1.38473   3
  18   2 -19 16.9344 1.24831   2
  18   2 -19 15.2805 1.27741   3
  17  -2 -19 27.1672 1.80286   2
 -17  -2  19 26.2709 1.85251   3
  17  -2 -19 25.5461 1.83118   3
 -17   2  19 28.3261 1.99531   3
  17   2 -19 25.8030 1.71903   2
  17   2 -19 25.4600 1.80680   3
 -16  -2  19 30.4066 2.05143   3
  16  -2 -19 28.8659 1.98429   3
 -16   2  19 32.4775 2.22899   3
  16   2 -19 29.9289 2.02098   3
  16   2 -19 30.2044 1.94033   2
  15  -2 -19 18.0531 1.30914   2
 -15  -2  19 17.2726 1.34467   3
  15   2 -19 17.6740 1.40418   3
 -15   2  19 15.6258 1.31959   3
  15   2 -19 16.6561 1.23056   2
 -14  -2  19 23.8214 1.66830   3
  14  -2 -19 26.3509 1.77435   2
  14  -2 -19 21.8697 1.64821   3
  14   2 -19 24.2661 1.74130   3
  14   2 -19 23.0407 1.53961   2
 -13  -2  19 15.3143 1.20842   3
  13  -2 -19 15.3280 1.34671   3
  13  -2 -19 15.3255 1.18848   2
  13   2 -19 13.8118 1.05348   2
  13   2 -19 14.7532 1.18347   3
 -13   2  19 12.5206 1.10637   3
  12  -2 -19 0.44725 0.64407   2
 -12  -2  19 0.76384 0.70480   3
 -12  -2  19 -0.3585 0.70794   2
  12  -2 -19 0.87304 0.85071   3
  12   2 -19 0.46872 0.67851   3
 -12   2  19 -0.0317 1.02239   2
 -12   2  19 0.48904 0.78013   3
  12   2 -19 0.52158 0.65314   2
  11  -2 -19 3.86049 0.84403   3
 -11  -2  19 3.09152 0.71749   3
  11   2 -19 2.15506 0.70352   3
  11   2 -19 2.33269 0.62025   2
 -10  -2  19 10.9684 1.00636   3
 -10  -2  19 11.5928 0.94243   2
  -9  -2  19 37.2943 2.28950   2
   9   2 -19 35.1929 2.25637   3
  -8  -2  19 51.4316 3.21189   3
   8   2 -19 55.2744 3.43262   3
   8   2 -19 55.0559 3.32022   2
  -7  -2  19 112.168 6.79928   3
   7   2 -19 119.679 7.01345   2
   7   2 -19 117.936 7.12411   3
  -6  -2  19 85.4991 5.03933   2
   6   2 -19 96.6958 5.69631   2
  -5  -2  19 22.8459 1.52576   2
   5   2 -19 22.5420 1.50687   2
  -4  -2  19 44.3248 2.68213   2
   4   2 -19 48.1036 2.91175   2
  -3  -2  19 44.6591 2.72532   2
   3   2 -19 41.9745 2.56023   2
  -2  -2  19 4.98006 0.68982   2
   2   2 -19 5.25251 0.71214   2
  -1  -2  19 2.92859 0.63768   2
   1   2 -19 3.03577 0.60491   2
   0  -2  19 4.23317 0.69687   2
   0   2 -19 4.54596 0.67162   2
   1  -2  19 22.4782 1.50475   2
  -1   2 -19 21.0744 1.44999   2
   2  -2  19 4.98163 0.69002   2
  -2   2 -19 4.80341 0.70206   2
  -3   2 -19 12.6828 1.11870   2
   4  -2  19 64.3523 3.86418   2
  -4   2 -19 64.0549 3.86062   2
   5  -2  19 51.6426 3.13344   2
  -5   2 -19 48.7890 2.98334   2
   6  -2  19 4.42535 0.70524   2
  -6   2 -19 4.00325 0.69329   2
   7  -2  19 11.2744 1.02691   2
 -20  -3  19 1.51319 1.01967   2
 -19  -3  19 1.20046 1.08666   2
 -19  -3  19 0.27751 0.77715   3
  19   3 -19 1.96811 0.61145   2
 -18  -3  19 0.88702 1.02191   2
  18  -3 -19 -0.9177 0.87675   3
  18   3 -19 -0.2185 0.69428   3
 -18   3  19 0.39386 0.81244   3
  18   3 -19 0.79944 0.63959   2
 -17  -3  19 0.37461 0.74184   3
 -17   3  19 0.19949 0.87788   3
  17   3 -19 0.70282 0.79987   3
  17   3 -19 0.98638 0.64567   2
 -16  -3  19 0.44467 0.73380   3
  16  -3 -19 0.29688 0.92539   3
 -16  -3  19 -1.2797 1.03514   2
  16   3 -19 1.27579 0.74151   3
  16   3 -19 0.31102 0.63984   2
 -15  -3  19 5.15548 0.79096   3
  15  -3 -19 4.14346 0.90635   3
  15   3 -19 4.42294 0.74650   2
  15   3 -19 5.74434 0.82560   3
 -15   3  19 4.41447 0.94372   3
 -14  -3  19 3.77132 0.76438   3
 -14   3  19 2.96948 0.94137   3
  14   3 -19 3.11333 0.73314   2
  14   3 -19 2.83208 0.73941   3
 -12  -3  19 8.94366 0.94420   3
 -12  -3  19 10.7418 0.91284   2
  12  -3 -19 10.5021 1.16426   3
  12   3 -19 11.3287 0.94988   2
 -12   3  19 9.12483 1.07324   3
  12   3 -19 10.6787 0.98389   3
 -11  -3  19 15.4048 1.16305   2
 -11  -3  19 10.2952 0.90511   3
  11   3 -19 16.2984 1.24569   2
  11   3 -19 11.1121 0.99019   3
 -10  -3  19 7.33467 0.78707   3
 -10  -3  19 7.64469 0.77608   2
  10   3 -19 6.43880 0.80142   3
  10   3 -19 8.61142 0.84071   2
  -9  -3  19 5.94573 0.81792   3
  -9  -3  19 6.08667 0.78762   2
   9   3 -19 5.99152 0.77010   2
  -8  -3  19 7.53316 0.79651   2
   8   3 -19 8.36736 0.95780   3
   8   3 -19 9.01466 0.85944   2
  -7  -3  19 4.03083 0.77680   3
  -7  -3  19 2.78074 0.61038   2
   7   3 -19 5.11687 0.71972   2
   7   3 -19 4.99247 0.79903   3
  -6  -3  19 4.12322 0.67521   2
  -6  -3  19 4.85297 0.76288   3
   6   3 -19 4.56009 0.71296   2
   6   3 -19 4.44699 0.63392   3
  -5  -3  19 3.44400 0.61444   2
   5   3 -19 2.78598 0.57792   3
   5   3 -19 2.50084 0.63446   2
  -4  -3  19 5.40168 0.68611   2
   4   3 -19 6.06792 0.69936   2
  -3  -3  19 11.5034 0.94189   2
  -2  -3  19 4.17064 0.66290   2
   1   3 -19 18.6181 1.31051   2
   0   3 -19 12.8883 1.03952   2
   1  -3  19 11.5631 0.99576   2
  -1   3 -19 11.0236 0.93860   2
   2  -3  19 20.1133 1.39265   2
  -2   3 -19 19.8405 1.39454   2
   3  -3  19 1.52821 0.61483   2
  -3   3 -19 0.86930 0.59550   2
   4  -3  19 0.24809 0.57163   2
  -4   3 -19 1.29550 0.63570   2
   5  -3  19 7.21417 0.78135   2
  -5   3 -19 7.61010 0.83411   2
   6  -3  19 -0.2137 0.65650   2
  -6   3 -19 0.07143 0.60349   2
   7  -3  19 1.26663 0.63327   2
  -7   3 -19 1.04816 0.61720   2
 -18  -4  19 2.11468 0.73770   3
  17   4 -19 3.28963 0.81904   3
  17   4 -19 4.47455 0.77337   2
 -16  -4  19 0.57814 0.71901   3
 -16  -4  19 0.22440 0.82727   2
  16   4 -19 -0.1327 0.68792   2
  16   4 -19 0.66831 0.78776   3
 -15  -4  19 0.46911 0.70623   3
 -15  -4  19 0.47029 0.64032   2
  15   4 -19 -0.8547 0.73134   3
 -14  -4  19 1.58655 0.63366   2
 -14  -4  19 1.05810 0.72432   3
  14   4 -19 1.41647 0.71531   3
 -13  -4  19 -0.8621 0.68495   3
  13   4 -19 -0.1408 0.67120   3
  13   4 -19 0.51583 0.67178   2
 -12  -4  19 6.56139 0.80242   3
  12   4 -19 6.24994 0.80471   3
  12   4 -19 7.62633 0.82821   2
 -11  -4  19 2.08851 0.64938   3
 -11  -4  19 1.86269 0.75599   2
  11   4 -19 3.00911 0.76474   2
  11   4 -19 0.94980 0.72905   3
 -10  -4  19 1.23958 0.64467   3
 -10  -4  19 0.10987 0.60758   2
  10   4 -19 0.58747 0.67116   3
  10   4 -19 -0.2706 0.62356   2
  -9  -4  19 8.09738 0.86467   2
  -9  -4  19 7.80600 0.89296   3
   9   4 -19 9.20915 0.97688   2
   9   4 -19 6.01905 0.81280   3
  -8  -4  19 2.54495 0.59684   2
   8   4 -19 2.52518 0.65259   2
   8   4 -19 2.82419 0.65154   3
  -7  -4  19 0.43013 0.52032   2
  -7  -4  19 1.60878 0.64814   3
   7   4 -19 1.08286 0.58395   2
   7   4 -19 0.78887 0.66951   3
  -6  -4  19 8.80379 0.82492   2
   6   4 -19 8.06329 0.82012   3
   6   4 -19 8.29553 0.78822   2
  -5  -4  19 2.68304 0.60813   2
  -5  -4  19 2.73382 0.62068   3
   5   4 -19 2.48386 0.57901   3
   5   4 -19 1.97207 0.56805   2
  -4  -4  19 0.60624 0.56909   2
   4   4 -19 -0.3249 0.57192   3
   4   4 -19 0.15625 0.59148   2
  -3  -4  19 2.31657 0.59001   2
  -2  -4  19 1.39679 0.62733   2
   2   4 -19 1.14432 0.61883   2
  -1  -4  19 0.61644 0.60094   2
   1   4 -19 1.73982 0.57662   2
   0  -4  19 0.53033 0.55543   2
   0   4 -19 -0.0477 0.57715   2
   1  -4  19 25.7752 1.68434   2
  -1   4 -19 25.3653 1.66666   2
   2  -4  19 1.04118 0.57120   2
  -2   4 -19 0.79281 0.60892   2
   3  -4  19 -0.1734 0.59929   2
  -3   4 -19 0.43379 0.63857   2
   4  -4  19 20.1554 1.40027   2
  -5   4 -19 0.00000 0.60993   2
  -6   4 -19 0.38441 0.63661   2
 -15  -5  19 1.19423 0.70948   3
 -14  -5  19 6.60618 0.87970   3
  14   5 -19 6.84095 0.89628   3
 -13  -5  19 7.78857 0.84693   3
 -13  -5  19 7.47746 0.80875   2
  13   5 -19 5.80488 0.86540   3
  13   5 -19 5.86544 0.80915   2
 -12  -5  19 4.49480 0.77980   3
 -12  -5  19 7.04869 0.79441   2
  12   5 -19 6.51465 0.79709   2
  12   5 -19 6.34916 0.80144   3
 -11  -5  19 13.0819 1.12484   3
 -11  -5  19 13.1386 1.05170   2
  11   5 -19 11.9434 1.00973   3
  11   5 -19 11.2375 1.01151   2
 -10  -5  19 15.2679 1.22328   3
 -10  -5  19 17.2005 1.26551   2
  10   5 -19 14.8793 1.17055   3
  10   5 -19 15.2625 1.17887   2
  -9  -5  19 5.27462 0.75989   2
  -9  -5  19 6.05221 0.72350   3
   9   5 -19 6.39652 0.81797   3
   9   5 -19 6.51170 0.78720   2
  -8  -5  19 0.23919 0.60122   2
  -7  -5  19 0.28126 0.57330   2
   7   5 -19 1.45335 0.62047   3
  -6  -5  19 0.25932 0.54680   3
   6   5 -19 0.81915 0.57119   2
   6   5 -19 0.12703 0.58229   3
  -5  -5  19 6.79668 0.72174   3
   5   5 -19 7.46773 0.83352   3
   5   5 -19 7.43654 0.78915   2
  -4  -5  19 8.17129 0.86853   2
   4   5 -19 6.68519 0.85615   2
  -3  -5  19 11.4219 0.94457   2
   3   5 -19 10.7152 0.91524   2
  -2  -5  19 14.7951 1.12292   2
   2   5 -19 14.4653 1.07551   2
  -1  -5  19 1.20388 0.55479   2
   1   5 -19 1.00636 0.55210   2
   0  -5  19 9.16682 0.86390   2
   0   5 -19 9.41658 0.87187   2
   1  -5  19 17.5079 1.27260   2
  -1   5 -19 15.9699 1.19471   2
   2  -5  19 0.39863 0.60278   2
  -2   5 -19 1.96835 0.64392   2
   3  -5  19 3.58977 0.67468   2
  -3   5 -19 2.09899 0.65440   2
   8   6 -19 5.95757 0.78749   2
   7   6 -19 8.17859 0.83743   2
  -6  -6  19 1.82142 0.64570   2
   6   6 -19 2.41931 0.73782   2
  -5  -6  19 1.96224 0.58518   2
   5   6 -19 3.40726 0.63234   2
  -4  -6  19 2.95408 0.70690   2
   4   6 -19 2.31814 0.65463   2
  -3  -6  19 8.43832 0.84707   2
   3   6 -19 8.71624 0.84438   2
   2   6 -19 4.04902 0.77314   2
 -21   0  20 7.38585 1.02642   3
  20   0 -20 16.0036 1.20195   2
  20   0 -20 14.4562 1.26083   3
 -20   0  20 14.2909 1.22335   3
  19   0 -20 19.1045 1.51809   3
  19   0 -20 21.1138 1.47360   2
 -19   0  20 19.1243 1.50050   3
  18   0 -20 11.0255 1.07434   3
  18   0 -20 13.2573 1.07229   2
 -18   0  20 13.3541 1.13953   3
 -17   0  20 7.63117 0.89002   3
  17   0 -20 7.04293 0.91834   3
  17   0 -20 9.01272 0.89554   2
 -16   0  20 5.42130 0.94784   3
  16   0 -20 6.95102 0.85001   2
  16   0 -20 5.92758 0.99729   3
 -15   0  20 0.17790 0.78286   3
  15   0 -20 0.68069 0.80235   3
 -15   0  20 -1.0933 1.25956   2
  15   0 -20 2.01941 0.65749   2
 -14   0  20 16.7294 1.37195   3
  14   0 -20 18.0052 1.33211   2
  13   0 -20 5.66864 0.94512   3
  12   0 -20 34.4434 2.30081   3
 -12   0  20 35.0336 2.31817   3
  12   0 -20 37.2535 2.32192   2
  11   0 -20 200.413 12.0735   3
  11   0 -20 182.632 10.6565   2
 -11   0  20 206.183 12.4205   3
  10   0 -20 29.5899 1.99853   3
  10   0 -20 29.4350 1.89703   2
  -9   0  20 35.1318 2.17974   2
   9   0 -20 34.3649 2.15202   2
   8   0 -20 114.744 6.72042   2
  -8   0  20 129.142 7.55698   2
  -7   0  20 30.7215 1.94503   2
   6   0 -20 16.1562 1.19639   2
  -6   0  20 15.3373 1.13241   2
   5   0 -20 15.9439 1.19047   2
  -4   0  20 19.6599 1.29820   2
   4   0 -20 20.3850 1.37319   2
   3   0 -20 0.55055 0.54030   2
  -3   0  20 0.29267 0.55393   2
   2   0 -20 4.13072 0.64668   2
  -2   0  20 2.32582 0.64421   2
  -1   0  20 103.974 6.12044   2
   1   0 -20 104.442 6.15801   2
   0   0 -20 43.2273 2.67886   2
   0   0  20 41.2973 2.54323   2
   1   0  20 39.7591 2.45756   2
  -1   0 -20 41.7345 2.59516   2
 -21  -1  20 -0.2976 1.16564   2
 -21   1  20 3.99748 1.48361   2
  20  -1 -20 0.87081 0.93213   3
 -20  -1  20 -1.6640 1.15021   2
 -20  -1  20 1.84371 0.78881   3
 -20   1  20 0.00000 0.82035   3
 -20   1  20 0.35246 1.37434   2
  20   1 -20 -0.7033 0.85376   3
 -19  -1  20 2.03432 0.79325   3
  19  -1 -20 0.69371 0.92110   3
  19  -1 -20 2.11903 0.67261   2
 -19   1  20 1.72155 0.86344   3
 -19   1  20 -0.5837 1.37683   2
  19   1 -20 1.22194 0.86038   3
 -18  -1  20 4.23298 0.96562   3
  18  -1 -20 5.64634 0.75659   2
  18  -1 -20 6.04026 0.86812   3
  18   1 -20 5.20443 0.91843   3
 -18   1  20 4.77465 0.90877   3
 -18   1  20 2.83364 1.36589   2
  18   1 -20 4.73290 0.76103   2
  17  -1 -20 12.7177 1.15091   3
 -17  -1  20 13.8167 1.19198   3
  17  -1 -20 12.5137 1.07536   2
  17   1 -20 14.2849 1.13332   2
  17   1 -20 12.7287 1.19039   3
 -17   1  20 12.6067 1.20442   3
 -16  -1  20 5.77936 1.42200   2
 -16  -1  20 7.48606 0.95599   3
  16   1 -20 6.91961 0.97905   3
  16   1 -20 7.07254 0.83336   2
 -16   1  20 7.22479 1.03327   3
 -16   1  20 4.60284 1.33446   2
 -15  -1  20 19.8453 1.46626   3
  15  -1 -20 18.5452 1.54333   3
  15   1 -20 19.4780 1.37705   2
  15   1 -20 19.1724 1.51397   3
 -15   1  20 17.3276 1.52305   3
 -14  -1  20 29.0600 1.95484   3
  14  -1 -20 31.6466 2.11873   3
  14  -1 -20 34.1315 2.18443   2
  14   1 -20 31.3340 1.99879   2
  14   1 -20 29.3212 2.02254   3
  13  -1 -20 0.83697 0.75576   2
  13  -1 -20 -0.0487 0.82974   3
 -13  -1  20 0.98777 0.70636   3
 -13  -1  20 -0.9361 0.88816   2
  13   1 -20 1.41007 0.61886   2
 -13   1  20 0.55886 0.86636   3
 -13   1  20 -0.3335 1.29221   2
  12  -1 -20 10.2087 1.00028   3
  12   1 -20 13.1833 1.03688   2
 -12   1  20 11.4722 1.09345   3
  12   1 -20 10.0595 0.97492   3
  11  -1 -20 13.2600 1.11763   3
 -11  -1  20 17.7156 1.34075   3
  11  -1 -20 19.1283 1.36416   2
  11   1 -20 17.8068 1.36553   3
  11   1 -20 17.8509 1.29497   2
 -10  -1  20 1.06370 0.51062   2
  10  -1 -20 1.16192 0.61783   2
 -10  -1  20 1.16238 0.78905   3
  10   1 -20 2.53270 0.84918   3
  10   1 -20 0.83861 0.60058   2
   9  -1 -20 -0.0651 0.57515   2
  -9  -1  20 0.53315 0.56509   2
   9   1 -20 1.08421 0.68917   3
   9   1 -20 0.38506 0.57409   2
   8  -1 -20 12.0687 0.94958   2
  -8  -1  20 13.1064 1.02812   2
   8   1 -20 12.5090 1.01508   2
  -8   1  20 12.2432 0.98116   2
   7  -1 -20 10.4794 0.88428   2
  -7  -1  20 10.9374 0.89004   2
   7   1 -20 12.7636 1.03812   2
   6  -1 -20 5.16212 0.63305   2
  -6  -1  20 6.62672 0.68064   2
   6   1 -20 7.21874 0.84005   2
   5   1 -20 51.4414 3.13244   2
  -4  -1  20 51.4759 3.08887   2
   4   1 -20 54.6084 3.28618   2
  -3  -1  20 14.8171 1.09401   2
   3   1 -20 15.7085 1.12489   2
  -2  -1  20 56.8102 3.43047   2
   2   1 -20 54.8647 3.33395   2
  -1  -1  20 0.82810 0.67041   2
   1   1 -20 1.28242 0.58589   2
   0  -1  20 0.41111 0.57887   2
  -1   1 -20 23.8129 1.60030   2
   2  -1  20 4.28742 0.73289   2
  -2   1 -20 3.54113 0.71539   2
   3  -1  20 2.53727 0.64036   2
   4  -1  20 6.41915 0.76444   2
  -4   1 -20 6.86082 0.78813   2
   5  -1  20 1.19091 0.69946   2
  -5   1 -20 1.14099 0.67067   2
 -21  -2  20 1.14922 1.46711   2
 -20  -2  20 2.65786 1.30224   2
 -20  -2  20 -0.2279 0.72426   3
  20   2 -20 0.32205 0.79036   3
  20   2 -20 0.40859 0.70608   2
 -19  -2  20 -0.0294 1.18582   2
  19  -2 -20 2.84965 0.90335   3
 -19  -2  20 2.13288 0.75427   3
  19   2 -20 2.32345 0.74645   2
  19   2 -20 3.36194 0.84935   3
 -19   2  20 1.36542 1.29548   2
 -19   2  20 2.14872 0.83278   3
 -18  -2  20 -0.9665 0.75551   3
  18  -2 -20 1.24278 0.83107   3
  18   2 -20 0.07538 0.82926   3
  18   2 -20 -1.6593 0.67912   2
 -18   2  20 -0.9314 0.86286   3
 -18   2  20 -1.4059 1.52626   2
 -17  -2  20 2.13694 0.75570   3
 -17  -2  20 0.37037 0.98470   2
  17   2 -20 2.31409 0.75540   3
  17   2 -20 2.81863 0.71889   2
 -17   2  20 1.97097 0.89448   3
 -16  -2  20 1.94637 0.81710   3
  16  -2 -20 1.73864 0.92984   3
  16  -2 -20 1.06546 0.72649   2
  16   2 -20 1.42189 0.63991   2
  16   2 -20 3.10929 0.86215   3
 -15  -2  20 2.10123 0.81756   3
  15  -2 -20 1.35699 0.90642   3
  15  -2 -20 2.24726 0.79663   2
 -15   2  20 2.44837 1.00671   3
  15   2 -20 1.78854 0.64394   2
 -15   2  20 -0.5689 1.37977   2
  15   2 -20 1.18566 0.78810   3
  14  -2 -20 2.74386 0.90842   3
  14  -2 -20 5.48307 0.79945   2
  14   2 -20 5.21460 0.73529   2
 -14   2  20 4.87158 0.95234   3
 -13  -2  20 -0.1484 0.70731   3
  13  -2 -20 -0.2424 0.88013   3
 -13  -2  20 2.02537 0.85655   2
  13   2 -20 -0.1480 0.67864   3
 -13   2  20 -2.4397 1.46009   2
 -13   2  20 1.11225 0.84295   3
  13   2 -20 -0.3634 0.62806   2
 -12  -2  20 1.36183 0.72237   3
  12  -2 -20 0.92549 0.83063   3
 -12   2  20 1.77444 0.81341   3
 -11  -2  20 2.87853 0.62343   2
  11   2 -20 2.58294 0.75448   3
 -10  -2  20 1.12994 0.69925   3
  10   2 -20 1.37082 0.65352   3
  10   2 -20 0.58522 0.57050   2
  -9  -2  20 -0.4129 0.58792   3
   9   2 -20 0.16358 0.59230   2
   9   2 -20 0.55329 0.68479   3
  -8  -2  20 2.28725 0.58283   2
  -8  -2  20 3.58661 0.74927   3
   8   2 -20 2.35684 0.57445   2
   8   2 -20 3.10815 0.66909   3
  -7  -2  20 1.01262 0.59627   2
   7   2 -20 0.84283 0.57736   2
  -6  -2  20 0.77102 0.54863   2
   6   2 -20 -0.1647 0.62344   2
  -5  -2  20 0.13471 0.54317   2
   5   2 -20 1.03120 0.58081   2
  -4  -2  20 4.70629 0.65284   2
   4   2 -20 4.50019 0.69662   2
  -3  -2  20 3.86974 0.62979   2
   3   2 -20 2.67145 0.59579   2
  -2  -2  20 2.05334 0.67978   2
   2   2 -20 0.49671 0.62675   2
  -1  -2  20 7.39827 0.81593   2
   1   2 -20 7.63702 0.80738   2
   0  -2  20 15.2387 1.13047   2
   0   2 -20 15.4789 1.15177   2
   1  -2  20 8.38487 0.82386   2
  -1   2 -20 9.13800 0.87563   2
   2  -2  20 4.50481 0.71043   2
  -2   2 -20 6.31285 0.82006   2
   3  -2  20 5.07853 0.74190   2
  -3   2 -20 5.77274 0.77170   2
   4  -2  20 12.3613 1.00637   2
  -4   2 -20 14.8578 1.15284   2
   5  -2  20 6.05953 0.77289   2
  -6   2 -20 -0.4588 0.58137   2
 -19  -3  20 -0.0247 0.78810   3
 -19  -3  20 0.47860 0.97301   2
  19   3 -20 0.58119 0.64382   2
 -18  -3  20 14.2118 1.19739   3
  18   3 -20 14.9616 1.15868   2
  18   3 -20 11.7168 1.10367   3
 -17  -3  20 -0.1357 1.03180   2
 -17  -3  20 3.19335 0.78985   3
  17   3 -20 3.10789 0.77715   3
 -17   3  20 2.09832 0.81482   3
  17   3 -20 4.84094 0.77536   2
  16  -3 -20 4.35850 0.95911   3
 -16  -3  20 4.21540 0.79593   3
  16   3 -20 4.48532 0.75317   2
 -16   3  20 4.09356 0.84115   3
  16   3 -20 3.26840 0.80787   3
  15  -3 -20 43.2562 2.83923   3
 -15  -3  20 40.9939 2.63934   3
  15   3 -20 41.9332 2.69742   3
 -15   3  20 36.8295 2.43269   3
  15   3 -20 43.4800 2.70237   2
 -14  -3  20 16.0906 1.27520   3
  14  -3 -20 13.5622 1.20895   3
  14   3 -20 19.2132 1.36257   2
  14   3 -20 16.2964 1.23071   3
 -13  -3  20 2.89692 0.64289   2
 -13  -3  20 3.09180 0.78298   3
  13   3 -20 4.64135 0.71131   2
  13   3 -20 4.03012 0.80624   3
 -12  -3  20 9.23247 0.99472   3
 -12  -3  20 9.17732 0.80270   2
  12   3 -20 8.61917 0.78252   2
 -11  -3  20 8.79793 0.91374   3
 -11  -3  20 9.80327 0.87712   2
  11   3 -20 10.0476 0.91377   2
 -10  -3  20 0.45865 0.60388   2
  10   3 -20 1.72584 0.65821   3
  10   3 -20 -0.8111 0.51914   2
  -9  -3  20 6.76329 0.76665   2
  -9  -3  20 4.50454 0.78807   3
   9   3 -20 4.89077 0.85235   3
   9   3 -20 5.63142 0.76197   2
  -8  -3  20 14.8208 1.16027   2
  -8  -3  20 17.5638 1.35102   3
   8   3 -20 17.7163 1.36675   3
   8   3 -20 14.7070 1.14873   2
  -7  -3  20 16.7833 1.28914   3
  -7  -3  20 18.4407 1.28828   2
   7   3 -20 16.8749 1.25594   3
   7   3 -20 18.4748 1.31128   2
  -6  -3  20 13.7097 1.05065   2
   6   3 -20 13.5208 1.07165   2
  -5  -3  20 36.7276 2.28548   2
  -4  -3  20 28.5777 1.81925   2
   2   3 -20 19.1889 1.36630   2
  -1  -3  20 6.35210 0.74279   2
   1   3 -20 7.19670 0.76126   2
   0  -3  20 1.73351 0.62923   2
   0   3 -20 0.26437 0.58146   2
   1  -3  20 5.37657 0.73563   2
  -1   3 -20 5.46272 0.71168   2
   2  -3  20 4.27534 0.69983   2
  -2   3 -20 5.09211 0.78416   2
   3  -3  20 45.6291 2.80408   2
  -3   3 -20 48.9508 3.01701   2
   4  -3  20 3.21557 0.62706   2
  -4   3 -20 4.27086 0.71083   2
   5  -3  20 0.46285 0.61743   2
  -5   3 -20 0.07094 0.59934   2
   6  -3  20 24.7199 1.67268   2
 -17  -4  20 3.23223 0.97594   2
 -17  -4  20 3.47937 0.77116   3
  17   4 -20 3.07642 0.70373   2
 -16  -4  20 0.55690 0.66627   2
 -16  -4  20 0.96400 0.70704   3
  16   4 -20 1.09156 0.75708   3
 -15  -4  20 1.48750 0.72732   3
 -15  -4  20 0.44429 0.60936   2
  15   4 -20 -0.3399 0.75710   2
  15   4 -20 1.25559 0.71625   3
 -14  -4  20 0.50133 0.63033   3
  14   4 -20 1.26736 0.69715   3
  14   4 -20 -0.0676 0.67523   2
 -13  -4  20 1.09125 0.65375   2
 -13  -4  20 0.49826 0.73089   3
  13   4 -20 1.48419 0.69980   3
  13   4 -20 0.95600 0.67158   2
 -12  -4  20 23.1678 1.55748   2
 -12  -4  20 20.2096 1.48770   3
  12   4 -20 22.1631 1.57186   3
  12   4 -20 22.9798 1.56680   2
 -11  -4  20 16.6915 1.21277   2
 -11  -4  20 16.3173 1.30509   3
  11   4 -20 18.4288 1.32990   2
  11   4 -20 15.7988 1.27682   3
 -10  -4  20 7.85744 0.79775   2
 -10  -4  20 7.32548 0.90149   3
  10   4 -20 9.62404 0.90716   2
  -9  -4  20 11.2822 0.92017   2
   9   4 -20 12.4244 1.03094   2
   9   4 -20 10.5878 0.94867   3
  -8  -4  20 25.9015 1.69184   2
  -8  -4  20 27.4351 1.92450   3
   8   4 -20 22.5752 1.54471   2
  -7  -4  20 20.6610 1.41689   2
  -7  -4  20 17.6801 1.26225   3
   7   4 -20 18.8099 1.32628   2
  -6  -4  20 6.89401 0.77382   3
  -6  -4  20 7.34139 0.75333   2
   6   4 -20 7.28352 0.75613   2
   6   4 -20 6.72034 0.76185   3
  -5  -4  20 0.63359 0.57892   2
   5   4 -20 0.08733 0.55333   2
  -4  -4  20 0.69719 0.55394   2
   4   4 -20 0.02412 0.58353   2
  -3  -4  20 0.73388 0.65457   2
   3   4 -20 0.40788 0.63576   2
  -2  -4  20 0.30527 0.59517   2
   2   4 -20 1.02851 0.61939   2
  -1  -4  20 2.69626 0.55976   2
   1   4 -20 2.39534 0.56906   2
   0  -4  20 38.5086 2.39599   2
   0   4 -20 39.2464 2.43330   2
   1  -4  20 13.7826 1.10003   2
  -1   4 -20 12.4968 1.01931   2
   2  -4  20 4.26106 0.68118   2
   3  -4  20 8.91768 0.83516   2
  -3   4 -20 9.00349 0.91577   2
  -4   4 -20 8.24766 0.85926   2
 -13  -5  20 2.81442 0.68821   3
 -13  -5  20 4.10177 0.74491   2
  13   5 -20 5.19550 0.77412   2
 -12  -5  20 0.08779 0.65742   2
 -12  -5  20 -0.2451 0.66193   3
  12   5 -20 -0.0918 0.63143   3
  12   5 -20 -0.8395 0.72533   2
 -11  -5  20 1.93325 0.70897   3
 -11  -5  20 1.07323 0.66974   2
  11   5 -20 1.10530 0.65868   3
  11   5 -20 0.39904 0.64902   2
 -10  -5  20 6.63299 0.79739   3
 -10  -5  20 7.86355 0.78182   2
  -9  -5  20 0.35455 0.61269   2
   9   5 -20 0.76032 0.66425   3
  -8  -5  20 -0.5921 0.56032   2
  -8  -5  20 0.44841 0.54265   3
   8   5 -20 0.74767 0.67740   3
  -7  -5  20 0.76329 0.55983   3
   7   5 -20 0.99629 0.58665   2
   6   5 -20 1.15890 0.73055   2
  -5  -5  20 0.27023 0.59434   2
   5   5 -20 0.07368 0.62249   2
  -4  -5  20 1.43009 0.59422   2
   4   5 -20 1.69122 0.65863   2
  -3  -5  20 11.7100 1.02002   2
   3   5 -20 11.8443 0.93921   2
  -2  -5  20 0.16933 0.55738   2
   2   5 -20 1.28514 0.62640   2
  -1  -5  20 0.48147 0.58243   2
   1   5 -20 0.93673 0.64751   2
   0  -5  20 8.64216 0.87649   2
   0   5 -20 9.28468 0.88481   2
   1  -5  20 1.11940 0.63049   2
  -1   5 -20 0.99610 0.61578   2
   2  -5  20 0.34924 0.63226   2
  -2   5 -20 1.65241 0.67190   2
 -21   0  21 -0.3535 1.18771   2
 -20   0  21 0.38254 1.18654   2
  20   0 -21 -0.5507 0.65980   2
 -20   0  21 0.15200 0.83611   3
 -19   0  21 -0.0507 0.72500   3
  19   0 -21 0.94035 0.79579   3
  18   0 -21 -0.9182 0.82408   3
 -18   0  21 1.24284 0.78132   3
  18   0 -21 -0.2442 0.69056   2
 -17   0  21 0.58427 0.75458   3
  17   0 -21 -1.4862 0.65465   2
  17   0 -21 0.12130 0.80071   3
 -17   0  21 -0.2778 1.17368   2
 -16   0  21 -1.1961 0.86791   3
 -16   0  21 -0.1234 1.27996   2
  16   0 -21 0.93001 0.73979   2
 -15   0  21 1.77141 1.30476   2
  15   0 -21 -0.0449 0.69777   2
  15   0 -21 -2.0910 0.94721   3
  14   0 -21 -0.3455 0.64674   2
 -14   0  21 0.78802 0.83898   3
  14   0 -21 0.92674 0.88177   3
 -14   0  21 0.11582 0.96735   2
  13   0 -21 -0.9128 0.64122   2
 -13   0  21 -0.7193 0.86059   2
 -13   0  21 -0.0782 0.91796   3
  13   0 -21 0.59032 0.96004   3
 -12   0  21 -1.1814 0.78638   2
  12   0 -21 0.39940 0.82388   3
  12   0 -21 -0.0442 0.68725   2
 -12   0  21 0.33522 0.87944   3
  11   0 -21 -0.6628 0.65826   2
  11   0 -21 0.37038 0.78777   3
  10   0 -21 0.24960 0.75810   2
 -10   0  21 -0.0221 0.58480   2
  -9   0  21 -0.1059 0.63468   2
  -8   0  21 -0.5478 0.65640   2
   8   0 -21 -0.8485 0.61742   2
   7   0 -21 0.30624 0.63002   2
   6   0 -21 -0.4083 0.57493   2
  -6   0  21 -0.1990 0.48395   2
  -5   0  21 0.00000 0.52187   2
   5   0 -21 0.39378 0.52927   2
   4   0 -21 -0.4621 0.48399   2
  -4   0  21 -0.7339 0.53147   2
   3   0 -21 -0.1138 0.62904   2
  -3   0  21 -0.2769 0.61141   2
  -2   0  21 0.42275 0.53830   2
   2   0 -21 0.39122 0.47575   2
   1   0 -21 -0.2309 0.55872   2
  -1   0  21 0.52202 0.57526   2
 -20  -1  21 13.1502 1.28884   3
  20   1 -21 16.1002 1.27594   2
 -19  -1  21 11.3333 1.15403   3
  19  -1 -21 10.9925 1.14984   3
 -19   1  21 9.67368 1.08658   3
  19   1 -21 8.45439 1.03410   3
  19   1 -21 11.2558 1.03904   2
 -18  -1  21 3.27585 0.88041   3
 -18  -1  21 -0.5490 1.22994   2
 -18   1  21 1.08759 0.81587   3
  18   1 -21 5.81897 0.82833   2
 -18   1  21 3.65237 1.22165   2
  18   1 -21 2.45694 0.84646   3
 -17  -1  21 9.41049 1.07442   3
  17  -1 -21 10.6244 0.99099   2
  17   1 -21 9.71004 1.09902   3
  17   1 -21 11.3868 1.02347   2
 -17   1  21 8.07791 1.09098   3
 -16  -1  21 10.9744 1.01832   3
  16  -1 -21 11.4518 1.02545   2
  16  -1 -21 11.1121 1.07399   3
  16   1 -21 10.9632 0.96852   2
  16   1 -21 10.5282 1.04867   3
 -15  -1  21 4.45750 0.81759   3
  15  -1 -21 6.01191 0.84013   3
  15  -1 -21 5.81000 0.77453   2
  15   1 -21 7.13116 0.81672   2
 -15   1  21 6.35908 1.00742   3
  14  -1 -21 4.92298 0.89837   3
 -14   1  21 3.65753 0.89731   3
  14   1 -21 3.02332 0.81136   3
 -13  -1  21 0.00000 0.89424   2
 -13  -1  21 1.15073 0.96324   3
  13  -1 -21 0.94112 0.82299   3
  13  -1 -21 0.19450 0.69714   2
  13   1 -21 1.20800 0.60729   2
 -13   1  21 0.00000 0.85134   3
 -13   1  21 1.06564 1.02860   2
  13   1 -21 0.79409 0.79172   3
 -11  -1  21 0.96854 0.81964   3
 -11  -1  21 0.64622 0.53911   2
  11  -1 -21 0.26879 0.64514   2
  11   1 -21 0.27006 0.62226   2
  11   1 -21 -0.3624 0.85062   3
 -10  -1  21 21.7236 1.44191   2
  10  -1 -21 21.3301 1.45325   2
  10   1 -21 18.0840 1.33725   3
  10   1 -21 22.2406 1.50281   2
   9  -1 -21 41.6627 2.56746   2
  -9  -1  21 46.8577 2.85359   2
  -9   1  21 44.5315 2.72388   2
   9   1 -21 45.7590 2.80910   2
   8  -1 -21 19.6344 1.35165   2
  -8  -1  21 17.0292 1.20599   2
   8   1 -21 19.1479 1.34010   2
  -7  -1  21 68.8460 4.11053   2
   7   1 -21 64.3280 3.86003   2
  -6  -1  21 31.7167 1.98216   2
   6   1 -21 36.0879 2.26411   2
  -5  -1  21 3.09470 0.63221   2
   5   1 -21 2.20984 0.61725   2
  -4  -1  21 38.8173 2.39656   2
   4   1 -21 38.9096 2.40753   2
  -3  -1  21 31.2863 1.99816   2
   3   1 -21 30.8745 1.99346   2
  -2  -1  21 28.9105 1.90078   2
   1   1 -21 3.19487 0.63911   2
   0   1 -21 0.15450 0.63569   2
   1  -1  21 14.9648 1.17049   2
   2  -1  21 16.0821 1.22024   2
   3  -1  21 12.4402 1.05839   2
  -3   1 -21 12.1579 1.04140   2
   4  -1  21 14.5845 1.18554   2
 -19  -2  21 -0.9469 0.76017   3
 -19  -2  21 0.42720 0.91870   2
  19   2 -21 1.47912 0.76559   2
  19   2 -21 0.57380 0.85083   3
 -18  -2  21 0.90218 0.76568   3
 -18  -2  21 -0.9140 0.98715   2
  18   2 -21 1.23237 0.68454   2
  18   2 -21 1.46417 0.76446   3
  17  -2 -21 0.80801 0.91588   3
 -17  -2  21 2.00162 0.81873   3
 -17  -2  21 0.30928 0.97177   2
 -17   2  21 2.22565 0.89781   3
  17   2 -21 0.48601 0.63628   2
 -17   2  21 3.68619 1.30142   2
  17   2 -21 0.36917 0.78522   3
 -16  -2  21 25.9953 1.79836   3
  16  -2 -21 25.1184 1.80160   3
  16   2 -21 24.8497 1.74453   3
 -16   2  21 27.1336 1.94893   3
  16   2 -21 25.9734 1.72625   2
  15  -2 -21 18.4791 1.44960   3
 -15  -2  21 16.9370 1.32060   3
 -15   2  21 17.0667 1.48501   3
  15   2 -21 16.6955 1.21000   2
  15   2 -21 18.3570 1.39133   3
  14  -2 -21 5.42599 0.96831   3
 -14  -2  21 7.70009 0.92643   3
 -14   2  21 7.14736 1.10813   3
  13   2 -21 32.1729 2.14816   3
 -12  -2  21 48.7256 3.10210   3
  12   2 -21 49.2899 3.12074   3
  12   2 -21 49.9873 3.04570   2
 -11  -2  21 24.5866 1.72534   3
  11   2 -21 25.6967 1.72515   2
  11   2 -21 22.9802 1.61114   3
 -10  -2  21 14.6402 1.23995   3
  10   2 -21 13.1643 1.08987   3
  10   2 -21 14.5675 1.11995   2
  -9  -2  21 1.68635 0.65329   3
  -9  -2  21 2.03703 0.62418   2
   9   2 -21 1.40380 0.68362   3
   9   2 -21 2.59690 0.59324   2
  -8  -2  21 1.56087 0.59943   2
   8   2 -21 1.51100 0.59760   2
  -7  -2  21 11.1040 0.93503   2
   7   2 -21 12.1502 1.00650   2
  -6  -2  21 8.79393 0.81995   2
   6   2 -21 7.76875 0.81417   2
  -5  -2  21 22.9928 1.51399   2
   5   2 -21 25.9411 1.70845   2
  -4  -2  21 20.1839 1.37837   2
   4   2 -21 18.7393 1.30718   2
  -3  -2  21 55.9929 3.39938   2
   3   2 -21 55.5482 3.36678   2
  -2  -2  21 13.2895 1.08891   2
   2   2 -21 13.1836 1.09349   2
  -1  -2  21 28.7694 1.87582   2
   1   2 -21 28.0676 1.82919   2
   0  -2  21 74.5084 4.42732   2
   0   2 -21 78.1400 4.64866   2
   1  -2  21 7.70651 0.81526   2
  -1   2 -21 8.00816 0.84164   2
   2  -2  21 0.40340 0.57409   2
  -2   2 -21 -0.3235 0.58572   2
   3  -2  21 1.81941 0.67078   2
   4  -2  21 -0.2834 0.54415   2
  -4   2 -21 0.24752 0.49255   2
 -18  -3  21 3.99507 0.82424   3
  18   3 -21 4.76258 0.74719   2
 -17  -3  21 0.61848 1.11526   2
 -17  -3  21 0.50221 0.66301   3
  17   3 -21 1.12658 0.76475   3
  17   3 -21 0.79353 0.67912   2
 -16  -3  21 3.76160 0.86101   2
 -16  -3  21 0.95482 0.72726   3
  16   3 -21 1.73628 0.75339   2
  16   3 -21 1.82208 0.71218   3
 -15  -3  21 11.8329 1.03898   3
 -15  -3  21 9.07697 0.97714   2
  15   3 -21 12.5051 1.06042   2
  15   3 -21 11.4810 1.04273   3
 -14  -3  21 0.24698 0.76079   3
 -14  -3  21 0.83534 0.54288   2
  14   3 -21 -0.0919 0.75848   3
  14   3 -21 1.55922 0.68683   2
 -13  -3  21 0.82523 0.51192   2
 -13  -3  21 0.46708 0.73023   3
  13   3 -21 -0.4073 0.54745   2
 -12  -3  21 0.17423 0.57708   2
  12   3 -21 -0.5092 0.61331   2
  12   3 -21 -0.6228 0.73594   3
 -11  -3  21 0.68512 0.61107   2
 -11  -3  21 0.04582 0.78135   3
  11   3 -21 0.56852 0.70051   3
  11   3 -21 0.27307 0.60298   2
 -10  -3  21 -0.5818 0.71691   3
 -10  -3  21 -0.1981 0.58320   2
  10   3 -21 0.97590 0.65366   2
  -9  -3  21 18.2036 1.40840   3
  -9  -3  21 16.0504 1.14908   2
   9   3 -21 16.4492 1.22155   2
   9   3 -21 17.2958 1.40149   3
  -8  -3  21 12.0699 1.03232   3
  -8  -3  21 16.3397 1.19728   2
   8   3 -21 16.8258 1.31978   3
   8   3 -21 17.7516 1.28276   2
  -7  -3  21 2.26027 0.62005   2
  -6  -3  21 11.4966 0.94149   2
  -5  -3  21 4.37985 0.63726   2
   5   3 -21 3.61066 0.67190   2
   4   3 -21 3.37276 0.61364   2
   3   3 -21 4.16840 0.75399   2
  -2  -3  21 1.33489 0.64756   2
   2   3 -21 1.91382 0.63757   2
  -1  -3  21 -1.0690 0.60207   2
   1   3 -21 -0.7409 0.57820   2
   0  -3  21 2.67261 0.70850   2
   0   3 -21 2.35417 0.63202   2
   1  -3  21 3.61516 0.68478   2
  -1   3 -21 4.18440 0.72046   2
   2  -3  21 -0.7253 0.58492   2
  -2   3 -21 0.16494 0.59720   2
   3  -3  21 16.6688 1.24745   2
  -3   3 -21 14.6075 1.14134   2
   4  -3  21 2.67110 0.64347   2
  -4   3 -21 1.55674 0.61571   2
  16   4 -21 6.34760 0.80421   2
 -15  -4  21 -0.3596 0.63295   3
  15   4 -21 0.52265 0.65449   2
  15   4 -21 -0.2820 0.69812   3
 -14  -4  21 -0.0955 0.68315   3
 -14  -4  21 -0.4381 0.63092   2
  14   4 -21 1.16737 0.67244   2
  14   4 -21 -0.9434 0.70056   3
 -13  -4  21 7.54335 0.88215   3
 -13  -4  21 7.96099 0.82288   2
  13   4 -21 7.98049 0.94284   3
  13   4 -21 6.91171 0.82505   2
 -12  -4  21 0.94386 0.65849   3
 -12  -4  21 0.04371 0.60431   2
  12   4 -21 0.47409 0.65022   2
 -11  -4  21 1.99108 0.67016   2
  11   4 -21 2.44289 0.69718   2
  11   4 -21 2.31451 0.76641   3
 -10  -4  21 3.73012 0.60680   2
 -10  -4  21 3.76334 0.79444   3
  10   4 -21 3.01362 0.74236   3
  10   4 -21 3.20551 0.71665   2
  -9  -4  21 4.26480 0.83095   3
  -9  -4  21 3.27149 0.69711   2
   9   4 -21 2.54169 0.68028   3
   9   4 -21 3.96365 0.69849   2
  -8  -4  21 -0.0688 0.60514   3
  -8  -4  21 -0.3097 0.61159   2
   8   4 -21 -0.1159 0.64092   2
   8   4 -21 1.74503 0.69811   3
  -7  -4  21 0.38933 0.57313   2
   7   4 -21 0.40817 0.60087   2
  -6  -4  21 9.85837 0.86454   2
   6   4 -21 9.38036 0.85181   2
  -5  -4  21 1.53032 0.62229   2
   5   4 -21 2.56571 0.64262   2
  -4  -4  21 1.74684 0.59528   2
   4   4 -21 2.63136 0.68000   2
  -3  -4  21 3.97957 0.68239   2
   3   4 -21 3.91946 0.64908   2
  -2  -4  21 3.82035 0.64031   2
   2   4 -21 3.30773 0.63524   2
  -1  -4  21 0.96204 0.58188   2
   1   4 -21 0.34164 0.59040   2
   0  -4  21 0.17271 0.56849   2
   1  -4  21 1.21023 0.61349   2
  -2   4 -21 3.75115 0.68827   2
   3  -4  21 0.05036 0.63818   2
  -3   4 -21 0.31587 0.64382   2
 -12  -5  21 2.11475 0.61554   2
  12   5 -21 2.34612 0.64874   2
 -11  -5  21 -0.5039 0.63099   2
  11   5 -21 0.34061 0.60168   2
 -10  -5  21 9.02608 0.88395   2
   9   5 -21 3.55117 0.65158   2
   8   5 -21 5.88153 0.75029   2
  -7  -5  21 11.2372 0.89726   2
   7   5 -21 12.9066 0.96904   2
  -6  -5  21 0.49650 0.57200   2
   6   5 -21 0.04726 0.57173   2
  -5  -5  21 3.39321 0.68353   2
   5   5 -21 3.36798 0.74840   2
  -4  -5  21 5.02996 0.70427   2
   4   5 -21 5.09620 0.72406   2
  -3  -5  21 3.19197 0.64430   2
   3   5 -21 2.89022 0.64455   2
  -2  -5  21 0.33637 0.58128   2
   2   5 -21 0.26915 0.62015   2
  -1  -5  21 7.98753 0.82144   2
   1   5 -21 5.37169 0.71868   2
   0  -5  21 0.76571 0.62604   2
   0   5 -21 0.36497 0.61669   2
  19   0 -22 2.49732 0.71929   2
 -19   0  22 0.96512 0.81032   3
 -19   0  22 -0.5522 1.16628   2
  18   0 -22 14.0925 1.16434   2
 -18   0  22 13.8816 1.25964   3
  17   0 -22 15.4198 1.41258   3
  17   0 -22 17.6199 1.32011   2
  16   0 -22 45.9969 3.01618   3
  16   0 -22 49.7379 3.04547   2
 -16   0  22 47.7592 3.11054   3
  15   0 -22 19.9780 1.62961   3
  15   0 -22 20.0526 1.43307   2
 -15   0  22 20.2885 1.63265   3
  14   0 -22 0.55818 0.66878   2
 -14   0  22 1.52325 0.96572   3
  14   0 -22 0.02507 0.93764   3
 -14   0  22 -0.3300 0.95036   2
 -13   0  22 38.2489 2.59802   3
  13   0 -22 34.4130 2.32768   3
  13   0 -22 38.8540 2.44692   2
 -11   0  22 0.51185 0.64097   2
  10   0 -22 0.15737 0.62160   2
   9   0 -22 12.8632 1.08399   2
  -8   0  22 22.0765 1.52801   2
   8   0 -22 22.1523 1.54247   2
   7   0 -22 55.5665 3.41989   2
  -7   0  22 43.3155 2.65033   2
   6   0 -22 3.83369 0.73196   2
  -6   0  22 1.48431 0.62626   2
   5   0 -22 109.030 6.40640   2
  -5   0  22 113.354 6.66112   2
   4   0 -22 131.452 7.69875   2
  -4   0  22 135.009 7.91983   2
   3   0 -22 12.3181 1.01269   2
  -3   0  22 11.6643 1.01458   2
 -20  -1  22 0.15067 1.35389   2
 -19  -1  22 6.27536 0.87337   3
 -19   1  22 2.11056 1.23299   2
 -18  -1  22 0.42103 0.76291   3
  18   1 -22 0.68516 0.61668   2
  18   1 -22 -0.6949 0.73723   3
  17  -1 -22 -0.2164 0.82004   3
  17  -1 -22 0.10787 0.72076   2
 -17  -1  22 1.19069 0.73684   3
 -17   1  22 0.47792 0.85786   3
  17   1 -22 -0.4745 0.64599   2
 -17   1  22 -1.5801 1.24924   2
 -16  -1  22 0.27632 1.17788   2
  16  -1 -22 3.75544 0.79841   2
  16  -1 -22 3.48128 0.92452   3
 -16   1  22 3.81408 0.93865   3
  16   1 -22 3.28654 0.68619   2
 -16   1  22 0.58196 1.34096   2
  16   1 -22 2.57615 0.91778   3
 -15  -1  22 -0.2725 0.91042   2
  15  -1 -22 1.27114 0.73222   2
 -15  -1  22 0.50979 0.86932   3
  15  -1 -22 0.83527 0.89266   3
 -15   1  22 -0.7770 1.06092   2
 -15   1  22 0.74797 0.85031   3
  15   1 -22 0.60287 0.69455   2
  15   1 -22 0.51654 0.75770   3
 -14  -1  22 0.55094 0.88163   3
  14  -1 -22 0.43174 0.84441   3
 -14  -1  22 1.27127 0.91536   2
  14   1 -22 -0.3487 0.82214   3
  14   1 -22 0.13384 0.66818   2
 -13  -1  22 14.3987 1.26839   3
  13  -1 -22 16.3334 1.26767   2
  13   1 -22 14.9645 1.25257   3
  13   1 -22 15.0684 1.15856   2
  12  -1 -22 29.4311 1.94664   2
 -12  -1  22 29.9945 1.90512   2
 -12  -1  22 26.6391 1.87841   3
  12   1 -22 27.1891 1.79037   2
  12   1 -22 25.4601 1.77983   3
 -11  -1  22 5.18517 0.70006   2
  11  -1 -22 4.35269 0.78136   2
  11   1 -22 5.25367 0.74026   2
  10  -1 -22 28.0575 1.81725   2
 -10  -1  22 29.3399 1.88758   2
  10   1 -22 30.7243 1.97050   2
 -10   1  22 25.7960 1.68702   2
  -9  -1  22 2.84670 0.65100   2
   9   1 -22 3.42900 0.69269   2
  -8  -1  22 30.6604 1.95090   2
   8   1 -22 30.2233 1.93452   2
  -7  -1  22 12.1836 0.98328   2
   7   1 -22 13.0142 1.09861   2
  -6  -1  22 15.0234 1.09076   2
   6   1 -22 14.9774 1.20197   2
  -5  -1  22 12.8936 0.99945   2
   5   1 -22 13.0821 1.05075   2
  -4  -1  22 3.43589 0.65984   2
  -3  -1  22 -0.3302 0.65209   2
   3   1 -22 0.60670 0.72583   2
   2   1 -22 1.43411 0.63547   2
  -1  -1  22 44.3969 2.74925   2
   0  -1  22 -0.3507 0.70037   2
   1  -1  22 14.4497 1.16506   2
  -1   1 -22 14.6537 1.19583   2
   2  -1  22 13.8455 1.11323   2
  -2   1 -22 12.9531 1.12281   2
 -19  -2  22 1.39368 1.01580   2
  19   2 -22 0.44023 0.63397   2
 -18  -2  22 -0.2742 1.16868   2
 -18  -2  22 0.95380 0.80080   3
  18   2 -22 0.28968 0.64180   2
  18   2 -22 0.21934 0.83115   3
 -17  -2  22 0.62493 0.93910   2
 -17  -2  22 2.02916 0.77170   3
  17   2 -22 0.02472 0.76135   3
  17   2 -22 2.13235 0.65849   2
 -15  -2  22 1.48447 0.76213   3
 -15  -2  22 -0.3720 0.71419   2
  14   2 -22 0.77008 0.68441   2
  14   2 -22 1.18635 0.78310   3
 -13  -2  22 1.40698 0.80064   3
  13   2 -22 -0.1611 0.78511   3
  13   2 -22 1.74485 0.66125   2
 -12  -2  22 5.58294 0.86652   3
  12   2 -22 7.39798 0.89894   3
  12   2 -22 7.35448 0.78489   2
 -11  -2  22 13.9771 1.06932   2
 -11  -2  22 11.3958 1.05242   3
  11   2 -22 11.8319 1.13604   3
  11   2 -22 12.4519 1.03533   2
 -10  -2  22 0.00000 0.57999   2
  10   2 -22 0.62930 0.59553   2
  -9  -2  22 4.40074 0.67619   2
   9   2 -22 4.95546 0.70727   2
  -8  -2  22 31.2640 2.00976   2
  -7  -2  22 2.20959 0.58554   2
   7   2 -22 2.43029 0.72001   2
  -6  -2  22 -0.2015 0.59333   2
   6   2 -22 -0.8889 0.65646   2
  -5  -2  22 11.3087 0.96029   2
   5   2 -22 11.4421 0.94975   2
  -2  -2  22 1.96998 0.71255   2
   2   2 -22 1.28609 0.64987   2
  -1  -2  22 3.38148 0.73054   2
   1   2 -22 3.35948 0.68150   2
   0  -2  22 -0.3044 0.67437   2
   0   2 -22 0.00000 0.62492   2
   1  -2  22 5.18566 0.75715   2
  -1   2 -22 5.63741 0.79226   2
   2  -2  22 1.70930 0.65643   2
  -3   2 -22 3.90482 0.72312   2
 -18  -3  22 -0.8154 0.96965   2
 -17  -3  22 -0.6299 0.80942   2
  17   3 -22 1.02084 0.66474   2
 -16  -3  22 -0.0442 0.73765   2
 -16  -3  22 1.34282 0.72523   3
  16   3 -22 0.04477 0.61900   2
  16   3 -22 1.95230 0.75806   3
 -15  -3  22 -0.1505 0.61922   2
 -15  -3  22 0.97230 0.74055   3
  15   3 -22 0.06867 0.65930   2
 -14  -3  22 15.1472 1.12385   2
 -14  -3  22 13.8611 1.19499   3
  14   3 -22 13.1229 1.15508   3
  14   3 -22 15.6339 1.19492   2
 -13  -3  22 1.98647 0.62878   2
 -13  -3  22 3.43559 0.84584   3
  13   3 -22 2.73130 0.69338   2
  13   3 -22 1.91917 0.68689   3
 -12  -3  22 18.7222 1.33203   2
  12   3 -22 17.6161 1.29645   2
  12   3 -22 18.2843 1.36906   3
 -11  -3  22 32.8324 2.07267   2
 -11  -3  22 32.7453 2.19525   3
  11   3 -22 36.3544 2.29384   2
  11   3 -22 35.3612 2.31269   3
 -10  -3  22 1.98954 0.65120   2
 -10  -3  22 1.25545 0.77852   3
  10   3 -22 2.58661 0.89085   3
  10   3 -22 2.80115 0.70272   2
  -9  -3  22 33.2748 2.08448   2
  -8  -3  22 29.9712 1.89844   2
  -7  -3  22 2.49382 0.65301   2
   7   3 -22 1.96853 0.69375   2
   6   3 -22 3.55388 0.65208   2
   5   3 -22 2.85023 0.62673   2
  -4  -3  22 -0.3164 0.61679   2
   4   3 -22 0.00000 0.61167   2
  -3  -3  22 3.57585 0.67769   2
   3   3 -22 3.78693 0.68181   2
  -2  -3  22 23.2723 1.57444   2
   2   3 -22 21.9875 1.47826   2
  -1  -3  22 11.0513 0.98426   2
   1   3 -22 9.82319 0.92285   2
   0  -3  22 19.2211 1.36658   2
   0   3 -22 19.8469 1.40049   2
   1  -3  22 4.21779 0.73717   2
  -1   3 -22 2.85744 0.72273   2
   2  -3  22 6.29462 0.78136   2
  -2   3 -22 7.98745 0.83448   2
   3  -3  22 4.90611 0.71028   2
  -3   3 -22 4.89281 0.73901   2
 -15  -4  22 6.14492 0.78975   2
  15   4 -22 6.77127 0.80454   2
 -14  -4  22 2.80021 0.65029   2
  14   4 -22 3.10773 0.72129   2
 -13  -4  22 0.48182 0.60555   2
  13   4 -22 0.11293 0.70255   2
 -12  -4  22 11.2167 0.95517   2
 -12  -4  22 10.0386 1.03692   3
  12   4 -22 12.5991 1.06155   2
 -10  -4  22 0.68432 0.60443   2
  10   4 -22 -0.8516 0.65410   2
  -9  -4  22 1.87865 0.64684   2
   9   4 -22 1.86156 0.66196   2
  -8  -4  22 14.2170 1.07433   2
   8   4 -22 13.8834 1.10964   2
  -7  -4  22 0.55166 0.58471   2
   7   4 -22 0.45544 0.57716   2
  -6  -4  22 12.1121 0.93458   2
   6   4 -22 11.8891 0.92745   2
  -5  -4  22 29.5155 1.89816   2
   5   4 -22 29.6446 1.92496   2
  -4  -4  22 3.79542 0.71073   2
   4   4 -22 5.63628 0.80147   2
  -3  -4  22 11.8673 1.00447   2
   3   4 -22 10.5885 0.94333   2
  -2  -4  22 0.60398 0.58450   2
  -1  -4  22 6.10070 0.77508   2
   0   4 -22 2.96910 0.65028   2
  -1   4 -22 0.52705 0.60720   2
 -11  -5  22 -0.1079 0.59691   2
  11   5 -22 -0.1612 0.55698   2
  10   5 -22 1.41060 0.65530   2
  -9  -5  22 0.75563 0.59693   2
   9   5 -22 -0.1794 0.59419   2
  -8  -5  22 -0.2618 0.60321   2
   8   5 -22 0.64156 0.58620   2
  -7  -5  22 3.81468 0.67227   2
   7   5 -22 3.74389 0.69332   2
  -6  -5  22 1.59890 0.62348   2
   6   5 -22 1.52230 0.65062   2
  -5  -5  22 5.38528 0.73168   2
   5   5 -22 4.05057 0.63156   2
  -4  -5  22 11.4965 0.96991   2
   4   5 -22 10.7111 0.91291   2
  -3  -5  22 2.12464 0.63980   2
   3   5 -22 2.52502 0.62139   2
 -20   0  23 0.12251 1.41134   2
 -19   0  23 0.02968 1.26508   2
  18   0 -23 -0.2370 0.69500   2
 -17   0  23 -0.0258 0.93815   3
  16   0 -23 -0.8800 0.68435   2
 -16   0  23 -0.7275 0.85757   3
 -15   0  23 -0.4642 0.97528   2
 -14   0  23 -0.0253 0.75882   2
  12   0 -23 -0.5449 0.70628   2
  11   0 -23 -0.0226 0.62588   2
 -10   0  23 0.58102 0.69512   2
  10   0 -23 -1.0479 0.64384   2
   9   0 -23 -0.5354 0.69391   2
  -9   0  23 -0.8592 0.71067   2
   8   0 -23 0.69892 0.77923   2
  -8   0  23 0.77591 0.71512   2
   7   0 -23 0.29272 0.77822   2
  -7   0  23 0.25970 0.62331   2
  -6   0  23 -0.5963 0.61335   2
   6   0 -23 -0.5667 0.70309   2
  -5   0  23 -1.1373 0.75217   2
   5   0 -23 -0.1889 0.72538   2
 -19  -1  23 -0.2271 0.94828   2
 -19   1  23 -2.4839 1.30714   2
 -18  -1  23 0.56795 0.94876   2
  18   1 -23 0.54827 0.65691   2
 -18   1  23 -0.4909 1.37856   2
 -17  -1  23 7.75538 1.05989   3
 -16  -1  23 9.76441 1.10493   3
  16   1 -23 5.95854 0.93293   3
  15  -1 -23 0.63960 0.73686   2
 -15  -1  23 0.12556 0.82881   3
 -15  -1  23 0.18043 0.80177   2
  15   1 -23 0.40514 0.67419   2
  15   1 -23 1.14766 0.90578   3
 -15   1  23 0.00000 1.05410   2
 -14  -1  23 23.1569 1.70998   3
  14  -1 -23 26.4867 1.82577   2
  14   1 -23 26.0889 1.75025   2
  14   1 -23 23.5628 1.73943   3
 -13  -1  23 27.7392 1.77250   2
  13  -1 -23 29.5490 1.95749   2
  13   1 -23 27.3667 1.82665   2
  12  -1 -23 1.70353 0.65424   2
 -12  -1  23 2.69522 0.65110   2
  12   1 -23 2.01805 0.66053   2
 -11  -1  23 8.73556 0.86903   2
  11   1 -23 9.18435 0.91131   2
 -10  -1  23 4.58605 0.74033   2
  10   1 -23 3.60613 0.75314   2
  -9  -1  23 1.15018 0.62358   2
   9   1 -23 1.01725 0.62505   2
  -8  -1  23 1.61957 0.61346   2
   8   1 -23 2.16338 0.79429   2
  -7  -1  23 0.30027 0.61774   2
   7   1 -23 0.94391 0.67318   2
  -6  -1  23 27.1252 1.77192   2
  -5  -1  23 14.3542 1.19105   2
   5   1 -23 13.2179 1.04108   2
   4   1 -23 2.41293 0.70813   2
  -3  -1  23 19.4757 1.43659   2
  -2  -1  23 18.4959 1.35086   2
  -1  -1  23 12.2682 1.02544   2
   1   1 -23 11.8471 1.05471   2
   0  -1  23 8.20768 0.90748   2
   0   1 -23 6.86490 0.87621   2
 -18  -2  23 -0.4863 0.96490   2
 -17  -2  23 -0.2392 0.88811   2
 -16  -2  23 -0.3852 0.77661   2
  16   2 -23 1.96300 0.72784   2
 -15  -2  23 2.94545 0.74379   3
  15   2 -23 3.59244 0.70669   2
  15   2 -23 2.36228 0.85769   3
 -14  -2  23 0.95253 0.64846   2
 -14  -2  23 1.02829 0.78113   3
  14   2 -23 1.30931 0.68806   2
  14   2 -23 1.49285 0.79553   3
 -13  -2  23 9.10899 0.86279   2
 -13  -2  23 9.64478 1.02734   3
  13   2 -23 7.26751 0.92310   3
  13   2 -23 10.3166 0.93886   2
 -12  -2  23 1.43736 0.66238   2
  12   2 -23 0.42408 0.65143   2
 -11  -2  23 0.61979 0.61203   2
  11   2 -23 0.20362 0.59950   2
 -10  -2  23 32.2646 2.05515   2
  10   2 -23 31.6336 2.01022   2
  -9  -2  23 60.7185 3.67997   2
   9   2 -23 63.6282 3.84597   2
  -8  -2  23 12.4209 1.00804   2
   8   2 -23 14.0051 1.14563   2
  -7  -2  23 5.33166 0.69712   2
   7   2 -23 6.28204 0.77189   2
  -6  -2  23 25.2982 1.64224   2
   6   2 -23 24.6503 1.66383   2
  -5  -2  23 14.8721 1.15351   2
   5   2 -23 15.5937 1.16747   2
  -4  -2  23 2.95231 0.69138   2
   4   2 -23 2.65876 0.68379   2
  -3  -2  23 0.11551 0.69200   2
   3   2 -23 -0.4855 0.69250   2
  -2  -2  23 0.80977 0.69970   2
   2   2 -23 1.39247 0.61114   2
  -1  -2  23 1.95367 0.69670   2
   1   2 -23 2.17291 0.66582   2
   0  -2  23 5.00658 0.75254   2
  -1   2 -23 6.93086 0.81729   2
   2  -2  23 8.35274 0.82066   2
 -17  -3  23 0.39133 0.65120   2
  17   3 -23 0.43118 0.65361   2
 -16  -3  23 0.45316 0.59666   2
  16   3 -23 1.68928 0.60490   2
 -15  -3  23 1.63086 0.61006   2
  15   3 -23 2.28134 0.69575   2
 -14  -3  23 4.35336 0.70586   2
  14   3 -23 4.85971 0.77702   2
 -13  -3  23 0.33383 0.64099   2
  13   3 -23 1.46769 0.66051   2
 -12  -3  23 14.1604 1.08372   2
  12   3 -23 14.4341 1.14257   2
 -11  -3  23 0.58728 0.57250   2
  11   3 -23 0.97295 0.62562   2
 -10  -3  23 2.37521 0.69706   2
  -9  -3  23 6.99873 0.79087   2
   8   3 -23 4.31325 0.75224   2
   7   3 -23 -0.0455 0.62867   2
  -6  -3  23 -0.0444 0.61357   2
   6   3 -23 0.91581 0.59187   2
  -5  -3  23 1.01517 0.63795   2
   5   3 -23 1.61190 0.62774   2
  -4  -3  23 -0.2418 0.61288   2
   4   3 -23 0.43527 0.64076   2
  -3  -3  23 4.01582 0.73062   2
   3   3 -23 3.68552 0.69010   2
  -2  -3  23 9.24961 0.92958   2
   2   3 -23 9.42793 0.90345   2
  -1  -3  23 3.34228 0.68280   2
   1   3 -23 2.66166 0.64003   2
   0  -3  23 2.93942 0.74623   2
   0   3 -23 3.09764 0.71935   2
   1  -3  23 1.91310 0.64170   2
  -1   3 -23 1.00692 0.64748   2
 -14  -4  23 0.79089 0.63275   2
  14   4 -23 0.38425 0.67704   2
 -13  -4  23 6.39565 0.77590   2
  13   4 -23 5.87007 0.80352   2
 -12  -4  23 5.19137 0.74452   2
  12   4 -23 2.73463 0.72716   2
 -11  -4  23 3.31042 0.70538   2
  11   4 -23 2.81637 0.73626   2
 -10  -4  23 8.48989 0.76803   2
  10   4 -23 5.77264 0.80888   2
  -9  -4  23 5.38794 0.72749   2
   9   4 -23 6.20920 0.77145   2
  -8  -4  23 4.80682 0.67367   2
   8   4 -23 3.60062 0.64831   2
  -7  -4  23 1.94739 0.53545   2
   7   4 -23 3.08135 0.64316   2
  -6  -4  23 1.59451 0.61237   2
   6   4 -23 2.28345 0.60509   2
  -5  -4  23 -0.3674 0.59262   2
   5   4 -23 1.07911 0.62160   2
  -4  -4  23 -0.2612 0.62913   2
   4   4 -23 0.14034 0.61978   2
  -3  -4  23 -0.0464 0.58845   2
   2   4 -23 0.76236 0.65164   2
   1   4 -23 0.99718 0.62912   2
   0  -4  23 3.80815 0.73604   2
 -18   0  24 1.70276 0.98086   2
 -17   0  24 -1.6156 0.94641   2
 -16   0  24 -0.0272 0.97296   2
  14   0 -24 21.0509 1.50624   2
  13   0 -24 10.4708 0.97309   2
 -13   0  24 10.3655 0.94483   2
  12   0 -24 26.3417 1.77388   2
 -12   0  24 27.4571 1.81785   2
 -11   0  24 10.3228 1.00666   2
  11   0 -24 8.84497 0.91960   2
 -10   0  24 37.0136 2.35437   2
  -9   0  24 20.9417 1.48693   2
  -8   0  24 1.22532 0.65355   2
   8   0 -24 0.87547 0.79627   2
   7   0 -24 0.37798 0.76846   2
  -7   0  24 -0.2650 0.66149   2
 -18  -1  24 1.95328 0.93765   2
 -17  -1  24 -0.8381 0.99670   2
  17   1 -24 0.37353 0.65816   2
  15   1 -24 5.54634 0.79575   2
 -14  -1  24 1.96108 0.66006   2
  14   1 -24 2.48217 0.70839   2
 -13  -1  24 16.4928 1.19982   2
  13   1 -24 15.8220 1.21128   2
 -12  -1  24 1.08830 0.63970   2
  12   1 -24 0.81375 0.66965   2
 -11  -1  24 2.51202 0.72354   2
  11   1 -24 1.81165 0.73054   2
 -10  -1  24 1.94329 0.70290   2
  10   1 -24 1.32319 0.73594   2
  -9  -1  24 2.14245 0.70154   2
  -8  -1  24 0.15740 0.62172   2
   7   1 -24 13.8898 1.12173   2
   6   1 -24 17.2134 1.29310   2
  -5  -1  24 9.43151 0.89984   2
   5   1 -24 9.31213 0.94505   2
  -4  -1  24 6.76502 0.92041   2
   4   1 -24 6.95420 0.91135   2
  -3  -1  24 5.50027 0.85718   2
   3   1 -24 4.44043 0.76373   2
  -2  -1  24 0.59786 0.60930   2
   2   1 -24 0.78778 0.72073   2
 -17  -2  24 -0.4397 0.66653   2
  17   2 -24 -0.6632 0.66222   2
 -16  -2  24 1.63063 0.58390   2
  16   2 -24 0.33648 0.64610   2
 -15  -2  24 -0.3037 0.59985   2
  15   2 -24 -0.6407 0.65900   2
 -14  -2  24 10.1244 0.93571   2
  14   2 -24 9.26630 0.90534   2
 -13  -2  24 0.97435 0.66331   2
  13   2 -24 0.42461 0.67942   2
 -12  -2  24 1.95707 0.66617   2
  12   2 -24 0.43038 0.62632   2
 -11  -2  24 10.4697 0.90857   2
  11   2 -24 9.65849 0.92356   2
 -10  -2  24 2.03333 0.65807   2
  10   2 -24 3.11883 0.71339   2
  -9  -2  24 0.66691 0.60936   2
   9   2 -24 -0.3325 0.68394   2
  -8  -2  24 0.59034 0.57936   2
   8   2 -24 1.01135 0.66201   2
  -7  -2  24 0.61325 0.63081   2
   7   2 -24 1.15769 0.70610   2
  -6  -2  24 0.66183 0.63539   2
   6   2 -24 0.94918 0.63577   2
  -5  -2  24 1.83643 0.74052   2
   5   2 -24 1.97609 0.69853   2
  -4  -2  24 0.33198 0.68297   2
   4   2 -24 -0.0708 0.68006   2
  -3  -2  24 0.13791 0.71495   2
   3   2 -24 -0.3388 0.65054   2
  -2  -2  24 1.86042 0.73256   2
   1   2 -24 2.24208 0.61997   2
 -15  -3  24 4.67317 0.73319   2
  15   3 -24 4.62211 0.73000   2
 -14  -3  24 0.55593 0.64047   2
  14   3 -24 0.77512 0.68288   2
 -13  -3  24 1.20411 0.58012   2
 -12  -3  24 12.5446 1.04254   2
 -11  -3  24 8.70177 0.88353   2
  11   3 -24 8.13953 0.89486   2
  10   3 -24 8.94831 0.93522   2
   9   3 -24 0.39315 0.66608   2
  -8  -3  24 12.6162 1.03005   2
   8   3 -24 13.7029 1.11344   2
  -7  -3  24 9.67499 0.89950   2
   7   3 -24 9.19597 0.86176   2
  -6  -3  24 10.4253 0.91668   2
   6   3 -24 8.72756 0.82607   2
  -5  -3  24 10.4668 0.96989   2
   5   3 -24 9.76919 0.92920   2
  -4  -3  24 1.13278 0.70692   2
   4   3 -24 2.01102 0.73595   2
  -3  -3  24 0.58006 0.64155   2
   3   3 -24 1.21051 0.63152   2
  -2  -3  24 0.71383 0.71274   2
   2   3 -24 1.84143 0.66994   2
  -1  -3  24 0.26473 0.63770   2
   1   3 -24 -0.7430 0.64200   2
 -12  -4  24 0.63447 0.62653   2
  12   4 -24 1.39481 0.68090   2
 -11  -4  24 2.53086 0.68459   2
  11   4 -24 1.35215 0.68651   2
 -10  -4  24 5.45954 0.73102   2
  10   4 -24 5.59681 0.80288   2
  -9  -4  24 14.4624 1.08006   2
   9   4 -24 12.7342 1.04713   2
  -8  -4  24 0.73378 0.61481   2
   8   4 -24 0.42690 0.59535   2
  -7  -4  24 1.12759 0.63680   2
   7   4 -24 0.72010 0.60335   2
  -6  -4  24 1.50986 0.62737   2
   6   4 -24 1.74245 0.70686   2
  -5  -4  24 -0.4283 0.65786   2
  -4  -4  24 1.15585 0.65223   2
   4   4 -24 0.98040 0.64543   2
   3   4 -24 1.90300 0.64650   2
 -14   0  25 9999.99 577.203   2
 -13   0  25 0.53980 0.64676   2
  12   0 -25 -0.3055 0.70392   2
 -12   0  25 0.92175 0.69931   2
 -11   0  25 -0.0659 0.70906   2
  11   0 -25 0.77816 0.69158   2
 -10   0  25 -0.4097 0.73427   2
  10   0 -25 0.66754 0.69214   2
 -17  -1  25 0.02362 0.70741   2
 -15  -1  25 3.04171 0.65088   2
  15   1 -25 3.02142 0.73844   2
 -14  -1  25 0.79687 0.64511   2
  14   1 -25 0.04532 0.65258   2
 -13  -1  25 -0.4895 0.66640   2
  13   1 -25 0.14002 0.67215   2
 -12  -1  25 5.55432 0.82923   2
  12   1 -25 5.35959 0.78514   2
 -11  -1  25 12.8777 1.04394   2
 -10  -1  25 12.7027 1.10440   2
   9   1 -25 4.40800 0.81485   2
   8   1 -25 11.9002 1.08178   2
  -7  -1  25 7.94152 0.84118   2
   7   1 -25 7.58696 0.88205   2
  -6  -1  25 1.33582 0.71984   2
   6   1 -25 0.63438 0.68213   2
  -5  -1  25 2.88976 0.71543   2
   5   1 -25 2.92223 0.75419   2
  -4  -1  25 0.82126 0.73589   2
 -16  -2  25 4.12422 0.72156   2
 -15  -2  25 4.16086 0.69200   2
  15   2 -25 3.80759 0.71841   2
 -14  -2  25 24.8608 1.66439   2
  14   2 -25 23.4206 1.60704   2
 -13  -2  25 12.3649 1.04942   2
  13   2 -25 11.6781 0.98978   2
 -12  -2  25 -0.2027 0.62287   2
  12   2 -25 -0.5487 0.63217   2
 -11  -2  25 5.15265 0.74220   2
  11   2 -25 4.06197 0.73219   2
 -10  -2  25 1.09859 0.63284   2
  10   2 -25 1.42346 0.71064   2
  -9  -2  25 -0.1528 0.62850   2
   9   2 -25 -0.1593 0.70799   2
  -8  -2  25 0.18065 0.59835   2
   8   2 -25 0.71011 0.71253   2
  -7  -2  25 7.70536 0.84469   2
   7   2 -25 8.33504 0.85460   2
  -6  -2  25 8.27004 0.91020   2
   6   2 -25 7.11235 0.81490   2
  -5  -2  25 5.82528 0.82482   2
   5   2 -25 3.50901 0.69718   2
  -4  -2  25 9.02523 0.93847   2
   3   2 -25 9.30863 0.90071   2
 -14  -3  25 -0.1762 0.60892   2
 -13  -3  25 -0.1358 0.67814   2
  13   3 -25 0.36262 0.70496   2
  12   3 -25 -0.5367 0.69899   2
  11   3 -25 1.04782 0.74076   2
 -10  -3  25 6.40555 0.75075   2
  10   3 -25 5.25437 0.78984   2
  -9  -3  25 1.45697 0.62947   2
   9   3 -25 1.55130 0.66689   2
  -8  -3  25 2.30659 0.63885   2
   8   3 -25 2.89151 0.65581   2
  -7  -3  25 2.64021 0.66466   2
   7   3 -25 3.41301 0.65965   2
  -6  -3  25 1.31935 0.63565   2
   6   3 -25 1.98359 0.65295   2
  -5  -3  25 2.23245 0.66376   2
   5   3 -25 1.87113 0.69095   2
  -4  -3  25 -0.8002 0.73205   2
   4   3 -25 -0.4161 0.66584   2
  -3  -3  25 -0.4537 0.63276   2
  -7  -4  25 0.76861 0.66412   2
 -13  -1  26 1.56723 0.69645   2
  12   1 -26 6.87010 0.89436   2
  11   1 -26 7.08271 0.89529   2
 -10  -1  26 0.34687 0.61276   2
  10   1 -26 0.77939 0.70744   2
  -9  -1  26 8.18029 0.83420   2
   9   1 -26 6.92920 0.84350   2
  -8  -1  26 8957.30 517.028   2
  -7  -1  26 0.41666 0.73267   2
 -14  -2  26 -2.0693 0.71012   2
 -13  -2  26 0.72260 0.59835   2
  13   2 -26 -0.1828 0.65815   2
 -12  -2  26 2.76943 0.63818   2
  12   2 -26 2.33020 0.67771   2
 -11  -2  26 0.52524 0.60510   2
  11   2 -26 -0.9537 0.71419   2
 -10  -2  26 0.62672 0.59309   2
  10   2 -26 0.34715 0.69322   2
  -9  -2  26 2.52238 0.66049   2
   9   2 -26 1.85020 0.69280   2
  -8  -2  26 0.19896 0.58576   2
   8   2 -26 -0.3603 0.62268   2
  -7  -2  26 3.19980 0.73733   2
   7   2 -26 1.95499 0.65072   2
  -6  -2  26 0.52905 0.69262   2
 -11  -3  26 0.81571 0.66037   2
 -10  -3  26 5.53609 0.76770   2
  10   3 -26 5.14335 0.80458   2
  -9  -3  26 0.63574 0.63140   2
   9   3 -26 1.17152 0.70079   2
  -8  -3  26 0.40344 0.64554   2
   8   3 -26 0.35831 0.69660   2
  -7  -3  26 0.11597 0.64128   2
   0   0   0    0.00    0.00   0
 _exptl_absorpt_process_details 'SADABS 2014/5'
 _exptl_absorpt_correction_type   multi-scan
 _exptl_absorpt_correction_T_max  0.7472
 _exptl_absorpt_correction_T_min  0.6039
 _exptl_special_details
)
 The following wavelength and cell were deduced by SADABS from the
 direction cosines etc. They are given here for emergency use only:
 CELL 0.61992   12.154    4.471   15.067   90.009  112.554   90.002
)
;
_shelx_hkl_checksum              66398
_shelx_res_file
;
TITL bromo isomorph chloro
    bromo.res
    created by SHELXL-2018/3 at 16:18:27 on 21-Feb-2020
CELL  0.61992  12.152     4.470    15.070  90.000 112.56  90.000
ZERR     4    0.009    0.003    0.011    0.0000    0.02    0.0000
LATT   1
SYMM             - X ,    0.50000 + Y ,    0.50000 - Z
SFAC  C   H   Br  N   O
DISP  C     0.002     0.0012      8.7
DISP  H     0.000     0.000       0.7
DISP  Br 0.0580  1.9653  6984.9
DISP  N     0.0042   0.0024    14.3
DISP  O    0.0077   0.0045  22.9
UNIT   28   24   4   4   8
OMIT -2 60
TEMP  -173.
SIZE      0.10     0.06     0.04
ACTA
PLAN  -10
BOND $H
CONF
HTAB
L.S.     12
OMIT  -8   1  26
OMIT    -6   1  13
OMIT   -11   2  17
OMIT   -11   1  16
OMIT   -10   2  17
OMIT   -12   2  17
OMIT   -14   1  20
OMIT   -14   3  16
OMIT   -15   1  17
OMIT   -23   0  14
OMIT   -17   2  23
OMIT   -16   0  24
OMIT   -17   1  25
WGHT    0.049300    0.446700
EXTI    0.024311
FVAR       0.40861
BR1   3   -0.044750    0.110835    0.103763    11.00000    0.01557    0.02765 =
         0.02685    0.00578    0.00658    0.00195
O1    5    0.417626   -0.247439    0.514004    11.00000    0.03749    0.03746 =
         0.01795    0.00646    0.01126    0.00168
O2    5    0.291700    0.111035    0.494093    11.00000    0.03478    0.04356 =
         0.02195   -0.01372    0.01389   -0.00189
N1    4    0.345786   -0.064382    0.463402    11.00000    0.02199    0.02693 =
         0.01517   -0.00471    0.00842   -0.00746
C1    1    0.109557    0.316099    0.137335    11.00000    0.02010    0.01804 =
         0.02863    0.00587    0.00623    0.00088
AFIX  23
H1A   2    0.123485    0.359326    0.078054    11.00000   -1.20000
H1B   2    0.107839    0.508742    0.169191    11.00000   -1.20000
AFIX   0
C2    1    0.208365    0.126945    0.202743    11.00000    0.01652    0.01453 =
         0.01968    0.00134    0.00659   -0.00101
C3    1    0.230758    0.117157    0.300981    11.00000    0.01841    0.01773 =
         0.01966   -0.00261    0.00898   -0.00095
AFIX  43
H3    2    0.183126    0.229171    0.326394    11.00000   -1.20000
AFIX   0
C4    1    0.323381   -0.058320    0.360386    11.00000    0.01726    0.01776 =
         0.01339   -0.00191    0.00673   -0.00319
C5    1    0.395453   -0.227721    0.326994    11.00000    0.01682    0.02008 =
         0.01479    0.00001    0.00588    0.00024
AFIX  43
H5    2    0.458297   -0.347029    0.369491    11.00000   -1.20000
AFIX   0
C6    1    0.372459   -0.216637    0.229339    11.00000    0.01878    0.02078 =
         0.01575   -0.00015    0.00769    0.00162
AFIX  43
H6    2    0.420256   -0.329653    0.204335    11.00000   -1.20000
AFIX   0
C7    1    0.279918   -0.041200    0.167838    11.00000    0.01801    0.01980 =
         0.01471    0.00129    0.00682   -0.00100
AFIX  43
H7    2    0.265283   -0.035867    0.101241    11.00000   -1.20000
AFIX   0
HKLF 4
REM  bromo isomorph chloro
REM wR2 = 0.0895, GooF = S = 1.104, Restrained GooF = 1.104 for all data
REM R1 = 0.0326 for 3018 Fo > 4sig(Fo) and 0.0346 for all 3233 data
REM 101 parameters refined using 0 restraints
END
WGHT      0.0474      0.5057
REM Instructions for potential hydrogen bonds
EQIV $1 -x, y+1/2, -z+1/2
HTAB C3 Br1_$1
EQIV $2 -x+1, -y-1, -z+1
HTAB C5 O1_$2
REM Highest difference peak  0.905,  deepest hole -1.293,  1-sigma level  0.133
Q1    1  -0.0217  0.0933  0.1495  11.00000  0.05    0.91
Q2    1  -0.0564  0.2652  0.1064  11.00000  0.05    0.89
Q3    1  -0.0525 -0.0630  0.1090  11.00000  0.05    0.87
Q4    1   0.3280 -0.1298  0.2012  11.00000  0.05    0.79
Q5    1   0.0103  0.2287  0.1282  11.00000  0.05    0.66
Q6    1   0.3595 -0.1296  0.3375  11.00000  0.05    0.65
Q7    1   0.1586  0.2328  0.1728  11.00000  0.05    0.64
Q8    1   0.2832  0.0412  0.3263  11.00000  0.05    0.59
Q9    1   0.3804 -0.2535  0.2781  11.00000  0.05    0.57
Q10   1   0.2432  0.0399  0.1753  11.00000  0.05    0.56
;
_shelx_res_checksum              30107
loop_
_space_group_symop_operation_xyz
'x, y, z'
'-x, y+1/2, -z+1/2'
'-x, -y, -z'
'x, -y-1/2, z-1/2'
loop_
_atom_site_type_symbol
_atom_site_label
_atom_site_fract_x
_atom_site_fract_y
_atom_site_fract_z
_atom_site_U_iso_or_equiv
_atom_site_adp_type
_atom_site_calc_flag
_atom_site_occupancy
_atom_site_disorder_assembly
_atom_site_disorder_group
Br Br1 -0.04475(2) 0.11083(4) 0.10376(2) 0.02382(7) Uani d 1 . .
O O1 0.41763(14) -0.2474(3) 0.51400(9) 0.0308(3) Uani d 1 . .
O O2 0.29170(15) 0.1110(3) 0.49409(11) 0.0325(3) Uani d 1 . .
N N1 0.34579(12) -0.0644(3) 0.46340(9) 0.0210(2) Uani d 1 . .
C C1 0.10956(14) 0.3161(3) 0.13734(13) 0.0232(3) Uani d 1 . .
H H1A 0.123485 0.359326 0.078054 0.028 Uiso calc 1 . .
H H1B 0.107839 0.508742 0.169191 0.028 Uiso calc 1 . .
C C2 0.20836(13) 0.1269(3) 0.20274(11) 0.0170(2) Uani d 1 . .
C C3 0.23076(14) 0.1172(3) 0.30098(11) 0.0181(2) Uani d 1 . .
H H3 0.183126 0.229171 0.326394 0.022 Uiso calc 1 . .
C C4 0.32338(12) -0.0583(3) 0.36039(10) 0.0159(2) Uani d 1 . .
C C5 0.39545(13) -0.2277(3) 0.32699(10) 0.0173(2) Uani d 1 . .
H H5 0.458297 -0.347029 0.369491 0.021 Uiso calc 1 . .
C C6 0.37246(13) -0.2166(3) 0.22934(10) 0.0181(2) Uani d 1 . .
H H6 0.420256 -0.329653 0.204335 0.022 Uiso calc 1 . .
C C7 0.27992(13) -0.0412(3) 0.16784(10) 0.0173(2) Uani d 1 . .
H H7 0.265283 -0.035867 0.101241 0.021 Uiso calc 1 . .
loop_
_atom_site_aniso_label
_atom_site_aniso_U_11
_atom_site_aniso_U_22
_atom_site_aniso_U_33
_atom_site_aniso_U_12
_atom_site_aniso_U_13
_atom_site_aniso_U_23
Br1 0.01557(9) 0.02765(10) 0.02685(10) 0.00195(4) 0.00658(6) 0.00578(5)
O1 0.0375(7) 0.0375(7) 0.0180(5) 0.0017(6) 0.0113(5) 0.0065(5)
O2 0.0348(7) 0.0436(8) 0.0220(6) -0.0019(5) 0.0139(5) -0.0137(5)
N1 0.0220(6) 0.0269(5) 0.0152(5) -0.0075(4) 0.0084(4) -0.0047(4)
C1 0.0201(6) 0.0180(5) 0.0286(7) 0.0009(5) 0.0062(5) 0.0059(5)
C2 0.0165(5) 0.0145(5) 0.0197(6) -0.0010(4) 0.0066(4) 0.0013(4)
C3 0.0184(6) 0.0177(5) 0.0197(6) -0.0009(4) 0.0090(5) -0.0026(4)
C4 0.0173(5) 0.0178(5) 0.0134(5) -0.0032(4) 0.0067(4) -0.0019(4)
C5 0.0168(5) 0.0201(5) 0.0148(5) 0.0002(4) 0.0059(4) 0.0000(4)
C6 0.0188(5) 0.0208(5) 0.0158(5) 0.0016(4) 0.0077(4) -0.0002(4)
C7 0.0180(5) 0.0198(5) 0.0147(5) -0.0010(4) 0.0068(4) 0.0013(4)
loop_
_atom_type_symbol
_atom_type_description
_atom_type_scat_dispersion_real
_atom_type_scat_dispersion_imag
_atom_type_scat_source
C C 0.0020 0.0012 'International Tables Vol C Tables 4.2.6.8 and 6.1.1.4'
H H 0.0000 0.0000 'International Tables Vol C Tables 4.2.6.8 and 6.1.1.4'
Br Br 0.0580 1.9653 'International Tables Vol C Tables 4.2.6.8 and 6.1.1.4'
N N 0.0042 0.0024 'International Tables Vol C Tables 4.2.6.8 and 6.1.1.4'
O O 0.0077 0.0045 'International Tables Vol C Tables 4.2.6.8 and 6.1.1.4'
loop_
_geom_angle_atom_site_label_1
_geom_angle_atom_site_label_2
_geom_angle_atom_site_label_3
_geom_angle_site_symmetry_1
_geom_angle_site_symmetry_3
_geom_angle
_geom_angle_publ_flag
O2 N1 O1 . . 123.43(15) ?
O2 N1 C4 . . 118.63(15) ?
O1 N1 C4 . . 117.94(13) ?
C2 C1 Br1 . . 110.57(11) ?
C2 C1 H1A . . 109.5 ?
Br1 C1 H1A . . 109.5 ?
C2 C1 H1B . . 109.5 ?
Br1 C1 H1B . . 109.5 ?
H1A C1 H1B . . 108.1 ?
C7 C2 C3 . . 119.04(13) ?
C7 C2 C1 . . 121.11(15) ?
C3 C2 C1 . . 119.86(14) ?
C4 C3 C2 . . 118.84(13) ?
C4 C3 H3 . . 120.6 ?
C2 C3 H3 . . 120.6 ?
C3 C4 C5 . . 122.98(13) ?
C3 C4 N1 . . 117.99(13) ?
C5 C4 N1 . . 119.03(13) ?
C6 C5 C4 . . 117.74(13) ?
C6 C5 H5 . . 121.1 ?
C4 C5 H5 . . 121.1 ?
C5 C6 C7 . . 120.53(13) ?
C5 C6 H6 . . 119.7 ?
C7 C6 H6 . . 119.7 ?
C6 C7 C2 . . 120.88(14) ?
C6 C7 H7 . . 119.6 ?
C2 C7 H7 . . 119.6 ?
loop_
_geom_bond_atom_site_label_1
_geom_bond_atom_site_label_2
_geom_bond_site_symmetry_2
_geom_bond_distance
_geom_bond_publ_flag
Br1 C1 . 1.971(2) ?
O1 N1 . 1.226(2) ?
O2 N1 . 1.222(2) ?
N1 C4 . 1.470(2) ?
C1 C2 . 1.490(2) ?
C1 H1A . 0.9900 ?
C1 H1B . 0.9900 ?
C2 C7 . 1.396(2) ?
C2 C3 . 1.399(2) ?
C3 C4 . 1.382(2) ?
C3 H3 . 0.9500 ?
C4 C5 . 1.390(2) ?
C5 C6 . 1.390(2) ?
C5 H5 . 0.9500 ?
C6 C7 . 1.392(2) ?
C6 H6 . 0.9500 ?
C7 H7 . 0.9500 ?
loop_
_geom_torsion_atom_site_label_1
_geom_torsion_atom_site_label_2
_geom_torsion_atom_site_label_3
_geom_torsion_atom_site_label_4
_geom_torsion_site_symmetry_1
_geom_torsion_site_symmetry_2
_geom_torsion_site_symmetry_3
_geom_torsion_site_symmetry_4
_geom_torsion
_geom_torsion_publ_flag
Br1 C1 C2 C7 . . . . 100.04(15) ?
Br1 C1 C2 C3 . . . . -80.20(15) ?
C7 C2 C3 C4 . . . . 0.2(2) ?
C1 C2 C3 C4 . . . . -179.58(13) ?
C2 C3 C4 C5 . . . . -0.3(2) ?
C2 C3 C4 N1 . . . . 179.71(12) ?
O2 N1 C4 C3 . . . . -8.6(2) ?
O1 N1 C4 C3 . . . . 171.03(14) ?
O2 N1 C4 C5 . . . . 171.48(14) ?
O1 N1 C4 C5 . . . . -8.9(2) ?
C3 C4 C5 C6 . . . . 0.3(2) ?
N1 C4 C5 C6 . . . . -179.75(13) ?
C4 C5 C6 C7 . . . . -0.1(2) ?
C5 C6 C7 C2 . . . . 0.0(2) ?
C3 C2 C7 C6 . . . . 0.0(2) ?
C1 C2 C7 C6 . . . . 179.73(14) ?

_cod_database_fobs_code 2022126
