#------------------------------------------------------------------------------
#$Date: 2020-06-06 01:23:54 +0300 (Sat, 06 Jun 2020) $
#$Revision: 252947 $
#$URL: file:///home/coder/svn-repositories/cod/cif/2/02/21/2022135.cif $
#------------------------------------------------------------------------------
#
# This file is available in the Crystallography Open Database (COD),
# http://www.crystallography.net/. The original data for this entry
# were provided by IUCr Journals, http://journals.iucr.org/.
#
# The file may be used within the scientific community so long as
# proper attribution is given to the journal article from which the
# data were obtained.
#
data_2022135
loop_
_publ_author_name
'Okuniewski, Andrzej'
'Rosiak, Damian'
'Chojnacki, Jaros\/law'
_publ_section_title
;
 Impact of the anion and chalcogen on the crystal structure and properties
 of 4,6-dimethyl-2-pyrimido(thio)nium halides
;
_journal_coeditor_code           WP3004
_journal_issue                   5
_journal_name_full               'Acta Crystallographica Section C'
_journal_page_first              468
_journal_page_last               475
_journal_paper_doi               10.1107/S2053229620005525
_journal_volume                  76
_journal_year                    2020
_chemical_formula_iupac          'C6 H9 N2 O +, I -'
_chemical_formula_moiety         'C6 H9 N2 O +, I -'
_chemical_formula_sum            'C6 H9 I N2 O'
_chemical_formula_weight         252.05
_chemical_name_common            '4,6-Dimethyl-2-pyrimidonium iodide'
_chemical_name_systematic
;
4,6-Dimethyl-2-oxo-2,3-dihydropyrimidin-1-ium iodide
;
_space_group_crystal_system      monoclinic
_space_group_IT_number           13
_space_group_name_Hall           '-P 2yac'
_space_group_name_H-M_alt        'P 1 2/n 1'
_atom_sites_solution_hydrogens   geom
_audit_creation_method
;
Olex2 1.2
(compiled 2018.05.29 svn.r3508 for OlexSys, GUI svn.r5506)
;
_cell_angle_alpha                90
_cell_angle_beta                 100.603(11)
_cell_angle_gamma                90
_cell_formula_units_Z            2
_cell_length_a                   7.1803(10)
_cell_length_b                   7.2139(18)
_cell_length_c                   8.6574(12)
_cell_measurement_reflns_used    1779
_cell_measurement_temperature    120
_cell_measurement_theta_max      27.66
_cell_measurement_theta_min      3.4
_cell_volume                     440.78(14)
_computing_cell_refinement
;
X-AREA (Stoe & Cie, 2009)
;
_computing_data_collection
;
X-AREA (Stoe & Cie, 2009)
;
_computing_data_reduction
;
X-RED32 (Stoe & Cie, 2009)
;
_computing_molecular_graphics
;
OLEX2 (Dolomanov <i>et al.</i>,  2009)
;
_computing_publication_material
;
OLEX2 (Dolomanov <i>et al.</i>,  2009)
;
_computing_structure_refinement
;
SHELXL2018 (Sheldrick, 2015b)
;
_computing_structure_solution
;
SHELXT (Sheldrick, 2015a)
;
_diffrn_ambient_temperature      120.0
_diffrn_detector                 'image plate (34 cm diameter)'
_diffrn_detector_area_resol_mean 6.67
_diffrn_measured_fraction_theta_full 0.998
_diffrn_measured_fraction_theta_max 0.998
_diffrn_measurement_device       '2-circle goniometer'
_diffrn_measurement_device_type  'Stoe IPDS 2T'
_diffrn_measurement_method       'rotation method'
_diffrn_radiation_monochromator  'parabolic x-ray mirror'
_diffrn_radiation_probe          x-ray
_diffrn_radiation_type           MoK\a
_diffrn_radiation_wavelength     0.71073
_diffrn_reflns_av_R_equivalents  0.0662
_diffrn_reflns_av_unetI/netI     0.0322
_diffrn_reflns_limit_h_max       9
_diffrn_reflns_limit_h_min       -9
_diffrn_reflns_limit_k_max       9
_diffrn_reflns_limit_k_min       -9
_diffrn_reflns_limit_l_max       11
_diffrn_reflns_limit_l_min       -10
_diffrn_reflns_number            5622
_diffrn_reflns_theta_full        25.242
_diffrn_reflns_theta_max         28.981
_diffrn_reflns_theta_min         3.394
_diffrn_source                   'microfocus sealed X-ray tube'
_diffrn_source_current           1.000
_diffrn_source_power             0.050
_diffrn_source_voltage           50
_exptl_absorpt_coefficient_mu    3.574
_exptl_absorpt_correction_T_max  0.6242
_exptl_absorpt_correction_T_min  0.2743
_exptl_absorpt_correction_type   integration
_exptl_absorpt_process_details
;
[X-RED32 (Stoe & Cie, 2009), analogous to Coppens (1970)]
;
_exptl_crystal_colour            colourless
_exptl_crystal_density_diffrn    1.899
_exptl_crystal_description       needles
_exptl_crystal_F_000             240
_exptl_crystal_size_max          0.657
_exptl_crystal_size_mid          0.365
_exptl_crystal_size_min          0.142
_refine_diff_density_max         1.550
_refine_diff_density_min         -1.288
_refine_ls_extinction_method     none
_refine_ls_goodness_of_fit_ref   1.094
_refine_ls_hydrogen_treatment    constr
_refine_ls_matrix_type           full
_refine_ls_number_parameters     49
_refine_ls_number_reflns         1166
_refine_ls_number_restraints     0
_refine_ls_restrained_S_all      1.094
_refine_ls_R_factor_all          0.0597
_refine_ls_R_factor_gt           0.0589
_refine_ls_shift/su_max          0.000
_refine_ls_shift/su_mean         0.000
_refine_ls_structure_factor_coef Fsqd
_refine_ls_weighting_details
'w=1/[\s^2^(Fo^2^)+(0.0966P)^2^+2.7212P] where P=(Fo^2^+2Fc^2^)/3'
_refine_ls_weighting_scheme      calc
_refine_ls_wR_factor_gt          0.1642
_refine_ls_wR_factor_ref         0.1646
_reflns_number_gt                1143
_reflns_number_total             1166
_reflns_threshold_expression     'I > 2\s(I)'
_cod_data_source_file            wp3004sup1.cif
_cod_data_source_block           4
_cod_database_code               2022135
_shelx_space_group_comment
;
The symmetry employed for this shelxl refinement is uniquely defined
by the following loop, which should always be used as a source of
symmetry information in preference to the above space-group names.
They are only intended as comments.
;
_shelx_estimated_absorpt_t_min   0.202
_shelx_estimated_absorpt_t_max   0.631
_shelx_hkl_file
;
  -8  -4   1    4.23    1.62
  -7  -4  -2   11.79    1.84
  -5  -5  -6  117.33    2.79
  -5  -4  -5  312.57    3.03
  -4  -5  -7   69.36    2.67
  -3  -3  10   37.94    3.16
  -3  -1  -2 2003.35    6.64
  -2  -2  -5 1131.17    4.91
  -2  -1  -3  821.98    4.38
   0  -3  10   88.93    3.00
   1   0   2    1.18    1.23
   3  -3  -7  559.38    6.40
   3  -2   7    5.32    1.29
   4  -2   6   17.97    1.81
   6  -2  -1  738.40    4.12
   6  -2   1  582.30    3.47
   7  -3  -2   93.50    2.29
   7  -3   2   82.44    2.03
   8  -4   0  135.68    2.85
   8  -4   1   17.49    2.18
  -8  -4   2   76.73    2.23
  -8  -4   3   26.49    2.68
  -8  -4   4  142.59    3.47
  -7  -5  -3   50.68    2.47
  -7  -3   5  188.08    3.55
  -6  -2   2   19.53    1.63
  -6  -2   3  643.68    4.63
  -6  -2   4    7.02    1.75
  -4  -2   8   12.90    2.57
  -1  -2   9   16.84    2.02
  -1   0   3 3233.18   14.26
   0  -1   7  922.37    5.29
   1  -5  -9   15.01    2.54
   2  -5  -9  115.35    3.69
   2  -2   8    8.16    1.32
   6  -2   2    9.44    1.50
  -8  -5   0   16.92    2.55
  -7  -4  -1  300.18    3.18
  -7  -3   2   86.97    2.22
  -7  -3   4   79.77    2.61
  -5  -2  -1   35.04    1.61
  -2  -3  -6  563.06    3.68
  -2  -1   7  839.87    6.25
   0  -2   9  238.98    2.71
   2  -3  -7  332.15    4.43
   4  -1   4  349.74    2.78
   5  -3   7  115.24    2.30
   5  -2  -4 1698.91    9.81
   6  -2  -2   18.65    1.62
   6  -2   3  281.14    2.59
  -7  -3   3  201.26    3.07
  -6  -3  -1  164.31    2.23
  -5  -6  -6   49.70    2.76
  -4  -6  -7   45.96    2.62
  -2  -4  -7    1.79    1.41
   1  -2   9   14.09    1.93
   2  -4  -8  258.10    3.71
   2   0   1    0.60    1.19
   2   0   2 4587.61    9.90
   5  -1   1  401.94    2.89
   7  -3   4   43.75    2.00
   8  -4  -3   28.20    2.46
  -8  -5   1   97.56    3.03
  -7  -5  -2   80.74    2.49
  -3  -5  -7    9.67    1.56
  -3  -3  -5  436.50    3.14
   0  -6  -9   71.24    3.31
   2  -3  10   42.70    2.12
   2  -1   7  762.16    4.19
   2   0   3  504.63    3.29
   5  -2   6  351.66    3.10
   6  -3  -5  125.39    3.89
   6  -2   4    2.61    1.67
  -7  -4   0   78.96    2.16
  -5  -2   0 1913.44    6.03
  -4  -3  10   79.45    4.14
  -3  -2   9   14.44    2.37
   0  -3  11   22.44    2.66
   4  -3   9   22.92    2.59
   5  -4  -7  238.64    8.00
   5  -1  -1  453.65    3.52
   5  -1   3  523.33    3.25
  -6  -4  -2  279.81    2.67
  -6  -3   0  373.55    2.93
  -4  -1   2 1101.81    6.08
  -1  -4  -7  302.54    3.18
  -1  -3  -6  160.68    2.06
  -1  -1   8  324.65    3.19
   2   0   4 2304.25    6.28
   6  -2   5  229.04    2.62
   7  -2   0  641.46    3.72
   7  -2   1   14.93    1.63
   7  -2   2  456.33    3.08
   8  -3  -1   72.91    2.22
   8  -3   0   93.18    1.90
   8  -3   1   29.36    1.54
  -8  -5   4    0.99    2.39
  -8  -5   5   82.30    3.37
  -7  -5  -1   18.90    1.65
  -7  -4   7   77.15    3.89
  -4  -1   3  823.40    6.20
  -3  -6  -7   40.26    2.32
  -2  -5  -7  267.64    3.38
   0  -5  -8   29.77    2.23
   0   0   5    3.25    1.33
   1  -1   8  232.44    2.56
   1   0   5 1980.19    6.10
   3  -2   9    6.50    1.98
   3  -1   7  166.77    2.34
   3   0   1 1206.67    4.99
   3   0   2    0.75    0.91
   4  -2   8    2.71    1.39
   4  -1   6  271.54    2.56
   5  -2   7    0.97    1.37
   7  -2  -1   13.05    1.51
  -6  -3   7   68.22    3.52
  -5  -2   1   28.06    1.48
  -4  -6  -6   11.94    1.56
  -2  -4  -6  611.81    3.75
  -2  -3  -5  268.55    2.65
  -1  -6  -8   75.02    2.94
   1  -2  10  293.27    3.45
   2   0   5    0.59    1.28
   5  -1   5  165.54    2.19
   6  -2   6    8.49    1.85
  -7  -5   0  265.92    3.30
  -7  -4   2   40.74    1.98
  -4  -5  -5  290.02    2.87
  -4  -2  -1 1688.64    5.60
  -3  -5  -6  206.70    2.35
  -3  -1   0  841.61    4.77
  -3  -1   7  278.77    4.84
  -2  -2  10   46.83    2.41
  -2  -1   8  472.67    4.45
   0  -4  -7    6.42    1.74
   3   0   0    3.48    1.23
   4  -1  -3  984.28    7.67
   6  -1   0  650.33    3.69
   6  -1   2  199.00    1.90
   6  -1   3  259.21    2.45
   7  -2   4  195.91    2.17
  -7  -6  -1   24.27    2.20
  -7  -4   3  248.34    3.34
  -7  -4   6   15.86    2.29
  -6  -6  -3   51.19    1.95
  -6  -5  -2    6.23    1.83
  -5  -3  -1  776.58    3.73
   0   0   6 2841.56    7.76
   1  -2  -5   63.58    1.94
   1   0   6    4.24    1.35
   3  -1   8  163.87    2.23
   3   0   5 1125.67    4.16
   4   0   2 1882.22    5.46
   5  -1   6  118.66    1.99
   7  -2  -2  449.91    3.65
  -7  -4   4   13.68    1.96
  -7  -4   5  189.57    3.54
  -6  -4   9    3.67    4.06
  -5  -6  -4  152.40    2.70
  -5  -2   2  987.60    4.80
  -2  -6  -7   94.89    2.36
  -1  -5  -7   35.82    2.01
  -1  -2  -4 3950.87    9.06
   0  -6  -8   17.74    2.43
   0  -1   9  186.71    2.53
   1  -4  -7  545.34    4.51
   1  -1   9  105.39    2.08
   2   0   6 1939.19    5.57
   3  -5  -8  264.61    4.28
   4   0   1    1.02    0.87
   4   0   4 1057.71    3.95
   6  -2   7   75.58    1.97
   6  -1  -1  940.90    4.61
   6  -1   4   99.70    1.65
   8  -3  -3   75.29    2.73
  -6  -4   0  561.51    3.51
  -6  -3   3  284.09    3.26
  -5  -5  -3  209.69    2.78
  -4  -6  -5  184.65    2.76
   1  -3  -6  287.52    3.20
   2  -2  -5 1432.56    7.83
   2  -1   9  141.30    2.29
   6  -1   5  156.29    2.20
   8  -2   1  150.98    2.04
   8  -2   2    3.07    1.21
   8  -2   3   79.16    2.05
   9  -3   0   24.32    2.23
  -6  -5  -1  300.57    2.93
  -6  -3   6  223.89    4.07
  -5  -2   3  100.62    2.15
  -2  -7  -7   22.20    2.60
  -1  -4  -6  117.43    1.87
  -1  -3  -5  831.73    4.17
  -1  -2  11    5.84    2.40
  -1  -1  -2 4486.52   11.28
  -1   0   6    3.30    1.38
   0  -2  11   44.12    2.55
   1  -2  11    4.12    2.26
   1   0   7  212.64    2.40
   2  -4  -7   11.06    2.25
   3  -2  -5   55.14    2.79
   3   0   6    3.15    0.99
   4  -1   8  112.21    1.75
   4   0   0 8315.14   13.15
   4   0   5    1.08    1.37
   5  -1   7   48.22    1.61
   7  -1   2  284.11    2.44
   8  -2   4    2.26    1.72
  -7  -5   2  168.61    2.84
  -6  -3   4  312.27    3.40
  -6  -3   5   96.74    2.52
  -5  -7  -4    0.04    1.69
  -5  -3   0  175.53    2.11
  -5  -2   4 1658.92    7.49
  -4  -7  -5    6.03    2.28
  -4  -5  -4   -0.39    1.22
  -4  -4  -3  214.80    2.26
  -3  -7  -6   -1.26    2.20
  -3  -5  -5  117.07    2.13
  -3  -2  10  256.59    4.58
  -3  -1   1  715.54    4.72
   0  -7  -8   51.91    3.21
   0   0   7    2.41    1.25
   2   0  -1    1.84    1.51
   2   0   7    0.13    0.90
   3  -1   9   53.97    1.55
   4  -4  -7    8.51    2.25
   5   0   1  884.47    3.98
   5   0   2    1.30    0.90
   5   0   3  717.17    3.14
   6  -1   6   82.08    1.65
   7  -2  -3   57.75    2.15
   7  -1   1  113.43    1.59
   7  -1   3  135.67    1.86
   8  -4  -5   30.12    3.41
   8  -2  -1  248.55    2.85
  -7  -6   1   52.51    2.39
  -6  -4   1    9.77    1.63
  -3  -4  -4   32.11    1.83
  -2  -3  -4  796.39    3.66
   1  -1  10  161.41    2.49
   3  -4  -7  344.95    4.59
   3   0  -1  501.65    4.10
   3   0   7  127.77    2.07
   4   0   6  797.98    3.36
   5  -1   8   66.27    2.10
   5   0   4   -2.84    1.03
   6  -1  -2  548.35    3.91
   7  -1   0  194.47    2.37
   7  -1   4  146.10    1.80
   9  -3  -2   22.97    2.04
  -5  -6  -3    3.51    1.43
  -5  -4  -1  769.32    3.75
  -2  -6  -6   71.74    2.20
  -2  -2  11   63.75    3.01
  -2  -1   9  188.78    2.93
   0  -1  10   90.86    2.32
   1  -1  -3 2759.62   12.04
   1   0   8    1.15    1.41
   2  -6  -8   11.88    2.46
   4  -3  -6  503.99    6.81
   4  -1   9   50.44    1.66
   5  -6  -8   39.62    4.12
   5   0   0    1.62    1.26
   6  -1   7  116.34    2.50
   7  -1   5   54.25    1.98
  -7  -6   2   85.35    2.73
  -7  -5   4   64.72    2.53
  -7  -5   6   59.85    3.32
  -6  -5   0   38.78    1.47
  -5  -3   1 1084.36    4.52
  -4  -6  -4  146.70    2.39
  -4  -2   9  237.15    7.00
  -3  -6  -5   47.81    1.94
  -1  -7  -7  137.09    3.32
  -1   0   7  215.71    2.88
   0  -4  -6  628.67    3.99
   0   0   8 1094.27    4.67
   2   0   8  574.66    3.06
   3  -6  -8   85.98    3.59
   3  -3  -6  206.00    3.52
   3  -1  10   85.82    2.38
   4   0  -1    1.93    1.27
   4   0   7    0.26    1.39
   5   0   6   -1.26    1.49
   6   0   2  663.17    3.23
   7  -1  -1  174.67    2.35
   7  -1   6   26.85    1.87
   8  -3  -4  154.67    3.74
   9  -2   1    3.57    1.86
  -6  -4   2  352.47    3.08
  -5  -7  -3   93.80    2.10
  -4  -2   1 1677.47    5.83
  -3  -1   8  235.08    4.18
   3   0   8    0.06    1.07
   6   0   1    0.90    1.42
   7  -3  -5  228.74    4.95
  -7  -6   3    8.62    2.22
  -6  -7  -1    7.57    1.54
  -4  -7  -4  120.45    2.50
  -4  -5  -3  552.46    3.04
  -3  -7  -5  151.54    2.68
  -2  -7  -6   66.85    2.02
  -2  -5  -5  555.27    3.25
   2  -7  -8   59.99    3.51
   4   0   8  360.49    2.72
   6   0   5    1.68    1.03
   8  -1   1  115.12    1.84
   8  -1   4   40.91    1.91
  -6  -4   3  110.37    2.31
  -5  -4   0  334.55    2.72
  -4  -8  -4   44.56    2.82
  -2  -8  -6   36.45    2.64
  -2   0   5    3.09    1.66
  -1  -4  -5  991.58    4.35
   1   0   9  264.16    2.57
   2   0   9    1.42    1.49
   2   1   4  578.58    3.32
   3  -7  -8    5.00    3.89
   3   1   3 1320.40    4.53
   3   1   4 1378.21    4.46
   5   0  -1  433.57    3.19
   6   0   0 2611.15    6.72
   6   0   6  381.95    2.89
   8  -1   0  186.33    2.42
   9  -2  -1    3.46    1.80
  -7  -6   4   69.06    2.61
  -6  -4   8   85.39    3.95
  -5  -7  -2    2.90    1.98
  -5  -3   2  247.35    2.52
  -3  -8  -5   19.06    1.99
  -3  -1   2 2270.43    9.01
  -2  -1   0 3486.06   10.18
  -1  -6  -6  175.11    2.71
  -1  -3  -4  327.33    3.10
  -1   0   8    3.96    1.51
   0   0   9    3.38    1.43
   2  -5  -7  281.67    3.91
   2   1   3  851.32    3.86
   3   0   9  123.08    1.76
   3   1   5  327.86    2.37
   4   1   4  321.48    2.39
   5   0   8    0.25    1.51
   6  -5  -7  113.26    6.01
   7  -1  -2  336.77    3.15
   7   0   2    1.22    1.33
   7   0   3  343.94    2.56
   7   0   4   -0.32    1.52
   8  -2  -3  189.99    3.06
  -7  -6   5    5.75    1.98
  -6  -5   2   33.35    1.83
  -6  -4   4  449.80    3.99
  -2  -6  -5  350.80    2.92
  -2   0   4 2901.29   18.17
  -2   0   6 2313.35   10.00
   0  -5  -6   50.30    1.92
   1   1   4 2563.49    6.94
   1   1   5  545.64    3.16
   2   1   6  518.25    2.93
   3   1   2 1803.86    5.37
   3   1   6  307.61    2.36
   4   0   9   -0.57    1.69
   4   1   5  319.16    2.37
   6   0   7    2.83    1.67
   7  -2  -4  651.14    5.69
   7   0   1  383.36    2.83
   8  -1  -1  301.01    2.97
  -6  -4   5   83.90    2.57
  -6  -4   7    5.28    2.29
  -5  -8  -2   22.14    1.99
  -5  -6  -1   94.31    2.13
  -4  -7  -3   28.12    2.12
  -4  -5  -2   17.47    1.58
  -4  -2   2   48.77    1.54
  -3  -2  11    4.79    2.68
  -1  -7  -6    0.99    2.05
  -1  -1  11   70.73    2.41
   1  -3  -5 1019.46    5.14
   1   1   3 2940.73    8.14
   1   1   6  602.74    3.30
   3  -5  -7   44.58    2.47
   4   1   2  599.40    3.05
   4   1   6  275.56    2.30
   5   1   3  562.25    3.00
   5   1   4  569.44    2.91
   6   0  -1    2.02    1.37
   7   0   6    0.59    1.74
   9  -1   1   40.15    1.92
   9  -1   2   69.23    2.12
  -5  -5   0  652.98    3.60
  -5  -4   1  761.35    3.87
  -5  -3   3  783.86    4.43
  -4  -8  -3   27.34    2.54
  -4  -4  -1   52.37    1.57
  -3  -2   0 4140.29    8.93
  -2  -7  -5   15.64    1.94
  -1  -8  -6   48.15    3.05
   1  -7  -7  201.71    4.25
   1  -2  -4 3904.77   10.81
   3   0  10   13.29    1.98
   5   1   2  980.94    3.96
   7   0   0    2.50    1.39
  -6  -5   3  427.79    3.76
  -5  -7  -1  187.59    2.89
  -3  -8  -4   53.48    2.64
  -3  -5  -3  421.97    2.98
  -2  -8  -5   38.70    2.77
  -2  -5  -4    2.68    1.41
  -2   0   7    1.06    1.43
  -1  -5  -5  135.77    1.82
  -1   0   9  289.46    2.96
   1   1   7  259.61    2.57
   2  -6  -7  184.29    3.78
   4  -5  -7  236.17    4.50
   4   1   1 1303.52    4.72
   5  -5  -7   22.51    3.12
   5   1   6   84.59    1.45
   8   0   4   97.07    2.09
  -6  -6   2   38.95    1.58
  -5  -8  -1   46.92    2.53
  -4  -6  -2  195.52    2.34
  -3  -1   9   82.21    2.99
   0   1   6  780.39    4.03
   2   1   8  265.53    2.33
   3   1   8  112.93    1.53
   5   1   1  396.59    2.69
   5   1   7   59.97    1.89
   6   1   2  270.89    2.28
   6   1   3  162.53    1.74
   6   1   4  105.91    1.53
   6   1   5  149.19    2.01
   8   0   1    0.33    1.56
  -6  -7   2  121.68    2.75
  -6  -5   4    2.44    1.64
  -5  -6   0  289.23    2.80
   0  -7  -6  151.43    3.24
   0   1   4  722.71    4.41
   1   1   2 4263.33   10.17
   1   1   8  265.30    2.44
   2   1   1 3007.47    8.22
   4   1   8  102.72    1.58
   5   0  -2    1.70    1.15
   6   1   6   98.81    1.94
   7   0  -1  215.83    2.43
  -5  -5   1   61.85    1.78
  -4  -7  -2  161.55    2.24
  -4  -5  -1  576.08    3.27
  -4  -3   1  541.86    3.32
  -4  -2   3  846.92    4.83
  -3  -6  -3   29.15    1.30
  -2  -6  -4  355.10    2.95
  -2  -2  -1 3084.86    7.73
  -2  -1  11   47.27    2.55
  -2   0   8 1272.21    6.62
  -1  -6  -5   34.72    1.39
   0  -8  -6   49.98    3.22
   0  -3  -4 1420.33    5.47
   2   1   9  138.61    2.05
   3  -6  -7   59.41    3.00
   5   1   8   65.32    1.90
   6   1   1  531.20    3.08
   7   1   3  168.12    2.11
   8   0   0  693.84    3.92
  -6  -5   5  254.37    3.52
  -5  -8   0   70.62    2.65
  -5  -7   0    1.93    1.62
  -4  -4   0 1210.30    4.49
  -3  -7  -3  357.46    3.15
  -3  -1   3 1318.80    7.87
  -1  -7  -5  199.61    2.88
  -1   0  10   46.64    1.96
   0   0  11    0.73    1.65
   1   1   9   99.41    1.82
   3  -4  -6  145.64    3.15
   3   0  -2    1.40    1.42
   4   1   0 1661.29    5.53
   4   1   9   45.23    1.50
   5   1   0  457.92    2.88
   6   0  -2 1131.20    5.18
   8  -3  -5   44.19    3.88
   8  -2  -4    0.56    2.25
   9   0   2    1.72    1.82
  -6  -7   3   14.38    2.01
  -6  -5   6    9.09    1.84
  -6  -5   7   89.99    3.14
  -6  -5   8    7.72    2.16
  -5  -3   8   36.81    2.97
  -3  -8  -3   50.93    2.34
  -2  -8  -4   96.36    2.74
  -2  -7  -4  174.85    2.22
   0  -5  -5  719.55    3.85
   0   1   8  395.82    2.93
   1  -6  -6  183.24    2.86
   3  -7  -7  139.96    5.01
   3   1   0  833.89    4.26
   4  -6  -7  129.00    4.48
  -5  -6   1  120.45    2.06
  -5  -4   3  587.32    3.76
  -5  -3   6  142.78    3.14
  -3  -2   1   50.23    1.46
   1  -7  -6    1.03    2.38
   2  -5  -6   42.64    2.02
   3   1  10   65.30    1.66
   3   2   5   43.03    1.34
   4   2   5  603.69    2.96
   5  -6  -7   32.46    4.08
   6  -6  -7   46.14    5.16
   6   1   0  619.87    3.31
   8   1   3   47.73    1.80
   8   1   4   38.24    1.76
   9  -1  -2   74.86    2.39
  -6  -7   4   66.38    2.47
  -6  -6   5   86.82    2.67
  -5  -7   1  254.89    3.09
  -5  -5   2  479.85    3.29
  -5  -3   7  307.29    4.83
  -4  -8  -1   56.14    2.45
  -4  -7  -1   39.15    1.88
  -2   0   9    1.48    1.64
  -1  -5  -4  265.32    2.23
   1  -8  -6   41.70    3.54
   1   1  10  159.26    2.31
   2  -1  -3 1156.60   11.21
   4  -7  -7   16.33    3.98
   4   2   3  578.93    2.98
   4   2   6   15.76    1.05
   5   2   4  822.72    3.34
   5   2   5   18.00    1.37
   5   2   6  314.72    2.39
   7   0  -2    0.67    1.33
   8  -1  -3  187.74    3.47
   9   0   0   -0.33    1.68
  -6  -7   5    2.40    2.01
  -6  -6   6   27.43    2.32
  -5  -8   1   33.66    1.84
  -4  -5   0  116.13    1.83
  -4  -3   2 1244.56    5.10
  -4  -2   4   24.60    1.67
  -3  -6  -2  325.96    2.63
  -3  -3   0  309.02    2.55
  -3  -1  10  137.05    3.90
  -1   1   6  882.74    4.83
   0  -6  -5  368.80    3.13
   2   2   7  439.56    2.90
   3   2   7    5.71    0.95
   4   2   7  169.39    1.98
   5   2   7    1.75    1.52
   6   2   5  231.47    2.21
   7   1   0  196.36    2.22
  -6  -6   7   42.42    2.69
  -5  -6   2  204.06    2.58
  -5  -4   4   31.61    1.66
  -3  -9  -2   69.64    2.65
  -3  -8  -2   86.38    2.50
  -2  -6  -3  360.57    2.78
  -1  -6  -4  459.13    3.16
  -1   1   7  320.86    3.14
   0  -8  -5   56.77    2.89
   0  -7  -5   20.59    2.16
   1   1   1  964.31    5.49
   3   2   8  247.86    2.25
   4   2   2   34.23    1.26
   4   2   8    5.69    1.44
   6   2   3  288.62    2.45
   6   2   6    3.20    1.12
   8   1   1  103.52    1.77
  -5  -7   2    0.08    1.80
  -5  -5   3  214.28    2.68
  -4  -6   0  109.83    2.03
  -2  -9  -3  137.12    3.14
  -2  -7  -3   61.62    2.13
  -1  -9  -4   39.72    2.66
  -1  -8  -4  101.52    2.70
  -1  -7  -4    4.99    1.87
  -1   1   5  663.14    4.39
   1   1  11   50.17    1.94
   1   2   6 1247.84    4.41
   2  -7  -6  160.16    3.88
   2   2   8   11.40    1.43
   3  -5  -6  448.87    4.72
   5   1  -1  402.24    2.91
   5   2   8   74.40    1.53
   6   2   2   12.08    1.23
   6   2   7   64.13    1.72
   7   2   4  260.93    2.39
   7   2   5    5.44    1.63
   9   0  -1   69.49    2.17
   9   1   2   63.34    2.07
  -4  -8   0  130.77    2.76
  -4  -7   0  221.61    2.80
  -2   0  10  294.74    3.77
  -1  -4  -3  759.34    3.51
   1  -5  -5  235.79    2.70
   1   2   5   62.47    1.50
   2  -8  -6   38.07    3.37
   2   2   9  146.31    2.14
   3   2   9    3.97    1.13
   4   2   9   64.19    1.51
   6   1  -1  846.99    4.03
   7   2   6   70.05    1.66
   8   1   0  189.55    2.39
  -5  -4   5  445.80    3.89
  -4  -5   1  629.96    3.40
  -2  -3  -1  848.56    3.91
   6  -1  -4  195.39    3.57
   7   1  -1  152.77    2.07
   7   2   2  473.83    2.94
  -5  -8   3   44.87    2.44
  -5  -7   3  184.95    3.00
  -4  -3   3  427.07    3.37
  -4  -2   5  759.68    5.74
  -3  -9  -1    1.57    1.94
  -3  -6  -1  186.72    2.31
   0  -5  -4    3.93    1.42
   0   1  11   28.30    1.85
   1  -6  -5   48.83    2.10
   1   2   4 3013.84    7.13
   2  -4  -5  172.73    2.60
   3  -6  -6  164.93    3.87
   3   2  10   89.05    2.51
   4   2   1 1629.81    5.04
   6  -4  -6  204.80    6.22
   6   2   1  721.32    3.39
   8   2   4    0.50    1.18
  -5  -4   6   50.08    2.22
  -4  -9   1   47.65    2.20
  -4  -6   1  478.77    3.21
  -4  -4   2  793.61    3.86
  -3  -7  -1  277.02    2.61
  -3  -4   0  749.46    3.61
  -2  -9  -2   -2.10    2.23
  -1  -3  -2  705.74    3.70
  -1   1   4 3540.95   10.84
   1  -8  -5   70.56    2.97
   1  -7  -5  182.06    3.40
   1   2   9   13.28    1.54
   2   2  10   19.35    2.01
   3  -7  -6    0.17    3.10
   7  -1  -4  394.16    4.47
   7   2   1   13.96    1.42
   8   2   2    0.91    1.49
   9   1   0   56.45    1.95
  -5  -8   4   40.43    2.54
  -5  -6   4  227.93    3.06
  -5  -4   9   69.82    3.44
  -4  -8   1   34.76    1.70
  -4  -7   1   55.35    1.93
  -3  -3   1 1941.86    6.11
  -3  -1   4 1945.87   11.09
  -2  -8  -2  132.17    2.62
  -2  -6  -2  303.90    2.58
   0  -9  -4    1.45    1.72
   0  -8  -4  157.36    3.06
   0  -6  -4  458.69    3.44
   3   1  -1  736.39    4.46
   4   3   5  134.44    1.77
   4   3   6  222.09    2.11
   4   3   7   79.59    1.87
   5   3   5  261.24    2.19
   5   3   6   50.17    1.57
   5   3   7  146.95    2.20
   8   1  -1  316.64    2.93
   9   0  -2    2.77    1.76
  -5  -7   4    2.43    1.73
  -5  -4   7  173.54    3.35
  -5  -4   8   35.53    2.47
  -3  -1  11   56.62    3.88
  -2  -7  -2  303.83    2.59
  -2   0  11    0.76    2.03
  -1  -8  -3  115.69    2.57
  -1  -7  -3  546.77    3.76
  -1  -6  -3   44.69    1.76
   0  -7  -4  233.07    2.95
   0   2   6   70.88    1.62
   0   2   7  630.72    3.97
   0   2   8   15.26    1.38
   1   2  10  301.01    2.89
   3   3   5  573.47    2.86
   3   3   7  392.07    2.96
   4   3   4  592.67    3.00
   4   3   8  109.70    1.93
   5   2   0 1660.97    5.02
   5   3   4   89.68    1.45
   6   2   0   38.47    1.44
   6   3   4  241.99    2.36
   6   3   5   37.89    1.21
   6   3   6   45.75    1.43
  -5  -6   5   11.29    1.83
  -4  -5   2   47.61    1.54
  -4  -2   6   32.33    2.25
  -3  -9   0   79.14    2.33
  -1  -2  -1   92.35    1.78
   0   2   5 1492.11    5.32
   3   3   4  266.89    2.31
   4  -7  -6  117.03    5.32
   4  -6  -6   65.67    3.66
   5   3   3  637.05    3.29
   7   2   0  590.58    3.32
   7   3   4   48.27    1.84
   7   3   5   92.77    2.03
   8  -1  -4   76.14    2.78
  -5  -7   5   83.09    2.56
  -4  -8   2   70.39    2.26
  -4  -7   2  302.54    3.02
  -4  -6   2  144.56    2.14
  -4  -3   4  678.20    4.33
  -3  -8   0  126.28    2.25
  -3  -7   0   10.56    1.74
  -3  -6   0  565.51    3.42
   0  -2  -2  138.83    2.17
   2  -8  -5   66.71    3.23
   2  -6  -5  394.48    4.05
   2   3   6  513.76    2.85
   2   3   7  205.09    2.29
   4   3   3  321.65    2.39
   4   3   9   14.69    1.34
   5  -5  -6  244.88    5.50
   7   1  -2  287.89    2.74
   7   3   3  227.54    2.40
  -5  -7   6   -0.30    1.96
  -5  -6   6   76.29    2.59
  -5  -5   7   16.87    2.16
  -5  -5   9    5.85    2.69
  -2  -9  -1  112.43    2.34
  -1   1  11   71.25    2.26
   0  -4  -3  407.57    2.96
   1  -9  -4   55.17    2.69
   1   2  11    4.78    1.35
   2  -7  -5   10.98    1.89
   2   3   8  159.58    1.80
   3   3   3 1251.97    4.39
   5   3   2  228.74    2.10
   7  -2  -5   16.78    4.02
   8   2   0   13.16    1.61
   9   2   1    3.89    1.82
  -5  -5   8   89.90    3.03
  -4  -2   9  183.20    6.63
  -3  -9   1    1.95    2.01
  -3  -4   1 1419.41    4.98
  -2  -8  -1  103.97    2.35
  -1  -9  -2  100.79    2.41
   0  -9  -3  193.26    3.43
   1  -8  -4  126.85    3.09
   1  -5  -4  376.97    3.09
   2   3   4 1121.28    4.12
   2   3   9   57.61    1.83
   4  -3  -5  204.97    3.87
   4   0  -3   82.40    5.15
   5  -7  -6    1.79    3.82
   5  -6  -6   82.46    4.81
   7   3   2   77.39    1.77
   8   1  -2  171.81    2.54
   8   3   3   22.92    2.02
  -5  -6   7   24.04    2.13
  -5  -6   8   31.37    2.54
  -4  -8   3   38.65    2.15
  -4  -5   3  940.91    4.38
  -4  -2   7  408.00    5.76
  -2  -7  -1   63.02    1.59
   0  -8  -3   89.52    2.57
   0   2   4   23.53    1.84
   1  -7  -4    9.29    2.15
   1  -6  -4  538.43    3.94
   1   3   7  596.98    3.46
   2  -3  -4 1181.52    5.93
   2   3  10   54.60    1.91
   6  -5  -6    8.84    3.74
   8   3   2   95.53    2.10
   9   0  -3  132.63    3.03
   9   2   0  123.46    2.45
  -4  -6   3  296.72    2.88
  -4  -2   8   13.05    2.57
  -3  -8   1   97.23    2.03
  -3  -5   1  130.26    1.97
  -3  -3   2  448.35    3.24
  -2   1   8  463.56    4.17
  -1  -6  -2  481.36    3.17
   0  -7  -3  105.03    2.47
   0  -5  -3 1560.20    5.42
   0   2  11   41.95    2.49
   3  -8  -5   69.59    3.30
   3  -2  -4 3748.92   14.94
   4   1  -2 1157.05    5.62
   5   3   1  794.67    3.46
   5   4   6   50.12    1.68
   5   4   7   77.96    2.01
   6  -6  -6   35.76    5.74
   6   3   1  162.32    1.94
   7  -5  -6   63.28    6.54
   7   2  -1   13.23    1.49
   7   3   1  289.87    2.53
   9  -1  -4   86.41    3.08
  -4  -8   4   84.17    2.59
  -4  -4   4  833.86    4.36
  -4  -3   5  180.87    2.62
  -3  -9   2  114.26    2.82
  -3  -7   1  384.30    2.96
  -3  -6   1  215.34    2.35
  -3  -2   3   86.31    1.99
  -2  -9   0    3.51    1.50
  -2   1   7  961.23    6.02
  -2   1   9  223.42    3.20
   0  -6  -3  314.95    2.68
   2  -9  -4    1.77    2.19
   3  -5  -5  160.15    3.05
   4   4   5   59.69    1.59
   4   4   6  285.94    2.41
   4   4   7    2.10    1.44
   4   4   8   63.03    1.85
   6   4   5   12.75    1.16
   6   4   6   62.26    1.54
   8  -2  -5  127.61    5.77
   8   2  -1  255.13    2.73
  -2  -8   0  290.28    3.06
  -2  -2   1 2950.43    8.74
  -1   2   7   16.98    1.36
  -1   2   8  565.02    3.64
   1   3  10   33.68    1.79
   3   4   6  103.35    1.69
   5   4   4    8.04    1.11
   6   4   4  152.92    1.88
   7   4   4    5.16    1.70
   7   4   5   54.41    1.61
   8   3   1   27.06    1.35
  -4  -8   5   22.59    2.36
  -4  -7   4  120.70    2.28
  -4  -6   4  303.44    3.12
  -3  -8   2  118.00    2.48
  -1   1   3 2502.10   10.26
  -1   2   9   16.53    1.55
   3   4   8   22.87    1.25
   7   4   3  108.37    2.01
   9   2  -1    3.17    1.86
   9   3   1   54.31    2.07
  -3  -9   3   18.04    2.23
  -2  -9   1  173.19    3.06
  -2  -7   0  288.20    2.46
  -2   1   6  798.08    5.86
  -2   1  10   86.74    2.50
  -1   2   6 1624.94    5.96
   0   2   3  807.36    4.28
   1  -8  -3  177.79    2.96
   1   3   4  239.47    2.09
   2  -7  -4  322.92    3.73
   3   4   9   61.14    1.67
   4  -4  -5  152.04    3.70
   7   3   0   49.90    1.37
   8   4   3   16.23    1.85
  -4  -7   5   10.11    1.88
  -3  -7   2    2.94    1.14
  -3  -6   2  381.08    2.92
  -3  -5   2  928.50    4.19
   0  -8  -2  156.31    2.58
   0   3   7  304.52    2.70
   2  -6  -4  519.20    4.25
   2   1  -1 4199.04   12.01
   2   4   6  606.34    3.24
   2   4   7    4.15    1.00
   2   4   8  206.11    2.30
   3   4   4   23.58    1.17
   4  -7  -5    8.79    2.79
   8   1  -3  176.99    3.28
  -4  -6   5  234.79    3.04
  -4  -5   5  472.33    3.76
  -3  -8   3  116.26    2.52
  -3   0   8    2.77    3.16
  -3   0   9  251.18    6.39
  -1  -7  -1  490.69    3.09
   0   3   6  716.26    3.56
   2   3   2 1346.09    4.55
   2   4   5  114.97    1.78
   2   4   9    9.05    1.28
   4  -6  -5  249.52    4.67
   4  -5  -5  482.50    5.74
   6   1  -3  404.35    3.73
   7   2  -2  505.15    3.40
   8   4   2  109.40    2.38
   9   3   0   19.77    1.95
  -4  -7   6  113.90    2.89
  -2   1  11   45.93    2.72
  -1   2   5   62.44    1.62
  -1   2  11    8.06    1.84
   0  -9  -1  212.99    3.20
   0  -7  -2  446.86    3.16
   0   3  10  102.76    2.29
   1  -6  -3   98.96    2.28
   1  -4  -3  956.52    4.77
   2  -9  -3  130.47    2.91
   3  -8  -4  110.65    3.38
   5  -3  -5  522.37    7.27
   5   5   6  102.70    1.98
   5   5   7    7.81    1.72
   6   2  -2   21.23    1.46
   7   0  -4    0.05    2.04
   8   0  -4  278.61    4.19
   8   2  -2    6.34    1.66
   9  -2  -5    5.21    5.18
  -4  -7   7   14.14    2.25
  -4  -6   6   61.82    2.25
  -4  -3   7  146.79    3.20
  -3  -7   3  447.98    3.50
  -2  -9   2    1.93    1.40
  -2  -3   1  981.91    4.68
   0  -6  -2  238.06    2.38
   0  -5  -2   36.16    1.70
   1  -9  -2  123.99    2.48
   1  -5  -3  429.48    3.41
   1   3   3 1225.89    4.59
   2   2   0  294.42    2.71
   2   4   4  963.18    3.84
   4   5   6   24.67    1.51
   6   4   1   41.08    1.53
   6   5   5   65.23    1.69
   7   3  -1  342.89    2.86
   7   4   1  295.41    2.70
  -4  -5   6   19.22    1.78
  -4  -3  10   46.90    3.77
  -3  -8   4   93.97    2.59
  -3  -6   3   38.51    1.76
  -1  -8   0  201.72    2.44
  -1  -2   0 9237.91   15.79
   0   1   1 4788.47   14.38
   0   3  11   22.55    2.08
   1   4   8   41.26    1.39
   1   4   9  197.96    2.55
   3  -7  -4    9.63    2.35
   5   2  -2 1275.11    5.30
   5   4   1  825.53    3.61
   5   5   4  154.70    2.15
   6   0  -4  895.13    7.20
   6   3  -1  248.05    2.43
   6   5   4   -1.24    1.24
   7   5   4   23.77    1.55
   8   3  -1   82.78    2.11
   8   4   1    7.77    1.29
   9   0  -4   -1.66    2.54
  -4  -6   7  111.54    3.03
  -4  -4   7    7.26    1.97
  -4  -3   8  170.60    3.80
  -4  -3   9   39.85    3.14
  -3  -2   4 2827.72    9.66
  -3   0  10   25.44    3.62
  -2  -9   3  124.27    3.22
  -2  -8   2  161.79    2.54
  -2  -5   1  975.63    4.22
   0  -8  -1  140.24    2.46
   1   4   6   97.61    1.56
   1   4  10   24.89    1.91
   3  -9  -3   20.82    2.48
   3  -3  -4  275.53    3.66
   3   1  -2 2218.36    8.75
   3   5   6  253.31    2.54
   5   1  -3  633.27    4.76
   9   3  -1   96.91    2.60
  -4  -6   8    9.14    2.14
  -4  -5   7  185.88    3.25
  -3  -8   5   70.64    2.53
  -3  -7   4   10.14    1.91
   1   4   5  974.84    3.92
   3   5   5  109.60    1.87
   4  -8  -4   74.00    2.65
   4   5   4   -0.59    1.09
   5  -5  -5  135.95    4.66
   5  -4  -5  460.61    6.85
   5   3  -1 1214.70    4.66
   6  -7  -5   -0.35    3.44
   7   4   0   76.27    1.86
  -4  -5   9   58.31    3.20
  -4  -4  10   58.09    3.87
  -2  -7   2  577.25    3.65
  -2   1   5  491.85    5.41
   0  -9   0    5.79    1.42
   0   3   4 1319.85    4.81
   1  -9  -1    3.46    1.87
   2  -9  -2    1.31    1.83
   2  -7  -3   96.88    2.13
   2   4   3  337.82    2.49
   3   3   0  326.51    2.60
   6   4   0  616.07    3.36
   6   5   2    3.58    1.43
   7   5   2   87.66    2.11
  -4  -4   9    7.33    1.99
  -3  -8   6   48.54    2.49
  -3  -6   4  486.45    3.59
  -2  -9   4   -0.20    1.88
  -2  -8   3   81.58    2.19
  -1  -9   2  128.15    3.15
  -1   3   8   94.01    1.98
  -1   3   9  184.40    2.64
   1  -7  -2    2.09    1.28
   2   5   7  260.48    2.87
   2   5   8   14.76    1.29
   4   5   3  462.15    2.88
   6  -6  -5  129.07    5.39
  -3  -7   5  190.49    2.89
  -3  -3   4  279.39    3.00
  -2  -6   2  287.01    2.59
  -1  -3   0  197.27    2.29
  -1   3   7  692.51    4.15
  -1   3  10   35.42    2.04
   0  -2  -1 4135.01   11.30
   0   2   2   79.09    1.57
   0   4   8  256.26    2.62
   0   4   9   10.32    1.59
   1   4   4   74.02    1.60
   2  -6  -3  529.37    3.89
   3  -8  -3   93.89    2.36
   8   2  -3  167.98    2.91
   8   3  -2  111.16    2.31
  -3  -4   4   63.42    1.80
  -2   2   8   22.69    2.12
  -2   2   9  258.69    4.70
   0  -8   0  338.97    3.08
   0   4  10  102.13    2.45
   1  -6  -2  560.54    3.69
   2  -8  -2  169.57    2.75
   2  -5  -3 1844.66    7.06
   4   6   6   23.69    1.77
   6   5   1  206.85    2.32
   6   6   4   47.54    2.01
   7  -6  -5    4.80    4.36
   7   5   1   32.94    1.82
   8   5   1   78.41    2.38
   9   2  -3    2.57    2.21
   9   3  -2   17.35    1.98
  -3  -7   6   -0.48    1.83
  -3  -6   5   38.46    1.88
  -2  -7   3   71.03    2.02
  -2  -5   2   55.40    1.70
  -2   2  10   61.94    2.92
  -1  -9   3   14.60    2.13
  -1  -7   1  509.63    3.16
  -1   3   6  206.37    2.45
  -1   3  11   62.44    2.49
   0  -9   1  151.60    2.40
   0   4   6  633.30    3.48
   1  -8  -1  164.40    2.35
   3  -9  -2  103.63    2.82
   4   6   5  160.98    2.36
   5   6   4  147.01    2.40
   6  -3  -5  101.83    5.37
   6   3  -2  562.44    3.62
   7   4  -1  303.78    2.92
   8   4  -1    4.68    1.82
  -2  -4   2 1300.40    5.23
  -2  -3   2 2085.48    7.21
  -2   2   7  764.17    5.48
  -1  -8   2   81.24    1.89
   0  -3  -1 1212.84    5.74
   1  -9   0  118.28    2.24
   1  -5  -2 1233.12    5.26
   1   5   7   40.34    1.74
   1   5   8  138.89    2.05
   2  -9  -1  161.89    2.82
   3  -7  -3  464.93    4.03
   6   4  -1   10.57    1.53
   8   1  -4   61.29    2.57
   9   1  -4   85.52    3.60
  -3  -7   8    1.60    2.11
  -3  -5   5  221.64    2.78
  -3  -2   5   57.43    2.16
  -2   2  11   58.77    2.99
   0  -7   0  516.17    3.31
   1  -4  -2  269.21    2.94
   1   4   3 1285.20    4.51
   2  -7  -2  614.28    3.91
   3   6   6   69.30    1.75
   5   6   3    1.81    1.91
   7  -5  -5   53.24    5.01
   7   1  -4  442.57    5.01
   7   5   0  164.60    2.47
   8   5   0   15.52    1.82
  -2  -8   5   43.74    1.85
  -2  -7   4  291.63    3.00
  -2  -6   3  509.85    3.30
  -1  -9   4   52.28    2.31
   0  -9   2    1.39    1.74
   0  -8   1  138.09    2.34
   0   4   5  190.98    2.12
   3   5   2  719.81    3.45
   4  -5  -4   -1.02    2.07
   6   5   0   47.56    1.76
   6   6   2   80.88    2.11
   8  -1  -5   91.41    9.64
  -3  -6   7   57.09    2.43
  -3  -3   5  610.92    4.41
  -2  -8   6   46.37    2.52
  -1  -8   3  161.33    2.60
  -1  -7   2    1.62    1.68
  -1  -1   1  744.21    6.56
  -1   3   5  907.10    4.56
   1   5   5  246.73    2.32
   2   5   3 1802.98    5.21
   4  -2  -4   21.18    3.19
   5   0  -4    0.44    2.83
   6  -7  -4   86.21    3.71
   9  -1  -5   45.69    8.27
  -3  -5   6  370.33    3.64
  -2  -5   3 1792.25    5.83
   1  -9   1    1.32    1.46
   2  -9   0    2.90    1.96
   2  -8  -1   71.76    1.81
   3  -9  -1    2.11    1.43
   3   3  -1 2119.90    6.33
   4  -4  -4  748.42    6.25
   5  -8  -3   43.18    2.25
   5  -6  -4  253.44    4.19
   5   2  -3   84.35    2.27
   8   4  -2  103.29    2.55
  -3  -6   8   55.21    2.42
  -3  -6   9   16.83    2.37
  -2  -1   3 1019.02    7.95
  -2   2   6   55.62    2.00
  -1   4   8   59.38    1.93
  -1   4   9  191.73    2.95
   0  -9   3  196.91    3.26
   0   5   8   28.28    1.76
   0   5   9   98.22    2.49
   2  -6  -2  287.94    2.85
   2   6   5  269.16    2.62
   6   1  -4  234.50    4.08
   6   6   1  166.58    2.49
   7   3  -3  213.62    3.07
   7   4  -2   55.36    2.00
  -3  -4   6   99.60    2.24
  -2  -4   3  233.06    2.67
  -1  -8   4  116.41    2.62
  -1  -6   2  573.30    3.37
  -1   4   7  532.46    3.96
  -1   4  10   35.98    2.31
   0  -8   2  171.20    2.60
   0   5   7  324.37    3.03
   0   5  10    6.23    2.04
   1   4   2  194.16    2.08
   3   6   3   21.30    2.14
   4   4  -1   13.04    1.43
   4   7   5    7.10    2.05
   5   7   4    2.43    1.43
   7   5  -1   19.63    1.89
  -2  -7   6  175.01    3.09
  -1  -7   3  632.05    3.84
  -1  -3   1 2423.54    7.91
   0  -9   4    1.00    2.09
   1  -9   2  132.45    2.76
   1  -7   0   17.18    1.73
   1   6   7   55.39    1.91
   1   6   8   84.89    2.29
   2   5   2   29.56    1.47
   3  -7  -2    1.25    1.30
   3   2  -2 2776.05    8.53
   3   7   6    1.13    1.74
   4  -8  -2   69.55    2.03
   4   3  -2 1245.13    5.18
   4   5   0  104.25    1.83
   6  -6  -4  141.18    4.02
   6   5  -1  284.86    2.90
   8   2  -4    1.69    2.42
   9   2  -4  140.97    4.14
  -3  -3   6  181.57    2.84
  -1  -8   5   98.30    2.60
   1  -8   1  133.30    2.10
   1  -5  -1  247.41    2.72
   2  -7  -1   79.14    1.71
   2  -5  -2   57.96    1.96
   3  -8  -1  143.42    2.72
   4   7   4   77.41    1.91
   5  -7  -3  216.41    3.70
   6   3  -3  268.14    3.18
  -3  -4   7  320.66    3.85
  -2  -7   7   34.50    2.17
  -2  -6   5  385.84    3.29
  -2  -5   4    6.80    1.49
   0  -8   3   90.94    2.34
   1   5   3  837.78    4.22
   2  -8   0  190.37    2.48
   3   6   2  284.93    2.49
   3   7   5   65.59    1.88
   7   2  -4  733.81    6.16
  -1  -8   6   68.67    2.59
   0  -7   2  664.60    3.69
   1  -9   3    3.68    2.20
   1   6   5   46.44    1.61
   2   7   7   34.29    2.16
   3   7   4    2.09    1.71
   5  -8  -2   38.67    2.04
   5   7   2    2.19    1.85
  -3  -4  10   20.95    3.20
  -3  -3   7  565.92    5.35
  -2  -6   6  104.02    2.37
  -2   3   7  338.35    3.99
  -2   3  11   14.98    3.06
   2  -9   2   -0.50    2.04
   2  -4  -2 1432.38    6.51
   4  -7  -2  342.25    3.60
   5  -4  -4   22.92    2.98
   6  -5  -4   -1.35    2.80
   7   5  -2  154.61    2.71
   8   5  -2   13.21    2.16
  -2  -5   5  678.99    4.04
  -2  -4   4 1288.32    5.46
  -2   2   5 1513.32    8.05
  -1   4   5 1126.39    5.09
   0  -8   4  150.50    2.85
   0   6   8   11.22    1.74
   0   6   9   56.23    2.35
   1  -9   4   59.66    2.70
   1  -8   2  107.73    1.97
   2  -6  -1  933.68    4.52
   2   5   1  926.30    3.87
   3  -9   1    2.28    1.51
   3  -3  -3 1404.94    7.86
   3   0  -3 2219.69   21.76
   3   4  -1 1582.07    5.34
   4  -8  -1   46.50    2.10
   7   4  -3  221.17    3.24
   7   6  -1   50.41    2.24
   9   0  -5  133.13    8.90
  -3  -3  11   40.70    3.76
  -3  -2   7    9.92    1.99
  -2  -6   7  179.77    3.20
  -1  -4   2  280.79    2.83
  -1   5   8  264.44    3.27
  -1   5  10   18.75    2.21
   0  -3   0  924.33    5.09
   0   5   4    6.16    1.38
   0   6   7  163.33    2.64
   1   4   1 2468.62    6.45
   2  -8   1   69.30    1.87
   3  -7  -1  503.70    3.72
   4   7   2  134.56    2.14
   5   7   1  175.01    2.76
   6   5  -2   38.51    1.94
   8  -2  -5  104.19   10.49
   8   0  -5    0.97    5.90
  -3  -3  10   26.25    3.35
  -3   1   9   61.75    6.19
  -2  -6   8   11.04    2.09
  -2  -6   9   52.18    3.00
  -2   1   4  619.47    7.81
  -1  -6   4  613.22    3.90
  -1   5   7   39.44    1.85
   0  -8   5   65.55    2.49
   1   5   2 1232.43    4.44
   1   7   7  163.58    2.95
   2  -9   3  159.86    3.17
   2   6   2  324.48    2.60
   8   3  -4  101.95    3.24
   9   3  -4   15.80    2.80
  -3  -3   9  113.40    3.37
  -3  -2  11    3.71    3.72
  -2  -5   6   37.97    1.89
  -2   3   6  569.14    4.64
  -1  -7   6    0.26    1.36
   0  -2   0  420.68    4.34
   1  -8   3   76.31    1.97
   1   3   0  173.26    2.11
   1   7   6   -0.08    1.65
   3  -9   2   63.42    2.64
   3  -2  -3  110.19    3.41
   3   3  -2  476.25    3.51
   3   8   5   62.48    2.44
   5  -8  -1   46.03    2.37
   5  -7  -2    0.58    1.77
   5  -3  -4  189.06    4.54
   9  -2  -5    2.99    8.50
  -2  -4   5  154.81    2.39
  -2   4   9   15.33    2.32
  -1  -7   7  188.02    3.49
   0  -8   6   54.36    2.47
   1  -7   2    2.64    1.74
   3   7   2    5.51    1.66
   4  -8   0   99.51    3.14
   4   8   3   34.32    2.40
   5   6  -1  155.38    2.43
   5   8   2   41.88    2.47
   6  -6  -3  149.77    3.13
   7   3  -4   79.23    2.73
   8  -5  -4   -0.16    3.22
  -3  -2   8  335.59    4.95
  -3  -1  11   32.16    5.01
  -2  -5   7  294.28    3.76
  -2   4  10   92.65    3.34
  -1  -7   8    3.70    2.04
  -1  -6   5   59.31    1.93
  -1  -3   2  678.45    4.50
  -1   4   4   88.57    2.02
   0   4   2  832.63    4.06
   1  -8   4  100.01    2.78
   1   7   5  248.22    2.73
   3  -8   1  133.14    2.72
   3   8   4   32.23    1.69
   5   7   0    1.61    1.82
   6  -7  -2   69.49    3.34
   7   6  -2   78.50    2.71
   9   1  -5   52.18    6.24
  -3  -2   9   10.25    2.55
  -3  -2  10  167.29    5.22
   0   3   1 1178.59    5.39
   2   5   0  211.33    2.26
   2   8   5   31.40    2.02
   3  -6  -1  236.27    2.72
   3   6   0  505.38    3.26
   5   4  -3  471.09    3.87
   7  -6  -3   18.37    2.56
   7   5  -3   89.09    2.88
   8   1  -5   87.74    5.83
  -3  -1   8  177.51    4.65
  -2  -5   9   91.24    3.06
  -2  -5  10    4.66    2.18
  -2  -2   4   30.29    1.92
  -2   4   7    8.10    1.76
  -1  -5   4  403.70    3.14
  -1   5   5  249.29    2.79
   0  -6   3  338.75    2.67
   1  -8   5   86.94    2.64
   1   7   4    4.15    1.56
   4   3  -3  482.21    4.03
   4   6  -1  431.48    3.27
   4   8   2   42.41    1.79
   5   8   1   54.51    2.48
   6   6  -2   67.25    2.32
   6   7  -1   18.91    2.21
   8   4  -4  178.59    4.21
  -3   0   8    2.62    3.51
  -2  -4   6  515.45    3.95
  -1  -6   6  122.34    2.27
  -1  -4   3  704.33    3.97
  -1   2   2 4223.97   12.60
  -1   6   9   11.33    2.39
   0   6   4  532.91    3.49
   0   7   7   35.39    2.26
   1  -7   3  535.50    3.64
   1   6   2  456.38    2.96
   2   4  -1   12.28    1.42
   2   7   2  391.04    3.06
   2   8   4   86.08    2.24
   3  -8   2  111.62    2.60
   3   7   1  213.28    2.27
   4  -8   1   63.54    2.44
   4   5  -2   46.18    1.78
   5  -7  -1  267.40    3.50
   5  -6  -2  220.61    2.96
   6   5  -3  423.03    4.03
  -3  -1   9   60.25    3.55
  -3  -1  10   87.98    4.95
  -2  -3   5  238.70    2.92
  -2   3   5  297.17    3.37
  -1  -6   7   77.53    2.50
  -1   6   7   88.82    2.46
   0  -7   6  147.83    2.84
   0   7   6  166.58    2.87
   1  -8   6   31.00    1.95
   1   4   0 1705.54    5.70
   1   8   6   37.63    2.16
   3   1  -3 1268.13    9.56
   3   4  -2  230.75    2.51
   7  -4  -4   10.95    2.53
   9   2  -5    5.87    4.92
  -2   4   6  546.82    4.38
  -1  -6   8   70.68    2.61
  -1  -6   9   11.29    2.42
   0  -7   7   37.53    2.42
   0  -6   4  540.97    3.63
   1   2  -1   84.28    2.14
   1   7   3  521.99    3.47
   2  -8   4   58.45    2.15
   2  -7   2  409.31    3.25
   2  -4  -1   11.71    1.57
   3   8   2   42.01    1.65
   4  -7   0  245.35    2.92
   4  -5  -2   48.44    1.88
   6  -5  -3  389.45    4.45
   8   2  -5  173.37    6.44
  -3   0  10   22.12    4.92
  -1   4   3  701.94    4.10
   0  -7   8   52.45    2.59
   0   5   2   22.51    1.14
   0   6   3  437.65    3.08
   0   7   5   23.86    1.76
   1  -7   4    2.93    1.46
   1   8   5   85.88    2.40
   2   8   3   33.45    1.59
   3  -7   1  290.19    2.71
   4  -6  -1  457.53    3.41
   5  -8   1   47.71    2.54
   5   5  -3  181.13    2.82
   6  -7  -1   23.51    2.26
   6  -6  -2   52.51    2.36
   6  -3  -4  342.79    5.45
   7   1  -5  171.08    7.25
   7   6  -3   15.65    2.34
  -3   2   9   12.42    3.32
  -2  -4   8  182.33    3.01
  -2  -4   9   11.54    2.11
  -2  -4  10   81.47    3.14
  -2   5   8   34.54    2.26
  -2   5  10    2.59    2.31
   0  -5   3 2021.20    6.15
   0   4   1   32.89    1.54
   2  -8   5   32.10    1.92
   2  -5   0  214.00    2.55
   3  -6   0  534.29    3.50
   3  -5  -1  115.90    2.04
   3   6  -1  243.21    2.50
   4  -8   2   48.99    1.91
   4   4  -3  225.72    2.81
   5  -4  -3  614.46    4.75
   6   4  -4  447.84    4.53
   6   7  -2  128.23    2.97
   8   5  -4    1.54    2.46
  -3   2  10  186.51    9.58
  -2  -3   6  585.86    4.19
  -2   5   7  278.00    3.59
  -1  -5   6  429.89    3.58
  -1  -3   3 1931.24    6.97
  -1   3   2  670.27    4.32
   0  -6   5  386.41    3.20
   0   7   4  257.35    2.73
   1  -7   5  188.38    2.72
   1   6   1  298.00    2.51
   1   8   4  103.81    2.31
   2  -7   3   96.71    2.24
   2   5  -1  989.72    4.20
   3  -8   4   66.74    2.69
   3   2  -3  119.92    2.68
   3   8   1  149.80    2.54
   4   6  -2  134.74    2.22
   4   8   0  134.19    2.61
   5  -7   0    2.86    1.87
   6   6  -3  153.36    3.04
  -2   4   5  158.55    2.54
  -1   7   8    3.99    2.08
   1  -7   6    1.35    1.88
   1  -6   3   39.45    1.41
   1   3  -1 2439.61    7.62
   1   5   0 1857.68    5.54
   1   7   2    0.74    1.11
   2   3  -2 2199.23    7.42
   2   8   2   65.14    1.66
   3  -7   2    4.54    1.70
   3   5  -2 1015.96    4.50
   4  -8   3   28.20    2.41
   4  -7   1   41.13    2.02
   5  -8   2   43.56    2.46
   7   5  -4   79.78    2.99
   8   3  -5   45.22    4.16
  -3   2   8  416.41    7.46
  -1  -5   8  254.85    3.35
   0   8   6   38.35    1.78
   1  -7   7  161.08    3.33
   3  -8   5   33.95    2.40
   5   7  -2   -1.15    1.36
   5   8  -1   25.81    1.80
  -2  -3  11   14.30    2.67
  -1  -5   9   15.45    2.00
  -1   5   3  529.12    3.55
  -1   6   4  616.82    3.85
  -1   7   6    1.99    1.80
   0  -6   7  162.03    2.79
   0  -6   8    6.20    2.08
   0   6   2  194.30    2.07
   0   8   5   57.48    2.07
   1  -3   0  205.82    2.48
   1   8   3   62.97    1.71
   2  -7   4  158.88    2.24
   2  -6   2  292.80    2.61
   2   9   3  164.84    2.92
   3   3  -3 1420.33    6.45
   4  -8   4   46.66    2.72
   4   5  -3 1041.62    4.95
   5   4  -4   35.51    2.67
   5   6  -3   35.37    2.08
   6   5  -4   -0.98    2.02
  -2  -3   8  322.00    3.72
  -2  -3  10   75.61    2.94
  -2   6   8   13.41    2.00
  -2   6   9   78.51    3.12
  -1   4   2  268.73    2.66
   0   7   3   64.66    1.83
   2  -7   5   13.47    2.04
   2  -1  -2 2979.09   16.81
   2   8   1  106.10    2.12
   3  -7   3  380.90    3.38
   3  -6   1  167.09    2.24
   4  -5  -1  695.25    3.86
   5  -7   1  192.28    2.94
   6  -6  -1  205.72    3.01
   6  -4  -3  102.75    2.59
   7   3  -5  198.58    4.91
  -3   3   9  174.34    4.89
  -2  -3   9   52.26    2.32
  -2   6   7  157.41    2.95
   0   3   0  797.05    4.45
   1   4  -1 2189.11    6.49
   1   6   0  711.16    3.52
   1   7   1  686.09    3.55
   1   9   4   53.85    2.27
   3   6  -2  381.44    2.94
   3   9   1   -0.43    1.95
   4  -7   2  155.50    2.33
   4   7  -2  349.17    3.21
   4   8  -1   29.52    1.65
   4   9   0    2.60    1.88
   6   7  -3    9.09    2.35
   7   6  -4  104.18    3.26
   8  -3  -4  109.49    4.17
   8   4  -5   27.54    3.38
  -3   3   8   84.56    3.33
  -3   3  10   31.39    3.96
  -2   4   4 1222.73    5.52
  -2   5   5  819.62    4.61
  -1  -4   6  171.38    2.33
  -1  -3   4  387.18    3.24
   0  -5   5  653.63    3.68
   0  -4   3  366.53    2.93
   0  -2   1 4318.91   11.85
   0   8   4   80.46    1.90
   1  -6   5   56.10    1.87
   1   8   2   71.60    1.72
   2  -7   6   65.92    1.99
   2  -7   7   12.09    2.33
   2  -6   3  446.23    3.04
   2  -4   0 2065.74    6.56
   2   9   2    1.10    1.37
   3  -7   4    4.14    1.99
   3  -4  -1 1282.71    5.35
   7  -6  -1   43.92    2.31
  -2  -2   6   48.82    1.92
  -2   6   6   99.89    2.30
  -1   6   3   82.60    2.06
   0   4   0 2925.69    7.53
   0   7   2  608.13    3.63
   1  -6   6  201.77    2.68
   4  -7   3   44.51    2.21
   4   3  -4  905.49    6.31
   5  -7   2    3.32    1.87
   5  -3  -3  816.84    5.47
   5  -1  -4 1019.07   11.63
   5   5  -4  191.11    3.04
   5   7  -3  209.43    3.16
   6  -2  -4    9.28    2.52
   6   2  -5  435.43    7.42
   6   6  -4  143.09    3.24
   7   4  -5  199.92    4.63
  -2  -2  11   35.08    3.41
  -1  -4   7  359.83    3.44
  -1  -4  10   26.61    2.36
  -1  -2   3   99.06    2.13
  -1   7   4    6.29    1.74
  -1   8   6   80.62    2.68
   0  -5   6   42.98    1.78
   0   8   3   82.81    2.17
   1  -6   7   76.76    2.30
   1   5  -1  230.10    2.31
   1   9   3   10.04    1.51
   2   5  -2   52.73    1.62
   2   8   0  259.00    2.71
   3  -7   5  136.54    2.76
   3  -6   2  233.74    2.28
   3   8  -1  145.46    2.50
   4  -6   1  427.03    3.18
   4  -2  -3  820.90    6.23
   8  -5  -2   11.72    2.11
   8  -4  -3   29.44    2.74
   8   5  -5   84.10    4.09
  -3   1   9   70.52    5.95
  -3   4   9  188.55    4.57
  -2   7   8   66.81    2.78
  -1  -4   8   62.41    2.02
  -1  -4   9  139.87    2.85
   0  -5   7  316.05    3.38
   0  -5   9  117.62    2.88
   0  -5  10    2.46    1.69
   1  -6   8   37.82    1.83
   1   7   0   15.42    1.37
   1   8   1  208.20    2.49
   2  -6   4  361.16    3.13
   2   7  -1   64.68    1.51
   3  -7   6    0.80    2.14
   3   5  -3  561.95    3.79
   3   9   0   61.09    2.02
   4  -7   4  160.05    2.88
   4   4  -4  887.42    5.29
   6  -7   2   65.78    2.53
   6  -6   0   42.43    2.07
   6   1  -5  219.20    7.31
  -3   3  11   45.40    6.62
  -3   4   8   78.02    2.65
  -3   4  10   23.18    3.27
  -2  -2  10   50.49    2.76
  -2  -1   5  497.58    4.95
  -2   0   4 2906.07   20.30
  -2   5   4    5.49    1.39
  -2   7   7   35.86    2.39
   0  -4   4 1440.97    5.14
   0   5   0  305.94    2.55
   0   9   4    0.67    1.68
   1   9   2  133.15    2.54
   5  -7   3   89.54    2.22
   5   6  -4  256.90    3.46
   7   5  -5   53.84    3.18
  -2  -2   8   20.93    2.06
  -2  -2   9  346.88    4.17
  -2   3   3  761.03    4.84
  -1   2   1   88.71    2.23
  -1   6   2  490.88    3.19
   0   7   1  126.70    1.99
   0   8   2  143.27    2.27
   1   6  -1  308.50    2.53
   2  -6   5  293.45    2.89
   2   6  -2  289.65    2.55
   3  -6   3   36.81    1.42
   3  -5   1  146.56    2.07
   4  -7   5    3.86    1.57
   5  -7   4   -1.13    2.15
   5  -6   1   77.13    2.02
   5   8  -3   49.96    2.47
  -3   4   7  381.93    4.34
  -2   2   3 1070.76    6.83
  -2   7   6  180.07    3.17
  -1  -3  11   40.58    3.18
  -1   4   1 2480.19    7.17
  -1   8   4  137.05    2.62
   1  -3   1 2536.92    7.32
   2  -6   6   59.62    2.16
   2   9   0    3.52    1.60
   3   6  -3   61.49    1.89
   3   9  -1    1.07    1.68
   4  -4  -1   17.03    1.43
  -3   5   8  218.20    3.64
  -3   5   9   15.17    2.27
  -2   6   4  579.70    3.79
   0  -4   5  174.80    2.19
   0   6   0  324.76    2.57
   0   9   3  127.33    2.38
   1  -5   5  124.21    1.79
   1   8   0  282.13    2.72
   1   9   1    0.86    1.57
   2  -6   7   77.87    2.14
   2  -6   8    7.36    1.58
   2   8  -1   55.42    1.58
   3  -6   4  311.98    2.96
   3  -2  -2 3202.31   10.63
   3   8  -2  112.84    2.35
   6  -6   1  149.41    2.56
   6  -4  -2  381.41    3.15
   6  -3  -3  166.24    2.83
   7  -5  -1   16.42    1.90
   7  -2  -4  504.39    5.94
  -3   5   7   48.44    2.28
  -3   5  10   23.24    3.26
  -1  -3  10   46.39    2.32
  -1   5   1  244.65    2.42
   0  -3   3 1002.61    4.65
   1  -5   6  430.02    3.24
   1   3  -2  654.62    4.38
   1   4  -2  286.41    2.78
   2   3  -3  825.90    5.09
   2   7  -2  525.25    3.42
   4  -6   3  217.13    2.61
   4   6  -4  308.92    3.40
   4   8  -3   42.18    2.13
   5  -6   2  190.36    2.72
   5  -5   0  665.45    3.74
   5   7  -4    3.93    2.19
  -3   4   6  123.85    2.60
  -2  -1  11   42.90    2.98
  -1  -3   7  710.36    4.29
  -1  -3   9  205.21    2.96
  -1   7   2    2.02    1.10
  -1   8   3  154.54    2.54
   0  -4   6  655.91    3.86
   0  -4  10  101.93    2.89
   0   8   1  137.74    2.23
   0   9   2    0.77    1.59
   1  -5   7   34.27    1.83
   1  -5   8  222.38    3.00
   1  -5   9    8.96    1.64
   1   2  -2 4327.50   12.24
   1   7  -1  430.30    2.80
   2   4  -3  200.21    2.42
   3  -5   2  697.75    3.51
   3  -3  -1 1921.15    6.54
   3   7  -3  453.35    3.48
   5   4  -5  552.93    5.67
   6   6  -5  121.65    3.58
   7  -4  -2   49.50    2.01
   8  -2  -4    2.35    2.45
  -3   6   8   80.33    3.00
  -3   6   9   17.81    2.62
  -2   7   4  299.93    3.05
  -1  -3   8   78.39    2.03
  -1   6   1  324.34    2.70
   0  -4   7    6.38    1.54
   0  -4   8  261.62    2.90
   0  -4   9   11.21    2.01
   0   3  -1 1350.45    5.87
   0   4  -1   33.74    1.64
   0   7   0  479.73    3.12
   1   5  -2 1252.80    4.85
   2  -5   4   -0.28    1.58
   2   2  -3  970.15    6.19
   2   5  -3 1859.24    6.08
   2   9  -1  151.60    2.58
   3  -6   6   65.83    1.90
   3  -6   7   35.16    2.12
   4  -6   4  167.95    2.69
   5   2  -5   50.30    3.42
   5   5  -5  127.50    3.14
   7  -3  -3  230.58    3.26
   8  -4  -2   98.32    2.70
  -3   2   6 1375.97   10.83
  -3   5   6  415.34    3.96
  -3   6   7   64.37    2.38
  -2   8   5   73.64    2.37
   1   9   0  155.99    2.56
   2   8  -2  130.13    2.15
   3   3  -4  310.83    3.78
   3   4  -4   60.79    2.59
   3   9  -2   72.61    2.04
   4  -6   5  185.06    2.80
   5  -4  -1  701.51    3.87
   5   8  -4   38.77    2.64
   9  -3  -3   40.77    2.56
  -2  -1  10   91.51    3.07
  -1   1   1  854.08    7.61
   0  -2   2  146.11    2.30
   1   8  -1  135.51    1.93
   2  -5   5  507.03    3.25
   2   6  -3  531.86    3.45
   3  -5   3  524.61    3.45
   3   5  -4  327.82    3.24
   3   8  -3  119.59    2.38
   4  -6   6   12.45    2.19
   4  -6   7   54.13    2.72
   5  -6   4  134.11    2.69
   5   6  -5   12.83    2.19
   6  -6   3   52.44    2.18
   6   7  -5    0.40    2.45
   7  -5   0  152.70    2.64
   8   3  -6   61.94    6.30
  -3   4   5  967.82    5.43
  -3   6   6  195.05    2.99
  -2   7   3   92.12    2.13
  -1  -2  11    8.59    2.37
   0  -3   4 1289.03    5.00
   0   8   0  309.93    2.88
   2  -5   6   40.00    1.84
   2  -5   7  253.72    3.01
   2  -5   8   21.15    2.11
   2  -5   9   47.88    2.06
   3   6  -4  461.50    3.71
   4  -5   2   16.83    1.51
   4  -4   0 1245.51    4.74
   5  -6   5   16.75    2.19
   6  -6   4   54.90    2.53
  -3   3   5  762.95    5.43
  -3   5   5  229.44    2.87
  -3   7   8    0.82    2.10
  -2  -1   9  197.26    3.31
  -2   3   2 2639.11    8.31
  -2   8   4  100.30    2.21
  -1   4   0 1670.28    5.83
  -1   5   0 1882.30    5.79
   0  -3  11   11.36    2.19
   1  -4  10   25.81    2.34
   2   7  -3   87.43    1.96
   3   2  -4 3301.09   11.83
   6  -5   1  281.77    2.91
   6  -4  -1   10.66    1.46
   7   4  -6   18.09    4.34
  -3   6   5   38.52    1.82
  -3   7   6    0.67    1.63
  -2  -1   8  329.00    3.73
  -2   6   2  299.46    2.64
  -1   9   2  147.50    2.61
   1  -4   9  181.49    2.91
   1   9  -1    3.22    1.67
   2   9  -2    0.21    1.28
   3   9  -3   11.89    1.98
   4   4  -5  144.71    3.21
   4   5  -5  583.58    5.02
   7  -5   1   27.73    1.99
   7   3  -6   62.60    5.28
   8  -5   1   59.33    2.59
  -2   8   3   76.84    2.20
  -1  -2  10  227.04    3.42
  -1   6   0  540.43    3.02
  -1   8   1  142.97    2.05
   0  -3   5  294.21    2.58
   0  -3  10   49.21    2.23
   0   9   0    4.43    1.69
   1  -4   6  142.37    2.15
   1  -4   8   68.61    2.05
   3  -5   5   88.93    1.94
   3  -5   8  129.87    2.79
   3   7  -4    5.63    1.38
   4  -5   3  524.77    3.21
   4   6  -5  271.68    3.58
   6  -1  -4  209.08    4.03
   8   0  -5    0.29    3.35
  -3   5   4  324.98    3.02
  -3   7   5  194.04    2.85
  -2   0  11    0.94    2.55
  -2   7   2  544.20    3.57
  -2   9   4    1.17    1.97
  -1  -2   6 1555.35    6.04
  -1  -2   9   17.72    2.03
  -1   7   0   14.96    1.50
   0  -3   9   76.51    2.17
   0   8  -1  111.10    1.99
   1   8  -2   85.89    1.75
   2   8  -3   47.76    1.62
   3  -5   6  138.34    2.19
   3  -5   7   10.80    1.39
   5  -4   0  236.71    2.38
   6  -5   2    4.15    1.71
   6   4  -6  186.12    5.29
   6   5  -6    6.83    3.60
  -3   6   4  480.44    3.66
  -3   8   6   42.23    2.33
  -1  -2   7   13.34    1.51
  -1  -2   8  528.08    3.73
  -1   9   1    2.46    1.66
   0  -3   7  300.57    2.82
   0  -3   8  330.99    3.01
   1   1  -2 5560.65   17.02
   1   4  -3 1363.07    5.54
   1   5  -3  499.21    3.32
   1   6  -3   73.71    1.84
   3   8  -4   99.02    2.60
   4  -5   5  311.80    2.97
   4  -4   1   50.88    1.61
   4   7  -5   12.10    2.26
   5  -5   3  129.15    2.10
   6  -2  -3  536.98    4.38
   7  -3  -2   97.66    2.16
   8   2  -6    2.31    4.97
  -2   2   2  115.18    2.32
  -2   5   1 1066.65    4.48
  -2   8   2  135.48    2.40
   0   4  -2 1704.32    5.87
   0   5  -2   28.99    1.25
   1  -3   3 1291.44    4.79
   1  -2   1   94.95    1.89
   1   9  -2  164.85    2.72
   2   1  -3 1029.25    7.74
   2   5  -4    2.11    1.31
   2   6  -4  542.30    3.97
   4  -5   6   20.40    1.81
   4  -5   7   68.10    2.38
   4  -2  -2   53.40    1.69
   4  -1  -3  738.61    6.63
   5  -5   4  144.08    2.39
   6  -5   3  307.10    3.20
   6   3  -6  228.93    5.84
   7  -5   3   52.08    2.46
  -3   2  10  271.04    8.34
  -3   7   4    7.37    1.68
  -3   8   5   80.60    2.51
  -2   4   1   12.76    1.41
  -1   2   0 9866.28   17.19
  -1   8   0  186.21    2.26
   0  -2   3  779.79    4.37
   0   7  -2  598.83    3.46
   0   9  -1  194.22    2.74
   1   7  -3  417.66    3.00
   2  -4   5  112.35    1.92
   2  -4   8  183.19    2.70
   2   7  -4  288.03    2.96
   5  -5   5   35.45    1.99
   5  -5   6  114.49    2.62
   5  -5   7    5.65    2.24
   6  -5   4    0.61    1.83
   9  -1  -4   81.98    3.29
  -3   2   5   67.05    2.94
  -3   5   3  508.69    3.60
  -1  -1  11   59.34    2.58
  -1   5  -1  240.02    2.42
   0  -2  11   35.46    2.25
   1  -3  10   33.83    2.26
   2  -4   7    4.10    1.46
   2   3  -4 1177.57    5.83
   3   6  -5   40.14    2.38
   5  -4   1  637.73    3.49
   6  -5   5   69.66    2.38
   7  -1  -4  301.71    4.18
   8  -2  -3  162.57    2.86
  -3   8   4  109.14    2.62
  -2   0  10  209.26    3.61
  -2   9   2    1.10    1.84
  -1   4  -1 2366.37    6.75
  -1   9   0  161.28    2.69
   0   3  -2 1940.81    6.63
   0   8  -2  161.92    2.42
   1  -3   4  349.75    2.81
   1   8  -3   95.63    1.91
   2  -2   0  265.16    2.77
   3  -4   9   64.93    2.36
   3   4  -5  992.97    5.83
   3   7  -5  220.12    3.32
   5   4  -6   51.61    3.22
   5   7  -6    2.42    2.74
   8  -4   1    7.76    2.09
  -3   4   3 1011.87    4.98
  -2   0   5    3.90    1.77
  -2   8   1   64.65    1.66
   0  -2  10   46.14    2.14
   3  -4   8   31.66    2.06
   4  -3   0  974.31    4.29
   5   1  -5  327.82    7.99
   7  -4   1  202.87    2.70
  -3   8   3  113.46    2.40
  -1  -1   4 3452.18   10.72
  -1  -1  10  163.60    2.91
  -1   8  -1  151.62    2.00
   0   1  -1 4885.81   15.21
   0   9  -2    0.76    1.77
   1  -3   5  683.91    3.50
   1  -3   8   76.49    2.00
   1   9  -3   14.27    1.48
   2  -3  10   23.57    2.52
   2   9  -4   -0.89    2.01
   3  -4   6  107.67    2.14
   3  -4   7  196.01    2.67
   3  -3   1 1387.95    4.93
   3   8  -5   76.91    2.67
   5  -4   2   41.41    1.56
  -4   5   8   27.04    2.80
  -4   6   7  132.27    3.21
  -4   6   8   11.57    2.48
  -3   6   2  387.09    3.03
  -2   0   9    1.62    1.87
  -2   5   0  228.80    2.41
  -2   6   0  166.91    1.97
  -2   7   0  405.69    3.15
  -2   9   1  158.28    2.79
  -1   3  -1 2521.02    7.37
   0  -2   4   21.64    1.19
   0  -2   9  314.81    3.11
   1  -2  11    1.80    2.25
   1   6  -4  613.06    4.02
   3   3  -5  677.75    5.06
   4  -4   8   59.22    2.25
   4   5  -6   26.24    2.74
   4   6  -6   76.10    3.43
   4   7  -6  128.82    3.68
   5   3  -6  145.73    3.94
   6  -4   2  300.33    2.78
   7  -4   2   11.15    1.82
  -4   6   6   74.18    2.45
  -4   7   7   20.20    2.34
  -3   5   2 1039.94    4.63
  -3   7   2    2.45    1.59
  -3   9   3   22.73    1.97
  -2   8   0  233.85    2.61
  -1   9  -1    0.20    1.36
   0   7  -3  106.90    2.24
   1   5  -4  319.56    2.77
   1   7  -4    8.53    1.84
   2  -3   9   54.89    2.21
   3   1  -4 2010.26   11.60
   4  -4   5   60.91    1.86
   4  -4   6  278.42    2.86
   4  -4   7    2.67    1.78
   5  -4   3  271.55    2.61
   7   5  -7    9.50    5.10
   8  -4   3   10.36    1.74
   9  -3   0   21.24    2.23
  -4   5   6   25.37    1.90
  -4   5   9   95.17    4.72
  -4   7   6  124.96    3.03
  -3   3   3 1480.81    6.45
  -3   8   2  111.59    2.38
  -2   1  11   47.61    3.06
  -2   4   0 1702.56    5.57
  -1  -1   9   83.53    2.14
  -1   6  -2  519.69    3.25
  -1   7  -2    1.66    1.68
   0  -2   5 1403.57    5.33
   0  -2   8   18.45    1.55
   0   8  -3   85.34    2.19
   1  -2   2 4052.30    9.47
   1   8  -4  133.73    2.61
   2   5  -5  799.09    4.78
   2   6  -5  324.36    3.30
   4   4  -6  427.25    4.85
   5  -4   4   12.75    1.77
   5  -4   5  291.03    2.95
   5  -4   6   50.30    2.10
   5  -4   7   62.76    2.04
   6  -4   3   44.06    1.64
   6   6  -7   36.71    5.95
   7  -4   4    5.74    2.01
  -4   6   5  263.71    3.30
  -3   3  11   55.36    5.58
  -3   4   2  245.99    2.58
  -2   0   6 2334.79   10.40
  -2   9   0    1.83    1.89
  -1   8  -2  146.51    2.41
   0  -2   6   66.43    1.75
   0  -2   7  550.78    3.58
   0  -1  11   31.42    2.42
   0   2  -2  146.39    2.34
   1  -2  10  266.98    3.32
   1   4  -4   60.42    1.59
   2  -3   8  166.88    2.51
   2   2  -4   34.79    2.18
   2   8  -5   69.85    2.58
   4  -3   1  427.91    2.91
   6  -4   5   14.05    1.86
   6  -4   6   47.13    1.91
   6   5  -7  123.34    5.69
   8  -3   0   81.25    2.13
   8  -2  -2    6.97    1.86
  -4   4   7    6.38    1.94
  -4   5   5  569.75    4.42
  -3   6   1  231.15    2.48
  -3   7   1  502.15    3.53
  -3   9   2  115.18    2.79
  -2   0   7    1.67    1.52
  -1   0  11  148.14    3.25
   0   9  -3  151.49    2.49
   1   9  -4   38.01    1.80
   2  -3   5  248.43    2.38
   2  -3   6  483.85    3.21
   2  -3   7  175.55    2.38
   3  -3   9   76.56    2.32
   3   6  -6  185.37    3.67
   3   7  -6    1.26    2.58
   7  -3   0   40.28    1.40
   7  -2  -2  446.69    3.50
  -4   4   6  441.65    4.72
  -4   4   8  219.06    5.37
  -4   6   4  329.77    3.36
  -3   8   1  126.25    2.49
  -2   6  -1  668.50    3.46
  -2   7  -1   72.79    1.68
  -2   8  -1  101.31    2.21
  -1  -1   6  746.58    4.46
  -1   4  -2  183.80    2.00
  -1   9  -2   97.26    2.11
   3   5  -6  400.38    4.39
   3   8  -6   48.87    3.07
   4  -3   9   19.40    2.26
   5  -1  -3  592.86    5.05
   5   6  -7   37.59    4.07
   9  -1  -3   47.48    2.57
  -4   8   4   88.70    2.68
  -3   2   4 3414.98   13.22
  -2   2   1 3269.45    9.78
  -2   3   0 1445.82    5.59
  -2   5  -1  740.63    3.57
   0  -1   2 3555.12   11.40
   1  -2   3  207.71    2.41
   1  -2   9    8.58    1.35
   2  -2  10   14.24    2.41
   4  -3   2 1072.31    4.30
   7  -3   1  294.07    2.87
  -4   4   5  148.51    2.81
  -4   7   3   52.64    1.94
  -3   2   9   13.81    3.07
  -3   9   1    0.27    1.39
  -2   9  -1   94.94    2.20
  -1   7  -3  593.62    3.76
   0   3  -3 1007.38    4.77
   0   6  -4  566.41    3.70
   0   7  -4  248.55    2.65
   0   8  -4  157.09    2.82
   1  -1  11   24.92    2.53
   1   3  -4  429.10    3.46
   1   6  -5   59.19    2.20
   4  -3   8   74.05    1.83
   6   4  -7    3.34    2.99
   8  -3   2   74.37    2.29
  -4   6   3  345.74    3.19
  -4   8   3   47.88    2.31
  -3   3   2  458.04    3.48
  -3   7   0    8.60    1.61
  -2   1  10  101.68    3.01
  -2   4  -1   42.79    1.54
  -1   0   2    0.66    1.96
  -1   0  10   48.76    2.18
  -1   2  -1   89.36    1.88
  -1   6  -3   36.50    1.39
  -1   8  -3   96.99    2.00
   0   5  -4    3.05    1.67
   0   9  -4    2.89    2.02
   1   8  -5   68.16    2.10
   3   4  -6  115.60    2.68
   4  -3   7   89.07    2.27
   4   6  -7  140.10    4.95
   4   7  -7   21.08    3.79
   5  -3   2  206.55    2.28
   6  -3   7   13.47    2.39
   7  -3   2   67.99    2.01
   8  -3   3   24.73    1.76
   9   0  -4    0.23    2.07
  -3   8   0  135.91    2.27
  -2   8  -2  122.45    2.39
  -1   3  -2  732.88    3.98
  -1   5  -3  805.63    4.10
  -1   9  -3   12.54    2.22
   1  -2   4 3574.40    8.12
   1  -2   7   10.65    1.43
   1   5  -5  207.79    2.42
   2  -2   9  170.51    2.54
   2   3  -5  280.67    3.05
   2   7  -6  130.92    2.95
   2   8  -6   64.40    3.08
   4  -3   6  215.19    2.43
   5  -3   7   85.58    2.19
   7  -3   3  211.95    2.72
   7  -3   4   46.34    2.10
   7  -3   5   88.84    2.59
   9  -2   0  128.76    2.95
   9   1  -5   33.90    3.17
  -4   4   4 1055.67    5.66
  -4   5   3  975.02    4.88
  -4   7   2  319.07    3.25
  -4   8   2   84.89    2.36
  -3   5   0 1225.11    4.75
  -3   9   0   83.72    2.14
  -2   6  -2  248.43    2.30
  -2   9  -2   -2.49    1.86
   5  -3   4  124.06    2.19
   5  -3   5  265.24    2.69
   5   4  -7  274.26    5.36
   6  -3   4  214.17    2.64
   6  -3   5   48.44    2.18
  -2   5  -2   26.07    1.56
  -1   1   0  664.74    5.55
   0   0  11    1.48    1.99
   0   4  -4 1545.97    5.51
   1  -1  10  124.96    2.47
   2  -2   8    7.58    1.64
   2   5  -6   45.41    2.25
   3  -2   9    6.15    1.81
   4  -2   0  104.81    1.93
   5   0  -4   -1.16    1.93
   8  -2   0   13.15    1.83
   9  -2   1    4.09    2.19
   9  -1  -2   62.27    2.28
  -3   8  -1  136.42    2.69
  -1   0   9  306.09    3.25
  -1   4  -3 1179.46    4.73
   0  -1   8  379.18    3.19
   0   7  -5   23.51    2.03
   1   4  -5 1278.97    5.37
   3   6  -7   61.79    3.04
   3   7  -7  131.33    3.70
   4  -2   9   53.02    1.89
   9  -2   2   85.85    2.76
  -4   5   2   55.19    1.74
  -3   6  -1  204.30    2.43
  -3   9  -1   -0.89    1.98
  -2   1   9  232.56    3.54
  -2   2  11   66.22    3.13
  -1   1  11   72.93    2.71
  -1   6  -4  518.45    3.74
  -1   7  -4    8.05    1.41
  -1   8  -4   89.55    2.13
  -1   9  -4   56.04    2.68
   1   7  -6    0.70    2.27
   1   8  -6   76.31    3.15
   3  -2   8  223.65    2.55
   5  -2   0 1839.89    5.91
   7  -2   0  555.23    3.63
  -5   7   5  109.43    2.84
  -5   7   6   -0.13    2.03
  -4   4   3  175.04    2.47
  -4   6   1  518.69    3.55
  -4   9   1   60.11    2.80
  -3   2   3   89.64    2.42
  -3   3   1 1821.94    6.25
  -3   4   0  832.21    4.03
  -2   3  -1  655.32    3.54
  -2   7  -3   81.13    2.17
  -2   8  -3   40.23    1.78
  -2   9  -3  155.69    3.02
   1  -1   9   92.27    2.18
   2  -2   5 1181.99    4.54
   2  -2   6   37.06    1.64
   2  -1  10   32.90    1.76
   2   4  -6  568.57    4.15
   3   3  -6  179.36    2.87
   4  -2   8    4.29    1.71
   4   4  -7    8.79    2.42
   6  -2   0   32.87    1.56
   7   0  -4   -0.52    1.81
  -5   7   4    4.42    1.77
  -5   8   4   47.21    2.56
  -3   5  -1  161.11    2.18
  -2   4  -2 1322.47    4.84
  -2   6  -3  413.21    3.11
   0  -1   6  760.20    4.20
   0   0  10  262.02    3.18
   0   5  -5  741.39    4.13
   1  -1   1  875.13    5.60
   1   0  11   91.65    2.62
   2   7  -7   31.93    2.87
   3  -2   7    4.35    1.18
   3  -1  10   73.58    2.50
   3   5  -7   44.42    2.63
   4  -2   1 1678.79    5.61
   5   6  -8   43.83    4.64
   6   0  -4  599.32    5.72
   7  -2   1   15.00    1.74
   7  -2   6   87.11    2.83
   8  -2   2    3.16    1.35
   8  -2   3   68.22    2.25
   8  -2   4    0.13    1.96
   8   2  -6    1.97    3.50
  -5   6   7   37.20    2.82
  -4   3   6  538.10    6.50
  -4   7   0  235.35    2.81
  -4   8   0  141.98    2.88
  -3   7  -2    5.52    1.74
  -3   8  -2   99.60    2.56
  -3   9  -2   69.78    2.64
  -2   1   2 2932.18   14.07
  -1   0   8    4.54    1.65
  -1   5  -4  324.31    2.58
   0  -1   5  550.87    3.69
   1   2  -4 4707.56   10.88
   1   5  -6  468.71    3.75
   3  -2   6  784.35    3.96
   5  -2   1   35.64    1.52
   5  -2   7    2.91    1.38
   6  -2   1  703.76    3.76
   6  -2   6    4.21    1.95
   6   3  -7   64.60    3.83
   6   5  -8   13.66    4.07
   7  -2   2  471.91    3.35
   7  -1  -2  307.13    3.06
   9   0  -3  129.53    2.86
  -5   6   4  259.53    3.42
  -5   7   3  219.02    3.26
  -4   3   5  200.93    3.39
  -4   4   2  826.84    4.33
  -2   5  -3 1707.56    5.59
  -1   8  -5   78.89    2.70
   2  -1   9   81.70    1.80
   5  -2   6  341.86    3.02
   5  -1  -2  897.52    5.10
   6  -1  -2  550.18    4.11
   7  -2   3   20.63    1.87
   7  -2   4  177.50    2.36
   9  -1   0   53.73    2.32
  -5   6   8   48.82    3.88
  -3   2   8  417.31    6.38
  -3   6  -2  300.32    2.57
  -2   8  -4  120.11    2.93
  -1   2  -2 4393.09    9.87
  -1   3  -3 1497.95    5.14
  -1   7  -5  250.77    3.25
   0   7  -6  168.26    3.27
   0   8  -6   44.98    2.35
   1   1  -3 2715.79   10.41
   3  -1   9   49.84    1.99
   4  -2   5  614.72    3.43
   5  -2   2 1261.94    4.73
   5  -2   5   19.11    1.72
   5   5  -8  112.35    4.46
   6  -2   2    7.80    1.12
   6  -2   3  284.63    2.65
   6  -2   4    1.97    1.82
  -5   5   5  137.25    2.95
  -5   5   6  244.57    3.94
  -5   6   3   31.34    1.91
  -5   7   2    0.12    1.70
  -5   8   2   43.56    2.62
  -4   3   4  781.62    5.41
  -4   8  -1   54.68    2.42
  -3   4  -1 1560.52    5.27
  -2   1   8  378.99    4.17
  -2   7  -4  204.42    2.58
  -1   0   7  221.91    2.87
  -1   4  -4   79.95    2.15
  -1   6  -5   67.50    2.20
   0   0   9    2.07    1.70
   0   1  -2 3395.78   11.04
   0   1  11   30.09    2.25
   0   4  -5  181.38    2.32
   1  -1   7  293.77    2.88
   1   0  10   30.36    1.95
   2   2  -5 1037.55    5.55
   3   4  -7  378.27    4.24
   3   7  -8    3.43    3.48
   5  -2   3   97.56    2.02
   5   3  -7  327.50    5.35
   9  -1   2   70.06    2.65
  -4   5   0  128.01    2.01
  -4   7  -1   42.08    2.09
  -3   2   2 2955.51    9.75
  -3   3   0  304.47    2.72
  -3   5  -2  695.38    3.62
  -2   2  10   60.66    3.02
  -2   6  -4  400.63    3.41
   0   6  -6   79.17    1.97
   1   7  -7  173.87    3.35
   5  -1   8   61.60    2.33
   8  -1   0  181.22    2.67
  -5   5   4  187.56    2.79
  -5   5   7   23.58    2.79
  -5   6   2  213.75    2.81
  -4   4   1   14.15    1.40
  -4   6  -1  451.35    3.36
  -3   7  -3  284.41    2.95
  -2   3  -2 1570.63    5.19
  -2   4  -3  362.99    2.81
   1  -1   2 5123.55   11.94
   1  -1   6  637.26    3.80
   2   0  10  120.40    2.24
   3   6  -8   79.71    3.68
   4  -1   8  118.11    2.24
   4   5  -8   27.19    2.82
   7  -1   6   20.98    2.53
   9   0  -2   -0.19    1.88
  -5   5   3  241.60    2.90
  -5   7   1  284.28    3.41
  -4   3   3  422.06    3.73
  -1   0   6    2.98    1.48
  -1   2  11    8.24    2.38
  -1   5  -5  150.30    1.98
  -1   8  -6   50.39    2.75
   0   5  -6   51.53    2.04
   1   0   9  277.78    2.97
   1   1  11   38.47    2.31
   2  -1   7  649.14    3.94
   2   1  -4  633.10    5.69
   8  -1   2   78.04    2.33
  -4   8  -2   58.09    2.07
  -2   2  -1 3046.09    8.16
  -2   5  -4    1.06    1.17
  -2   8  -5   36.60    2.13
  -1   7  -6    1.04    2.23
   1  -1   3 2789.28    8.28
   3  -1   7  158.73    2.44
   4  -1   7  352.46    3.27
   4   3  -7  129.67    3.18
   6   4  -8   91.44    4.61
   7  -1   0  192.20    2.48
   7  -1   5   49.12    2.18
  -5   5   2  452.38    3.48
  -5   6   1  139.21    2.38
  -5   8   0   60.88    2.20
  -4   5  -1  575.23    3.49
  -3   4  -2  126.90    2.01
  -3   8  -4   62.68    2.78
  -2   1   7  939.86    6.61
  -2   7  -5   13.19    1.63
  -1   0   5 2510.64    9.31
  -1   1   9   91.85    2.38
   0   1  10   75.83    2.31
   0   7  -7   37.93    2.86
   2  -1   6  556.95    3.45
   2   0   9    0.54    1.81
   2   4  -7    6.41    1.73
   2   6  -8   15.94    2.76
   3   5  -8  260.83    4.09
   5   4  -8   38.99    3.11
   7  -1   1  165.04    2.39
   7   0  -3  474.82    4.08
  -5   7   0    1.89    1.38
  -4   3   2 1206.97    5.48
  -4   4   0 1256.99    4.89
  -4   6  -2  213.93    2.71
  -3   3  -1 1432.77    5.19
  -3   5  -3  503.93    3.41
  -2   6  -5  361.25    3.27
  -1   0   4    4.30    1.67
  -1   1  -1  894.48    5.64
  -1   3  -4  357.13    3.05
  -1   6  -6  193.80    2.99
   0   3  -5  294.69    2.70
   2  -1   1 2839.36    8.76
   3  -1   6  335.81    2.78
   4  -1   6  293.86    2.73
   4   0   9    1.57    1.49
   5  -1   6   78.28    1.72
   6  -1   0  602.08    3.72
   6  -1   5  138.12    2.29
   7  -1   2  273.64    2.75
   7  -1   3  126.81    2.04
   7   4  -8   11.86    4.17
   8   0  -2  414.22    3.72
   9   0   0   -0.34    2.06
  -6   7   4   80.53    2.92
  -6   7   5    1.50    2.34
  -5   5   8  142.81    5.78
  -5   6   0  253.26    2.93
  -5   8  -1   49.92    2.44
  -4   8  -3   28.39    2.56
  -3   2   1   53.28    1.65
  -1   4  -5 1070.49    4.53
   0   0   7    2.85    1.46
   0   2  -4   19.51    1.96
   1   0   8    2.80    1.76
   1   7  -8    5.19    2.95
   2  -1   5  484.00    3.22
   5  -1   5  176.46    2.42
   6  -1   4  143.35    2.41
   9   0   1   80.34    2.53
   9   0   2   -0.13    2.21
   9   2  -5    2.87    2.44
  -6   7   3   18.04    2.26
  -5   4   5  539.74    5.01
  -5   5   1   59.72    1.91
  -5   7  -1  177.52    2.87
  -4   7  -3   32.32    2.30
  -3   6  -4  257.85    2.56
  -2   1   1 4328.57   14.04
  -2   3  -3  742.26    3.82
  -1   2  -3  182.06    2.35
   1   3  -6  229.37    2.60
   2  -1   2 1957.34    6.80
   2  -1   4  617.98    3.85
   4  -1   0 1589.88    6.07
   4   4  -8  199.85    3.80
   5   0   8   -0.73    1.50
   6  -1   3  232.18    2.60
   6   0  -3   60.76    3.15
   8   1  -4   74.75    2.67
   9   1  -3   46.82    2.50
  -5   4   3  526.99    3.93
  -4   5  -2   15.17    1.63
  -3   8  -5   53.14    2.95
  -2   2   9  381.84    4.46
  -2   5  -5  538.53    3.60
  -2   7  -6  107.99    2.88
  -1   5  -6  416.47    3.49
   1   2  -5   67.58    1.84
   1   2  11    4.25    2.25
   2  -1   3 1093.45    5.03
   2   0   8  717.99    3.99
   2   1  10   39.89    1.85
   2   5  -8   29.46    2.37
   3   0   8    0.73    1.70
   3   1  10   72.65    2.38
   4   0   8  323.05    2.90
   5  -1   1  405.60    3.11
   6   0   7    1.83    1.58
   7   0   6    1.18    1.67
   8   0   4   98.87    2.63
  -6   6   4  140.20    3.11
  -6   6   5  105.47    3.12
  -6   7   2  100.05    2.46
  -5   4   6   51.79    2.68
  -5   6  -1   84.06    2.04
  -5   8  -2   38.77    2.54
  -4   4  -1   52.82    1.68
  -4   6  -3  213.78    2.74
  -3   4  -3  750.75    3.82
  -3   7  -5  161.53    3.07
  -1   1   8  325.75    3.38
  -1   7  -7  131.44    3.12
   0   1   9  164.26    2.59
   0   5  -7  341.92    3.73
   1   4  -7  450.33    3.87
   4  -1   1 1364.97    5.44
   5  -1   2  878.93    4.23
   7   0  -2   -0.57    1.56
   8   0   0  711.24    4.42
   8   0   3   -0.18    2.18
  -6   6   3  160.20    2.94
  -6   7   1   22.87    2.17
  -5   4   2  123.09    2.17
  -5   5   0  635.99    3.83
  -5   7  -2    2.12    1.91
  -4   8  -4   40.41    2.96
  -3   2   7    9.55    2.49
  -3   5  -4  216.03    2.24
  -2   1   6  803.09    6.64
  -2   2  -2   92.61    1.91
  -2   6  -6   62.33    2.30
   1   0   7  183.83    2.52
   3  -1   2 1829.66    6.05
   4  -1   2  711.63    3.85
   4   0  -3  102.81    5.47
   5   0  -3 1081.43    6.81
   5   0   7   36.02    1.79
   5   5  -9    4.03    3.57
   6   0   6  393.88    3.43
   8   0   1    0.85    1.79
  -6   6   2   55.12    2.31
  -4   7  -4  147.16    3.03
  -3   2   0 4393.84   10.04
  -3   6  -5   46.33    2.25
  -1   6  -7   58.58    2.06
   1   1   9  102.18    2.33
   1   5  -8  238.83    3.39
   2   0   7    1.11    1.48
   2   3  -7  292.42    3.53
   4   0   7    1.63    1.61
   4   1   9   54.79    2.25
   4   5  -9   50.83    3.48
   7   0   4   -1.38    2.04
  -6   7   0   83.86    2.66
  -5   4   1  746.71    4.12
  -4   3   0  907.93    4.32
  -2   3  10   82.40    3.84
  -2   4  -5  116.63    2.06
  -1   3  -5  798.51    3.96
  -1   4  -6  158.69    2.31
   0   1  -3 1396.60    6.69
   0   6  -8   16.09    2.49
   2   1   9  126.82    2.41
   2   2  -6   65.46    2.18
   2   6  -9   93.97    3.89
   3   1   9   57.97    2.04
   5   0   6   -0.30    1.84
   6   0   5    1.59    1.89
  -5   5  -1   77.65    1.99
  -5   6  -2  154.58    2.33
  -4   4  -2  606.02    3.26
  -4   6  -4  175.64    2.89
  -2   3  -4 1038.69    4.38
  -2   5  -6   35.42    1.92
  -2   7  -7   23.83    2.61
   0   0   5    3.08    1.50
   0   3  -6  685.03    3.95
   0   3  11   16.75    2.65
   1   0   6    5.18    1.58
   2   4  -8  265.10    3.44
   3   5  -9   13.21    2.67
   5   1   8   57.95    2.29
   6   0  -2 1254.90    6.04
   7   0   0    1.06    1.67
   7   1   6   17.59    2.46
   8   1  -3  116.65    2.86
   9   1   0   37.95    2.24
   9   1   1   38.18    2.43
   9   2  -4  145.79    3.63
  -6   5   3  424.31    3.98
  -6   5   4    2.92    1.82
  -5   7  -3  112.43    2.49
  -3   5  -5  114.64    2.27
  -1   5  -7   37.97    2.08
   0   1   8  392.06    3.37
   0   4  -7    5.00    1.28
   1   2  10  253.39    3.19
   3   2  10  112.31    2.71
   4   0   6  772.90    3.76
   6   1   7   80.33    2.26
   8   1   4   39.45    2.34
  -6   5   2   34.17    1.95
  -6   5   5  272.66    4.10
  -6   6   0   46.13    2.20
  -6   7  -1   10.70    2.29
  -5   4   0  319.51    2.87
  -4   7  -5    7.18    2.47
  -3   2  -1   52.55    1.69
  -3   3  -3 1227.87    4.71
  -2   6  -7  107.65    2.91
  -1   1  -2 4266.30   10.83
  -1   1   7  310.16    3.71
  -1   2  -4 3165.05    7.74
  -1   2   9   17.15    2.04
   0   2  -5 1510.78    5.78
   0   5  -8   25.38    2.08
   3   0   6    2.14    1.16
   8   2  -5  104.96    3.37
  -5   4   7  261.34    7.52
  -5   5  -2  283.89    2.85
  -2   2  -3  845.91    4.20
  -2   2   8   21.21    2.48
  -1   6  -8   59.83    2.68
   1   1   8  251.09    2.80
   1   3  -7  722.32    4.62
   2   1   8  301.80    2.87
   2   5  -9  124.31    3.47
   3   1   8  136.35    2.28
   5   1   7   60.72    2.42
   6   0   3    0.68    1.55
   7   1   5   45.76    1.80
   8   1   3   39.09    1.78
  -6   5   1  298.26    3.15
  -6   6  -1  176.93    2.92
  -6   7  -2   77.72    2.78
  -5   7  -4    3.64    2.47
  -4   6  -5  181.94    3.08
   0   0   4 3141.57    9.84
   1   0   5 1985.87    6.65
   1   4  -8   64.06    1.84
   4   2   9   65.63    2.03
   4   3  -8  172.75    3.59
   6   0   0 2522.26    7.42
   6   0   1    0.52    1.67
   6   0   2  469.14    3.15
   8   1   2   62.19    2.13
   9   2  -3    5.01    2.26
  -5   3   3  876.10    5.52
  -4   2   3  955.70    6.32
  -2   3  -5  223.90    2.39
  -2   4  -6  507.06    3.51
  -1   3  10   44.52    2.48
  -1   4  -7  361.76    3.28
   0   6  -9   79.40    3.36
   1   2  -6 1593.10    6.45
   2   0   5    3.10    1.55
   3   2   9    6.60    2.01
   4   1   7  364.26    3.42
   4   4  -9    8.18    2.55
   7   1   4  165.14    2.55
  -6   5   0   42.54    1.59
  -5   3   2  252.67    2.87
  -5   3   4  183.42    3.19
  -5   5  -3  212.11    2.86
  -5   6  -4  133.60    2.91
  -4   2   2   51.80    1.81
  -4   3  -2 1028.27    4.43
  -3   4  -5  527.24    3.16
  -3   5  -6  252.63    3.22
  -1   3  -6  160.86    2.01
   0   1   7  940.83    5.70
   3   3  -8   69.81    2.38
   3   4  -9  197.58    3.97
   5   1   6  125.94    2.40
   5   2   8   59.12    1.97
   5   4  -9   83.28    3.77
   6   1   5  159.34    2.60
   7   1  -3  238.32    3.41
   7   2   6   81.65    2.53
   9   2  -2  116.39    2.92
   9   2   1    4.35    2.21
   9   3  -5   52.26    3.48
  -7   6   3   14.71    2.28
  -6   6  -2   90.39    2.61
  -5   3   1 1059.21    4.91
  -4   2   1 1655.23    6.44
  -4   5  -5  291.33    3.21
  -3   2  -2 2211.20    6.33
  -3   3  -4  253.73    2.62
  -3   6  -7   44.20    2.56
  -2   1  -1 2929.43    9.00
  -1   5  -8  165.70    2.67
   0   0   3  429.90    4.29
   0   3  -7  289.37    3.08
   0   3  10  103.07    2.72
   0   4  -8  234.75    3.05
   2   1  -5  527.19    5.07
   4   0  -2 3299.74   11.60
   5   0   2    1.97    1.58
   7   1   3  129.90    2.14
   8   2   4    1.38    1.97
   9   2   0  124.78    2.94
  -7   6   2   86.41    2.83
  -6   4   2  369.83    3.36
  -6   4   3  103.07    2.55
  -6   5  -1  258.34    3.07
  -5   4  -2   38.49    1.35
  -4   2   4   25.66    2.55
  -4   4  -4  460.95    3.02
  -2   6  -8    8.67    1.89
  -1   1   6  893.20    5.79
  -1   2  -5   62.67    1.80
   1   3  10   31.18    2.18
   2   0   4 2315.70    6.95
   2   3  -8  319.51    3.49
   3   2  -7    9.86    1.88
   4   2  -7  399.60    5.82
   4   2   8    5.66    1.85
   5   0   0    1.76    1.51
   8   2  -4    2.81    2.27
  -7   6   1   57.89    2.57
  -7   6   5    6.97    3.04
  -6   4   1   10.61    1.69
  -5   3   0  214.26    2.49
  -5   5  -4  125.20    2.42
  -2   2  -4   21.48    1.36
  -1   2   8  591.81    4.43
   0   2  -6   61.77    1.80
   0   5  -9  125.60    3.34
   3   5 -10   26.09    3.24
   4   3   9   21.38    2.27
   5   1   5  175.08    2.56
   6   2   6    8.23    2.09
   7   1   1  174.56    2.56
   7   2   5    2.44    1.60
   8   2   3   53.92    1.83
  -7   6   0  114.81    2.95
  -6   5  -2    4.71    1.91
  -6   6  -3   66.92    2.12
  -5   3   5  508.64    5.93
  -5   6  -5   15.61    1.89
  -4   3  -3  284.08    2.51
  -3   4  -6  106.28    2.35
  -3   5  -7   10.41    2.11
  -2   4  -7    1.63    1.72
   2   2  -7  684.66    5.45
   4   0   2 1474.76    5.37
   7   1   0  198.42    2.73
   8   2   2    3.41    1.99
   8   3  -6   65.24    3.53
  -6   4   0  553.89    3.80
  -5   3  -1  800.89    4.13
  -5   4  -3  283.00    2.62
  -4   4  -5   58.18    2.00
  -4   5  -6   25.00    2.29
  -3   3  -5  556.47    3.48
  -2   3  -6  342.01    2.68
  -2   5  -8   21.50    2.36
  -1   3  -7  604.20    3.99
  -1   4  -8   70.82    2.32
   1   0   3 2999.51    9.30
   1   3  -8   98.29    2.30
   1   4  -9  218.59    3.41
   2   0   3  432.48    3.47
   2   2   8   10.74    1.94
   2   5 -10    6.47    2.73
   4   0   1    1.01    1.64
   5   3   8   12.82    1.77
   6   1   3  168.33    2.17
   6   4  -9    2.88    3.74
   7   2   4  250.04    2.99
  -7   5   3   79.62    2.70
  -7   6  -1   23.49    2.47
  -6   4   5   87.22    3.04
  -6   5   7  134.05    5.81
  -6   6  -4   51.27    2.70
  -4   2  -1 1667.44    5.86
  -4   6  -7   60.11    3.19
  -2   1  -2 1655.49    6.22
  -1   5  -9   19.90    2.55
   0   1   6  778.32    4.69
   1   1  -5  710.15    4.87
   1   2   8  375.79    3.23
   2   1   6  572.69    3.64
   2   3   9   61.38    2.41
   3   0   2    0.05    1.58
   4   2   7  203.39    2.64
   6   2   5  249.77    2.92
   7   2  -5   16.94    2.41
   8   2   1  134.85    2.18
   9   3   1   66.73    2.78
  -7   5   1   18.27    2.09
  -6   5  -3  355.23    3.56
  -5   5  -5   43.66    2.33
  -4   3  -4  573.30    3.52
  -3   1   1  661.33    4.96
  -2   2   7  567.68    5.36
  -1   4  10   32.42    2.71
   1   2  -7   14.21    1.66
   1   4  10   17.26    2.59
   1   5 -10   16.48    3.02
   4   3   8  118.20    2.66
   5   2   6  233.62    2.52
   6   1  -3  437.10    4.37
   7   2   3   34.45    2.19
   8   2  -2    5.52    1.87
   8   2  -1  244.73    3.17
   9   3  -3   56.12    2.69
   9   3   0   25.44    2.57
  -7   5   0  256.64    3.39
  -7   6  -2   48.87    2.25
  -3   1   2 2806.46   12.09
  -3   2   6 1217.56   11.10
  -1   2  -6 1380.72    5.45
   0   3  -8  353.81    3.36
   0   3   9   62.80    2.19
   0   4  10  125.97    2.94
   1   0   2    2.24    1.44
   2   0   2 4517.93   11.06
   5   3   7  170.35    3.01
   6   1   1  546.35    3.75
   6   2  -6   11.34    3.04
  -7   5  -1   28.44    2.09
  -6   4  -2  251.58    2.60
  -4   4  -6  260.82    3.10
  -4   5  -7  103.28    3.02
  -3   1   0  630.54    4.24
  -3   4  -7  182.40    2.64
  -3   5  -8  123.51    3.23
  -2   4  -8  177.96    2.92
  -1   1  -4 2394.50    7.31
   0   5 -10    5.15    2.72
   6   1  -2  571.69    4.39
   6   1   0  640.97    4.10
   6   2   4    1.14    1.95
   6   3   6   40.86    1.81
   7   2   2  458.49    3.41
  -6   5  -4    1.39    1.61
  -5   3  -3  650.22    3.90
  -5   5  -6  109.03    2.76
  -3   3  -6   94.95    1.84
  -2   3  -7  196.80    2.73
  -2   5  -9   92.81    3.14
  -1   1   5  699.77    5.32
   0   2  -7  677.06    4.49
   2   2   7  518.28    3.99
   3   3  -9  189.26    3.73
   3   4 -10   23.77    3.10
   4   2   6   18.48    1.50
   5   2   5   21.17    1.95
   7   3   4   40.50    2.23
  -7   5  -2   88.85    2.75
  -6   3   1  243.79    2.85
  -6   3   2  540.96    4.08
  -6   4  -3   96.24    2.51
  -5   4  -5  281.54    3.24
  -4   2  -3  597.53    3.58
  -4   3  -5  137.72    2.34
  -3   1  -1  570.09    3.75
  -1   2   7   14.83    1.87
  -1   4  -9  173.31    3.23
   1   2   7    9.95    1.76
   2   0   1    0.35    1.02
   4   4 -10   76.98    3.83
   5   1  -4 1053.37    8.19
   7   2  -4  621.03    5.47
   7   2   1   13.32    1.81
  -7   4   1  293.62    3.41
  -7   4   2   49.41    2.18
  -6   3   0  313.68    2.77
  -6   3   3  277.78    3.83
  -5   2   1   31.36    1.69
  -2   2  -6   47.52    1.90
  -2   5  10    6.24    2.72
   0   1   5  595.35    4.34
   0   2   7  672.30    5.02
   1   1   5  614.67    4.02
   1   3  -9  204.69    3.17
   1   4 -10   34.66    2.68
   2   4   9   10.31    2.34
   4   3  -9   63.55    3.41
   5   3   6   57.40    2.24
   6   2   3  275.46    2.94
   6   3   5   48.48    2.05
   7   4   5   67.63    2.78
   8   3   1   38.24    2.12
  -7   5  -3   46.53    2.85
  -6   3  -1  163.16    2.48
  -5   2   2 1335.11    6.40
  -5   3  -4  131.70    2.43
  -1   2  -7   10.63    1.62
   0   5  10    7.65    2.72
   2   0  -1    0.64    1.58
   2   1  -6  810.39    6.20
   5   4   7   91.09    2.85
   7   2  -3   52.69    2.41
   7   3   3  214.90    2.85
   8   3  -4  151.54    3.59
   8   4   3   11.55    1.95
  -7   4  -1  296.07    3.31
  -6   3  -2  361.56    3.13
  -6   4  -4  180.36    2.52
  -6   4   6  211.89    5.52
  -5   4  -6   46.48    2.46
  -4   3  -6  208.92    2.71
  -3   3  -7  419.21    3.70
  -2   4  -9    8.15    2.36
  -1   1  -5  629.98    3.99
   0   3  -9   70.96    2.41
   0   4 -10  126.62    3.41
   1   1  -6  808.36    5.24
   1   3   8   62.34    1.78
   1   4   9  166.03    2.89
   7   2  -2  461.89    3.87
   8   3  -1   76.38    2.49
  -8   5   1   94.88    3.17
  -8   5   2    8.29    2.37
  -7   4  -2    9.04    2.02
  -5   2  -2 1315.41    5.17
  -4   4   8  231.49    5.53
  -2   3  -8  172.97    2.38
   0   3   8  282.25    3.12
   0   4   9   15.71    2.09
   1   2  -8  580.94    4.27
   2   1   4  682.35    4.31
   2   2   6   52.08    2.05
   3   2  -8  539.31    5.43
   3   3   7  295.97    3.07
   3   4   8   36.46    2.40
   5   1   0  540.81    3.89
   6   3   4  224.50    2.81
   7   4   4    5.53    2.22
   8   3  -3   72.65    2.77
   8   4   2   87.87    2.95
  -8   5  -1   75.15    2.92
  -8   5   0   18.46    2.00
  -8   5   3  113.73    4.44
  -7   4   4   12.86    2.27
  -6   3  -3  136.55    2.56
  -6   3   4  317.20    4.14
  -5   3  -5  285.27    3.08
  -1   4 -10   22.72    2.52
   0   2  -8   15.88    1.75
   4   3   6  231.83    2.84
   5   1  -3  617.21    5.44
   5   3   5  270.99    2.86
  -5   2  -3  106.52    2.29
  -4   1   0 1674.96    6.61
  -4   2  -5  617.90    3.67
  -3   2  -6  690.50    3.71
  -2   2  -7  542.32    3.92
  -1   3  -9  131.09    2.40
   2   3   7  207.75    3.01
   2   5   9   66.50    2.42
   4   4   7    1.02    1.61
   5   1  -2  950.16    5.86
   5   2   3   73.92    1.79
   5   4   6   49.09    2.33
   5   5   7    2.46    2.20
   6   2   1  664.69    3.97
   6   4   5   12.34    1.54
   8   4   1   18.73    2.39
  -5   4  -7   78.85    2.48
  -3   4  -9   60.90    2.43
  -2   1  -5  440.30    3.10
   2   4   8  157.53    2.34
   1   2   5   67.73    1.99
   2  -6  -1  875.42    4.42
   2  -6   0  163.68    2.39
   2  -6   1  711.45    4.67
   2  -3  -6  618.74    3.80
   2   0  -7    0.82    1.43
   2   2   7  376.86    4.49
   2   5  -4    2.65    1.61
   2   6  -1  844.60    4.48
   2   6   0  163.18    2.01
   2   6   1  868.72    4.16
   3  -7  -2    1.04    1.53
   3   4   7  197.08    3.85
   3   7  -2    0.35    1.38
   3   7   2    3.74    1.36
   4  -8  -1   20.53    2.21
   4   2   9   52.40    4.78
   4   4   8   51.66    3.31
   4   6   6    7.60    1.44
   4   8  -2   59.76    2.26
   4   8  -1   24.67    1.52
   5  -5  -9    0.73    2.16
   2  -5   4    1.87    1.80
   3  -7  -1  358.79    3.92
   3  -7   1  235.83    3.73
   3   3   8   23.79    2.92
   3   6   5   34.63    1.87
   4  -3  -9   40.35    2.19
   5  -3 -10   14.33    2.36
   0   1   1 4355.15   13.76
   1  -4   2  183.88    2.91
   2   6   3  366.49    3.02
   4  -7   4   67.36    3.71
   4  -6  -6   47.15    2.24
   4   8  -3   26.84    2.11
   5  -7  -6    2.25    1.96
   0   1   2 2976.31   10.25
   1  -4   0 1634.09    6.13
   1  -4   1 1416.64    6.35
   1   4   4   78.15    1.75
   3   2  -8  291.52    4.83
   3   5   7   15.65    2.26
   3   7   4    2.16    1.66
   4  -5  -7  171.33    3.15
   4  -2  -9  125.25    3.37
   5  -4  -9   57.55    2.63
   1   5   0 2001.26    6.13
   1   5   1  208.88    1.94
   1   5   2 1170.06    4.28
   2   6   4  350.07    3.17
   3  -6   4  189.51    4.68
   3  -5  -5  185.30    2.45
   3  -3  -7  534.36    3.99
   3  -3   8   25.42    3.40
   3   4   8   21.70    2.99
   5  -5  -8   81.06    2.87
   5  -2 -10   46.44    2.57
   0   2   1 3978.83   10.44
   1  -1   6  575.52    5.03
   1   5   3  868.46    3.91
   2   0   8  597.87    6.65
   2   1   8  252.27    4.91
   2   4   7    7.07    2.03
   2   5   6   38.33    2.06
   3  -6  -3   62.00    1.58
   3  -4  -6  140.05    2.34
   3   0  -8    4.64    1.70
   3   1  -8  124.49    2.93
   3   2   9    4.56    3.84
   3   7   5   89.78    2.48
   3   8   0  121.87    2.61
   4  -7  -3   39.81    1.78
   4  -1  -9   79.49    2.91
   4   8  -4   61.44    2.74
   5  -8  -1   30.25    2.29
   5  -7  -5   80.61    2.57
   5  -1 -10   38.20    2.91
   0   1   3 1430.62    6.62
   0   2   2   78.20    1.60
   1   3   6  198.32    3.03
   2   6   5  284.69    3.17
   2   7   0  314.69    3.32
   2   7   1   76.12    2.02
   2   7   2  324.60    3.26
   3   3   9   68.97    4.40
   3   7  -4    5.37    1.85
   3   8  -1   83.51    2.40
   3   8   2   36.73    1.61
   4  -3  -8  166.34    2.96
   4   2  -9  150.65    4.26
   5  -8   0   48.53    2.55
   5   2 -10   70.72    3.93
   0   0   3    4.09    1.41
   0   2   0  372.45    3.89
   0   2   3  884.51    4.56
   1  -3   4  247.16    8.72
   1  -2  -3   91.28    1.82
   1   5   4  401.13    2.85
   2  -5  -1 1037.18    4.36
   2   3   8  178.43    4.50
   2   7  -1   68.93    2.05
   2   7   3   76.59    1.98
   3  -6  -2  377.68    3.10
   4  -5  -6   19.08    1.77
   4  -4  -7    5.09    1.65
   4   0  -9    0.29    1.79
   4   1  -9  107.77    3.34
   4   9  -1   52.46    2.40
   5  -7  -4    2.69    1.74
   5  -6  -6   73.39    2.60
   5  -3  -9   88.20    2.76
   5   0 -10   -5.22    2.27
   5   1 -10   31.42    3.02
   1   1   7  251.94    3.47
   3  -2  -7    7.22    1.11
   3   7   6    0.24    1.31
   3   8   4   36.39    2.09
   4  -7  -1   51.67    1.93
   4  -7   2  120.70    3.27
   5  -4  -8   38.18    2.15
   6  -4  -9   -0.31    1.94
   0   1   4  780.57    4.70
   0   3   1 1317.82    5.27
   0   3   2 2004.83    5.96
   0   3   3 1045.99    4.33
   1  -3  -1 2497.23    7.39
   1   5  -2 1021.68    5.35
   1   5   5  211.81    2.39
   1   6   1  294.17    2.71
   1   6   2  485.05    3.25
   2  -5   2   28.86    1.83
   3  -3  -6  191.46    2.61
   3  -2   9    2.85    2.70
   4  -7   0  196.34    3.08
   4  -7   1   29.51    1.95
   4  -2  -8   13.59    1.71
   6  -7  -5    1.82    1.41
   1   3   7  589.39    5.11
   1   6   0  833.06    4.25
   2  -2  -5 1053.96    4.33
   2   1  -6  727.35    5.16
   2   1   9   83.60    4.03
   2   7  -2  371.12    4.16
   3  -6   0  571.13    3.98
   3  -6   1  194.74    2.71
   3  -6   2  234.30    3.19
   3   2  10   74.94    4.99
   5  -6  -5   12.09    1.79
   0   0   4 3237.00   10.44
   1   6   4  476.87    3.52
   2   2   9  139.44    4.81
   2   6   7   74.80    2.90
   3  -1  -7  307.76    3.09
   3   9   1   -0.34    1.69
   4  -6  -3  316.81    3.13
   4  -5  -5  587.20    3.74
   4   8  -5   20.82    2.52
   5  -7  -2   -1.28    1.65
   5  -7   4    0.42    2.09
   6  -7  -4   60.56    2.56
   6  -6  -6   26.34    2.15
   6  -3  -9   16.83    2.28
   6  -1 -10   25.15    2.97
   0   1   5  535.15    3.79
   0   2   5 1554.50    5.75
   0   4   2 1665.86    5.16
   0   4   3  441.78    2.73
   1  -2   6 1297.80    8.88
   1   4   7  328.18    4.05
   2  -2   8    8.58    2.31
   2   0   9    2.31    2.32
   2   7   6   57.11    2.57
   2   8   1   65.61    2.22
   2   8   3   37.24    1.93
   3   9   0   58.33    2.47
   4  -5   7   35.98    6.01
   4  -4  -6  457.94    3.54
   4  -3  -7  132.10    2.10
   4  -1  -8  228.50    3.24
   5  -5  -6  198.37    3.22
   6  -5  -7   83.08    2.73
   0   4   4 1415.27    4.58
   1  -1   7  242.85    3.67
   1   2   8  380.08    4.71
   1   6   5   34.25    1.45
   2   8   4   62.79    2.37
   3   9  -1    1.04    1.56
   5  -7   3  112.88    3.66
   5  -4  -7  210.31    3.02
   6  -7  -3   11.93    2.07
   6  -4  -8   78.31    2.18
   1   3   8   68.98    2.92
   1   7   1  431.66    3.98
   1   7   2    1.68    1.30
   1   7   3  392.63    3.65
   2   6   8    8.54    2.30
   3  -2  -6 1356.80    5.03
   5  -7   0    1.81    1.71
   5  -7   2    2.04    2.01
   5   4  -9   55.39    3.92
   6  -6  -5   95.80    2.61
   6   1 -10   22.21    3.13
   0   0   5    3.31    1.43
   0   2  -1 4034.65   15.13
   0   2   6   73.25    1.99
   0   4   0 2928.67    7.61
   0   4   5  179.60    2.18
   0   5   3 1946.96    5.29
   1   0   8    4.48    1.85
   1   4   8   42.11    2.62
   1   7   4    7.39    1.54
   2  -4  -1   12.05    1.24
   2  -1   9   77.78    3.15
   2   5   9   38.74    3.64
   2   7   7    7.02    1.64
   4  -5  -4    0.70    1.06
   6  -7  -2   78.03    2.68
   6   2 -10    8.40    3.04
   0   1   6  821.18    4.60
   0   5   1 1048.11    4.17
   0   5   4    6.11    1.21
   1  -3   1 2035.20    8.08
   1   6  -2  481.75    4.19
   2   3  10   21.28    4.40
   3  -5   5   75.12    3.21
   3   1  -7  270.59    3.35
   4  -6  -1  535.02    3.66
   4  -4  -5  148.75    2.08
   5  -5  -5  134.39    2.28
   5  -2  -8  285.61    3.42
   5   1  -9   46.67    2.80
   6  -5  -6    7.52    1.78
   7  -5  -7    4.58    1.54
   7  -4  -8   12.38    1.96
   0  -1   3 1431.33   10.16
   0   3  -1 1110.13    6.17
   0   5   5  652.58    3.57
   1   5   8  154.18    3.68
   2   9   2    0.48    1.65
   3   2  -7   11.52    1.99
   4  -6   0   94.24    2.08
   4  -3  -6  572.28    3.51
   4   1  -8  248.10    3.46
   5  -4  -6   50.24    1.90
   5  -3  -7  361.82    3.63
   5   2  -9    6.06    2.65
   5   3  -9   81.66    3.78
   6  -7  -1   20.10    2.01
   7  -6  -5    6.98    1.92
   0   2   7  609.83    4.16
   1  -3   2  635.79    5.43
   1  -3   3 1775.99   11.22
   1   2   9   10.78    2.56
   1   3   9  139.05    3.92
   1   7  -1  415.76    4.23
   1   7   6    0.19    1.18
   3  -1  -6  812.14    4.12
   4  -6   1  489.43    3.90
   4  -6   3  180.74    3.17
   4   2  -8   13.25    2.32
   4   3  -8  166.06    4.11
   6  -7   0   80.64    2.76
   6  -1  -9   90.69    2.76
   7  -2  -9    4.08    2.14
   0   0   6 2800.92    8.69
   0   4   7    5.85    1.58
   0   5   0  155.03    1.83
   0   5   6   45.71    1.75
   0   6   3  316.43    2.53
   0   6   4  470.32    3.21
   1   6   8   33.55    2.59
   1   8   3   55.68    1.83
   2  -4   0 2558.74    7.02
   2   9   0    1.42    1.21
   3  -5   0 1240.67    4.82
   4  -6   2  175.61    2.73
   5  -6  -2  215.53    2.66
   6  -7   1   10.92    1.96
   6  -7   2   63.86    2.79
   7  -5  -6   69.98    2.53
   0  -1   4  662.24    5.82
   0   1   7  971.19    5.24
   0   4  -1   21.92    1.32
   0   6   1  990.72    4.36
   0   6   5  393.98    3.23
   1  -1   8  201.20    3.53
   1   5   9   13.53    2.68
   4  -1  -7  735.46    4.36
   6  -6  -3  144.92    2.62
   7  -6  -4   84.98    2.58
   7  -4  -7  103.50    2.60
   7  -3  -8   18.64    2.04
   0  -1   2 3326.16   24.42
   0   6   6   77.55    2.11
   1   8   0  139.12    3.18
   1   8   6   31.24    2.32
   2  -4   1   32.20    1.45
   3  -5   1  147.97    2.14
   3  -5   4  243.71    3.58
   5  -6  -1  142.82    2.42
   5  -6   5   12.78    2.60
   6  -2  -8    6.85    1.34
   6   0  -9    0.57    1.59
   0   2   8   16.73    1.95
   0   4   8  200.87    3.50
   0   7   3   82.37    2.17
   0   7   4  216.05    2.84
   1  -1  -2 5913.12   12.89
   2   8  -3   42.07    2.31
   3  -5   2  747.20    4.39
   5  -4  -5  556.79    3.41
   5  -2  -7    7.50    1.43
   6  -4  -6  191.58    2.51
   6  -3  -7   62.57    1.71
   0  -1   5  590.00    4.92
   0   0   7    3.29    1.41
   0   5  -1  895.38    4.57
   0   5   8   27.87    2.13
   0   6   0  154.42    1.97
   0   6   7  144.19    2.75
   1   9   3    7.07    1.95
   1   9   4   24.92    2.09
   2  -4   2 1329.97    6.10
   2  -4   4  906.83    6.75
   2  -2  -3  959.99    4.13
   2  -1  10   33.29    3.21
   3  -5   3  352.80    3.73
   5  -6   0  301.26    3.17
   5  -3  -6  148.92    1.96
   5   0  -8    1.35    1.68
   6  -6  -2   39.68    1.60
   7  -6  -3    5.43    1.81
   7  -5  -5   47.72    1.98
  -1   3   4  396.55    2.72
   0   1   8  402.34    3.75
   0   7   1  105.84    2.18
   1   1  10   84.94    3.31
   1   8  -1  103.11    2.78
   1   9   1    1.33    1.50
   2   1  -5  495.91    4.02
   2   9  -2    1.09    1.45
   4  -5  -1  727.44    3.66
   4   0  -7    0.87    1.10
   5  -6   1   81.99    2.10
   5  -6   4  132.34    3.44
   6  -5  -4    2.39    1.15
   6  -1  -8  130.76    2.75
   7  -2  -8  125.63    2.87
  -1   2   4 4808.82    9.12
  -1   3   3 1786.17    5.33
  -1   3   5  989.82    4.28
  -1   4   3 1308.13    4.49
  -1   4   4  100.91    1.42
  -1   4   5 1322.93    4.83
   0   3   9   63.94    2.72
   0   4   9    8.44    2.48
   0   6   8    7.23    2.07
   5  -6   2  176.83    2.81
   5  -6   3    1.12    1.90
   6  -6  -1  209.09    2.80
   6   2  -9  106.01    3.69
   6   4  -9    3.60    3.40
   7  -6  -2   77.86    2.39
   7  -3  -7  151.57    2.73
   7   0  -9   56.21    2.82
   8  -5  -5   75.78    2.52
  -1   2   3   86.67    1.76
  -1   3   6  277.15    2.68
  -1   4   2  270.90    2.32
  -1   4   6  196.46    2.41
  -1   5   4  423.64    2.72
  -1   5   5  272.26    2.51
   0   2   9  249.48    3.79
   0   5   9   71.50    3.17
   2  -3  -1  894.22    4.11
   3  -4  -1 1757.53    5.32
   3  -1  -5  693.15    3.65
   4  -5   6   18.39    2.60
   5  -4  -4   23.70    1.84
   5  -1  -7  208.30    2.62
   6  -4  -5   83.48    1.87
   6  -2  -7  270.95    2.96
   6   3  -9   19.91    2.98
   7  -5  -4   74.19    2.19
   8  -4  -6   63.02    2.44
   8  -2  -8    1.28    2.04
  -1   5   6  466.10    3.44
   0   6  -1  857.15    4.74
   1  -1   9   89.27    2.87
   3   1  -6  733.33    4.65
   4  -1  -6  603.41    3.46
   4   1  -7  661.20    4.72
   6  -6   0   45.56    1.88
   7  -6  -1   45.27    2.17
   7   1  -9   25.50    2.95
   8  -3  -7   22.52    2.09
  -1   3   7  769.74    4.45
  -1   5   2  951.09    3.78
  -1   5   7   38.32    1.87
  -1   6   3   85.97    1.70
  -1   6   5   49.67    1.59
   0   0   8 1061.94    5.76
   0   1   9  169.55    2.99
   0   3  10   57.91    2.93
   0   4  10   82.76    3.44
   4  -2  -5  990.61    4.04
   5  -2  -6  805.65    3.88
   5   2  -8  292.36    4.17
   6  -6   1  179.76    2.85
   6  -6   4   41.45    2.86
   6   0  -8  527.36    4.52
   7  -1  -8   60.27    2.19
   8  -5  -4    0.09    1.77
  -1   1   4 3395.29    8.37
  -1   1   5  687.99    3.76
  -1   2   7   16.76    1.51
  -1   4   1 2154.33    6.14
  -1   6   6  131.68    2.02
   0   9   4    0.55    1.69
   1   8  -2   81.52    2.50
   2   2  -5 1207.55    7.29
   4  -5   1  593.27    3.55
   5  -5  -1   63.62    1.67
   5   5  -8   81.90    4.57
   6  -6   2   83.64    2.37
   6  -6   3   59.77    2.43
   7  -6   0  105.50    2.65
   7  -5  -3   91.11    2.43
   7  -4  -5  186.59    2.31
   7  -2  -7    2.80    1.59
   7   2  -9    5.09    2.91
  -1   1   3 2913.35    8.19
  -1   1   6  861.69    4.26
  -1   3   8   89.60    2.27
  -1   5   1  221.83    2.18
  -1   5   8  236.09    3.51
  -1   6   7   76.52    2.14
  -1   7   4   10.10    1.48
  -1   7   5  187.90    2.64
   0   2  10   35.19    2.62
   0   4  -2 1042.23    6.14
   1   7  -3  416.32    4.84
   4  -5   5  226.35    3.79
   5  -5   7    3.19    2.43
   5   3  -8   36.46    2.51
   5   4  -8   40.74    3.39
   6  -4  -4  546.07    3.33
   7  -6   1   25.25    2.04
   7  -3  -6   61.83    1.70
   8  -4  -5   28.94    1.89
   8  -1  -8   49.32    2.55
  -1   6   8   59.74    2.28
  -1   7   6    0.27    1.08
   0  -1   7  972.90    6.11
   0   3  -2 2027.40   10.49
   0   5  -2   27.04    1.53
   0   7  -1   94.18    2.08
   0   9   2    0.53    1.18
   1   1  -3 2743.56   12.02
   2  -3   0 1505.11    5.61
   4  -5   2   15.82    1.37
   4   2  -7  416.88    4.34
   5   0  -7  185.08    2.31
   6  -1  -7  351.32    3.30
   7  -6   2   63.48    2.44
   7   0  -8    0.72    2.06
   8  -5  -3  112.54    2.64
   8  -3  -6   90.79    2.37
  -1   1   7  340.65    2.96
  -1   2   8  443.47    3.55
  -1   4   9  174.32    3.39
  -1   5   9   14.65    2.13
  -1   6   1  303.30    2.48
  -1   7   2    2.29    1.28
   0   0   9    1.11    1.62
   0   1  10   71.55    2.55
   0   3  11   12.72    2.73
   2  -1  -3 1097.85    4.73
   4  -5   3  797.84    4.77
   4  -5   4    0.54    1.52
   4   0  -6 1604.18    5.62
   6  -3  -5  113.55    1.66
   7  -4  -4   13.65    1.66
  -1   6   9    9.98    2.18
  -1   7   8    1.62    1.89
  -1   8   4   97.60    2.26
  -1   8   6   48.15    2.13
   2  -2  10   14.94    3.05
   3  -4   1 1284.06    5.05
   3   0  -5 1857.42    5.86
   4  -4  -1   14.13    1.27
   5  -1  -6  527.86    3.28
   6  -5  -1  327.06    2.79
  -1   1   2 5840.25   12.43
  -1   2   9   17.98    1.81
  -1   7   1  487.77    3.50
   0   6  -2  238.01    2.93
   1  -1  10  102.91    3.56
   1   9  -2   92.95    3.06
   5  -5   1   76.75    1.83
   5  -4  -2  138.80    1.87
   5  -2  -5   48.80    1.49
   6   2  -8   10.08    2.22
   7  -3  -5  264.74    2.61
   7  -1  -7   83.94    2.17
   8  -5  -2   10.46    1.41
   8  -4  -4  157.50    2.61
   8   0  -8  151.07    3.11
  -2   5   5  669.71    3.41
  -1   1   8  307.95    2.98
  -1   5  10   17.86    2.79
  -1   8   2  109.66    2.39
   0   9   0    3.73    1.57
   1  -1  -1  742.11    5.01
   2   3  -5  225.35    4.29
   4   4  -7    6.45    2.41
   4   5  -7  153.51    5.17
   5  -5   6   70.25    2.82
   6   0  -7    3.33    1.60
   7  -2  -6  298.75    2.68
   7   1  -8   61.27    2.63
  -2   4   4 1454.95    4.61
  -2   4   6  616.62    3.37
  -2   4   7   12.49    1.54
  -2   5   6   37.62    1.40
  -2   6   5  408.74    3.03
  -2   6   6   99.04    2.02
  -1   0   5 2533.11    7.61
  -1   0   6    5.20    1.57
  -1   3   0  266.69    2.74
  -1   3  10   22.35    1.96
  -1   6   0  698.76    3.89
  -1   9   4   38.65    2.18
   1   8  -3   99.04    2.83
   3  -4   2  135.40    2.22
   3   3  -6  180.46    3.36
   5  -5   2  282.96    2.83
   6   3  -8  110.19    3.93
   7  -4  -3  267.09    2.76
   8  -5  -1   94.33    2.48
   8  -3  -5   39.71    1.47
   8  -2  -6    2.13    1.61
  -2   3   5  277.12    2.12
  -2   3   6  626.34    3.17
  -2   3   7  280.72    2.72
  -2   5   3 1697.25    5.02
  -2   5   8   28.87    1.93
  -2   6   4  493.87    3.23
  -2   6   7  194.11    2.80
  -1   0   4    5.00    1.14
  -1   2  10  200.30    3.54
  -1   8   1  128.67    2.35
  -1   9   3   15.34    1.85
   0   1  11   22.93    2.44
   2  -3   1  844.61    4.55
   5  -5   3  157.19    2.78
   5  -5   5   30.92    2.00
   6  -5   1  256.29    2.81
   6  -1  -6  281.14    2.60
   7  -5   0  256.82    2.93
   8  -4  -3   23.81    1.96
   8   1  -8   49.89    2.83
   9  -2  -6   73.48    2.32
  -2   4   3  202.14    1.90
  -2   4   8  217.69    2.64
  -2   6   3  483.66    3.08
  -2   6   8   13.25    1.97
  -2   7   4  229.38    2.66
  -2   7   5   11.49    1.16
  -1   1   9   89.41    2.28
  -1   9   2   90.90    2.61
   5  -5   4  120.04    2.42
   5   0  -6    1.16    1.38
   6  -4  -2  395.69    2.57
   6  -2  -5  439.17    2.63
   6   4  -8   80.72    4.00
   6   5  -8    7.18    4.04
   7   0  -7  125.66    2.48
   8  -5   0   15.32    1.93
  -2   2   5 1379.45    4.72
  -2   2   6   68.41    1.61
  -2   3   3  877.20    3.85
  -2   3   8  344.17    3.18
  -2   4   9   13.54    1.90
  -2   5   9   99.84    2.87
  -2   6   9   65.39    2.70
  -2   7   8   56.04    2.38
  -1   3  11   46.06    3.06
   2   1  -4  628.91    4.39
   2   9  -4    0.20    2.27
   3   4  -6   90.10    3.37
   5   2  -7    5.14    1.65
   6  -5   2    4.68    1.56
   6   1  -7  391.27    3.85
   7  -5   1   31.18    1.90
   7  -4  -2   55.21    1.75
   7  -3  -4   74.14    1.46
  -2   2   7  745.62    3.91
  -2   4   2 1294.67    4.53
  -2   5   2   51.21    1.43
  -2   7   3   36.21    1.37
  -2   8   4   93.79    2.29
  -2   8   5   37.54    1.55
  -2   8   6   30.31    1.59
  -1   0   8    4.74    1.76
   3  -4   4   17.28    2.39
   6  -5   3  350.80    3.46
   6  -5   4   -0.12    1.70
   6  -5   5   84.48    2.71
   7  -5   2   78.25    2.24
   7  -2  -5   19.72    1.19
   7   3  -8   19.02    3.22
   8  -5   1   58.48    2.02
   8  -3  -4  120.04    1.87
   8   0  -7    0.90    1.40
   8   2  -8    3.20    2.62
   9  -3  -4   16.54    1.80
  -2   2   4   34.35    1.14
  -2   2   8   22.71    1.60
  -2   3   9   58.52    1.89
  -2   4  10   86.36    2.94
  -2   5  10    2.42    2.35
  -1   0   3 3203.40    9.81
  -1   1  10  157.49    2.89
  -1   5  -1  155.23    2.21
  -1   8   0  183.75    2.87
  -1   9   1    1.99    1.61
   1  -1  11   30.08    2.98
   3  -4   5  517.34    4.64
   3  -2  -2 3159.54    7.16
   4  -4   1   53.51    1.45
   4   0  -5    0.62    1.26
   6  -3  -3  307.78    2.55
   7  -5   3   41.84    2.30
   7  -5   4   26.39    2.29
   8  -2  -5  153.87    2.33
   8  -1  -6   81.36    2.11
   9  -2  -5    2.03    1.84
   9  -1  -6   52.70    2.20
  -2   8   3   32.73    1.60
   0   0  11    0.37    1.93
   1   9  -3   15.74    2.23
   2  -3   2 2095.42    7.64
   2  -1  -2 3145.85    8.25
   2   7  -5    9.06    3.36
   4  -1  -4  478.38    2.93
   5  -4   0  247.15    2.11
   5   3  -7  365.54    4.83
   6   0  -6  732.34    4.07
   7  -4  -1  302.03    2.65
   7   4  -8   10.46    3.78
  -2   2   3 1115.76    4.43
  -2   2   9  377.88    3.30
  -2   3   2 2565.85    6.53
  -2   3  10   93.51    2.64
  -2   9   4    1.84    1.74
  -1   0   9  313.48    3.43
  -1   2   0 8429.30   15.90
  -1   4  -1 1864.11    6.90
   3   0  -4    4.80    1.35
   4  -3  -1  618.10    3.20
   6  -2  -4    6.63    1.45
   6  -1  -5  264.16    2.32
   8  -3  -3   77.66    2.18
   8   1  -7  123.31    3.11
  -3   5   6  421.21    2.98
  -3   5   7   48.35    1.93
  -3   6   6  179.17    2.38
  -2   1   6  831.65    3.86
  -2   1   7  971.27    4.21
  -2   6   1  826.41    3.93
  -2   9   3  130.18    2.86
  -1   7  -1  510.11    3.86
  -1   9   0   87.51    2.43
   4  -4   2  779.32    3.95
   6  -4   0  619.43    3.32
   7   0  -6   -1.14    1.51
  -3   4   6  129.55    1.93
  -3   4   7  411.25    3.08
  -3   5   5  183.69    1.87
  -3   5   8  240.33    3.17
  -3   6   5   28.70    1.25
  -3   6   8   62.57    2.52
  -3   7   5  174.46    2.40
  -3   7   6    1.62    1.55
  -3   7   7  160.59    2.88
  -2   1   5  474.29    2.87
  -2   1   8  412.69    3.17
  -2   2  10   31.99    2.05
  -2   3  11   18.31    2.24
  -2   4   1   12.02    1.23
  -2   7   1   97.79    1.92
  -1   1  11   51.51    2.46
   0   9  -2    0.57    1.79
   4  -4   7    2.88    2.31
   5  -4   1  790.13    3.75
   5   4  -7  170.07    4.36
   6  -3  -2  600.40    3.13
   7  -2  -4  607.70    3.09
   7  -1  -5  212.61    2.27
   8  -4   0  178.12    2.67
   8  -2  -4    3.97    1.55
   8   0  -6  221.79    2.89
   9  -2  -4  168.80    2.61
   9   0  -6    0.83    1.82
  -3   4   5  864.14    3.49
  -3   4   8   72.80    1.77
  -3   5   4  330.11    2.57
  -3   5   9   13.53    2.16
  -3   6   4  464.14    3.18
  -3   6   9   15.13    2.35
  -3   7   8    3.91    1.45
  -3   8   6   39.34    1.98
  -2   9   2   -0.34    1.65
  -1   8  -1  128.05    2.47
   0   6  -3  370.28    4.30
   4  -4   3  182.66    2.49
   5   0  -5 1261.42    4.59
   8  -1  -5   93.39    1.91
   9  -3  -2   24.97    1.88
   9  -1  -5   46.06    1.92
  -3   3   8   77.64    1.87
  -3   4   4   70.22    1.59
  -3   4   9  198.81    2.95
  -3   5  10   28.26    2.36
  -3   7   4    7.49    1.09
  -3   8   5   61.62    2.15
  -2   1   9  205.40    2.64
  -1   0  10   45.80    2.12
   2  -2   0  269.68    2.67
   3   2  -5   59.88    1.87
   5  -4   2   43.77    1.57
   5  -3  -1 1177.78    4.17
   5  -1  -4 1110.09    4.05
   5   6  -7   22.46    3.91
   6  -4   1   41.02    1.55
   6   3  -7   58.58    2.82
   7  -3  -2   89.57    1.48
   8  -4   1   16.49    1.82
   8  -3  -2  141.86    1.92
   8   2  -7   91.01    3.18
  -3   3   5  648.85    3.03
  -3   4  10   24.48    2.14
  -3   5   3  523.29    3.15
  -3   6   3   35.73    1.20
  -3   7   3  353.61    2.96
  -3   8   4   80.31    2.14
  -2   2   2  114.97    1.84
  -2   2  11   49.32    2.49
  -2   3   1 1039.26    4.44
  -1   3  -1 1666.52    7.10
   4  -4   4  472.17    3.65
   4  -4   5   56.56    2.21
   4  -4   6  227.35    3.45
   4  -3   0  934.79    3.94
   4   3  -6  475.08    4.54
   7  -4   1  202.33    2.28
  -3   3   9  163.31    2.41
  -3   4   3 1020.93    3.90
  -2   6   0  194.48    2.30
  -2   7   0  250.01    2.64
  -1  -1   6  813.35    5.04
  -1   9  -1    0.81    1.42
   5  -4   3  268.23    2.68
   5  -4   7   76.13    3.29
   6  -3  -1  257.26    2.22
   6  -1  -4  243.17    2.23
   6   0  -5    1.53    1.31
   6   4  -7    3.94    2.82
   7  -4   2   11.40    1.71
   7   1  -6  216.59    2.80
   8  -4   2   96.72    2.50
   8   3  -7   27.17    3.22
   9  -3  -1   88.38    2.29
   9  -2  -3    3.54    1.34
   9   1  -6   51.28    2.43
  -3   2   6 1302.40    4.41
  -3   2   7   12.75    1.31
  -3   3   4  308.14    2.14
  -3   3  10   40.33    2.12
  -3   8   3   61.42    1.68
  -2   1  10   98.65    2.39
   4   0  -4 1970.64    5.64
   8  -4   3   13.95    2.21
   8  -3  -1   76.00    1.78
   9   0  -5  145.99    2.52
  -3   2   8  466.50    3.02
  -3   5   2  977.84    4.02
  -3   7   2   -1.21    1.42
  -2   1   3 1057.74    4.46
  -1  -1   8  326.96    3.48
  -1   0   2    1.61    1.12
  -1   0  11  133.13    3.10
   2   2  -4   30.58    2.09
   5  -4   4   10.80    1.70
   5  -4   5  284.09    3.37
   5  -4   6   47.62    2.33
   6  -4   3   83.30    2.23
   6   5  -7   90.07    4.50
   7  -1  -4  346.67    2.36
   7   0  -5  405.55    2.66
   7   4  -7  106.28    4.39
   8  -1  -4   69.69    1.49
   8   0  -5   -0.29    1.07
  -4   5   8   27.06    2.02
  -4   6   6   75.50    1.97
  -4   6   7  106.64    2.00
  -4   6   8   10.49    2.08
  -4   7   6  125.02    2.62
  -4   7   7   21.94    1.95
  -3   2   5   62.14    1.23
  -3   2   9   13.04    1.63
  -3   3  11   59.28    2.52
  -3   9   3    6.10    1.42
  -2   0   7    0.74    1.20
  -1   5  -2  956.66    5.57
   4   4  -6  413.90    5.53
   5  -3   0  163.55    1.72
   6  -4   5   13.42    1.84
   6  -4   6   74.03    2.58
   6   2  -6   14.56    1.71
   6   6  -7   36.20    4.76
   7  -4   5   58.92    2.54
   9  -2  -2  127.91    2.27
  -4   4   7    6.48    1.39
  -4   5   5  561.67    3.14
  -4   5   9   84.33    2.60
  -4   6   5  267.71    2.67
  -4   7   5    8.18    1.61
  -3   2  10  268.56    3.17
  -3   4   2  242.98    2.23
  -2   0   8 1214.40    5.13
  -2   1  11   41.92    2.21
  -2   9   0    2.52    1.50
   2  -3   4  801.26    5.74
   3  -3   2  432.13    3.21
   3  -1  -2 2871.62    7.03
   4  -3   1  420.76    2.86
   5   1  -5  373.36    2.61
   7  -3   0   98.01    1.87
   7   2  -6  335.77    3.68
   7   5  -7    6.99    3.97
   8  -2  -2    6.50    1.49
   8   2  -6    2.82    2.03
   9  -3   1   64.73    2.43
  -4   4   6  486.81    3.05
  -4   4   8  208.08    2.45
  -3   2   4 3657.98    7.28
  -3   9   2   87.30    2.61
  -2   0   5    2.38    1.19
  -2   0   9    1.88    1.41
  -1  -1   9   88.17    2.17
  -1   8  -2   79.85    2.35
   0  -2   8   16.97    2.30
   0   2  -2   97.91    4.41
   2  -1  -1 4350.05   10.08
   4  -2  -1 1890.44    5.32
   5   0  -4   -0.44    1.26
   9  -1  -3   55.63    1.88
   9   1  -5   56.41    2.11
  -4   4   5  151.51    1.95
  -4   5   4    2.47    1.40
  -4   6   4  252.47    2.31
  -4   7   4  137.64    1.96
  -4   8   4   65.07    2.13
  -3   1   7  311.88    2.53
  -3   6   1  216.57    2.33
  -3   7   1  479.49    3.49
  -2   2   1 3360.52    8.17
   3   3  -5  637.41    5.00
   4   2  -5  883.70    4.57
   6   1  -5  243.64    2.40
   7   1  -5  197.40    2.39
   8  -1  -3  153.14    2.29
   8   1  -5   89.54    2.08
   9  -2  -1   -0.04    1.56
   9   0  -4    0.39    1.16
  -4   3   6  568.65    3.07
  -4   3   9   65.22    1.98
  -3   1   6  824.27    3.70
  -3   1   8  270.55    2.55
  -3   2  11    6.34    1.98
  -3   5   1  130.66    1.88
  -3   8   1  115.44    2.38
  -2   6  -1  664.05    4.12
  -2   7  -1   74.87    1.97
  -1  -1   4 3439.24   11.37
   3  -2   0 4622.39    9.16
   4   5  -6   19.27    2.89
   6   0  -4  836.46    3.53
   7  -3   1  306.09    2.70
   7   0  -4    0.88    1.33
   8  -2  -1  267.73    2.54
   8   0  -4  222.16    2.07
   8   3  -6  103.45    3.19
  -4   4   4 1051.19    3.97
  -4   6   3  323.45    2.72
  -4   7   3   43.95    1.80
  -3   1   9   98.26    2.02
  -3   3   2  516.59    3.00
  -2   0  10  275.06    3.20
  -2   1   2 3119.39    7.99
  -2   3   0 1386.38    5.38
  -2   5  -1  683.26    4.04
  -2   8  -1   70.13    2.06
  -1  -1  10  137.43    3.21
   2  -2   1 2964.67    8.73
   3  -3   9   73.27    3.90
   7  -2  -1   12.18    1.46
   7   3  -6   57.70    2.51
   8  -3   2   73.80    2.20
   9  -1  -2   70.34    2.00
  -4   3  10   65.03    1.97
  -4   5   3 1073.10    4.25
  -4   8   3   27.00    1.54
  -3   1   5  684.92    3.38
  -3   1  10  170.79    2.64
  -3   2   3   80.83    1.38
  -3   4   1 1475.63    4.96
  -3   9   1    1.17    1.72
   2   0  -2 6283.69   12.44
   4   6  -6   56.34    4.52
   6  -2  -1  685.85    3.01
   7  -3   2   81.47    1.94
   8  -3   3   30.69    2.29
   9  -2   0  106.70    2.03
   9   2  -5    2.60    1.79
  -5   5   8  142.09    2.51
  -5   6   7   40.80    2.07
  -5   6   8   43.63    1.81
  -5   7   6    0.84    1.64
  -2   9  -1   81.37    2.64
   0  -2   9  276.57    4.97
   2  -3   6  335.07    4.75
   5  -3   2  215.46    2.21
   6  -3   2  391.51    2.91
   8  -2   0   11.78    1.55
   8  -1  -2  174.12    2.14
   8   2  -5  140.62    2.65
   9   1  -4   81.02    2.05
  -5   5   6  250.04    2.61
  -5   5   7   20.39    1.39
  -5   6   6   93.47    1.85
  -4   3   4  818.15    3.49
  -4   4   3  237.71    2.23
  -4   6   2  146.82    2.09
  -4   7   2  291.90    2.97
  -3   1  11   58.31    2.19
  -3   6   0  467.84    3.39
  -3   7   0    7.13    1.49
  -2   0  11   -0.51    1.82
   4  -2   0  104.42    1.69
   6   2  -5  465.98    3.49
   7  -3   3  208.93    2.72
   7  -1  -2  348.91    2.42
   7   2  -5   19.45    1.73
   9  -2   1    3.11    1.37
  -5   4   7  286.10    2.59
  -5   6   5   13.25    1.30
  -5   7   5   87.52    1.99
  -4   2   6   32.31    1.12
  -4   2  10   45.95    2.16
  -4   5   2   46.59    1.50
  -3   1   4 2273.02    6.09
  -3   8   0  142.85    2.65
  -2   4  -1   33.50    1.52
  -1   1   0  607.59    5.06
   3  -3   4  240.68    3.13
   4  -3   3  396.70    3.17
   4  -3   9   12.34    2.46
   5   1  -4 1072.56    4.24
   6  -3   3  132.71    2.37
   7  -3   4   42.01    1.99
   7  -2   0  649.78    3.32
   8   1  -4   57.92    1.43
   9  -2   2   69.34    2.55
   9  -1  -1   36.45    1.46
   9   3  -5   47.34    2.62
  -5   7   4    3.80    1.52
  -4   2   5  927.24    3.75
  -3   5   0 1181.16    4.71
  -3   9   0   67.50    2.36
  -1  -1  11   67.25    2.94
   3  -1  -1  744.89    3.77
   3   4  -5  941.38    7.26
   4   3  -5  182.67    2.83
   5  -3   3  568.33    3.52
   5  -2   0 1804.37    5.11
   5   0  -3 1299.71    4.18
   6  -2   0   40.84    1.37
   6   0  -3   81.15    2.06
   6   1  -4  233.79    2.27
   6   5  -6   12.21    3.15
   7  -3   5   89.64    2.48
   7   0  -3  487.74    2.60
   7   1  -4  309.50    2.39
   7   5  -6   77.37    4.32
  -5   8   4   34.06    2.25
  -4   2  11   38.36    2.49
  -3   0   7  250.25    2.43
  -3   0   8    2.51    1.38
  -3   2   2 2972.66    6.93
  -3   3   1 2039.10    5.85
   3  -3   8   31.25    2.63
   3   2  -4 2920.98    8.59
   5   6  -6   71.19    4.45
   6  -3   4  216.06    2.60
   6  -3   7   13.60    2.52
   8   3  -5   35.36    2.06
   9  -1   0   49.17    1.97
   9   0  -2    0.43    1.06
   9   1  -3   56.79    1.93
   9   2  -4  115.10    2.19
  -5   5   4  200.92    2.28
  -4   4   2  911.39    3.89
  -4   7   1   53.77    1.91
  -4   8   1   28.27    1.98
  -3   0   9  290.43    2.81
  -2  -1   7  883.28    4.86
  -2  -1   8  409.93    3.46
  -2   0   3    6.97    1.22
   3  -3   5  507.78    4.16
   3  -2   1   52.06    1.45
   4  -3   4  487.18    3.46
   5  -3   4  113.46    2.03
   5  -3   8    8.52    2.15
   5   7  -6    0.04    3.82
   6  -3   5   46.66    1.98
   6  -3   6   37.02    2.34
   6   6  -6   26.50    4.10
   7  -2   1   16.17    1.42
   7   3  -5  228.13    3.15
   8  -2   2    0.43    1.59
  -5   6   3   41.73    1.64
  -5   7   3  205.98    2.74
  -4   1   8  349.86    2.74
  -4   1   9  205.22    2.40
  -4   2   4   30.00    1.39
  -3   0   6    3.25    1.21
  -3   4   0  747.83    3.82
  -2  -1   9  243.10    3.13
  -2   8  -2   73.22    2.43
  -1   6  -3   27.26    2.10
  -1   8  -3   88.59    3.19
   2   3  -4 1124.04    7.52
   3  -3   7  353.14    4.90
   4  -3   8   88.91    2.85
   5  -3   7  138.30    3.46
   6   3  -5   95.19    2.29
   7  -1  -1  131.83    1.57
   8   1  -3  137.97    2.17
   8   2  -4    2.06    1.42
  -6   5   8   12.97    1.83
  -6   6   7   47.05    1.88
  -5   4   4   39.08    1.54
  -4   1   6  572.48    3.13
  -4   1  10  106.85    2.25
  -4   5   1  625.98    3.41
  -4   9   1   43.07    2.60
  -2  -1   6  759.69    4.43
  -2   2   0  252.63    2.57
   0  -2  10   41.35    3.52
   1  -2   3  177.53    3.58
   3  -3   6  101.75    2.54
   4  -3   5  114.00    2.13
   4  -3   7   80.65    2.71
   4  -2   1 1651.67    5.27
   5  -3   6   44.93    1.96
   5  -2   1   35.55    1.36
   8  -2   3   72.95    2.12
   8  -1   0  170.82    2.23
   8   4  -5   22.35    2.52
   9  -1   1   30.11    1.48
   9   3  -4   16.72    2.18
  -6   5   7  141.15    2.60
  -6   6   6   28.13    1.64
  -5   3   5  550.81    3.06
  -5   5   3  188.18    2.07
  -3   0   5 2113.66    6.12
  -3   6  -1  128.12    2.15
  -3   7  -1  331.18    3.48
  -2   1   1 4269.72    9.81
  -2   9  -2    1.65    1.83
  -1   9  -3   10.71    2.29
   2  -1   0 3561.24    9.52
   2   7  -5    9.62    5.33
   4  -3   6  165.27    2.64
   7   0  -2   -0.75    0.97
   7   1  -3  249.59    2.37
   7   4  -5  199.88    3.62
   8  -2   4    2.72    1.99
   9   1  -2   64.43    1.91
   9   2  -3    2.02    1.77
  -6   4   9    6.59    1.92
  -6   5   6   12.06    1.68
  -6   6   5  120.19    2.45
  -6   7   5    1.67    1.40
  -5   7   2    0.91    1.61
  -5   8   2   45.20    2.11
  -4   1  11   45.32    2.19
  -3   0  11  152.04    2.95
  -3   9  -1    0.83    1.69
  -1  -1   3 3047.13   11.95
   5   2  -4 1758.96    5.70
   7  -1   0  208.06    2.15
   8   5  -5   76.20    4.01
   9  -1   2   41.82    1.73
  -6   4   7    6.87    1.23
  -5   2   6  799.96    3.64
  -5   3   4  182.74    1.95
  -5   4   3  654.06    3.40
  -5   6   2  211.76    2.47
  -4   1   5  407.14    2.46
  -4   4   1   15.60    1.30
  -4   7   0  190.07    2.66
  -4   8   0   97.38    2.36
  -2   3  -1  813.04    4.50
   0   8  -4   70.32    4.45
   3   5  -5  206.88    4.77
   4   1  -3  846.82    4.06
   5   4  -5  518.70    4.85
   6  -2   2    7.31    0.95
   6   1  -3  377.99    2.50
   7  -2   3   25.79    1.43
   8  -1   1  122.80    1.77
   8   0  -1   -0.55    1.01
   9   0   0    0.96    1.19
  -6   5   5  270.28    2.45
  -6   6   4  144.88    2.40
  -5   5   2  475.89    3.06
  -4   6   0  103.32    2.09
  -3   2   1   55.54    1.49
  -3   5  -1  136.40    2.18
  -1   0   1  607.87    5.24
   3  -2   2 2340.07    7.05
   5  -2   2 1280.59    4.55
   6  -1   0  596.36    3.04
   7  -2   4  258.40    2.93
   8   2  -3  176.93    2.23
  -6   3   8  130.45    2.22
  -5   2   5   43.85    1.46
  -3   0   4    4.28    1.22
  -3   3   0  315.32    2.63
  -2  -1  11   38.69    2.31
   4  -2   2   34.33    1.39
   6  -2   3  271.35    2.56
   7  -2   5    2.02    1.83
   7  -2   6   88.79    2.68
   7   0  -1  205.42    1.98
   8  -1   2   67.97    1.90
   9   0   1   87.42    2.24
   9   2  -2  107.12    2.34
   9   3  -3   49.05    1.97
  -6   5   4    0.89    1.17
  -5   7   1  211.31    2.82
  -5   8   1   40.44    2.14
  -4   0   8 1090.01    4.55
  -4   0   9    2.87    1.44
  -4   1   4  473.74    2.86
  -4   5   0  113.02    1.93
  -3   1   2 2860.49    7.04
   0   6  -4  354.49    8.87
   3  -1   0  645.14    3.51
   7  -1   1  120.06    1.57
   7   2  -3   51.72    1.59
   7   6  -5    3.98    3.37
   8   0   0  551.42    3.30
  -6   6   3  155.83    2.43
  -5   1   7  192.83    2.12
  -5   1   8  165.94    2.20
  -5   1  10  118.47    2.42
  -5   3   3  866.31    3.63
  -5   4   2  130.42    1.87
  -5   6   1  123.48    2.24
  -4   0   7    1.48    1.26
  -4   0  10  268.34    3.02
  -2   0   2 6500.77   12.53
  -1  -2   7   12.23    1.87
  -1  -2   8  504.00    5.49
   0   9  -4    0.46    3.20
   5   5  -5  109.52    3.59
   6  -2   4    2.20    1.58
   6   3  -4  309.37    2.92
   8  -1   3   47.26    1.65
   9   0   2   -0.63    1.68
   9   1   0   46.74    1.91
  -7   5   7    8.53    1.51
  -6   4   4  512.19    3.19
  -5   1  11   35.55    2.11
  -5   2   4 1839.76    5.12
  -4   0   6 1390.21    5.16
  -4   2   2   55.97    1.49
  -4   3   1  588.46    3.22
  -3  -1   8  253.27    2.71
   2   0  -1    0.95    1.12
   5  -2   3   80.26    1.53
   5   3  -4  182.85    2.47
   6  -2   5  238.97    2.79
   6  -1   1  515.83    2.93
   7   4  -4   16.26    2.05
   8  -1   4   34.71    2.07
   8   5  -4    0.03    2.96
  -7   5   6  101.17    2.44
  -7   6   5    4.12    1.98
  -6   2   9  137.35    2.16
  -6   2  10   17.26    2.05
  -6   3   5  124.06    1.92
  -5   1   6  529.00    3.02
  -5   5   1   54.86    1.70
  -4   0  11    0.76    1.86
  -3  -1   7  320.58    2.96
  -3   8  -2   57.12    2.52
   2  -2   3  821.12    5.22
   4  -2   3  543.60    3.35
   6  -2   7   53.63    2.60
   6   7  -5    2.36    4.07
   7   0   0    1.89    1.24
   8   0   1    1.63    1.08
   9   2  -1    2.35    1.26
   9   3  -2   17.40    1.56
  -7   4   7   85.80    1.93
  -6   7   2  122.31    2.61
  -4   1   3  939.23    3.89
  -4   4   0 1257.35    4.78
  -4   7  -1   30.24    1.93
  -3  -1  10  164.35    2.74
  -3   9  -2   55.32    2.95
  -2  -1   4  631.63    4.32
   3  -2   3  206.02    2.50
   4   6  -5  229.72    5.84
   5  -2   4  829.61    4.13
   5   6  -5   11.30    3.16
   9   1   1   26.36    1.81
  -7   6   4   96.74    2.37
  -6   2   6   13.77    1.46
  -6   3   4  359.47    2.55
  -6   6   2   37.59    1.50
  -5   3   2  264.15    2.25
  -5   8   0   51.96    2.33
  -4   0   5    2.51    1.18
  -4   6  -1  370.58    3.38
  -3  -1   6  785.23    4.27
  -3   0   3 2775.38    7.19
  -3   6  -2  283.75    3.28
  -2   7  -3   48.48    2.83
  -2   8  -3   30.26    2.61
   3   0  -1  513.01    3.24
   3   7  -5  143.17    6.82
   5   1  -2  939.19    3.67
   5   2  -3  103.61    1.52
   5   7  -5   83.28    5.40
   6   4  -4  435.50    3.88
   7   1  -1  154.64    1.83
   7   3  -3  260.89    2.79
   7   5  -4   67.40    3.11
   8   0   2  179.32    2.38
   8   1   0  155.12    2.13
  -7   3   8   17.57    1.47
  -5   2   3  123.02    1.80
  -5   4   1  765.14    3.69
  -5   7   0    1.03    1.39
  -2   9  -3   83.34    3.95
   4   2  -3  890.80    4.12
   4   7  -5    5.88    4.23
   4   8  -5   18.31    5.53
   5  -2   7    3.16    2.06
   5  -2   8   49.83    2.45
   6  -1   2  197.97    1.88
   7  -1   4  177.46    2.55
   7   0   1  354.85    2.66
   8   3  -2  133.44    2.38
   9   1   2   38.95    2.03
   9   3  -1   87.84    2.59
  -7   3   7  152.63    2.13
  -7   5   4   79.11    2.17
  -6   2   5  494.74    2.93
  -5   6   0  277.25    2.97
  -3   2   0 4043.10    8.55
  -2   6  -3  295.33    4.37
  -1  -2  10  292.69    5.77
   2   4  -4 1376.46    9.38
   4  -1   1 1245.71    4.61
   5  -2   6  251.85    2.97
   7  -1   5   50.99    2.07
   7  -1   6   28.62    2.15
   7   6  -4   66.84    4.23
   8   0   3   -1.21    1.57
   8   5  -3  120.51    3.98
  -7   6   3   18.45    2.02
  -6   1   9   93.52    1.95
  -6   7   1   21.85    2.10
  -5   0   8    1.68    1.44
  -5   0   9  137.92    2.00
  -5   0  10   20.67    1.91
  -4   5  -1  559.16    3.73
  -3   5  -2  658.26    4.65
   2  -1   1 2756.50    8.72
   3  -2  10   78.21    4.14
   4  -2   9   56.60    2.65
   6  -1   3  232.91    2.48
   6   3  -3  221.04    2.49
   7   4  -3  230.15    3.22
   8   0   4   82.47    2.35
   8   1   1  130.95    2.16
   9   2   1    2.58    1.81
  -7   2   9    3.05    1.87
  -7   4   4   14.36    1.68
  -6   1   7  402.49    3.03
  -6   3   3  174.23    1.91
  -6   4   2  429.72    3.00
  -6   6   1  200.76    2.82
  -5   0   7  227.77    2.36
  -5   0  11   87.95    2.52
  -5   5   0  627.30    3.88
  -4   0   4 2026.64    5.70
  -4   2   1 1460.56    4.59
  -4   3   0  907.71    3.97
  -3  -1   5  670.81    3.89
  -3   1   1  631.77    3.36
  -3   3  -1 1389.58    5.36
  -2   1   0 3616.44    9.45
  -2   2  -1 3088.30    8.89
   3  -2   4 1991.60    6.94
   4  -2   5  610.60    3.85
   4   4  -4  883.54    5.46
   5  -1   2  894.33    3.81
   7   0   2    0.11    1.44
   8   0   5   -0.35    1.77
   9   3   0   19.12    2.16
  -7   2   7    4.82    1.45
  -7   2   8  124.52    2.12
  -7   3   5  244.76    2.59
  -7   5   3   87.79    2.27
  -6   2   4    8.63    1.48
  -5   0   6    3.02    1.20
  -4  -1   8  327.81    2.93
  -4  -1   9  180.39    2.58
  -4   1   2 1448.99    4.77
   1  -2   4 3350.72   14.20
   4  -2   8    3.92    1.84
   6  -1   4  146.23    2.19
   6   0   1   -0.17    1.27
   7   2  -1   11.07    1.40
   7   3  -2   90.88    1.88
   8   1   2   63.39    1.94
   8   2   0    9.29    1.45
   8   3  -1   65.95    2.04
   8   4  -2   80.16    2.29
   9   2   2   61.87    2.52
  -8   5   5  101.29    2.50
  -6   5   1  293.48    2.84
  -5   2   2 1040.68    3.79
  -4  -1   7  674.63    4.00
  -4  -1  10   92.25    2.45
  -2  -2   8   22.62    2.12
   4  -2   7  193.73    3.17
   5   5  -4  175.27    3.34
   6  -1   5  144.76    2.44
   7   0   3  335.61    2.76
   7   5  -3   84.62    3.27
  -8   4   6   65.43    1.91
  -7   2   6  356.67    2.97
  -7   4   3  232.43    2.59
  -7   6   2   82.13    2.44
  -5   4   0  277.90    2.52
  -5   7  -1  153.81    3.03
  -4   4  -1   50.57    1.60
  -4   8  -2   51.24    2.90
  -2  -2   9  290.19    4.14
   3  -2   5   45.72    2.01
   3  -2   9    5.82    2.32
   4  -1   2  790.54    3.80
   5   2  -2 1253.61    4.28
   6  -1   6   95.21    2.30
   6  -1   7   86.30    2.74
   6   4  -3  112.69    2.49
   7   1   1  146.32    1.94
   8   1   3   56.04    2.00
   8   5  -2   11.92    2.83
  -8   4   5   26.47    1.85
  -7   3   4   68.85    1.46
  -6   1   5  194.36    1.88
  -6   3   2  565.29    3.22
  -6   7   0  102.62    2.79
  -5   0   5 1265.18    4.49
  -5   1   3  586.27    2.95
  -4  -1  11   46.77    2.36
  -3   0   2    2.12    1.17
  -2  -2   7  664.96    5.56
  -2   3  -2 1651.13    7.00
   2  -2  10   16.24    3.02
   7   6  -3    8.13    3.43
   8   2   1  133.11    2.05
   8   4  -1    3.00    2.08
  -8   3   6   80.21    2.21
  -8   5   4    1.80    1.38
  -7   1   8   62.14    1.87
  -7   2   5   21.83    1.56
  -7   5   2  154.60    2.21
  -6   0   8  532.40    3.53
  -6   0   9    0.04    1.69
  -6   0  10  127.95    2.71
  -6   2   3  506.71    2.69
  -6   4   1   11.30    1.46
  -4   6  -2  170.04    2.95
  -3   4  -2  113.56    2.23
  -3   8  -3   47.88    3.48
  -2   0   1    2.67    1.19
   3  -2   6  844.97    5.25
   3  -2   8  253.06    3.73
   4   5  -4   -0.54    2.02
   5   6  -4  211.94    4.55
   6   0   2  451.46    2.61
   6   2  -1  710.28    3.24
   7   0   5  106.06    2.25
   7   0   6   -1.15    1.93
   7   2   0  549.17    3.15
   7   4  -2   42.59    1.96
   8   3   0   89.64    1.90
  -7   1   7   79.28    2.10
  -6   0   7    1.12    1.32
  -3   7  -3  295.22    5.13
  -2  -2  10   28.76    2.63
  -1  -2   5   54.81    2.56
  -1   9  -4   26.53    5.90
   3  -2   7    3.99    1.94
   3   0   0    2.44    1.07
   5  -1   4  504.62    3.23
   5   7  -4    2.98    3.83
   6   5  -3  479.86    4.78
   7   1   2  277.08    2.52
   7   3  -1  324.64    2.57
   8   2   2    1.21    1.65
  -8   2   8    2.36    1.40
  -8   3   5   37.83    1.79
  -8   4   4  164.28    2.78
  -7   3   3  223.17    2.24
  -7   4   2   50.80    1.86
  -7   6   1   50.75    2.33
  -6   1   4  186.47    1.83
  -6   5   0   46.87    1.84
  -5  -1   9   49.02    1.81
  -5   2   1   31.27    1.31
  -5   5  -1   74.25    2.06
  -4  -1   5  375.75    2.76
  -4   2   0  102.94    1.73
  -2  -2   6   54.50    2.09
   2  -2   5 1094.48    6.21
   3  -1   2 1794.11    5.99
   3   3  -3 1493.48    6.36
   3   5  -4  335.29    4.81
   4  -1   3  575.80    3.59
   5  -1   5  168.55    2.28
   5  -1   8   52.30    2.54
   5   4  -3  551.57    3.88
   6   0   3    0.39    1.82
   8   5  -1   69.19    2.98
  -8   5   3  102.36    2.23
  -7   1   6  227.37    2.44
  -7   2   4  473.53    2.85
  -6   0   6  730.43    3.74
  -5  -1   8  169.39    2.36
  -5  -1  10  105.15    2.59
  -5   0   4    1.00    0.91
  -5   3   0  211.59    2.20
  -4   1   1 2212.59    5.94
  -3   6  -3   41.63    2.73
   1   5  -4  331.96    8.02
   4   6  -4  298.56    5.09
   5  -1   6  112.44    2.20
   5  -1   7   60.30    2.22
   7   1   3  155.17    2.29
   8   3   1   24.95    1.50
   8   4   0  103.56    2.66
  -8   2   6    2.05    1.67
  -7   5   1   17.44    1.84
  -6   2   2   20.66    1.48
  -6   3   1  241.92    2.35
  -5  -1   7  219.97    2.52
  -5  -1  11   28.73    2.88
  -5   1   2  828.24    3.37
  -4   3  -1  412.86    2.97
  -3  -2   8  508.74    4.51
  -3  -2   9   10.54    1.98
   2  -2   9  155.21    3.60
   2   5  -4    1.18    2.60
   4   0   1    1.91    1.20
   5   0   2    2.66    1.15
   5   3  -2  254.98    2.34
   6   0   4  359.65    2.90
   6   4  -2  437.55    3.47
   7   4  -1  294.18    3.23
   7   6  -2   84.65    3.93
   8   2   4    0.15    1.72
  -8   3   4  132.33    2.38
  -7   1   5  216.74    2.37
  -6   1   3  443.84    2.94
  -6   7  -1    7.65    2.23
  -5   8  -2   22.83    3.25
  -3   1   0  822.34    4.06
  -3   2  -1   57.82    1.56
   1  -2  10  206.44    5.51
   2  -2   6   44.91    2.10
   4   7  -4  137.86    4.85
   5   2  -1   31.18    1.21
   6   0   5   -0.89    1.54
   7   3   0   60.85    1.50
   8   5   0   17.45    2.59
  -8   1   8   54.33    2.28
  -8   2   5  166.23    2.46
  -8   5   2    9.34    2.04
  -7   0   8    2.03    1.69
  -7   0   9   88.67    2.36
  -7   2   3   60.03    1.81
  -6   0   5    0.71    0.93
  -5  -1   6  535.93    3.35
  -4   0   2 3445.08    7.35
  -3  -2   7   10.06    1.50
  -3  -2  10  244.61    4.25
  -2  -2  11   50.05    3.82
   1  -2   5   56.91    2.54
   2  -2   7  465.47    5.23
   2  -2   8    9.57    2.05
   2  -1   2 1679.11    6.91
   6   0   6  276.65    3.10
   6   1   2  259.08    2.34
   7   1   6   20.02    2.05
   7   2   2  390.27    3.00
   8   3   3   23.24    2.18
  -8   1   7  128.36    2.55
  -7   0   7  115.58    2.15
  -7   6   0   89.99    2.85
  -5   0   3 1548.69    4.87
  -5   6  -2  141.79    2.88
  -4  -1   4  469.89    3.18
  -3  -1   3 1258.66    5.17
  -1   2  -2 4593.41   15.44
  -1   6  -4  382.58   10.02
   3  -1   3 1361.38    5.62
   4  -1   9   43.81    2.34
   5   0   3  976.90    4.03
   6   5  -2   38.93    2.47
   7   5  -1   15.28    2.24
  -8   3   3   74.23    2.22
  -8   4   2  127.97    2.34
  -7   1   4  438.57    2.96
  -6  -1   8  137.55    2.33
  -6  -1  10   39.04    2.16
  -4   4  -2  792.58    4.58
  -4   8  -3   22.46    3.49
  -3  -2   6 1377.56    6.52
  -3   3  -2  459.61    3.54
  -2  -2   5 1299.24    7.04
  -2   4  -3  268.40    4.15
   4  -1   5  310.29    2.78
   4  -1   8  123.91    2.85
   7   2   3   29.02    1.90
   7   4   0   85.35    2.44
   8   4   2   52.04    2.08
  -8   1   6   53.52    1.64
  -8   2   4    2.02    1.22
  -7   0   6    0.59    1.42
  -7   5   0  222.07    3.09
  -6   0   4  638.90    3.12
  -6   5  -1  249.26    3.20
  -5  -1   5  330.35    2.42
  -5   2   0 1792.20    5.33
  -4   7  -3   16.76    2.76
   2   1  -1 3902.44   10.03
   4  -1   6  261.45    2.75
   4  -1   7  329.92    3.64
   4   3  -2 1212.19    4.70
   5   4  -2  138.18    2.30
   6   1   3  168.41    1.91
   6   2   1  598.01    3.11
   8   4   3   12.45    2.30
  -8   5   1   88.17    2.63
  -7   2   2  532.22    3.17
  -7   3   1  414.78    3.13
  -6   1   2  583.75    3.14
  -6   3   0  291.64    2.36
  -5   5  -2  244.31    3.18
  -4  -2   8   15.10    1.60
  -4  -2   9  267.68    3.47
  -3  -2  11    5.11    2.46
  -2  -1   2 2822.03    8.89
  -2   8  -4   59.57    6.19
   2   6  -4  488.08    7.66
   3   8  -4   57.40    4.30
   4   0   2 1456.85    4.75
   4   2  -1 1527.67    4.85
   4   5  -3 1147.39    6.38
   5   0   4   -0.49    1.01
   5   8  -3   42.61    4.28
   6   3   0  378.19    2.79
   7   2   5    3.35    1.81
   7   3   2   65.67    1.97
  -9   3   4   12.93    2.12
  -8   1   5  103.91    2.10
  -7   0   5  544.89    3.31
  -7   1   3  265.36    2.56
  -6  -1   6  272.74    2.64
  -4  -2  10   25.52    2.20
  -4   1   0 1636.16    5.13
  -4   6  -3  175.53    3.58
  -2   7  -4  186.32    6.99
   1  -2   9   10.68    2.36
   1  -1   2 5401.83   16.50
   3  -1  10   60.55    2.68
   5   0   5  453.76    3.20
   5   0   8    0.76    1.77
   6   1   4   85.43    1.56
   6   7  -2   76.42    3.63
   7   4   1  229.62    3.04
   7   5   0  136.55    2.75
  -9   2   5    2.72    1.94
  -8   0   8  217.57    3.08
  -8   3   2  113.92    1.98
  -7   4   0   59.98    1.72
  -6   4  -1   38.29    1.79
  -5  -1   4 1138.65    4.36
  -5   0   2    2.40    1.19
  -4  -1   3  961.33    4.36
  -2   1  -1 2909.67    8.78
   1  -2   6 1308.74    8.49
   3  -1   4 1329.90    5.43
   5   0   7   53.69    2.03
   6   1   6   87.17    2.23
   6   1   7   72.00    2.56
   6   2   2    9.53    1.40
   6   5  -1  324.50    3.75
   7   6   0   91.76    3.55
  -8   0   7   -0.87    1.70
  -8   1   4   69.08    1.86
  -8   4   1    5.01    1.32
  -7  -1   9   31.15    2.11
  -4  -2   6   31.56    1.59
  -4  -2  11   39.69    2.92
  -4   0   1    0.68    1.19
  -3  -2   5   64.14    1.78
   2   9  -4    0.80    3.59
   4   6  -3  340.27    4.72
   5   5  -2  487.15    4.16
  -9   1   6   59.30    2.27
  -9   2   4  137.22    2.67
  -9   3   3   57.22    1.98
  -8   0   6  223.54    2.85
  -7   0   4    1.35    1.42
  -6  -1   5  269.44    2.47
  -6   6  -2   73.29    2.82
  -5  -2   8  290.54    3.30
  -5  -2   9    8.86    1.81
  -4   3  -2 1008.67    4.77
  -4   5  -3  735.41    5.83
  -3   4  -3  639.32    5.20
  -2   2  -2   92.70    2.02
   1  -2   7   10.99    2.09
   1  -2   8  330.47    4.73
   2  -1   3 1029.04    5.73
   2   7  -4  192.10    5.96
   2   8  -4   98.74    5.57
   3  -1   5  369.34    3.25
   3  -1   9   46.31    2.23
   3   1   0  747.80    3.72
   4   0   3   42.38    1.21
   6   6  -1  215.28    4.07
   7   3   5   65.86    2.41
  -7   1   2  340.21    2.61
  -7   3   0   85.41    1.96
  -7   5  -1   25.61    2.22
  -6   1   1  941.46    3.84
  -6   2   0   33.47    1.16
  -5  -2   7    5.84    1.46
  -5  -2  10  155.32    3.24
  -5   7  -3  123.58    4.37
  -3  -1   2 2144.09    6.42
  -2   6  -4  330.95    8.01
   0  -2  10   35.73    3.52
   1   2  -2 4175.96   15.13
   1   6  -4  486.59    9.35
   3  -1   8  156.22    2.80
   4   4  -2  848.11    4.50
   4   7  -3   43.60    3.72
   4   8  -3   34.53    3.88
   5   1   3  518.33    3.18
   5   4  -1  850.25    4.39
   6   7  -1   23.51    3.45
   7   4   3   91.05    2.41
   7   6   1   19.57    2.81
  -9   1   5   57.66    2.25
  -8   0   5    1.06    1.44
  -7  -1   6  231.34    2.62
  -6   3  -1  155.23    2.21
  -6   5  -2    5.01    1.95
  -5   1   0  502.10    2.92
  -4  -2   5  747.14    4.11
   3  -1   6  315.43    3.04
   3  -1   7  153.28    2.73
   3   0   2    1.50    1.16
   3   5  -3  562.05    5.45
   4   0   4 1055.37    4.34
   4   0   9    1.24    1.73
   5   3   0  194.28    2.20
   6   2   4    2.87    1.14
   6   3   2  346.54    2.88
   7   5   2   58.02    2.09
  -9   2   3    5.50    2.02
  -9   3   2   22.27    2.09
  -8   1   3  120.53    1.99
  -8   4   0  126.50    2.80
  -7   4  -1  193.28    2.86
  -6  -1   4  251.45    2.38
  -5  -2   6  774.21    4.25
  -5  -1   3  571.79    3.16
  -3   1  -1  583.26    3.39
  -3   7  -4    2.36    4.43
  -3   8  -4   39.13    5.05
   1   9  -4   40.30    5.24
   2   0   1    1.88    1.10
   4   3  -1  530.83    3.25
   5   1   4  543.41    3.25
   6   2   6    4.68    1.81
   6   2   7   57.26    2.45
   6   4   1   41.27    1.91
   7   4   5   43.53    2.43
   7   5   3   34.07    2.49
   7   6   2   58.19    3.02
  -7  -1   5  192.15    2.38
  -6  -2   8    9.59    1.64
  -5   0   1  464.43    2.79
  -4  -1   2 1513.88    5.05
  -3  -2   4 3219.67    8.80
  -3   0   0    2.99    1.08
  -1  -2   4 4321.29   19.43
   4   0   5    1.77    1.30
   4   0   8  270.09    3.19
   5   1   5  158.86    2.17
   5   1   7   57.75    2.13
   5   5  -1   67.25    2.41
   6   3   3  135.42    2.35
   6   6   0   45.85    2.87
  -9   0   6    1.98    1.88
  -9   1   4   83.95    1.98
  -8  -1   7  127.28    2.70
  -8   0   4  278.23    2.78
  -7   6  -2   48.36    2.75
  -6  -2   7  276.26    3.10
  -6  -2  10   19.44    2.30
  -6   4  -2  313.64    3.40
  -5   3  -2  215.58    2.52
  -4   4  -3  198.77    3.32
   2  -1  10   41.44    2.39
   4   0   6  870.62    4.44
   4   0   7    0.98    1.38
   4   5  -2   52.04    2.29
   5   1   6   80.74    1.72
   6   7   0   99.24    3.77
  -8   1   2  173.66    2.39
  -8   3   0   95.48    2.27
  -8   5  -1   70.21    2.95
  -5  -2   5   47.05    1.59
  -5   5  -3  179.43    3.83
  -4   1  -1 1348.24    4.87
  -3   6  -4  270.04    6.68
  -2   3  -3  695.61    6.04
   1   8  -4   77.79    5.75
   2  -1   4  621.06    4.22
   3   9  -3   14.76    3.53
   5   4   0  342.29    2.96
   5   6  -1  161.88    3.52
   6   4   2  252.29    2.45
  -9   1   3   50.96    2.08
  -9   2   2   98.80    2.05
  -9   3   1   96.13    2.62
  -8  -1   6   57.53    1.66
  -7  -1   4  434.60    3.00
  -7   0   2    0.54    1.44
  -7   3  -1  252.81    2.96
  -7   5  -2   71.08    2.78
  -6  -2   6   16.48    1.54
  -6  -1   3  345.96    2.59
  -6   2  -1  663.25    3.60
  -4   0   0 8384.91   11.29
  -4   2  -2   35.02    1.52
   3   0   3 2035.26    6.19
   3   0  10   11.28    2.31
   3   7  -3  334.92    5.68
   3   8  -3   94.44    4.29
   5   2   3   71.49    1.81
   5   7  -1  296.85    4.89
   6   3   6   42.87    2.04
   6   3   7   10.25    1.76
   6   6   1  175.24    3.44
  -7  -2   9    1.20    2.04
  -6   0   1    0.81    1.39
  -5  -1   2  870.39    3.56
  -4   7  -4  102.83    5.28
  -4   8  -4   28.15    4.76
  -1   5  -4  355.32   10.53
   0  -2   9  280.71    5.61
   2  -1   9  103.53    2.57
   3   1   1  644.00    3.49
   4   1   3  548.80    3.30
   4   4  -1   16.16    1.66
   4   8  -2   72.48    3.61
   6   4   3   41.86    1.54
   6   5   2    5.30    2.02
  -9   0   4    0.35    1.64
  -8   4  -1   11.13    1.57
  -7  -2   7    5.31    1.64
  -6  -2   5  499.04    3.33
  -6   3  -2  339.98    3.27
  -5   4  -3  303.28    3.71
   0   9  -4    0.36    4.34
   1  -1  11   40.61    2.96
   2  -1   5  549.08    4.04
   2   1   0 3296.27    8.81
   2   3  -2 2162.01    7.97
   2   5  -3 1917.93   10.07
   4   1   9   51.53    2.32
   4   3   0  909.19    4.13
   5   2   8   64.73    2.50
   5   5   0  640.22    4.26
   6   4   4  157.03    2.44
  -9   2   1    2.48    1.70
  -8   1   1  286.28    2.83
  -8   2   0   10.70    1.69
  -7  -2   6  317.78    3.21
  -7  -1   3  265.93    2.69
  -7   4  -2   13.05    2.04
  -6   5  -3  292.98    4.49
  -5   0   0    1.56    1.16
  -4   6  -4  159.14    5.46
  -3  -1   1  604.34    3.41
  -3   5  -4  260.43    5.43
   2  -1   8  262.90    3.20
   3   0   4    3.65    1.30
   3   0   9  127.05    2.59
   4   1   4  352.85    2.70
   5   2   6  279.87    2.98
   5   2   7    2.39    1.37
   5   4   1  712.61    3.81
   6   4   5   12.01    1.45
   6   4   6   49.54    2.16
   6   5   3  258.01    3.25
   6   7   2   81.11    3.43
  -9  -1   6   61.01    2.37
  -9   1   2   55.00    1.75
  -9   3   0   19.52    2.23
  -8   0   2  431.84    3.19
  -7   2  -1   14.16    1.56
  -5   2  -2 1278.39    4.92
  -4  -2   3  914.88    4.22
  -4  -1   1 2314.13    6.14
  -4   3  -3  408.81    3.98
   0   6  -4  367.27   10.65
   2  -1   6  560.33    4.08
   2  -1   7  671.05    4.94
   4   1   8  112.15    2.49
   5   3   3  585.69    3.47
   5   7   0    4.06    2.84
   6   6   3   66.97    2.86
  -8  -2   7   83.47    2.49
  -8   3  -1   29.18    1.59
  -7  -2   5   19.07    1.64
   1  -1   3 2561.28   10.61
   1   4  -3 1104.70    8.76
   2   0   2 4314.92   10.16
   3   0   5 1106.58    4.68
   3   0   8    1.49    1.56
   4   1   5  307.59    2.62
   4   1   6  277.47    2.72
   4   1   7  328.37    3.37
   5   5   1   77.21    2.26
   6   6   4   46.34    2.88
  -9  -1   5   37.70    1.70
  -7   3  -2   59.71    2.17
  -6   0   0 2491.15    6.02
  -6   1  -1  505.87    3.08
  -6   4  -3   67.40    2.81
  -5  -1   1  442.72    2.76
  -5   7  -4    1.90    3.74
  -4   5  -4   -2.13    3.16
   0  -2   8   14.53    2.38
   3   0   6    2.22    1.39
   3   0   7  121.92    2.22
   5   3   4   94.41    2.11
   5   3   7  133.74    3.07
   5   3   8   10.01    1.74
   5   4   2   36.90    1.45
  -9   1   1   36.62    2.01
  -8  -2   6    4.31    1.75
  -8  -1   3  158.54    2.49
  -8   4  -2   77.84    2.83
  -7  -1   2  360.15    2.78
  -6   2  -2    9.65    1.52
  -5  -3   8   36.76    2.03
  -5   3  -3  604.86    4.49
  -4  -3   7  134.24    2.86
  -4  -3   8  171.88    3.22
   0   8  -4  114.54    6.46
   1  -1  10  124.04    3.31
   2   7  -3   63.78    4.48
   2   8  -3   65.09    3.76
   3   1   2 2034.58    5.88
   3   9  -2  103.52    3.95
   4   7  -1   64.08    3.21
   4   8  -1   43.69    3.20
   5   3   6   36.77    1.94
   5   6   1   87.51    2.61
   5   7   1  196.95    3.93
  -9   0   2    1.58    1.62
  -9   2   0   92.26    2.25
  -8   0   1    0.04    1.62
  -8   2  -1  156.07    2.70
  -7  -2   4  709.11    3.93
  -7   5  -3   39.58    3.23
  -6  -2   3  581.01    3.33
  -5  -3   7  415.70    4.06
  -5  -3   9   99.35    2.90
  -4  -3   9   58.50    2.89
  -3   0  -1 1250.66    4.86
  -1  -1   1  857.07    6.57
   0  -2   7  548.40    7.33
   3   8  -2  109.66    3.87
   5   5   2  268.20    3.05
  -8  -2   5  110.42    2.03
  -7   0   0    0.26    1.32
  -7   1  -1  148.51    2.19
  -6  -3   7   74.86    2.33
  -6  -3   8  128.76    2.77
  -6  -3   9   30.15    2.24
  -5  -3   6  151.03    2.40
  -5   5  -4  106.05    3.97
  -4  -3   6  519.94    4.11
  -4   1  -2  632.56    3.36
  -3  -3   7  563.97    6.08
  -3  -3   8   78.15    3.20
  -2   1  -2 1919.89    7.21
   2   0  10  108.23    2.79
   3   4  -1 1769.53    6.84
   3   7  -2   -1.63    2.67
   4   2   8    1.37    1.91
   5   4   4    8.45    1.80
   5   4   7   85.88    2.91
   5   8   2   31.36    3.20
  -8  -1   2  179.87    2.51
  -8   3  -2   85.24    2.69
  -7   4  -3  100.33    3.19
  -6  -3   6  220.88    2.74
  -6   3  -3  134.29    2.89
  -5  -3  10   16.03    2.30
  -5   0  -1  827.75    3.67
  -5   1  -2  908.46    4.09
  -3  -3   6  198.65    3.28
  -3   2  -3  201.15    2.69
  -2   0  -1    0.79    1.08
   1   0   1  166.97    2.85
   2   4  -2 1440.17    7.40
   3   1   3 1366.49    5.10
   3   1   9   54.84    2.14
   3   2   1   55.37    1.60
   4   2   4   10.11    1.15
   4   9   0    4.44    2.68
   5   5   3  129.47    2.50
   5   7   2    1.31    1.82
  -9  -1   3   48.57    1.77
  -9   1   0   42.17    2.01
  -8  -2   4    2.18    1.65
  -7  -3   7  159.07    2.97
  -7  -2   3   46.23    1.84
  -7  -1   1  184.68    2.14
  -6   6  -4   47.09    4.21
  -5  -3   5  491.42    3.51
  -5  -2   2  961.50    3.87
  -4  -3   5  187.92    2.56
  -4  -3  10   73.02    3.75
  -4   2  -3  604.39    3.97
  -3  -2   2 3041.99    7.95
  -2   4  -4 1020.38    9.05
  -1   9  -4   38.82    5.87
   1  -1   9   87.14    2.63
   4   2   6   17.65    1.23
   4   3   9   17.50    2.41
   4   6   0  114.36    2.98
   4   7   0  270.42    4.09
   4   8   0  154.06    3.84
   5   5   4   97.92    2.34
   5   5   5   33.15    2.24
   5   5   6   92.44    2.98
   5   5   7    5.78    2.30
   5   6   3   13.07    2.35
  -9   0   1   64.69    2.16
  -9   2  -1    4.07    2.06
  -8   1  -1  121.66    2.28
  -7  -3   6   57.48    1.99
  -6  -3   5  109.16    2.16
  -6  -2   2   21.44    1.39
  -6   0  -1    0.94    1.36
  -6   5  -4    1.86    2.67
  -5  -1   0  514.08    2.91
  -5   2  -3  113.36    2.20
  -5   4  -4   11.27    3.15
  -3  -3   9  147.61    4.99
  -3  -1   0  649.54    3.43
  -2   2  -3  854.89    5.63
  -1  -2  10  212.89    5.99
   2   0   9    0.40    1.61
   2   1   1 2774.89    8.05
   3   1   8  140.84    2.49
   5   6   4  119.22    3.12
   5   6   5   10.78    2.64
   5   6   6   49.17    3.14
   5   7   4    0.76    2.75
  -7   3  -3  188.71    3.39
  -6   1  -2  229.59    2.19
   0  -1  11   23.07    2.52
   1  -1   4 2742.26    9.98
   3   1   4 1322.34    4.80
   3   1   7  158.88    2.55
   3   2  10   96.02    3.08
   3   5  -1  125.69    2.65
   4   3   8   77.03    2.48
  -9  -2   4  163.29    3.00
  -9  -1   2   56.07    1.88
  -8  -2   3  164.12    2.14
  -8  -1   1  302.26    2.88
  -8   2  -2    0.88    1.41
  -7  -3   5  258.28    2.92
  -7  -2   2  532.31    3.33
  -4  -3   4  947.39    4.81
   1  -1   8  237.26    3.14
   1   0  11   89.50    2.92
   1   5  -3  664.97    7.75
   2   0   8  715.89    4.50
   2   9  -2    2.23    2.81
   3   1   5  344.46    2.82
   3   1   6  327.47    2.87
   4   3   4  487.98    3.18
   4   3   7   82.07    2.33
   4   6   1  521.12    4.35
   4   8   1   60.68    3.03
  -8  -3   6  104.84    2.62
  -7   0  -1  293.38    2.49
  -7   1  -2  275.25    2.80
  -6   4  -4  205.49    4.30
  -2  -2   2  107.48    2.08
  -2  -1   0 3741.84    9.39
   1   8  -3  157.87    4.85
   2   2   0  266.99    2.82
   2   5  -2   56.27    2.67
   3   2   9    5.37    2.14
   3   7  -1  440.03    4.70
   4   3   5   78.90    1.52
   4   4   8   60.78    2.69
   4   7   1   30.41    1.97
  -9  -2   3    3.83    1.86
  -9   0   0   -1.16    1.83
  -9   1  -1   39.73    2.17
  -8  -3   5   40.15    2.13
  -8   3  -3   19.81    2.58
  -7  -3   4   74.66    2.03
  -4  -2   1 1900.76    5.67
  -4   3  -4  587.63    5.11
   1  -1   5  586.31    4.59
   1  -1   7  250.79    3.18
   2   0   5    2.48    1.35
   2   0   6 1973.91    6.77
   2   0   7    0.61    1.41
   2   1  10   47.16    2.34
   2   8  -2  132.38    3.75
   3   4   0  603.18    3.82
   4   4   7   -0.18    2.04
   4   5   2   16.57    1.44
  -9  -1   1   34.91    2.08
  -8   0  -1    2.59    1.66
  -7   2  -3   30.41    2.25
  -6  -2   1  662.58    3.17
  -5  -3   3  815.03    4.10
  -5   3  -4  117.21    2.97
  -4   0  -2 1862.96    5.57
  -3   3  -4  261.96    3.82
   1  -1   6  595.80    4.44
   1   6  -3   75.67    4.01
   1   7  -3  511.16    6.90
   2   7  -2  487.02    5.32
   3   2   8  227.00    3.09
   4   4   4  426.75    2.95
   4   4   6  234.77    3.13
   4   5   8    4.42    2.43
   4   6   2  159.93    2.53
  -8  -3   4  132.30    2.55
  -8  -1   0  172.17    2.41
  -7  -2   1   13.44    1.56
  -7   4  -4    4.29    2.90
  -6   0  -2  654.42    3.50
  -6   3  -4  186.97    3.63
  -5  -1  -1  402.62    2.66
  -5   1  -3  558.01    3.77
  -4  -3   3  479.64    3.51
  -4   1  -3  572.78    3.75
  -3  -3   4  311.57    3.41
  -3  -2   1   59.52    1.60
  -1  -2   3   91.32    3.45
   1   0  10   38.69    2.34
   3   5   0 1339.81    6.06
   4   5   3  508.52    3.47
   4   5   7   97.00    2.99
   4   6   3  208.95    3.21
   4   7   3   30.32    2.67
   4   8   3   21.21    2.19
   4   8   4   30.89    3.25
  -9  -2   2  127.30    2.67
  -6  -1  -1  541.84    3.16
  -6   1  -3  206.27    2.68
  -4   7  -5    5.15    5.19
  -1   0  -1 1409.87    7.56
   0  -1  10   65.04    2.51
   2   1   2 1945.18    6.68
   2   1   9  110.72    2.55
   3   2   4 2048.57    5.99
   3   2   6  812.11    4.31
   3   2   7    6.54    1.25
   3   3   9   75.01    2.37
   3   7   0    8.80    2.41
   3   9   1    1.26    2.54
   4   5   4   -0.28    1.37
   4   5   5  231.88    3.20
   4   6   4  183.84    3.32
   4   6   7   35.94    2.54
   4   7   4  161.80    3.43
   4   7   5    6.36    2.67
  -9  -3   4   17.23    1.99
  -9   0  -1   85.88    2.48
  -8  -2   1  262.89    2.80
  -8   2  -3   54.20    2.10
  -7  -1  -1  145.17    2.08
  -7   0  -2    1.91    1.58
  -7   3  -4   31.97    2.64
  -5   6  -5   11.48    4.64
  -3   1  -3 1382.16    5.70
  -2  -2  11   43.14    4.30
  -1   8  -4   90.56    5.68
   2   9  -1  139.74    3.36
   3   4   1 1452.84    5.63
  -9  -1   0   38.11    1.66
  -9   1  -2   36.09    1.97
  -7   1  -3  164.63    2.77
  -6  -4   7    4.89    2.18
  -6  -3   2  579.62    3.38
  -5  -2   0 1919.67    5.36
  -5   2  -4  759.07    5.05
  -5   5  -5   27.43    4.85
  -4   5  -5  225.85    6.44
  -3  -1  -1  543.22    3.06
  -2  -3   6  554.43    7.35
   1   1  11   40.27    2.46
   1   9  -2  138.34    4.70
   2   1   8  273.63    3.13
   2   2  10   27.90    2.36
   3   3   8   31.61    1.72
   3   4   9   56.90    2.76
   3   8   1  148.96    3.36
  -9  -2   1    2.26    1.78
  -8  -1  -1  133.81    2.39
  -8   0  -2  178.16    2.69
  -7  -4   6   16.32    1.93
  -7  -2   0  641.53    3.52
  -6  -4   6  218.01    3.14
  -6   2  -4    2.87    2.04
  -6   5  -5   74.84    5.62
  -4  -2   0  108.51    1.76
  -4   2  -4   12.23    1.97
  -3  -3   3 1462.22    6.13
   1   0   9  240.72    3.15
   3   3   7  388.50    3.68
   3   5   1  150.37    2.64
  -9  -3   3   51.76    2.07
  -8  -4   6   72.30    2.65
  -8   1  -3   48.06    2.45
  -7  -4   5  186.73    2.83
  -6  -4   5   76.39    2.16
  -6  -4   9    4.11    2.50
  -5  -4   6   48.34    2.06
  -5  -4   7  204.34    3.63
  -5   4  -5  266.21    5.97
  -3   7  -5   90.78    9.29
   1   0   2    2.57    1.22
   2   1   3  829.32    4.25
   2   1   7  719.74    4.41
   3   3   5  541.38    3.63
   3   3   6  111.78    2.23
   3   4   8   25.82    2.25
   3   6   1  134.26    2.34
   3   8   2  110.17    2.93
  -8  -4   5   24.43    2.05
  -8  -2   0    9.17    1.31
  -7   2  -4  223.20    3.74
  -5  -4   5  456.00    3.80
  -5  -4   8   37.88    2.42
  -4   4  -5   60.37    4.13
  -3   2  -4 1925.31    7.77
  -3   5  -5   85.55    5.41
  -2  -2   1 3224.38    8.97
  -2   0  -2 4224.24    9.74
  -1   2  -3  153.97    3.82
   0  -1   9  166.66    3.11
   0   0  11    2.08    1.88
   2   1   4  617.63    3.77
   2   2   9  147.94    2.89
   2   3  10   43.32    2.78
   2   9   0    4.90    2.17
   3   4   7  230.85    3.33
   3   5   8  107.27    3.11
   3   7   2    5.08    2.10
  -9  -1  -1   30.70    1.74
  -9   0  -2    0.56    1.47
  -7  -3   1  442.37    3.32
  -7  -1  -2  264.55    2.67
  -6  -4   4  531.46    3.80
  -6  -3   1  253.41    2.42
  -6  -1  -2  228.98    2.13
  -5  -3   1 1178.52    4.51
  -5  -1  -2  837.62    3.49
  -5   0  -3  811.77    3.73
  -3  -2   0 4760.85    9.10
  -2   1  -3  921.85    6.28
  -1  -1  11   56.68    2.95
   1   0   8    3.54    1.65
   1   1  10  123.31    2.83
   1   8  -2  135.06    3.45
   2   1   5  516.07    3.44
   3   4   6   99.14    2.55
   3   5   7   16.89    2.51
   3   8   3   53.13    2.09
   3   8   5   50.07    2.80
  -9  -2   0   93.44    2.16
  -8  -4   4  170.56    2.96
  -8  -3   1   64.97    1.98
  -8   2  -4    3.22    2.68
  -7   4  -5   67.14    4.44
  -6  -2  -1  716.12    3.50
  -5  -4   4   31.85    1.83
  -5  -2  -1   35.53    1.47
  -4  -1  -2  765.78    3.58
  -4   0  -3   24.83    2.95
   0   8  -3   70.60    3.41
   1   2  11    3.62    2.07
   2   2   8   10.60    1.90
   2   8   0  261.07    3.64
   2   9   1   97.58    3.51
   3   4   5  529.46    3.56
   3   5   3  402.21    3.68
   3   5   6  254.51    3.62
   3   6   3   38.77    2.47
   3   6   7   28.76    2.25
   3   7   3  307.26    3.33
   3   7   6    1.54    2.52
  -8  -1  -2   63.20    2.13
  -8   0  -3    1.24    1.85
  -7  -4   3  258.25    3.08
  -7  -2  -1   13.96    1.18
  -6  -4   3  119.71    2.40
  -6   1  -4  119.60    2.14
  -6   3  -5   48.49    3.36
  -5   1  -4  497.32    3.51
  -5   3  -5  279.27    4.73
  -4  -4   7    7.25    2.08
  -4  -3   1  635.18    3.45
  -1   7  -4    4.76    3.66
   1   7  -2    0.56    2.34
   1   9  -1    3.51    2.31
   2   2   2   95.23    1.94
   2   4   0 2209.57    7.91
   3   5   4  224.30    2.61
   3   5   5   95.43    2.18
   3   6   4  309.58    3.67
   3   6   5   43.32    2.53
   3   6   6   71.38    2.35
  -9  -3   1  108.83    2.74
  -8  -4   3   27.70    2.14
  -8  -2  -1  139.45    2.11
  -7   1  -4  140.29    2.54
  -7   3  -5   74.21    3.95
  -4  -2  -1 1669.93    5.06
  -4   1  -4  347.96    3.13
  -3   4  -5  572.39    7.68
  -2  -3   4 1206.82    7.48
  -1  -1   0  669.17    5.24
   1   0   7  201.62    2.72
   1   5  -2 1041.81    7.65
   1   6  -2  514.54    5.59
   2   2   7  521.88    3.81
   2   4   9    6.71    2.52
   2   7   0  358.17    3.75
   2   9   2    0.08    2.15
  -9  -2  -1    4.59    1.80
  -9  -1  -2   61.39    2.43
  -8   1  -4   32.35    2.62
  -7  -3   0   98.07    2.03
  -6  -3   0  302.26    2.39
  -3  -1  -2 2337.16    6.19
  -3   0  -3 1974.53    6.10
  -1  -2   8  439.65    5.79
   0   0  10  233.36    3.60
   0   4  -3  248.28    7.05
   0   7  -3   92.48    4.16
   1   0   3 3090.55   10.03
   1   2  10  216.15    3.68
   2   2   3  793.36    4.04
   2   3   8  194.28    3.20
   2   5   9   69.71    3.40
   2   6   0  195.93    3.04
   2   8   1  107.40    2.76
   2   9   3  117.38    3.50
  -8  -4   2  139.51    2.74
  -8  -3   0   83.19    1.95
  -6  -1  -3  211.74    2.52
  -6   2  -5  231.82    3.98
  -5  -3   0  173.12    1.84
  -4  -4   8  201.10    4.71
   0   1  11   27.87    2.40
   0   9  -2    1.08    2.36
   1   0   6    3.35    1.59
   2   2   4   27.18    1.60
   2   2   5 1175.91    5.07
   2   2   6   36.10    1.46
  -9  -3   0   22.96    2.31
  -7  -2  -2  422.51    3.26
  -7  -1  -3  133.19    2.10
  -7   2  -5    5.97    2.76
  -6  -2  -2   11.64    1.45
  -6   0  -4  358.87    3.26
  -5  -4   2  130.73    2.05
  -5  -1  -3  549.96    3.43
  -5   2  -5   20.00    2.30
  -2   2  -4   31.39    2.53
  -1   6  -4  349.56    9.00
   1   0   4    4.49    1.30
   2   3   7  205.49    2.89
   2   4   1   44.48    2.03
   2   4   8  129.56    2.56
   2   5   8   16.37    2.63
   2   6   8    6.93    2.81
   2   7   1   79.98    2.45
   2   8   2  114.03    2.65
  -8  -2  -2    2.32    1.82
  -8  -1  -3   44.48    1.80
  -7   0  -4    0.95    1.41
  -5  -2  -2 1257.20    4.39
  -5   0  -4    0.10    1.60
  -4  -4   3  260.54    2.97
  -3  -2  -1   57.54    1.53
  -2  -3   3  813.18    5.97
  -1  -1  10  156.52    3.41
   0  -1   7  958.48    6.19
   0   5  -3 1542.32   12.58
   0   6  -3  401.34    5.99
   1   1   1  895.82    5.87
   1   1   8  246.36    3.16
   1   3  10   29.72    2.63
   2   3   6  463.98    3.66
   2   5   1  986.09    5.22
   2   6   1  835.75    4.96
   2   7   7   34.88    2.58
   2   8   3   55.72    2.28
   2   8   4  110.59    2.74
  -8  -3  -1   34.87    1.89
  -8   0  -4   82.87    2.82
  -7  -5   5   55.31    2.39
  -7  -5   7    9.23    2.33
  -6  -4   1   12.42    1.52
  -6  -3  -1  159.88    2.15
  -4  -1  -3  566.70    3.28
  -2  -2  10   42.98    2.98
  -1  -2   2 4008.54   14.93
  -1   5  -4  211.01    9.62
   1   2   9    9.93    1.94
   1   4  10   18.91    2.87
   2   3   5  244.33    2.84
   2   4   7    5.77    1.52
   2   5   7  222.39    3.57
   2   7   2  354.33    3.23
   2   7   6  117.41    3.03
  -8  -5   4    0.56    2.14
  -7  -5   4   84.41    2.52
  -7   1  -5   50.68    2.97
  -6  -5   5  271.31    3.45
  -6  -5   6   10.03    2.03
  -6   1  -5  148.63    3.10
  -6   4  -6   77.80    5.96
  -5  -3  -1  813.39    3.70
  -4  -2  -2   32.48    1.37
  -4   0  -4 1014.28    4.52
   0   0   9    0.09    1.73
   0   2  11   39.37    2.65
   0   8  -2  174.52    3.66
   1   9   1    1.54    1.89
   2   4   6  491.85    4.14
   2   5   2   28.29    2.10
   2   5   6   38.63    2.44
   2   6   2  317.02    3.27
   2   6   6   70.37    2.70
   2   7   5   12.21    1.68
  -6  -5   4    1.06    1.75
  -6  -5   7  119.24    3.32
  -5   1  -5  165.55    2.91
   0   1  10   78.40    2.59
   0   2  -2   91.40    5.92
   0   9  -1  197.05    3.41
   1   1   7  291.60    3.14
   1   3   9  142.10    3.20
   1   6  -1  305.80    3.66
   2   4   5  127.21    2.60
   2   5   5  562.38    4.32
   2   6   3  409.89    3.68
   2   6   4  402.73    3.84
   2   6   5  336.18    3.49
  -8  -5   3  103.40    2.42
  -8  -4   0  155.89    2.75
  -8  -2  -3   68.62    2.23
  -7  -5   3   74.02    2.61
  -7  -4   0   72.91    1.72
  -7  -1  -4  148.87    2.71
  -6  -4   0  557.96    3.53
  -6  -2  -3  260.24    2.58
  -6  -1  -4  132.06    2.24
  -3  -4   5  893.31    6.30
  -2   8  -4  102.47    5.01
   0  -1   6  813.92    5.84
   0   3  11   17.91    2.91
   1   2   8  375.33    3.80
   2   5   4    0.72    1.45
  -8  -5   2   11.70    1.92
  -8  -3  -2   82.16    2.43
  -8  -1  -4   32.87    2.35
  -7  -3  -2   69.76    2.01
  -6  -5   8   13.57    2.51
  -6  -3  -2  356.86    2.86
  -5  -2  -3   80.94    2.02
  -5  -1  -4  512.91    3.24
  -5   3  -6   50.37    4.32
  -4  -3  -1  425.01    2.78
  -4   1  -5  322.97    3.42
  -3  -4   4   69.39    2.61
  -3   2  -5   46.56    3.03
  -2  -3   2 2305.94    8.01
  -2  -1  -2 1927.57    6.39
  -1  -2   7   13.19    2.08
  -1   8  -3  129.21    3.89
   1   1   2 4874.07   12.09
   1   1   6  650.07    4.17
   1   5   9    9.81    2.13
   1   7   0   16.78    2.02
   1   8   1  195.62    2.93
   1   9   4   34.99    1.83
  -8   0  -5    2.19    2.31
  -7  -5   2  152.40    2.39
  -7   0  -5  106.30    3.03
  -7   2  -6   74.26    4.24
  -6   0  -5   -0.24    1.94
  -5  -5   4  183.44    2.79
  -5  -5   6  222.78    3.68
  -5  -4   0  352.62    2.77
  -3  -4   6   91.52    2.95
  -2  -1  11   35.88    2.78
   0   0   8 1043.57    6.04
   0   2  10   40.56    2.55
   1   3   8   65.73    2.47
   1   6   8   54.49    3.10
  -8  -4  -1   16.02    2.04
  -7  -4  -1  267.32    2.95
  -6  -5   2   36.66    1.87
  -6   2  -6    8.31    3.18
  -5  -5   7   22.35    2.63
  -5  -3  -2  216.81    2.20
  -5   0  -5  432.73    3.65
  -4  -4   9    6.92    3.85
  -4   5  -6   15.61    4.21
  -3  -4   3 1008.15    5.36
  -3  -2  -2 2316.24    5.85
  -3   0  -4    2.01    1.07
  -1  -1   9   99.95    2.83
  -1   0  -2    1.48    1.40
  -1   9  -2  124.26    3.22
   0  -1   5  572.17    5.28
   0   1   9  161.96    3.04
   0   7  -2  438.38    4.57
   1   1   5  595.47    4.07
   1   2   7   10.32    1.31
   1   4   8   57.45    2.48
   1   5   8  206.23    3.65
   1   7   7  154.58    2.89
   1   8   2   99.32    1.99
   1   8   3  123.91    2.37
   1   8   4  104.45    2.46
   1   8   5   83.16    2.42
  -8  -5   1   63.01    2.05
  -7  -5   1   16.75    1.87
  -6  -4  -1   40.53    1.76
  -5  -5   3  168.58    2.55
  -5   2  -6  317.90    5.23
  -4  -1  -4  309.94    2.72
  -2  -2  -1 3306.44    8.13
  -2   1  -4  673.08    5.34
   0   3  10   68.70    3.19
   0   8  -1  101.16    2.59
   1   6   0  516.83    3.83
   1   6   7   80.37    2.94
   1   7   1  584.01    4.14
   1   7   6    1.58    2.07
  -8  -3  -3   18.30    2.24
  -8  -2  -4   -0.56    1.98
  -7  -3  -3  177.37    2.69
  -7  -2  -4  173.86    2.44
  -7   1  -6   24.75    3.45
  -6  -5   1  307.29    3.08
  -6  -2  -4    1.41    1.62
  -6   1  -6   81.13    3.27
  -4   3  -6  164.26    4.91
  -3  -4   2  230.69    2.56
  -3  -2  11    2.21    2.71
  -2   9  -3  118.79    3.83
   0  -1   4  736.98    6.72
   0   4  10   73.56    3.49
   0   5  10    7.12    2.27
   0   9   1  178.81    2.89
   1   2   1   87.80    2.20
   1   2   6 1357.78    5.82
   1   4   7  346.04    3.98
   1   5   0 1681.44    7.21
   1   5   7   39.21    2.51
   1   7   2    2.86    1.77
   1   7   5  230.95    3.16
  -8  -5   0   15.06    2.12
  -7  -1  -5   40.50    1.90
  -6  -3  -3  132.28    2.36
  -5  -4  -1  769.96    3.91
  -4  -3  -2  976.05    3.95
  -4   6  -6   16.11    5.04
  -3   1  -5  318.69    3.73
  -2  -3   1  938.39    4.84
  -1  -2   1   83.04    2.22
  -1  -1  -1  917.63    5.77
  -1   1  -3 2679.17   12.93
   0   2   9  248.66    3.69
   0   9   2    0.83    1.78
   1   6   1  302.98    3.26
   1   6   6  168.28    2.57
   1   7   3  475.90    3.48
  -8  -4  -2   73.86    2.08
  -7  -6   4  111.70    3.20
  -7  -5   0  176.94    2.44
  -7  -4  -2   10.29    1.41
  -5  -5   8  111.39    4.26
  -5  -2  -4  769.61    3.74
  -5   1  -6  107.90    3.18
  -4   2  -6   18.69    2.91
  -3  -4   7  275.98    6.46
  -1   2  11    3.80    2.39
   0   0   7    1.84    1.65
   0   1   8  383.63    4.22
   0   6   9   72.26    2.72
   0   7   8   53.93    3.13
   0   9   3  189.62    2.79
   1   2   5   62.61    1.99
   1   3   6  190.49    2.57
   1   4   6  169.08    2.99
   1   5   6  414.49    3.95
   1   6   5   59.67    2.34
  -7  -6   3    5.22    2.34
  -7   0  -6   -1.03    2.78
  -6  -5   0   54.58    1.93
  -6  -4  -2  275.24    2.48
  -5  -3  -3  510.04    2.93
  -4  -5   3  936.93    5.25
  -4  -5   4   -0.75    1.60
  -4  -5   5  474.31    4.66
  -3  -4   1 1639.48    5.72
  -3   7  -5   79.45    7.26
  -1   3  11   45.59    3.56
  -1   9  -1    1.66    1.82
   0   3   9   59.13    2.75
   0   4   9   13.51    2.65
   0   5   9   81.11    2.78
   0   7  -1  115.84    2.55
   1   2   2 3891.11   10.26
   1   3   1 2330.94    8.63
   1   5   1  222.27    2.99
   1   5   5  226.95    3.06
   1   6   3   28.15    1.98
   1   6   4  435.31    3.33
  -8  -5  -1   73.67    2.65
  -7  -5  -1   21.19    1.89
  -6  -6   5  134.68    3.41
  -6   0  -6  287.66    3.69
  -3  -2  -3  229.47    2.28
  -3  -1  -4 1427.49    5.34
  -2  -2   9  233.46    4.58
  -2  -1  -3 1178.48    5.25
  -1   1  10  127.35    3.24
  -1   8  -2  113.08    2.80
   0   6   8   20.75    2.57
   0   8   1  122.64    2.43
   0   8   6   57.75    1.97
   1   3   5  673.62    4.11
   1   4   1 1690.34    6.99
   1   5   2 1289.59    5.75
  -7  -4  -3   95.46    2.26
  -7  -2  -5    3.58    1.42
  -6  -6   3  163.15    3.03
  -6  -6   6   37.62    3.02
  -6  -3  -4  177.57    2.43
  -6   3  -7   13.73    4.98
  -5  -4  -2   40.89    1.36
  -5   0  -6   -0.65    2.00
  -4  -5   2   53.06    1.82
  -4  -5   6   17.38    1.96
  -4   1  -6  238.05    3.85
  -2  -3   0 1480.20    5.64
  -2   0  11    2.69    2.17
  -1  -1   8  299.29    4.14
   0   5  -2   26.58    2.28
   0   7   7   26.95    1.91
   0   8   2  141.87    2.56
   0   8   4  128.65    2.47
   0   8   5   54.29    1.76
   1   3   2  709.50    4.76
  -7  -6   1   56.04    2.42
  -7  -1  -6   18.71    2.49
  -6  -6   2   58.58    2.21
  -6  -5  -1  198.22    2.40
  -4  -3  -3  344.70    2.47
  -4  -1  -5  309.22    2.92
  -3  -3  -2  451.27    2.89
  -3   0  -5 1134.48    5.83
  -2  -2  -2   93.95    1.91
  -2  -1  10   80.07    2.71
  -2   7  -4  191.69    5.11
  -1   2  10  220.61    4.13
  -1   5  10   23.58    3.21
   0   0   6 2811.03    9.38
   0   3   8  267.31    3.86
   0   4   8  197.77    3.65
   0   7   6  157.99    2.98
  -7  -5  -2   65.18    2.33
  -6  -4  -3   63.62    1.75
  -6  -1  -6   81.97    2.73
  -5  -3  -4   93.23    2.02
  -5  -2  -5   17.38    1.52
  -5   3  -7   80.27    5.31
  -4  -5   1  677.15    3.96
  -3  -4   0  625.34    3.37
  -2   2  -5 1124.82    9.59
  -2   9  -2    0.52    2.00
  -1   3  10   33.01    3.05
  -1   4  10   25.09    3.09
  -1   9   1    1.11    1.73
   0   4  -2 1237.84    9.17
   0   6  -1  904.28    5.58
   0   6   7  152.04    2.66
  -7  -6   0   97.62    2.63
  -6  -6   1  216.24    3.08
  -6   1  -7   91.65    4.68
  -5  -5  -1   74.90    1.90
  -5   2  -7    1.78    3.74
  -4  -4  -2  804.37    3.79
  -2   8  -3   43.18    2.98
  -1  -2   0 9999.00   18.19
  -1   6   9   11.80    2.85
  -1   8  -1  167.40    2.89
  -1   9   2   86.88    2.57
  -1   9   4   49.57    2.09
   0   5   7  330.14    3.97
   0   7   1  110.52    2.36
   0   7   5   17.58    1.52
  -7  -4  -4    2.54    2.00
  -7  -3  -5   67.05    2.50
  -6  -5  -2    4.37    1.29
  -5  -6   3   37.78    2.17
  -5  -6   5   14.68    2.14
  -5  -4  -3  276.20    2.45
  -5  -1  -6  100.32    2.59
  -4  -5   0  139.83    2.11
  -4  -5   7  188.24    4.80
  -1   3  -4  265.35   11.64
  -1   6  -3   59.83    3.12
  -1   7   8    2.38    1.78
  -1   9   3   12.97    1.25
   0   2   7  647.82    4.88
   0   6   6   71.95    1.95
   0   7   2  471.01    3.46
   0   7   4  227.91    2.39
  -6  -6   0   41.40    2.13
  -6  -4  -4  174.17    2.53
  -6  -3  -5   36.51    1.98
  -6   0  -7    1.83    2.82
  -5  -6   2  204.09    2.94
  -5   1  -7   47.63    3.89
  -3  -4  -1 1564.62    5.22
  -3  -3   9  103.49    5.26
  -3  -2  -4 2058.67    6.16
  -3   8  -4   41.79    3.84
  -2  -3  -1  722.22    3.73
  -2   3  11   12.86    3.43
  -1   5   9   12.98    2.60
  -1   7  -2    2.27    1.72
  -1   8   6   42.24    2.29
   0   0   5    2.82    1.57
   0   1   6  764.44    4.89
   0   5   6   47.99    2.30
   0   6   5  455.93    3.89
  -7  -6  -1   20.53    1.75
  -7  -5  -3   35.83    1.92
  -6  -2  -6    6.10    1.95
  -5  -6   1  144.04    2.57
  -5  -6   6  104.60    3.57
  -5  -5  -2  283.79    2.84
  -4  -3  -4  464.16    2.81
  -3  -3  -3 1218.82    4.55
  -3  -1  -5  363.34    3.41
  -3  -1  11   37.13    2.82
  -2   1  -5  499.27    5.50
  -2   9  -1   98.22    2.65
  -1  -1  -2 5282.40   12.88
  -1   0  -3 3161.19   11.75
  -1   4   9  158.82    4.00
  -1   6   8   70.70    2.96
  -1   7   7  199.48    3.48
  -1   8   5   83.72    2.29
   0   5  -1  915.95    5.83
  -6  -6  -1  162.90    2.86
  -6  -5  -3  302.50    3.38
  -5  -5   9    3.31    3.73
  -4  -5  -1  588.51    3.61
  -4  -4  -3  215.99    2.38
  -2  -4   2 1271.88    6.00
  -2  -4   3  220.26    3.40
  -2  -2  -3  871.03    4.35
  -2  -1  -4  677.00    4.46
  -2   0  10  194.16    3.83
  -1  -1   7  323.90    4.36
  -1   0   8    3.82    1.93
  -1   8   4   99.32    2.22
   0   2   6   68.65    2.33
   0   4   6  679.82    4.76
   0   6   1  924.53    4.81
   0   6   4  350.47    2.91
  -7  -6  -2   55.20    2.63
  -7  -4  -5   46.26    2.47
  -6  -1  -7   70.01    3.71
  -5  -6   0  279.24    3.18
  -5  -4  -4    9.27    1.29
  -5  -2  -6  255.34    3.16
  -5   0  -7   42.79    3.38
  -4  -1  -6  236.92    2.98
  -4   2  -7  192.63    5.73
  -3  -4  -2  125.91    1.94
  -3  -2  10  146.20    4.54
  -3   5  -6  139.63   10.13
  -2   5  10    1.98    2.73
  -1   2  -4 3269.67   20.20
  -1   7   6   -0.02    1.89
  -1   8   1  113.24    1.93
  -1   8   2  103.42    2.18
  -1   8   3  105.34    2.24
   0   3   6  614.26    4.30
   0   6   2  214.01    2.27
  -7  -5  -4   27.60    2.35
  -6  -7   4   86.66    3.19
  -5  -5  -3  142.73    2.62
  -4   4  -7    1.29    3.82
  -3  -5   1  120.66    2.08
  -2  -1   9  167.59    3.83
  -2   4  10   90.96    3.81
  -2   6   9   58.83    3.23
  -2   8  -2   90.87    2.61
  -2   9   4    2.54    1.77
  -1  -2  -1   98.51    2.09
  -1   6   7   67.87    2.15
  -1   7  -1  514.03    4.09
   0   0   4 3148.95   11.25
   0   1   5  562.57    4.42
  -6  -7   2   92.48    2.54
  -6  -7   5    1.41    2.42
  -6  -6  -2   79.60    2.38
  -6  -4  -5   13.27    1.46
  -6  -3  -6   45.21    2.23
  -5  -6  -1   89.51    2.19
  -5  -6   7   26.36    2.98
  -5  -1  -7   47.14    2.88
  -4  -6   2  140.61    2.58
  -4  -5  -2   15.66    1.57
  -4  -3  -5  110.17    2.04
  -3  -5   0 1208.11    5.00
  -3  -5   5  161.55    3.47
  -3   0  -6    2.45    1.86
  -3   0  11   85.05    3.55
  -3   9  -2   56.44    2.53
  -2   0  -5    1.72    2.26
  -2   2  10   27.33    3.09
  -2   7   8   60.46    2.20
  -2   9   2    1.38    1.63
  -2   9   3  124.55    2.37
  -1   4   8   70.73    2.25
  -1   7   5  198.57    2.67
   0   3   5  303.47    3.28
  -6  -7   1   17.78    1.80
  -6  -5  -4    0.78    1.34
  -6  -2  -7   56.19    3.08
  -4  -6   1  483.71    3.82
  -4  -4  -4  491.08    3.35
  -4  -2  -6   17.47    1.84
  -4   0  -7   -1.16    2.66
  -3  -2  -5   40.97    1.94
  -2  -4   0 2153.54    6.74
  -2   8   6   48.21    2.09
  -1   5   7   46.45    2.39
  -1   6   6  183.65    2.87
  -1   7   4    6.83    1.62
   0   2   5 1410.89    6.14
   0   5   1  775.18    4.37
   0   5   2   33.95    1.71
  -6  -7   0   97.04    2.88
  -5  -6  -2  166.95    2.64
  -4  -6   0  110.14    2.29
  -4  -6   5  225.85    3.94
  -4  -2  11   25.07    2.98
  -3  -4  -3  708.50    3.73
  -3   1  11   38.01    3.29
  -2   5   9   85.98    2.72
  -2   7  -3   51.60    2.70
  -2   7   7   33.59    2.29
  -1   7   3  453.83    3.51
   0   0   3   10.25    2.12
  -6  -6  -3   52.27    1.94
  -5  -7   2    0.85    1.83
  -5  -7   3  173.72    3.42
  -5  -5  -4  102.59    2.31
  -5   2  -8   55.41    5.06
  -5   3  -8    9.48    4.61
  -4  -5  -3  811.52    4.23
  -3  -1  -6  344.16    4.11
  -3   2  11    2.11    3.04
  -3   9  -1   -0.18    1.84
  -2  -3  -3  867.20    4.19
  -2  -2  -4   30.92    1.50
  -2   6   8   16.10    1.82
  -2   8  -1   57.04    1.86
  -2   8   5   41.63    1.57
  -1  -1  -3 2697.09    9.25
  -1   0   7  217.60    3.39
  -1   4   7  401.77    4.33
  -1   6   5   47.26    1.99
  -1   7   1  363.41    2.82
   0   1   4  766.81    5.41
  -6  -7  -1    8.54    2.21
  -6  -5  -5   74.28    2.50
  -6  -4  -6   39.95    1.98
  -5  -7   1  263.25    3.63
  -5  -7   4    3.73    2.12
  -5  -2  -7    2.89    1.67
  -4  -6  -1  440.77    3.57
  -4  -1  -7  340.53    5.05
  -3   5  10   25.89    2.96
  -3   8  -3   50.01    2.75
  -2   0   9    1.95    2.09
  -2   8   4   95.96    2.19
  -1  -3   1 2308.99    8.96
  -1  -2  -2 4589.92   10.82
  -1  -2   5   55.53    3.25
  -1   5   6  428.71    3.89
   0   4   1   32.91    1.80
  -6  -3  -7   11.20    1.83
  -5  -7   0    2.93    1.98
  -5  -6  -3    6.33    2.01
  -5   0  -8   -1.77    3.75
  -4  -4   9    4.28    3.86
  -4  -3  -6  155.45    2.70
  -4  -3  10   45.70    3.71
  -3  -5  -2  638.87    3.78
  -3  -3  -5  485.99    3.55
  -3  -1  10  102.17    3.36
  -3   7   8    2.19    2.32
  -2  -4   5  149.03    4.82
  -2   3   9   56.20    3.04
  -2   5   8   26.59    2.58
  -2   7   6  123.35    2.25
  -2   8   1   63.33    1.96
  -2   8   2   94.22    2.10
  -2   8   3   48.96    1.88
  -1  -1   6  763.94    6.35
  -1   1   7  309.23    3.90
  -1   2   7   16.40    2.21
  -1   6   4  486.06    3.74
  -6  -7  -2   57.42    2.78
  -5  -7   5  110.67    3.61
  -5  -5  -5   28.30    1.84
  -4  -6  -2  178.11    2.63
  -4  -5  -4    0.35    1.58
  -4   5  -7   45.54    6.50
  -3  -4  -4   11.28    2.17
  -3  -2  -6  753.76    5.16
  -3   4  10   19.20    2.97
  -3   9   1    0.92    1.70
  -3   9   2   76.82    2.53
  -3   9   3    2.82    1.36
  -2  -4  -2 1357.61    5.16
  -1  -3   0  251.41    2.78
  -1   0  -4   20.02    2.21
  -1   4   6  182.33    2.95
   0   0   2 6135.30   22.22
   0   1   3 1396.98    7.73
   0   2   3  911.40    5.66
  -5  -3  -7   81.11    3.19
  -4  -6   6   52.98    2.98
  -4  -2  -7  207.11    4.14
  -4  -1  11   11.97    3.31
  -4   8  -4   28.67    3.22
  -3   0  -7  113.55    4.09
  -2   1  -6  512.78    6.54
  -2   7  -2  277.42    3.55
  -2   7   5   13.96    1.35
  -1  -3   3 1828.71   12.68
   0   3   1 1302.15    6.65
  -4   2  -8    1.82    3.80
  -3  -6   1  208.48    2.84
  -3  -5  -3  455.19    3.54
  -3   0  10   25.20    2.90
  -3   2  10  149.56    4.67
  -3   5   9   11.93    2.49
  -3   7  -4    3.08    2.38
  -3   7   7  125.93    2.88
  -3   8   5   46.24    2.21
  -2  -3  -4  967.68    4.37
  -2  -1   8  340.63    5.22
  -2   0  -6 2006.79   10.69
  -2   4   8  177.07    3.05
  -1  -3  -1 2382.16    7.61
  -1   3   6  249.16    3.37
  -5  -7  -2    3.73    1.40
  -5  -2  -8   59.73    3.78
  -4  -7   1   54.21    2.29
  -4  -7   2  252.05    3.76
  -4   0  11   -0.01    3.54
  -3  -6   3   40.84    2.14
  -3  -1  -7  155.84    4.17
  -3   1  10   68.61    3.74
  -3   8  -2   42.42    2.02
  -2  -5   0  231.75    2.60
  -2  -5   1  920.05    4.94
  -2  -4  -3  406.79    3.12
  -2   5   7  263.39    3.15
  -1   5  -2  930.32    6.17
   0   2   2  136.21    2.51
  -5  -7   6    0.73    2.61
  -4  -7   0  194.88    3.13
  -4  -7   3   36.22    2.23
  -4  -1  -8  100.62    4.38
  -4   1  11   16.25    3.70
  -4   2  11   23.30    3.74
  -3  -6  -1  166.05    2.54
  -3  -4  -5  552.38    3.93
  -3  -3  -6   95.28    2.55
  -3   8   4   52.95    2.04
  -2   7   3   34.59    1.65
  -1  -1  -4 2727.87    9.32
  -1   2   6 1629.37    7.16
   0   1   2 3313.64   13.07
   0   2   1 4503.48   14.24
  -5  -7  -3   80.16    2.41
  -5  -6  -5   15.86    2.01
  -4  -7  -1   29.78    2.01
  -3  -5  -4  231.28    2.68
  -3   7   6    0.97    1.37
  -3   8   3   64.32    2.11
  -2  -5  -1  735.02    3.88
  -2  -5   3 1607.95    8.42
  -2  -1  -6  557.50    4.78
  -2   4   7   10.89    2.08
  -2   6   5  323.92    3.11
  -2   7   1   75.53    1.91
  -1  -3  -2  713.23    4.20
  -1   1   6  746.48    5.03
  -1   5   3  503.43    3.43
  -5  -8   0   64.34    2.91
  -5  -8   1   34.73    2.72
  -5  -8   2   44.89    2.78
  -5  -3  -8   12.41    2.79
  -4  -7  -2  173.56    2.95
  -4  -7   4  125.91    3.14
  -4   4  10   65.40    3.53
  -3  -6  -2  249.71    2.67
  -3  -2  -7    5.35    2.67
  -3   3   9  122.77    3.85
  -3   8   1   83.63    2.20
  -2  -3  -5  241.54    2.94
  -1   5   2 1128.08    4.72
  -5  -8  -1   39.41    2.60
  -5  -8   3   40.58    2.74
  -5  -7  -4   -1.94    2.05
  -4  -5  -6   15.49    1.78
  -4  -2  -8    3.34    2.25
  -4   5   9   50.98    3.00
  -4   8   5   26.06    2.05
  -3   7   5  133.20    2.46
  -2  -4  -4  940.44    4.30
  -2  -2  -6   45.50    2.61
  -1  -2  -4 3900.34    9.89
  -1   5  -1  132.92    2.32
  -4  -4  -7    1.21    1.43
  -3  -6  -3   26.66    1.47
   0   0   0    0.00    0.00
_computing_structure_solution     'SHELXT 2018/2 (Sheldrick, 2018)'
_computing_structure_solution     'SHELXT 2018/2 (Sheldrick, 2018)'
_computing_structure_solution     'SHELXT 2018/2 (Sheldrick, 2018)'
;
_shelx_hkl_checksum              24657
_shelx_res_file
;
TITL pyra4 in P2/n #13
    4.res
    created by SHELXL-2018/3 at 21:40:18 on 17-Dec-2019
REM reset to P2/n #13
CELL 0.71073 7.1803 7.2139 8.6574 90 100.603 90
ZERR 2 0.001 0.0018 0.0012 0 0.011 0
LATT 1
SYMM 0.5-X,+Y,0.5-Z
SFAC C H I N O
UNIT 12 18 2 4 2
L.S. 20
PLAN  2
SIZE 0.142 0.365 0.657
TEMP -153.15
HTAB N2 I1
BOND $H
fmap 2
acta
OMIT -2 58
REM <olex2.extras>
REM <HklSrc "%.\\4.hkl">
REM </olex2.extras>
WGHT    0.096600    2.721200
FVAR       0.86900
I1    3    0.250000    0.361126    0.750000    10.50000    0.03844    0.03948 =
         0.04188    0.00000    0.00829    0.00000
C1    1    0.250000    0.477530    0.250000    10.50000    0.03806    0.03095 =
         0.04846    0.00000    0.00607    0.00000
C3    1    0.259308    0.772303    0.388070    11.00000    0.03426    0.03324 =
         0.04891    0.00292    0.00258   -0.00329
N2    4    0.263165    0.583692    0.383725    11.00000    0.04182    0.04164 =
         0.03897    0.00076    0.00531    0.00552
AFIX  43
H2    2    0.275074    0.524688    0.473976    11.00000   -1.20000
AFIX   0
C7    1    0.266397    0.863881    0.541586    11.00000    0.07417    0.04463 =
         0.04953   -0.00304    0.00842   -0.00634
AFIX 137
H7A   2    0.143381    0.851002    0.574207    11.00000   -1.50000
H7B   2    0.295644    0.995667    0.532394    11.00000   -1.50000
H7C   2    0.364872    0.805749    0.620039    11.00000   -1.50000
AFIX   0
O1    5    0.250000    0.308934    0.250000    10.50000    0.08911    0.03338 =
         0.05585    0.00000    0.02138    0.00000
C4    1    0.250000    0.871013    0.250000    10.50000    0.04191    0.02539 =
         0.05300    0.00000    0.00367    0.00000
AFIX  43
H4    2    0.249999    1.002703    0.250000    10.50000   -1.20000
AFIX   0
HKLF 4
REM  pyra4 in P2/n #13
REM wR2 = 0.1646, GooF = S = 1.094, Restrained GooF = 1.094 for all data
REM R1 = 0.0589 for 1143 Fo > 4sig(Fo) and 0.0597 for all 1166 data
REM 49 parameters refined using 0 restraints
END
WGHT      0.0966      2.7212
REM Highest difference peak  1.550,  deepest hole -1.288,  1-sigma level  0.247
Q1    1   0.2472  0.3611  0.4456  11.00000  0.05    1.55
Q2    1   0.2432  0.3518  0.5848  11.00000  0.05    1.40
;
_shelx_res_checksum              56578
loop_
_space_group_symop_operation_xyz
'x, y, z'
'-x+1/2, y, -z+1/2'
'-x, -y, -z'
'x-1/2, -y, z-1/2'
loop_
_atom_site_type_symbol
_atom_site_label
_atom_site_fract_x
_atom_site_fract_y
_atom_site_fract_z
_atom_site_U_iso_or_equiv
_atom_site_adp_type
_atom_site_calc_flag
_atom_site_occupancy
_atom_site_disorder_assembly
_atom_site_disorder_group
I I1 0.250000 0.36113(8) 0.750000 0.0398(3) Uani d 1 . .
C C1 0.250000 0.4775(14) 0.250000 0.0394(19) Uani d 1 . .
C C3 0.2593(9) 0.7723(10) 0.3881(9) 0.0394(13) Uani d 1 . .
N N2 0.2632(9) 0.5837(9) 0.3837(7) 0.0411(12) Uani d 1 . .
H H2 0.275074 0.524688 0.473976 0.049 Uiso calc 1 . .
C C7 0.2664(18) 0.8639(11) 0.5416(12) 0.056(2) Uani d 1 . .
H H7A 0.143381 0.851002 0.574207 0.085 Uiso calc 1 . .
H H7B 0.295644 0.995667 0.532394 0.085 Uiso calc 1 . .
H H7C 0.364872 0.805749 0.620039 0.085 Uiso calc 1 . .
O O1 0.250000 0.3089(13) 0.250000 0.058(2) Uani d 1 . .
C C4 0.250000 0.8710(12) 0.250000 0.041(2) Uani d 1 . .
H H4 0.249999 1.002703 0.250000 0.049 Uiso calc 1 . .
loop_
_atom_site_aniso_label
_atom_site_aniso_U_11
_atom_site_aniso_U_22
_atom_site_aniso_U_33
_atom_site_aniso_U_12
_atom_site_aniso_U_13
_atom_site_aniso_U_23
I1 0.0384(4) 0.0395(4) 0.0419(4) 0.000 0.0083(2) 0.000
C1 0.038(4) 0.031(4) 0.048(5) 0.000 0.006(4) 0.000
C3 0.034(3) 0.033(3) 0.049(3) -0.003(2) 0.003(2) 0.003(3)
N2 0.042(3) 0.042(3) 0.039(3) 0.006(2) 0.005(2) 0.001(2)
C7 0.074(6) 0.045(5) 0.050(5) -0.006(3) 0.008(4) -0.003(3)
O1 0.089(7) 0.033(4) 0.056(5) 0.000 0.021(4) 0.000
C4 0.042(5) 0.025(4) 0.053(6) 0.000 0.004(4) 0.000
loop_
_atom_type_symbol
_atom_type_description
_atom_type_scat_dispersion_real
_atom_type_scat_dispersion_imag
_atom_type_scat_source
C C 0.0033 0.0016 'International Tables Vol C Tables 4.2.6.8 and 6.1.1.4'
H H 0.0000 0.0000 'International Tables Vol C Tables 4.2.6.8 and 6.1.1.4'
I I -0.4742 1.8119 'International Tables Vol C Tables 4.2.6.8 and 6.1.1.4'
N N 0.0061 0.0033 'International Tables Vol C Tables 4.2.6.8 and 6.1.1.4'
O O 0.0106 0.0060 'International Tables Vol C Tables 4.2.6.8 and 6.1.1.4'
loop_
_geom_angle_atom_site_label_1
_geom_angle_atom_site_label_2
_geom_angle_atom_site_label_3
_geom_angle_site_symmetry_1
_geom_angle_site_symmetry_3
_geom_angle
_geom_angle_publ_flag
N2 C1 N2 2 . 112.4(9) ?
O1 C1 N2 . 2 123.8(4) ?
O1 C1 N2 . . 123.8(4) ?
N2 C3 C7 . . 118.3(7) ?
N2 C3 C4 . . 119.3(7) ?
C4 C3 C7 . . 122.4(7) ?
C1 N2 H2 . . 117.3 ?
C3 N2 C1 . . 125.5(7) ?
C3 N2 H2 . . 117.3 ?
C3 C7 H7A . . 109.5 ?
C3 C7 H7B . . 109.5 ?
C3 C7 H7C . . 109.5 ?
H7A C7 H7B . . 109.5 ?
H7A C7 H7C . . 109.5 ?
H7B C7 H7C . . 109.5 ?
C3 C4 C3 2 . 118.0(9) ?
C3 C4 H4 . . 121.0 ?
C3 C4 H4 2 . 121.0 ?
loop_
_geom_bond_atom_site_label_1
_geom_bond_atom_site_label_2
_geom_bond_site_symmetry_2
_geom_bond_distance
_geom_bond_publ_flag
C1 N2 . 1.377(8) ?
C1 N2 2 1.377(8) ?
C1 O1 . 1.216(14) ?
C3 N2 . 1.362(9) ?
C3 C7 . 1.477(12) ?
C3 C4 . 1.382(8) ?
N2 H2 . 0.8800 ?
C7 H7A . 0.9800 ?
C7 H7B . 0.9800 ?
C7 H7C . 0.9800 ?
C4 H4 . 0.9500 ?
loop_
_geom_hbond_atom_site_label_D
_geom_hbond_atom_site_label_H
_geom_hbond_atom_site_label_A
_geom_hbond_site_symmetry_A
_geom_hbond_distance_DH
_geom_hbond_distance_HA
_geom_hbond_distance_DA
_geom_hbond_angle_DHA
_geom_hbond_publ_flag
N2 H2 I1 . 0.88 2.70 3.571(7) 170.3 yes

_cod_database_fobs_code 2022135
