#------------------------------------------------------------------------------
#$Date: 2021-06-08 08:11:41 +0300 (Tue, 08 Jun 2021) $
#$Revision: 266253 $
#$URL: file:///home/coder/svn-repositories/cod/cif/2/02/23/2022389.cif $
#------------------------------------------------------------------------------
#
# This file is available in the Crystallography Open Database (COD),
# http://www.crystallography.net/. The original data for this entry
# were provided by IUCr Journals, http://journals.iucr.org/.
#
# The file may be used within the scientific community so long as
# proper attribution is given to the journal article from which the
# data were obtained.
#
data_2022389
loop_
_publ_author_name
'Ma\/lecka, Magdalena'
'Kusz, Joachim'
'Mayer, Peter'
'Sobiesiak, Marta'
'Budzisz, Elzbieta'
_publ_section_title
;
 Zinc(II) and nickel(II) complexes of
 3,5-dimethyl-1-(pyridin-2-yl)-1H-pyrazole: relationship between
 fluorescence and crystal packing
;
_journal_coeditor_code           WP3016
_journal_issue                   7
_journal_name_full
'Acta Crystallographica Section C Structural Chemistry'
_journal_paper_doi               10.1107/S2053229621005374
_journal_volume                  77
_journal_year                    2021
_chemical_formula_iupac          '[Zn Cl2 (C10 H11 N3)]'
_chemical_formula_moiety         'C10 H11 Cl2 N3 Zn'
_chemical_formula_sum            'C10 H11 Cl2 N3 Zn'
_chemical_formula_weight         309.49
_chemical_name_systematic
Dichlorido[3,5-dimethyl-1-(pyridin-2-yl-\k<i>N</i>)-1<i>H</i>-pyrazole-\k<i>N</i>^2^]zinc(II)
_space_group_crystal_system      triclinic
_space_group_IT_number           2
_space_group_name_Hall           '-P 1'
_space_group_name_H-M_alt        'P -1'
_atom_sites_solution_hydrogens   geom
_audit_creation_method           SHELXL-2014/7
_cell_angle_alpha                89.682(4)
_cell_angle_beta                 72.145(5)
_cell_angle_gamma                71.405(5)
_cell_formula_units_Z            2
_cell_length_a                   7.4115(4)
_cell_length_b                   8.5345(4)
_cell_length_c                   10.7790(5)
_cell_measurement_reflns_used    2568
_cell_measurement_temperature    100(2)
_cell_measurement_theta_max      35.2540
_cell_measurement_theta_min      3.4230
_cell_volume                     611.87(6)
_computing_cell_refinement
;
CrysAlis PRO (Rigaku OD, 2015)
;
_computing_data_collection
;
CrysAlis PRO (Rigaku OD, 2015)
;
_computing_data_reduction
;
CrysAlis PRO (Rigaku OD, 2015)
;
_computing_molecular_graphics
;
DIAMOND (Brandenburg & Putz, 1999)
;
_computing_publication_material
;
SHELXL2014 (Sheldrick, 2015b) and publCIF (Westrip, 2010)
;
_computing_structure_refinement
;
SHELXL2014 (Sheldrick, 2015b)
;
_computing_structure_solution
;
SHELXT (Sheldrick, 2015a)
;
_diffrn_ambient_temperature      100(2)
_diffrn_detector                 'CCD plate'
_diffrn_detector_area_resol_mean 10.4498
_diffrn_measured_fraction_theta_full 0.974
_diffrn_measured_fraction_theta_max 0.967
_diffrn_measurement_device       'four-circle diffractometer'
_diffrn_measurement_device_type
'Rigaku OD SuperNova Dual source diffractometer with an Atlas detector'
_diffrn_measurement_method       omega-scan
_diffrn_radiation_monochromator  mirror
_diffrn_radiation_probe          x-ray
_diffrn_radiation_type           'Mo K\a'
_diffrn_radiation_wavelength     0.71073
_diffrn_reflns_av_R_equivalents  0.0119
_diffrn_reflns_av_unetI/netI     0.0173
_diffrn_reflns_limit_h_max       9
_diffrn_reflns_limit_h_min       -9
_diffrn_reflns_limit_k_max       9
_diffrn_reflns_limit_k_min       -10
_diffrn_reflns_limit_l_max       13
_diffrn_reflns_limit_l_min       -12
_diffrn_reflns_number            4062
_diffrn_reflns_theta_full        25.242
_diffrn_reflns_theta_max         26.500
_diffrn_reflns_theta_min         3.063
_diffrn_source                   'micro-focus sealed X-ray tube'
_exptl_absorpt_coefficient_mu    2.418
_exptl_absorpt_correction_T_max  1.00000
_exptl_absorpt_correction_T_min  0.55917
_exptl_absorpt_correction_type   multi-scan
_exptl_absorpt_process_details
;
(CrysAlis PRO; Rigaku OD, 2015)
;
_exptl_crystal_colour            colorless
_exptl_crystal_density_diffrn    1.680
_exptl_crystal_description       block
_exptl_crystal_F_000             312
_exptl_crystal_size_max          0.32
_exptl_crystal_size_mid          0.26
_exptl_crystal_size_min          0.2
_refine_diff_density_max         0.531
_refine_diff_density_min         -0.271
_refine_ls_extinction_method     none
_refine_ls_goodness_of_fit_ref   1.015
_refine_ls_hydrogen_treatment    constr
_refine_ls_matrix_type           full
_refine_ls_number_parameters     147
_refine_ls_number_reflns         2459
_refine_ls_number_restraints     0
_refine_ls_restrained_S_all      1.015
_refine_ls_R_factor_all          0.0268
_refine_ls_R_factor_gt           0.0236
_refine_ls_shift/su_max          0.016
_refine_ls_shift/su_mean         0.000
_refine_ls_structure_factor_coef Fsqd
_refine_ls_weighting_details
'w=1/[\s^2^(Fo^2^)+(0.0381P)^2^+0.1820P] where P=(Fo^2^+2Fc^2^)/3'
_refine_ls_weighting_scheme      calc
_refine_ls_wR_factor_gt          0.0642
_refine_ls_wR_factor_ref         0.0671
_reflns_number_gt                2245
_reflns_number_total             2459
_reflns_threshold_expression     'I > 2\s(I)'
_cod_data_source_file            wp3016sup1.cif
_cod_data_source_block           compound1
_cod_database_code               2022389
_shelx_space_group_comment
;
The symmetry employed for this shelxl refinement is uniquely defined
by the following loop, which should always be used as a source of
symmetry information in preference to the above space-group names.
They are only intended as comments.
;
_shelx_hkl_file
;
   0   0  -2 475627. 4168.69   3
   0   0   2 467700. 4214.37   1
   0   0   3 6419.89 159.165   1
   0   0  -3 6733.32 131.840   3
   0   0   3 7076.97 136.778   3
   0   0   4 6715.02 184.294   1
   0   0   4 6573.21 151.543   3
   0   0  -4 6282.65 143.328   3
   0   0  -5 34850.8 460.717   3
   0   0   5 35097.6 541.279   1
   0   0   5 35470.5 469.422   3
   0   0   6 3446.58 175.784   2
   0   0  -6 3126.01 121.537   3
   0   0   6 2972.73 159.161   1
   0   0   7 91964.7 1192.92   1
   0   0   7 94074.3 1220.79   2
   0   0   8 4575.56 230.116   1
   0   0   8 4936.73 251.236   2
   0   0   9 5946.08 276.511   1
   0   0   9 5528.52 280.478   2
   0   0  10 353.344 101.755   1
   0   0  10 492.140 118.473   2
   0   0  11 2150.71 202.225   2
   0   0  11 2158.83 198.927   1
   0   0  12 3288.04 251.518   1
   0   0  12 3078.97 252.615   2
   0   0  13 27.6674 102.422   2
   0   0  13 83.2768 102.770   1
   0   0  14 698.912 158.466   1
   0   0  14 411.116 139.539   2
   0   0  15-4.96372 104.838   2
   0   0 -16-0.32897 100.334   4
   0   0  16-10.0848 120.015   2
   0  -1  16 338.960 135.168   2
   0  -1  15 176.743 123.628   2
   0  -1  14 821.381 172.663   1
   0  -1  14 671.052 158.676   2
   0  -1  13 963.407 174.546   2
   0  -1  13 917.757 164.711   1
   0  -1  12 836.046 151.052   2
   0  -1  12 1050.45 155.787   1
   0  -1  11 60.2430 89.4184   2
   0  -1  11 161.146 94.6092   1
   0  -1  10 790.723 129.629   2
   0  -1  10 543.794 110.549   1
   0  -1   9 18.1991 75.5940   2
   0  -1   9 25.7084 76.3064   1
   0  -1   8 21219.3 513.916   1
   0  -1   8 21373.0 513.147   2
   0  -1   7 56036.6 844.852   2
   0  -1   7 53554.6 835.876   1
   0  -1   7 52716.8 610.663   3
   0  -1   6 47843.6 539.751   3
   0  -1   6 49127.4 736.002   2
   0  -1   6 48909.6 742.407   1
   0  -1   5 93526.1 1090.02   2
   0  -1   5 92088.1 899.809   3
   0  -1   5 93663.7 1102.38   1
   0  -1   4 5405.16 97.3670   3
   0  -1   4 5606.49 176.850   1
   0  -1   4 5661.51 173.668   2
   0  -1   3 33176.4 453.166   1
   0  -1   3 31137.5 430.234   2
   0  -1   2 202917. 1870.21   1
   0  -1   2 200548. 1854.86   2
   0  -1  -1 118701. 1133.38   3
   0  -1  -2 67686.4 733.431   3
   0   1   2 69030.5 680.273   1
   0   1   3 53344.2 611.813   1
   0  -1  -3 55187.8 604.351   1
   0   1   3 57107.1 666.436   3
   0  -1  -3 53933.9 643.763   3
   0   1   4 72864.9 837.265   1
   0  -1  -4 74228.1 845.685   3
   0   1   5 14960.2 315.985   1
   0  -1  -5 15197.4 306.594   3
   0   1   6 47517.3 699.701   1
   0  -1  -6 47873.1 665.193   3
   0   1   7 35589.0 625.351   1
   0  -1  -7 36235.1 581.233   3
   0   1   8 6955.31 272.175   1
   0  -1  -8 7237.28 244.250   3
   0  -1  -9 4028.02 189.618   3
   0   1   9 3628.01 215.972   1
   0   1   9 3895.45 244.741   2
   0   1  10 17457.6 536.303   2
   0   1  10 16724.8 497.153   1
   0   1  11 2043.91 192.295   1
   0   1  11 2419.82 225.116   2
   0   1  12 770.314 139.644   1
   0   1  12 351.568 116.978   2
   0   1  13 542.278 134.090   1
   0   1  13 436.286 128.373   2
   0   1  14 75.3405 107.467   2
   0   1  15 126.376 105.491   2
   0  -1 -15 23.4472 107.425   4
   0   1  16-279.921 138.954   2
   0  -1 -16-188.127 132.282   4
   0  -2  16 12.1734 98.2804   2
   0  -2  15 353.843 140.602   1
   0  -2  15 187.872 114.784   2
   0  -2  14 277.975 129.203   2
   0  -2  14 176.864 127.114   1
   0  -2  13 3208.37 279.898   2
   0  -2  13 3127.77 278.932   1
   0  -2  12 2157.23 216.858   2
   0  -2  12 2572.88 237.991   1
   0  -2  11 4282.20 283.383   2
   0  -2  11 4497.83 288.261   1
   0  -2  10 24.0302 85.6175   2
   0  -2  10-73.9789 94.7729   1
   0  -2   9 4808.16 257.637   2
   0  -2   9 4964.88 265.804   1
   0  -2   8 4996.09 255.076   1
   0  -2   8 4661.80 234.389   2
   0  -2   7 1209.30 116.666   2
   0  -2   7 1005.60 120.252   1
   0  -2   6 121912. 1448.03   1
   0  -2   6 121860. 1423.77   2
   0  -2   5 9954.94 267.648   2
   0  -2   5 10148.9 281.913   1
   0  -2   4 108345. 1206.66   1
   0  -2   4 107019. 1186.05   2
   0  -2   3 51287.9 632.942   2
   0  -2   3 50068.8 497.040   3
   0  -2   3 52224.4 650.466   1
   0  -2   2 173446. 1568.10   3
   0   2  -2 173091. 1630.37   2
   0   2  -2 178191. 1637.61   1
   0   2  -2 176567. 1580.55   3
   0  -2   2 170822. 1648.27   2
   0  -2   2 170602. 1645.64   1
   0   2  -1 55495.9 605.390   3
   0  -2   1 54301.6 581.314   1
   0   2  -1 54593.5 573.960   1
   0  -2   1 55007.2 601.011   3
   0   2  -1 55337.5 601.553   2
   0  -2   1 55975.3 618.904   2
   0  -2   0 20558.6 310.592   3
   0  -2   0 20144.7 305.310   2
   0  -2   0 20634.6 225.990   1
   0   2   0 20933.3 221.691   1
   0   2   0 20246.0 292.686   2
   0  -2  -1 149373. 1481.96   3
   0  -2  -1 149881. 1451.04   4
   0  -2  -2 23146.2 377.802   3
   0  -2  -2 23222.7 380.569   4
   0   2   2 23415.3 263.866   1
   0  -2  -2 23622.0 253.416   1
   0  -2  -3 240019. 2134.93   1
   0   2   3 236014. 2153.50   1
   0  -2  -3 236627. 2305.23   3
   0  -2  -4 5389.09 187.565   3
   0   2   4 5339.20 149.313   1
   0  -2  -5 110575. 1271.83   3
   0   2   5 109559. 1197.46   1
   0  -2  -6 50403.5 748.261   3
   0   2   6 49682.3 713.503   1
   0   2   7 791.239 90.4189   1
   0  -2  -7 743.635 92.7965   3
   0   2   8 12985.1 370.164   1
   0  -2  -8 12693.6 362.902   3
   0  -2  -9 5746.25 249.052   3
   0   2   9 5726.30 261.852   1
   0  -2 -10 8411.09 312.660   3
   0   2  10 8095.66 336.383   1
   0   2  11 1085.50 166.864   2
   0   2  11 899.795 134.976   1
   0   2  12 2093.26 207.001   1
   0   2  12 1700.34 204.695   2
   0   2  13 741.509 159.643   2
   0   2  14 504.511 153.147   2
   0  -2 -14 257.318 131.097   4
   0  -2 -15 82.8533 125.211   4
   0   2  15 1.02624 105.069   2
   0  -3  16 170.190 118.618   2
   0  -3  15 198.468 126.966   1
   0  -3  15 116.198 109.881   2
   0  -3  14 467.341 130.478   2
   0  -3  14 697.310 166.565   1
   0  -3  13 1049.08 176.902   2
   0  -3  13 816.888 164.699   1
   0  -3  12 1260.84 183.375   1
   0  -3  12 1321.89 179.226   2
   0  -3  11 1005.88 161.599   1
   0  -3  11 1273.67 171.344   2
   0  -3  10 8061.48 358.483   2
   0  -3  10 7614.82 355.257   1
   0  -3   9 8644.16 362.765   1
   0  -3   9 8734.77 353.688   2
   0  -3   8 135.265 76.2206   2
   0  -3   8 83.9397 89.7609   1
   0  -3   7 40683.6 718.192   2
   0  -3   7 40259.3 739.875   1
   0  -3   6 77359.5 1041.90   2
   0  -3   6 78864.8 1078.80   1
   0  -3   5 5302.47 203.879   2
   0  -3   5 5343.87 211.812   1
   0  -3   4 56842.4 763.997   1
   0  -3   4 56203.0 754.763   2
   0  -3   4 55189.9 574.207   3
   0  -3   3 174237. 1777.90   2
   0  -3   3 175665. 1644.89   3
   0   3  -3 176044. 1652.51   3
   0  -3   3 177289. 1771.18   1
   0  -3   2 148761. 1456.56   3
   0   3  -2 149729. 1466.07   3
   0  -3   2 148668. 1482.27   1
   0  -3   2 148205. 1519.65   2
   0   3  -1 70727.3 723.548   1
   0  -3   1 69205.2 819.144   2
   0  -3   1 69578.7 735.087   1
   0  -3   1 69039.0 800.465   3
   0  -3   0 6003.35 180.797   3
   0   3   0 6765.44 173.786   4
   0   3   0 6255.13 103.759   1
   0  -3  -1 34830.4 528.760   3
   0  -3  -2 73590.8 902.133   4
   0  -3  -2 73306.2 911.449   3
   0   3   3 2468.97 71.5158   1
   0  -3  -3 2532.42 66.6603   1
   0  -3  -3 2607.40 144.562   3
   0  -3  -3 2516.16 142.480   4
   0  -3  -4 369149. 3348.50   1
   0  -3  -4 378030. 3627.99   3
   0  -3  -4 378008. 3680.08   4
   0   3   4 378340. 3385.57   1
   0   3   5 59531.2 726.903   1
   0  -3  -5 60891.8 881.937   3
   0  -3  -6 14115.6 385.253   3
   0   3   6 13892.5 314.457   1
   0   3   7 3637.78 173.040   1
   0  -3  -7 3619.00 200.397   3
   0   3   8 58.6761 43.3975   1
   0  -3  -8 89.9450 62.3840   3
   0   3   9 1218.11 123.567   1
   0  -3  -9 1194.78 133.204   3
   0  -3 -10 127.967 79.2183   3
   0   3  10 128.986 67.6869   1
   0  -3 -11 5371.00 276.065   3
   0  -3 -11 5455.69 365.927   4
   0   3  11 5270.46 286.064   1
   0  -3 -12 3293.12 308.600   4
   0   3  12 3573.42 286.389   2
   0   3  13 423.367 147.228   2
   0  -3 -13 188.139 132.073   4
   0   3  14 607.258 158.269   2
   0  -3 -14 486.080 164.318   4
   0  -3 -15 62.0300 112.373   4
   0   3  15 98.9888 111.501   2
   0  -4  16 72.2399 102.258   2
   0  -4  15 128.343 113.795   2
   0  -4  14 73.0993 91.3449   2
   0  -4  14 260.144 130.849   1
   0  -4  13 361.088 135.248   1
   0  -4  13 145.004 93.4681   2
   0  -4  12 1012.18 160.779   2
   0  -4  12 1175.45 178.636   1
   0  -4  11-82.3217 100.796   1
   0  -4  11-59.1129 87.8993   2
   0  -4  10 11421.7 435.431   2
   0  -4  10 11620.0 449.455   1
   0  -4   9 2040.40 196.344   1
   0  -4   9 1721.41 172.459   2
   0  -4   8 74042.0 1159.84   1
   0  -4   8 75774.3 1156.95   2
   0  -4   7 1642.78 151.276   1
   0  -4   7 1592.66 138.786   2
   0  -4   6 17352.1 439.816   1
   0  -4   6 16759.4 424.140   2
   0  -4   5 4971.31 121.778   3
   0  -4   5 5107.04 211.213   2
   0  -4   5 5331.68 220.875   1
   0  -4   4 7846.53 250.776   2
   0  -4   4 7942.99 247.739   1
   0  -4   4 7905.76 178.469   3
   0   4  -4 7572.62 180.726   3
   0  -4   3 165556. 1752.45   2
   0  -4   3 165151. 1708.93   1
   0  -4   3 163374. 1631.70   3
   0  -4   2 4093.53 150.366   3
   0  -4   2 4376.56 171.394   2
   0  -4   2 4103.64 145.044   1
   0  -4   1 158867. 1643.74   3
   0  -4   1 154831. 1658.93   2
   0  -4   1 157111. 1519.60   1
   0   4  -1 159000. 1494.84   1
   0  -4   0 69374.5 896.144   3
   0   4   0 70965.7 684.943   1
   0  -4  -1 993.096 90.4525   3
   0  -4  -2 327.067 65.9288   3
   0  -4  -3 24344.1 486.707   4
   0  -4  -3 24435.0 503.858   3
   0  -4  -4 49561.0 792.280   3
   0  -4  -4 51085.9 810.069   4
   0  -4  -5 26.5167 67.8291   4
   0  -4  -5 112.305 23.7024   1
   0  -4  -5 25.7147 71.6334   3
   0   4   6 33732.7 506.205   1
   0  -4  -6 32571.1 663.155   3
   0  -4  -6 32833.3 736.877   4
   0  -4  -7 379.647 89.0629   3
   0  -4  -7 295.851 101.167   4
   0   4   7 417.040 61.2110   1
   0  -4  -8 3999.49 278.177   4
   0  -4  -8 3719.59 227.291   3
   0   4   8 4054.09 189.254   1
   0  -4  -9 4.00924 66.6298   3
   0  -4  -9-58.8551 107.847   4
   0  -4 -10 1352.80 155.734   3
   0  -4 -10 1266.57 194.439   4
   0  -4 -11 4903.20 367.037   4
   0  -4 -11 4901.64 285.198   3
   0  -4 -12 27.2890 125.650   4
   0   4  12 359.373 148.279   2
   0   4  13 109.666 124.976   2
   0  -4 -13 410.471 157.433   4
   0   4  14 609.300 160.812   2
   0  -4 -14 707.010 188.540   4
   0  -5  16 114.203 104.839   2
   0  -5  15 480.747 145.344   2
   0  -5  14 128.819 105.663   2
   0  -5  14 112.576 120.197   1
   0  -5  13 758.577 166.025   1
   0  -5  13 495.940 132.738   2
   0  -5  12 69.1789 103.648   1
   0  -5  12-320.600 123.778   2
   0  -5  11 164.188 106.859   1
   0  -5  11-4.76784 93.2050   2
   0  -5  10 1541.52 185.983   1
   0  -5  10 1267.34 163.600   2
   0  -5   9 10209.7 411.207   1
   0  -5   9 9473.24 390.062   2
   0  -5   8 13857.7 449.200   2
   0  -5   8 14365.8 463.072   1
   0  -5   7 9993.09 360.543   1
   0  -5   7 9635.98 351.333   2
   0  -5   6 160.911 25.7256   3
   0  -5   6 106.602 67.8190   1
   0  -5   5 321.250 71.1598   2
   0  -5   5 402.631 45.9290   3
   0  -5   5 364.117 73.7168   1
   0  -5   4 24403.6 480.721   1
   0  -5   4 24037.7 404.138   3
   0  -5   4 23767.4 505.749   2
   0  -5   3 43605.7 624.978   3
   0  -5   3 42962.3 705.146   2
   0  -5   3 43072.4 645.262   1
   0  -5   2 143488. 1493.52   1
   0  -5   2 143870. 1559.34   3
   0  -5   2 141968. 1616.40   2
   0  -5   1 96526.7 1196.28   2
   0   5  -1 95553.7 978.534   1
   0  -5   1 96723.7 1171.02   3
   0   5   0 39462.2 422.088   1
   0  -5   0 39299.5 651.335   3
   0  -5  -1 2924.59 168.704   3
   0  -5  -2 13922.5 385.252   3
   0  -5  -3 43194.7 769.277   3
   0  -5  -4 37170.1 728.733   3
   0  -5  -5 31140.1 679.555   4
   0  -5  -5 31560.4 673.033   3
   0  -5  -6 10379.8 412.277   4
   0  -5  -6 10608.6 388.257   3
   0  -5  -7 7312.41 364.607   4
   0  -5  -7 7149.37 324.434   3
   0  -5  -8 172.863 89.6727   3
   0  -5  -8 94.1634 104.627   4
   0  -5  -9 3920.40 261.224   3
   0  -5  -9 3911.78 305.834   4
   0  -5 -10 3824.55 320.228   4
   0  -5 -10 3684.27 259.929   3
   0  -5 -11 270.528 143.821   4
   0  -5 -11 245.986 109.316   3
   0  -5 -12 60.1925 80.8697   3
   0  -5 -12 70.3661 121.587   4
   0   5  13-28.3676 115.461   2
   0  -5 -13 143.934 132.880   4
   0  -5 -14-36.4899 111.009   4
   0   5  14 257.579 135.162   2
   0  -6  15-14.4726 87.0590   2
   0  -6  14 828.412 166.564   2
   0  -6  13 60.4271 105.346   1
   0  -6  13 197.193 101.487   2
   0  -6  12 546.206 145.757   1
   0  -6  12 492.758 125.261   2
   0  -6  11 223.955 98.4346   2
   0  -6  11 224.702 113.225   1
   0  -6  10 1437.10 186.445   1
   0  -6  10 1563.99 177.519   2
   0  -6   9 10300.6 419.193   1
   0  -6   9 9549.72 401.774   2
   0  -6   8 191.327 80.2936   2
   0  -6   8-1.04394 80.2205   1
   0  -6   7 11754.1 401.051   1
   0  -6   7 11441.2 403.756   2
   0  -6   6-11.8401 54.2668   2
   0  -6   6 10.6608 66.2937   1
   0  -6   6 43.6337 27.7278   3
   0  -6   5 50368.4 879.100   2
   0  -6   5 53169.9 706.845   3
   0  -6   5 51766.4 839.136   1
   0  -6   4 10218.9 277.809   3
   0  -6   4 9780.37 335.333   2
   0  -6   4 10139.1 309.351   1
   0  -6   3 55140.0 796.206   3
   0  -6   3 53849.0 866.189   2
   0  -6   3 54554.0 779.330   1
   0  -6   2 138290. 1588.97   3
   0  -6   2 137845. 1642.21   2
   0  -6   1 3284.48 185.253   3
   0   6   0 100044. 945.513   1
   0  -6   0 102305. 1314.96   3
   0  -6  -1 22186.5 525.585   3
   0  -6  -2 94575.9 1313.19   3
   0  -6  -3 1961.55 173.941   3
   0  -6  -4 7765.24 330.911   3
   0  -6  -5 14336.7 470.615   3
   0  -6  -6 3172.47 232.143   3
   0  -6  -7 9152.59 426.416   4
   0  -6  -7 8932.34 388.519   3
   0  -6  -8 434.388 138.348   4
   0  -6  -8 520.718 127.112   3
   0  -6  -9 10501.9 509.361   4
   0  -6  -9 10113.6 441.477   3
   0  -6 -10 306.852 121.585   3
   0  -6 -10 222.015 128.222   4
   0  -6 -11 5.09498 112.655   4
   0  -6 -11 230.755 104.463   3
   0  -6 -12 121.035 93.0033   3
   0  -6 -12 7.39742 111.338   4
   0   6  13-46.9783 108.166   2
   0  -7  15 29.7478 87.0114   2
   0  -7  14 253.911 110.319   2
   0  -7  13 252.633 107.693   2
   0  -7  12 250.861 104.132   2
   0  -7  11 1595.44 205.219   1
   0  -7  11 1529.75 187.852   2
   0  -7  10 958.545 153.326   2
   0  -7  10 1031.19 165.993   1
   0  -7   9 2300.97 210.711   2
   0  -7   9 2382.29 222.466   1
   0  -7   8 770.502 127.660   2
   0  -7   8 622.960 122.486   1
   0  -7   7 11315.8 425.672   2
   0  -7   7 11539.1 415.091   1
   0  -7   6 24981.3 438.495   3
   0  -7   6 24648.4 591.275   1
   0  -7   6 24467.9 626.144   2
   0  -7   5 241.065 78.2489   1
   0  -7   5 183.553 52.4920   3
   0  -7   5 79.4316 66.0866   2
   0  -7   4 101563. 1404.38   2
   0  -7   4 101804. 1262.30   3
   0  -7   3 2259.38 154.164   3
   0  -7   3 2108.29 162.888   2
   0  -7   2 825.323 98.9162   3
   0  -7   2 793.958 102.931   2
   0  -7   1 6082.01 266.076   3
   0  -7   0 3780.44 218.721   3
   0  -7  -1 41675.1 805.829   3
   0  -7  -2 14816.2 468.733   3
   0  -7  -3 18073.6 531.956   3
   0  -7  -4 23423.4 627.828   3
   0  -7  -5 217.765 99.8383   3
   0  -7  -6 5836.46 329.133   3
   0  -7  -7 1574.02 192.192   3
   0  -7  -8 11694.1 483.993   3
   0  -7  -9 962.935 173.839   3
   0  -7 -10 795.902 162.611   3
   0  -7 -11 508.376 139.190   3
   0  -7 -12 105.557 92.3075   3
   0  -8  13 220.870 102.991   2
   0  -8  12-27.5048 89.0403   2
   0  -8  11 2780.10 258.338   2
   0  -8  10 223.814 92.7899   2
   0  -8   9 2044.58 206.308   2
   0  -8   8 3802.85 269.006   2
   0  -8   7 148.820 76.0987   2
   0  -8   6 9740.98 398.747   2
   0  -8   5 226.506 82.9340   2
   0  -8   5 99.2948 47.5589   3
   0  -8   4 19740.4 548.657   2
   0  -8   4 20207.7 483.254   3
   0  -8   3 1521.55 150.494   2
   0  -8   3 1424.11 130.395   3
   0  -8   2 1608.51 149.573   3
   0  -8   1 439.626 92.4564   3
   0  -8   0 2613.34 200.517   3
   0  -8  -1 20150.2 569.680   3
   0  -8  -2 2711.31 219.113   3
   0  -8  -3 42384.2 908.730   3
   0  -8  -4 94.1956 110.896   3
   0  -8  -5 1525.37 193.140   3
   0  -8  -6 1937.46 211.354   3
   0  -8  -7 1889.43 212.687   3
   0  -8  -8 1898.93 221.859   3
   0  -8  -9 397.871 132.866   3
   0  -8 -10 1164.71 191.369   3
   0  -8 -11 11.0298 87.1446   3
   0  -8 -12 128.793 104.732   3
   0  -9  11 1256.53 187.069   2
   0  -9  10 2322.63 234.870   2
   0  -9   9 1368.63 178.807   2
   0  -9   8 621.416 123.209   2
   0  -9   7 1187.37 155.067   2
   0  -9   6 212.414 83.2002   2
   0  -9   5 13209.7 385.186   3
   0  -9   5 13677.1 480.053   2
   0  -9   4 19333.5 503.288   3
   0  -9   4 19836.1 575.650   2
   0  -9   3 14400.9 449.694   3
   0  -9   2 9678.53 381.172   3
   0  -9   1 15823.6 510.046   3
   0  -9   0 3403.14 245.772   3
   0  -9  -1 2761.75 231.842   3
   0  -9  -2 19624.1 618.035   3
   0  -9  -3 6394.62 359.237   3
   0  -9  -4 5053.46 329.547   3
   0  -9  -5-93.6797 107.674   3
   0  -9  -6 3772.90 298.248   3
   0  -9  -7 555.790 146.207   3
   0  -9  -8 197.071 121.490   3
   0  -9  -9 1862.36 233.005   3
   0  -9 -10 593.123 160.104   3
   0 -10   7 1103.97 155.018   2
   0 -10   6 2626.45 224.364   2
   0 -10   5 2638.00 221.974   2
   0 -10   4 124.771 64.2379   3
   0 -10   3 10556.8 403.840   3
   0 -10   2 152.427 81.7797   3
   0 -10   1 3947.03 266.766   3
   0 -10   0 1795.02 195.490   3
   0 -10  -1 5547.91 335.135   3
   0 -10  -2 2874.54 254.185   3
   0 -10  -3 405.266 137.599   3
   0 -10  -4 1521.67 202.219   3
   0 -10  -5 290.921 132.783   3
   0 -10  -6 1484.07 208.945   3
   0 -10  -7 212.238 123.381   3
   0 -10  -8 1469.30 220.819   3
   0 -10  -9 99.8202 106.671   3
   0 -11   3 917.147 134.921   3
   0 -11   2 3959.83 273.046   3
   0 -11   1 1778.74 199.185   3
   0 -11   0 7047.44 386.938   3
   0 -11  -1 2811.32 256.168   3
   0 -11  -2 370.667 131.560   3
   0 -11  -3 389.203 126.142   3
   0 -11  -4 390.146 137.739   3
   0 -11  -5 2693.70 277.166   3
   0 -11  -6 444.111 151.147   3
   0 -11  -7 2323.55 268.082   3
   0 -12   2 1269.60 172.685   3
   0 -12   1 2107.10 223.668   3
   0 -12   0 6410.85 389.911   3
   0 -12  -1 487.763 138.288   3
   0 -12  -2 2397.25 258.813   3
   0 -12  -3 13.0883 100.020   3
   0 -12  -4 669.249 163.119   3
   0 -13   1 412.036 117.167   3
   0 -13   0 784.136 158.301   3
   0 -13  -1 1834.24 232.309   3
   1 -12  -2 355.918 139.263   3
   1 -12  -1 3578.17 306.577   3
   1 -12   0-25.3356 86.1668   3
   1 -12   1 720.831 144.770   3
   1 -12   2 389.875 111.513   3
   1 -11  -5 260.548 129.376   3
   1 -11  -4 650.870 172.081   3
   1 -11  -3 153.281 104.808   3
   1 -11  -2 5239.46 358.002   3
   1 -11  -1 1039.10 176.385   3
   1 -11   0 3100.97 269.150   3
   1 -11   1 1058.43 162.509   3
   1 -11   2 2230.92 214.128   3
   1 -11   3 133.906 81.3303   3
   1 -10  -7 3909.75 328.922   3
   1 -10  -6 1219.45 202.588   3
   1 -10  -5 1614.79 223.086   3
   1 -10  -4 700.534 159.425   3
   1 -10  -3 969.079 172.726   3
   1 -10  -2 784.421 156.901   3
   1 -10  -1 118.180 98.3629   3
   1 -10   0 12006.7 487.091   3
   1 -10   1 63.0495 94.8218   3
   1 -10   2 6182.62 327.043   3
   1 -10   3 1576.03 165.562   3
   1 -10   4 2765.62 202.980   3
   1  -9  -9 637.371 156.695   3
   1  -9  -8 3340.22 304.863   3
   1  -9  -7 620.395 158.833   3
   1  -9  -6 2130.28 244.549   3
   1  -9  -5 587.198 154.375   3
   1  -9  -4 4223.69 308.384   3
   1  -9  -3 2490.51 242.368   3
   1  -9  -2 765.686 157.543   3
   1  -9  -1 5219.00 308.712   3
   1  -9   0 3725.05 256.387   3
   1  -9   1 5418.02 299.897   3
   1  -9   2 6239.63 311.067   3
   1  -9   3 21544.3 568.439   3
   1  -9   4 12259.1 401.391   3
   1  -9   5 4719.12 232.511   3
   1  -9   6 1879.03 166.362   2
   1  -8 -10 309.510 128.800   3
   1  -8  -9 1313.49 194.764   3
   1  -8  -8 366.063 139.161   3
   1  -8  -7 65.6776 106.117   3
   1  -8  -6 1359.79 194.473   3
   1  -8  -5 251.999 122.674   3
   1  -8  -4 11125.2 462.079   3
   1  -8  -3 225.424 119.624   3
   1  -8  -2 18241.3 562.905   3
   1  -8  -1 1267.61 158.400   3
   1  -8   0 1547.23 161.568   3
   1  -8   1 674.629 114.708   3
   1  -8   2 6372.78 291.355   3
   1  -8   3 33746.8 686.808   3
   1  -8   4 2869.80 182.905   3
   1  -8   5 8932.39 300.886   3
   1  -8   5 8871.39 318.983   1
   1  -8   5 9168.19 338.407   2
   1  -8   6 2111.41 168.599   1
   1  -8   6 2085.04 168.957   2
   1  -8   7 242.463 78.8782   1
   1  -8   7 290.670 82.6680   2
   1  -8   8 123.354 68.0986   2
   1  -8   8 137.267 76.9069   1
   1  -8   9 753.930 139.172   1
   1  -8   9 946.727 136.656   2
   1  -8  10 4082.39 275.761   2
   1  -8  10 3956.29 289.529   1
   1  -8  11 774.689 155.126   1
   1  -8  12 1592.86 210.221   1
   1  -8  13 455.403 143.152   1
  -1   7  12-0.54722 99.5860   2
   1  -7 -10 1679.18 211.155   3
   1  -7  -9 1289.06 196.081   3
   1  -7  -8 697.654 155.046   3
   1  -7  -7 643.321 143.687   3
   1  -7  -6 62.1820 105.647   3
   1  -7  -5 6538.24 346.374   3
   1  -7  -4 9094.33 392.830   3
   1  -7  -3 47372.9 932.277   3
   1  -7  -2 38055.4 800.598   3
   1  -7  -1 21606.0 567.577   3
   1  -7   0 244.143 83.7758   3
   1  -7   1 9985.50 351.518   3
   1  -7   2 15191.4 423.903   3
   1  -7   3 7186.66 229.581   1
   1  -7   3 7162.68 274.825   3
   1  -7   4 29781.7 601.201   2
   1  -7   4 29909.4 577.024   3
   1  -7   4 28167.6 546.121   1
   1  -7   5 27671.1 594.959   2
   1  -7   5 26967.7 569.936   1
   1  -7   5 27590.7 520.792   3
   1  -7   6 2207.67 168.566   1
   1  -7   6 1935.81 158.076   2
   1  -7   7 7210.90 318.940   1
   1  -7   7 7578.03 320.759   2
   1  -7   8 373.863 94.5024   1
   1  -7   8 438.347 93.4985   2
   1  -7   9 3884.22 265.314   1
   1  -7   9 3766.98 244.949   2
   1  -7  10 568.952 128.624   1
   1  -7  10 884.798 136.670   2
   1  -7  11 631.968 146.519   1
   1  -7  11 650.432 121.769   2
   1  -7  12-2.06555 78.1522   2
   1  -7  12-56.4595 111.038   1
   1  -7  13 683.366 140.562   2
   1  -7  13 771.730 168.207   1
   1  -7  14 181.252 118.020   1
  -1   6  12 98.3239 107.671   2
   1  -6 -10 1367.67 185.561   3
   1  -6  -9 213.032 109.604   3
   1  -6  -8 2454.95 225.709   3
   1  -6  -7 76.4547 92.6520   3
   1  -6  -6 7873.82 374.212   3
   1  -6  -5 2852.23 221.495   3
   1  -6  -4 22088.1 582.280   3
   1  -6  -3 18681.2 522.440   3
   1  -6  -2 131.324 92.1868   3
   1  -6  -1 21743.9 531.434   3
   1  -6   0 2280.71 173.051   3
  -1   6  -1 54577.8 616.819   1
   1  -6   1 54751.0 864.865   3
   1  -6   2 1617.77 132.014   3
   1  -6   2 1558.21 92.6390   1
   1  -6   3 25875.7 511.364   2
   1  -6   3 24839.4 456.309   1
   1  -6   3 25424.4 503.512   3
   1  -6   4 50169.7 736.908   3
   1  -6   4 49256.2 781.464   2
   1  -6   4 47959.6 751.885   1
   1  -6   5 3324.48 186.029   2
   1  -6   5 3332.06 151.894   3
   1  -6   5 3512.08 190.599   1
   1  -6   6 58132.4 941.726   1
   1  -6   6 58739.3 929.775   2
   1  -6   7 30100.0 667.497   1
   1  -6   7 30156.5 649.935   2
   1  -6   8 30153.6 700.881   1
   1  -6   8 30925.9 678.691   2
   1  -6   9 1291.62 159.725   1
   1  -6   9 1239.91 142.597   2
   1  -6  10 130.526 100.386   1
   1  -6  10 78.0693 66.0041   2
   1  -6  11 2047.93 201.045   2
   1  -6  11 2013.95 218.950   1
   1  -6  12-59.2982 108.397   1
   1  -6  12-28.0741 69.9990   2
   1  -6  13 999.556 162.417   2
   1  -6  13 1005.22 182.531   1
   1  -6  14 494.459 131.717   2
   1  -6  14 603.930 157.461   1
   1  -6  15 417.897 128.044   2
   1  -6  15 425.852 156.743   1
  -1   5  13-71.2442 117.000   2
  -1   5  12 327.360 136.330   2
  -1   5  11 330.355 137.165   2
   1  -5 -10 960.852 150.371   3
   1  -5  -9 847.832 147.026   3
   1  -5  -8 3989.82 263.826   3
   1  -5  -7 5902.97 313.450   3
   1  -5  -6 124.575 98.8542   3
   1  -5  -5 13495.0 438.348   3
   1  -5  -4 23949.1 575.486   3
   1  -5  -3 11729.5 384.314   3
   1  -5  -2 24165.0 547.426   3
   1  -5  -1 1031.52 117.644   3
   1  -5   0 123690. 1479.02   3
   1  -5   1 855.595 99.7740   3
  -1   5  -1 694.607 45.6205   1
   1  -5   1 697.606 51.6354   1
   1  -5   2 121221. 1277.05   1
   1  -5   2 122183. 1379.95   2
   1  -5   2 120666. 1394.69   3
   1  -5   3 25722.2 463.405   3
   1  -5   3 25759.0 451.216   1
   1  -5   3 25542.4 475.806   2
   1  -5   4 2158.41 133.575   1
   1  -5   4 2088.46 130.980   2
   1  -5   4 2355.06 122.822   3
   1  -5   5 10653.8 323.427   1
   1  -5   5 11692.6 256.130   3
   1  -5   5 11137.0 323.091   2
   1  -5   6 24.5965 61.3950   1
   1  -5   6-58.2379 46.8899   2
   1  -5   7 41673.8 774.347   1
   1  -5   7 38580.8 724.091   2
   1  -5   8 2540.59 199.725   1
   1  -5   8 2414.11 181.222   2
   1  -5   9 6860.55 312.902   2
   1  -5   9 6876.69 333.478   1
   1  -5  10 2058.32 199.196   1
   1  -5  10 2182.10 187.979   2
   1  -5  11-184.606 104.078   2
   1  -5  11 214.671 98.9074   1
   1  -5  12 32.2625 103.112   1
   1  -5  12-48.8835 99.5793   2
   1  -5  13-158.854 117.512   1
   1  -5  13-215.559 114.192   2
   1  -5  14 450.549 127.466   2
   1  -5  14 720.075 168.202   1
   1  -5  15 159.858 100.224   2
   1  -5  15 304.555 140.998   1
   1  -5  16 84.6801 91.3065   2
  -1   4  14-96.8243 115.497   2
  -1   4  13-61.7321 111.643   2
   1  -4 -13 60.0885 129.913   4
   1  -4 -12 1213.32 223.309   4
  -1   4  12 1049.98 185.894   2
  -1   4  11 2129.05 232.723   2
   1  -4 -11 2176.28 255.845   4
   1  -4 -10 888.078 176.790   4
   1  -4  -9 6088.84 313.507   3
   1  -4  -9 6551.29 389.971   4
   1  -4  -8 48.9069 103.732   4
   1  -4  -8 133.443 87.4397   3
   1  -4  -7 2159.77 209.908   4
   1  -4  -7 2005.23 177.583   3
   1  -4  -6 8068.31 365.638   4
   1  -4  -6 8182.14 326.873   3
   1  -4  -5 74169.6 1096.23   3
   1  -4  -4 265.016 24.2610   1
   1  -4  -4 372.588 102.876   3
   1  -4  -3 12269.0 359.033   3
   1  -4  -2 3574.72 187.588   3
   1  -4  -1 14123.7 355.750   3
   1  -4   0 70110.0 689.000   1
   1  -4   0 72904.2 938.201   3
   1  -4   1 27918.1 369.853   1
  -1   4  -1 27389.2 354.200   1
   1  -4   1 27332.5 483.027   3
   1  -4   2 250656. 2434.92   3
   1  -4   2 247929. 2350.70   1
   1  -4   2 249206. 2408.29   2
   1  -4   3 28442.2 444.005   3
   1  -4   3 27989.8 459.483   1
   1  -4   3 27826.8 461.462   2
   1  -4   4 12036.2 302.905   1
   1  -4   4 11807.0 292.231   2
   1  -4   4 12721.5 254.052   3
   1  -4   5 16041.3 368.972   2
   1  -4   5 17076.3 393.157   1
  -1   4  -5 17004.6 294.704   3
   1  -4   6 7476.75 259.007   2
  -1   4  -6 6657.81 122.957   3
   1  -4   6 7773.23 278.815   1
   1  -4   7 27323.7 586.584   1
   1  -4   7 24936.2 538.158   2
   1  -4   8 3055.19 214.110   1
   1  -4   8 2840.95 185.305   2
   1  -4   9 48075.7 912.694   1
   1  -4   9 47761.1 883.360   2
   1  -4  10 1.30588 90.6844   1
   1  -4  10 85.2162 72.6929   2
   1  -4  11 4744.20 287.370   2
   1  -4  11 4642.08 299.454   1
   1  -4  12 80.4875 100.398   1
   1  -4  12 69.3264 83.1380   2
   1  -4  13 950.759 173.357   1
   1  -4  13 780.871 146.604   2
   1  -4  14 846.830 173.712   1
   1  -4  14 691.895 151.828   2
   1  -4  15 119.560 104.500   2
   1  -4  15 105.180 115.242   1
   1  -4  16 270.905 139.580   1
   1  -4  16 77.5100 96.5345   2
  -1   3  14 4.68932 105.712   2
   1  -3 -14 39.7910 123.091   4
   1  -3 -13 1533.58 241.388   4
  -1   3  13 1438.84 209.929   2
   1  -3 -12 641.722 164.806   4
  -1   3  12 623.277 160.861   2
  -1   3  11 9012.04 442.856   2
   1  -3 -11 8776.65 471.131   4
  -1   3  10 6436.72 350.355   2
   1  -3 -10 6139.81 383.518   4
   1  -3  -9 861.132 129.113   3
   1  -3  -9 826.321 159.247   4
   1  -3  -8 617.972 112.910   3
   1  -3  -8 639.246 136.820   4
   1  -3  -7 51.1045 90.6389   4
   1  -3  -7 120.528 79.7282   3
   1  -3  -6 34019.9 737.069   4
   1  -3  -6 32863.6 646.895   3
   1  -3  -5 31243.3 671.365   4
   1  -3  -5 30612.5 594.556   3
   1  -3  -4 52968.4 808.050   3
   1  -3  -4 53600.0 869.348   4
   1  -3  -3 29852.1 543.521   3
   1  -3  -3 29725.1 360.807   1
   1  -3  -2 9219.55 137.544   1
   1  -3  -2 8944.24 265.942   3
   1  -3  -1 78957.7 973.595   3
   1  -3   0 1537.86 101.229   3
   1  -3   0 1407.58 46.1876   1
   1  -3   1 332379. 2932.78   1
   1  -3   1 327541. 3069.04   3
  -1   3  -1 323156. 2975.96   2
  -1   3  -2 169561. 1601.83   2
   1  -3   2 166765. 1624.97   1
   1  -3   2 169854. 1666.59   3
   1  -3   2 169750. 1637.02   2
   1  -3   3 34957.9 454.772   3
   1  -3   3 33245.9 478.545   2
  -1   3  -3 35106.8 476.184   3
   1  -3   3 33365.1 487.841   1
  -1   3  -4 11328.1 210.487   3
   1  -3   4 10764.8 251.838   2
   1  -3   4 11180.7 274.300   1
  -1   3  -5 52165.3 544.050   3
   1  -3   5 53936.7 761.845   1
   1  -3   5 53155.7 724.774   2
   1  -3   6 5007.50 199.577   2
   1  -3   6 5108.27 218.895   1
   1  -3   7 4118.98 217.315   1
   1  -3   7 4112.78 197.196   2
   1  -3   8 34940.5 701.769   1
   1  -3   8 34659.8 663.707   2
   1  -3   9 2511.64 181.540   2
   1  -3   9 2602.77 203.217   1
   1  -3  10 14541.0 467.628   2
   1  -3  10 14025.1 479.769   1
   1  -3  11 1004.43 162.949   1
   1  -3  11 1132.04 157.597   2
   1  -3  12 5702.54 340.727   1
   1  -3  12 6224.02 344.274   2
   1  -3  13 649.081 141.225   2
   1  -3  13 336.911 129.032   1
   1  -3  14 62.4484 84.6439   2
   1  -3  14 118.134 111.547   1
   1  -3  15 527.282 153.901   1
   1  -3  15 520.354 138.712   2
   1  -3  16 240.823 137.190   1
   1  -3  16 133.727 107.074   2
   1  -3  17 74.2246 96.5389   2
   1  -2 -15 5.71037 101.242   4
  -1   2  15 18.8151 102.629   2
   1  -2 -14 76.0156 117.784   4
  -1   2  14-38.0632 115.363   2
  -1   2  13 56.3105 106.759   2
   1  -2 -13 51.9001 112.492   4
  -1   2  12 496.086 143.938   2
   1  -2 -12 524.984 162.828   4
  -1   2  11 962.442 160.446   2
   1  -2 -11 875.199 173.693   4
   1  -2 -10 160.422 120.012   4
  -1   2  10 391.736 124.647   2
  -1   2   9 473.380 116.610   2
   1  -2  -9 405.510 125.375   4
   1  -2  -8 1265.48 124.845   3
   1  -2  -8 1174.99 160.842   4
   1  -2  -7 11791.8 431.272   4
   1  -2  -7 11133.4 343.313   3
   1  -2  -6 56079.4 960.148   4
   1  -2  -6 53724.5 822.521   3
   1  -2  -5 9718.78 289.444   3
   1  -2  -5 10067.5 344.585   4
   1  -2  -4 144905. 1606.48   3
   1  -2  -4 150531. 1710.41   4
   1  -2  -3 27950.3 481.418   3
   1  -2  -3 29512.6 391.062   1
   1  -2  -3 27749.7 519.524   4
   1  -2  -2 93512.9 906.422   1
   1  -2  -2 90813.6 1052.53   3
   1  -2  -1 260254. 2471.72   3
   1  -2   0 284409. 2491.18   1
   1  -2   0 283845. 2638.85   3
  -1   2  -1 40991.6 532.378   3
   1  -2   1 42004.3 524.461   3
  -1   2  -1 42872.8 465.943   1
   1  -2   1 41279.3 459.178   1
  -1   2  -1 42812.3 457.046   2
   1  -2   2 9568.64 184.986   1
  -1   2  -2 9393.55 188.023   3
   1  -2   2 9121.29 176.892   3
  -1   2  -2 9005.65 176.705   1
   1  -2   2 9205.25 167.717   2
  -1   2  -2 9187.92 154.763   2
   1  -2   3 119497. 1256.15   1
  -1   2  -3 122528. 1185.02   2
   1  -2   3 124092. 1216.12   2
  -1   2  -3 124068. 1173.55   3
   1  -2   4 27381.5 431.013   1
  -1   2  -4 25060.8 292.355   3
   1  -2   4 27056.5 403.934   2
   1  -2   5 53926.3 714.136   2
   1  -2   5 55318.5 754.930   1
   1  -2   6 42520.4 648.614   2
   1  -2   6 42597.5 682.889   1
   1  -2   7 45107.0 753.874   1
   1  -2   7 43903.3 712.082   2
   1  -2   8 8114.56 311.645   1
   1  -2   8 8543.49 300.170   2
   1  -2   9 92.3589 65.7918   2
   1  -2   9 77.7481 77.7569   1
   1  -2  10 1940.38 189.125   1
   1  -2  10 1627.44 160.186   2
   1  -2  11 1827.04 181.636   2
   1  -2  11 2563.22 224.761   1
   1  -2  12 4275.90 297.063   1
   1  -2  12 3745.68 267.884   2
   1  -2  13 1023.69 169.479   1
   1  -2  13 1428.24 183.331   2
   1  -2  14 1037.93 174.589   1
   1  -2  14 1247.41 195.805   2
   1  -2  15 88.4487 99.9447   2
   1  -2  15 73.9364 112.732   1
   1  -2  16-19.8446 91.1967   2
   1  -2  16-4.89652 100.316   1
   1  -2  17 33.7425 96.5012   2
  -1   1  15-7.03435 106.048   2
   1  -1 -15 116.098 132.462   4
  -1   1  14 99.1641 107.244   2
   1  -1 -14 43.2686 105.508   4
  -1   1  13-39.1683 111.023   2
   1  -1 -13-118.245 123.632   4
   1  -1 -12 1070.56 187.380   4
  -1   1  12 1397.31 197.783   2
  -1   1  11 3451.99 262.218   2
   1  -1 -11 3097.79 276.499   4
  -1   1  10 1002.35 154.266   2
  -1   1   9 1281.67 159.614   2
  -1   1   8 24829.9 562.026   1
  -1   1   8 25021.4 595.112   2
  -1   1   7 21241.7 512.845   2
  -1   1   7 21246.3 479.953   1
   1  -1  -6 13550.3 332.838   3
  -1   1   6 13465.7 344.653   1
   1  -1  -5 36316.3 566.201   3
  -1   1   5 36590.7 576.183   1
   1  -1  -4 66987.0 911.253   4
   1  -1  -4 65103.4 820.952   3
   1  -1  -3 25312.2 411.226   3
   1  -1  -3 26320.3 464.219   4
   1  -1  -2 14064.0 269.172   3
   1  -1  -2 14189.8 297.059   4
   1  -1  -2 14546.1 231.772   1
   1  -1  -1 886679. 7731.81   3
   1  -1   0 60628.7 654.253   3
  -1   1  -1 4826.45 104.169   1
   1  -1   1 4662.19 100.850   1
   1  -1   2 69148.0 663.849   2
  -1   1  -2 68863.6 655.378   2
   1  -1   2 67683.1 716.514   1
   1  -1   3 408849. 3702.14   2
   1  -1   3 433591. 3764.24   1
   1  -1   4 63352.3 740.703   2
   1  -1   4 66408.6 780.135   1
   1  -1   5 44752.7 613.847   2
   1  -1   5 44098.7 627.961   1
   1  -1   6 113944. 1332.31   1
   1  -1   6 115965. 1310.73   2
   1  -1   7 11525.7 337.938   1
   1  -1   7 11659.9 324.953   2
   1  -1   8 2490.17 163.372   2
   1  -1   8 2079.77 155.994   1
   1  -1   9 109.885 76.0146   1
   1  -1   9 178.646 77.7122   2
   1  -1  10 110.476 82.9262   1
   1  -1  10 136.593 84.0917   2
   1  -1  11 6584.64 334.017   1
   1  -1  11 6276.57 316.180   2
   1  -1  12 65.7593 91.3370   2
   1  -1  12 59.0058 94.3616   1
   1  -1  13 2044.16 215.892   2
   1  -1  13 2595.36 243.824   1
   1  -1  14 37.4100 101.518   1
   1  -1  14 23.0186 91.8203   2
   1  -1  15-70.5584 108.417   1
   1  -1  15-298.106 132.764   2
   1  -1  16 250.559 121.960   2
   1  -1  16-30.5295 107.637   1
   1  -1  17 51.8562 95.8239   2
   1   0 -15 86.6979 124.360   4
  -1   0  15 28.6082 102.684   2
  -1   0  14 383.043 145.656   2
   1   0 -14 87.2332 118.102   4
  -1   0  13 506.276 147.201   2
   1   0 -13 375.214 122.796   4
  -1   0  12 781.898 151.155   2
  -1   0  11 182.034 115.289   2
  -1   0  10 1750.25 184.578   2
  -1   0  10 1810.10 179.261   1
  -1   0   9 6142.20 302.351   2
  -1   0   9 6190.96 295.698   1
  -1   0   8 25447.8 600.219   2
  -1   0   8 26399.9 589.462   1
  -1   0   7 41170.9 721.047   1
  -1   0   7 41463.4 752.408   2
  -1   0   6 71385.7 995.997   2
  -1   0   6 70692.6 964.113   1
  -1   0   5 1410.59 102.113   1
  -1   0   5 1670.17 123.468   2
  -1   0   4 628.679 72.7491   2
  -1   0   4 562.260 63.0111   1
  -1   0   3 11622.7 248.301   1
  -1   0   3 12333.6 259.624   2
  -1   0   2 106094. 1079.33   2
   1   0  -2 105437. 1114.26   4
  -1   0   2 106784. 1059.28   3
   1   0  -2 106495. 1076.61   1
  -1   0   1 130944. 1229.53   2
  -1   0   0 22064.3 240.097   2
   1   0   2 17597.3 249.499   1
   1   0   3 999999. 8569.28   1
  -1   0  -3 979999. 8495.34   3
   1   0   4 30306.4 362.742   3
   1   0   4 30009.5 435.855   1
  -1   0  -4 30956.2 372.078   3
   1   0   5 269784. 2583.62   1
   1   0   5 270902. 2445.78   3
  -1   0  -5 269928. 2453.48   3
   1   0   6 226018. 2109.11   3
  -1   0  -6 227398. 2110.13   3
   1   0   6 226006. 2279.87   1
  -1   0  -7 224.413 36.8403   3
   1   0   7 31.5236 55.4959   1
   1   0   8 14475.9 398.603   1
   1   0   8 14735.9 405.606   2
  -1   0  -8 15536.6 295.665   3
   1   0   9 3310.06 216.112   2
  -1   0  -9 3886.85 147.892   3
   1   0   9 3427.91 207.728   1
   1   0  10 1296.22 150.477   1
   1   0  10 1497.42 159.479   2
   1   0  11 261.495 99.2117   1
   1   0  11 465.203 121.199   2
   1   0  12 2011.40 202.124   2
   1   0  12 2135.70 213.894   1
   1   0  13 5113.18 323.178   2
   1   0  13 6041.09 356.144   1
   1   0  14 0.21912 91.9666   1
   1   0  14-115.230 108.318   2
   1   0  15 510.140 138.667   2
   1   0  15 190.038 111.373   1
   1   0  16 272.429 126.321   1
   1   0  16-104.356 116.851   2
   1   1 -16 0.33271 96.0930   4
   1   1 -15-112.296 109.792   4
  -1  -1  15 220.812 138.618   2
   1   1 -14 306.560 129.248   4
  -1  -1  14 338.953 142.143   2
  -1  -1  13 1885.33 229.202   2
  -1  -1  12 147.507 109.659   2
  -1  -1  11 674.561 137.333   2
  -1  -1  11 681.207 130.588   1
  -1  -1  10 11.1375 83.7913   1
  -1  -1  10-89.0695 112.707   2
  -1  -1   9 490.350 104.526   2
  -1  -1   9 656.962 122.163   1
  -1  -1   8 2413.45 185.111   2
  -1  -1   8 2649.69 194.456   1
  -1  -1   7 28901.3 600.326   2
  -1  -1   7 29479.4 597.808   1
  -1  -1   6 30481.3 572.362   2
  -1  -1   6 30147.8 567.462   1
  -1  -1   5 10269.8 285.912   1
  -1  -1   5 11052.0 296.201   2
  -1  -1   4 1579.55 73.8441   3
  -1  -1   4 1638.26 101.865   2
  -1  -1   4 1543.99 100.584   1
  -1  -1   3 33074.4 478.264   2
  -1  -1   3 32642.3 481.592   1
  -1  -1   2 208862. 1974.18   2
  -1  -1   1 101478. 1019.57   2
   1   1  -1 104211. 968.636   4
  -1  -1   0 383578. 3381.86   2
  -1  -1  -1 998.999 48.1851   3
   1   1   2 194821. 1732.35   1
  -1  -1  -2 188357. 1761.29   3
   1   1   3 678665. 5941.38   1
  -1  -1  -3 684660. 5969.76   3
  -1  -1  -3 677370. 5939.84   1
   1   1   3 679976. 5964.87   3
   1   1   4 98490.9 1053.60   1
   1   1   4 101833. 1070.35   3
  -1  -1  -4 102864. 1067.52   3
  -1  -1  -5 57178.3 705.669   3
   1   1   5 57300.9 717.416   1
   1   1   6 38511.6 589.485   1
  -1  -1  -6 39650.0 557.990   3
   1   1   7 86973.6 1103.82   1
  -1  -1  -7 87753.0 1034.89   3
  -1  -1  -8 4498.55 178.112   3
   1   1   8 3610.43 191.790   1
   1   1   9 14544.0 423.126   1
  -1  -1  -9 15285.6 351.995   3
   1   1  10 267.702 111.094   2
   1   1  10 142.872 79.3383   1
  -1  -1 -10 136.802 47.7454   3
   1   1  11 5939.27 313.753   2
  -1  -1 -11 6349.22 238.726   3
   1   1  11 6083.51 313.754   1
   1   1  12 3976.91 272.123   2
   1   1  12 3654.58 260.759   1
   1   1  13 137.893 108.200   1
   1   1  13-39.6664 104.961   2
   1   1  14 363.941 116.602   1
   1   1  14 440.526 134.006   2
   1   1  15 20.1743 85.9284   1
   1   1  15 62.3418 103.796   2
   1   1  16 12.9197 93.0795   2
   1   1  16 118.891 101.490   1
   1   2 -16-80.6096 93.6666   4
   1   2 -15-107.426 105.783   4
  -1  -2  15 14.4071 92.2964   2
  -1  -2  14 1841.37 238.830   2
  -1  -2  13 453.567 156.457   2
  -1  -2  12 2094.35 239.183   2
  -1  -2  11 227.978 112.888   2
  -1  -2  11 233.657 107.531   1
  -1  -2  10 1348.84 166.017   1
  -1  -2  10 1465.39 167.696   2
  -1  -2   9 2446.82 202.501   2
  -1  -2   9 2441.08 204.995   1
  -1  -2   8 18115.3 498.802   2
  -1  -2   8 17672.2 491.608   1
  -1  -2   7 73377.6 1038.91   2
  -1  -2   7 69829.4 1027.88   1
  -1  -2   6 46.5768 19.0554   3
  -1  -2   6 22.2209 64.7574   1
  -1  -2   5 30510.5 543.563   2
  -1  -2   5 29779.2 388.757   3
  -1  -2   5 29215.2 540.086   1
  -1  -2   4 19143.5 378.869   2
  -1  -2   4 18733.3 383.698   1
  -1  -2   3 85533.1 995.815   1
  -1  -2   3 86251.6 991.990   2
  -1  -2   2 1522.35 65.4519   3
  -1  -2   2 1414.43 80.8467   2
  -1  -2   1 82627.5 891.218   2
  -1  -2   1 81622.3 844.445   3
  -1  -2   0 438467. 3914.37   2
  -1  -2   0 433586. 3884.45   3
  -1  -2  -1 256.110 36.1522   3
  -1  -2  -1 218.952 33.7909   2
   1   2   2 59254.3 608.898   1
  -1  -2  -2 59117.7 710.634   3
  -1  -2  -3 136373. 1334.16   1
  -1  -2  -3 140329. 1450.69   3
   1   2   3 140696. 1333.17   1
  -1  -2  -4 146556. 1525.33   3
   1   2   4 144715. 1420.60   1
  -1  -2  -5 3970.26 162.984   3
   1   2   5 3829.07 139.370   1
  -1  -2  -6 31108.9 532.636   3
   1   2   6 30601.0 504.168   1
   1   2   7 39437.8 639.158   1
  -1  -2  -7 39710.1 645.219   3
   1   2   8 1712.70 133.889   1
  -1  -2  -8 1861.46 131.777   3
  -1  -2  -9 15346.3 397.953   3
   1   2   9 15745.3 432.318   1
   1   2  10 8950.21 346.730   1
  -1  -2 -10 8646.07 301.799   3
  -1  -2 -11 10409.9 346.598   3
   1   2  11 10596.4 405.597   1
   1   2  12 86.3276 76.3479   1
  -1  -2 -12 75.7515 54.1212   3
   1   2  12 133.120 106.225   2
   1   2  13 8.46051 97.7082   2
   1   2  13 141.142 90.0122   1
   1   2  14-64.9311 90.5366   1
   1   2  14-69.2706 95.7055   2
   1   2  15 35.7480 83.1579   1
   1   2  15-66.7408 103.606   2
   1   2  16 303.715 129.130   2
   1   3 -16 30.9272 85.2923   4
  -1  -3  15 494.952 150.593   2
   1   3 -15 301.143 126.141   4
  -1  -3  14-31.0639 97.1243   2
  -1  -3  13 1528.40 213.527   2
  -1  -3  12 837.101 163.048   2
  -1  -3  11 2211.83 216.695   2
  -1  -3  11 2379.62 235.075   1
  -1  -3  10 137.425 95.7421   2
  -1  -3  10 65.6521 96.9639   1
  -1  -3   9 16269.6 508.307   2
  -1  -3   9 16896.3 519.139   1
  -1  -3   8 7371.81 314.156   2
  -1  -3   8 8033.76 334.960   1
  -1  -3   7 4548.73 236.972   1
  -1  -3   7 3981.92 101.606   3
  -1  -3   7 4352.89 231.201   2
  -1  -3   7 3520.06 99.3874   3
  -1  -3   6 34890.9 634.625   2
  -1  -3   6 35025.5 652.109   1
  -1  -3   6 32801.3 399.123   3
  -1  -3   5 39765.7 658.059   2
  -1  -3   5 38634.8 660.798   1
  -1  -3   5 38924.5 468.391   3
  -1  -3   4 229854. 2119.60   3
  -1  -3   4 229319. 2321.36   2
  -1  -3   4 228235. 2331.77   1
  -1  -3   3 20135.5 311.152   3
  -1  -3   3 20313.2 395.307   2
  -1  -3   3 20294.4 389.813   1
  -1  -3   2 85271.3 1003.30   2
  -1  -3   2 87166.2 935.762   3
  -1  -3   1 129621. 1321.84   3
  -1  -3   1 127949. 1366.47   2
  -1  -3   0 144446. 1485.20   3
  -1  -3   0 146625. 1518.82   2
  -1  -3  -1 33910.5 506.622   3
  -1  -3  -1 32926.1 416.864   4
  -1  -3  -2 196.922 43.3515   3
   1   3   2 88.6772 16.7475   1
   1   3   3 221297. 2009.17   1
  -1  -3  -3 221990. 2236.55   3
  -1  -3  -4 10803.6 293.212   3
   1   3   4 10710.1 205.475   1
   1   3   5 126674. 1318.22   1
  -1  -3  -5 131243. 1487.03   3
   1   3   6 6472.50 200.432   1
  -1  -3  -6 6350.33 243.710   3
   1   3   7 9676.08 278.751   1
  -1  -3  -7 9703.33 315.761   3
  -1  -3  -8 3744.41 206.502   3
   1   3   8 3785.54 192.061   1
  -1  -3  -9 4795.69 242.235   3
   1   3   9 4432.32 226.093   1
   1   3  10 24643.7 588.268   1
  -1  -3 -10 24320.8 578.450   3
   1   3  11 673.174 120.249   1
  -1  -3 -11 708.492 109.503   3
  -1  -3 -12 611.178 106.644   3
   1   3  12 706.050 127.607   1
   1   3  13-47.4409 110.564   2
   1   3  13-69.7217 77.8401   1
   1   3  14 99.4952 113.797   2
   1   3  14-109.697 86.2565   1
  -1  -3 -15 207.981 142.434   4
   1   3  15 201.262 121.330   2
  -1  -4  15 65.6774 100.745   2
  -1  -4  14 167.206 118.247   2
  -1  -4  13-104.304 117.737   2
  -1  -4  12-110.918 113.427   2
  -1  -4  11 1305.97 178.882   2
  -1  -4  11 1536.26 197.154   1
  -1  -4  10 1876.73 205.382   1
  -1  -4  10 1607.91 184.954   2
  -1  -4   9 14429.2 487.414   2
  -1  -4   9 14878.9 503.324   1
  -1  -4   8 241.386 86.2594   2
  -1  -4   8 127.032 98.6347   1
  -1  -4   7 5910.84 268.019   2
  -1  -4   7 5496.92 270.098   1
  -1  -4   6 5702.22 250.012   2
  -1  -4   6 5608.58 135.781   3
  -1  -4   6 5945.84 265.862   1
  -1  -4   5 64678.3 947.381   1
  -1  -4   5 63363.5 719.845   3
  -1  -4   5 63342.7 941.947   2
  -1  -4   4 52282.4 790.644   2
  -1  -4   4 51677.5 639.085   3
  -1  -4   4 50708.2 774.355   1
  -1  -4   3 266537. 2526.41   3
  -1  -4   3 266272. 2672.94   2
  -1  -4   2 257728. 2583.04   2
  -1  -4   2 259166. 2489.46   3
  -1  -4   1 7852.18 225.588   3
   1   4  -1 8612.44 156.332   4
  -1  -4   1 8243.75 252.413   2
   1   4   0 2540.61 96.6615   1
  -1  -4   0 2462.69 136.491   2
  -1  -4   0 2429.95 128.269   3
  -1  -4  -1 2196.78 127.092   3
  -1  -4  -2 17013.8 387.336   3
   1   4   2 17607.7 227.765   1
  -1  -4  -2 16065.3 328.764   4
   1   4   3 195053. 1766.67   1
  -1  -4  -3 195360. 2090.99   3
  -1  -4  -4 44726.7 747.626   3
   1   4   4 47328.1 536.572   1
  -1  -4  -5 68015.5 1007.39   3
   1   4   5 71332.3 799.380   1
   1   4   6 2173.13 112.921   1
  -1  -4  -6 2063.14 153.634   3
  -1  -4  -7 2567.25 179.463   3
   1   4   7 2804.49 142.452   1
  -1  -4  -8 3207.29 208.909   3
   1   4   8 3562.98 179.478   1
  -1  -4  -9 8627.83 350.701   3
   1   4   9 9012.31 313.029   1
  -1  -4 -10 5056.46 278.665   3
   1   4  10 5449.01 258.787   1
   1   4  11 1224.71 139.756   1
  -1  -4 -11 1390.75 158.564   3
   1   4  12 1888.35 176.719   1
  -1  -4 -12 1773.77 179.423   3
  -1  -4 -13 82.1549 68.1729   3
  -1  -4 -13 172.372 134.357   4
   1   4  14 131.481 119.645   2
  -1  -4 -14 130.692 131.740   4
   1   4  15 519.277 161.215   2
  -1  -4 -15 199.098 137.794   4
  -1  -5  15-199.638 129.510   2
  -1  -5  14-29.8200 112.051   2
  -1  -5  13 320.449 119.284   2
  -1  -5  12 282.708 107.169   2
  -1  -5  11-46.6016 101.247   2
  -1  -5  10 14443.6 526.418   2
  -1  -5  10 15530.1 553.326   1
  -1  -5   9 1427.49 185.492   1
  -1  -5   9 1177.01 156.084   2
  -1  -5   8 11241.1 420.619   2
  -1  -5   8 11274.8 427.021   1
  -1  -5   7 863.921 124.754   2
  -1  -5   7 684.599 110.466   1
  -1  -5   7 673.550 38.5366   3
  -1  -5   6 1669.07 152.069   2
  -1  -5   6 1742.75 154.358   1
  -1  -5   6 1672.77 80.4477   3
  -1  -5   5 367.059 84.6479   1
  -1  -5   5 361.901 47.1569   3
  -1  -5   5 354.977 79.0675   2
  -1  -5   4 2011.89 109.211   3
  -1  -5   4 2246.85 157.227   2
  -1  -5   3 91472.0 1082.41   3
  -1  -5   3 91478.5 1208.30   2
  -1  -5   2 94003.8 1139.73   3
  -1  -5   2 97396.9 1231.60   2
   1   5  -1 107543. 1088.99   4
  -1  -5   1 103710. 1256.95   3
  -1  -5   1 103471. 1306.24   2
  -1  -5   0 13949.6 352.231   3
   1   5   0 12991.2 245.708   1
  -1  -5   0 13875.2 367.523   2
  -1  -5  -1 82468.9 1084.12   3
   1   5   1 81318.1 835.100   1
   1   5   2 13342.0 180.043   1
  -1  -5  -2 13558.5 373.190   3
   1   5   2 13286.8 199.179   1
  -1  -5  -3 8214.88 300.300   3
   1   5   3 7640.56 121.309   1
  -1  -5  -3 7907.42 262.699   4
  -1  -5  -4 91430.0 1211.48   4
  -1  -5  -4 88672.8 1239.03   3
   1   5   4 89185.1 875.910   1
  -1  -5  -5 29717.2 638.399   3
   1   5   5 31509.3 413.171   1
  -1  -5  -5 30352.9 652.262   4
  -1  -5  -6 15752.7 486.989   4
  -1  -5  -6 15822.9 461.876   3
   1   5   6 16675.2 307.445   1
  -1  -5  -7 243.692 75.4812   3
   1   5   7 376.368 54.8971   1
  -1  -5  -8 17954.8 536.879   3
   1   5   8 18205.0 395.724   1
  -1  -5  -9 1713.77 208.024   4
  -1  -5  -9 1808.87 184.080   3
   1   5   9 1714.43 127.415   1
  -1  -5 -10-14.6671 109.984   4
  -1  -5 -10-18.1572 81.9393   3
   1   5  10 83.0233 53.2447   1
  -1  -5 -11 1353.03 208.443   4
  -1  -5 -11 1499.77 175.015   3
  -1  -5 -12 337.548 144.573   4
  -1  -5 -12 177.564 87.2089   3
  -1  -5 -13 393.869 105.896   3
  -1  -5 -13 138.587 116.995   4
   1   5  14 599.770 170.493   2
  -1  -5 -14 307.350 148.296   4
  -1  -6  15 692.002 169.290   2
  -1  -6  14 122.460 104.235   2
  -1  -6  13 553.823 145.208   2
  -1  -6  12 412.677 127.659   2
  -1  -6  11 1135.28 169.688   2
  -1  -6  10 1461.67 183.227   2
  -1  -6   9 869.293 146.515   2
  -1  -6   8 23312.7 635.843   2
  -1  -6   7 4970.25 278.831   2
  -1  -6   6 7774.04 204.412   3
  -1  -6   6 7326.49 324.497   2
  -1  -6   5 19662.4 528.695   2
  -1  -6   5 19893.4 383.741   3
  -1  -6   4 11917.1 304.818   3
  -1  -6   4 11558.4 385.354   2
  -1  -6   3 63168.5 1003.26   2
  -1  -6   3 65601.0 901.058   3
   1   6  -2 30565.4 445.789   4
  -1  -6   2 30068.7 568.058   3
  -1  -6   2 28997.7 614.547   2
  -1  -6   1 143518. 1655.87   3
  -1  -6   1 139572. 1710.88   2
  -1  -6   0 83797.7 1146.84   3
   1   6   1 85972.8 867.298   1
  -1  -6  -1 90000.5 1212.58   3
  -1  -6  -2 14146.8 417.177   3
  -1  -6  -3 82553.4 1211.35   3
  -1  -6  -4 30123.2 670.515   3
  -1  -6  -4 29865.8 617.778   4
  -1  -6  -5 6417.25 301.366   3
  -1  -6  -5 6587.59 301.025   4
  -1  -6  -6 3550.60 236.104   3
  -1  -6  -6 3606.14 240.464   4
  -1  -6  -7 17016.5 530.983   3
  -1  -6  -7 17175.2 558.353   4
  -1  -6  -8 7938.23 407.325   4
  -1  -6  -8 7950.27 369.284   3
  -1  -6  -9 347.396 121.426   4
  -1  -6  -9 368.590 112.245   3
  -1  -6 -10 3965.32 322.830   4
  -1  -6 -10 4008.32 282.421   3
  -1  -6 -11 2166.30 216.174   3
  -1  -6 -11 2086.48 254.796   4
  -1  -6 -12 221.348 126.198   4
  -1  -6 -12 194.393 97.6602   3
  -1  -6 -13 39.6967 111.147   4
  -1  -6 -13 38.2164 82.2975   3
  -1  -6 -14 200.750 145.938   4
  -1  -7  14 53.5505 98.5481   2
  -1  -7  13 57.8383 92.4980   2
  -1  -7  12 325.477 117.857   2
  -1  -7  11 139.389 90.4811   2
  -1  -7  10 88.4975 89.7978   2
  -1  -7   9 2904.05 246.173   2
  -1  -7   8 2013.89 199.471   2
  -1  -7   7 6694.10 341.466   2
  -1  -7   6 1314.51 95.5662   3
  -1  -7   6 1196.34 150.740   2
  -1  -7   5 24142.9 630.738   2
  -1  -7   5 23713.9 464.151   3
  -1  -7   4 16023.2 393.494   3
  -1  -7   4 15639.5 486.534   2
  -1  -7   3 9244.27 306.776   3
  -1  -7   3 9311.52 361.099   2
  -1  -7   2 2323.79 160.682   3
  -1  -7   2 2014.59 165.539   2
  -1  -7   1 15812.1 466.105   2
  -1  -7   1 15243.7 425.848   3
  -1  -7   0 13541.8 413.661   3
   1   7   1 16300.8 215.061   1
  -1  -7  -1 19799.6 513.849   3
  -1  -7  -2 104613. 1460.32   3
  -1  -7  -3 4143.52 251.567   3
  -1  -7  -4 803.792 138.335   3
  -1  -7  -5 1385.72 166.639   3
  -1  -7  -6-29.5575 115.334   3
  -1  -7  -7 17255.2 580.154   4
  -1  -7  -7 16879.5 570.706   3
  -1  -7  -8 358.768 132.029   3
  -1  -7  -8 252.091 113.053   4
  -1  -7  -9 15743.9 573.595   3
  -1  -7  -9 15839.9 612.089   4
  -1  -7 -10 220.066 122.770   3
  -1  -7 -10 222.898 132.102   4
  -1  -7 -11 801.865 175.755   4
  -1  -7 -11 868.294 158.994   3
  -1  -7 -12 111.347 105.230   3
  -1  -7 -12-81.8228 116.704   4
  -1  -7 -13 96.9865 126.831   4
  -1  -7 -13 279.175 111.925   3
  -1  -8  14 112.118 106.140   2
  -1  -8  13 264.884 109.706   2
  -1  -8  12 1415.37 204.572   2
  -1  -8  11 233.467 109.560   2
  -1  -8  10 947.164 166.944   2
  -1  -8   9 791.120 147.622   2
  -1  -8   8 281.216 101.158   2
  -1  -8   7 5629.64 333.381   2
  -1  -8   6 12543.6 483.835   2
  -1  -8   5 38506.4 666.747   3
  -1  -8   5 37285.9 853.751   2
  -1  -8   4 5765.92 308.873   2
  -1  -8   4 6050.52 253.441   3
  -1  -8   3 12914.5 390.867   3
  -1  -8   3 13014.6 456.254   2
  -1  -8   2 3829.52 221.028   3
  -1  -8   2 3863.17 242.920   2
  -1  -8   1 3459.72 215.811   3
  -1  -8   0 12300.2 419.319   3
  -1  -8  -1 14940.7 475.985   3
  -1  -8  -2 46438.9 918.525   3
  -1  -8  -3 5204.23 305.677   3
  -1  -8  -4 8989.38 396.789   3
  -1  -8  -5 592.489 121.634   3
  -1  -8  -6 5101.34 320.614   3
  -1  -8  -7 74.0517 109.643   3
  -1  -8  -8 4070.54 302.032   3
  -1  -8  -9 1874.69 226.662   3
  -1  -8 -10-19.8001 94.8873   3
  -1  -8 -11 9.06659 96.1059   3
  -1  -8 -12 183.068 104.762   3
  -1  -8 -13 304.475 124.521   3
  -1  -9  13 150.576 95.0361   2
  -1  -9  12-56.4897 89.7469   2
  -1  -9  11 2206.89 249.130   2
  -1  -9  10 522.013 138.567   2
  -1  -9   9 1578.56 204.082   2
  -1  -9   8 321.937 107.434   2
  -1  -9   7 700.990 140.310   2
  -1  -9   6 5639.97 335.187   2
  -1  -9   5 395.979 110.394   2
  -1  -9   5 331.848 69.3151   3
  -1  -9   4 28460.8 747.538   2
  -1  -9   4 28634.8 628.333   3
  -1  -9   3 2574.28 190.623   3
  -1  -9   3 2444.87 215.067   2
  -1  -9   2 8960.39 361.477   3
  -1  -9   1 1631.63 168.346   3
  -1  -9   0 6004.98 311.757   3
  -1  -9  -1 32056.9 771.331   3
  -1  -9  -2 20.7248 92.7853   3
  -1  -9  -3 21823.7 653.296   3
  -1  -9  -4 124.370 106.438   3
  -1  -9  -5 10307.2 465.248   3
  -1  -9  -6 100.908 105.521   3
  -1  -9  -7 3678.63 301.404   3
  -1  -9  -8 2253.90 247.042   3
  -1  -9  -9 354.056 139.088   3
  -1  -9 -10 268.051 128.172   3
  -1  -9 -11 113.902 113.895   3
  -1 -10  11 599.290 153.433   2
  -1 -10  10 303.984 117.810   2
  -1 -10   9 1613.37 216.272   2
  -1 -10   8 1547.25 197.088   2
  -1 -10   7 3153.42 271.934   2
  -1 -10   6 126.804 95.6462   2
  -1 -10   5 7776.47 403.671   2
  -1 -10   4 9099.78 358.996   3
  -1 -10   4 9056.92 430.240   2
  -1 -10   3 3604.97 240.380   3
  -1 -10   2 5897.42 314.761   3
  -1 -10   1 7462.03 364.687   3
  -1 -10   0 7982.49 391.259   3
  -1 -10  -1-39.2492 100.221   3
  -1 -10  -2 132.912 95.2258   3
  -1 -10  -3 3973.47 299.222   3
  -1 -10  -4 833.203 161.580   3
  -1 -10  -5 1015.28 178.354   3
  -1 -10  -6 5163.71 358.399   3
  -1 -10  -7 2014.45 237.611   3
  -1 -10  -8 286.715 133.156   3
  -1 -10  -9 11.7233 95.4424   3
  -1 -10 -10 121.651 109.988   3
  -1 -11   8 888.168 162.845   2
  -1 -11   7 559.321 133.117   2
  -1 -11   6 214.456 96.0699   2
  -1 -11   5 623.522 134.904   2
  -1 -11   3 7422.25 360.945   3
  -1 -11   2 87.0496 84.0683   3
  -1 -11   1 23946.9 705.072   3
  -1 -11   0 225.293 102.276   3
  -1 -11  -1 6286.52 374.220   3
  -1 -11  -2 2998.39 270.905   3
  -1 -11  -3-109.531 114.180   3
  -1 -11  -4 1371.80 208.547   3
  -1 -11  -5 196.656 122.463   3
  -1 -11  -6 3807.02 324.165   3
  -1 -11  -7 558.779 157.540   3
  -1 -11  -8 654.413 164.697   3
  -1 -12   2 1621.04 190.668   3
  -1 -12   1 2632.65 246.939   3
  -1 -12   0 3613.61 292.816   3
  -1 -12  -1 5310.98 360.400   3
  -1 -12  -2 672.920 146.781   3
  -1 -12  -3 1299.59 202.716   3
  -1 -12  -4 255.530 132.544   3
  -1 -12  -5 2454.85 270.063   3
  -1 -13   1 1053.07 172.590   3
  -1 -13   0 1741.03 215.843   3
  -1 -13  -1-32.8816 90.9478   3
  -1 -13  -2 610.543 152.556   3
   2 -11  -2 742.548 156.635   3
   2 -11  -1 3777.02 300.239   3
   2 -11   0 124.309 96.7335   3
   2 -10  -5 412.487 144.463   3
   2 -10  -4 2501.02 262.496   3
   2 -10  -3 1299.71 199.725   3
   2 -10  -2 1778.88 215.216   3
   2 -10  -1 2229.03 230.109   3
   2 -10   0 56.4962 87.7037   3
   2 -10   1 819.927 137.934   3
   2 -10   2 1086.02 153.493   3
   2  -9  -6 325.406 134.419   3
   2  -9  -5 6354.38 393.084   3
   2  -9  -4 157.442 127.118   3
   2  -9  -3 6312.69 381.430   3
   2  -9  -2 2431.69 232.056   3
   2  -9  -1 895.453 160.112   3
   2  -9   0 3929.56 274.956   3
   2  -9   1 351.639 116.523   3
   2  -9   2 15930.2 511.684   3
   2  -9   3 218.190 87.3489   3
   2  -9   9 5958.58 338.687   1
   2  -9  10 79.4252 87.2208   1
   2  -9  11 1613.69 207.274   1
   2  -9  12-50.4642 80.8927   1
   2  -9  13 81.5836 85.5869   1
  -2   8  10 164.944 110.121   2
   2  -8  -6 240.405 121.383   3
   2  -8  -5 604.136 141.055   3
   2  -8  -4 2507.57 240.391   3
   2  -8  -3 9543.57 434.104   3
   2  -8  -2 104.559 101.860   3
   2  -8  -1 1315.20 169.100   3
   2  -8   0 3073.64 235.738   3
   2  -8   1 4488.58 266.945   3
   2  -8   2 11930.1 417.256   3
   2  -8   3 15283.2 458.107   3
   2  -8   5 4110.01 207.323   1
   2  -8   6 527.837 89.5738   1
   2  -8   7 763.567 114.597   1
   2  -8   8 517.976 107.701   1
   2  -8   9 1445.66 170.326   1
   2  -8  10 433.459 120.915   1
   2  -8  11 555.722 131.781   1
   2  -8  12 576.127 140.812   1
   2  -8  13-80.1234 89.2867   1
   2  -8  14 162.048 109.134   1
  -2   7  11 178.386 121.298   2
  -2   7  10 387.939 132.579   2
   2  -7  -7 89.6377 109.271   3
   2  -7  -6 74.4416 98.9894   3
   2  -7  -5 1279.16 183.880   3
   2  -7  -4 16557.2 554.885   3
   2  -7  -3 2282.58 214.452   3
   2  -7  -2 15109.4 496.808   3
   2  -7  -1 3845.37 248.891   3
   2  -7   0 11900.1 416.542   3
   2  -7   1 9797.51 363.435   3
   2  -7   2 2638.86 190.478   3
   2  -7   3 37292.1 714.414   3
   2  -7   3 36846.3 579.944   1
   2  -7   4 3595.87 196.957   3
   2  -7   4 3505.52 177.351   1
   2  -7   5 18346.5 456.238   1
   2  -7   5 18358.0 422.238   2
   2  -7   6 983.947 116.378   1
   2  -7   6 836.726 92.8574   2
   2  -7   7 5823.85 285.909   1
   2  -7   7 5914.93 248.610   2
   2  -7   8 2500.74 173.611   2
   2  -7   8 2722.22 208.884   1
   2  -7   9 1291.98 162.806   1
   2  -7  10 10626.1 456.356   1
   2  -7  11 1251.26 178.972   1
   2  -7  12 1851.24 220.827   1
   2  -7  13 133.547 99.0375   1
   2  -7  14 331.159 124.574   1
  -2   6  12 298.751 136.813   2
  -2   6  11 674.586 161.289   2
  -2   6  10 528.002 140.909   2
   2  -6  -7 103.600 96.9067   3
   2  -6  -6 196.743 115.324   3
   2  -6  -5 4510.30 291.312   3
   2  -6  -4 10432.5 415.633   3
   2  -6  -3 11858.6 428.820   3
   2  -6  -2 11273.6 406.945   3
   2  -6  -1 34188.2 717.648   3
   2  -6   0 831.451 128.703   3
   2  -6   1 24284.7 552.571   3
   2  -6   1 23847.5 346.340   1
   2  -6   2 8936.20 223.841   1
   2  -6   2 8722.39 308.434   3
   2  -6   3 34734.4 556.411   1
   2  -6   3 34234.1 633.044   3
   2  -6   4 6095.31 226.716   1
   2  -6   5 26736.3 554.341   1
   2  -6   5 27433.3 502.945   2
   2  -6   6 25352.0 569.920   1
   2  -6   6 26318.3 513.175   2
   2  -6   7 13683.2 433.070   1
   2  -6   7 14641.1 391.793   2
   2  -6   8 9891.64 338.637   2
   2  -6   8 9442.55 378.826   1
   2  -6   9 12830.6 465.678   1
   2  -6   9 13542.7 422.791   2
   2  -6  10 48.3290 86.3529   1
   2  -6  10 86.0806 54.3073   2
   2  -6  11 2274.49 191.212   2
   2  -6  11 2159.91 222.410   1
   2  -6  12 204.940 82.0007   2
   2  -6  12 95.8658 95.9860   1
   2  -6  13 988.376 185.289   1
   2  -6  14 733.810 169.974   1
   2  -6  15 137.708 112.966   1
  -2   5  12 108.167 110.226   2
  -2   5  11 284.706 121.672   2
  -2   5  10 1777.61 214.307   2
  -2   5   9 459.842 128.566   2
   2  -5  -7-12.7163 87.8942   3
   2  -5  -6 8348.65 365.755   3
   2  -5  -5 2652.60 212.810   3
   2  -5  -4 1958.68 180.483   3
   2  -5  -3 8037.39 333.716   3
   2  -5  -2 11033.0 379.105   3
   2  -5  -1 33824.0 668.456   3
   2  -5   0 12.7913 14.6090   1
   2  -5   0 84.6843 89.7472   3
   2  -5   1 129265. 1282.83   1
   2  -5   1 130283. 1549.62   3
   2  -5   2 3115.47 173.867   3
   2  -5   2 2839.14 120.771   1
   2  -5   3 13015.7 300.955   1
   2  -5   3 13498.5 342.586   3
   2  -5   4 2688.91 146.639   1
   2  -5   4 2712.52 127.755   2
   2  -5   5 1668.92 129.127   1
   2  -5   5 1847.43 112.429   2
   2  -5   6 37121.4 614.319   2
   2  -5   6 36717.7 685.798   1
   2  -5   7 1932.48 164.714   1
   2  -5   7 2024.54 142.112   2
   2  -5   8 41314.2 724.429   2
   2  -5   8 39414.0 798.391   1
   2  -5   9 24.7891 80.0660   1
   2  -5   9 202.892 68.0593   2
   2  -5  10 57.9835 82.5273   1
   2  -5  10 114.930 59.6450   2
   2  -5  11 82.9275 93.6324   1
   2  -5  11-163.229 89.2891   2
   2  -5  12 48.9119 66.1711   2
   2  -5  12 83.5999 101.866   1
   2  -5  13 2545.89 225.619   2
   2  -5  13 2729.66 268.350   1
   2  -5  14 159.427 125.971   1
   2  -5  14-64.8040 81.1110   2
   2  -5  15 470.406 151.133   1
  -2   4  13-122.603 110.763   2
  -2   4  12 281.855 123.064   2
  -2   4  11 863.817 166.435   2
  -2   4  10 1127.89 177.269   2
  -2   4   9 68.9127 97.8387   2
   2  -4  -6 21521.4 563.571   3
   2  -4  -5 5930.43 286.015   3
   2  -4  -4 6459.18 285.593   3
   2  -4  -3 4394.45 229.903   3
   2  -4  -3 4137.75 110.654   1
   2  -4  -2 3714.09 202.712   3
   2  -4  -2 3180.96 88.0251   1
   2  -4  -2 3102.55 80.1985   1
   2  -4  -1 6667.45 260.729   3
   2  -4  -1 5921.37 117.103   1
   2  -4   0 87251.7 1132.41   3
   2  -4   0 87495.0 875.275   1
   2  -4   1 89676.0 933.927   1
   2  -4   1 91127.0 1133.70   3
  -2   4  -2 1029.52 59.9412   2
   2  -4   2 993.467 92.5155   3
   2  -4   2 1050.47 71.9405   1
  -2   4  -3 16100.6 269.904   2
   2  -4   3 16892.8 339.699   1
   2  -4   4 137.764 31.6763   2
   2  -4   4 157.390 48.7637   1
   2  -4   5 4093.83 156.981   2
   2  -4   5 3865.99 176.056   1
   2  -4   6 125.698 42.2562   2
   2  -4   6 47.0407 63.0579   1
   2  -4   7 39863.8 709.772   1
   2  -4   7 39483.6 630.745   2
   2  -4   8 15515.2 460.951   1
   2  -4   8 15152.3 403.191   2
   2  -4   9 6730.97 279.304   2
   2  -4   9 6211.47 308.675   1
   2  -4  10 971.495 119.611   2
   2  -4  10 790.946 130.198   1
   2  -4  11 876.075 128.304   2
   2  -4  11 935.161 151.241   1
   2  -4  12 2476.94 211.169   2
   2  -4  12 2409.29 239.956   1
   2  -4  13 285.768 124.827   1
   2  -4  13 461.787 114.123   2
   2  -4  14 1487.35 225.372   1
   2  -4  14 1869.30 213.426   2
   2  -4  15 822.936 179.144   1
   2  -4  15 812.624 154.657   2
   2  -4  16 13.4964 88.1434   2
   2  -4  16 184.105 131.489   1
  -2   3  13-17.4958 106.854   2
  -2   3  12 775.589 170.054   2
  -2   3  11 365.700 134.642   2
  -2   3  10 1265.03 178.954   2
  -2   3   9 476.981 126.654   2
  -2   3   8 10376.1 400.245   2
   2  -3  -5 60090.4 944.106   3
   2  -3  -4 15180.4 406.198   3
   2  -3  -3 5864.21 247.338   3
   2  -3  -2 1221.49 116.865   3
   2  -3  -2 1027.22 59.4178   1
   2  -3  -1 20882.0 437.595   3
   2  -3  -1 20929.1 291.584   1
   2  -3   0 126188. 1227.70   1
   2  -3   0 130920. 1433.20   3
   2  -3   1 12458.4 226.246   1
   2  -3   1 13286.8 306.605   3
  -2   3  -1 12719.4 216.752   2
  -2   3  -2 358767. 3176.89   2
   2  -3   2 362408. 3284.63   1
  -2   3  -3 4689.72 109.377   2
   2  -3   3 4592.67 156.908   1
   2  -3   3 4616.49 120.544   2
   2  -3   4 64202.3 819.064   1
   2  -3   4 61939.5 723.928   2
  -2   3  -4 65139.4 693.860   2
   2  -3   5 2530.67 114.376   2
  -2   3  -5 2564.25 107.366   3
   2  -3   5 2716.03 145.863   1
   2  -3   6 4377.63 198.213   1
  -2   3  -6 4008.87 115.447   3
   2  -3   6 4255.43 167.038   2
   2  -3   7 49733.5 746.498   2
   2  -3   7 50521.5 822.076   1
   2  -3   8 4430.89 208.015   2
   2  -3   8 4364.38 236.767   1
   2  -3   9 24196.0 607.625   1
   2  -3   9 22996.0 533.666   2
   2  -3  10 1050.62 144.126   1
   2  -3  10 1076.35 130.003   2
   2  -3  11 10659.9 441.581   1
   2  -3  11 10643.7 401.420   2
   2  -3  12 1512.22 174.623   2
   2  -3  12 1301.46 183.983   1
   2  -3  13 2520.53 228.474   2
   2  -3  13 2507.25 252.055   1
   2  -3  14 291.298 133.464   1
   2  -3  14 278.269 108.850   2
   2  -3  15 36.9538 117.687   1
   2  -3  15-17.5994 86.8393   2
   2  -3  16 374.028 147.912   1
   2  -3  16 142.779 101.908   2
   2  -3  17 31.3947 87.5690   2
  -2   2  14 7.26535 101.735   2
  -2   2  13 178.167 123.362   2
   2  -2 -12 1368.00 218.023   4
  -2   2  12 1113.42 185.945   2
   2  -2 -11 111.354 113.682   4
  -2   2  11-15.2089 109.615   2
   2  -2 -10 72.5621 103.942   4
  -2   2  10 28.4828 97.4892   2
  -2   2   9 2046.95 194.813   2
   2  -2  -9 1884.35 218.233   4
   2  -2  -8 483.139 134.715   4
  -2   2   8 469.280 118.485   2
  -2   2   7 2187.13 177.949   2
   2  -2  -7 2108.80 203.279   4
   2  -2  -6 8304.22 358.973   4
  -2   2   6 8827.26 319.975   2
   2  -2   0 337.439 34.7843   1
   2  -2   1 123590. 1224.17   1
  -2   2  -1 125488. 1147.05   2
   2  -2   2 56531.6 656.278   1
   2  -2   3 103262. 1097.81   1
   2  -2   3 101147. 966.157   2
  -2   2  -4 5790.26 154.378   3
   2  -2   4 5393.15 138.970   2
   2  -2   4 6225.79 189.455   1
   2  -2   5 111283. 1204.64   2
  -2   2  -5 116499. 1139.87   3
   2  -2   5 114330. 1297.84   1
   2  -2   6 36172.8 614.239   1
  -2   2  -6 35367.4 398.398   3
  -2   2  -6 34699.4 408.010   3
   2  -2   6 35231.7 540.227   2
   2  -2   7 1191.60 117.981   1
   2  -2   7 714.271 78.5807   2
   2  -2   8 1913.54 137.309   2
   2  -2   8 2658.57 186.315   1
   2  -2   9 4357.11 244.646   1
   2  -2   9 4067.24 214.492   2
   2  -2  10 9023.40 343.652   2
   2  -2  10 9151.73 377.359   1
   2  -2  11 933.131 155.888   1
   2  -2  11 662.989 112.046   2
   2  -2  12 7129.09 349.558   2
   2  -2  12 7031.37 372.224   1
   2  -2  13 678.480 150.716   1
   2  -2  13 503.077 119.543   2
   2  -2  14 107.826 103.458   1
   2  -2  14 49.4328 88.1157   2
   2  -2  15 27.3900 97.3731   1
   2  -2  15 58.5431 86.0924   2
   2  -2  16-41.1922 105.412   1
   2  -2  16 99.6276 97.8708   2
   2  -2  17 279.818 118.251   2
   2  -1 -14 35.8915 117.902   4
  -2   1  14-58.9813 111.797   2
   2  -1 -13 261.945 126.004   4
  -2   1  13 624.620 166.778   2
   2  -1 -12 354.768 136.262   4
  -2   1  12 229.153 124.698   2
   2  -1 -11 1114.48 189.503   4
  -2   1  11 1107.10 173.202   2
   2  -1 -10 1270.89 185.787   4
  -2   1  10 1150.02 166.841   2
  -2   1   9 3515.71 245.707   2
   2  -1  -9 3300.89 265.985   4
   2  -1  -8 84.4442 93.9940   4
  -2   1   8 173.996 88.9997   2
  -2   1   7 11062.6 372.052   2
   2  -1  -7 10671.4 410.926   4
  -2   1   6 37459.9 686.668   2
   2  -1  -6 36950.3 759.182   4
  -2   1   5 1280.72 125.725   2
   2  -1  -5 1068.20 129.435   4
  -2   1   4 83629.1 1035.93   2
   2  -1  -4 81159.2 1124.48   4
  -2   1   3 27397.4 457.935   2
  -2   1   2 171954. 1697.02   2
  -2   1   1 474.262 46.0091   2
  -2   1   0 48566.5 510.644   2
   2  -1   1 104860. 1063.48   1
   2  -1   2 4813.60 138.155   1
   2  -1   3 51564.5 523.838   2
   2  -1   3 52325.8 639.631   1
   2  -1   4 8123.39 171.663   2
   2  -1   4 8788.36 224.362   1
   2  -1   5 318566. 2987.15   2
   2  -1   5 326637. 3061.96   1
   2  -1   6 47708.2 719.234   1
  -2   1  -6 49097.4 544.839   3
   2  -1   6 48283.3 673.713   2
   2  -1   7 19414.9 409.703   2
   2  -1   7 19882.8 449.529   1
  -2   1  -7 18080.3 254.501   3
   2  -1   8 14625.1 373.994   2
   2  -1   8 14584.3 404.934   1
   2  -1   9 2309.33 176.128   1
   2  -1   9 2687.07 173.431   2
   2  -1  10 2292.58 177.715   2
   2  -1  10 1786.13 165.900   1
   2  -1  11 1258.02 148.026   2
   2  -1  11 1382.99 180.651   1
   2  -1  12 9385.43 416.429   1
   2  -1  12 9001.99 383.365   2
   2  -1  13 10.3537 106.613   1
   2  -1  13 6.35329 84.8944   2
   2  -1  14 489.297 136.745   1
   2  -1  14 341.544 108.439   2
   2  -1  15 18.5054 101.584   1
   2  -1  15-296.918 127.520   2
   2  -1  16-43.5096 104.582   1
   2  -1  16-216.535 109.364   2
   2  -1  17 156.396 102.349   2
   2  -1  17-94.1659 103.343   1
   2   0 -15 0.31864 97.9531   4
   2   0 -14 593.157 170.627   4
  -2   0  14 936.844 197.307   2
  -2   0  13 141.185 123.074   2
   2   0 -13 62.6748 105.925   4
  -2   0  12 339.007 137.525   2
   2   0 -12 314.282 133.183   4
   2   0 -11 686.713 152.339   4
  -2   0  11 474.745 134.064   2
   2   0 -10 53.3463 96.2712   4
  -2   0  10 5.52932 106.182   2
  -2   0   9 1460.23 174.541   2
   2   0  -9 1594.35 186.126   4
  -2   0   8 10631.3 386.640   2
   2   0  -8 10366.5 414.813   4
  -2   0   7 19475.6 503.411   2
   2   0  -7 19637.0 542.278   4
   2   0  -6 1003.97 124.665   4
  -2   0   6 1179.34 122.788   2
   2   0  -5 6415.15 259.331   4
  -2   0   5 6071.34 233.875   2
   2   0  -4 10263.2 310.794   4
  -2   0   4 10921.8 286.630   2
  -2   0   3 93573.7 1063.65   2
  -2   0   2 34773.0 481.318   2
   2   0  -1 345473. 3116.52   2
  -2   0   1 343528. 3104.76   2
  -2   0   0 217029. 1988.09   2
   2   0   0 223964. 1998.47   2
   2   0   1 22136.9 259.411   2
  -2   0  -1 21764.8 257.269   2
   2   0   2 140282. 1387.72   1
   2   0   2 152334. 1306.73   2
   2   0   3 298.870 39.7216   1
  -2   0  -4 255820. 2364.44   3
   2   0   4 255416. 2428.61   1
  -2   0  -5 153524. 1491.72   3
   2   0   5 151486. 1590.06   1
  -2   0  -6 505090. 4516.72   3
   2   0   6 505790. 4679.66   1
   2   0   7 80557.8 1074.24   1
  -2   0  -7 84264.2 918.595   3
   2   0   8 34794.9 648.423   1
  -2   0  -8 35264.7 487.152   3
   2   0   9 3823.70 217.280   2
   2   0   9 3763.01 216.105   1
  -2   0  -9 3904.15 138.412   3
  -2   0 -10 102.305 29.5924   3
   2   0  10 255.243 91.4084   2
   2   0  10 96.6215 84.7314   1
   2   0  11 9376.12 387.455   1
   2   0  11 8503.62 354.994   2
   2   0  12 4184.98 266.356   2
   2   0  12 4532.40 296.922   1
   2   0  13 1071.44 168.950   1
   2   0  13 1079.36 161.227   2
   2   0  14 223.061 109.434   1
   2   0  14 100.599 90.0032   2
   2   0  15 325.745 125.026   1
   2   0  15 146.854 94.0207   2
   2   0  16-71.9092 101.650   2
   2   0  16 109.364 114.560   1
   2   0  17-27.6426 90.6524   1
   2   0  17-85.6167 99.9776   2
   2   1 -15 48.8314 106.622   4
  -2  -1  15 570.718 171.191   2
  -2  -1  14 313.795 139.563   2
   2   1 -14 9.43090 95.1130   4
  -2  -1  13 605.395 168.517   2
   2   1 -13 293.683 121.248   4
  -2  -1  12 93.8799 111.095   2
   2   1 -12 60.8338 97.0341   4
   2   1 -11 263.215 113.068   4
  -2  -1  11 148.071 105.497   2
  -2  -1  10 3500.57 258.131   2
   2   1 -10 3233.37 252.587   4
  -2  -1   9 1121.36 160.023   2
   2   1  -9 697.647 127.764   4
  -2  -1   8 35749.0 750.667   2
   2   1  -8 34032.3 744.349   4
  -2  -1   7 2249.88 175.021   2
   2   1  -7 2542.71 185.172   4
  -2  -1   6 4280.79 213.646   2
   2   1  -6 4188.53 213.269   4
  -2  -1   5 7.56649 62.9337   2
   2   1  -5 55.4748 50.3729   4
  -2  -1   4 7338.27 234.102   2
   2   1  -4 6611.20 233.507   4
  -2  -1   3 7238.85 212.878   2
   2   1  -3 7296.18 218.159   4
  -2  -1   2 1027.64 73.3838   2
  -2  -1   1 641181. 5658.85   2
  -2  -1   0 24417.1 345.781   2
   2   1   0 26513.4 360.287   2
  -2  -1  -1 202301. 1881.90   2
   2   1   1 211015. 1895.01   2
   2   1   2 8215.01 185.887   1
   2   1   2 7914.91 174.894   2
   2   1   3 154523. 1525.89   1
  -2  -1  -3 154550. 1529.94   3
   2   1   4 1358.68 82.6476   1
  -2  -1  -4 1823.71 92.4052   3
   2   1   5 52166.6 682.248   1
  -2  -1  -5 50156.6 661.302   3
   2   1   6 2623.25 132.428   1
  -2  -1  -6 2679.62 123.553   3
  -2  -1  -7 34.8009 31.0324   3
   2   1   7 17.2600 49.8056   1
  -2  -1  -8 8866.28 249.610   3
   2   1   8 9008.63 299.558   1
  -2  -1  -9 5570.96 202.342   3
   2   1   9 5048.16 243.940   1
   2   1  10 22995.4 577.253   1
  -2  -1 -10 23770.0 459.929   3
  -2  -1 -11 3337.44 162.374   3
   2   1  11 3306.33 227.633   1
   2   1  12-53.8921 87.8771   1
   2   1  12 48.7483 88.7716   2
   2   1  13 1756.93 190.301   2
   2   1  13 2127.11 215.985   1
   2   1  14 56.6694 96.0679   1
   2   1  14 98.6764 101.994   2
   2   1  15 326.216 118.265   1
   2   1  15 500.157 137.411   2
   2   1  16 477.219 132.278   2
   2   1  16 283.834 129.427   1
   2   1  17 88.7718 87.1643   2
   2   1  17 405.961 131.103   1
  -2  -2  15 6.86873 101.011   2
   2   2 -15 33.8140 91.5674   4
   2   2 -14 20.7405 90.4021   4
  -2  -2  14 134.134 118.124   2
   2   2 -13 422.991 129.172   4
  -2  -2  13 886.115 176.704   2
  -2  -2  12 23.0159 107.986   2
   2   2 -12 32.5406 95.6647   4
  -2  -2  11 1909.95 220.486   2
   2   2 -11 1616.60 188.799   4
   2   2 -10 1303.64 164.394   4
  -2  -2  10 1781.58 204.693   2
  -2  -2   9 7202.47 352.069   2
  -2  -2   8 10318.9 393.931   2
  -2  -2   7 12702.9 413.398   2
  -2  -2   6 56388.2 900.606   2
  -2  -2   5 46336.5 749.967   2
   2   2  -4 16063.3 348.038   4
  -2  -2   4 17145.7 378.107   2
  -2  -2   3 29252.5 488.087   2
   2   2  -3 28888.6 445.603   4
  -2  -2   2 82783.0 963.581   2
  -2  -2   1 279014. 2617.87   2
  -2  -2   1 272617. 2486.22   4
  -2  -2   0 35745.2 495.557   2
  -2  -2  -1 36520.2 504.886   2
  -2  -2  -1 36146.6 505.230   3
  -2  -2  -2 225943. 2187.88   3
   2   2   3 19696.2 330.311   1
  -2  -2  -3 21334.8 375.229   3
  -2  -2  -4 35879.3 551.178   3
   2   2   4 36531.5 502.003   1
  -2  -2  -5 40556.8 613.053   3
   2   2   5 40734.8 572.132   1
  -2  -2  -6 86612.5 1067.80   3
   2   2   6 85679.7 1015.71   1
   2   2   7 12469.6 318.062   1
  -2  -2  -7 12405.7 323.995   3
   2   2   8 5556.69 227.770   1
  -2  -2  -8 5121.12 214.360   3
  -2  -2  -9 56362.8 852.778   3
   2   2   9 56384.1 902.271   1
   2   2  10 7913.21 325.736   1
  -2  -2 -10 8034.19 289.705   3
   2   2  11 1326.28 152.441   1
  -2  -2 -11 1492.74 128.152   3
  -2  -2 -12 2957.46 179.655   3
   2   2  12 2957.93 229.089   1
   2   2  13 477.105 122.476   1
   2   2  13 538.482 136.276   2
   2   2  14 199.984 105.437   1
   2   2  14 270.925 125.470   2
   2   2  15-179.162 104.736   1
   2   2  15 152.519 107.585   2
   2   2  16 388.376 135.846   2
   2   2  16 374.433 128.148   1
   2   2  17 185.902 108.263   1
  -2  -3  15 60.2071 115.164   2
   2   3 -15-0.28735 81.6939   4
   2   3 -14 217.230 115.336   4
  -2  -3  14 583.992 158.648   2
   2   3 -13 47.3585 86.1372   4
  -2  -3  13 47.0687 107.174   2
  -2  -3  12 2621.58 262.374   2
   2   3 -12 2341.19 234.803   4
   2   3 -11 1088.05 157.663   4
  -2  -3  11 1213.53 187.039   2
  -2  -3  10 6945.97 368.734   2
  -2  -3   9 2621.17 220.136   2
  -2  -3   8 359.658 107.911   2
  -2  -3   7 29146.3 645.310   2
  -2  -3   6 298.044 91.4286   2
  -2  -3   5 27309.9 560.167   2
  -2  -3   4 20658.5 447.278   2
  -2  -3   3 214774. 2214.51   2
   2   3  -3 216496. 2034.30   4
  -2  -3   2 114669. 1285.88   2
  -2  -3   2 112453. 1214.06   3
  -2  -3   1 31842.7 488.433   3
  -2  -3   1 32774.1 522.787   2
  -2  -3   0 110535. 1219.20   3
  -2  -3   0 112024. 1244.19   2
  -2  -3  -1 14066.5 311.579   3
  -2  -3  -1 14521.9 317.392   2
  -2  -3  -2 214424. 2158.14   3
  -2  -3  -3 8176.58 243.595   3
   2   3   3 7778.44 186.576   1
  -2  -3  -4 182204. 1922.75   3
   2   3   4 181097. 1774.70   1
   2   3   5 16031.2 309.579   1
  -2  -3  -5 16285.4 383.609   3
   2   3   6 1154.07 86.0192   1
  -2  -3  -6 1092.56 105.267   3
   2   3   7 1837.27 120.588   1
  -2  -3  -7 2014.38 145.835   3
   2   3   8 15931.9 389.375   1
  -2  -3  -8 15650.6 422.520   3
   2   3   9 23131.9 525.420   1
  -2  -3  -9 23360.9 542.567   3
  -2  -3 -10 7470.86 306.746   3
   2   3  10 7847.97 315.191   1
   2   3  11 12562.3 431.204   1
  -2  -3 -11 12660.7 414.110   3
   2   3  12 24.4431 70.8546   1
  -2  -3 -12 152.798 67.4325   3
   2   3  13 276.922 98.1942   1
   2   3  14 134.772 91.4140   1
   2   3  14 235.468 121.673   2
   2   3  15 142.452 115.280   2
   2   3  15 61.0970 83.3403   1
   2   3  16 309.551 129.711   2
  -2  -4  15 55.6725 109.105   2
  -2  -4  14-70.7711 109.273   2
  -2  -4  13-105.793 132.946   2
   2   4 -13 67.0293 76.7427   4
   2   4 -12 312.324 98.1823   4
  -2  -4  12 68.8659 107.338   2
  -2  -4  11 1824.85 217.399   2
  -2  -4  10-53.5985 104.064   2
  -2  -4   9 3705.60 261.790   2
  -2  -4   8 4456.54 266.845   2
  -2  -4   8 4160.47 141.636   3
  -2  -4   7 3641.32 226.233   2
  -2  -4   7 3469.53 133.292   3
  -2  -4   6 1203.48 129.752   2
  -2  -4   6 1245.16 83.2244   3
  -2  -4   5 12409.4 378.240   2
  -2  -4   5 12205.0 274.424   3
  -2  -4   4 112064. 1391.44   2
  -2  -4   4 112226. 1235.04   3
  -2  -4   3 98440.3 1219.60   2
   2   4  -3 94216.8 940.512   4
  -2  -4   3 98101.6 1105.77   3
  -2  -4   2 210890. 2132.37   3
  -2  -4   2 215472. 2236.07   2
  -2  -4   1 27194.1 477.966   3
  -2  -4   1 28414.3 526.341   2
  -2  -4   0 49505.3 720.985   3
  -2  -4   0 49872.9 741.789   2
  -2  -4  -1 61120.2 847.818   3
  -2  -4  -1 62365.7 867.562   2
  -2  -4  -2 1876.93 124.726   3
  -2  -4  -3 236328. 2490.20   3
   2   4   3 244731. 2272.28   1
  -2  -4  -4 127181. 1512.81   3
   2   4   4 126868. 1294.73   1
   2   4   5 13207.5 271.629   1
  -2  -4  -5 12838.9 371.382   3
   2   4   6 10437.0 254.328   1
  -2  -4  -6 10195.7 337.115   3
  -2  -4  -7 7602.50 299.526   3
   2   4   7 7480.11 237.286   1
   2   4   8 3969.96 185.877   1
  -2  -4  -8 3808.68 222.851   3
  -2  -4  -9 261.885 79.7987   3
   2   4   9 332.380 70.2834   1
   2   4  10 4724.26 242.760   1
  -2  -4 -10 4339.36 259.508   3
  -2  -4 -11 3296.42 228.657   3
   2   4  11 3457.80 222.374   1
   2   4  12 506.684 107.021   1
  -2  -4 -12 439.776 97.1883   3
   2   4  13 164.601 80.7893   1
  -2  -4 -13 42.1769 55.9291   3
   2   4  14 500.959 112.165   1
   2   4  15 551.657 156.624   2
  -2  -5  14 75.1190 104.303   2
  -2  -5  13-43.2433 119.695   2
  -2  -5  12 258.371 120.380   2
  -2  -5  11 1348.38 190.992   2
  -2  -5  10 1415.47 186.356   2
  -2  -5   9 14540.1 525.623   2
  -2  -5   8 975.604 146.149   2
  -2  -5   7 10914.7 406.481   2
  -2  -5   7 10587.7 250.379   3
  -2  -5   6 213.920 90.4050   2
  -2  -5   6 289.136 50.8585   3
  -2  -5   5 13112.3 314.666   3
  -2  -5   5 11733.7 390.011   2
  -2  -5   4 61579.5 978.247   2
  -2  -5   4 64748.9 860.187   3
  -2  -5   3 932.196 91.7437   3
  -2  -5   3 1835.60 146.583   2
  -2  -5   2 52842.7 773.784   3
  -2  -5   2 51909.7 843.435   2
  -2  -5   1 2300.99 140.570   3
  -2  -5   1 2487.86 164.048   2
  -2  -5   0 903.392 104.001   2
  -2  -5   0 665.527 85.3181   3
  -2  -5  -1 3058.91 171.490   3
  -2  -5  -1 2871.62 175.350   2
  -2  -5  -2 40710.3 570.749   4
  -2  -5  -2 42430.1 718.679   3
  -2  -5  -3 232747. 2513.87   3
   2   5   3 234962. 2190.08   1
   2   5   4 50.2056 25.0849   1
  -2  -5  -4 83.4278 72.7296   3
   2   5   5 62210.9 732.419   1
  -2  -5  -5 61452.4 974.642   3
   2   5   6 9635.81 236.956   1
  -2  -5  -6 9680.28 352.893   3
   2   5   7 12569.8 300.415   1
  -2  -5  -7 11882.6 413.372   3
  -2  -5  -8-67.5337 83.8255   3
   2   5   8-49.0738 45.9535   1
   2   5   9 5322.11 232.036   1
  -2  -5  -9 4888.40 285.709   3
  -2  -5 -10 15451.0 521.263   3
   2   5  10 15648.0 435.569   1
  -2  -5 -11-73.7583 92.9833   3
   2   5  11 24.1984 53.1569   1
  -2  -5 -12 478.651 114.950   3
  -2  -5 -13 231.162 88.1001   3
   2   5  15 172.547 122.149   2
  -2  -5 -15 42.4109 125.237   4
  -2  -6  14 232.724 123.181   2
  -2  -6  13 335.350 142.029   2
  -2  -6  12 949.835 174.388   2
  -2  -6  11 122.189 108.040   2
  -2  -6  10 5650.93 350.514   2
  -2  -6   9 2593.34 235.809   2
  -2  -6   8 5119.01 306.850   2
  -2  -6   7 101.008 33.1870   3
  -2  -6   7 5.91755 83.0699   2
  -2  -6   6 7677.76 348.596   2
  -2  -6   6 7898.36 236.440   3
  -2  -6   5 23479.6 463.203   3
  -2  -6   5 22825.3 593.998   2
  -2  -6   4 1248.05 143.075   2
  -2  -6   4 1213.96 106.071   3
  -2  -6   3 47699.5 758.922   3
  -2  -6   3 47800.9 866.561   2
  -2  -6   2 30780.9 590.933   3
  -2  -6   2 29706.5 647.811   2
  -2  -6   1 20726.0 477.527   3
  -2  -6   1 21401.4 524.065   2
  -2  -6   0 12143.6 365.395   3
  -2  -6   0 12536.7 393.428   2
  -2  -6  -1 167047. 1946.78   3
  -2  -6  -2 92366.3 1283.64   3
  -2  -6  -3 359.275 90.6435   3
   2   6   3 418.393 40.3962   1
  -2  -6  -3 364.927 59.8678   4
  -2  -6  -4 47310.7 865.670   3
   2   6   4 48404.8 560.460   1
  -2  -6  -4 47075.8 787.092   4
  -2  -6  -5 23154.9 590.534   3
   2   6   5 25658.1 371.561   1
  -2  -6  -5 23678.6 560.957   4
  -2  -6  -6 36274.8 785.212   3
   2   6   6 38162.5 523.782   1
   2   6   7 5360.22 182.869   1
  -2  -6  -7 4886.93 279.283   3
   2   6   8 26969.6 492.449   1
  -2  -6  -8 27086.9 688.330   3
  -2  -6  -9 6853.48 349.750   3
  -2  -6 -10-18.1858 91.4727   3
  -2  -6 -11 155.591 99.3553   3
  -2  -6 -11 1.24825 120.839   4
  -2  -6 -12 88.7082 103.815   4
  -2  -6 -12 80.5565 82.1818   3
  -2  -6 -13 1194.62 174.354   3
  -2  -6 -13 1727.01 246.553   4
  -2  -6 -14 493.069 168.996   4
  -2  -7  14 113.041 106.509   2
  -2  -7  13 383.233 136.965   2
  -2  -7  12 97.4526 105.688   2
  -2  -7  11 316.376 123.826   2
  -2  -7  10 1530.34 200.443   2
  -2  -7   9 716.017 145.507   2
  -2  -7   8 3083.04 253.552   2
  -2  -7   7 681.642 130.704   2
  -2  -7   6 16671.6 379.362   3
  -2  -7   6 16400.8 541.964   2
  -2  -7   5 1189.86 107.584   3
  -2  -7   5 1393.09 165.039   2
  -2  -7   4 7730.85 352.218   2
  -2  -7   4 7853.44 282.425   3
  -2  -7   3 34387.3 659.007   3
  -2  -7   3 34274.2 765.338   2
  -2  -7   2 8401.04 313.627   3
  -2  -7   2 8429.33 354.557   2
  -2  -7   1 59867.7 961.942   3
  -2  -7   1 60095.8 1031.56   2
  -2  -7   0 39478.6 764.573   3
  -2  -7   0 40560.7 821.620   2
  -2  -7  -1 59831.4 1002.34   3
  -2  -7  -2 35966.1 739.715   3
   2   7   2 34909.9 470.725   1
   2   7   3 5915.43 133.759   1
  -2  -7  -3 5834.71 292.078   3
  -2  -7  -4 1331.91 155.424   3
  -2  -7  -4 1352.66 124.536   4
   2   7   4 1341.00 56.0398   1
  -2  -7  -5 4674.88 278.267   3
  -2  -7  -5 4931.21 256.841   4
  -2  -7  -6 2032.14 195.417   3
  -2  -7  -6 2390.85 194.987   4
  -2  -7  -7 9846.03 422.490   4
  -2  -7  -7 9974.07 420.223   3
  -2  -7  -8 18083.7 611.877   4
  -2  -7  -8 18097.1 588.745   3
  -2  -7  -9 575.543 125.971   3
  -2  -7  -9 811.574 154.739   4
  -2  -7 -10 1146.61 175.915   3
  -2  -7 -10 1084.56 183.821   4
  -2  -7 -11-135.906 126.678   4
  -2  -7 -11-44.2671 88.6519   3
  -2  -7 -12 1485.55 223.596   4
  -2  -7 -12 1409.60 193.791   3
  -2  -7 -13-46.3886 108.300   4
  -2  -7 -13-79.1266 97.0910   3
  -2  -7 -14 537.766 174.631   4
  -2  -7 -14 400.410 122.298   3
  -2  -8  13 142.149 104.537   2
  -2  -8  12 725.683 171.529   2
  -2  -8  11 1453.68 211.118   2
  -2  -8  10-88.8433 99.3885   2
  -2  -8   9 2135.47 235.188   2
  -2  -8   8 933.313 164.948   2
  -2  -8   7 5318.45 335.787   2
  -2  -8   6 5909.12 348.734   2
  -2  -8   5 21755.3 498.643   3
  -2  -8   5 22229.8 661.314   2
  -2  -8   4 18996.6 484.293   3
  -2  -8   4 18012.7 581.018   2
  -2  -8   3 2665.99 184.423   3
  -2  -8   3 2652.60 218.263   2
  -2  -8   2 9015.23 346.065   3
  -2  -8   2 8971.44 386.309   2
  -2  -8   1 52.3951 66.5352   3
  -2  -8   1 38.9337 78.5095   2
  -2  -8   0 32300.0 724.020   3
  -2  -8  -1 32130.9 731.995   3
  -2  -8  -2 4789.21 280.341   3
  -2  -8  -3 21639.2 608.266   3
  -2  -8  -4 93.4102 97.3950   3
  -2  -8  -5 536.222 128.397   3
  -2  -8  -6 947.833 154.993   3
  -2  -8  -7 18230.0 594.614   4
  -2  -8  -7 19386.6 631.462   3
  -2  -8  -8 4659.43 327.887   3
  -2  -8  -8 5115.92 329.931   4
  -2  -8  -9 4776.48 338.218   4
  -2  -8  -9 4172.26 317.227   3
  -2  -8 -10-16.7045 111.971   3
  -2  -8 -10 164.283 114.063   4
  -2  -8 -11 596.182 159.886   4
  -2  -8 -11 498.807 143.026   3
  -2  -8 -12 77.4033 113.520   4
  -2  -8 -12-163.424 115.320   3
  -2  -8 -13 130.559 122.431   4
  -2  -8 -13 101.941 98.1119   3
  -2  -9  13-64.4156 100.388   2
  -2  -9  12 192.680 115.393   2
  -2  -9  11-76.3437 113.039   2
  -2  -9  10 414.649 131.995   2
  -2  -9   9 28.0553 88.5659   2
  -2  -9   8 318.847 109.537   2
  -2  -9   7 4293.30 316.998   2
  -2  -9   6 2740.16 255.164   2
  -2  -9   5 27274.8 595.355   3
  -2  -9   5 27714.3 781.324   2
  -2  -9   4 568.466 130.521   2
  -2  -9   4 396.016 82.7260   3
  -2  -9   3 7941.18 335.219   3
  -2  -9   3 7559.07 382.861   2
  -2  -9   2 2303.88 190.714   3
  -2  -9   2 2224.96 211.316   2
  -2  -9   1 9481.94 387.123   3
  -2  -9   0 10345.8 413.312   3
  -2  -9  -1 3520.67 251.258   3
  -2  -9  -2 53922.9 1060.83   3
  -2  -9  -3 186.252 108.593   3
  -2  -9  -4 10343.4 451.767   3
  -2  -9  -5 6631.73 372.583   3
  -2  -9  -6 10120.6 471.106   3
  -2  -9  -7 1415.83 203.911   3
  -2  -9  -8 1429.77 205.604   3
  -2  -9  -9 1882.97 228.844   3
  -2  -9 -10 326.116 129.777   3
  -2  -9 -11 156.117 106.768   3
  -2  -9 -12 174.652 108.856   3
  -2 -10  12-32.1546 91.9116   2
  -2 -10  11 306.027 127.896   2
  -2 -10  10 129.445 102.072   2
  -2 -10   9 213.180 110.506   2
  -2 -10   8-37.1867 94.1959   2
  -2 -10   7 544.579 136.320   2
  -2 -10   6 3819.61 310.032   2
  -2 -10   5 2109.82 233.257   2
  -2 -10   4 9702.11 376.268   3
  -2 -10   4 9243.02 461.066   2
  -2 -10   3 3159.59 226.547   3
  -2 -10   3 3088.09 265.937   2
  -2 -10   2 23199.5 644.103   3
  -2 -10   1 3135.54 241.771   3
  -2 -10   0 4301.46 286.529   3
  -2 -10  -1 14464.8 530.611   3
  -2 -10  -2 5184.63 330.144   3
  -2 -10  -3 5185.96 335.299   3
  -2 -10  -4-139.482 123.479   3
  -2 -10  -5 5529.26 360.096   3
  -2 -10  -6 806.597 166.915   3
  -2 -10  -7 282.173 124.972   3
  -2 -10  -8 626.982 156.488   3
  -2 -10  -9 53.9376 104.568   3
  -2 -10 -10 148.852 115.937   3
  -2 -11  10-9.38407 89.2889   2
  -2 -11   9 1905.31 244.838   2
  -2 -11   8 199.926 120.351   2
  -2 -11   7 3044.18 292.586   2
  -2 -11   6 29.4457 81.1454   2
  -2 -11   5-46.9600 96.6733   2
  -2 -11   4 93.0972 90.5609   2
  -2 -11   3 63.0831 68.5828   3
  -2 -11   2 3895.36 273.476   3
  -2 -11   1 1228.14 173.029   3
  -2 -11   0 13638.1 537.395   3
  -2 -11  -1 1258.43 185.051   3
  -2 -11  -2 2765.69 259.691   3
  -2 -11  -3 1897.40 227.185   3
  -2 -11  -4 2722.20 274.093   3
  -2 -11  -5 9008.12 483.452   3
  -2 -11  -6 371.217 140.299   3
  -2 -11  -7 2703.56 286.075   3
  -2 -11  -8 3.67466 102.624   3
  -2 -11  -9-1.46251 103.322   3
  -2 -12   8 1393.22 215.265   2
  -2 -12   7 289.124 122.629   2
  -2 -12   6-69.1332 99.9858   2
  -2 -12   5 1710.47 226.680   2
  -2 -12   3 6198.59 352.818   3
  -2 -12   2 280.681 104.550   3
  -2 -12   1 12970.0 543.612   3
  -2 -12   0 989.843 172.375   3
  -2 -12  -1 2207.51 242.919   3
  -2 -12  -2 85.4326 100.137   3
  -2 -12  -3 327.915 118.053   3
  -2 -12  -4 2777.27 283.459   3
  -2 -12  -5-113.139 128.327   3
  -2 -12  -6 4258.94 357.465   3
  -2 -13   2 778.041 149.100   3
  -2 -13   1 1426.55 197.159   3
  -2 -13   0 508.107 137.841   3
  -2 -13  -1 2285.82 257.716   3
  -2 -13  -2 2055.32 249.584   3
  -2 -13  -3 1019.88 192.590   3
  -2 -13  -4 124.730 110.699   3
   3  -9  12 27.1465 66.4609   1
   3  -8   7 1317.39 144.823   1
   3  -8   8 140.479 72.3024   1
   3  -8   9 5491.24 320.618   1
   3  -8  10 122.999 81.2279   1
   3  -8  11 797.224 146.422   1
   3  -8  12 90.9400 89.1857   1
   3  -8  13-17.0072 82.0203   1
  -3   7  10 171.670 108.943   2
  -3   7   9 274.083 105.942   2
  -3   7   8 96.4548 89.5931   2
  -3   7   7 365.072 106.214   2
   3  -7   4 25614.6 515.954   1
   3  -7   5 3891.93 207.340   1
   3  -7   6 3671.30 213.818   1
   3  -7   7 107.051 64.2702   1
   3  -7   8 1161.03 144.073   1
   3  -7   9 5184.91 305.472   1
   3  -7  10 19.2735 82.3374   1
   3  -7  11 3561.34 283.901   1
   3  -7  12 42.1344 85.6299   1
   3  -7  13 1136.57 186.159   1
   3  -7  14 175.817 114.160   1
  -3   6  11 451.368 136.933   2
  -3   6  10 461.802 129.173   2
  -3   6   9 406.768 123.591   2
  -3   6   8 755.624 140.008   2
  -3   6   7 583.919 119.403   2
   3  -6   1 6606.61 172.006   1
   3  -6   2 2293.72 115.248   1
   3  -6   3 7279.11 232.289   1
   3  -6   4 1437.42 117.500   1
   3  -6   5 12707.9 370.459   1
   3  -6   6 1065.31 120.920   1
   3  -6   7 16977.5 486.466   1
   3  -6   8 4423.84 260.871   1
   3  -6   9 256.324 87.9720   1
   3  -6  10 3237.99 251.604   1
   3  -6  11 227.369 108.459   1
   3  -6  12 7026.61 408.567   1
   3  -6  13 185.909 122.705   1
   3  -6  14 1375.86 207.170   1
   3  -6  15 17.4424 103.140   1
  -3   5  11 31.8610 90.1562   2
  -3   5  10 47.1280 93.4188   2
  -3   5   9 434.159 125.257   2
  -3   5   8 435.508 119.147   2
  -3   5   7 2646.67 212.405   2
   3  -5  -1 15100.7 238.610   1
   3  -5   0 19338.8 304.949   1
   3  -5   1 28.9289 28.7702   1
   3  -5   2 6123.49 190.689   1
   3  -5   3 24802.8 454.065   1
   3  -5   4 730.598 85.0839   1
   3  -5   5 19977.0 457.314   1
   3  -5   6 30893.0 617.776   1
   3  -5   6 30390.0 457.815   2
   3  -5   7 25916.1 599.550   1
   3  -5   7 26252.2 456.364   2
   3  -5   8 5546.85 281.051   1
   3  -5   8 5983.66 218.898   2
   3  -5   9 2349.71 202.255   1
   3  -5   9 2234.01 144.729   2
   3  -5  10-165.525 101.857   1
   3  -5  10 39.5232 43.5507   2
   3  -5  11 585.149 131.002   1
   3  -5  12 405.073 127.070   1
   3  -5  13 640.096 157.551   1
   3  -5  14 994.492 192.470   1
   3  -5  15 129.739 115.247   1
  -3   4  12 180.785 114.658   2
  -3   4  11 73.6048 96.6233   2
  -3   4  10 311.470 121.062   2
  -3   4   9 73.8782 95.9856   2
  -3   4   8 1188.65 161.614   2
  -3   4   7 877.091 139.376   2
  -3   4   6 7191.18 313.064   2
   3  -4  -2 1446.61 77.3230   1
   3  -4  -1 23258.4 349.664   1
   3  -4   0 13088.9 253.162   1
   3  -4   1 82075.7 909.854   1
  -3   4  -1 79270.7 878.818   2
  -3   4  -2 8663.17 160.170   2
   3  -4   2 9213.17 233.975   1
  -3   4  -3 3514.98 82.9814   2
   3  -4   3 4682.65 173.670   1
   3  -4   4 296.854 58.1654   1
   3  -4   5 3994.08 186.423   1
   3  -4   5 3740.53 111.722   2
   3  -4   6 39210.4 692.319   1
   3  -4   6 38756.6 530.265   2
   3  -4   7 17612.3 461.235   1
   3  -4   7 17567.4 354.493   2
   3  -4   8 21556.7 441.802   2
   3  -4   8 20720.5 540.565   1
   3  -4   9-61.1415 95.4782   1
   3  -4   9-19.8555 49.0025   2
   3  -4  10 3185.41 190.257   2
   3  -4  10 3226.84 240.447   1
   3  -4  11 319.105 75.8120   2
   3  -4  11 302.779 106.121   1
   3  -4  12 54.1076 94.4205   1
   3  -4  12-4.15291 57.4127   2
   3  -4  13 2374.88 206.022   2
   3  -4  13 2757.20 265.916   1
   3  -4  14 672.905 164.970   1
   3  -4  15 1153.50 205.852   1
   3  -4  16-127.049 123.481   1
  -3   3  13 68.7004 112.355   2
  -3   3  12-30.7748 100.891   2
  -3   3  11 170.138 105.136   2
  -3   3  10 42.6681 91.3988   2
  -3   3   9 16.1438 92.8030   2
  -3   3   8 383.488 112.036   2
  -3   3   7 7925.23 342.412   2
  -3   3   6 26383.2 611.415   2
  -3   3   5 12183.3 373.461   2
  -3   3   4 24430.2 509.415   2
   3  -3  -1 42722.7 561.314   1
   3  -3   0 20012.2 335.234   1
   3  -3   1 136572. 1397.03   1
  -3   3  -1 136867. 1308.50   2
   3  -3   2 2438.84 117.045   1
   3  -3   3 22651.1 406.170   1
   3  -3   4 10174.4 273.954   1
   3  -3   5 72604.4 950.510   1
   3  -3   5 71828.2 755.750   2
   3  -3   6 24983.2 392.624   2
   3  -3   6 25560.4 521.506   1
   3  -3   7 11054.1 273.458   2
   3  -3   7 10451.8 343.021   1
   3  -3   8 35921.9 586.884   2
   3  -3   8 35870.2 701.896   1
   3  -3   9 607.706 83.4912   2
   3  -3   9 516.317 111.390   1
   3  -3  10 4398.38 270.405   1
   3  -3  10 4948.53 238.038   2
   3  -3  11 2217.06 211.718   1
   3  -3  11 2449.81 185.164   2
   3  -3  12 2824.53 246.831   1
   3  -3  12 3133.10 222.057   2
   3  -3  13 892.791 168.260   1
   3  -3  13 1012.36 145.260   2
   3  -3  14 440.169 141.716   1
   3  -3  14 338.026 106.993   2
   3  -3  15 47.9995 107.291   1
   3  -3  15 264.421 98.5279   2
   3  -3  16 381.483 148.778   1
  -3   2  13 110.119 101.057   2
  -3   2  12 7.97892 103.063   2
  -3   2  11 735.957 154.704   2
  -3   2  10 17.7722 95.5890   2
  -3   2   9 249.995 108.603   2
  -3   2   8 958.687 144.096   2
  -3   2   7 1959.07 175.194   2
  -3   2   6 1753.11 157.871   2
  -3   2   5 1110.76 122.021   2
  -3   2   4 1971.31 138.610   2
  -3   2   3 10978.9 295.674   2
  -3   2   2 1991.82 113.232   2
  -3   2   1 8505.37 206.830   2
  -3   2   0 166100. 1572.60   2
  -3   2  -1 56585.8 561.605   2
   3  -2   1 56339.0 693.560   1
   3  -2   2 86720.9 973.471   1
   3  -2   3 141.964 42.2282   1
   3  -2   4 183777. 1882.15   1
   3  -2   5 150.315 58.2954   1
   3  -2   5 169.723 27.4086   2
   3  -2   6 23828.1 387.083   2
   3  -2   6 23049.5 477.819   1
   3  -2   7 16296.0 340.373   2
  -3   2  -7 14345.3 281.530   3
   3  -2   7 15700.0 412.094   1
   3  -2   8 10703.7 298.631   2
   3  -2   8 10782.5 365.183   1
  -3   2  -8 9021.58 191.840   3
  -3   2  -8 9987.87 192.605   3
   3  -2   9 10993.7 386.720   1
   3  -2   9 10948.2 333.038   2
   3  -2  10 46.3832 86.3222   1
   3  -2  10 153.691 59.2695   2
   3  -2  11 13912.3 497.776   1
   3  -2  11 14638.6 450.935   2
   3  -2  12-182.768 122.210   1
   3  -2  12 65.5252 81.2832   2
   3  -2  13 511.845 140.972   1
   3  -2  13 575.249 119.290   2
   3  -2  14-34.2782 78.6282   2
   3  -2  14-130.016 121.232   1
   3  -2  15-90.4009 121.240   1
   3  -2  15 78.2695 82.1728   2
   3  -2  16 94.8138 92.8531   2
   3  -2  16 42.4670 108.223   1
   3  -2  17-123.950 124.098   1
   3  -2  17 132.856 93.9059   2
  -3   1  13-18.5695 102.814   2
  -3   1  12 549.464 153.673   2
  -3   1  11-76.9114 115.849   2
  -3   1  10 414.438 122.295   2
  -3   1   9 795.570 141.929   2
  -3   1   8 3309.39 231.084   2
  -3   1   7 10409.0 372.640   2
  -3   1   6 288.374 95.9276   2
  -3   1   5 33993.3 630.761   2
  -3   1   4 1643.17 126.367   2
  -3   1   3 71492.9 912.743   2
  -3   1   2 72253.3 868.500   2
  -3   1   1 216008. 2055.00   2
  -3   1   0 453.080 40.9407   2
  -3   1  -1 209.188 19.6819   2
   3  -1   1 206.649 40.5275   1
   3  -1   2 40811.5 557.120   1
   3  -1   3 19354.9 357.789   1
   3  -1   4 108996. 1039.63   2
   3  -1   4 112286. 1228.39   1
   3  -1   5 58335.0 802.135   1
   3  -1   5 59235.5 674.259   2
   3  -1   6 64419.2 785.325   2
   3  -1   6 64347.3 897.214   1
   3  -1   7 6115.15 210.330   2
   3  -1   7 5995.32 244.183   1
  -3   1  -7 6473.86 178.524   3
   3  -1   8 1522.05 142.662   1
   3  -1   8 1711.38 123.394   2
  -3   1  -8 1678.10 86.5416   3
   3  -1   9 19010.3 506.213   1
   3  -1   9 18467.6 443.507   2
   3  -1  10 6669.47 317.644   1
   3  -1  10 6612.80 282.947   2
   3  -1  11 22927.9 640.333   1
   3  -1  11 21582.8 552.156   2
   3  -1  12 214.886 113.358   1
   3  -1  12 186.132 86.8328   2
   3  -1  13 860.663 158.702   1
   3  -1  13 873.950 135.429   2
   3  -1  14-51.1624 106.046   1
   3  -1  14-163.480 103.403   2
   3  -1  15 83.0954 109.649   1
   3  -1  15-150.935 106.910   2
   3  -1  16-24.8925 108.121   1
   3  -1  16-68.8058 100.712   2
   3  -1  17 57.8371 105.663   1
   3  -1  17 400.660 131.005   2
  -3   0  14 116.779 126.206   2
  -3   0  13 563.817 159.576   2
  -3   0  12 570.161 163.023   2
  -3   0  11 860.353 170.145   2
  -3   0  10 237.642 119.172   2
  -3   0   9 7145.85 352.762   2
   3   0  -9 7018.58 376.390   4
  -3   0   8 2483.22 204.907   2
  -3   0   7 1974.19 174.704   2
  -3   0   6 3681.74 209.072   2
  -3   0   5 5101.24 226.190   2
  -3   0   4 8324.92 269.128   2
  -3   0   3 3616.03 161.337   2
  -3   0   2 222326. 2180.35   2
  -3   0   1 189.309 40.6066   2
  -3   0   0 67821.4 736.710   2
   3   0   0 68546.2 756.112   2
   3   0   1 780.978 46.8208   2
  -3   0  -1 798.840 45.4167   2
   3   0   2 16073.0 229.442   2
   3   0   2 16176.8 313.749   1
  -3   0  -2 15835.1 221.346   2
   3   0   3 80925.7 949.724   1
   3   0   3 83630.4 840.263   2
   3   0   4 1299.23 92.0780   1
   3   0   5 118354. 1337.29   1
   3   0   6 32000.5 566.267   1
  -3   0  -6 32017.8 492.939   3
   3   0   7 37786.6 661.206   1
  -3   0  -7 40086.7 575.766   3
  -3   0  -8 356.197 51.7689   3
   3   0   8 255.022 82.4209   1
   3   0   9 57519.2 957.897   1
  -3   0  -9 58019.8 748.248   3
   3   0  10 23083.2 585.041   1
   3   0  10 22621.4 539.519   2
  -3   0 -10 21401.1 378.099   3
   3   0  11 413.612 119.524   1
   3   0  11 375.836 101.426   2
   3   0  12 15957.5 551.618   1
   3   0  12 15287.4 489.303   2
   3   0  13 1463.85 185.530   1
   3   0  13 1199.11 156.714   2
   3   0  14 632.795 121.265   2
   3   0  14 481.952 144.661   1
   3   0  15-17.2409 97.9584   1
   3   0  15-91.6388 95.2926   2
   3   0  16 224.668 123.410   1
   3   0  16 176.771 95.8850   2
   3   0  17 80.2054 116.676   1
   3   0  17 14.4137 84.7618   2
  -3  -1  14 111.604 120.169   2
  -3  -1  13 157.034 126.606   2
   3   1 -12 202.652 112.664   4
  -3  -1  12 299.621 131.396   2
  -3  -1  11 231.586 131.127   2
   3   1 -11 134.821 102.723   4
   3   1 -10 901.515 152.898   4
  -3  -1  10 1124.79 180.944   2
  -3  -1   9 4933.74 301.506   2
   3   1  -9 4725.32 294.121   4
   3   1  -8 355.923 113.754   4
  -3  -1   8 543.360 128.638   2
  -3  -1   7 33603.9 705.217   2
   3   1  -7 31539.0 713.114   4
   3   1  -6 49.1409 62.0881   4
  -3  -1   6 159.922 79.9416   2
  -3  -1   5 5959.98 250.782   2
  -3  -1   4 170.751 67.3164   2
  -3  -1   3 11255.5 295.208   2
  -3  -1   2 124487. 1347.29   2
  -3  -1   1 10655.1 239.339   2
  -3  -1   0 54714.6 654.057   2
   3   1   1 2312.19 97.2207   2
  -3  -1  -1 2417.60 96.8309   2
  -3  -1  -2 22337.6 337.257   2
   3   1   2 23111.2 352.331   2
   3   1   3 338.389 52.8772   1
  -3  -1  -4 100006. 1145.06   3
   3   1   4 100476. 1141.93   1
   3   1   5 296766. 2884.79   1
  -3  -1  -5 300182. 2871.25   3
  -3  -1  -6 26958.3 470.990   3
   3   1   6 26263.1 491.300   1
   3   1   7 8111.06 273.231   1
  -3  -1  -7 8364.18 252.550   3
   3   1   8 65129.6 968.318   1
  -3  -1  -8 65679.8 883.129   3
   3   1   9 1820.91 159.617   1
  -3  -1  -9 1660.33 117.245   3
   3   1  10 2418.73 190.886   1
  -3  -1 -10 2063.11 131.683   3
   3   1  11 1782.18 179.102   1
  -3  -1 -11 1786.63 119.581   3
   3   1  12 6300.08 338.416   1
   3   1  12 5616.10 295.648   2
   3   1  13 483.043 128.797   1
   3   1  13 682.145 130.776   2
   3   1  14 417.729 123.490   1
   3   1  14 453.507 122.793   2
   3   1  15 612.350 152.723   1
   3   1  15 616.456 142.272   2
   3   1  16 482.223 149.553   1
   3   1  16 239.262 111.229   2
   3   1  17 40.8754 99.1211   1
   3   1  17-53.8286 88.4686   2
  -3  -2  14 134.057 119.455   2
  -3  -2  13-27.3974 116.171   2
   3   2 -12-1.84310 80.6495   4
  -3  -2  12-51.4952 106.527   2
  -3  -2  11-100.800 110.373   2
   3   2 -11 77.8304 88.7757   4
   3   2 -10 1492.01 179.449   4
  -3  -2  10 1531.08 194.001   2
   3   2  -9 822.798 133.447   4
  -3  -2   9 1080.29 167.595   2
  -3  -2   8 24367.0 639.322   2
   3   2  -8 24200.4 618.640   4
  -3  -2   7 2948.96 212.040   2
   3   2  -7 2912.87 199.181   4
  -3  -2   6 8264.36 320.715   2
   3   2  -6 7746.36 293.713   4
  -3  -2   5 46.5098 67.7428   2
  -3  -2   4 29138.7 560.632   2
  -3  -2   3 105159. 1256.22   2
  -3  -2   2 540.816 73.3219   2
  -3  -2   1 190908. 1920.49   2
  -3  -2   0 39881.8 566.272   2
  -3  -2  -1 124604. 1317.06   2
  -3  -2  -2 4261.34 150.091   2
  -3  -2  -3 137579. 1473.25   3
   3   2   3 131050. 1428.06   1
  -3  -2  -4 43520.8 658.800   3
   3   2   4 43258.5 613.213   1
   3   2   5 9303.82 256.927   1
  -3  -2  -5 9357.31 272.136   3
  -3  -2  -6 12864.5 338.046   3
   3   2   6 12365.5 315.355   1
   3   2   7 3193.72 169.964   1
  -3  -2  -7 3397.89 173.246   3
   3   2   8 27525.0 555.820   1
  -3  -2  -8 28938.6 562.100   3
   3   2   9 2510.39 175.810   1
  -3  -2  -9 2312.18 152.568   3
   3   2  10 19985.1 526.670   1
  -3  -2 -10 20263.7 476.266   3
   3   2  11 6149.99 306.754   1
  -3  -2 -11 6496.41 263.180   3
   3   2  12-58.3562 84.2772   1
  -3  -2 -12-66.9347 56.3125   3
   3   2  13 345.875 110.262   1
   3   2  14-5.69994 95.9189   1
   3   2  14 191.021 101.205   2
   3   2  15 1985.74 219.743   2
   3   2  15 1690.99 214.408   1
   3   2  16 149.260 106.018   1
   3   2  16 135.897 103.624   2
   3   2  17 192.651 102.109   1
   3   2  17 71.0178 97.6634   2
  -3  -3  14-91.9060 118.389   2
  -3  -3  13 76.5319 109.030   2
   3   3 -13 164.975 100.888   4
   3   3 -12 133.305 85.0327   4
  -3  -3  12 97.8304 105.710   2
  -3  -3  11 1230.14 195.608   2
   3   3 -11 1030.55 158.117   4
  -3  -3  10 864.166 167.597   2
   3   3 -10 846.340 137.868   4
  -3  -3   9 9769.53 424.665   2
   3   3  -9 9331.81 387.237   4
  -3  -3   8 2016.33 193.059   2
   3   3  -8 2078.63 173.291   4
  -3  -3   7 1930.50 178.003   2
   3   3  -7 1826.16 153.330   4
  -3  -3   6 17555.5 485.912   2
   3   3  -6 17284.0 424.153   4
  -3  -3   5 20010.6 495.641   2
  -3  -3   4 76833.6 1062.72   2
  -3  -3   3 11734.3 329.935   2
  -3  -3   2 12852.0 327.713   2
  -3  -3   1 61433.4 678.770   4
  -3  -3   1 66883.6 855.992   2
  -3  -3   0 15395.3 344.532   2
  -3  -3  -1 173862. 1833.74   3
  -3  -3  -1 172287. 1809.79   2
  -3  -3  -2 297415. 2930.01   3
  -3  -3  -2 299392. 2894.82   2
  -3  -3  -3 303837. 2992.50   3
   3   3   3 302511. 2895.26   1
   3   3   4 1313.79 93.3480   1
  -3  -3  -4 1426.15 113.684   3
  -3  -3  -5 14758.6 385.665   3
   3   3   5 15762.8 339.979   1
   3   3   6 18659.1 394.374   1
  -3  -3  -6 19716.4 457.575   3
   3   3   7 3892.20 180.839   1
  -3  -3  -7 3886.87 202.952   3
   3   3   8 15959.0 398.235   1
  -3  -3  -8 15412.6 426.858   3
   3   3   9 21691.7 507.096   1
  -3  -3  -9 22025.8 534.299   3
   3   3  10 19030.3 503.278   1
  -3  -3 -10 20154.8 517.803   3
   3   3  11 727.567 115.762   1
  -3  -3 -11 914.223 117.872   3
   3   3  12-4.42242 80.3929   1
  -3  -3 -12 51.9358 55.0095   3
   3   3  13 886.426 142.520   1
   3   3  14 1074.42 165.881   1
   3   3  15 2.73452 84.3242   1
   3   3  15 192.380 114.156   2
   3   3  16 381.569 120.848   1
   3   3  16 455.859 138.199   2
  -3  -4  14 262.433 128.708   2
  -3  -4  13 118.501 118.992   2
  -3  -4  12 179.156 117.711   2
   3   4 -12 86.9846 71.2342   4
   3   4 -11 85.1667 73.5360   4
  -3  -4  11-196.333 141.381   2
   3   4 -10 1034.69 136.720   4
  -3  -4  10 741.467 158.097   2
   3   4  -9 156.751 68.3949   4
  -3  -4   9-82.0184 116.187   2
   3   4  -8 35.5111 51.9500   4
  -3  -4   8-23.2634 105.129   2
   3   4  -7 528.522 82.7436   4
  -3  -4   7 428.894 104.021   2
   3   4  -6 1461.43 114.835   4
  -3  -4   6 1419.40 149.162   2
  -3  -4   5 46234.5 829.939   2
  -3  -4   4 865.646 125.993   2
  -3  -4   3 63357.0 930.528   2
  -3  -4   3 60926.1 855.486   3
  -3  -4   2 37354.6 614.853   3
  -3  -4   2 37109.0 652.125   2
  -3  -4   1 48.9254 51.6213   2
  -3  -4   1 139.163 52.1758   3
  -3  -4   0 11306.9 313.636   3
  -3  -4   0 10622.4 311.612   2
  -3  -4  -1 89060.7 1148.83   3
  -3  -4  -1 91480.3 1156.57   2
  -3  -4  -2 246220. 2530.81   3
  -3  -4  -2 241857. 2523.04   2
   3   4   3 108.649 41.5771   1
  -3  -4  -3 40.1334 61.8698   3
  -3  -4  -4 171823. 1944.02   3
   3   4   4 170761. 1757.64   1
  -3  -4  -5 2691.22 171.908   3
   3   4   5 2773.75 138.256   1
  -3  -4  -6 11460.9 365.233   3
   3   4   6 11148.5 288.215   1
   3   4   7 3769.33 175.461   1
  -3  -4  -7 3926.11 220.514   3
   3   4   8 3233.45 176.729   1
  -3  -4  -8 3286.66 208.877   3
   3   4   9 46985.7 797.527   1
  -3  -4  -9 49171.2 901.529   3
   3   4  10 2239.44 168.732   1
  -3  -4 -10 2209.04 186.611   3
   3   4  11 1767.81 165.166   1
  -3  -4 -11 1622.23 165.174   3
   3   4  12 237.147 85.8714   1
  -3  -4 -12 61.5059 63.9295   3
   3   4  13 80.7245 73.1805   1
  -3  -4 -13 88.5201 68.1480   3
   3   4  14 41.9606 74.5787   1
   3   4  15 30.6399 74.9157   1
   3   4  16 341.675 129.812   2
  -3  -5  14-152.262 129.899   2
  -3  -5  13 86.1470 108.936   2
  -3  -5  12 348.186 147.911   2
  -3  -5  11 264.934 121.655   2
  -3  -5  10 4615.29 325.292   2
   3   5 -10 4415.12 256.555   4
  -3  -5   9 2034.61 215.777   2
   3   5  -9 2231.06 169.212   4
  -3  -5   8 186.164 97.2050   2
   3   5  -8 213.511 64.2797   4
  -3  -5   7 6541.60 328.766   2
   3   5  -7 5866.21 231.158   4
  -3  -5   7 6747.72 234.630   3
  -3  -5   6 6307.62 312.808   2
   3   5  -6 6265.03 212.335   4
  -3  -5   6 6029.99 226.275   3
  -3  -5   5 19387.0 532.931   2
  -3  -5   5 20214.9 438.754   3
  -3  -5   4 59421.9 987.569   2
  -3  -5   4 60633.4 874.127   3
  -3  -5   3 89935.1 1163.88   3
  -3  -5   3 93519.0 1282.94   2
  -3  -5   2 14737.0 381.424   3
  -3  -5   2 14802.9 416.494   2
  -3  -5   1 9287.29 300.372   3
  -3  -5   1 9024.44 320.738   2
  -3  -5   0 36342.7 656.485   3
  -3  -5   0 36842.3 681.011   2
  -3  -5  -1 7694.23 287.511   3
  -3  -5  -1 7291.06 281.787   2
  -3  -5  -2 30974.8 621.372   3
  -3  -5  -2 30015.6 617.178   2
  -3  -5  -3 6415.61 269.714   3
   3   5   3 6530.21 207.737   1
  -3  -5  -4 110928. 1460.93   3
   3   5   4 110621. 1229.64   1
   3   5   5 6320.36 202.779   1
  -3  -5  -5 6142.45 276.191   3
   3   5   6 21100.7 404.869   1
  -3  -5  -6 20645.9 538.195   3
   3   5   7 13952.3 339.385   1
  -3  -5  -7 14616.3 459.045   3
   3   5   8 24638.4 498.953   1
  -3  -5  -8 25895.3 647.386   3
   3   5   9 7400.24 276.494   1
  -3  -5  -9 7105.87 342.396   3
   3   5  10 296.038 78.3623   1
  -3  -5 -10 319.035 98.3481   3
   3   5  11 3916.38 232.540   1
  -3  -5 -11 3772.22 266.376   3
  -3  -5 -12 646.495 124.911   3
   3   5  12 665.807 112.852   1
   3   5  13 995.720 139.211   1
  -3  -5 -13 1030.89 151.131   3
  -3  -6  13 201.173 128.818   2
  -3  -6  12 254.866 126.379   2
  -3  -6  11 2318.99 259.229   2
  -3  -6  10 380.047 139.635   2
  -3  -6   9 6484.82 378.222   2
  -3  -6   8 369.497 122.021   2
  -3  -6   7 13935.0 500.235   2
  -3  -6   7 13718.7 356.268   3
  -3  -6   6 256.099 60.8628   3
  -3  -6   6 339.463 113.237   2
  -3  -6   5 8112.81 285.043   3
  -3  -6   5 7562.89 346.097   2
  -3  -6   4 18393.8 449.057   3
  -3  -6   4 18110.9 525.707   2
  -3  -6   3 18853.5 464.182   3
  -3  -6   3 17907.2 514.897   2
  -3  -6   2 55464.6 903.791   3
  -3  -6   2 56066.9 965.060   2
  -3  -6   1 538.179 110.038   2
  -3  -6   1 550.225 95.1864   3
  -3  -6   0 88357.5 1241.52   3
  -3  -6   0 91051.1 1298.52   2
  -3  -6  -1 4536.27 234.966   3
  -3  -6  -1 4333.45 238.917   2
  -3  -6  -2 5720.74 271.525   3
  -3  -6  -2 5490.09 165.767   4
  -3  -6  -3 86754.0 1271.37   3
   3   6   3 85235.3 1022.84   1
  -3  -6  -4 247.169 100.880   3
   3   6   4 171.783 41.6699   1
   3   6   5 50348.0 679.272   1
  -3  -6  -5 50094.9 931.227   3
  -3  -6  -6 17110.6 519.409   3
   3   6   6 16715.1 346.003   1
   3   6   7 70643.8 909.414   1
  -3  -6  -7 72183.3 1207.31   3
   3   6   8 8942.73 277.225   1
  -3  -6  -8 8541.39 381.657   3
  -3  -6  -9 2101.40 204.113   3
   3   6   9 2416.45 156.108   1
   3   6  10 6362.11 269.978   1
  -3  -6 -10 6478.63 353.991   3
  -3  -6 -11-50.2335 98.2138   3
  -3  -6 -12 1330.36 181.787   3
  -3  -6 -13 439.539 119.567   3
  -3  -6 -15 120.938 129.270   4
  -3  -7  13-10.4866 110.512   2
  -3  -7  12 348.143 145.759   2
  -3  -7  11 359.360 140.858   2
  -3  -7  10 470.182 139.746   2
  -3  -7   9 2118.70 234.947   2
  -3  -7   8 599.759 139.343   2
  -3  -7   7 2580.06 232.457   2
  -3  -7   6 2858.01 170.448   3
  -3  -7   6 2830.11 241.037   2
  -3  -7   5 8860.26 313.363   3
  -3  -7   5 8709.77 393.833   2
  -3  -7   4 7838.29 301.948   3
  -3  -7   4 7523.98 359.357   2
  -3  -7   3 1894.48 155.961   3
  -3  -7   3 1782.24 182.080   2
  -3  -7   2 9076.02 338.527   3
  -3  -7   2 8959.24 377.732   2
  -3  -7   1 16051.4 462.717   3
  -3  -7   1 16322.7 505.838   2
  -3  -7   0 51306.4 917.870   3
  -3  -7   0 51929.3 960.419   2
  -3  -7  -1 7473.56 324.017   3
  -3  -7  -1 7173.82 334.930   2
  -3  -7  -2 72747.1 1167.58   3
  -3  -7  -3 1411.43 103.763   4
  -3  -7  -3 1638.95 168.766   3
   3   7   3 1542.17 99.1885   1
   3   7   4 482.095 56.0180   1
  -3  -7  -4 297.442 90.9604   3
  -3  -7  -4 414.911 70.4964   4
   3   7   5 5655.29 174.371   1
  -3  -7  -5 5434.53 303.110   3
  -3  -7  -5 5649.77 258.479   4
   3   7   6 19203.4 355.746   1
  -3  -7  -6 19464.1 586.164   3
   3   7   7 3911.46 160.706   1
  -3  -7  -7 4071.55 276.797   3
  -3  -7  -8 13389.7 506.347   3
  -3  -7  -9 2016.03 210.821   3
  -3  -7 -10 126.370 99.4107   3
  -3  -7 -11 7.37721 88.0188   3
  -3  -7 -12 3.75990 90.1012   3
  -3  -7 -12 84.2266 98.2264   4
  -3  -7 -13 1890.80 223.216   3
  -3  -7 -13 1502.20 239.459   4
  -3  -7 -14 631.068 181.889   4
  -3  -7 -14 673.038 146.674   3
  -3  -8  12 201.926 133.239   2
  -3  -8  11 285.187 121.307   2
  -3  -8  10 317.409 126.455   2
  -3  -8   9-88.5348 111.598   2
  -3  -8   8 4560.34 334.029   2
  -3  -8   7-2.16466 98.9330   2
  -3  -8   6 26446.6 569.047   3
  -3  -8   6 27161.8 772.222   2
  -3  -8   5 4190.65 226.305   3
  -3  -8   5 4886.66 319.400   2
  -3  -8   4 3635.94 217.583   3
  -3  -8   4 4257.40 289.098   2
  -3  -8   3 5708.66 279.441   3
  -3  -8   3 6093.42 337.983   2
  -3  -8   2 412.068 118.002   2
  -3  -8   2 336.137 85.2023   3
  -3  -8   1 35415.9 826.370   2
  -3  -8   1 34315.2 748.557   3
  -3  -8   0 3672.91 243.167   3
  -3  -8   0 3837.08 271.191   2
  -3  -8  -1 111769. 1599.70   3
  -3  -8  -2 2462.21 207.876   3
   3   8   3 1957.61 102.584   1
  -3  -8  -3 1598.20 175.769   3
   3   8   4 779.714 61.1570   1
  -3  -8  -4 758.055 135.045   3
  -3  -8  -5 1503.28 143.363   4
  -3  -8  -5 1310.50 176.707   3
  -3  -8  -6 19230.7 551.119   4
  -3  -8  -6 19585.1 625.200   3
  -3  -8  -7 1234.25 169.339   3
  -3  -8  -7 1674.31 182.898   4
  -3  -8  -8 11266.0 479.955   4
  -3  -8  -8 11349.6 493.454   3
  -3  -8  -9 913.576 159.787   4
  -3  -8  -9 1107.80 183.104   3
  -3  -8 -10 1122.04 179.187   4
  -3  -8 -10 1208.06 184.669   3
  -3  -8 -11-8.85869 96.1776   4
  -3  -8 -11-154.355 116.065   3
  -3  -8 -12 1926.36 253.100   4
  -3  -8 -12 1941.46 240.923   3
  -3  -8 -13 667.917 154.240   3
  -3  -8 -13 585.295 167.623   4
  -3  -8 -14 1.36733 79.5693   3
  -3  -9  12 268.247 138.541   2
  -3  -9  11 184.509 122.558   2
  -3  -9  10-202.621 128.186   2
  -3  -9   9-53.0794 114.024   2
  -3  -9   8-46.4426 105.195   2
  -3  -9   7 2579.88 262.370   2
  -3  -9   6 4257.23 322.868   2
  -3  -9   5 2585.48 186.558   3
  -3  -9   5 2920.82 274.426   2
  -3  -9   4 13625.5 452.710   3
  -3  -9   4 14054.5 551.197   2
  -3  -9   3 4203.56 256.491   3
  -3  -9   3 4178.08 298.269   2
  -3  -9   2 7801.91 356.987   3
  -3  -9   2 7896.33 405.200   2
  -3  -9   1-32.9234 101.135   2
  -3  -9   1 43.2832 77.6115   3
  -3  -9   0 19734.4 593.422   3
  -3  -9  -1 26245.9 696.280   3
  -3  -9  -2 5367.45 317.030   3
  -3  -9  -3 8978.88 418.774   3
  -3  -9  -4 7598.95 391.899   3
  -3  -9  -5 13978.8 537.992   3
  -3  -9  -6-5.06606 119.726   3
  -3  -9  -7 8980.16 404.599   4
  -3  -9  -7 9357.44 458.237   3
  -3  -9  -8 3266.86 260.994   4
  -3  -9  -8 2788.40 271.619   3
  -3  -9  -9 782.000 149.113   4
  -3  -9  -9 1077.01 185.081   3
  -3  -9 -10 18.4646 84.8188   4
  -3  -9 -10-57.7923 120.814   3
  -3  -9 -11 2423.71 267.886   4
  -3  -9 -11 2666.42 275.369   3
  -3  -9 -12 532.982 150.204   3
  -3  -9 -12 313.677 127.850   4
  -3  -9 -13 92.0591 98.1171   3
  -3  -9 -13-47.7262 93.0745   4
  -3 -10  11-154.122 117.700   2
  -3 -10  10 75.3041 103.135   2
  -3 -10   9-123.275 110.918   2
  -3 -10   8 589.938 155.489   2
  -3 -10   7 1015.88 184.436   2
  -3 -10   6 202.589 122.934   2
  -3 -10   5 6936.24 424.354   2
  -3 -10   4-135.556 112.504   2
  -3 -10   4-44.6977 64.2929   3
  -3 -10   3 7024.68 347.565   3
  -3 -10   3 7507.61 424.128   2
  -3 -10   2 1010.01 171.857   2
  -3 -10   2 1247.33 158.990   3
  -3 -10   1 12888.1 496.185   3
  -3 -10   1 12934.0 549.382   2
  -3 -10   0 12330.3 491.479   3
  -3 -10  -1 202.592 104.345   3
  -3 -10  -2 15146.7 565.879   3
  -3 -10  -3 271.135 123.004   3
  -3 -10  -4 19172.0 658.559   3
  -3 -10  -5 153.799 117.516   3
  -3 -10  -6 6970.33 412.506   3
  -3 -10  -7 2122.10 252.695   3
  -3 -10  -8 581.528 149.677   3
  -3 -10  -9 145.814 107.022   3
  -3 -10 -10 47.8459 103.985   3
  -3 -10 -11 735.734 176.936   3
  -3 -11  10 518.652 161.501   2
  -3 -11   9 91.5400 103.077   2
  -3 -11   8 829.399 177.689   2
  -3 -11   7 72.1646 100.577   2
  -3 -11   6 2489.27 274.927   2
  -3 -11   5 2859.90 288.689   2
  -3 -11   4 2303.01 258.782   2
  -3 -11   3 723.869 161.306   2
  -3 -11   3 660.211 125.841   3
  -3 -11   2 6887.51 370.800   3
  -3 -11   1 1557.36 191.022   3
  -3 -11   0 146.718 96.8812   3
  -3 -11  -1 151.497 101.939   3
  -3 -11  -2 1136.38 184.039   3
  -3 -11  -3 3609.06 301.507   3
  -3 -11  -4 2072.17 243.542   3
  -3 -11  -5 10048.7 507.510   3
  -3 -11  -6 5832.67 405.464   3
  -3 -11  -7-146.930 132.776   3
  -3 -11  -8 784.907 170.815   3
  -3 -11  -9-94.1111 116.583   3
  -3 -12   8 82.3629 95.6220   2
  -3 -12   7 1318.20 221.331   2
  -3 -12   6 294.375 124.604   2
  -3 -12   5 90.3813 93.8954   2
  -3 -12   4 467.955 151.271   2
  -3 -12   3 340.441 101.441   3
  -3 -12   2 11123.7 493.159   3
  -3 -12   1 2504.72 244.362   3
  -3 -12   0 11715.8 525.977   3
  -3 -12  -1 548.862 150.438   3
  -3 -12  -2 3026.91 290.414   3
  -3 -12  -3 156.495 106.097   3
  -3 -12  -4 1587.97 223.429   3
  -3 -12  -5 4812.53 376.181   3
  -3 -12  -6-51.5971 120.784   3
  -3 -12  -7 1296.20 213.437   3
  -3 -13   6-3.71103 94.5627   2
  -3 -13   2 1030.25 169.498   3
  -3 -13   1 3190.08 288.544   3
  -3 -13   0 303.021 114.083   3
  -3 -13  -1 556.921 147.558   3
  -3 -13  -2-15.0188 115.609   3
  -3 -13  -3 1019.41 192.412   3
  -3 -13  -4 1947.34 254.173   3
  -3 -14   0 317.177 125.458   3
   4  -8  10 1829.84 204.705   1
   4  -8  11 69.7966 76.8356   1
   4  -8  12 281.812 103.927   1
   4  -8  13 45.0121 78.5799   1
   4  -7   6 4139.78 233.453   1
   4  -7   7 4019.11 245.576   1
   4  -7   8 1753.41 176.256   1
   4  -7   9 1875.07 192.993   1
   4  -7  10 1974.89 208.295   1
   4  -7  11 1262.85 180.037   1
   4  -7  12 211.621 109.849   1
   4  -7  13 71.8793 86.5976   1
   4  -7  14 231.421 117.395   1
  -4   6   9 64.3521 88.3848   2
  -4   6   8 260.205 99.7246   2
  -4   6   7 198.813 87.0070   2
  -4   6   6 951.923 134.693   2
  -4   6   5 5781.15 284.550   2
  -4   6   4 350.827 80.2873   2
  -4   6   3 4030.97 206.456   2
   4  -6   3 249.307 53.8060   1
   4  -6   4 14067.7 377.405   1
   4  -6   5 9573.83 323.250   1
   4  -6   6 10649.7 365.964   1
   4  -6   7 636.525 102.027   1
   4  -6   8 148.439 64.2614   1
   4  -6   9 3472.95 252.207   1
   4  -6  10-25.3526 88.6512   1
   4  -6  11 3786.46 292.047   1
   4  -6  12 246.393 110.739   1
   4  -6  13 2121.20 242.964   1
   4  -6  14 50.4351 92.1591   1
   4  -6  15 266.139 123.652   1
  -4   5  11 46.9550 89.1504   2
  -4   5  10 132.367 93.0644   2
  -4   5   9 77.7016 82.6420   2
  -4   5   8-58.8008 84.9392   2
  -4   5   7 253.204 87.0646   2
  -4   5   6 1730.62 170.818   2
  -4   5   5 592.726 101.485   2
  -4   5   4 1404.21 133.813   2
  -4   5   3 3156.42 178.310   2
  -4   5   2 3959.70 181.653   2
  -4   5   1 9062.94 254.038   2
  -4   5   0 12823.2 272.909   2
   4  -5   0 12579.8 272.830   1
   4  -5   1 6907.66 208.317   1
   4  -5   2 158.722 38.5019   1
   4  -5   3 457.490 66.0143   1
   4  -5   4 6363.50 242.300   1
   4  -5   5 10275.3 328.342   1
   4  -5   6 19893.7 500.322   1
   4  -5   7 9363.25 351.960   1
   4  -5   8 4398.92 254.000   1
   4  -5   9 369.356 97.0201   1
   4  -5  10 104.656 84.8037   1
   4  -5  11-18.8336 90.8604   1
   4  -5  12 3676.13 294.663   1
   4  -5  13 414.592 142.153   1
   4  -5  14 984.152 182.880   1
   4  -5  15-38.4661 105.525   1
  -4   4  11-18.1816 81.2862   2
  -4   4  10 23.3182 86.3499   2
  -4   4   9 234.901 100.149   2
  -4   4   8 28.9896 84.0365   2
  -4   4   7 2947.03 219.315   2
  -4   4   6 217.095 83.6515   2
  -4   4   5 523.721 99.6768   2
  -4   4   4 2695.58 173.925   2
  -4   4   3 570.105 86.0197   2
  -4   4   2 42659.7 663.380   2
   4  -4  -2 42393.7 611.342   1
   4  -4  -1 145.020 43.0108   1
  -4   4   1 264.948 57.9266   2
  -4   4   0 74167.1 845.379   2
   4  -4   0 74466.9 904.741   1
  -4   4  -1 6018.56 136.532   2
   4  -4   1 6340.17 203.028   1
   4  -4   2 470.672 63.9756   1
   4  -4   3 1844.24 120.428   1
   4  -4   4 3979.76 184.433   1
   4  -4   5 21210.6 468.651   1
   4  -4   6 3182.78 192.622   1
   4  -4   7 29001.5 623.318   1
   4  -4   8 576.862 113.897   1
   4  -4   9 727.514 118.361   1
   4  -4  10-173.136 104.380   1
   4  -4  11 155.897 91.5568   1
   4  -4  12 1881.96 222.363   1
   4  -4  13 24.9221 102.474   1
   4  -4  14 863.227 168.497   1
   4  -4  15-107.970 115.948   1
   4  -4  16-120.997 119.144   1
  -4   3  12 13.0770 94.9478   2
  -4   3  11-9.04306 90.5186   2
  -4   3  10-37.2851 94.1012   2
  -4   3   9 76.2134 91.9008   2
  -4   3   8 1439.76 171.485   2
  -4   3   7 2529.22 204.095   2
  -4   3   6 661.130 114.121   2
  -4   3   5 2882.09 189.130   2
  -4   3   4 3709.40 200.489   2
  -4   3   3 4886.39 209.467   2
  -4   3   2 14822.5 344.343   2
  -4   3   1 65757.0 807.104   2
   4  -3  -1 64349.8 836.907   1
  -4   3   0 30976.5 426.724   2
   4  -3   0 29060.2 486.651   1
  -4   3  -1 25301.3 315.314   2
   4  -3   1 25571.8 440.573   1
  -4   3  -1 25377.9 338.955   2
   4  -3   2 33854.1 541.958   1
   4  -3   3 15420.1 346.464   1
   4  -3   4 6282.41 224.029   1
   4  -3   5 804.703 93.0460   1
   4  -3   6 26539.2 545.090   1
   4  -3   7 37112.4 692.586   1
   4  -3   7 35409.5 453.992   2
   4  -3   8 26932.5 438.371   2
   4  -3   8 24856.6 591.340   1
   4  -3   9 2940.77 146.853   2
   4  -3   9 2997.73 214.004   1
   4  -3  10 14003.9 370.246   2
   4  -3  10 13713.8 476.495   1
   4  -3  11 1366.20 125.981   2
   4  -3  11 1201.49 167.608   1
   4  -3  12 142.431 96.2749   1
   4  -3  13 838.703 164.542   1
   4  -3  14 1207.35 201.799   1
   4  -3  15 329.904 130.846   1
   4  -3  16 121.786 119.665   1
  -4   2  12 233.343 126.258   2
  -4   2  11-48.2850 104.396   2
  -4   2  10-139.081 104.685   2
  -4   2   9-51.1761 101.986   2
  -4   2   8 2771.25 226.030   2
  -4   2   7 46.4609 80.5227   2
  -4   2   6 12121.5 405.963   2
  -4   2   5 379.104 86.1418   2
  -4   2   4 887.902 102.503   2
  -4   2   3 9083.93 279.986   2
  -4   2   2 2668.11 137.603   2
  -4   2   1 2902.25 126.512   2
  -4   2   0 5584.83 151.033   2
  -4   2  -1 44420.3 478.607   2
   4  -2   1 45534.3 645.686   1
   4  -2   2 693.490 75.3683   1
   4  -2   3 78514.4 972.559   1
   4  -2   4 4739.21 191.369   1
   4  -2   5 41877.6 672.065   1
   4  -2   6 18876.9 266.799   2
   4  -2   6 21085.8 466.502   1
   4  -2   7 129.852 66.4173   1
   4  -2   7 138.890 31.4411   2
   4  -2   8 7770.30 228.603   2
   4  -2   8 7524.19 307.920   1
   4  -2   9 5035.96 203.090   2
   4  -2   9 4866.72 265.844   1
  -4   2  -9 4628.86 160.613   3
   4  -2  10 15230.5 402.613   2
   4  -2  10 15142.8 495.425   1
   4  -2  11 438.359 117.024   1
   4  -2  11 493.319 88.3232   2
   4  -2  12 2888.10 247.533   1
   4  -2  12 2859.84 198.761   2
   4  -2  13 339.057 124.657   1
   4  -2  13 540.322 106.632   2
   4  -2  14-51.4305 105.270   1
   4  -2  14 35.7464 70.1099   2
   4  -2  15-149.196 128.664   1
   4  -2  16 108.191 115.366   1
  -4   1  13 213.658 131.169   2
  -4   1  12 164.375 121.063   2
  -4   1  11 294.348 126.791   2
  -4   1  10 242.281 110.475   2
  -4   1   9 1027.77 165.108   2
  -4   1   8 85.2104 89.4643   2
  -4   1   7 1237.73 148.970   2
  -4   1   6 4995.27 257.522   2
  -4   1   5 131.628 72.5669   2
  -4   1   4 11178.0 338.268   2
  -4   1   3 19879.2 430.070   2
  -4   1   2 49424.7 702.147   2
  -4   1   1 923.820 77.8281   2
  -4   1   0 54582.4 643.065   2
  -4   1  -1 11930.7 195.745   2
   4  -1   2 92509.6 1088.68   1
   4  -1   3 1670.86 111.119   1
   4  -1   4 139829. 1540.25   1
   4  -1   5 43445.0 472.558   2
   4  -1   5 45447.5 688.271   1
   4  -1   5 41453.6 480.691   2
   4  -1   6 328.157 41.6735   2
   4  -1   6 254.588 68.0558   1
   4  -1   7 1036.30 115.850   1
   4  -1   7 3117.63 130.630   2
  -4   1  -8 1422.70 100.103   3
   4  -1   8 1351.57 102.357   2
   4  -1   8 1203.36 130.052   1
   4  -1   9 11735.6 329.682   2
  -4   1  -9 12041.6 291.403   3
   4  -1   9 11485.6 403.536   1
   4  -1  10 7165.13 277.565   2
   4  -1  10 7215.67 341.493   1
   4  -1  11 17304.6 550.790   1
   4  -1  11 17592.8 472.456   2
   4  -1  12 8542.47 413.593   1
   4  -1  12 8939.40 351.911   2
   4  -1  13-62.4664 69.7636   2
   4  -1  13 24.4717 108.868   1
   4  -1  14-33.6177 80.1712   2
   4  -1  14 376.848 125.724   1
   4  -1  15 60.6546 112.525   1
   4  -1  15-63.7189 90.7914   2
   4  -1  16 396.212 149.657   1
   4  -1  16 9.65975 78.8912   2
   4  -1  17 299.086 142.380   1
  -4   0  13-40.2336 105.921   2
  -4   0  12 48.2294 111.305   2
  -4   0  11 107.995 116.257   2
  -4   0  10 1604.96 210.084   2
  -4   0   9 295.997 126.848   2
  -4   0   8 7107.47 349.180   2
  -4   0   7 5234.01 283.334   2
  -4   0   6 100.723 83.0973   2
  -4   0   5 5891.09 264.098   2
  -4   0   4 4067.09 206.690   2
  -4   0   3 54038.4 801.238   2
  -4   0   2 32.3607 43.3845   2
  -4   0   1 38443.6 556.501   2
  -4   0   0 127.768 28.4422   2
   4   0   1 681.907 51.7869   2
  -4   0  -1 566.840 46.4756   2
   4   0   2 4458.64 121.405   2
   4   0   2 4692.84 181.770   1
  -4   0  -2 4955.92 122.026   2
   4   0   3 31918.4 400.941   2
   4   0   3 33876.7 545.320   1
   4   0   4 203110. 2063.10   1
   4   0   4 199784. 1883.04   2
   4   0   5 2967.52 165.845   1
   4   0   6 56001.2 835.400   1
   4   0   7 3468.90 194.004   1
  -4   0  -7 3938.43 175.464   3
   4   0   8 347.016 81.4497   1
  -4   0  -8 440.353 65.9308   3
  -4   0  -9 3511.09 170.193   3
   4   0   9 3097.72 210.006   1
   4   0  10 8043.22 344.167   1
   4   0  10 7884.39 295.309   2
  -4   0 -10 8015.10 248.996   3
   4   0  11 25823.0 669.025   1
   4   0  11 24883.3 581.264   2
   4   0  12 3724.94 274.044   1
   4   0  12 3401.63 221.784   2
   4   0  13 3901.74 297.654   1
   4   0  13 3722.72 245.683   2
   4   0  14 1055.65 178.467   1
   4   0  14 1043.71 148.480   2
   4   0  15 1196.81 204.734   1
   4   0  15 868.614 143.744   2
   4   0  16 109.380 115.440   1
   4   0  16 177.042 90.3655   2
   4   0  17 212.837 130.485   1
   4   0  17 7.77667 76.9786   2
  -4  -1  13-62.2175 113.478   2
  -4  -1  12 5.15354 103.553   2
  -4  -1  11 58.9678 110.215   2
  -4  -1  10-21.2054 101.746   2
  -4  -1   9 4995.59 313.138   2
  -4  -1   8 742.315 146.407   2
  -4  -1   7 486.014 118.612   2
  -4  -1   6 633.801 112.851   2
  -4  -1   5 51.8110 72.1494   2
  -4  -1   4 40924.4 709.680   2
  -4  -1   3 19873.9 439.573   2
  -4  -1   2 83890.9 1044.17   2
  -4  -1   1 64282.3 819.762   2
  -4  -1   0 2169.71 107.444   2
  -4  -1  -1 2558.37 110.239   2
  -4  -1  -2 190.241 34.9738   2
   4   1   3 36765.2 595.666   1
   4   1   4 71586.6 923.376   1
   4   1   5 41572.9 668.140   1
  -4  -1  -6 33011.7 587.837   3
   4   1   6 31038.9 582.373   1
   4   1   7 27396.5 555.562   1
  -4  -1  -7 27597.0 537.100   3
   4   1   8 9482.57 334.783   1
  -4  -1  -8 10144.1 313.909   3
   4   1   9 22655.5 550.672   1
  -4  -1  -9 23040.6 493.025   3
   4   1  10 8434.65 349.215   1
  -4  -1 -10 9072.60 296.777   3
  -4  -1 -11 416.057 70.8851   3
   4   1  11 559.480 119.283   1
   4   1  12 132.960 100.278   1
   4   1  13 77.2152 101.092   1
   4   1  13 131.587 87.8940   2
   4   1  14 884.825 160.523   1
   4   1  14 1207.93 164.514   2
   4   1  15 110.552 112.664   1
   4   1  15 28.3146 81.0923   2
   4   1  16 180.921 114.940   1
   4   1  16 304.392 107.536   2
   4   1  17 145.372 105.110   1
   4   1  17 124.081 91.9212   2
  -4  -2  13 67.4950 111.032   2
  -4  -2  12-32.3357 108.794   2
  -4  -2  11 64.9233 101.736   2
  -4  -2  10 76.2329 102.403   2
  -4  -2   9 1473.91 191.314   2
  -4  -2   8 2176.43 207.795   2
  -4  -2   7 5807.86 301.691   2
  -4  -2   6 82.5411 86.6500   2
  -4  -2   5 25645.4 576.987   2
  -4  -2   4 106.124 71.3757   2
  -4  -2   3 5792.43 230.966   2
  -4  -2   2 88610.0 1111.04   2
  -4  -2   1 8471.04 249.104   2
  -4  -2   0 115592. 1291.22   2
  -4  -2  -1 34913.5 540.518   2
  -4  -2  -2 198417. 1987.96   2
   4   2   3 15603.7 366.866   1
  -4  -2  -4 15559.0 392.432   3
   4   2   4 15989.5 369.571   1
  -4  -2  -5 78285.7 1058.19   3
   4   2   5 76920.4 1010.10   1
   4   2   6 214.355 67.4427   1
  -4  -2  -6 187.339 56.8342   3
  -4  -2  -7 21620.5 493.919   3
   4   2   7 20295.6 469.599   1
   4   2   8 27221.8 583.072   1
  -4  -2  -8 26164.1 568.141   3
   4   2   9 19633.8 504.703   1
  -4  -2  -9 19820.0 490.622   3
   4   2  10 2285.54 185.615   1
  -4  -2 -10 2403.96 169.276   3
  -4  -2 -11 745.717 102.719   3
   4   2  11 559.233 115.932   1
   4   2  12 4785.93 295.653   1
  -4  -2 -12 4431.50 224.657   3
   4   2  13 29.7348 89.6152   1
   4   2  14 2073.48 207.646   2
   4   2  14 1634.32 208.189   1
   4   2  15 742.490 166.101   1
   4   2  15 890.326 163.295   2
   4   2  16 824.817 170.423   1
   4   2  16 778.577 148.246   2
   4   2  17-112.102 103.175   1
   4   2  17 7.52889 82.7538   2
  -4  -3  13-20.0326 112.445   2
  -4  -3  12 209.325 123.154   2
  -4  -3  11 94.5701 119.260   2
  -4  -3  10 1151.43 181.833   2
  -4  -3   9 1866.09 209.621   2
  -4  -3   8 3286.24 251.682   2
  -4  -3   7 211.124 97.5937   2
  -4  -3   6 30884.5 689.280   2
  -4  -3   5 92.9242 86.4908   2
  -4  -3   4 31712.3 645.095   2
  -4  -3   3 52827.6 833.405   2
  -4  -3   2 19216.2 433.676   2
  -4  -3   1 37466.3 621.798   2
  -4  -3   0 1217.18 102.593   2
  -4  -3  -1 95832.5 1165.46   2
  -4  -3  -2 43199.8 727.424   3
  -4  -3  -2 43632.0 668.854   2
  -4  -3  -3 81567.6 1110.84   3
  -4  -3  -4 90243.6 1205.62   3
   4   3   4 89025.4 1113.36   1
  -4  -3  -5 1756.32 141.141   3
   4   3   5 1620.47 118.740   1
  -4  -3  -6 23753.8 543.506   3
   4   3   6 24650.5 499.001   1
  -4  -3  -7 5182.56 250.317   3
   4   3   7 4675.06 215.589   1
   4   3   8 66729.1 994.011   1
  -4  -3  -8 67305.4 1052.90   3
   4   3   9 24096.6 559.129   1
  -4  -3  -9 25513.0 597.525   3
   4   3  10 3822.97 230.764   1
  -4  -3 -10 3993.25 233.388   3
   4   3  11 2085.34 189.428   1
  -4  -3 -11 2401.91 185.669   3
   4   3  12 108.539 82.3968   1
  -4  -3 -12 15.0516 50.6046   3
   4   3  13 129.878 94.1764   1
   4   3  14-32.5803 95.3527   1
   4   3  15 1154.90 184.921   1
   4   3  15 1401.41 190.632   2
   4   3  16 195.709 107.036   1
   4   3  16 297.827 120.751   2
   4   3  17-27.4678 75.6835   1
   4   3  17 142.922 100.599   2
  -4  -4  13-67.9186 120.897   2
  -4  -4  12-237.533 142.888   2
  -4  -4  11 1179.74 191.843   2
  -4  -4  10 645.495 154.298   2
  -4  -4   9 23.5167 100.477   2
  -4  -4   8 821.767 151.410   2
  -4  -4   7 379.225 108.146   2
  -4  -4   6-46.7909 101.684   2
  -4  -4   5 5249.09 267.810   2
  -4  -4   4 21340.3 528.055   2
  -4  -4   3 717.125 109.733   2
  -4  -4   2 7885.50 286.104   2
  -4  -4   1 52.4404 18.4490   4
  -4  -4   1 53.4080 64.8800   2
  -4  -4   0 4856.61 227.868   3
  -4  -4   0 4556.60 211.542   2
  -4  -4  -1 120913. 1488.88   3
  -4  -4  -1 117972. 1432.43   2
  -4  -4  -2 20636.9 489.230   3
  -4  -4  -2 19147.2 446.031   2
  -4  -4  -3 160024. 1887.75   3
  -4  -4  -4 9716.32 343.682   3
   4   4   4 10360.4 296.945   1
  -4  -4  -5 4822.53 249.922   3
   4   4   5 4586.88 194.874   1
  -4  -4  -6 8189.39 326.995   3
   4   4   6 8195.09 272.842   1
   4   4   7 34718.7 626.821   1
  -4  -4  -7 35714.8 735.631   3
   4   4   8 35346.4 658.091   1
  -4  -4  -8 35126.5 742.749   3
  -4  -4  -9 2382.41 192.147   3
   4   4   9 2543.91 174.059   1
   4   4  10 18855.4 509.427   1
  -4  -4 -10 19917.9 566.919   3
   4   4  11 56.1046 65.8208   1
  -4  -4 -11 27.7796 74.1760   3
  -4  -4 -12 1313.75 154.525   3
   4   4  12 876.372 132.544   1
   4   4  13 240.266 91.5443   1
  -4  -4 -13 428.665 99.1372   3
   4   4  14 634.793 137.320   1
   4   4  15 396.917 121.571   1
   4   4  16 152.620 93.2527   1
   4   4  16 91.5969 96.8605   2
  -4  -5  13-163.019 134.271   2
  -4  -5  12 636.468 165.328   2
  -4  -5  11 239.559 127.586   2
  -4  -5  10 1253.49 199.101   2
  -4  -5   9 1749.67 209.737   2
  -4  -5   8-55.3574 114.106   2
  -4  -5   7 1512.12 179.387   2
  -4  -5   7 1327.12 122.872   3
  -4  -5   6 7219.48 342.689   2
  -4  -5   6 6936.50 277.319   3
  -4  -5   5 11035.5 407.503   2
  -4  -5   5 10452.2 342.461   3
  -4  -5   4 66775.6 1075.83   2
  -4  -5   4 65035.1 985.857   3
  -4  -5   3 12671.2 378.294   3
  -4  -5   3 12534.9 412.453   2
  -4  -5   2 16693.4 442.014   3
  -4  -5   2 16250.9 454.661   2
  -4  -5   1 34643.6 669.588   3
  -4  -5   1 35802.7 704.332   2
  -4  -5   0 26073.5 578.507   3
  -4  -5   0 26230.5 576.641   2
  -4  -5  -1 2709.17 184.049   3
  -4  -5  -1 2671.03 178.354   2
  -4  -5  -2 123217. 1589.97   3
  -4  -5  -2 122545. 1544.59   2
  -4  -5  -3 36698.0 739.028   3
  -4  -5  -4 5212.68 274.882   3
   4   5   4 5290.15 211.670   1
  -4  -5  -5 255.269 87.0304   3
   4   5   5 253.229 61.6765   1
  -4  -5  -6 17183.8 506.416   3
   4   5   6 16715.4 398.099   1
   4   5   7 14472.1 377.604   1
  -4  -5  -7 15198.7 486.006   3
   4   5   8 1017.81 107.373   1
  -4  -5  -8 816.904 133.554   3
   4   5   9 20993.5 499.512   1
  -4  -5  -9 23352.8 637.912   3
   4   5  10 6949.21 291.987   1
  -4  -5 -10 6953.87 353.005   3
   4   5  11 2579.65 193.285   1
  -4  -5 -11 2601.24 225.439   3
   4   5  12-142.548 88.0732   1
  -4  -5 -12-21.6161 84.5078   3
  -4  -5 -13 1393.57 175.063   3
   4   5  13 1397.19 167.202   1
   4   5  14 1128.31 158.359   1
  -4  -6  13 203.414 133.255   2
  -4  -6  12 232.298 128.959   2
  -4  -6  11 31.4697 105.884   2
  -4  -6  10 1375.47 212.788   2
  -4  -6   9 182.622 129.954   2
  -4  -6   8 2231.05 233.502   2
  -4  -6   7 245.706 115.681   2
  -4  -6   7 184.846 63.3917   3
  -4  -6   6 13653.4 498.384   2
  -4  -6   6 13107.6 396.002   3
  -4  -6   5 17992.6 474.881   3
  -4  -6   5 18242.1 552.870   2
  -4  -6   4 8693.69 326.885   3
  -4  -6   4 9691.63 394.806   2
  -4  -6   3 16217.0 456.793   3
  -4  -6   3 16068.6 500.858   2
  -4  -6   2 12359.9 398.683   3
  -4  -6   2 12561.5 430.515   2
  -4  -6   1 5262.11 259.661   3
  -4  -6   1 5788.90 285.938   2
  -4  -6   0 4389.26 239.720   3
  -4  -6   0 4158.18 239.977   2
  -4  -6  -1 45946.2 862.000   3
  -4  -6  -1 46590.5 869.584   2
  -4  -6  -2 55450.4 991.145   3
  -4  -6  -2 52812.8 945.020   2
  -4  -6  -3 549.232 115.121   3
  -4  -6  -4 35637.1 769.032   3
   4   6   4 34553.3 601.527   1
  -4  -6  -5 9525.63 392.008   3
   4   6   5 9800.36 284.951   1
  -4  -6  -6 53481.3 1009.56   3
   4   6   6 52593.6 784.145   1
   4   6   7 12571.0 339.409   1
  -4  -6  -7 13244.1 476.230   3
   4   6   8 25165.4 519.918   1
  -4  -6  -8 25125.6 684.807   3
   4   6   9 1742.57 141.357   1
  -4  -6  -9 1649.15 181.834   3
   4   6  10 976.122 117.186   1
  -4  -6 -10 995.160 154.744   3
   4   6  11 2429.36 181.434   1
  -4  -6 -11 2064.28 217.360   3
   4   6  12 2747.21 208.402   1
  -4  -6 -12 2834.35 249.858   3
  -4  -6 -13 5293.05 351.544   3
  -4  -7  12 227.076 132.052   2
  -4  -7  11 108.925 121.604   2
  -4  -7  10 550.644 152.747   2
  -4  -7   9 895.232 175.649   2
  -4  -7   8 524.526 148.061   2
  -4  -7   7 6331.43 362.368   2
  -4  -7   6 4227.18 232.766   3
  -4  -7   6 4035.99 291.525   2
  -4  -7   5 4.86195 98.2292   2
  -4  -7   5-11.7883 53.8305   3
  -4  -7   4 5503.23 273.483   3
  -4  -7   4 5227.78 306.469   2
  -4  -7   3 13990.9 448.000   3
  -4  -7   3 13723.4 489.874   2
  -4  -7   2 9890.43 378.634   3
  -4  -7   2 9781.34 410.008   2
  -4  -7   1 5036.95 277.593   3
  -4  -7   1 5348.56 300.882   2
  -4  -7   0 68151.7 1150.38   2
  -4  -7   0 67730.7 1135.02   3
  -4  -7  -1 14172.3 471.196   3
  -4  -7  -1 14768.7 491.931   2
  -4  -7  -2 443.006 43.9961   4
  -4  -7  -2 495.173 108.945   3
  -4  -7  -3 7838.17 363.170   3
  -4  -7  -4 9566.37 411.738   3
   4   7   4 9371.84 283.367   1
  -4  -7  -5 39533.5 868.149   3
   4   7   5 39513.1 635.767   1
   4   7   6 703.898 77.4593   1
  -4  -7  -6 637.999 145.485   3
   4   7   7 17307.0 392.648   1
  -4  -7  -7 17250.9 575.618   3
  -4  -7  -8 221.452 98.4657   3
   4   7   8 416.701 68.0071   1
  -4  -7  -9 26.7457 100.099   3
   4   7   9 49.5698 42.2232   1
  -4  -7 -10 1119.76 177.211   3
  -4  -7 -11 2239.44 233.046   3
  -4  -7 -12 1944.44 231.229   3
  -4  -7 -13-115.146 110.078   3
  -4  -7 -14 547.014 139.512   3
  -4  -8  12-84.2288 117.852   2
  -4  -8  11 263.428 134.893   2
  -4  -8  10 40.7428 104.251   2
  -4  -8   9 284.967 120.375   2
  -4  -8   8 1457.09 211.263   2
  -4  -8   7 3953.08 307.923   2
  -4  -8   6 428.868 137.110   2
  -4  -8   6 327.117 77.3731   3
  -4  -8   5 11662.3 407.448   3
  -4  -8   5 10910.3 480.896   2
  -4  -8   4 1729.69 200.111   2
  -4  -8   4 1840.10 173.373   3
  -4  -8   3 3749.87 240.366   3
  -4  -8   3 3719.79 278.352   2
  -4  -8   2 11124.6 420.488   3
  -4  -8   2 10659.8 452.031   2
  -4  -8   1 10783.4 420.313   3
  -4  -8   1 11661.9 465.980   2
  -4  -8   0 74701.5 1254.08   3
  -4  -8   0 77870.2 1320.34   2
  -4  -8  -1-32.9424 111.286   2
  -4  -8  -1 23.7895 88.1100   3
  -4  -8  -2 29497.8 742.117   3
  -4  -8  -3 1141.11 163.431   3
   4   8   3 869.332 94.2725   1
  -4  -8  -4 14803.9 376.905   4
  -4  -8  -4 15973.6 550.781   3
   4   8   4 15945.9 359.595   1
  -4  -8  -5 608.022 92.9158   4
   4   8   5 726.506 74.9093   1
  -4  -8  -5 609.064 133.633   3
   4   8   6 5455.36 197.750   1
  -4  -8  -6 5838.15 348.043   3
  -4  -8  -7 28224.4 780.887   3
  -4  -8  -8 4709.50 322.419   3
  -4  -8  -9 1543.36 203.481   3
  -4  -8 -10-4.93755 103.771   3
  -4  -8 -11 664.034 151.534   3
  -4  -8 -12 286.156 129.002   4
  -4  -8 -12 506.430 149.072   3
  -4  -8 -13 577.216 166.223   4
  -4  -8 -13 562.754 150.470   3
  -4  -8 -14 571.774 180.996   4
  -4  -8 -14 968.450 187.406   3
  -4  -9  11 96.4047 113.823   2
  -4  -9  10 329.778 142.899   2
  -4  -9   9 174.930 105.573   2
  -4  -9   8 1026.11 192.158   2
  -4  -9   7 606.328 161.188   2
  -4  -9   6 6974.12 420.358   2
  -4  -9   5 1041.46 184.046   2
  -4  -9   5 892.316 126.057   3
  -4  -9   4 2176.87 192.052   3
  -4  -9   4 1960.55 227.860   2
  -4  -9   3 118.420 101.574   2
  -4  -9   3 81.9284 70.9699   3
  -4  -9   2 1798.62 185.932   3
  -4  -9   2 2127.45 229.963   2
  -4  -9   1 27558.0 724.984   3
  -4  -9   1 29478.8 802.863   2
  -4  -9   0 3293.44 255.083   3
  -4  -9   0 3868.96 291.289   2
  -4  -9  -1 30262.3 785.238   3
  -4  -9  -2 3977.23 286.743   3
  -4  -9  -3 8192.62 404.504   3
   4   9   3 8112.84 259.248   1
  -4  -9  -4 172.044 103.502   3
  -4  -9  -5 3630.55 201.520   4
  -4  -9  -5 3582.95 278.532   3
  -4  -9  -6 18843.7 536.952   4
  -4  -9  -6 19954.9 679.798   3
  -4  -9  -7 4462.56 275.245   4
  -4  -9  -7 4449.72 329.839   3
  -4  -9  -8 7758.04 433.988   3
  -4  -9  -8 7221.89 380.059   4
  -4  -9  -9 49.4054 106.330   3
  -4  -9  -9 201.356 102.826   4
  -4  -9 -10 3457.61 299.787   4
  -4  -9 -10 3850.12 326.968   3
  -4  -9 -11 49.6055 109.965   3
  -4  -9 -11-24.6851 88.4210   4
  -4  -9 -12 537.249 151.350   4
  -4  -9 -12 549.032 156.386   3
  -4  -9 -13 258.020 131.420   4
  -4  -9 -13 290.543 125.644   3
  -4 -10  10-30.9784 112.333   2
  -4 -10   9-184.935 141.808   2
  -4 -10   8-4.19136 108.903   2
  -4 -10   7 361.270 142.408   2
  -4 -10   6 3724.82 330.211   2
  -4 -10   5 164.598 118.848   2
  -4 -10   4 4133.34 273.058   3
  -4 -10   4 4279.16 335.341   2
  -4 -10   3 1598.70 216.301   2
  -4 -10   3 1407.06 171.265   3
  -4 -10   2 9555.77 430.856   3
  -4 -10   2 9496.42 483.020   2
  -4 -10   1-75.7440 118.378   2
  -4 -10   1-73.2261 95.5921   3
  -4 -10   0 1959.62 210.288   3
  -4 -10  -1 7110.53 390.591   3
  -4 -10  -2 1387.12 189.078   3
  -4 -10  -3 8999.95 446.225   3
  -4 -10  -4 10674.7 505.140   3
  -4 -10  -5 16956.7 641.746   3
  -4 -10  -6 813.564 173.924   3
  -4 -10  -7 2251.46 257.321   3
  -4 -10  -8 1139.57 195.849   3
  -4 -10  -9 905.790 180.605   3
  -4 -10 -10 692.598 170.523   3
  -4 -10 -11 15.3997 106.353   3
  -4 -11   9 367.181 148.533   2
  -4 -11   8-49.4210 104.679   2
  -4 -11   7 1237.73 214.479   2
  -4 -11   6 924.331 192.688   2
  -4 -11   5 1117.05 196.973   2
  -4 -11   4 1530.88 229.162   2
  -4 -11   3 9670.01 447.852   3
  -4 -11   3 9572.90 515.075   2
  -4 -11   2 3060.02 260.042   3
  -4 -11   2 3028.60 297.774   2
  -4 -11   1 5088.71 336.241   3
  -4 -11   0 2472.89 251.405   3
  -4 -11  -1 486.081 131.551   3
  -4 -11  -2 132.276 100.688   3
  -4 -11  -3-17.1548 115.491   3
  -4 -11  -4 7212.22 435.036   3
  -4 -11  -5 1502.21 218.176   3
  -4 -11  -6 1960.79 240.889   3
  -4 -11  -7 825.989 182.882   3
  -4 -11  -8 80.6997 106.395   3
  -4 -11  -9 773.992 178.626   3
  -4 -11 -10-60.8293 120.720   3
  -4 -12   7 248.051 135.823   2
  -4 -12   6 913.515 193.697   2
  -4 -12   5-82.4391 116.642   2
  -4 -12   4 1526.80 236.659   2
  -4 -12   3 1441.81 233.944   2
  -4 -12   3 1582.50 195.752   3
  -4 -12   2 1828.18 211.715   3
  -4 -12   1 3478.16 295.498   3
  -4 -12   0 963.262 174.676   3
  -4 -12  -1 1370.37 201.720   3
  -4 -12  -2 2272.54 255.824   3
  -4 -12  -3 6281.66 419.271   3
  -4 -12  -4 6812.82 440.344   3
  -4 -12  -5 2669.80 292.140   3
  -4 -12  -6 2914.84 310.163   3
  -4 -12  -7 211.963 127.886   3
  -4 -13   5 195.643 122.274   2
  -4 -13   4 359.424 149.955   2
  -4 -13   2 2395.37 246.381   3
  -4 -13   1 1999.59 233.753   3
  -4 -13   0 3215.23 298.720   3
  -4 -13  -1 293.418 135.331   3
  -4 -13  -2 3175.12 307.542   3
  -4 -13  -3 177.427 118.905   3
  -4 -13  -4 73.2451 111.429   3
  -4 -13  -5 773.673 180.181   3
  -4 -14   0 1464.95 214.558   3
  -4 -14  -1 1327.87 214.356   3
   5  -7   8 5303.87 308.829   1
   5  -7   9 194.714 86.9085   1
   5  -7  10 2709.86 244.831   1
   5  -7  11-34.5778 72.2768   1
   5  -7  12 701.460 148.119   1
   5  -7  13 53.7076 86.8071   1
   5  -6   4 1535.07 129.356   1
   5  -6   5 5210.92 250.133   1
   5  -6   6 2114.23 169.999   1
   5  -6   7 1972.39 172.944   1
   5  -6   8 176.247 75.4321   1
   5  -6   9-16.2154 74.9264   1
   5  -6  10 481.152 106.069   1
   5  -6  11 1018.40 164.350   1
   5  -6  12 1252.15 186.195   1
   5  -6  13 306.008 116.360   1
   5  -6  14 75.9173 86.8789   1
   5  -5   1 125.802 43.6417   1
   5  -5   2 5909.85 223.430   1
   5  -5   3 374.685 65.5738   1
   5  -5   4 9156.49 308.600   1
   5  -5   5 677.691 98.9714   1
   5  -5   6 8552.48 331.315   1
   5  -5   7 606.060 104.358   1
   5  -5   8 308.353 86.0469   1
   5  -5   9 938.996 132.609   1
   5  -5  10 197.916 89.4420   1
   5  -5  11 4153.68 298.665   1
   5  -5  12-112.372 116.192   1
   5  -5  13 1516.61 205.332   1
   5  -5  14-157.654 112.568   1
   5  -5  15-3.86672 89.9845   1
  -5   4  10 84.6685 91.2886   2
  -5   4   9 128.899 87.0304   2
  -5   4   8 292.731 101.773   2
  -5   4   7-54.9817 72.9575   2
  -5   4   6 822.880 120.757   2
  -5   4   5 1634.48 153.270   2
  -5   4   4-15.9798 54.6630   2
  -5   4   3 471.431 76.9213   2
  -5   4   2 3145.72 160.851   2
   5  -4  -2 3482.61 169.873   1
  -5   4   1 15131.6 330.133   2
   5  -4  -1 16459.0 369.273   1
   5  -4   0 173.788 52.1043   1
   5  -4   1 26323.4 496.248   1
   5  -4   2 1826.95 127.023   1
   5  -4   3 2780.00 158.987   1
   5  -4   4 12514.9 354.860   1
   5  -4   5 3004.48 183.430   1
   5  -4   6 35367.8 689.359   1
   5  -4   7 3098.93 206.929   1
   5  -4   8 3021.22 210.576   1
   5  -4   9 2702.27 213.262   1
   5  -4  10 207.000 92.8834   1
   5  -4  11 959.099 153.584   1
   5  -4  12 133.209 97.4016   1
   5  -4  13 2647.03 260.740   1
   5  -4  14 34.3956 106.103   1
   5  -4  15 54.6961 103.402   1
  -5   3  11 53.8154 90.0842   2
  -5   3  10-53.2622 90.1271   2
  -5   3   9-109.454 89.4621   2
  -5   3   8-48.5176 82.8749   2
  -5   3   7 1641.57 175.642   2
  -5   3   6 833.196 127.616   2
  -5   3   5 192.700 80.3167   2
  -5   3   4 136.196 59.8571   2
  -5   3   3 94.5007 53.6982   2
  -5   3   2 11524.3 312.380   2
   5  -3  -1 5.10024 46.6365   1
  -5   3   1 231.865 52.3111   2
  -5   3   0 36561.7 498.108   2
   5  -3   0 38380.7 628.965   1
  -5   3  -1 2885.29 75.3917   2
   5  -3   1 4218.02 182.389   1
   5  -3   2 25370.7 493.018   1
   5  -3   3 763.675 91.5133   1
   5  -3   4 8233.22 277.007   1
   5  -3   5 43955.5 738.906   1
   5  -3   6 5084.95 242.745   1
   5  -3   7 17160.9 463.492   1
   5  -3   8 698.484 115.346   1
   5  -3   9 7660.74 341.785   1
   5  -3  10 359.545 109.746   1
   5  -3  11 2933.93 241.362   1
   5  -3  12 3284.23 266.373   1
   5  -3  13-30.0452 116.605   1
   5  -3  14 635.098 152.636   1
   5  -3  15-26.0835 110.487   1
   5  -3  16 303.199 146.730   1
  -5   2  11 2.45678 89.4336   2
  -5   2  10 26.9629 88.4255   2
  -5   2   9 453.374 125.006   2
  -5   2   8 276.122 109.315   2
  -5   2   7 1773.85 184.565   2
  -5   2   6 183.041 81.8192   2
  -5   2   5 2679.03 192.847   2
  -5   2   4 1242.72 128.783   2
  -5   2   3 9093.95 301.002   2
  -5   2   2 1650.51 121.391   2
  -5   2   1 1471.03 98.0205   2
  -5   2   0 12785.8 257.093   2
   5  -2   0 12200.3 336.059   1
  -5   2  -1 375.282 32.3148   2
   5  -2   1 414.186 71.9447   1
   5  -2   2 487.679 72.7850   1
   5  -2   3 15300.2 368.871   1
   5  -2   4 21227.1 455.515   1
   5  -2   5 1562.19 130.889   1
   5  -2   6 5305.99 236.471   1
   5  -2   7 18586.2 479.967   1
   5  -2   8 5831.82 274.276   1
   5  -2   9 7563.72 333.489   1
  -5   2  -9 7233.95 247.847   3
   5  -2  10 12668.0 456.787   1
   5  -2  11 2300.34 215.890   1
   5  -2  12 13.8534 94.7172   1
   5  -2  13-54.3973 113.018   1
   5  -2  14 248.252 119.255   1
   5  -2  15 321.952 132.436   1
   5  -2  16 225.865 130.571   1
  -5   1  11 41.2793 99.5221   2
  -5   1  10 78.6735 97.5855   2
  -5   1   9 446.352 133.714   2
  -5   1   8 2429.31 223.337   2
  -5   1   7 961.292 156.370   2
  -5   1   6 3746.71 246.227   2
  -5   1   5 108.283 82.5187   2
  -5   1   4 6359.94 272.783   2
  -5   1   3 74.9358 56.3564   2
  -5   1   2 1716.29 122.201   2
  -5   1   1 24319.9 437.759   2
  -5   1   0 17518.3 322.496   2
  -5   1  -1 25625.4 358.968   2
   5  -1   2 2708.40 157.717   1
  -5   1  -2 2614.08 72.5045   2
   5  -1   3 131540. 1492.41   1
   5  -1   4 2970.32 166.137   1
   5  -1   5 47559.1 759.056   1
   5  -1   6 2087.57 63.0289   2
   5  -1   6 2703.61 170.930   1
   5  -1   6 1931.40 60.6767   2
   5  -1   7 7.70182 67.2642   1
   5  -1   7 16.3223 17.7660   2
   5  -1   8 9493.69 236.503   2
   5  -1   8 9192.58 346.182   1
   5  -1   9 127.116 49.6794   2
  -5   1  -9 88.1251 48.0942   3
   5  -1   9-35.4492 89.4648   1
   5  -1  10 23387.0 484.127   2
   5  -1  10 23459.8 626.922   1
  -5   1 -10 22666.6 474.015   3
   5  -1  11 1305.02 124.299   2
   5  -1  11 1014.85 155.288   1
   5  -1  12 1199.14 128.713   2
   5  -1  12 1532.91 195.649   1
   5  -1  13 22.1329 96.9660   1
   5  -1  13 64.6162 59.4212   2
   5  -1  14-51.2719 117.501   1
   5  -1  15 909.780 185.371   1
   5  -1  16-65.2511 111.911   1
  -5   0  12 11.2493 105.184   2
  -5   0  11 52.8537 102.850   2
  -5   0  10 329.210 127.678   2
  -5   0   9 309.039 119.571   2
  -5   0   8 99.1480 90.6337   2
  -5   0   7 683.436 130.008   2
  -5   0   6 2032.62 181.294   2
  -5   0   5 3453.16 217.301   2
  -5   0   4 17501.2 460.641   2
  -5   0   3 11165.0 339.137   2
  -5   0   2 46624.6 727.360   2
  -5   0   1 94.9636 43.4027   2
  -5   0   0 1010.34 78.2870   2
  -5   0  -1 950.324 67.1198   2
   5   0   2 20098.8 438.151   1
  -5   0  -2 20754.7 312.525   2
   5   0   3 19490.5 295.727   2
   5   0   3 21904.5 457.217   1
   5   0   4 22366.3 319.302   2
   5   0   4 25765.6 495.006   1
   5   0   5 10433.2 317.541   1
   5   0   5 9223.30 194.564   2
   5   0   6 2463.62 167.204   1
   5   0   7 1635.30 147.737   1
   5   0   8 1702.89 156.710   1
  -5   0  -8 1860.17 140.225   3
   5   0   9 17862.8 511.150   1
  -5   0  -9 19345.3 462.365   3
   5   0  10 13731.3 380.269   2
   5   0  10 13301.2 455.458   1
  -5   0 -10 14752.6 403.754   3
   5   0  11 1632.98 142.607   2
   5   0  11 1618.81 186.105   1
   5   0  12 3818.62 278.354   1
   5   0  12 3874.50 226.239   2
   5   0  13 1843.46 210.312   1
   5   0  13 1788.65 167.522   2
   5   0  14 224.392 118.832   1
   5   0  14 480.036 102.610   2
   5   0  15 435.415 143.147   1
   5   0  15 625.408 117.224   2
   5   0  16 899.667 192.892   1
   5   0  17-8.90729 112.109   1
  -5  -1  12-35.3721 99.9788   2
  -5  -1  11-57.1083 99.5989   2
  -5  -1  10 658.735 155.982   2
  -5  -1   9 549.761 141.708   2
  -5  -1   8 392.863 126.141   2
  -5  -1   7 23.5325 83.9507   2
  -5  -1   6 2168.51 188.688   2
  -5  -1   5 55.4600 77.4798   2
  -5  -1   4 828.887 114.960   2
  -5  -1   3 37422.1 676.063   2
  -5  -1   2 16225.3 392.089   2
  -5  -1   1 34142.2 568.556   2
  -5  -1   0 1139.01 88.5045   2
  -5  -1  -1 30671.2 483.641   2
  -5  -1  -2 25633.3 417.932   2
   5   1   3 1372.10 130.018   1
   5   1   4 70452.3 988.612   1
   5   1   5 36721.7 645.127   1
   5   1   6 12391.9 370.262   1
   5   1   7 2523.86 176.029   1
  -5  -1  -7 2466.95 164.576   3
   5   1   8 13497.7 413.280   1
  -5  -1  -8 13661.5 403.267   3
   5   1   9 7244.08 317.567   1
  -5  -1  -9 7561.77 298.517   3
  -5  -1 -10 476.879 87.2962   3
   5   1  10 245.678 95.3563   1
   5   1  11 15293.7 519.429   1
  -5  -1 -11 16151.6 442.824   3
   5   1  12 89.8949 99.1766   1
   5   1  13 1630.12 166.524   2
   5   1  13 1630.24 203.289   1
   5   1  14 1551.26 168.946   2
   5   1  14 1128.31 190.762   1
   5   1  15-153.187 125.177   1
   5   1  15 60.0880 77.2394   2
   5   1  16 40.8943 100.842   1
   5   1  16-12.1254 67.7026   2
   5   1  17 3.09078 104.571   1
   5   1  17-23.5530 71.0564   2
  -5  -2  12-67.5189 111.844   2
  -5  -2  11 68.3506 115.650   2
  -5  -2  10 647.265 155.491   2
  -5  -2   9 44.7210 101.129   2
  -5  -2   8 1945.94 207.902   2
  -5  -2   7-66.4766 97.1326   2
  -5  -2   6-94.9566 95.1865   2
  -5  -2   5 96.7432 73.4350   2
  -5  -2   4 14457.8 423.716   2
  -5  -2   3 30677.9 619.330   2
  -5  -2   2 16313.1 406.102   2
  -5  -2   1 11693.1 317.288   2
  -5  -2   0 14300.9 344.767   2
  -5  -2  -1 20294.5 409.193   2
  -5  -2  -2 1010.69 86.1937   2
  -5  -2  -3 66029.1 854.149   2
   5   2   4 69354.8 981.672   1
  -5  -2  -5 18463.6 472.635   3
   5   2   5 17963.4 433.007   1
  -5  -2  -6 26528.0 591.402   3
   5   2   6 27489.7 565.689   1
   5   2   7 47013.6 802.303   1
  -5  -2  -7 46469.2 836.343   3
   5   2   8 28093.7 610.631   1
  -5  -2  -8 28058.4 629.805   3
   5   2   9 1675.62 159.755   1
  -5  -2  -9 1911.29 168.518   3
   5   2  10 3118.67 219.864   1
  -5  -2 -10 3447.85 216.665   3
  -5  -2 -11 1659.04 152.288   3
   5   2  11 1534.17 176.295   1
  -5  -2 -12 104.141 57.8726   3
   5   2  12 222.348 102.050   1
   5   2  13 399.532 124.831   1
   5   2  14 569.578 143.025   1
   5   2  15 1727.29 189.087   2
   5   2  15 1543.17 213.165   1
   5   2  16-45.0366 107.097   1
   5   2  16 103.623 83.9907   2
   5   2  17-143.446 110.883   1
   5   2  17 89.2168 76.1821   2
  -5  -3  12-128.975 123.419   2
  -5  -3  11 139.650 117.348   2
  -5  -3  10 68.9594 107.365   2
  -5  -3   9 1130.32 176.926   2
  -5  -3   8 815.132 151.529   2
  -5  -3   7 1732.13 188.231   2
  -5  -3   6 429.739 120.940   2
  -5  -3   5 22202.1 578.899   2
  -5  -3   4 2492.57 192.880   2
  -5  -3   3 11630.1 370.844   2
  -5  -3   2 3503.36 196.013   2
  -5  -3   1 345.428 79.9852   2
  -5  -3   0 90591.3 1164.24   2
  -5  -3  -1 442.430 77.9240   2
  -5  -3  -2 166508. 1822.58   2
  -5  -3  -3 12462.0 333.143   2
  -5  -3  -4 1717.30 159.008   3
   5   3   4 1533.28 139.221   1
  -5  -3  -5 6495.52 289.232   3
   5   3   5 6065.01 248.507   1
   5   3   6 2718.46 176.916   1
  -5  -3  -6 2197.91 176.870   3
   5   3   7 76027.8 1096.27   1
  -5  -3  -7 75669.7 1178.91   3
   5   3   8 185.162 88.3049   1
  -5  -3  -8 97.1120 76.4424   3
   5   3   9 38344.9 763.963   1
  -5  -3  -9 40570.6 820.057   3
   5   3  10 5252.19 275.642   1
  -5  -3 -10 5969.60 303.748   3
  -5  -3 -11 160.233 72.9394   3
   5   3  11-5.28073 76.3847   1
  -5  -3 -12 836.343 117.988   3
   5   3  12 943.311 146.918   1
   5   3  13 140.697 97.2939   1
   5   3  14 4080.79 310.718   1
   5   3  15-118.551 111.128   1
   5   3  16 244.390 117.206   1
   5   3  16 386.514 114.879   2
   5   3  17-47.0493 90.2900   1
   5   3  17 35.6709 76.9271   2
  -5  -4  12 111.098 120.140   2
  -5  -4  11 157.261 119.287   2
  -5  -4  10 274.060 136.202   2
  -5  -4   9 390.791 133.113   2
  -5  -4   8 456.582 136.034   2
  -5  -4   7 1360.91 181.963   2
  -5  -4   6 3728.34 257.785   2
  -5  -4   5 8853.76 367.023   2
  -5  -4   4 111.182 85.5923   2
  -5  -4   3 1288.79 136.948   2
  -5  -4   2 1388.89 136.275   2
  -5  -4   1 189.944 68.2438   2
  -5  -4   0-10.5332 67.8272   2
  -5  -4  -1 83664.7 1135.12   2
  -5  -4  -2 60518.0 996.949   3
  -5  -4  -2 58374.2 894.751   2
  -5  -4  -3 3275.49 217.043   3
  -5  -4  -3 2566.89 162.355   2
  -5  -4  -4 19990.3 540.982   3
   5   4   4 19366.7 477.399   1
  -5  -4  -5 3209.26 220.172   3
   5   4   5 3455.84 190.974   1
  -5  -4  -6 13018.8 443.694   3
   5   4   6 12921.8 374.247   1
  -5  -4  -7 367.222 101.872   3
   5   4   7 191.570 73.4674   1
   5   4   8 24307.2 561.667   1
  -5  -4  -8 25372.0 649.363   3
   5   4   9 15550.1 455.114   1
  -5  -4  -9 15981.2 517.219   3
   5   4  10 3336.56 217.970   1
  -5  -4 -10 3752.94 253.241   3
  -5  -4 -11 330.907 92.2482   3
   5   4  11 319.075 107.368   1
   5   4  12 2400.57 213.172   1
  -5  -4 -12 2539.43 220.315   3
   5   4  13 1962.86 206.451   1
  -5  -4 -13 2215.17 203.179   3
   5   4  14 375.862 114.906   1
   5   4  15 275.034 114.966   1
   5   4  16 158.529 95.7456   1
  -5  -5  12 131.074 123.313   2
  -5  -5  11 696.384 172.379   2
  -5  -5  10 611.604 161.163   2
  -5  -5   9 545.657 144.651   2
  -5  -5   8 131.683 118.539   2
  -5  -5   7 1416.63 186.373   2
  -5  -5   6 11921.1 460.114   2
  -5  -5   5 747.892 139.665   2
  -5  -5   4 21043.1 574.430   2
  -5  -5   3 19549.1 538.780   2
  -5  -5   2 106.728 84.2916   2
  -5  -5   2-25.7262 81.6059   3
  -5  -5   1 14527.5 449.505   3
  -5  -5   1 15526.4 458.531   2
  -5  -5   0 3929.46 240.320   3
  -5  -5   0 4238.05 230.165   2
  -5  -5  -1 93674.3 1364.88   3
  -5  -5  -1 93252.1 1291.89   2
  -5  -5  -2 3376.82 230.969   3
  -5  -5  -2 3264.15 204.787   2
  -5  -5  -3 77326.6 1227.75   3
  -5  -5  -3 75522.4 1136.26   2
  -5  -5  -4 1300.64 166.553   3
   5   5   4 1315.07 136.065   1
  -5  -5  -5 32219.6 748.107   3
   5   5   5 32566.5 630.075   1
   5   5   6 381.901 79.8310   1
  -5  -5  -6 310.287 101.440   3
  -5  -5  -7 3290.16 239.439   3
   5   5   7 3199.85 190.496   1
   5   5   8 23540.9 549.409   1
  -5  -5  -8 23736.5 659.286   3
   5   5   9 5520.45 263.308   1
  -5  -5  -9 5382.69 314.012   3
   5   5  10 4976.09 264.260   1
  -5  -5 -10 5560.45 323.592   3
  -5  -5 -11 179.717 84.4994   3
   5   5  11 479.840 104.778   1
   5   5  12 6030.32 321.159   1
  -5  -5 -12 6742.41 376.207   3
   5   5  13 85.8452 78.6358   1
  -5  -5 -13 217.602 96.0005   3
   5   5  14 260.473 97.4150   1
   5   5  15 528.740 124.668   1
  -5  -6  12 156.685 128.644   2
  -5  -6  11 251.194 130.371   2
  -5  -6  10 109.136 118.662   2
  -5  -6   9 196.118 125.784   2
  -5  -6   8 73.9173 105.232   2
  -5  -6   7 986.125 168.396   2
  -5  -6   7 810.295 114.275   3
  -5  -6   6 1229.05 139.639   3
  -5  -6   6 1321.62 182.369   2
  -5  -6   5 6307.81 302.718   3
  -5  -6   5 6497.64 339.379   2
  -5  -6   4 16505.6 497.985   3
  -5  -6   4 17825.4 557.244   2
  -5  -6   3 11208.1 405.935   3
  -5  -6   3 11996.6 439.258   2
  -5  -6   2 14373.8 462.722   3
  -5  -6   2 14292.4 473.338   2
  -5  -6   1 55332.8 999.575   3
  -5  -6   1 56436.8 996.004   2
  -5  -6   0 18632.5 542.910   3
  -5  -6   0 18912.8 532.106   2
  -5  -6  -1-1.75264 90.0959   2
  -5  -6  -1 24.8186 92.6564   3
  -5  -6  -2 1272.37 143.905   2
  -5  -6  -2 1142.99 145.284   3
  -5  -6  -3 19813.7 589.222   3
  -5  -6  -4 14854.0 514.588   3
   5   6   4 14650.9 412.067   1
  -5  -6  -5 7988.05 380.560   3
   5   6   5 7707.04 285.002   1
  -5  -6  -6 19187.6 599.784   3
   5   6   6 19589.7 469.531   1
  -5  -6  -7 29660.3 761.914   3
   5   6   7 28728.6 595.001   1
  -5  -6  -8 5442.29 324.277   3
   5   6   8 5328.30 247.034   1
   5   6   9 2937.70 189.841   1
  -5  -6  -9 2857.31 247.108   3
  -5  -6 -10-51.6863 95.9012   3
   5   6  10 12.2770 54.5640   1
   5   6  11 7394.76 326.785   1
  -5  -6 -11 8154.66 427.380   3
   5   6  12 227.261 83.0283   1
  -5  -6 -12 173.500 95.3463   3
   5   6  13 3132.35 240.316   1
  -5  -6 -13 3177.25 280.126   3
  -5  -7  11-127.800 124.204   2
  -5  -7  10 18.9956 102.422   2
  -5  -7   9 56.0655 107.198   2
  -5  -7   8 1346.87 201.031   2
  -5  -7   7 190.422 119.765   2
  -5  -7   6 3357.78 230.505   3
  -5  -7   6 4049.37 302.305   2
  -5  -7   5 5063.30 284.631   3
  -5  -7   5 5557.94 336.434   2
  -5  -7   4 84.1265 109.798   2
  -5  -7   4 198.388 80.7940   3
  -5  -7   3 7231.69 343.875   3
  -5  -7   3 7506.72 371.236   2
  -5  -7   2 534.563 132.983   2
  -5  -7   2 564.989 116.405   3
  -5  -7   1 28803.6 708.289   3
  -5  -7   1 29702.8 725.379   2
  -5  -7   0 9410.97 399.002   3
  -5  -7   0 9471.27 397.335   2
  -5  -7  -1 4093.02 270.880   3
  -5  -7  -1 3985.32 258.969   2
  -5  -7  -2 23690.6 675.875   3
  -5  -7  -2 22879.3 627.977   2
  -5  -7  -3-4.86954 92.8905   3
   5   7   4 5617.26 256.042   1
  -5  -7  -4 5677.49 327.511   3
  -5  -7  -5 2974.02 254.066   3
   5   7   5 2977.67 176.156   1
  -5  -7  -6 51759.0 1079.98   3
   5   7   6 52080.0 836.079   1
  -5  -7  -7 7000.11 377.975   3
   5   7   7 7183.29 272.750   1
   5   7   8 4009.01 210.258   1
  -5  -7  -8 4556.08 318.348   3
   5   7   9-7.26229 57.3820   1
  -5  -7  -9 84.8697 103.416   3
  -5  -7 -10 13.8386 99.0591   3
   5   7  10 59.3744 51.9233   1
  -5  -7 -11-85.8997 109.304   3
  -5  -7 -12 162.858 102.374   3
  -5  -7 -13 996.153 176.072   3
  -5  -7 -14-123.830 102.041   3
  -5  -8  11-103.134 115.324   2
  -5  -8  10 92.0865 124.547   2
  -5  -8   9-44.8015 116.553   2
  -5  -8   8 932.905 187.468   2
  -5  -8   7 1444.28 212.495   2
  -5  -8   6 2224.87 197.517   3
  -5  -8   6 2271.63 243.562   2
  -5  -8   5-110.417 127.307   2
  -5  -8   5 212.467 81.7929   3
  -5  -8   4 206.654 109.403   2
  -5  -8   4 244.802 89.6627   3
  -5  -8   3 29.1139 113.677   2
  -5  -8   3 84.3964 72.8982   3
  -5  -8   2 18667.5 596.912   3
  -5  -8   2 18529.6 605.929   2
  -5  -8   1 16368.9 557.537   3
  -5  -8   1 15975.4 560.334   2
  -5  -8   0 23902.0 684.101   3
  -5  -8   0 24048.9 689.300   2
  -5  -8  -1 30887.3 787.691   3
  -5  -8  -1 30366.4 781.876   2
  -5  -8  -2 29.0732 101.759   3
  -5  -8  -3 4666.09 310.093   3
   5   8   4 392.714 76.0995   1
  -5  -8  -4 544.560 128.262   3
  -5  -8  -5 36994.5 910.232   3
   5   8   5 35898.8 657.836   1
  -5  -8  -6 14199.6 558.829   3
   5   8   6 15295.0 397.609   1
  -5  -8  -7 13005.3 542.769   3
   5   8   7 12580.8 360.380   1
   5   8   8 1738.12 136.563   1
  -5  -8  -8 1382.12 191.347   3
  -5  -8  -9 250.275 109.388   3
  -5  -8 -10 426.863 141.941   3
  -5  -8 -11 320.860 130.503   3
  -5  -8 -12 1982.38 244.647   3
  -5  -8 -13 2110.24 257.116   3
  -5  -8 -14-87.3129 97.7406   3
  -5  -9  10 10.2085 103.213   2
  -5  -9   9 1422.46 235.607   2
  -5  -9   8 284.878 134.283   2
  -5  -9   7 4324.32 351.904   2
  -5  -9   6 89.4880 124.546   2
  -5  -9   5 1744.84 227.304   2
  -5  -9   5 1390.53 160.894   3
  -5  -9   4 129.966 115.651   2
  -5  -9   4 170.279 85.7578   3
  -5  -9   3 4149.41 310.632   2
  -5  -9   3 4211.49 285.335   3
  -5  -9   2 2083.13 210.208   3
  -5  -9   2 1985.85 229.996   2
  -5  -9   1 1282.23 191.657   2
  -5  -9   1 1202.64 169.439   3
  -5  -9   0 18394.4 616.688   3
  -5  -9   0 19357.6 646.644   2
  -5  -9  -1 739.029 149.045   2
  -5  -9  -1 844.611 159.706   3
  -5  -9  -2 13065.0 534.066   3
  -5  -9  -3 2433.92 241.843   3
   5   9   3 2109.77 166.282   1
  -5  -9  -4 16855.9 618.161   3
   5   9   4 18348.1 455.397   1
  -5  -9  -5 6710.95 399.841   3
   5   9   5 6773.96 253.263   1
  -5  -9  -6-190.467 156.723   3
  -5  -9  -7 7715.38 351.101   4
  -5  -9  -7 8125.64 451.822   3
  -5  -9  -8 824.578 133.600   4
  -5  -9  -8 652.396 159.351   3
  -5  -9  -9 3341.85 267.109   4
  -5  -9  -9 3777.87 324.999   3
  -5  -9 -10 40.2078 74.0418   4
  -5  -9 -10-194.991 135.877   3
  -5  -9 -11 4261.70 339.936   4
  -5  -9 -11 4974.38 382.232   3
  -5  -9 -12 904.438 181.143   4
  -5  -9 -12 1311.90 218.415   3
  -5  -9 -13-74.2437 107.799   4
  -5  -9 -13 35.2750 96.9945   3
  -5 -10   9 68.3468 109.365   2
  -5 -10   8-244.531 146.483   2
  -5 -10   7 80.3219 111.951   2
  -5 -10   6 8.07244 117.704   2
  -5 -10   5 717.771 172.716   2
  -5 -10   4 1552.96 223.446   2
  -5 -10   4 1852.76 194.813   3
  -5 -10   3 1271.24 205.585   2
  -5 -10   3 1172.81 168.232   3
  -5 -10   2 382.734 140.855   2
  -5 -10   2 498.353 124.225   3
  -5 -10   1 8188.68 427.344   3
  -5 -10   1 8098.94 451.720   2
  -5 -10   0 8414.36 433.627   3
  -5 -10   0 8912.12 469.415   2
  -5 -10  -1 4873.06 338.926   3
  -5 -10  -2 358.972 138.885   3
  -5 -10  -3 11327.6 525.055   3
  -5 -10  -4 2666.15 266.726   3
  -5 -10  -5 1357.21 201.150   3
  -5 -10  -6 5505.62 376.925   3
  -5 -10  -7 736.146 167.822   3
  -5 -10  -8 2549.17 278.450   3
  -5 -10  -9-25.4972 119.802   3
  -5 -10 -10 5198.52 399.509   3
  -5 -10 -11 1320.58 220.387   3
  -5 -10 -12 36.3445 102.242   3
  -5 -11   8 954.481 202.706   2
  -5 -11   7 33.5515 111.534   2
  -5 -11   6 2955.53 316.499   2
  -5 -11   5 507.693 166.589   2
  -5 -11   4 2801.94 306.469   2
  -5 -11   3-7.48696 113.506   2
  -5 -11   3-27.2919 79.4540   3
  -5 -11   2 3894.01 304.722   3
  -5 -11   2 4297.78 359.999   2
  -5 -11   1 3336.93 287.213   3
  -5 -11   1 3661.29 328.521   2
  -5 -11   0 164.214 103.268   3
  -5 -11  -1 3684.70 313.134   3
  -5 -11  -2 455.306 148.194   3
  -5 -11  -3 8742.49 482.698   3
  -5 -11  -4-153.750 134.676   3
  -5 -11  -5 3833.57 336.586   3
  -5 -11  -6 333.339 140.411   3
  -5 -11  -7-1.47041 115.964   3
  -5 -11  -8-32.8486 111.987   3
  -5 -11  -9 1089.45 200.737   3
  -5 -11 -10 1827.70 255.902   3
  -5 -12   6-15.1728 109.928   2
  -5 -12   5 3524.07 350.369   2
  -5 -12   4 130.547 121.515   2
  -5 -12   3 5513.05 428.184   2
  -5 -12   2 2945.73 273.471   3
  -5 -12   2 3281.29 334.082   2
  -5 -12   1 2723.20 272.680   3
  -5 -12   0 366.758 132.981   3
  -5 -12  -1 655.943 156.169   3
  -5 -12  -2 687.496 168.130   3
  -5 -12  -3 2402.27 276.337   3
  -5 -12  -4 4246.68 364.505   3
  -5 -12  -5 8230.17 505.234   3
  -5 -12  -6 967.920 201.580   3
  -5 -12  -7 1029.63 205.663   3
  -5 -12  -8 1236.72 223.884   3
  -5 -13   4 92.7028 117.739   2
  -5 -13   2 197.772 108.939   3
  -5 -13   1 1861.17 233.256   3
  -5 -13   0 108.312 98.2486   3
  -5 -13  -1 949.746 187.326   3
  -5 -13  -2 1070.55 200.377   3
  -5 -13  -3 3307.78 327.322   3
  -5 -13  -4 3726.27 350.800   3
  -5 -13  -5 62.0145 114.021   3
  -5 -14   0 1157.76 199.396   3
   6  -7  11 803.222 149.845   1
   6  -7  12 81.2034 78.0910   1
   6  -6   7 469.524 98.2900   1
   6  -6   8 508.138 106.017   1
   6  -6   9 377.886 98.3326   1
   6  -6  10 1580.20 194.492   1
   6  -6  11-217.519 108.239   1
   6  -6  12 673.035 144.297   1
   6  -6  13-9.46314 76.8251   1
   6  -5   3 4625.27 226.585   1
   6  -5   4 436.375 87.5015   1
   6  -5   5 13831.9 425.494   1
   6  -5   6 126.833 66.1280   1
   6  -5   7 779.626 118.183   1
   6  -5   8 91.5998 67.3945   1
   6  -5   9 200.373 83.0628   1
   6  -5  10 804.816 136.901   1
   6  -5  11-95.3893 104.675   1
   6  -5  12 2245.90 234.993   1
   6  -5  13-310.381 142.863   1
   6  -5  14 77.0078 93.5983   1
   6  -4   0 2183.66 147.883   1
   6  -4   1 14.0038 43.5577   1
   6  -4   2 488.519 80.2564   1
   6  -4   3 676.812 96.6211   1
   6  -4   4 21689.1 509.213   1
   6  -4   5 8694.23 325.063   1
   6  -4   6 7399.24 309.286   1
   6  -4   7 5009.93 263.093   1
   6  -4   8 203.939 91.8721   1
   6  -4   9 1241.24 157.277   1
   6  -4  10 62.1850 80.9423   1
   6  -4  11 3020.60 253.759   1
   6  -4  12 549.044 132.568   1
   6  -4  13 587.276 141.983   1
   6  -4  14-222.294 130.130   1
   6  -4  15 98.8614 106.152   1
  -6   3   8 186.062 91.3527   2
  -6   3   7 89.3962 76.2257   2
  -6   3   6 35.9255 68.8416   2
  -6   3   5-24.3395 59.1517   2
  -6   3   4 280.234 73.4737   2
   6  -3  -2 713.416 106.349   1
   6  -3  -1 11990.2 377.183   1
   6  -3   0 993.436 111.528   1
   6  -3   1 4242.25 205.363   1
   6  -3   2 2497.24 161.217   1
   6  -3   3 12351.5 362.121   1
   6  -3   4 69.9064 62.6607   1
   6  -3   5 5751.57 256.513   1
   6  -3   6 13946.1 416.455   1
   6  -3   7 1663.96 159.724   1
   6  -3   8 10112.2 382.257   1
   6  -3   9 2426.67 208.618   1
   6  -3  10 2283.49 209.858   1
   6  -3  11 1916.24 204.498   1
   6  -3  12 91.7057 97.1577   1
   6  -3  13 1891.30 222.201   1
   6  -3  14 36.9786 102.437   1
   6  -3  15 262.151 114.290   1
  -6   2  10 62.6880 81.0474   2
  -6   2   9 84.7548 87.3284   2
  -6   2   8 862.019 146.360   2
  -6   2   7 271.882 101.191   2
  -6   2   6 857.667 131.150   2
  -6   2   5 161.544 72.0146   2
  -6   2   4 142.456 68.8655   2
  -6   2   3 67.3103 52.8790   2
  -6   2   2 6816.18 247.601   2
  -6   2   1 6957.85 222.180   2
  -6   2   0 5839.12 174.252   2
   6  -2   0 6551.33 276.056   1
   6  -2   1 1189.28 120.326   1
   6  -2   2 7921.54 282.515   1
   6  -2   3 251.090 69.1655   1
   6  -2   4 499.587 90.7853   1
   6  -2   5 1388.25 130.845   1
   6  -2   6 10326.8 348.920   1
   6  -2   7 5257.64 260.226   1
   6  -2   8 137.980 82.7011   1
   6  -2   9 15056.9 479.225   1
   6  -2  10 2700.58 223.350   1
   6  -2  11 479.862 120.024   1
   6  -2  12 587.220 137.933   1
   6  -2  13 97.7682 94.9643   1
   6  -2  14 29.7104 101.947   1
   6  -2  15-361.178 155.452   1
   6  -2  16 396.927 152.670   1
  -6   1  10 31.1202 91.0133   2
  -6   1   9 179.365 97.1627   2
  -6   1   8 70.3161 90.2427   2
  -6   1   7 1095.58 155.832   2
  -6   1   6-29.0901 70.5030   2
  -6   1   5 3304.40 221.670   2
  -6   1   4 248.103 85.0739   2
  -6   1   3 12269.1 373.760   2
  -6   1   2 1546.53 122.718   2
  -6   1   1 150.376 45.9898   2
  -6   1   0 2436.03 120.067   2
  -6   1  -1 65.3453 25.8522   2
   6  -1   1 9.08631 59.7954   1
   6  -1   2 23688.1 522.512   1
  -6   1  -2 22054.2 295.890   2
   6  -1   3 73.3200 67.0580   1
   6  -1   4 28299.8 567.871   1
   6  -1   5 10789.6 345.622   1
   6  -1   6 1794.67 151.721   1
   6  -1   7 3694.08 216.060   1
   6  -1   8 9856.98 366.657   1
   6  -1   9 17438.8 519.807   1
  -6   1  -9 17244.5 454.943   3
   6  -1  10 1848.05 191.940   1
  -6   1 -10 1930.92 149.296   3
   6  -1  11 5639.87 327.046   1
   6  -1  12 92.5338 93.5483   1
   6  -1  13-20.4112 101.337   1
   6  -1  14-42.3090 122.277   1
   6  -1  15 188.689 120.599   1
   6  -1  16 853.378 187.159   1
  -6   0  11-31.7039 87.8660   2
  -6   0  10 236.087 112.702   2
  -6   0   9-129.743 107.588   2
  -6   0   8 358.887 114.871   2
  -6   0   7-3.00696 82.9264   2
  -6   0   6 9.86102 78.5026   2
  -6   0   5 92.1329 76.2365   2
  -6   0   4 7640.27 319.466   2
  -6   0   3 6990.40 280.358   2
  -6   0   2 746.643 92.7753   2
  -6   0   1 11182.7 307.700   2
  -6   0   0 949.438 84.2470   2
  -6   0  -1 23768.2 409.329   2
   6   0   2 2562.75 178.369   1
  -6   0  -2 2585.02 110.562   2
   6   0   3 51034.6 834.856   1
   6   0   4 17331.1 433.351   1
   6   0   5 5531.40 245.363   1
   6   0   6 2103.62 170.171   1
   6   0   7 1954.90 163.335   1
   6   0   8 1110.56 139.138   1
   6   0   9 1688.12 169.629   1
  -6   0  -9 2088.81 165.150   3
   6   0  10 13075.0 347.045   2
   6   0  10 12815.4 458.368   1
  -6   0 -10 13190.6 413.475   3
   6   0  11 1889.56 202.319   1
   6   0  12 2792.24 244.377   1
   6   0  13 11.1354 99.6736   1
   6   0  14 159.824 114.863   1
   6   0  15 650.994 152.768   1
   6   0  16-162.357 133.774   1
  -6  -1  11-48.5443 95.4176   2
  -6  -1  10 24.1505 103.104   2
  -6  -1   9 605.663 146.091   2
  -6  -1   8-92.7098 104.985   2
  -6  -1   7 49.5972 86.6160   2
  -6  -1   6 392.539 106.334   2
  -6  -1   5 1226.17 148.157   2
  -6  -1   4 6000.16 285.172   2
  -6  -1   3 2060.75 158.448   2
  -6  -1   2 4234.65 206.176   2
  -6  -1   1 1248.96 110.638   2
  -6  -1   0 3599.30 168.550   2
  -6  -1  -1 1080.21 91.3339   2
  -6  -1  -2 19946.6 384.294   2
   6   1   3 77490.9 1119.82   1
  -6  -1  -3 75528.4 916.238   2
   6   1   4 502.011 109.768   1
   6   1   5 24595.6 541.215   1
   6   1   6 2175.06 169.627   1
   6   1   7 7439.50 305.915   1
   6   1   8 2635.46 195.299   1
  -6  -1  -8 2964.10 202.832   3
   6   1   9 1427.52 161.132   1
  -6  -1  -9 1944.77 168.345   3
   6   1  10 12456.6 452.717   1
  -6  -1 -10 12406.3 421.745   3
  -6  -1 -11 334.647 87.6747   3
   6   1  11 19.2052 95.1284   1
   6   1  12 1645.82 203.473   1
   6   1  13 1157.22 133.743   2
   6   1  13 1357.86 195.912   1
   6   1  14 2226.87 245.503   1
   6   1  15-133.238 139.661   1
   6   1  16-201.345 133.196   1
  -6  -2  11-26.5875 95.8477   2
  -6  -2  10 148.017 102.135   2
  -6  -2   9-26.0563 100.371   2
  -6  -2   8-10.6617 100.215   2
  -6  -2   7 109.933 96.0443   2
  -6  -2   6 743.394 133.951   2
  -6  -2   5 3090.94 227.271   2
  -6  -2   4 1627.67 158.538   2
  -6  -2   3 1631.84 151.448   2
  -6  -2   2 15742.6 425.456   2
  -6  -2   1 11052.2 335.665   2
  -6  -2   0 2558.83 154.702   2
  -6  -2  -1 44185.9 697.872   2
  -6  -2  -2 17408.2 386.561   2
   6   2   3 10107.4 354.065   1
  -6  -2  -3 10264.7 286.717   2
   6   2   4 10830.3 366.701   1
   6   2   5 15103.7 417.781   1
  -6  -2  -6 33316.0 718.038   3
   6   2   6 33510.9 673.106   1
   6   2   7 5514.62 273.462   1
  -6  -2  -7 5222.28 278.527   3
   6   2   8 26428.3 613.729   1
  -6  -2  -8 27302.5 665.518   3
   6   2   9 15010.6 472.902   1
  -6  -2  -9 15612.4 497.464   3
   6   2  10 1820.47 186.014   1
  -6  -2 -10 1767.93 176.580   3
   6   2  11 2041.55 197.224   1
  -6  -2 -11 2556.66 202.398   3
  -6  -2 -12 120.282 62.9574   3
   6   2  12 133.138 100.105   1
   6   2  13 3596.70 291.460   1
   6   2  14-93.5311 115.889   1
   6   2  15 1.78174 100.626   1
   6   2  15 340.175 98.9744   2
   6   2  16-104.233 124.104   1
  -6  -3  11 136.758 119.266   2
  -6  -3  10 30.7607 111.500   2
  -6  -3   9 13.5229 109.983   2
  -6  -3   8 268.305 118.357   2
  -6  -3   7 164.956 98.5929   2
  -6  -3   6 2939.70 237.195   2
  -6  -3   5 499.932 118.876   2
  -6  -3   4 1722.60 175.478   2
  -6  -3   3 16847.8 480.130   2
  -6  -3   2 1633.18 150.446   2
  -6  -3   1 4124.68 218.131   2
  -6  -3   0 43292.8 740.803   2
  -6  -3  -1 27653.7 558.619   2
  -6  -3  -2 184.236 62.5806   2
  -6  -3  -3 28131.8 550.529   2
   6   3   4 11782.1 385.949   1
  -6  -3  -5 13802.0 459.629   3
   6   3   5 14358.2 423.920   1
  -6  -3  -6 14070.9 470.679   3
   6   3   6 13927.7 415.946   1
  -6  -3  -7 14928.1 497.165   3
   6   3   7 15490.7 459.057   1
   6   3   8 33536.4 710.584   1
  -6  -3  -8 34626.5 798.279   3
   6   3   9 40.1047 83.7973   1
  -6  -3  -9-16.4874 76.6254   3
   6   3  10 1568.63 174.060   1
  -6  -3 -10 1855.24 187.693   3
   6   3  11-114.170 106.601   1
  -6  -3 -11-74.8744 78.3201   3
   6   3  12 1904.55 205.951   1
  -6  -3 -12 2095.53 194.043   3
   6   3  13 2756.13 248.435   1
   6   3  14 310.029 122.956   1
   6   3  15 2088.04 245.291   1
   6   3  16-55.4176 106.013   1
   6   3  16-61.4785 76.8108   2
  -6  -4  11 459.762 153.682   2
  -6  -4  10 71.1670 110.864   2
  -6  -4   9 118.456 115.062   2
  -6  -4   8 363.179 122.236   2
  -6  -4   7 1365.68 184.636   2
  -6  -4   6 1014.56 165.697   2
  -6  -4   5 6116.51 324.009   2
  -6  -4   4 6149.44 315.495   2
  -6  -4   3 146.217 84.4176   2
  -6  -4   2 36.6069 75.6597   2
  -6  -4   1 1958.29 163.523   2
  -6  -4   0 2907.11 191.889   2
  -6  -4  -1 13563.1 398.478   2
  -6  -4  -2 9342.52 323.594   2
  -6  -4  -3 211.355 68.5561   2
  -6  -4  -3 213.388 101.559   3
  -6  -4  -4 4415.02 273.238   3
   6   4   4 4611.99 249.322   1
   6   4   5 326.674 90.1492   1
  -6  -4  -5 66.5140 84.7482   3
   6   4   6 548.582 107.971   1
  -6  -4  -6 440.153 119.982   3
  -6  -4  -7 56891.2 1093.10   3
   6   4   7 58994.0 975.740   1
   6   4   8 11296.9 398.281   1
  -6  -4  -8 11887.3 471.043   3
   6   4   9 7689.34 334.913   1
  -6  -4  -9 7884.08 390.071   3
   6   4  10 50.5634 74.7735   1
  -6  -4 -10 136.650 87.3118   3
   6   4  11 1923.41 192.577   1
  -6  -4 -11 2167.43 210.531   3
  -6  -4 -12-109.077 86.3552   3
   6   4  12 146.897 95.6073   1
  -6  -4 -13 510.882 117.600   3
   6   4  13 429.451 124.030   1
   6   4  14 2246.39 231.507   1
   6   4  15 13.9398 86.8462   1
   6   4  16 118.991 101.309   1
   6   4  17-55.4589 77.2586   2
  -6  -5  11 157.071 123.130   2
  -6  -5  10 365.399 143.997   2
  -6  -5   9 165.257 123.548   2
  -6  -5   8 436.139 143.454   2
  -6  -5   7 1660.28 207.010   2
  -6  -5   6 1667.07 198.090   2
  -6  -5   5 6990.65 355.797   2
  -6  -5   4 63.1367 89.2636   2
  -6  -5   3 5466.84 296.678   2
  -6  -5   2 163.915 90.7330   2
  -6  -5   1 11851.9 411.887   2
  -6  -5   0 44260.5 911.453   3
  -6  -5   0 45909.5 855.818   2
  -6  -5  -1 212.020 91.9931   2
  -6  -5  -1 523.925 135.218   3
  -6  -5  -2 81938.7 1329.83   3
  -6  -5  -2 79333.2 1187.70   2
  -6  -5  -3 776.200 110.098   2
  -6  -5  -3 1039.21 158.193   3
  -6  -5  -4 9366.81 415.084   3
   6   5   4 8817.90 350.918   1
  -6  -5  -5 5085.62 311.649   3
   6   5   5 4564.52 245.621   1
  -6  -5  -6 33548.5 821.668   3
   6   5   6 33029.6 680.999   1
   6   5   7 13304.2 423.584   1
  -6  -5  -7 13633.8 521.075   3
   6   5   8 2038.97 177.225   1
  -6  -5  -8 1856.37 204.685   3
   6   5   9 7210.97 325.063   1
  -6  -5  -9 7626.34 392.995   3
   6   5  10 162.761 80.9148   1
  -6  -5 -10 277.516 110.886   3
   6   5  11 1171.88 152.555   1
  -6  -5 -11 1622.52 199.090   3
  -6  -5 -12 217.208 98.7062   3
   6   5  12 506.174 120.603   1
   6   5  13 1949.70 207.375   1
  -6  -5 -13 2334.09 231.942   3
   6   5  14 1004.11 153.888   1
   6   5  15-61.0558 88.3608   1
   6   5  16 81.8758 78.5897   1
  -6  -6  10-100.634 118.964   2
  -6  -6   9 367.967 132.387   2
  -6  -6   8 30.2968 102.264   2
  -6  -6   7 783.676 164.394   2
  -6  -6   7 582.413 110.229   3
  -6  -6   6 1806.93 210.986   2
  -6  -6   6 1467.92 166.025   3
  -6  -6   5 3564.74 251.641   3
  -6  -6   5 3851.11 280.195   2
  -6  -6   4 1663.23 193.099   2
  -6  -6   4 1242.40 159.388   3
  -6  -6   3 1488.86 175.528   2
  -6  -6   3 1194.55 157.949   3
  -6  -6   2 8981.35 394.158   3
  -6  -6   2 9258.65 399.491   2
  -6  -6   1 8567.25 388.325   3
  -6  -6   1 8582.92 372.655   2
  -6  -6   0 6131.92 335.376   3
  -6  -6   0 6347.96 317.734   2
  -6  -6  -1 48191.8 996.653   3
  -6  -6  -1 48342.2 917.641   2
  -6  -6  -2 105.901 92.4481   2
  -6  -6  -2 81.6319 97.9813   3
  -6  -6  -3 10204.2 445.551   3
  -6  -6  -3 9577.84 383.699   2
  -6  -6  -4 3668.65 275.860   3
   6   6   4 3232.00 227.594   1
  -6  -6  -5 25921.4 737.596   3
   6   6   5 25302.8 598.246   1
  -6  -6  -6 4774.03 325.541   3
   6   6   6 4145.19 233.542   1
   6   6   7 332.633 84.1980   1
  -6  -6  -7 447.432 126.356   3
   6   6   8 4937.17 259.514   1
  -6  -6  -8 4739.75 324.162   3
   6   6   9 2691.59 196.895   1
  -6  -6  -9 2794.25 259.827   3
   6   6  10 4422.38 259.743   1
  -6  -6 -10 5259.67 351.724   3
  -6  -6 -11 1.40060 96.7315   3
   6   6  11-6.05566 70.0242   1
   6   6  12 7228.91 355.251   1
  -6  -6 -12 7543.75 422.712   3
   6   6  13 77.3232 75.9148   1
  -6  -6 -13 394.774 128.654   3
   6   6  14 98.0469 83.5273   1
  -6  -7  10-132.858 126.322   2
  -6  -7   9 406.765 148.299   2
  -6  -7   8 8.08923 109.045   2
  -6  -7   7 849.951 183.768   2
  -6  -7   6 272.732 123.685   2
  -6  -7   6 401.686 101.636   3
  -6  -7   5 404.945 122.707   2
  -6  -7   5 440.579 109.886   3
  -6  -7   4 2443.87 221.920   3
  -6  -7   4 2514.79 241.026   2
  -6  -7   3 4824.08 306.485   3
  -6  -7   3 5337.95 333.211   2
  -6  -7   2 9753.52 429.710   3
  -6  -7   2 9802.07 432.625   2
  -6  -7   1 5749.25 331.503   3
  -6  -7   1 5895.99 328.031   2
  -6  -7   0 17002.0 580.914   3
  -6  -7   0 16649.6 545.273   2
  -6  -7  -1 5905.42 344.827   3
  -6  -7  -1 5291.39 303.908   2
  -6  -7  -2 880.316 142.630   2
  -6  -7  -2 819.344 152.182   3
  -6  -7  -3 14599.5 558.155   3
  -6  -7  -4 4056.59 308.353   3
   6   7   4 3779.83 246.965   1
  -6  -7  -5 42759.5 1027.66   3
   6   7   5 42810.1 815.688   1
   6   7   6 2145.94 169.390   1
  -6  -7  -6 1957.79 224.754   3
  -6  -7  -7 6895.26 399.918   3
   6   7   7 7083.77 303.615   1
   6   7   8 1207.50 131.873   1
  -6  -7  -8 1632.31 215.332   3
   6   7   9 227.925 74.2883   1
  -6  -7  -9 386.764 131.598   3
   6   7  10 486.741 96.7993   1
  -6  -7 -10 441.093 141.094   3
   6   7  11 3942.53 247.829   1
  -6  -7 -11 4283.47 341.828   3
   6   7  12 2494.60 207.600   1
  -6  -7 -12 2700.08 280.543   3
  -6  -7 -13-52.4683 102.360   3
  -6  -7 -14 75.2843 88.9899   3
  -6  -8   9 159.703 132.385   2
  -6  -8   8 466.367 148.960   2
  -6  -8   7 744.946 179.317   2
  -6  -8   6 329.511 136.087   2
  -6  -8   5 1205.98 194.711   2
  -6  -8   5 1048.14 153.791   3
  -6  -8   4-108.608 119.488   2
  -6  -8   4 23.6494 71.4579   3
  -6  -8   3 1987.61 219.461   2
  -6  -8   3 1838.31 200.426   3
  -6  -8   2 23.3880 104.332   2
  -6  -8   2-30.4052 85.7640   3
  -6  -8   1 15767.3 576.318   3
  -6  -8   1 15835.9 567.234   2
  -6  -8   0 5416.93 339.792   3
  -6  -8   0 5196.63 325.933   2
  -6  -8  -1 4707.70 323.720   3
  -6  -8  -1 4243.99 292.314   2
  -6  -8  -2 1663.29 195.139   2
  -6  -8  -2 1972.05 222.840   3
  -6  -8  -3 5209.11 351.356   3
  -6  -8  -4 24183.1 755.357   3
   6   8   4 24499.2 618.842   1
   6   8   5 1239.38 137.113   1
  -6  -8  -5 1007.97 192.427   3
  -6  -8  -6 24545.6 782.392   3
   6   8   6 23744.5 563.836   1
  -6  -8  -7 10250.1 507.190   3
   6   8   7 9972.97 357.715   1
   6   8   8 2735.45 186.210   1
  -6  -8  -8 3089.82 287.911   3
   6   8   9-18.0558 56.7618   1
  -6  -8  -9-113.201 123.212   3
  -6  -8 -10 4464.46 355.837   3
  -6  -8 -11 2241.35 265.100   3
  -6  -8 -12 480.364 153.904   3
  -6  -8 -13 629.775 162.793   3
  -6  -8 -14 814.640 169.961   3
  -6  -9   9-56.9680 114.273   2
  -6  -9   8 1394.28 228.233   2
  -6  -9   7 40.7263 117.407   2
  -6  -9   6 4786.87 375.989   2
  -6  -9   5 310.371 137.856   2
  -6  -9   5 141.620 88.2386   3
  -6  -9   4 1256.57 205.574   2
  -6  -9   4 1309.27 183.566   3
  -6  -9   3 2.09103 111.796   2
  -6  -9   3-30.8189 93.4726   3
  -6  -9   2 3455.75 285.911   3
  -6  -9   2 3693.68 301.227   2
  -6  -9   1 16561.0 618.099   3
  -6  -9   1 17157.3 622.547   2
  -6  -9   0 1588.32 210.062   2
  -6  -9   0 1574.22 204.175   3
  -6  -9  -1 4185.41 316.772   3
  -6  -9  -1 4057.29 306.442   2
  -6  -9  -2 2916.79 271.413   3
  -6  -9  -3 3898.38 320.047   3
   6   9   4-39.6529 74.0814   1
  -6  -9  -4 27.5742 114.234   3
  -6  -9  -5 11993.9 556.900   3
   6   9   5 11855.4 385.180   1
  -6  -9  -6 9803.94 512.309   3
   6   9   6 10261.9 359.383   1
  -6  -9  -7 1507.86 226.668   3
  -6  -9  -8 875.981 180.999   3
  -6  -9  -9 2144.86 265.174   3
  -6  -9 -10 2406.73 285.552   3
  -6  -9 -11 465.229 152.324   3
  -6  -9 -12 1002.88 200.048   3
  -6  -9 -13 991.772 196.810   3
  -6 -10   8-114.929 112.402   2
  -6 -10   7 1086.11 204.662   2
  -6 -10   6-253.508 155.167   2
  -6 -10   5 8.26931 132.234   2
  -6 -10   4 281.708 132.098   2
  -6 -10   4 136.777 85.9504   3
  -6 -10   3 105.891 117.476   2
  -6 -10   3 37.6386 76.4024   3
  -6 -10   2 1992.27 242.970   2
  -6 -10   2 2120.99 231.864   3
  -6 -10   1 233.236 128.503   2
  -6 -10   1 270.611 122.188   3
  -6 -10   0 2273.92 246.614   3
  -6 -10   0 2108.51 247.315   2
  -6 -10  -1 580.645 162.109   2
  -6 -10  -1 718.348 165.582   3
  -6 -10  -2 8717.90 479.202   3
   6  10   3 531.042 109.854   1
  -6 -10  -3 753.752 177.783   3
  -6 -10  -4 8741.38 486.392   3
  -6 -10  -5 3595.83 324.308   3
  -6 -10  -6 391.712 146.289   3
  -6 -10  -7 373.057 138.803   3
  -6 -10  -8 259.008 131.905   3
  -6 -10  -9 5517.05 422.052   3
  -6 -10 -10 56.7089 118.846   3
  -6 -10 -11 2031.52 270.362   3
  -6 -10 -12 293.327 135.720   3
  -6 -11   7 414.017 164.222   2
  -6 -11   6 141.040 131.803   2
  -6 -11   5 2451.50 296.803   2
  -6 -11   4 169.846 129.488   2
  -6 -11   3 8078.74 441.965   3
  -6 -11   3 9623.73 536.671   2
  -6 -11   2 1292.57 216.488   2
  -6 -11   2 1042.89 178.654   3
  -6 -11   1 1155.08 214.678   2
  -6 -11   1 1144.06 190.040   3
  -6 -11   0 3030.25 289.678   3
  -6 -11   0 2888.91 299.083   2
  -6 -11  -1 250.056 135.494   3
  -6 -11  -2 3613.77 326.126   3
  -6 -11  -3 4461.19 363.339   3
  -6 -11  -4 8826.89 512.239   3
  -6 -11  -5 202.273 131.244   3
  -6 -11  -6 503.458 166.266   3
  -6 -11  -7 371.052 152.735   3
  -6 -11  -8 641.658 179.030   3
  -6 -11  -9 632.714 170.151   3
  -6 -11 -10 698.986 189.388   3
  -6 -12   5 65.9376 112.650   2
  -6 -12   4 3836.20 371.360   2
  -6 -12   3 470.292 173.841   2
  -6 -12   2 5522.75 387.070   3
  -6 -12   2 6871.77 473.876   2
  -6 -12   1 814.310 169.280   3
  -6 -12   0 1197.77 203.279   3
  -6 -12  -1 1282.42 210.884   3
  -6 -12  -2 1516.89 230.665   3
  -6 -12  -3 5546.80 416.491   3
  -6 -12  -4-20.7140 126.042   3
  -6 -12  -5 980.855 204.553   3
  -6 -12  -6 218.991 128.127   3
  -6 -12  -7 400.092 153.687   3
  -6 -13   1-141.289 110.807   3
  -6 -13   0 238.245 116.744   3
  -6 -13  -1-94.9561 128.149   3
  -6 -13  -2 1192.15 212.313   3
  -6 -13  -3 2280.26 282.721   3
  -6 -13  -4 233.566 123.875   3
   7  -6   9 1375.11 173.659   1
   7  -6  10-133.115 93.1928   1
   7  -6  11 484.504 122.347   1
   7  -6  12-202.920 115.802   1
   7  -5   5 482.742 92.8757   1
   7  -5   6 1137.54 139.608   1
   7  -5   7 575.046 113.978   1
   7  -5   8 329.477 99.5705   1
   7  -5   9 658.639 128.831   1
   7  -5  10 824.313 143.066   1
   7  -5  11 403.660 116.759   1
   7  -5  12 78.9344 85.0783   1
   7  -5  13-224.360 128.924   1
   7  -4   2 129.502 64.8934   1
   7  -4   3 3570.22 213.369   1
   7  -4   4 66.8296 57.1494   1
   7  -4   5 8302.75 337.476   1
   7  -4   6 567.894 112.166   1
   7  -4   7 3017.68 217.049   1
   7  -4   8 320.773 103.272   1
   7  -4   9 373.994 111.357   1
   7  -4  10 3292.21 259.597   1
   7  -4  11 1050.07 163.344   1
   7  -4  12 2413.73 242.053   1
   7  -4  13-120.862 103.340   1
   7  -4  14 41.5189 101.681   1
   7  -3  -1 402.564 89.2696   1
   7  -3   0 985.647 120.610   1
   7  -3   1 765.697 105.218   1
   7  -3   2 718.591 107.830   1
   7  -3   3 1117.56 128.444   1
   7  -3   4 4176.86 230.466   1
   7  -3   5 6760.78 297.163   1
   7  -3   6 4620.02 251.460   1
   7  -3   7 68.2916 70.9269   1
   7  -3   8 6332.37 315.080   1
   7  -3   9 1226.72 153.419   1
   7  -3  10 225.562 101.129   1
   7  -3  11 2423.94 229.227   1
   7  -3  12 1020.28 171.543   1
   7  -3  13 323.336 119.392   1
   7  -3  14 260.331 112.945   1
   7  -3  15-105.427 123.870   1
   7  -2  -1 2073.66 187.952   1
   7  -2   0 864.185 123.570   1
   7  -2   1 4127.40 236.549   1
   7  -2   2 60.1766 65.0651   1
   7  -2   3 5570.65 257.968   1
   7  -2   4 3375.74 207.180   1
   7  -2   5 2081.26 170.389   1
   7  -2   6 870.100 118.742   1
   7  -2   7 890.226 127.861   1
   7  -2   8 3091.17 219.530   1
   7  -2   9-125.751 100.018   1
   7  -2  10 1538.76 172.682   1
   7  -2  11 637.742 140.172   1
   7  -2  12 108.332 98.5448   1
   7  -2  13 945.623 170.825   1
   7  -2  14-55.9537 98.1611   1
   7  -2  15 849.439 181.212   1
  -7   1   9-48.0206 82.6816   2
  -7   1   8 40.1393 79.5033   2
  -7   1   7 8.09469 69.4826   2
  -7   1   6 438.135 108.072   2
  -7   1   5 654.501 114.155   2
  -7   1   4 1455.64 149.891   2
  -7   1   3 141.527 65.8072   2
  -7   1   2 2235.95 151.765   2
   7  -1   1 1952.15 174.391   1
   7  -1   2 7161.93 307.333   1
   7  -1   3 5387.90 259.131   1
   7  -1   4 1011.02 119.671   1
   7  -1   5 642.519 107.978   1
   7  -1   6 5261.30 267.067   1
   7  -1   7 4461.43 245.162   1
   7  -1   8 8602.39 351.778   1
   7  -1   9 10076.4 396.901   1
   7  -1  10 4009.77 266.422   1
  -7   1 -10 4405.68 241.601   3
   7  -1  11 934.723 154.990   1
   7  -1  12 101.384 101.858   1
   7  -1  13 27.9549 93.1261   1
   7  -1  14 561.863 147.593   1
   7  -1  15 333.859 134.892   1
  -7   0   9-22.0415 79.8222   2
  -7   0   8-31.1982 82.8951   2
  -7   0   7 346.610 113.517   2
  -7   0   6 82.4845 79.3499   2
  -7   0   5 2104.74 191.865   2
  -7   0   4 33.1106 72.5785   2
  -7   0   3 1065.89 123.410   2
  -7   0   2 292.535 72.3254   2
  -7   0   1 39.0450 46.7133   2
  -7   0   0 844.235 85.3134   2
  -7   0  -1 171.230 42.9959   2
   7   0   2 40994.6 810.312   1
   7   0   3 4641.54 252.517   1
   7   0   4 20109.9 507.776   1
   7   0   5 902.678 120.522   1
   7   0   6 2118.16 178.242   1
   7   0   7 1772.55 166.664   1
   7   0   8 1415.61 158.553   1
   7   0   9 8815.26 368.339   1
  -7   0  -9 8745.69 358.691   3
   7   0  10 15.8744 95.8328   1
  -7   0 -10 228.624 82.1011   3
   7   0  11 133.834 100.271   1
   7   0  12 699.107 154.644   1
   7   0  13 752.963 160.568   1
   7   0  14 129.766 107.495   1
   7   0  15-13.8595 109.131   1
   7   0  16 523.038 160.682   1
  -7  -1  10 223.271 121.356   2
  -7  -1   9-42.9471 89.7681   2
  -7  -1   8 110.725 96.2097   2
  -7  -1   7 40.8041 85.3930   2
  -7  -1   6 351.195 112.446   2
  -7  -1   5 751.226 131.281   2
  -7  -1   4 930.067 132.649   2
  -7  -1   3 6893.69 304.126   2
  -7  -1   2 60.7288 55.2415   2
  -7  -1   1 246.251 63.7672   2
  -7  -1   0 3610.38 181.592   2
  -7  -1  -1 4635.33 193.962   2
  -7  -1  -2 3939.49 171.224   2
   7   1   3 7718.96 342.099   1
   7   1   4 11378.5 394.168   1
   7   1   5 5617.63 270.377   1
   7   1   6 3274.78 214.222   1
   7   1   7 3340.99 223.883   1
   7   1   8 8375.93 350.275   1
  -7  -1  -8 8373.73 363.227   3
   7   1   9 10322.3 407.896   1
  -7  -1  -9 10816.6 416.133   3
   7   1  10 606.833 131.711   1
  -7  -1 -10 479.641 103.545   3
   7   1  11 3760.81 270.386   1
  -7  -1 -11 3788.90 250.843   3
   7   1  12 1789.58 211.109   1
   7   1  13 518.564 145.140   1
   7   1  14 321.964 134.878   1
   7   1  15 301.584 137.747   1
   7   1  16 342.109 137.652   1
  -7  -2  10 376.147 141.295   2
  -7  -2   9 223.509 119.389   2
  -7  -2   8 89.8974 105.338   2
  -7  -2   7 91.6752 88.2821   2
  -7  -2   6 66.5819 87.2145   2
  -7  -2   5 77.6670 85.8995   2
  -7  -2   4 5002.00 282.004   2
  -7  -2   3 733.550 115.742   2
  -7  -2   2 2818.88 193.995   2
  -7  -2   1 29.6064 54.1735   2
  -7  -2   0 2348.42 159.782   2
  -7  -2  -1 10109.0 317.127   2
  -7  -2  -2 1458.19 117.810   2
   7   2   3 25147.1 624.103   1
  -7  -2  -3 24643.1 496.182   2
   7   2   4 273.177 112.168   1
   7   2   5 10806.8 385.413   1
   7   2   6 2033.98 186.637   1
   7   2   7 17966.9 516.393   1
  -7  -2  -7 17555.1 547.255   3
   7   2   8 6882.76 324.651   1
  -7  -2  -8 6932.70 342.905   3
   7   2   9 40.6744 86.2533   1
  -7  -2  -9-25.6332 92.5832   3
   7   2  10 5495.08 309.736   1
  -7  -2 -10 5559.43 316.876   3
   7   2  11-27.6061 96.6506   1
  -7  -2 -11 44.8477 74.8671   3
   7   2  12 4522.85 314.968   1
   7   2  13 375.667 140.583   1
   7   2  14 3259.05 295.575   1
   7   2  15 128.833 123.057   1
   7   2  16-38.5223 108.432   1
  -7  -3  10 286.392 138.070   2
  -7  -3   9 88.1099 103.618   2
  -7  -3   8 47.1800 98.6304   2
  -7  -3   7-26.2087 95.7426   2
  -7  -3   6 48.6981 95.4438   2
  -7  -3   5 1071.34 156.016   2
  -7  -3   4 737.873 126.864   2
  -7  -3   3 302.258 91.3473   2
  -7  -3   2 2203.00 181.743   2
  -7  -3   1 4924.31 252.971   2
  -7  -3   0 17846.9 476.149   2
  -7  -3  -1 9861.91 336.646   2
  -7  -3  -2 5792.85 248.301   2
  -7  -3  -3 142.226 56.2833   2
   7   3   4-27.7158 120.989   1
   7   3   5 298.154 105.765   1
  -7  -3  -6 46726.1 962.468   3
   7   3   6 48819.2 893.973   1
  -7  -3  -7 21055.2 625.222   3
   7   3   7 21433.7 573.507   1
   7   3   8 12623.6 444.286   1
  -7  -3  -8 12064.4 480.215   3
   7   3   9 3360.82 235.941   1
  -7  -3  -9 3403.73 262.768   3
   7   3  10-96.3877 93.5072   1
  -7  -3 -10 35.8304 83.7129   3
   7   3  11 453.590 125.957   1
  -7  -3 -11 428.186 113.289   3
  -7  -3 -12-58.1723 75.5112   3
   7   3  12-133.094 122.016   1
   7   3  13 4503.20 317.904   1
   7   3  14 1421.97 205.188   1
   7   3  15 193.996 115.574   1
   7   3  16 53.9831 95.2019   1
  -7  -4  10-21.9404 97.4672   2
  -7  -4   9 349.687 136.881   2
  -7  -4   8 429.277 141.031   2
  -7  -4   7 308.448 127.446   2
  -7  -4   6 1848.64 210.091   2
  -7  -4   5 1947.32 203.251   2
  -7  -4   4 97.0880 90.1901   2
  -7  -4   3 827.940 134.087   2
  -7  -4   2 1019.40 135.252   2
  -7  -4   1 11847.9 411.178   2
  -7  -4   0 731.822 121.900   2
  -7  -4  -1 15103.3 439.997   2
  -7  -4  -2 7489.14 303.344   2
  -7  -4  -3 6510.42 281.899   2
   7   4   4-127.629 120.973   1
  -7  -4  -4 276.400 113.331   3
   7   4   5 479.924 112.519   1
  -7  -4  -5 409.695 117.846   3
  -7  -4  -6 6558.84 357.315   3
   7   4   6 6816.88 313.148   1
   7   4   7 549.996 123.701   1
  -7  -4  -7 236.011 110.401   3
  -7  -4  -8 10197.8 462.737   3
   7   4   8 10217.3 401.890   1
   7   4   9 335.670 109.127   1
  -7  -4  -9 262.788 106.991   3
   7   4  10 1986.58 198.951   1
  -7  -4 -10 1996.72 219.406   3
   7   4  11 171.601 103.050   1
  -7  -4 -11-6.86626 82.9270   3
   7   4  12 1442.55 183.096   1
  -7  -4 -12 1464.73 190.076   3
   7   4  13 2160.31 226.325   1
   7   4  14-135.310 114.129   1
   7   4  15 142.620 106.545   1
   7   4  16-40.5833 89.5801   1
  -7  -5  10 97.0634 115.028   2
  -7  -5   9 291.834 131.555   2
  -7  -5   8 75.5305 103.729   2
  -7  -5   7 1114.97 185.697   2
  -7  -5   6 2209.30 237.647   2
  -7  -5   5 657.908 148.700   2
  -7  -5   4 1896.67 204.531   2
  -7  -5   3 270.086 94.2072   2
  -7  -5   2 1107.94 150.433   2
  -7  -5   1 82.4716 88.8347   2
  -7  -5   0 17777.0 525.953   2
  -7  -5  -1 19080.8 611.994   3
  -7  -5  -1 19548.2 542.611   2
  -7  -5  -2 4068.69 291.218   3
  -7  -5  -2 4067.00 239.809   2
  -7  -5  -3 15696.7 559.049   3
  -7  -5  -3 15653.9 472.018   2
  -7  -5  -4 2506.25 241.113   3
   7   5   4 2644.44 230.164   1
  -7  -5  -5 18529.7 632.419   3
   7   5   5 19091.3 553.278   1
  -7  -5  -6 4745.71 321.880   3
   7   5   6 4662.39 266.315   1
  -7  -5  -7 10103.6 475.646   3
   7   5   7 10146.9 393.262   1
  -7  -5  -8 13563.9 557.782   3
   7   5   8 13534.4 465.338   1
   7   5   9 3602.87 246.647   1
  -7  -5  -9 3726.49 306.891   3
   7   5  10 157.098 89.1346   1
  -7  -5 -10 23.4973 88.3927   3
   7   5  11 4777.71 299.287   1
  -7  -5 -11 5568.72 365.052   3
  -7  -5 -12 1926.87 222.909   3
   7   5  12 1324.35 174.774   1
  -7  -5 -13 413.736 121.328   3
   7   5  13 624.099 142.326   1
   7   5  14 224.657 108.615   1
   7   5  15 267.256 105.578   1
   7   5  16 51.6183 77.5454   1
  -7  -6   9-105.274 115.037   2
  -7  -6   8 45.0518 112.682   2
  -7  -6   7 494.042 140.598   2
  -7  -6   6 85.7702 106.051   2
  -7  -6   6 113.958 81.3826   3
  -7  -6   5 1466.14 194.385   2
  -7  -6   5 1113.42 163.340   3
  -7  -6   4 387.361 124.340   2
  -7  -6   4 158.199 87.3284   3
  -7  -6   3 1055.11 161.988   2
  -7  -6   3 898.533 147.941   3
  -7  -6   2 122.466 98.7481   2
  -7  -6   2-66.5825 97.5503   3
  -7  -6   1 2959.50 250.568   3
  -7  -6   1 3174.64 237.504   2
  -7  -6   0 12689.4 509.291   3
  -7  -6   0 12741.3 455.781   2
  -7  -6  -1 1048.01 150.278   2
  -7  -6  -1 1359.72 191.787   3
  -7  -6  -2 15900.5 578.498   3
  -7  -6  -2 15376.4 498.577   2
  -7  -6  -3 2813.48 262.358   3
  -7  -6  -3 2713.54 215.380   2
  -7  -6  -4 37274.2 942.877   3
   7   6   4 39096.3 840.030   1
  -7  -6  -5 3228.33 283.436   3
   7   6   5 3209.19 234.709   1
  -7  -6  -6 11069.1 511.313   3
   7   6   6 11022.1 409.656   1
  -7  -6  -7 3737.09 312.273   3
   7   6   7 3737.31 243.287   1
  -7  -6  -8 1007.59 184.967   3
   7   6   8 1170.09 151.205   1
   7   6   9 627.922 118.221   1
  -7  -6  -9 457.116 135.107   3
   7   6  10 1742.93 180.259   1
  -7  -6 -10 1717.86 226.181   3
   7   6  11 4970.33 305.307   1
  -7  -6 -11 5372.50 375.854   3
  -7  -6 -12 150.956 104.573   3
   7   6  12 128.965 82.5091   1
  -7  -6 -13 857.431 164.913   3
   7   6  13 712.963 139.374   1
   7   6  14 372.910 115.793   1
   7   6  15-60.6103 80.5456   1
  -7  -7   9 50.8143 111.701   2
  -7  -7   8 176.488 125.036   2
  -7  -7   7 148.924 128.803   2
  -7  -7   6 156.012 120.474   2
  -7  -7   6 117.041 75.2052   3
  -7  -7   5 526.246 142.123   2
  -7  -7   5 711.912 139.750   3
  -7  -7   4 14.0707 107.816   2
  -7  -7   4 153.542 94.6988   3
  -7  -7   3 479.935 142.991   2
  -7  -7   3 318.808 108.999   3
  -7  -7   2 7455.04 402.711   3
  -7  -7   2 8839.61 424.741   2
  -7  -7   1 7491.06 409.733   3
  -7  -7   1 7807.32 389.078   2
  -7  -7   0 789.216 152.302   2
  -7  -7   0 925.291 165.533   3
  -7  -7  -1 3435.91 285.395   3
  -7  -7  -1 3468.86 251.184   2
  -7  -7  -2-66.8049 103.966   2
  -7  -7  -2 215.627 121.988   3
  -7  -7  -3 8665.51 457.435   3
  -7  -7  -4 1915.45 239.225   3
   7   7   4 1729.13 199.174   1
  -7  -7  -5 5927.06 390.597   3
   7   7   5 5826.49 312.879   1
  -7  -7  -6 21656.1 767.175   3
   7   7   6 20535.2 569.607   1
  -7  -7  -7 3444.41 311.129   3
   7   7   7 2873.45 214.299   1
   7   7   8 1649.68 168.807   1
  -7  -7  -8 1449.97 213.738   3
   7   7   9 140.351 84.8771   1
  -7  -7  -9 109.335 111.843   3
   7   7  10 3121.94 228.014   1
  -7  -7 -10 3205.20 305.249   3
   7   7  11 1511.96 169.139   1
  -7  -7 -11 1882.26 247.818   3
   7   7  12 1773.06 191.388   1
  -7  -7 -12 1683.32 239.750   3
  -7  -7 -13 929.922 177.741   3
   7   7  13 972.919 148.626   1
  -7  -7 -14 63.6140 84.2231   3
  -7  -8   8 108.437 110.369   2
  -7  -8   7 980.075 191.073   2
  -7  -8   6 284.602 129.723   2
  -7  -8   5-102.258 129.334   2
  -7  -8   5 157.713 90.4251   3
  -7  -8   4 629.848 157.880   2
  -7  -8   4 551.138 135.088   3
  -7  -8   3 138.496 123.437   2
  -7  -8   3 321.160 121.104   3
  -7  -8   2 8088.74 441.495   3
  -7  -8   2 8318.33 435.269   2
  -7  -8   1 437.074 139.960   2
  -7  -8   1 600.058 153.380   3
  -7  -8   0 1913.06 211.964   2
  -7  -8   0 2010.11 232.797   3
  -7  -8  -1-75.5264 115.660   2
  -7  -8  -1 233.607 123.385   3
  -7  -8  -2 381.055 126.074   2
  -7  -8  -2 357.764 131.899   3
  -7  -8  -3 2118.50 246.310   3
  -7  -8  -4 5215.88 386.921   3
   7   8   4 5289.49 312.299   1
  -7  -8  -5 29504.4 911.706   3
   7   8   5 31393.9 743.368   1
   7   8   6 47.3547 75.1954   1
  -7  -8  -6-77.7936 122.926   3
  -7  -8  -7 6310.68 422.608   3
   7   8   7 6157.45 309.318   1
  -7  -8  -8 156.595 136.118   3
   7   8   8 70.5514 68.7001   1
   7   8   9 2290.94 193.569   1
  -7  -8  -9 2364.74 280.043   3
   7   8  10 2776.08 210.440   1
  -7  -8 -10 3033.64 309.991   3
  -7  -8 -11 810.400 185.862   3
  -7  -8 -12 3166.95 314.703   3
  -7  -8 -13-81.2122 106.226   3
  -7  -8 -14 64.4165 93.8807   3
  -7  -9   7 85.2695 126.841   2
  -7  -9   6-118.768 130.567   2
  -7  -9   5 669.962 170.310   2
  -7  -9   5 171.302 85.8755   3
  -7  -9   4-48.2997 122.430   2
  -7  -9   4 24.0462 87.7443   3
  -7  -9   3 7026.03 423.004   3
  -7  -9   3 7674.51 444.468   2
  -7  -9   2 850.125 178.405   2
  -7  -9   2 885.771 166.026   3
  -7  -9   1 3040.76 289.931   3
  -7  -9   1 3645.68 304.390   2
  -7  -9   0 3022.41 290.725   3
  -7  -9   0 2904.95 270.565   2
  -7  -9  -1 809.819 162.358   2
  -7  -9  -1 1090.06 197.015   3
  -7  -9  -2 1752.36 221.138   2
  -7  -9  -2 2326.96 265.904   3
  -7  -9  -3 3071.70 304.925   3
  -7  -9  -4 9000.96 505.028   3
   7   9   4 9748.78 423.784   1
  -7  -9  -5 4083.02 348.027   3
   7   9   5 3934.32 257.822   1
   7   9   6 2128.03 184.928   1
  -7  -9  -6 2289.96 274.793   3
  -7  -9  -7 1010.76 201.507   3
   7   9   7 916.317 128.164   1
  -7  -9  -8 4998.15 396.599   3
   7   9   8 4400.73 250.137   1
  -7  -9  -9 659.982 168.350   3
  -7  -9 -10 2015.65 271.276   3
  -7  -9 -11 1761.05 249.412   3
  -7  -9 -12 398.404 147.920   3
  -7  -9 -13-107.475 103.564   3
  -7 -10   6 875.132 199.958   2
  -7 -10   5 98.2495 133.285   2
  -7 -10   4 2561.69 259.658   3
  -7 -10   4 2548.60 290.073   2
  -7 -10   3 18.4973 122.200   2
  -7 -10   3-70.8542 102.320   3
  -7 -10   2-22.0128 124.505   2
  -7 -10   2 18.1548 91.7934   3
  -7 -10   1 1277.15 211.799   2
  -7 -10   1 1247.88 202.681   3
  -7 -10   0 1199.66 198.794   2
  -7 -10   0 1245.80 206.535   3
  -7 -10  -1 682.829 167.791   2
  -7 -10  -1 804.976 174.578   3
  -7 -10  -2 1599.82 227.114   3
  -7 -10  -3 3581.35 338.689   3
   7  10   3 3755.51 277.133   1
  -7 -10  -4 1693.97 244.427   3
   7  10   4 1621.14 177.953   1
  -7 -10  -5 209.002 140.495   3
   7  10   5 268.147 87.8294   1
  -7 -10  -6 3492.24 339.484   3
  -7 -10  -7 436.457 168.913   3
  -7 -10  -8 943.917 204.594   3
  -7 -10  -9 656.325 191.426   3
  -7 -10 -10 1193.33 224.649   3
  -7 -10 -11 364.673 145.382   3
  -7 -11   5 520.890 166.667   2
  -7 -11   4 609.467 176.065   2
  -7 -11   3 269.998 143.803   2
  -7 -11   3 291.172 118.886   3
  -7 -11   2 4208.49 353.486   3
  -7 -11   2 4962.00 389.584   2
  -7 -11   1 2450.50 279.061   3
  -7 -11   1 2451.67 286.069   2
  -7 -11   0 4425.34 372.724   3
  -7 -11   0 5069.19 389.698   2
  -7 -11  -1 2601.13 297.106   3
  -7 -11  -2 4699.76 388.696   3
  -7 -11  -3 5206.59 409.491   3
  -7 -11  -4 288.659 138.734   3
  -7 -11  -5 2094.16 280.560   3
  -7 -11  -6-170.619 151.931   3
  -7 -11  -7 650.462 185.038   3
  -7 -11  -8-1.38275 127.485   3
  -7 -11  -9 2945.46 337.087   3
  -7 -12   3 763.620 190.988   2
  -7 -12   2-100.692 131.248   2
  -7 -12   2 82.9484 95.2373   3
  -7 -12   1 1648.17 250.362   2
  -7 -12   1 1460.41 222.476   3
  -7 -12   0 119.286 119.206   3
  -7 -12  -1 3957.73 363.861   3
  -7 -12  -2 4629.86 394.480   3
  -7 -12  -3 297.401 137.656   3
  -7 -12  -4 5077.91 420.588   3
  -7 -12  -5-42.8650 136.158   3
  -7 -12  -6 283.618 148.404   3
  -7 -12  -7 49.5447 124.959   3
  -7 -13   1-62.9356 100.348   3
  -7 -13   0 348.319 137.739   3
  -7 -13  -1 51.7663 100.293   3
  -7 -13  -2 157.025 126.527   3
  -7 -13  -3 971.991 200.248   3
   8  -5   8 214.757 92.9871   1
   8  -5   9 908.786 149.535   1
   8  -5  10 237.774 96.9491   1
   8  -5  11 598.862 137.501   1
   8  -5  12-92.8379 96.1884   1
   8  -4   4 5016.55 275.035   1
   8  -4   5-41.0040 66.4367   1
   8  -4   6 611.785 116.503   1
   8  -4   7-177.845 87.9908   1
   8  -4   8 436.315 103.501   1
   8  -4   9 794.776 141.550   1
   8  -4  10 1008.71 161.300   1
   8  -4  11 1648.21 205.295   1
   8  -4  12 147.339 97.8151   1
   8  -4  13 147.455 94.6733   1
   8  -3   1 109.197 70.7730   1
   8  -3   2 73.3149 64.5854   1
   8  -3   3 2073.42 182.780   1
   8  -3   4 584.298 109.378   1
   8  -3   5 1581.94 162.623   1
   8  -3   6 808.566 123.527   1
   8  -3   7 1542.51 169.634   1
   8  -3   8 52.2322 81.1752   1
   8  -3   9 536.603 114.966   1
   8  -3  10 320.351 112.528   1
   8  -3  11 167.370 104.811   1
   8  -3  12 1111.86 175.175   1
   8  -3  13-44.7660 92.9848   1
   8  -2  -2 3263.57 251.033   1
   8  -2  -1 161.480 94.1635   1
   8  -2   0 2094.69 193.954   1
   8  -2   1 104.297 76.4853   1
   8  -2   2 1794.35 172.260   1
   8  -2   3 1542.37 159.622   1
   8  -2   4 171.693 87.6917   1
   8  -2   5 3293.28 224.173   1
   8  -2   6 797.696 125.690   1
   8  -2   7 1486.18 165.632   1
   8  -2   8 1083.62 150.068   1
   8  -2   9 136.357 85.4218   1
   8  -2  10 741.178 131.412   1
   8  -2  11 276.086 118.701   1
   8  -2  12 784.431 150.899   1
   8  -2  13 276.960 120.060   1
   8  -2  14 422.066 139.766   1
   8  -1   0 29.6090 80.6546   1
   8  -1   1 6194.42 324.114   1
   8  -1   2 3057.17 223.991   1
   8  -1   3 3127.50 222.730   1
   8  -1   4 1406.15 151.401   1
   8  -1   5 601.035 118.579   1
   8  -1   6 706.800 121.011   1
   8  -1   7 981.708 143.891   1
   8  -1   8 6102.87 316.216   1
   8  -1   9 3235.24 244.300   1
   8  -1  10 797.015 141.217   1
  -8   1 -10 960.594 139.087   3
   8  -1  11 183.324 99.9722   1
   8  -1  12 328.135 122.143   1
   8  -1  13 607.730 148.415   1
   8  -1  14 97.8406 102.379   1
   8   0   1 2180.27 209.294   1
   8   0   2 1338.98 169.100   1
   8   0   3 3941.92 257.561   1
   8   0   4 325.517 100.078   1
   8   0   5 1771.40 168.152   1
   8   0   6 1429.94 163.040   1
   8   0   7 6730.50 325.751   1
   8   0   8 10514.8 411.710   1
   8   0   9 1233.34 168.333   1
   8   0  10 2663.82 227.250   1
  -8   0 -10 2699.51 216.540   3
   8   0  11 353.663 118.933   1
   8   0  12 143.812 100.656   1
   8   0  13 282.723 134.958   1
   8   0  14 184.210 119.882   1
   8   0  15 726.318 173.010   1
  -8  -1   8 135.748 99.1444   2
  -8  -1   7 87.0545 86.8564   2
  -8  -1   6 184.370 96.0360   2
  -8  -1   5 296.476 98.7299   2
  -8  -1   4 275.581 88.7225   2
  -8  -1   3 290.314 84.5556   2
  -8  -1   2 62.1413 62.1330   2
  -8  -1   1 47.1894 50.0477   2
   8   1   2 8188.43 379.565   1
   8   1   3 1437.06 172.998   1
   8   1   4 2364.79 202.648   1
   8   1   5 1009.35 147.376   1
   8   1   6 5583.96 299.479   1
   8   1   7 2367.51 209.504   1
   8   1   8 236.741 107.947   1
   8   1   9 5160.72 299.166   1
  -8  -1  -9 5123.48 303.872   3
   8   1  10 1046.69 155.029   1
  -8  -1 -10 956.327 144.953   3
   8   1  11 1319.59 180.159   1
  -8  -1 -11 1226.50 160.234   3
   8   1  12-12.2841 103.338   1
   8   1  13 1314.50 199.953   1
   8   1  14 1098.04 191.169   1
   8   1  15 291.770 130.453   1
  -8  -2   8 306.421 129.070   2
  -8  -2   7 230.993 107.538   2
  -8  -2   6 652.529 140.765   2
  -8  -2   5 1532.23 185.541   2
  -8  -2   4 38.9082 83.9354   2
  -8  -2   3 313.556 91.3922   2
  -8  -2   2 44.9058 61.1905   2
  -8  -2   1 2324.78 177.578   2
  -8  -2   0 180.054 68.0282   2
  -8  -2  -1 2985.20 180.353   2
  -8  -2  -2 8321.95 291.274   2
  -8  -2  -3 1410.69 122.005   2
   8   2   3 1298.04 180.568   1
   8   2   4 8887.29 385.954   1
   8   2   5 3919.17 257.839   1
   8   2   6 12167.7 438.371   1
   8   2   7 1150.82 163.787   1
   8   2   8 3338.77 248.889   1
  -8  -2  -8 3078.49 247.259   3
   8   2   9 3372.59 246.277   1
  -8  -2  -9 3512.41 264.664   3
   8   2  10 152.069 111.644   1
  -8  -2 -10-23.2885 81.4383   3
   8   2  11 2722.61 242.855   1
  -8  -2 -11 2315.86 220.402   3
   8   2  12 1886.95 218.067   1
   8   2  13 3326.40 289.762   1
   8   2  14 161.080 122.978   1
   8   2  15 275.390 130.137   1
  -8  -3   8 41.2261 96.1380   2
  -8  -3   7 416.244 126.030   2
  -8  -3   6 103.975 94.8931   2
  -8  -3   5-73.3642 87.6050   2
  -8  -3   4-55.8313 82.3069   2
  -8  -3   3 650.854 122.310   2
  -8  -3   2 948.789 133.456   2
  -8  -3   1 6.81977 62.3596   2
  -8  -3   0 5259.46 264.295   2
  -8  -3  -1 4699.64 240.151   2
  -8  -3  -2 580.247 97.8010   2
   8   3   3 6366.62 346.391   1
  -8  -3  -3 6168.91 269.725   2
   8   3   4 558.397 138.777   1
   8   3   5 7659.48 365.549   1
   8   3   6 778.029 140.097   1
  -8  -3  -6 813.726 162.818   3
  -8  -3  -7 5968.77 347.243   3
   8   3   7 5833.76 317.256   1
   8   3   8 1650.05 191.811   1
  -8  -3  -8 1724.68 203.782   3
   8   3   9 1162.40 166.079   1
  -8  -3  -9 834.601 150.171   3
   8   3  10 840.737 153.948   1
  -8  -3 -10 703.377 142.654   3
   8   3  11 1737.45 202.712   1
  -8  -3 -11 1527.03 204.514   3
   8   3  12 5178.57 342.008   1
  -8  -3 -12 4623.11 322.439   3
   8   3  13 408.145 139.031   1
   8   3  14 1288.20 209.902   1
   8   3  15 119.416 114.992   1
  -8  -4   8-51.6163 96.2319   2
  -8  -4   7 212.037 113.764   2
  -8  -4   6 289.772 124.392   2
  -8  -4   5 714.070 149.941   2
  -8  -4   4 1741.34 199.299   2
  -8  -4   3 82.2997 90.5738   2
  -8  -4   2 2255.77 208.073   2
  -8  -4   1 1370.03 162.675   2
  -8  -4   0 10138.9 388.642   2
  -8  -4  -1 236.228 87.2572   2
  -8  -4  -2 4244.12 241.844   2
  -8  -4  -3 244.940 76.0947   2
   8   4   4 414.227 124.959   1
  -8  -4  -4 462.522 139.701   3
  -8  -4  -5 5798.58 352.746   3
   8   4   5 6188.38 335.117   1
   8   4   6 125.328 109.700   1
  -8  -4  -6 302.151 133.202   3
  -8  -4  -7 14451.2 570.909   3
   8   4   7 15057.6 502.567   1
  -8  -4  -8 182.073 108.897   3
   8   4   8 120.740 109.398   1
   8   4   9 431.963 133.724   1
  -8  -4  -9 203.097 101.750   3
   8   4  10 1716.33 195.859   1
  -8  -4 -10 1622.38 211.459   3
   8   4  11 387.651 122.680   1
  -8  -4 -11 348.832 121.789   3
   8   4  12 770.472 156.800   1
  -8  -4 -12 894.973 161.113   3
   8   4  13 656.040 152.228   1
   8   4  14 1364.52 201.610   1
   8   4  15 194.568 117.518   1
  -8  -5   8 284.467 137.405   2
  -8  -5   7 97.0547 110.738   2
  -8  -5   6 1279.57 198.477   2
  -8  -5   5 172.742 110.636   2
  -8  -5   4 581.740 138.944   2
  -8  -5   3 581.712 134.798   2
  -8  -5   2 859.574 151.852   2
  -8  -5   1 6914.18 346.228   2
  -8  -5   0 1350.92 166.671   2
  -8  -5  -1 3425.53 236.342   2
  -8  -5  -2 413.809 100.374   2
  -8  -5  -2 719.619 157.474   3
  -8  -5  -3 3635.08 294.047   3
  -8  -5  -3 3665.78 241.514   2
   8   5   4 1294.03 189.804   1
  -8  -5  -4 1909.15 226.494   3
  -8  -5  -5 2912.33 271.241   3
   8   5   5 2981.00 245.948   1
  -8  -5  -6 29683.6 858.389   3
   8   5   6 31416.1 759.676   1
  -8  -5  -7 5983.58 387.287   3
   8   5   7 6000.38 326.746   1
  -8  -5  -8 5853.03 385.902   3
   8   5   8 6286.21 337.139   1
   8   5   9 1056.66 161.541   1
  -8  -5  -9 883.996 181.346   3
   8   5  10 3386.06 260.553   1
  -8  -5 -10 3177.98 302.813   3
   8   5  11 841.350 149.634   1
  -8  -5 -11 921.595 181.446   3
   8   5  12 619.721 142.497   1
  -8  -5 -12 574.698 152.751   3
  -8  -5 -13 940.244 169.341   3
   8   5  13 1243.12 181.714   1
   8   5  14 266.466 117.795   1
   8   5  15 219.178 111.813   1
  -8  -6   8-34.6810 113.846   2
  -8  -6   7-23.8542 108.239   2
  -8  -6   6 319.357 131.522   2
  -8  -6   6 192.901 91.8029   3
  -8  -6   5 104.512 107.886   2
  -8  -6   5-40.0200 88.6079   3
  -8  -6   4 331.841 125.288   2
  -8  -6   4 213.686 101.317   3
  -8  -6   3 1224.68 180.033   2
  -8  -6   3 1133.35 177.010   3
  -8  -6   2 1585.88 205.998   3
  -8  -6   2 2366.54 229.005   2
  -8  -6   1 140.570 99.5244   2
  -8  -6   1 24.7961 84.9087   3
  -8  -6   0 702.275 134.812   2
  -8  -6   0 444.452 139.196   3
  -8  -6  -1 5028.10 343.559   3
  -8  -6  -1 5552.80 314.187   2
  -8  -6  -2 318.778 103.635   2
  -8  -6  -2 389.828 134.687   3
  -8  -6  -3 3425.12 295.932   3
  -8  -6  -3 3602.17 250.960   2
  -8  -6  -4 2237.56 253.184   3
   8   6   4 2385.01 235.998   1
  -8  -6  -5 15762.6 633.261   3
   8   6   5 16609.5 568.336   1
   8   6   6 1948.17 205.970   1
  -8  -6  -6 1767.50 236.117   3
  -8  -6  -7 2944.94 287.545   3
   8   6   7 3194.09 248.097   1
  -8  -6  -8 512.262 157.475   3
   8   6   8 397.322 119.623   1
   8   6   9 2573.92 228.945   1
  -8  -6  -9 2675.76 296.530   3
   8   6  10 1040.86 166.646   1
  -8  -6 -10 855.026 178.605   3
   8   6  11 1076.04 162.618   1
  -8  -6 -11 916.810 187.443   3
   8   6  12 695.398 145.626   1
  -8  -6 -12 747.011 164.845   3
  -8  -6 -13 106.123 102.394   3
   8   6  13 349.304 115.266   1
   8   6  14 70.1540 90.5060   1
   8   6  15 20.1025 73.2215   1
  -8  -7   7 118.063 107.272   2
  -8  -7   6 101.472 106.815   2
  -8  -7   6 12.0811 67.5552   3
  -8  -7   5 99.0489 107.713   2
  -8  -7   5 183.924 103.520   3
  -8  -7   4-68.1672 109.638   2
  -8  -7   4 16.0095 79.9511   3
  -8  -7   3 1000.87 176.705   2
  -8  -7   3 892.054 166.117   3
  -8  -7   2 579.013 137.823   2
  -8  -7   2 373.481 126.297   3
  -8  -7   1 150.462 104.815   2
  -8  -7   1 125.343 104.938   3
  -8  -7   0 2274.46 249.813   3
  -8  -7   0 1963.52 213.110   2
  -8  -7  -1-9.37753 92.0254   2
  -8  -7  -1 38.0141 98.8914   3
  -8  -7  -2 3124.77 292.603   3
  -8  -7  -2 3063.40 249.358   2
  -8  -7  -3 1785.82 240.269   3
  -8  -7  -3 1920.21 207.435   2
  -8  -7  -4 20625.7 759.345   3
   8   7   4 22143.2 679.513   1
   8   7   5 635.644 142.595   1
  -8  -7  -5 374.222 150.619   3
  -8  -7  -6 1442.28 221.076   3
   8   7   6 1583.35 192.836   1
   8   7   7 225.369 96.6307   1
  -8  -7  -7 197.628 129.060   3
  -8  -7  -8 492.394 158.540   3
   8   7   8 454.729 124.670   1
   8   7   9 3288.75 252.667   1
  -8  -7  -9 3410.98 329.404   3
   8   7  10 394.292 122.498   1
  -8  -7 -10 196.030 130.640   3
   8   7  11 5105.61 314.140   1
  -8  -7 -11 5211.30 405.846   3
   8   7  12 1196.13 170.624   1
  -8  -7 -12 1315.29 219.079   3
  -8  -7 -13 25.8168 98.2405   3
   8   7  13 204.234 92.1435   1
  -8  -8   7 60.6636 115.640   2
  -8  -8   6 113.906 122.260   2
  -8  -8   5 65.3187 111.148   2
  -8  -8   5 121.430 89.5749   3
  -8  -8   4 1078.47 192.745   2
  -8  -8   4 840.633 167.950   3
  -8  -8   3 953.929 183.851   2
  -8  -8   3 919.887 176.069   3
  -8  -8   2 249.152 132.015   2
  -8  -8   2 34.3757 95.0925   3
  -8  -8   1 3533.62 317.771   3
  -8  -8   1 3405.68 293.288   2
  -8  -8   0 1634.72 206.361   2
  -8  -8   0 1695.53 232.937   3
  -8  -8  -1 91.4754 104.802   2
  -8  -8  -1 213.303 134.530   3
  -8  -8  -2-4.61964 96.1318   2
  -8  -8  -2 109.684 110.703   3
  -8  -8  -3 2293.93 270.091   3
  -8  -8  -4 5233.65 397.128   3
   8   8   4 6115.02 366.788   1
   8   8   5 347.588 123.293   1
  -8  -8  -5 248.056 147.476   3
  -8  -8  -6 4054.83 367.647   3
   8   8   6 4061.95 276.713   1
   8   8   7 56.5469 84.6229   1
  -8  -8  -7 112.334 136.812   3
   8   8   8 2449.16 219.170   1
  -8  -8  -8 2045.91 276.169   3
   8   8   9 149.998 89.0855   1
  -8  -8  -9 285.595 142.031   3
   8   8  10 4769.85 294.692   1
  -8  -8 -10 5130.70 414.767   3
   8   8  11 2497.43 225.373   1
  -8  -8 -11 3199.26 333.326   3
  -8  -8 -12-72.2460 127.143   3
  -8  -8 -13 452.552 147.158   3
  -8  -9   6 240.737 136.367   2
  -8  -9   5 317.906 142.932   2
  -8  -9   4-148.142 127.843   2
  -8  -9   4 217.511 108.384   3
  -8  -9   3 30.6156 109.141   2
  -8  -9   3 54.5695 86.4813   3
  -8  -9   2 3856.28 337.427   3
  -8  -9   2 4018.78 326.531   2
  -8  -9   1 1607.77 223.130   2
  -8  -9   1 1275.96 209.185   3
  -8  -9   0 4341.59 365.712   3
  -8  -9   0 4373.77 329.471   2
  -8  -9  -1 1.86050 110.722   2
  -8  -9  -1-96.2235 129.539   3
  -8  -9  -2 2101.75 269.186   3
  -8  -9  -2 2384.09 250.371   2
  -8  -9  -3 3508.84 348.456   3
   8   9   4-6.69807 102.538   1
  -8  -9  -4-1.59264 129.575   3
  -8  -9  -5 7570.60 499.141   3
   8   9   5 7072.98 380.545   1
   8   9   6 341.884 105.536   1
  -8  -9  -6 449.649 167.942   3
   8   9   7 1868.97 193.775   1
  -8  -9  -7 1917.21 273.428   3
  -8  -9  -8 294.291 160.376   3
   8   9   8 44.2251 71.5116   1
   8   9   9 2443.32 208.963   1
  -8  -9  -9 2454.81 305.391   3
  -8  -9 -10 1578.56 255.668   3
  -8  -9 -11-39.5648 131.219   3
  -8  -9 -12 137.503 125.947   3
  -8 -10   5 74.2094 107.198   2
  -8 -10   4 348.288 157.684   2
  -8 -10   4-67.5816 103.629   3
  -8 -10   3 1566.11 231.141   2
  -8 -10   3 1275.67 208.647   3
  -8 -10   2 1344.19 218.429   2
  -8 -10   2 956.535 190.235   3
  -8 -10   1 1124.04 203.123   2
  -8 -10   1 687.413 174.273   3
  -8 -10   0 243.224 139.577   2
  -8 -10   0-65.3676 119.085   3
  -8 -10  -1 53.7741 122.575   2
  -8 -10  -1 180.844 137.180   3
  -8 -10  -2 991.082 201.245   3
  -8 -10  -3 185.210 140.207   3
   8  10   3 347.077 130.669   1
  -8 -10  -4 676.469 175.916   3
   8  10   4 745.446 149.375   1
  -8 -10  -5 1016.21 212.561   3
   8  10   5 1114.96 163.498   1
   8  10   6-95.9901 83.1851   1
  -8 -10  -6 124.658 149.234   3
  -8 -10  -7 435.537 172.473   3
  -8 -10  -8 2336.75 301.685   3
  -8 -10  -9 2851.67 336.973   3
  -8 -10 -10-113.322 150.526   3
  -8 -11   3 55.7976 111.316   2
  -8 -11   3 158.150 108.229   3
  -8 -11   2 60.4628 112.521   2
  -8 -11   2 16.7536 91.9270   3
  -8 -11   1 209.560 141.818   2
  -8 -11   1 240.949 133.175   3
  -8 -11   0 226.144 145.901   2
  -8 -11   0 96.7269 119.534   3
  -8 -11  -1 5340.91 428.198   3
  -8 -11  -2 1801.89 267.771   3
  -8 -11  -3 7775.68 522.906   3
   8  11   3 7371.08 418.240   1
  -8 -11  -4 5442.13 446.695   3
  -8 -11  -5 82.1387 119.991   3
  -8 -11  -6 1703.89 273.951   3
  -8 -11  -7 401.988 172.906   3
  -8 -11  -8 2839.09 338.631   3
  -8 -12   2 109.666 108.469   3
  -8 -12   1-91.1386 131.471   2
  -8 -12   1-39.9976 104.889   3
  -8 -12   0 393.722 152.833   3
  -8 -12  -1 1.02544 100.203   3
  -8 -12  -2 3091.32 340.504   3
  -8 -12  -3 1576.14 258.266   3
  -8 -12  -4 1089.72 228.618   3
  -8 -12  -5 887.128 218.608   3
   9  -4   7 170.091 86.9350   1
   9  -4   8-15.2238 64.3294   1
   9  -4   9 704.874 135.943   1
   9  -4  10 653.074 138.926   1
   9  -4  11 404.791 122.490   1
   9  -3   4 1347.00 163.823   1
   9  -3   5 16.0090 71.3036   1
   9  -3   6 300.642 102.916   1
   9  -3   7 140.181 85.7676   1
   9  -3   8 198.678 92.2950   1
   9  -3   9 390.651 108.885   1
   9  -3  10 169.821 100.780   1
   9  -3  11 668.044 141.114   1
   9  -3  12 202.525 107.749   1
   9  -2   1 1351.99 165.773   1
   9  -2   2 116.307 89.3746   1
   9  -2   3 1635.67 179.455   1
   9  -2   4 1649.06 186.683   1
   9  -2   5 333.246 104.193   1
   9  -2   6 621.692 126.892   1
   9  -2   7 1021.84 151.599   1
   9  -2   8 638.531 128.572   1
   9  -2   9 89.1911 84.0646   1
   9  -2  10-68.4568 100.067   1
   9  -2  11 463.364 124.402   1
   9  -2  12 157.237 105.930   1
   9  -2  13 197.057 112.781   1
   9  -1  -2 223.173 103.802   1
   9  -1  -1-6.96985 93.8646   1
   9  -1   0 1590.24 196.202   1
   9  -1   1 102.635 98.3166   1
   9  -1   2 1030.09 156.932   1
   9  -1   3 403.834 111.929   1
   9  -1   4-17.3865 80.5189   1
   9  -1   5 1395.70 173.698   1
   9  -1   6 704.167 139.440   1
   9  -1   7 3244.78 244.126   1
   9  -1   8 149.477 98.7823   1
   9  -1   9 661.777 132.693   1
   9  -1  10 416.963 122.989   1
   9  -1  11-43.4557 102.564   1
   9  -1  12 874.726 162.047   1
   9  -1  13 302.591 123.903   1
   9   0   0 149.185 109.829   1
   9   0   1 2288.61 229.938   1
   9   0   2 2007.87 211.899   1
   9   0   3 202.809 102.857   1
   9   0   4 84.0684 89.8936   1
   9   0   5 241.647 102.543   1
   9   0   6 543.641 130.923   1
   9   0   7 1368.87 179.153   1
   9   0   8 3358.83 250.454   1
   9   0   9 3335.39 259.112   1
   9   0  10 892.721 156.630   1
  -9   0 -10 936.396 148.310   3
   9   0  11 180.347 108.029   1
   9   0  12 156.191 102.486   1
   9   0  13 925.536 172.343   1
   9   0  14-6.19301 91.9300   1
   9   1   1 1875.98 217.290   1
   9   1   2 256.804 115.637   1
   9   1   3 2506.57 232.143   1
   9   1   4-10.3093 95.2895   1
   9   1   5 1390.00 177.098   1
   9   1   6 132.047 99.6888   1
   9   1   7 918.676 158.552   1
   9   1   8 1999.57 208.049   1
   9   1   9 127.490 110.278   1
  -9  -1  -9 189.878 102.391   3
   9   1  10 732.059 152.080   1
  -9  -1 -10 714.420 136.376   3
   9   1  11 490.456 133.670   1
   9   1  12 718.510 155.048   1
   9   1  13 163.770 106.327   1
   9   1  14 191.564 118.938   1
   9   2   2 1389.75 197.915   1
   9   2   3 515.952 145.387   1
   9   2   4 1886.71 210.449   1
   9   2   5 1019.70 160.579   1
   9   2   6 398.563 131.116   1
   9   2   7 4542.05 295.239   1
   9   2   8 1668.36 198.719   1
  -9  -2  -8 1547.50 199.807   3
   9   2   9 883.797 155.558   1
  -9  -2  -9 856.800 158.392   3
   9   2  10 148.496 112.635   1
  -9  -2 -10-10.9509 91.7213   3
   9   2  11 2711.54 252.923   1
  -9  -2 -11 2314.74 235.997   3
   9   2  12 690.577 159.908   1
   9   2  13 277.271 118.418   1
   9   2  14 917.179 184.445   1
  -9  -3   7 90.9048 99.4516   2
  -9  -3   6 151.852 101.856   2
  -9  -3   5-43.0076 88.4276   2
  -9  -3   4-80.2565 86.0554   2
  -9  -3   3 6.53087 71.6943   2
  -9  -3   2 20.1025 71.3480   2
  -9  -3   1 695.527 115.346   2
  -9  -3   0 784.767 115.566   2
  -9  -3  -1 199.147 71.3700   2
   9   3   3-43.2013 135.597   1
   9   3   4 2747.94 251.272   1
   9   3   5 566.886 152.820   1
   9   3   6 13382.7 508.623   1
   9   3   7 114.620 109.677   1
  -9  -3  -7 190.730 123.974   3
  -9  -3  -8 9.83620 92.2118   3
   9   3   8 161.390 115.794   1
   9   3   9 229.910 120.590   1
  -9  -3  -9 205.223 116.797   3
   9   3  10-6.70493 117.473   1
  -9  -3 -10-54.8020 98.7653   3
   9   3  11 779.184 162.471   1
  -9  -3 -11 930.578 171.840   3
   9   3  12 848.161 166.446   1
  -9  -3 -12 806.275 160.395   3
   9   3  13 2109.25 246.371   1
   9   3  14 358.128 130.471   1
  -9  -4   7 16.2273 85.3101   2
  -9  -4   6 74.9330 94.9505   2
  -9  -4   5-49.7795 98.0754   2
  -9  -4   4-120.025 98.0899   2
  -9  -4   3 530.319 128.494   2
  -9  -4   2 1264.28 169.318   2
  -9  -4   1 3386.38 249.486   2
  -9  -4   0 593.093 117.113   2
  -9  -4  -1 3040.61 217.338   2
  -9  -4  -2 241.412 79.5682   2
  -9  -4  -3 756.928 113.845   2
   9   4   3 642.601 160.207   1
   9   4   4-150.368 135.167   1
  -9  -4  -5 8721.03 458.033   3
   9   4   5 9234.25 438.058   1
  -9  -4  -6 2430.71 264.233   3
   9   4   6 2585.86 238.195   1
   9   4   7 420.621 133.991   1
  -9  -4  -7 517.998 146.105   3
   9   4   8 1194.86 182.564   1
  -9  -4  -8 1243.98 196.475   3
   9   4   9 485.638 139.855   1
  -9  -4  -9 119.418 107.845   3
   9   4  10 446.548 135.396   1
  -9  -4 -10 197.438 112.663   3
   9   4  11-114.887 113.859   1
  -9  -4 -11 143.475 117.443   3
   9   4  12 332.398 127.714   1
  -9  -4 -12 351.034 127.486   3
   9   4  13 257.065 114.991   1
   9   4  14 168.879 120.218   1
  -9  -5   7 26.7945 98.3565   2
  -9  -5   6 60.8539 100.358   2
  -9  -5   5 39.3391 96.7508   2
  -9  -5   4 4.39071 95.9720   2
  -9  -5   3 1222.37 178.524   2
  -9  -5   2 371.335 120.338   2
  -9  -5   1 848.552 152.263   2
  -9  -5   0 4181.57 274.870   2
  -9  -5  -1 11.5963 80.7249   2
  -9  -5  -2 1950.92 237.684   3
  -9  -5  -2 1528.70 168.277   2
  -9  -5  -3 142.690 75.5687   2
  -9  -5  -3 251.095 141.487   3
   9   5   4 1936.68 239.221   1
  -9  -5  -4 2241.03 251.321   3
  -9  -5  -5 3398.23 313.948   3
   9   5   5 3838.20 303.366   1
  -9  -5  -6-6.71712 119.714   3
   9   5   6 27.9831 110.759   1
  -9  -5  -7 5710.72 397.668   3
   9   5   7 6361.22 360.690   1
   9   5   8 88.2004 120.420   1
  -9  -5  -8-202.009 139.725   3
   9   5   9 5530.73 343.980   1
  -9  -5  -9 4967.41 381.219   3
   9   5  10 14.4105 114.258   1
  -9  -5 -10-114.289 120.611   3
   9   5  11 2463.41 243.517   1
  -9  -5 -11 2022.84 256.664   3
   9   5  12 2589.69 254.621   1
  -9  -5 -12 2556.53 276.136   3
   9   5  13-69.0884 123.951   1
   9   5  14 704.807 156.614   1
  -9  -6   6 38.2693 95.3373   2
  -9  -6   6-97.5968 89.0335   3
  -9  -6   5-23.3643 99.6779   2
  -9  -6   5-47.8670 84.2380   3
  -9  -6   4 209.514 120.789   2
  -9  -6   4-22.0260 99.4663   3
  -9  -6   3 127.588 108.629   2
  -9  -6   3 82.9003 101.155   3
  -9  -6   2 18.3379 87.7167   2
  -9  -6   2 58.0823 96.0431   3
  -9  -6   1 1174.60 173.843   2
  -9  -6   1 1101.46 191.447   3
  -9  -6   0 468.433 116.932   2
  -9  -6   0 510.253 157.296   3
  -9  -6  -1 520.796 117.308   2
  -9  -6  -1 482.276 155.602   3
  -9  -6  -2-16.7585 83.5556   2
  -9  -6  -2 74.2070 110.333   3
  -9  -6  -3 3692.90 321.136   3
  -9  -6  -3 3527.67 261.065   2
  -9  -6  -4 2921.45 292.414   3
   9   6   4 3205.36 300.771   1
   9   6   5-178.670 148.604   1
  -9  -6  -5-30.4490 123.998   3
  -9  -6  -6 2451.16 278.397   3
   9   6   6 3141.44 270.078   1
   9   6   7 1681.82 206.068   1
  -9  -6  -7 1481.28 231.572   3
   9   6   8 2859.67 258.191   1
  -9  -6  -8 2122.39 266.269   3
  -9  -6  -9 23.0292 122.486   3
   9   6   9 123.210 115.977   1
   9   6  10 5497.93 345.592   1
  -9  -6 -10 6011.19 444.671   3
   9   6  11 894.297 161.603   1
  -9  -6 -11 921.413 192.927   3
   9   6  12 73.3134 107.394   1
  -9  -6 -12-44.2115 105.979   3
   9   6  13-94.9111 109.175   1
  -9  -6 -13-129.892 107.891   3
   9   6  14 193.286 104.192   1
  -9  -7   6-115.001 112.957   2
  -9  -7   5 31.8949 102.487   2
  -9  -7   5 50.6258 84.3130   3
  -9  -7   4 68.4193 97.8614   2
  -9  -7   4 82.2478 91.6856   3
  -9  -7   3-65.2091 102.593   2
  -9  -7   3-71.1859 91.1869   3
  -9  -7   2 1000.68 176.420   2
  -9  -7   2 714.405 159.638   3
  -9  -7   1 703.050 147.930   2
  -9  -7   1 652.414 152.335   3
  -9  -7   0 255.285 115.135   2
  -9  -7   0 203.675 128.507   3
  -9  -7  -1 531.163 138.699   2
  -9  -7  -1 255.502 134.026   3
  -9  -7  -2 2.59638 91.5986   2
  -9  -7  -2-145.560 123.391   3
  -9  -7  -3 4180.85 358.878   3
  -9  -7  -4 156.440 132.546   3
   9   7   4 188.828 139.796   1
  -9  -7  -5 4058.37 362.736   3
   9   7   5 4695.68 337.528   1
  -9  -7  -6-180.471 168.536   3
   9   7   6-17.7371 100.583   1
   9   7   7 649.846 144.594   1
  -9  -7  -7 235.354 135.217   3
   9   7   8 12.3206 98.5265   1
  -9  -7  -8 10.5097 126.718   3
   9   7   9 2019.84 220.954   1
  -9  -7  -9 1732.43 263.353   3
   9   7  10 2518.37 238.860   1
  -9  -7 -10 2754.18 312.818   3
   9   7  11 185.517 103.797   1
  -9  -7 -11 76.2099 119.057   3
   9   7  12 423.218 127.548   1
  -9  -7 -12 431.997 140.811   3
  -9  -7 -13 102.217 117.330   3
   9   7  13-4.46137 83.2538   1
  -9  -8   5 39.5726 110.215   2
  -9  -8   5 7.32792 76.4252   3
  -9  -8   4 241.197 132.581   2
  -9  -8   4 150.375 103.120   3
  -9  -8   3 461.841 147.153   2
  -9  -8   3 351.690 138.333   3
  -9  -8   2 1159.23 191.569   2
  -9  -8   2 1001.48 196.335   3
  -9  -8   1 337.440 128.722   2
  -9  -8   1 208.522 129.742   3
  -9  -8   0 448.502 136.923   2
  -9  -8   0 295.178 123.198   3
  -9  -8  -1-40.4457 104.100   2
  -9  -8  -1-108.499 128.791   3
  -9  -8  -2 2208.14 276.969   3
  -9  -8  -2 2258.34 235.964   2
  -9  -8  -3 1571.66 252.201   3
  -9  -8  -4 2460.55 296.728   3
   9   8   4 2699.48 279.719   1
   9   8   5 2709.32 264.282   1
  -9  -8  -5 1971.77 273.437   3
  -9  -8  -6-39.9005 147.332   3
   9   8   6-113.970 108.331   1
   9   8   7 14.4170 97.7381   1
  -9  -8  -7 1.41295 149.208   3
   9   8   8 46.2499 101.735   1
  -9  -8  -8 29.0887 135.178   3
   9   8   9 2565.52 242.272   1
  -9  -8  -9 2021.12 282.738   3
   9   8  10 633.074 140.219   1
  -9  -8 -10 735.188 196.318   3
   9   8  11 1445.42 188.685   1
  -9  -8 -11 1959.32 277.157   3
   9   8  12 95.2369 79.7082   1
  -9  -8 -12 115.698 109.775   3
  -9  -8 -13 110.765 118.983   3
  -9  -9   4 109.587 127.125   2
  -9  -9   4 127.751 108.901   3
  -9  -9   3 922.819 193.336   2
  -9  -9   3 874.954 185.719   3
  -9  -9   2-135.757 127.755   2
  -9  -9   2-0.62935 96.2430   3
  -9  -9   1 203.293 126.149   2
  -9  -9   1 84.0228 102.541   3
  -9  -9   0 200.640 129.576   2
  -9  -9   0-19.0842 102.421   3
  -9  -9  -1 1621.23 220.199   2
  -9  -9  -1 1545.46 244.449   3
  -9  -9  -2 769.901 170.211   2
  -9  -9  -2 650.364 185.416   3
  -9  -9  -3 3320.43 349.844   3
  -9  -9  -4 4057.13 393.399   3
   9   9   4 3812.47 327.333   1
   9   9   5-24.6513 105.383   1
  -9  -9  -5-218.947 176.527   3
  -9  -9  -6 872.459 210.877   3
   9   9   6 841.855 159.426   1
   9   9   7 543.880 136.098   1
  -9  -9  -7 484.290 180.586   3
  -9  -9  -8 2661.87 324.226   3
   9   9   8 2640.60 246.243   1
   9   9   9 115.894 90.4553   1
  -9  -9  -9 247.460 154.178   3
   9   9  10 373.226 110.366   1
  -9  -9 -10 525.214 178.363   3
  -9  -9 -11 493.001 173.965   3
  -9 -10   3 269.859 142.526   2
  -9 -10   3 211.176 122.798   3
  -9 -10   2 160.211 125.276   2
  -9 -10   2 177.359 106.903   3
  -9 -10   1 1150.41 204.976   2
  -9 -10   1 720.968 178.353   3
  -9 -10   0 1223.63 207.011   2
  -9 -10   0 1008.20 210.820   3
  -9 -10  -1 184.816 124.856   2
  -9 -10  -1 6.17955 139.275   3
  -9 -10  -2 1760.43 262.431   3
   9  10   3 1044.19 200.738   1
  -9 -10  -3 747.927 201.225   3
  -9 -10  -4 993.367 225.066   3
   9  10   4 1236.20 204.604   1
   9  10   5 209.664 116.699   1
  -9 -10  -5 61.4331 130.709   3
   9  10   6 627.559 141.765   1
  -9 -10  -6 702.003 205.141   3
   9  10   7 833.396 154.082   1
  -9 -10  -7 796.609 216.205   3
  -9 -10  -8 253.771 156.273   3
  -9 -10  -9-75.4256 130.878   3
  -9 -11   2 113.241 111.898   3
  -9 -11   1 174.631 136.725   2
  -9 -11   1 152.144 111.125   3
  -9 -11   0 25.4399 113.139   2
  -9 -11   0-24.3657 110.257   3
  -9 -11  -1 209.964 130.040   3
  -9 -11  -2 801.216 195.675   3
   9  11   3 515.611 156.220   1
  -9 -11  -3 482.198 181.245   3
   9  11   4 1206.02 194.614   1
  -9 -11  -4 1290.56 244.365   3
  -9 -11  -5 1364.34 262.662   3
  -9 -11  -6 1755.13 289.699   3
  -9 -11  -7 3321.21 372.233   3
  10  -3   7 6.97467 70.1984   1
  10  -3   8 33.1381 79.0868   1
  10  -3   9-110.055 91.6408   1
  10  -3  10 202.042 100.836   1
  10  -2   3 499.675 127.942   1
  10  -2   4 871.082 149.443   1
  10  -2   5 214.267 101.886   1
  10  -2   6 1224.26 171.197   1
  10  -2   7 83.3727 87.1578   1
  10  -2   8 43.9474 78.5729   1
  10  -2   9 319.636 113.172   1
  10  -2  10-31.0720 91.3670   1
  10  -2  11 497.744 131.390   1
  10  -1   0-16.1491 79.8679   1
  10  -1   1 670.592 139.521   1
  10  -1   2 122.830 95.8063   1
  10  -1   3 579.331 137.049   1
  10  -1   4 61.6960 88.7280   1
  10  -1   5 405.209 118.024   1
  10  -1   6 524.212 126.910   1
  10  -1   7 480.531 129.254   1
  10  -1   8 1124.69 168.585   1
  10  -1   9-55.0949 91.6346   1
  10  -1  10-77.0986 98.2902   1
  10  -1  11 24.0842 84.9818   1
  10   0  -2-103.761 106.118   1
  10   0  -1-51.5218 109.112   1
  10   0   0 289.141 123.205   1
  10   0   1 112.037 101.851   1
  10   0   2 783.052 159.054   1
  10   0   3 74.0390 93.3362   1
  10   0   4 195.066 102.380   1
  10   0   5 607.419 143.999   1
  10   0   6 126.595 101.844   1
  10   0   7 1684.82 200.323   1
  10   0   8 248.965 121.056   1
  10   0   9 222.938 112.573   1
  10   0  10-60.7839 98.0085   1
 -10   0 -10 32.5013 73.2296   3
  10   0  11 58.2867 95.6510   1
  10   0  12 426.753 134.685   1
  10   1   0 625.051 156.849   1
  10   1   1 55.7950 105.845   1
  10   1   2-61.6905 120.629   1
  10   1   3-67.8291 107.565   1
  10   1   4-46.3489 92.0722   1
  10   1   5 13.8833 88.4849   1
  10   1   6 1266.07 188.811   1
  10   1   7 1876.15 217.746   1
  10   1   8 271.415 124.380   1
  10   1   9 530.945 145.031   1
 -10  -1  -9 546.448 137.033   3
  10   1  10 465.362 132.020   1
 -10  -1 -10 148.652 89.1979   3
  10   1  11 20.8034 94.1545   1
  10   1  12 82.5830 107.253   1
  10   2   1 1733.30 234.227   1
  10   2   2 440.198 139.261   1
  10   2   3 207.612 123.873   1
  10   2   4 63.7372 106.607   1
  10   2   5 2511.65 244.804   1
  10   2   6 409.110 132.275   1
  10   2   7 21.2556 99.2881   1
 -10  -2  -8 767.490 159.278   3
  10   2   8 695.805 158.727   1
  10   2   9 422.036 135.159   1
 -10  -2  -9 380.720 126.064   3
  10   2  10 1209.45 185.221   1
 -10  -2 -10 1099.60 177.363   3
  10   2  11 133.094 115.701   1
 -10  -2 -11-56.7006 90.5849   3
  10   2  12 1085.16 189.650   1
  10   2  13-189.470 125.288   1
  10   3   2-239.430 159.882   1
  10   3   3 692.800 163.514   1
  10   3   4 684.914 164.194   1
  10   3   5 1304.83 192.248   1
  10   3   6 168.741 125.276   1
  10   3   7 854.632 165.693   1
 -10  -3  -7 864.406 178.840   3
 -10  -3  -8 303.365 128.167   3
  10   3   8 208.812 127.565   1
  10   3   9 957.051 172.607   1
 -10  -3  -9 720.074 164.011   3
  10   3  10 51.1110 121.680   1
 -10  -3 -10-107.502 114.107   3
  10   3  11 1137.34 186.814   1
 -10  -3 -11 752.332 161.360   3
  10   3  12 231.152 125.106   1
  10   3  13-189.286 139.903   1
  10   4   2 967.287 194.887   1
  10   4   3 14.0775 130.524   1
  10   4   4 3990.16 326.611   1
  10   4   5 877.268 184.103   1
 -10  -4  -5 938.724 194.604   3
 -10  -4  -6 2546.91 274.348   3
  10   4   6 3250.78 279.350   1
  10   4   7 212.374 122.808   1
 -10  -4  -7 420.905 155.789   3
  10   4   8 651.468 156.340   1
 -10  -4  -8 255.097 131.129   3
 -10  -4  -9-40.4226 125.063   3
  10   4   9-1.33729 112.080   1
  10   4  10-28.5305 105.818   1
 -10  -4 -10 62.7518 100.004   3
  10   4  11 1712.74 218.194   1
 -10  -4 -11 1277.83 205.671   3
  10   4  12 933.216 180.825   1
 -10  -4 -12 720.145 176.500   3
  10   4  13 491.237 157.642   1
 -10  -5   4 55.8834 85.1389   2
 -10  -5   3 282.006 110.392   2
 -10  -5   2 279.489 106.292   2
 -10  -5   1 818.427 145.088   2
 -10  -5   0 383.696 108.729   2
 -10  -5  -1 119.131 79.1532   2
 -10  -5  -2 1486.79 230.641   3
 -10  -5  -3 2161.80 267.483   3
  10   5   3 1604.28 239.916   1
 -10  -5  -4 401.272 154.971   3
  10   5   4-139.827 154.098   1
 -10  -5  -5 2173.27 265.774   3
  10   5   5 2273.88 259.226   1
  10   5   6 2459.01 254.008   1
 -10  -5  -6 2014.51 257.458   3
  10   5   7 171.776 121.319   1
 -10  -5  -7-127.455 133.026   3
  10   5   8 505.537 158.325   1
 -10  -5  -8 62.2265 117.773   3
 -10  -5  -9 226.436 133.337   3
  10   5   9 343.695 141.465   1
  10   5  10 1900.81 225.839   1
 -10  -5 -10 1477.53 229.861   3
  10   5  11 430.348 140.876   1
 -10  -5 -11 386.312 146.054   3
  10   5  12 841.193 171.131   1
 -10  -5 -12 917.413 189.566   3
  10   5  13 401.889 138.630   1
 -10  -6   5-119.861 105.219   2
 -10  -6   5-2.11499 78.0593   3
 -10  -6   4 66.4694 106.519   2
 -10  -6   4 80.5137 98.6973   3
 -10  -6   3 183.171 110.275   2
 -10  -6   3 396.282 144.558   3
 -10  -6   2 266.377 115.305   2
 -10  -6   2 357.070 148.178   3
 -10  -6   1-73.4435 87.9398   2
 -10  -6   1 243.009 139.683   3
 -10  -6   0-3.37998 80.5756   2
 -10  -6   0 243.558 144.524   3
 -10  -6  -1 105.617 87.2102   2
 -10  -6  -1 201.553 127.843   3
 -10  -6  -2 666.672 129.926   2
 -10  -6  -2 820.575 186.667   3
  10   6   3 53.3489 134.955   1
 -10  -6  -3 174.891 137.950   3
  10   6   4 663.962 173.490   1
 -10  -6  -4 756.495 182.440   3
  10   6   5 1002.51 193.255   1
 -10  -6  -5 843.512 186.753   3
 -10  -6  -6 71.0978 124.087   3
  10   6   6 258.469 137.952   1
  10   6   7 812.129 170.754   1
 -10  -6  -7 456.259 157.546   3
  10   6   8 448.591 154.741   1
 -10  -6  -8-46.1272 132.306   3
 -10  -6  -9 2726.49 310.017   3
  10   6   9 3724.36 305.689   1
  10   6  10 456.609 143.755   1
 -10  -6 -10 392.879 160.275   3
  10   6  11 859.667 173.589   1
 -10  -6 -11 664.273 181.840   3
  10   6  12 322.405 126.619   1
 -10  -6 -12 165.160 111.816   3
 -10  -7   4-108.650 105.859   2
 -10  -7   4 55.6892 90.7154   3
 -10  -7   3 57.7181 99.0575   2
 -10  -7   3 181.784 109.763   3
 -10  -7   2 161.061 107.103   2
 -10  -7   2 87.9951 99.0758   3
 -10  -7   1-16.2446 94.4014   2
 -10  -7   1 124.454 110.596   3
 -10  -7   0 50.9438 86.4180   2
 -10  -7   0 130.716 107.142   3
 -10  -7  -1 354.783 123.438   2
 -10  -7  -1 352.034 150.813   3
 -10  -7  -2 285.546 111.352   2
 -10  -7  -2 179.826 132.830   3
  10   7   3 297.634 161.119   1
 -10  -7  -3 210.170 140.950   3
  10   7   4 2148.58 274.655   1
 -10  -7  -4 1671.63 251.994   3
  10   7   5 1158.16 204.052   1
 -10  -7  -5 665.792 175.030   3
 -10  -7  -6-197.281 163.355   3
  10   7   6 156.085 115.674   1
  10   7   7-3.82990 115.439   1
 -10  -7  -7-306.234 191.869   3
  10   7   8 1903.40 237.043   1
 -10  -7  -8 1414.84 246.889   3
 -10  -7  -9 386.777 160.149   3
  10   7   9 485.192 149.435   1
  10   7  10 1379.58 197.468   1
 -10  -7 -10 1274.84 239.667   3
  10   7  11 293.521 134.192   1
 -10  -7 -11 136.714 118.922   3
  10   7  12-131.494 105.275   1
 -10  -7 -12 103.462 107.006   3
 -10  -8   4 490.794 144.336   3
 -10  -8   3 47.5103 104.017   2
 -10  -8   3 34.2016 94.8811   3
 -10  -8   2 201.746 123.627   2
 -10  -8   2-52.6410 89.5221   3
 -10  -8   1 473.177 147.559   2
 -10  -8   1 244.193 123.560   3
 -10  -8   0-36.7712 94.2547   2
 -10  -8   0-113.090 108.660   3
 -10  -8  -1 411.896 133.016   2
 -10  -8  -1 431.357 159.210   3
 -10  -8  -2 196.932 113.590   2
 -10  -8  -2 95.3974 124.192   3
 -10  -8  -3 2849.15 328.638   3
  10   8   3 3352.19 339.817   1
  10   8   4 915.457 204.908   1
 -10  -8  -4 776.064 214.567   3
  10   8   5 1062.68 209.443   1
 -10  -8  -5 903.194 200.859   3
 -10  -8  -6 130.685 132.774   3
  10   8   6 398.300 151.759   1
  10   8   7 151.052 125.070   1
 -10  -8  -7-44.5637 135.828   3
  10   8   8 304.552 134.580   1
 -10  -8  -8 299.746 152.836   3
 -10  -8  -9-257.286 157.600   3
  10   8   9 182.879 117.637   1
  10   8  10 1095.71 175.803   1
 -10  -8 -10 1084.13 230.859   3
  10   8  11 410.632 129.412   1
 -10  -8 -11 704.213 189.142   3
 -10  -9   3-139.118 115.423   3
 -10  -9   2 180.460 133.228   2
 -10  -9   2 302.500 138.120   3
 -10  -9   1-87.8317 108.106   2
 -10  -9   1 141.183 119.832   3
 -10  -9   0 80.5107 109.578   2
 -10  -9   0 26.0089 106.302   3
 -10  -9  -1 34.0673 101.456   2
 -10  -9  -1-29.4423 123.375   3
 -10  -9  -2 330.872 146.246   3
  10   9   3 1235.21 233.629   1
 -10  -9  -3 1055.20 220.710   3
 -10  -9  -4 315.203 152.170   3
  10   9   4 466.770 166.377   1
  10   9   5 1230.89 210.555   1
 -10  -9  -5 895.759 215.709   3
 -10  -9  -6 864.475 222.592   3
  10   9   6 1012.19 190.021   1
  10   9   7 427.687 143.259   1
 -10  -9  -7 466.205 172.260   3
 -10  -9  -8 82.9002 134.494   3
  10   9   8 35.3375 95.9722   1
 -10  -9  -9 1006.65 229.244   3
  10   9   9 1151.14 185.741   1
  10   9  10 458.219 127.572   1
 -10 -10   1 1.48203 99.3864   3
 -10 -10   0-0.29615 99.4433   2
 -10 -10   0-84.6942 137.670   3
 -10 -10  -1 233.686 126.725   2
 -10 -10  -1 278.917 153.835   3
 -10 -10  -2 804.060 205.660   3
  10  10   3 15.0300 125.652   1
 -10 -10  -3-21.6886 149.106   3
  10  10   4 501.649 154.263   1
 -10 -10  -4 572.678 183.173   3
  10  10   5 124.410 127.683   1
 -10 -10  -5 50.2191 141.687   3
  10  10   6 276.457 126.525   1
 -10 -10  -6 184.223 148.975   3
  10  10   7 123.880 106.308   1
  10  10   8 873.661 163.923   1
  10  11   2 211.906 143.321   1
  10  11   3-49.5752 119.001   1
  10  11   4-9.68452 102.557   1
  11  -1   3 109.210 88.7533   1
  11  -1   4 205.296 108.730   1
  11  -1   5 216.567 105.578   1
  11  -1   6 735.896 152.256   1
  11  -1   7 127.587 99.8557   1
  11  -1   8 85.6007 88.7337   1
  11   0   1 160.328 101.916   1
  11   0   2 40.3336 90.1591   1
  11   0   3-88.0940 95.8725   1
  11   0   4-72.8188 103.058   1
  11   0   5 269.604 125.547   1
  11   0   6 403.092 134.138   1
  11   0   7 94.6886 97.6051   1
  11   0   8 541.107 136.438   1
  11   0   9-78.9700 88.0352   1
  11   1  -1 85.3074 104.408   1
  11   1   0 317.518 136.097   1
  11   1   1 844.443 178.161   1
  11   1   2-45.5402 105.292   1
  11   1   3 165.210 107.835   1
  11   1   4 10.3692 93.5164   1
  11   1   5-29.0733 93.3175   1
  11   1   6 148.357 107.843   1
  11   1   7 170.725 123.307   1
  11   1   8 234.789 115.098   1
  11   1   9 182.992 111.442   1
 -11  -1  -9 125.247 92.7385   3
  11   1  10 216.550 120.279   1
 -11  -1 -10 47.6078 77.2929   3
  11   2  -1-41.3588 117.341   1
  11   2   0 192.638 127.172   1
  11   2   1-71.4665 131.609   1
  11   2   2 687.153 169.034   1
  11   2   3 59.4145 120.665   1
  11   2   4 1132.42 192.563   1
  11   2   5 28.9157 97.3471   1
  11   2   6 445.016 148.618   1
  11   2   7 646.419 158.878   1
  11   2   8 391.693 147.655   1
 -11  -2  -8-25.6909 89.6384   3
  11   2   9 411.559 136.373   1
 -11  -2  -9 195.870 110.282   3
  11   2  10 359.728 136.568   1
 -11  -2 -10 252.557 109.825   3
  11   3   0-65.9678 131.297   1
  11   3   1-174.106 143.519   1
  11   3   2 106.145 128.300   1
  11   3   3 117.994 119.961   1
  11   3   4 75.8806 118.169   1
  11   3   5 386.531 146.127   1
  11   3   6 701.040 168.757   1
 -11  -3  -6 733.409 175.130   3
  11   3   7 182.678 121.457   1
 -11  -3  -7 213.795 128.282   3
 -11  -3  -8 173.860 112.498   3
  11   3   8-0.48409 104.081   1
  11   3   9 224.001 130.829   1
 -11  -3  -9 36.0482 95.9914   3
  11   3  10 681.607 161.515   1
 -11  -3 -10 484.995 145.204   3
 -11  -3 -11 110.585 103.208   3
  11   4   1-253.093 149.108   1
  11   4   2-108.529 144.658   1
  11   4   3 809.038 195.741   1
  11   4   4 168.416 144.386   1
 -11  -4  -5 2863.56 305.391   3
  11   4   5 3149.91 298.418   1
  11   4   6 151.026 129.424   1
 -11  -4  -6 174.297 131.769   3
  11   4   7 477.852 162.605   1
 -11  -4  -7 394.316 146.695   3
 -11  -4  -8 224.582 135.331   3
  11   4   8 292.198 137.751   1
  11   4   9 573.852 157.000   1
 -11  -4  -9 283.287 132.101   3
  11   4  10 279.133 129.292   1
 -11  -4 -10 36.0780 98.9397   3
 -11  -4 -11-43.4243 107.349   3
  11   5   2 174.892 141.129   1
 -11  -5  -2 285.780 147.567   3
  11   5   3 188.618 135.051   1
 -11  -5  -3 525.693 167.310   3
  11   5   4 1099.05 208.616   1
 -11  -5  -4 990.301 197.625   3
  11   5   5 152.588 138.455   1
 -11  -5  -5 234.292 145.646   3
  11   5   6 810.602 183.449   1
 -11  -5  -6 664.205 175.452   3
  11   5   7-113.922 119.310   1
 -11  -5  -7 22.4302 111.413   3
  11   5   8 1389.45 219.415   1
 -11  -5  -8 678.979 172.661   3
 -11  -5  -9 35.2136 113.851   3
  11   5   9 42.4820 119.284   1
  11   5  10 104.176 117.794   1
 -11  -5 -10-87.1993 117.317   3
 -11  -5 -11 448.491 145.851   3
 -11  -6   1 277.247 140.669   3
 -11  -6   0 240.376 124.738   3
 -11  -6  -1 117.268 133.834   3
  11   6   2-0.30641 132.010   1
 -11  -6  -2 208.578 140.174   3
  11   6   3 96.7106 139.044   1
 -11  -6  -3 377.316 156.334   3
  11   6   4 348.884 167.795   1
 -11  -6  -4 436.798 154.762   3
  11   6   5-134.566 140.176   1
 -11  -6  -5-23.8647 113.175   3
  11   6   6 171.754 129.720   1
 -11  -6  -6 255.992 146.860   3
  11   6   7 91.2355 119.875   1
 -11  -6  -7 15.4171 135.404   3
  11   6   8 377.129 148.965   1
 -11  -6  -8 47.5920 122.889   3
 -11  -6  -9-17.5855 125.633   3
  11   6   9 120.264 126.406   1
  11   6  10 872.256 184.153   1
 -11  -6 -10 543.498 172.820   3
 -11  -6 -11 64.0910 111.331   3
 -11  -7   0 114.729 114.793   3
 -11  -7  -1 71.0909 123.835   3
  11   7   2 120.530 138.911   1
 -11  -7  -2 216.868 137.438   3
  11   7   3 206.036 149.862   1
 -11  -7  -3 481.694 166.540   3
  11   7   4-213.463 159.852   1
 -11  -7  -4-6.47911 116.788   3
  11   7   5 186.576 147.131   1
 -11  -7  -5-8.89319 130.632   3
 -11  -7  -6-143.984 146.530   3
  11   7   6 263.424 149.850   1
  11   7   7 221.851 139.489   1
 -11  -7  -7-28.8595 139.446   3
  11   7   8 265.189 141.860   1
 -11  -7  -8-127.732 143.464   3
 -11  -7  -9 1114.10 233.908   3
  11   7   9 1114.38 201.954   1
 -11  -8   0 50.9276 89.3609   2
 -11  -8  -1 69.7586 94.2768   2
 -11  -8  -1 107.630 110.820   3
  11   8   2 1329.11 250.338   1
 -11  -8  -2 1123.27 223.082   3
 -11  -8  -3-46.8078 128.206   3
  11   8   3-17.8175 135.956   1
  11   8   4 571.066 178.919   1
 -11  -8  -4 204.989 139.277   3
  11   8   5-65.0199 125.340   1
 -11  -8  -5-224.875 170.660   3
  11   8   6 384.263 143.681   1
 -11  -8  -6-54.9471 156.489   3
  11   8   7-39.1513 109.349   1
 -11  -8  -7 465.706 170.247   3
  11   8   8 1123.84 205.718   1
 -11  -9  -1 141.551 115.139   2
  11   9   4-101.455 159.266   1
  11   9   5-81.0293 132.583   1
  11   9   6 75.9812 121.755   1
   0   0   0    0.00    0.00   0
TITL UL18_MM2_KK1 in P-1
REM P-1 (#2 in standard setting)
CELL 0.71073   7.411520   8.534504  10.779012  89.6817  72.1453  71.4050
ZERR    3.00   0.000422   0.000380   0.000505   0.0037   0.0047   0.0046
LATT  1
SFAC C H N O
UNIT 33.00 30.00 3.00 3.00
TREF
HKLF 4
END
;
_shelx_hkl_checksum              55326
_shelx_res_file
;
    shelx.res created by SHELXL-2014/7
TITL KK1_marta
CELL  0.71073   7.4115   8.5345  10.7790   89.682   72.145   71.405
ZERR     2.00   0.0004   0.0004   0.0005    0.004    0.005    0.005
LATT   1
SFAC  C    H    N    ZN   CL
UNIT  20 22 6 2 4
MERG   2
OMIT    -3.00  53.00
FMAP   2
PLAN   10
TEMP -173
ACTA
BOND   $H
CONF
L.S.  10
WGHT    0.038100    0.182000
FVAR       8.38245
ZN1   4    0.705520    0.827237    0.281735    11.00000    0.05413    0.02706 =
         0.05909    0.00539   -0.02577   -0.01673
CL1   5    0.791989    0.907915    0.442928    11.00000    0.06415    0.04730 =
         0.06205   -0.00310   -0.02603   -0.02414
CL2   5    0.608752    1.001401    0.146941    11.00000    0.07678    0.03890 =
         0.07280    0.01388   -0.03962   -0.01512
N1    3    0.926280    0.608994    0.190041    11.00000    0.04782    0.02760 =
         0.05105    0.00658   -0.01866   -0.01682
N2    3    0.872450    0.471243    0.223151    11.00000    0.04486    0.02560 =
         0.04946    0.00515   -0.01729   -0.01480
N3    3    0.553250    0.657022    0.324360    11.00000    0.04571    0.03180 =
         0.04601    0.00040   -0.01855   -0.01391
C2    1    1.120634    0.555031    0.124347    11.00000    0.04815    0.03756 =
         0.04656    0.00593   -0.01872   -0.01828
C5    1    0.665767    0.497821    0.287627    11.00000    0.04596    0.03214 =
         0.04006    0.00425   -0.01870   -0.01631
C4    1    1.036644    0.330584    0.178105    11.00000    0.04853    0.02971 =
         0.05827    0.00454   -0.02256   -0.01313
C3    1    1.193607    0.380915    0.114695    11.00000    0.04462    0.03857 =
         0.06027    0.00321   -0.01600   -0.01338
AFIX  43
H3    2    1.328011    0.311307    0.071713    11.00000   -1.20000
AFIX   0
C9    1    0.354024    0.694242    0.382302    11.00000    0.04918    0.04145 =
         0.05285   -0.00387   -0.01632   -0.01206
AFIX  43
H9    2    0.272870    0.807518    0.407725    11.00000   -1.20000
AFIX   0
C6    1    0.585960    0.370830    0.308030    11.00000    0.05503    0.03453 =
         0.06115    0.00571   -0.01983   -0.02110
AFIX  43
H6    2    0.669300    0.258391    0.280785    11.00000   -1.20000
AFIX   0
C7    1    0.381894    0.411553    0.369056    11.00000    0.05731    0.04974 =
         0.05726    0.01000   -0.01931   -0.03053
AFIX  43
H7    2    0.322911    0.326528    0.385556    11.00000   -1.20000
AFIX   0
C8    1    0.263794    0.575033    0.406022    11.00000    0.04799    0.05782 =
         0.05273    0.00276   -0.01465   -0.02238
AFIX  43
H8    2    0.122672    0.604744    0.447124    11.00000   -1.20000
AFIX   0
C21   1    1.227720    0.674850    0.075322    11.00000    0.05676    0.05008 =
         0.07075    0.01173   -0.01453   -0.02836
AFIX 137
H21A  2    1.129666    0.786930    0.087239    11.00000   -1.50000
H21B  2    1.304218    0.643695   -0.017961    11.00000   -1.50000
H21C  2    1.319879    0.672925    0.124362    11.00000   -1.50000
AFIX   0
C41   1    1.040833    0.155973    0.199878    11.00000    0.05662    0.02940 =
         0.10074    0.01163   -0.02164   -0.01160
AFIX 137
H41A  2    0.963795    0.124182    0.151108    11.00000   -1.50000
H41B  2    0.981169    0.149081    0.293538    11.00000   -1.50000
H41C  2    1.180271    0.080523    0.169218    11.00000   -1.50000
AFIX   0
HKLF 4
REM  KK1_marta
REM R1 =  0.0236 for    2245 Fo > 4sig(Fo)  and  0.0268 for all    2459 data
REM    147 parameters refined using      0 restraints
END
WGHT      0.0359      0.1811
REM Highest difference peak  0.531,  deepest hole -0.271,  1-sigma level  0.046
Q1    1   0.5920  0.8863  0.3446  11.00000  0.05    0.53
Q2    1   0.7620  0.8508  0.3598  11.00000  0.05    0.28
Q3    1   0.8640  0.7184  0.2074  11.00000  0.05    0.28
Q4    1   0.7889  0.8241  0.3325  11.00000  0.05    0.27
Q5    1   0.7808  0.4797  0.2671  11.00000  0.05    0.24
Q6    1   0.7310  0.9580  0.1132  11.00000  0.05    0.21
Q7    1   1.0063  0.5980  0.1802  11.00000  0.05    0.20
Q8    1   1.1722  0.4663  0.1199  11.00000  0.05    0.20
Q9    1   0.4904  0.3827  0.3269  11.00000  0.05    0.19
Q10   1   1.0393  0.2693  0.1886  11.00000  0.05    0.18
;
_shelx_res_checksum              68903
loop_
_space_group_symop_operation_xyz
'x, y, z'
'-x, -y, -z'
loop_
_atom_site_type_symbol
_atom_site_label
_atom_site_fract_x
_atom_site_fract_y
_atom_site_fract_z
_atom_site_U_iso_or_equiv
_atom_site_adp_type
_atom_site_calc_flag
_atom_site_occupancy
_atom_site_disorder_assembly
_atom_site_disorder_group
Zn Zn1 0.70552(4) 0.82724(3) 0.28173(2) 0.04414(10) Uani d 1 . .
Cl Cl1 0.79199(9) 0.90792(7) 0.44293(6) 0.05502(15) Uani d 1 . .
Cl Cl2 0.60875(10) 1.00140(7) 0.14694(6) 0.06016(16) Uani d 1 . .
N N1 0.9263(2) 0.60899(18) 0.19004(16) 0.0404(4) Uani d 1 . .
N N2 0.8725(2) 0.47124(18) 0.22315(16) 0.0387(3) Uani d 1 . .
N N3 0.5532(2) 0.65702(19) 0.32436(16) 0.0400(3) Uani d 1 . .
C C2 1.1206(3) 0.5550(2) 0.1243(2) 0.0423(4) Uani d 1 . .
C C5 0.6658(3) 0.4978(2) 0.28763(18) 0.0374(4) Uani d 1 . .
C C4 1.0366(3) 0.3306(2) 0.1781(2) 0.0442(4) Uani d 1 . .
C C3 1.1936(3) 0.3809(3) 0.1147(2) 0.0481(5) Uani d 1 . .
H H3 1.3280 0.3113 0.0717 0.058 Uiso calc 1 . .
C C9 0.3540(3) 0.6942(3) 0.3823(2) 0.0486(5) Uani d 1 . .
H H9 0.2729 0.8075 0.4077 0.058 Uiso calc 1 . .
C C6 0.5860(3) 0.3708(3) 0.3080(2) 0.0484(5) Uani d 1 . .
H H6 0.6693 0.2584 0.2808 0.058 Uiso calc 1 . .
C C7 0.3819(3) 0.4116(3) 0.3691(2) 0.0514(5) Uani d 1 . .
H H7 0.3229 0.3265 0.3856 0.062 Uiso calc 1 . .
C C8 0.2638(3) 0.5750(3) 0.4060(2) 0.0520(5) Uani d 1 . .
H H8 0.1227 0.6047 0.4471 0.062 Uiso calc 1 . .
C C21 1.2277(4) 0.6748(3) 0.0753(3) 0.0580(6) Uani d 1 . .
H H21A 1.1297 0.7869 0.0872 0.087 Uiso calc 1 . .
H H21B 1.3042 0.6437 -0.0180 0.087 Uiso calc 1 . .
H H21C 1.3199 0.6729 0.1244 0.087 Uiso calc 1 . .
C C41 1.0408(4) 0.1560(3) 0.1999(3) 0.0638(7) Uani d 1 . .
H H41A 0.9638 0.1242 0.1511 0.096 Uiso calc 1 . .
H H41B 0.9812 0.1491 0.2935 0.096 Uiso calc 1 . .
H H41C 1.1803 0.0805 0.1692 0.096 Uiso calc 1 . .
loop_
_atom_site_aniso_label
_atom_site_aniso_U_11
_atom_site_aniso_U_22
_atom_site_aniso_U_33
_atom_site_aniso_U_12
_atom_site_aniso_U_13
_atom_site_aniso_U_23
Zn1 0.05413(16) 0.02706(13) 0.05909(16) -0.01673(11) -0.02577(12) 0.00539(10)
Cl1 0.0641(3) 0.0473(3) 0.0621(3) -0.0241(3) -0.0260(3) -0.0031(2)
Cl2 0.0768(4) 0.0389(3) 0.0728(4) -0.0151(3) -0.0396(3) 0.0139(2)
N1 0.0478(9) 0.0276(8) 0.0510(9) -0.0168(7) -0.0187(8) 0.0066(7)
N2 0.0449(9) 0.0256(7) 0.0495(9) -0.0148(7) -0.0173(7) 0.0051(6)
N3 0.0457(9) 0.0318(8) 0.0460(8) -0.0139(7) -0.0186(7) 0.0004(6)
C2 0.0482(11) 0.0376(10) 0.0466(10) -0.0183(9) -0.0187(9) 0.0059(8)
C5 0.0460(10) 0.0321(9) 0.0401(9) -0.0163(8) -0.0187(8) 0.0043(7)
C4 0.0485(11) 0.0297(9) 0.0583(12) -0.0131(9) -0.0226(9) 0.0045(8)
C3 0.0446(11) 0.0386(11) 0.0603(12) -0.0134(9) -0.0160(10) 0.0032(9)
C9 0.0492(12) 0.0414(11) 0.0529(11) -0.0121(9) -0.0163(10) -0.0039(9)
C6 0.0550(12) 0.0345(10) 0.0612(12) -0.0211(9) -0.0198(10) 0.0057(9)
C7 0.0573(13) 0.0497(12) 0.0573(12) -0.0305(11) -0.0193(10) 0.0100(10)
C8 0.0480(11) 0.0578(13) 0.0527(12) -0.0224(10) -0.0146(10) 0.0028(10)
C21 0.0568(13) 0.0501(13) 0.0708(15) -0.0284(11) -0.0145(11) 0.0117(11)
C41 0.0566(14) 0.0294(11) 0.101(2) -0.0116(10) -0.0216(13) 0.0116(11)
loop_
_atom_type_symbol
_atom_type_description
_atom_type_scat_dispersion_real
_atom_type_scat_dispersion_imag
_atom_type_scat_source
C C 0.0033 0.0016 'International Tables Vol C Tables 4.2.6.8 and 6.1.1.4'
H H 0.0000 0.0000 'International Tables Vol C Tables 4.2.6.8 and 6.1.1.4'
N N 0.0061 0.0033 'International Tables Vol C Tables 4.2.6.8 and 6.1.1.4'
Zn Zn 0.2839 1.4301 'International Tables Vol C Tables 4.2.6.8 and 6.1.1.4'
Cl Cl 0.1484 0.1585 'International Tables Vol C Tables 4.2.6.8 and 6.1.1.4'
O O 0.0106 0.0060 'International Tables Vol C Tables 4.2.6.8 and 6.1.1.4'
loop_
_geom_angle_atom_site_label_1
_geom_angle_atom_site_label_2
_geom_angle_atom_site_label_3
_geom_angle_site_symmetry_1
_geom_angle_site_symmetry_3
_geom_angle
_geom_angle_publ_flag
N1 Zn1 N3 . . 77.90(6) ?
N1 Zn1 Cl2 . . 113.82(5) ?
N3 Zn1 Cl2 . . 113.42(5) ?
N1 Zn1 Cl1 . . 106.89(5) ?
N3 Zn1 Cl1 . . 115.74(5) ?
Cl2 Zn1 Cl1 . . 120.83(2) ?
C2 N1 N2 . . 106.69(15) ?
C2 N1 Zn1 . . 138.76(13) ?
N2 N1 Zn1 . . 113.28(12) ?
C4 N2 N1 . . 110.06(15) ?
C4 N2 C5 . . 132.82(15) ?
N1 N2 C5 . . 117.00(15) ?
C5 N3 C9 . . 118.37(17) ?
C5 N3 Zn1 . . 115.84(13) ?
C9 N3 Zn1 . . 125.77(13) ?
N1 C2 C3 . . 109.49(17) ?
N1 C2 C21 . . 120.34(18) ?
C3 C2 C21 . . 130.2(2) ?
N3 C5 C6 . . 122.55(19) ?
N3 C5 N2 . . 114.33(15) ?
C6 C5 N2 . . 123.10(18) ?
C3 C4 N2 . . 106.58(17) ?
C3 C4 C41 . . 127.3(2) ?
N2 C4 C41 . . 126.10(19) ?
C4 C3 C2 . . 107.17(19) ?
C4 C3 H3 . . 126.4 ?
C2 C3 H3 . . 126.4 ?
N3 C9 C8 . . 122.5(2) ?
N3 C9 H9 . . 118.8 ?
C8 C9 H9 . . 118.8 ?
C7 C6 C5 . . 118.1(2) ?
C7 C6 H6 . . 120.9 ?
C5 C6 H6 . . 120.9 ?
C8 C7 C6 . . 119.99(19) ?
C8 C7 H7 . . 120.0 ?
C6 C7 H7 . . 120.0 ?
C9 C8 C7 . . 118.5(2) ?
C9 C8 H8 . . 120.8 ?
C7 C8 H8 . . 120.8 ?
C2 C21 H21A . . 109.5 ?
C2 C21 H21B . . 109.5 ?
H21A C21 H21B . . 109.5 ?
C2 C21 H21C . . 109.5 ?
H21A C21 H21C . . 109.5 ?
H21B C21 H21C . . 109.5 ?
C4 C41 H41A . . 109.5 ?
C4 C41 H41B . . 109.5 ?
H41A C41 H41B . . 109.5 ?
C4 C41 H41C . . 109.5 ?
H41A C41 H41C . . 109.5 ?
H41B C41 H41C . . 109.5 ?
loop_
_geom_bond_atom_site_label_1
_geom_bond_atom_site_label_2
_geom_bond_site_symmetry_2
_geom_bond_distance
_geom_bond_publ_flag
Zn1 N1 . 2.0514(16) ?
Zn1 N3 . 2.0773(16) ?
Zn1 Cl2 . 2.1840(6) ?
Zn1 Cl1 . 2.2094(6) ?
N1 C2 . 1.320(3) ?
N1 N2 . 1.370(2) ?
N2 C4 . 1.368(3) ?
N2 C5 . 1.417(2) ?
N3 C5 . 1.334(2) ?
N3 C9 . 1.345(3) ?
C2 C3 . 1.402(3) ?
C2 C21 . 1.486(3) ?
C5 C6 . 1.378(3) ?
C4 C3 . 1.354(3) ?
C4 C41 . 1.499(3) ?
C3 H3 . 0.9500 ?
C9 C8 . 1.369(3) ?
C9 H9 . 0.9500 ?
C6 C7 . 1.378(3) ?
C6 H6 . 0.9500 ?
C7 C8 . 1.373(3) ?
C7 H7 . 0.9500 ?
C8 H8 . 0.9500 ?
C21 H21A . 0.9800 ?
C21 H21B . 0.9800 ?
C21 H21C . 0.9800 ?
C41 H41A . 0.9800 ?
C41 H41B . 0.9800 ?
C41 H41C . 0.9800 ?
loop_
_geom_hbond_atom_site_label_D
_geom_hbond_atom_site_label_H
_geom_hbond_atom_site_label_A
_geom_hbond_site_symmetry_A
_geom_hbond_distance_DH
_geom_hbond_distance_HA
_geom_hbond_distance_DA
_geom_hbond_angle_DHA
_geom_hbond_publ_flag
C9 H9 Cl1 2_676 0.95 2.75 3.568(2) 145 yes
loop_
_geom_torsion_atom_site_label_1
_geom_torsion_atom_site_label_2
_geom_torsion_atom_site_label_3
_geom_torsion_atom_site_label_4
_geom_torsion_site_symmetry_1
_geom_torsion_site_symmetry_2
_geom_torsion_site_symmetry_3
_geom_torsion_site_symmetry_4
_geom_torsion
_geom_torsion_publ_flag
C2 N1 N2 C4 . . . . 0.5(2) ?
Zn1 N1 N2 C4 . . . . -169.07(12) ?
C2 N1 N2 C5 . . . . -176.00(15) ?
Zn1 N1 N2 C5 . . . . 14.38(19) ?
N2 N1 C2 C3 . . . . 0.0(2) ?
Zn1 N1 C2 C3 . . . . 165.46(16) ?
N2 N1 C2 C21 . . . . -179.17(18) ?
Zn1 N1 C2 C21 . . . . -13.7(3) ?
C9 N3 C5 C6 . . . . -0.7(3) ?
Zn1 N3 C5 C6 . . . . -179.35(15) ?
C9 N3 C5 N2 . . . . 177.77(16) ?
Zn1 N3 C5 N2 . . . . -0.9(2) ?
C4 N2 C5 N3 . . . . 175.43(19) ?
N1 N2 C5 N3 . . . . -9.0(2) ?
C4 N2 C5 C6 . . . . -6.1(3) ?
N1 N2 C5 C6 . . . . 169.45(18) ?
N1 N2 C4 C3 . . . . -0.9(2) ?
C5 N2 C4 C3 . . . . 174.92(19) ?
N1 N2 C4 C41 . . . . 177.1(2) ?
C5 N2 C4 C41 . . . . -7.1(4) ?
N2 C4 C3 C2 . . . . 0.9(2) ?
C41 C4 C3 C2 . . . . -177.1(2) ?
N1 C2 C3 C4 . . . . -0.6(2) ?
C21 C2 C3 C4 . . . . 178.5(2) ?
C5 N3 C9 C8 . . . . 0.8(3) ?
Zn1 N3 C9 C8 . . . . 179.27(16) ?
N3 C5 C6 C7 . . . . -0.1(3) ?
N2 C5 C6 C7 . . . . -178.45(18) ?
C5 C6 C7 C8 . . . . 0.9(3) ?
N3 C9 C8 C7 . . . . 0.0(3) ?
C6 C7 C8 C9 . . . . -0.8(3) ?

_cod_database_fobs_code 2022389
