#------------------------------------------------------------------------------
#$Date: 2021-04-06 04:16:15 +0300 (Tue, 06 Apr 2021) $
#$Revision: 263878 $
#$URL: file:///home/coder/svn-repositories/cod/cif/2/02/23/2022325.cif $
#------------------------------------------------------------------------------
#
# This file is available in the Crystallography Open Database (COD),
# http://www.crystallography.net/. The original data for this entry
# were provided by IUCr Journals, http://journals.iucr.org/.
#
# The file may be used within the scientific community so long as
# proper attribution is given to the journal article from which the
# data were obtained.
#
data_2022325
loop_
_publ_author_name
'Medviediev, Volodymyr'
'Daszkiewicz, Marek'
_publ_section_title
;
 Structural and theoretical analysis of 2-chloro-4-nitroaniline and
 2-methyl-6-nitroaniline salts
;
_journal_coeditor_code           DV3005
_journal_issue                   3
_journal_name_full               'Acta Crystallographica Section C'
_journal_page_first              125
_journal_page_last               136
_journal_paper_doi               10.1107/S2053229621001455
_journal_volume                  77
_journal_year                    2021
_chemical_formula_iupac          'C6 H6 Cl N2 O2 +, Br -'
_chemical_formula_moiety         'C6 H6 Cl N2 O2 +, Br -'
_chemical_formula_sum            'C6 H6 Br Cl N2 O2'
_chemical_formula_weight         253.49
_chemical_name_systematic
;
2-Chloro-4-nitroanilinium bromide
;
_space_group_crystal_system      orthorhombic
_space_group_IT_number           19
_space_group_name_Hall           'P 2ac 2ab'
_space_group_name_H-M_alt        'P 21 21 21'
_atom_sites_solution_hydrogens   geom
_atom_sites_solution_primary     direct
_audit_creation_method
;
Olex2 1.3
(compiled Nov 21 2019 18:26:39 for OlexSys, GUI svn.r6003)
;
_cell_angle_alpha                90
_cell_angle_beta                 90
_cell_angle_gamma                90
_cell_formula_units_Z            4
_cell_length_a                   5.72152(9)
_cell_length_b                   7.90017(17)
_cell_length_c                   20.2729(4)
_cell_measurement_reflns_used    7548
_cell_measurement_temperature    295.0(10)
_cell_measurement_theta_max      27.3650
_cell_measurement_theta_min      2.7740
_cell_volume                     916.35(3)
_computing_cell_refinement
;
CrysAlis PRO (Rigaku OD, 2015)
;
_computing_data_collection
;
CrysAlis PRO (Rigaku OD, 2015)
;
_computing_data_reduction
;
CrysAlis PRO (Rigaku OD, 2015)
;
_computing_molecular_graphics
;
DIAMOND (Brandenburg & Putz, 2008) and OLEX2 (Dolomanov <i>et al.</i>,
2009)
;
_computing_publication_material
;
OLEX2 (Dolomanov <i>et al.</i>,  2009)
;
_computing_structure_refinement
;
SHELXL2018 (Sheldrick, 2015b)
;
_computing_structure_solution
;
SHELXS97 (Sheldrick, 2008)
;
_diffrn_ambient_temperature      295.0(10)
_diffrn_detector                 'CCD plate'
_diffrn_detector_area_resol_mean 10.6249
_diffrn_measured_fraction_theta_full 0.999
_diffrn_measured_fraction_theta_max 0.999
_diffrn_measurement_device       'four-circle diffractometer'
_diffrn_measurement_device_type  'Rigaku Xcalibur Atlas'
_diffrn_measurement_method       '\w scans'
_diffrn_radiation_monochromator  graphite
_diffrn_radiation_probe          x-ray
_diffrn_radiation_type           'Mo K\a'
_diffrn_radiation_wavelength     0.71073
_diffrn_reflns_av_R_equivalents  0.0347
_diffrn_reflns_av_unetI/netI     0.0229
_diffrn_reflns_limit_h_max       8
_diffrn_reflns_limit_h_min       -8
_diffrn_reflns_limit_k_max       11
_diffrn_reflns_limit_k_min       -11
_diffrn_reflns_limit_l_max       28
_diffrn_reflns_limit_l_min       -28
_diffrn_reflns_number            18773
_diffrn_reflns_theta_full        25.242
_diffrn_reflns_theta_max         29.994
_diffrn_reflns_theta_min         2.767
_diffrn_source                   'fine-focus sealed X-ray tube'
_exptl_absorpt_coefficient_mu    4.738
_exptl_absorpt_correction_T_max  0.446
_exptl_absorpt_correction_T_min  0.300
_exptl_absorpt_correction_type   analytical
_exptl_absorpt_process_details
;
{CrysAlis PRO (Rigaku OD, 2015), based on expressions derived by
Clark & Reid (1995)]
;
_exptl_crystal_colour            'clear yellowish colourless'
_exptl_crystal_density_diffrn    1.837
_exptl_crystal_description       block
_exptl_crystal_F_000             496
_exptl_crystal_size_max          0.358
_exptl_crystal_size_mid          0.261
_exptl_crystal_size_min          0.216
_refine_diff_density_max         0.331
_refine_diff_density_min         -0.697
_refine_ls_abs_structure_details
;
Flack <i>x</i> determined using 881 quotients [(I+)-(I-)]/[(I+)+(I-)]
(Parsons <i>et al.</i>,  2013)
;
_refine_ls_abs_structure_Flack   -0.008(4)
_refine_ls_extinction_method     none
_refine_ls_goodness_of_fit_ref   1.127
_refine_ls_hydrogen_treatment    mixed
_refine_ls_matrix_type           full
_refine_ls_number_parameters     113
_refine_ls_number_reflns         2669
_refine_ls_number_restraints     0
_refine_ls_restrained_S_all      1.127
_refine_ls_R_factor_all          0.0366
_refine_ls_R_factor_gt           0.0278
_refine_ls_shift/su_max          0.002
_refine_ls_shift/su_mean         0.000
_refine_ls_structure_factor_coef Fsqd
_refine_ls_weighting_details
'w=1/[\s^2^(Fo^2^)+(0.0322P)^2^] where P=(Fo^2^+2Fc^2^)/3'
_refine_ls_weighting_scheme      calc
_refine_ls_wR_factor_gt          0.0598
_refine_ls_wR_factor_ref         0.0623
_reflns_number_gt                2340
_reflns_number_total             2669
_reflns_threshold_expression     'I > 2\s(I)'
_cod_data_source_file            dv3005sup1.cif
_cod_data_source_block           1
_cod_depositor_comments
'Adding full bibliography for 2022325--2022329.cif.'
_cod_database_code               2022325
_cod_database_fobs_code          2022325
_shelx_space_group_comment
;
The symmetry employed for this shelxl refinement is uniquely defined
by the following loop, which should always be used as a source of
symmetry information in preference to the above space-group names.
They are only intended as comments.
;
_shelx_hkl_file
;
   0   0   3 1201.99 186.555   9
   0   0  -3 1372.28 192.649   9
   0   0   3 1436.52 161.528   3
   0   0   3 1197.89 180.462   1
   0   0   4 293546. 5568.94   9
   0   0  -4 306630. 5585.80   9
   0   0   4 305657. 5553.15   1
   0   0   4 306545. 5420.75   3
   0   0  -4 295282. 5541.21   1
   0   0  -5 545.650 230.477   1
   0   0   5-38.1317 234.852   1
   0   0   5 204.872 233.540   9
   0   0  -5 545.421 274.735   9
   0   0   5 484.424 205.429   3
   0   0   6 615522. 10898.0   1
   0   0  -6 623141. 10966.9   9
   0   0  -6 604208. 10962.4   7
   0   0   6 588938. 10921.7   9
   0   0   6 613652. 10677.6   3
   0   0  -6 594610. 10880.4   1
   0   0  -7 262.285 276.597   1
   0   0   7-192.406 234.749   3
   0   0   7-427.758 295.155   9
   0   0  -7 36.8172 347.197   9
   0   0   7 115.566 330.255   1
   0   0  -7 180.142 306.589   7
   0   0   8 328811. 6239.70   3
   0   0  -8 329707. 6623.72   7
   0   0   8 322326. 6562.85   9
   0   0  -8 326490. 6515.11   1
   0   0   8 323957. 6529.11   1
   0   0  -8 335701. 6633.00   9
   0   0  -9 574.975 345.593   1
   0   0  -9 215.373 364.968   9
   0   0  -9 71.4397 362.037   7
   0   0   9 122.960 253.997   3
   0   0   9-72.4216 329.843   9
   0   0   9 6.25635 390.004   1
   0   0 -10 116303. 3090.42   1
   0   0 -10 114778. 3172.32   7
   0   0  10 113870. 2783.99   3
   0   0  10 116119. 3093.40   1
   0   0 -10 117279. 3194.69   9
   0   0  11 42.6883 298.770   3
   0   0  11 127.789 453.346   1
   0   0 -11 54.7525 415.173   9
   0   0 -11-353.301 487.444   7
   0   0  12 145321. 3442.45   3
   0   0 -12 140185. 3904.97   7
   0   0  12 145316. 3842.57   1
   0   0 -12 143002. 3928.00   9
   0   0  13 322.704 493.204   1
   0   0  13 192.250 379.092   3
   0   0 -13 139.285 567.307   7
   0   0 -13-696.678 557.668   9
   0   0  14 8482.66 923.278   1
   0   0 -14 7505.35 945.581   9
   0   0  14 8241.90 733.571   3
   0   0 -14 7960.23 978.078   7
   0   0  15-270.755 420.511   3
   0   0 -15 23.6927 619.883   9
   0   0 -15 598.484 591.546   7
   0   0  15 243.032 603.336   1
   0   0  16 47146.2 2224.63   1
   0   0 -16 51487.4 2444.18   9
   0   0 -16 46603.4 2292.48   7
   0   0  16 50584.6 1883.84   3
   0   0 -17 651.531 748.907   7
   0   0 -17 1675.71 866.925   9
   0   0  17 371.232 426.997   3
   0   0  17-415.668 797.448   1
   0   0  18 103660. 3694.19   1
   0   0 -18 114262. 3984.83   9
   0   0 -18 104582. 3796.17   7
   0   0 -18 106479. 2830.00   5
   0   0  18 108013. 3165.90   3
   0   0  19 51.8720 793.521   1
   0   0 -19 411.073 829.895   7
   0   0 -19 840.686 405.402   5
   0   0  19 248.493 480.616   3
   0   0 -19-738.558 904.301   9
   0   0  20 3159.59 667.912   3
   0   0 -20 1910.37 453.674   5
   0   0 -20 1906.08 876.158   7
   0   0  20 2781.81 925.914   1
   0   0 -20 2108.65 1056.35   9
   0   0 -21-219.061 786.970   7
   0   0  21-412.103 773.701   1
   0   0 -21-771.134 969.885   9
   0   0  21-190.594 492.040   3
   0   0 -21-170.397 367.393   5
   0   0 -22 17543.7 1814.04   9
   0   0  22 13958.7 1151.35   3
   0   0  22 12919.8 1461.15   1
   0   0 -22 14072.2 1571.91   7
   0   0 -23-8.29137 960.829   7
   0   0 -23-392.946 953.634   9
   0   0  23 57.3556 528.582   3
   0   0  23 417.551 895.070   2
   0   0  23 978.203 817.675   1
   0   0 -24 23219.5 2104.68   9
   0   0 -24 26329.6 2214.21   7
   0   0  24 26691.5 2180.99   1
   0   0  24 23286.8 2008.01   2
   0   0  25 749.426 1069.47   1
   0   0 -25-383.790 982.487   9
   0   0  25-442.461 925.633   2
   0   0 -25 1217.63 1085.84   7
   0   0  26 4058.86 1234.91   1
   0   0 -26 2526.17 1244.94   9
   0   0  26 3702.67 1049.70   2
   0   0 -26 3684.04 1087.11   7
   0   0  27-770.872 928.209   1
   0   0  27-716.326 1032.98   2
   0   0 -27-1557.43 1273.79   7
   0   0 -27-465.288 1259.31   9
   0   0  28-952.521 1085.62   1
   0   0  28-582.250 924.538   2
   0   0 -28-1357.35 1235.38   7
   0   0 -29 363.056 1093.33   7
   0   0  29 1948.68 1232.54   1
   0   1   0 52.2503 100.737   4
   0   1   1 37383.5 813.026   7
   0  -1   1 39171.8 954.324   1
   0   1   1 36509.1 877.472   4
   0  -1   1 37068.9 958.898   9
   0  -1   2 16854.9 636.040   9
   0   1  -2 15378.8 633.799   4
   0  -1  -2 14887.8 528.041   1
   0  -1   2 17629.2 662.777   4
   0   1   2 16222.8 472.417   7
   0  -1   2 16119.9 598.526   1
   0   1   2 15850.4 507.817   4
   0   1   3 9026.67 451.329   1
   0  -1  -3 9140.79 388.270   7
   0   1  -3 8846.59 429.831   5
   0   1  -3 9030.95 487.728   1
   0   1  -3 10048.2 549.471   9
   0  -1   3 8421.82 482.391   1
   0   1   3 9093.40 395.228   7
   0  -1  -3 8006.38 431.730   1
   0   1   3 9222.02 414.143   4
   0  -1  -3 9517.73 454.621   9
   0  -1   3 10032.7 552.106   4
   0  -1   3 8550.56 425.237   5
   0  -1   3 9459.59 527.085   9
   0   1  -3 10609.2 561.079   4
   0  -1  -4 35871.9 990.446   7
   0  -1   4 34885.9 966.672   5
   0  -1   4 35985.9 1189.96   4
   0   1   4 35855.6 1007.05   7
   0  -1  -4 34818.7 1076.38   1
   0   1   4 33849.9 1046.53   9
   0  -1   4 35407.3 809.448   3
   0   1  -4 35766.2 813.070   3
   0  -1   4 34917.5 1135.60   1
   0   1  -4 35791.2 1196.63   9
   0   1  -4 37258.3 989.786   5
   0   1   4 34819.3 1072.64   1
   0  -1   4 35398.1 1181.27   9
   0   1  -4 37495.6 1211.36   4
   0   1  -4 35652.0 917.242   6
   0   1  -4 37184.6 1146.53   1
   0  -1  -4 35290.2 1065.84   9
   0  -1  -5 461882. 8173.44   9
   0   1   5 448595. 8093.04   7
   0   1   5 425063. 8129.69   9
   0  -1  -5 433962. 8025.23   7
   0   1  -5 449350. 8375.90   9
   0   1  -5 437108. 7923.74   5
   0   1  -5 453845. 7746.88   6
   0  -1   5 445362. 7917.00   5
   0  -1   5 452202. 7724.27   3
   0   1  -5 457749. 8270.13   1
   0   1  -5 454193. 7736.77   3
   0  -1   5 443744. 8362.72   9
   0  -1  -5 454987. 8165.85   1
   0  -1   5 444602. 8336.27   4
   0  -1   5 453902. 8270.82   1
   0   1   5 451015. 8167.04   1
   0  -1   6 149.285 315.924   1
   0   1   6 850.950 231.818   9
   0   1  -6 396.363 104.803   6
   0   1  -6 91.1838 266.912   9
   0   1   6 459.518 218.169   1
   0   1  -6 473.183 180.022   5
   0  -1   6 381.686 288.730   4
   0  -1  -6 219.419 236.602   1
   0  -1   6 537.549 150.516   3
   0   1  -6 424.413 260.782   1
   0  -1  -6 310.684 271.745   9
   0   1  -6 268.989 140.882   3
   0  -1   6 427.539 222.826   9
   0   1   6 799.174 243.041   7
   0  -1  -6 201.664 256.031   7
   0  -1   7 380855. 7612.40   4
   0   1  -7 396592. 6998.22   3
   0   1  -7 401126. 7720.03   9
   0   1   7 385696. 7486.00   9
   0  -1  -7 396965. 7488.12   9
   0   1   7 386255. 7468.51   1
   0  -1  -7 385690. 7481.63   1
   0  -1   7 394115. 7587.95   1
   0   1  -7 391062. 7567.72   1
   0  -1  -7 386005. 7359.46   7
   0  -1   7 397155. 6937.28   3
   0  -1   7 384540. 7682.47   9
   0   1  -7 392538. 7081.52   5
   0   1   7 400374. 7458.56   7
   0   1   8 237010. 4981.20   9
   0  -1   8 238329. 5186.14   9
   0  -1   8 226432. 4384.12   3
   0   1  -8 237271. 5028.59   1
   0   1  -8 233978. 5165.27   9
   0   1  -8 235513. 4516.08   5
   0   1   8 237709. 4955.01   1
   0  -1  -8 240807. 4980.07   1
   0  -1   8 227804. 5065.54   4
   0  -1  -8 234431. 4983.79   9
   0  -1  -8 232192. 4860.75   7
   0  -1   8 243252. 5066.69   1
   0   1  -9 11580.3 907.299   9
   0   1   9 11829.6 797.843   9
   0  -1   9 11407.1 832.200   4
   0  -1   9 11333.2 554.947   3
   0  -1  -9 11660.3 773.945   7
   0   1   9 11291.9 813.021   1
   0   1  -9 11380.0 832.824   1
   0  -1  -9 11964.2 800.167   1
   0  -1   9 10894.0 841.636   9
   0   1  -9 11348.7 588.185   5
   0  -1   9 12055.5 881.592   1
   0  -1  -9 10075.5 785.174   9
   0  -1  10 100333. 2324.82   3
   0  -1 -10 101762. 2875.23   9
   0   1  10 100501. 2822.98   3
   0   1 -10 103091. 2390.78   5
   0   1  10 102738. 2853.87   1
   0  -1  10 104460. 2954.87   1
   0  -1  10 102002. 2951.81   4
   0   1 -10 104768. 2949.40   1
   0  -1 -10 101167. 2790.07   7
   0   1 -10 111949. 3147.31   9
   0  -1 -11 311923. 6532.55   9
   0   1 -11 306563. 5784.32   5
   0   1  11 294737. 6418.91   1
   0  -1  11 307368. 6565.59   1
   0  -1  11 294267. 5733.84   3
   0   1  11 296736. 6350.74   3
   0   1 -11 298152. 6678.32   9
   0  -1 -11 292265. 6330.18   7
   0   1  12 4157.67 660.288   3
   0  -1  12 4366.51 448.344   3
   0  -1  12 3459.49 689.518   1
   0   1 -12 5539.69 867.935   9
   0  -1 -12 4677.75 717.812   9
   0   1 -12 4879.52 456.410   5
   0  -1 -12 4048.22 655.657   7
   0  -1 -13 279337. 6262.76   9
   0   1  13 264741. 5951.08   3
   0   1 -13 266756. 5348.20   5
   0  -1  13 275517. 6270.99   1
   0   1 -13 265832. 6400.32   9
   0   1  13 272477. 6149.35   1
   0  -1 -13 264618. 6063.02   7
   0  -1  13 263486. 5350.58   3
   0  -1 -14 7279.99 896.793   7
   0   1  14 8411.29 979.482   1
   0   1 -14 6459.48 1010.03   7
   0  -1  14 5171.02 883.375   1
   0   1 -14 7701.20 613.457   5
   0   1 -14 6957.99 972.349   9
   0  -1  14 6808.12 586.901   3
   0  -1 -14 7504.27 955.441   9
   0   1  14 7339.96 808.256   3
   0   1 -15 11065.2 1246.12   9
   0  -1 -15 11344.7 1052.59   7
   0   1 -15 11071.1 1216.47   7
   0   1 -15 11694.2 734.758   5
   0   1  15 10471.8 1053.00   1
   0  -1  15 12195.7 1164.18   1
   0  -1  15 10553.9 733.251   3
   0   1  15 12540.9 1057.06   3
   0  -1 -15 11121.9 1122.85   9
   0  -1 -16 78878.8 2996.60   9
   0  -1 -16 72343.1 2766.82   7
   0   1  16 73901.4 2871.92   1
   0  -1  16 77506.6 2961.76   1
   0   1  16 69422.9 1802.46   6
   0  -1  16 75438.6 2183.83   3
   0   1 -16 74276.8 3043.27   7
   0   1 -16 73798.3 2099.81   5
   0   1  16 73745.2 2626.24   3
   0   1 -16 67496.1 2913.76   9
   0  -1 -17 44431.6 2204.39   7
   0  -1 -17 48423.7 2420.90   9
   0   1  17 44818.8 2018.21   3
   0  -1  17 47118.2 1682.74   3
   0   1  17 42361.8 1211.63   6
   0   1 -17 45449.6 2480.96   7
   0  -1  17 50147.4 2393.74   1
   0   1 -17 44824.0 2434.76   9
   0   1 -17 46279.5 1584.85   5
   0   1  17 47490.4 2297.75   1
   0   1 -18 1840.03 407.484   5
   0  -1 -18 2065.80 898.017   9
   0   1  18 1888.97 196.989   6
   0  -1 -18 2282.45 724.762   7
   0   1 -18 2369.35 946.579   9
   0   1  18 2995.03 865.257   1
   0   1  18 1990.80 595.864   3
   0  -1  18 2193.38 500.137   3
   0  -1  18 3261.12 921.410   1
   0   1 -18 1099.42 823.582   7
   0   1 -19 23520.5 1890.46   7
   0  -1 -19 25460.9 1947.47   9
   0  -1  19 23268.6 1760.42   1
   0   1 -19 26076.7 1200.09   5
   0  -1  19 27485.2 1311.25   3
   0   1 -19 27258.5 2044.37   9
   0  -1 -19 23228.5 1707.77   7
   0   1  19 24680.8 1796.43   1
   0   1  19 28191.0 1638.62   3
   0   1  20 4919.53 840.254   3
   0  -1  20 5419.53 664.549   3
   0   1 -20 4438.73 1142.69   9
   0   1  20 4346.27 1036.68   1
   0  -1 -20 3929.33 1001.59   7
   0  -1  20 4705.51 1059.82   1
   0  -1 -20 5481.46 1142.34   9
   0   1 -20 3403.29 1124.09   7
   0   1 -20 4528.95 561.789   5
   0  -1 -21-481.671 872.801   7
   0  -1  21 589.855 757.674   1
   0   1  21 547.069 770.737   2
   0   1  21 1357.28 664.001   3
   0   1 -21 10.7181 953.312   9
   0   1 -21-140.810 777.047   7
   0   1  21-807.368 835.893   1
   0  -1 -21 562.570 943.283   9
   0  -1  21 191.473 435.312   3
   0   1  22 5633.53 1016.26   2
   0  -1 -22 9164.80 1485.20   9
   0   1  22 6087.88 904.302   3
   0  -1  22 6614.52 1291.34   1
   0  -1 -22 4318.62 1002.29   7
   0   1  22 5433.22 1117.28   1
   0   1 -22 5857.06 1219.88   9
   0   1 -22 6296.06 1343.73   7
   0   1  23 961.986 754.088   2
   0  -1 -23 3451.00 1141.15   7
   0   1 -23 194.161 971.547   7
   0  -1  23 2484.28 962.416   1
   0   1  23 831.982 1056.80   1
   0  -1 -23 2303.68 999.387   9
   0   1  23 740.762 630.882   3
   0   1 -23 1307.46 992.230   9
   0   1  24 5298.34 1354.61   1
   0  -1  24 5322.48 1361.80   1
   0   1  24 7137.04 989.562   3
   0  -1 -24 3103.35 1195.24   7
   0   1 -24 4153.44 1313.27   9
   0  -1  24 6637.15 1386.34   2
   0  -1 -24 4740.14 1307.84   9
   0   1 -24 4050.71 1285.18   7
   0   1  24 3756.27 919.744   2
   0  -1 -25 4659.99 1363.47   9
   0  -1 -25 4774.95 1248.78   7
   0  -1  25 4888.23 1338.04   1
   0   1  25 2579.22 933.490   2
   0   1 -25 3395.30 1293.80   7
   0   1  25 4269.85 1308.66   1
   0   1 -25 1898.14 1285.77   9
   0  -1  25 3158.56 1189.58   2
   0  -1  26 3227.55 1149.10   2
   0   1 -26 1473.18 1049.23   7
   0   1  26 936.611 1128.28   1
   0  -1  26 462.241 967.716   1
   0  -1 -26 4279.49 1238.79   7
   0  -1 -26 551.039 1027.76   9
   0   1 -26 1524.07 1244.48   9
   0   1 -27-151.469 1273.58   9
   0   1 -27 2289.57 1267.24   7
   0  -1 -27 2777.28 1462.45   9
   0   1  27-1887.56 1198.22   1
   0  -1 -27 207.529 917.293   7
   0  -1  27 828.681 1148.23   1
   0  -1  27 1601.40 1223.29   2
   0  -1 -28 623.555 956.334   7
   0   1 -28-370.096 1342.09   9
   0   1 -28-1359.61 1169.63   7
   0  -1  28 578.488 978.456   1
   0  -1  28 1413.18 1046.77   2
   0   1  28 2113.61 1307.39   1
   0  -1 -28 1307.71 1159.07   9
   0  -1  29 977.563 1133.67   2
   0  -1  29 1409.41 1302.11   1
   0   1 -29 1365.56 1233.70   7
   0  -1 -29 3803.17 1296.14   7
   0   1  29 226.335 1204.28   1
   0  -1 -30 1254.81 1252.71   7
   0   2   0 35236.7 1038.79   7
   0  -2   0 35042.9 1123.67   4
   0   2   0 35491.4 1149.65   4
   0  -2   1 309096. 5884.87   4
   0  -2   1 318679. 5834.27   1
   0  -2  -1 304294. 5593.29   7
   0   2   1 295061. 5734.73   4
   0   2   1 303966. 5574.88   7
   0   2  -1 319891. 5928.97   4
   0  -2  -1 299412. 5731.01   4
   0  -2   2 243083. 4933.12   4
   0  -2   2 252955. 4883.91   1
   0   2  -2 239441. 4827.73   1
   0  -2   2 247551. 4906.42   9
   0  -2  -2 242314. 4523.82   7
   0  -2  -2 244249. 4676.24   4
   0   2  -2 245014. 4969.62   4
   0   2   2 235487. 4672.81   4
   0   2   2 244230. 4524.64   7
   0  -2  -3 556828. 9716.55   7
   0   2  -3 546410. 10179.3   9
   0   2  -3 572663. 10135.8   1
   0   2   3 548167. 9723.57   7
   0   2  -3 562369. 10305.1   4
   0   2   3 543536. 9866.23   4
   0  -2   3 563738. 10210.5   9
   0  -2  -3 550343. 9876.34   4
   0  -2   3 563238. 10144.7   1
   0  -2   3 556358. 10249.0   4
   0  -2   4 94384.3 2380.70   5
   0   2   4 97215.8 2257.79   4
   0  -2   4 96199.1 2564.70   9
   0   2  -4 99083.4 2633.25   4
   0   2  -4 101815. 2528.39   1
   0   2   4 99181.4 2172.67   7
   0  -2   4 102930. 2524.89   1
   0  -2  -4 97219.7 2147.75   7
   0  -2  -4 93900.3 2345.49   1
   0   2  -4 100036. 2591.26   9
   0  -2   4 94883.6 2567.86   4
   0  -2  -4 99600.2 2273.33   4
   0  -2   5 256002. 5212.59   5
   0   2  -5 266448. 5611.49   4
   0  -2  -5 269025. 5041.53   7
   0  -2  -5 256804. 5264.78   1
   0  -2   5 271490. 5623.02   4
   0   2   5 261634. 5146.53   4
   0   2  -5 268746. 5595.67   9
   0   2  -5 270257. 5487.93   1
   0  -2  -5 259918. 5247.73   9
   0   2   5 263370. 5057.01   7
   0  -2   5 265791. 5465.20   1
   0  -2   5 276214. 5612.10   9
   0   2  -6 21998.5 916.301   6
   0  -2   6 23673.9 1172.41   9
   0   2  -6 25516.3 1147.08   1
   0  -2   6 23550.8 1194.01   4
   0  -2  -6 25191.7 1044.85   9
   0   2  -6 24521.1 1206.74   9
   0   2   6 22543.6 902.756   7
   0   2  -6 23148.8 1188.21   4
   0  -2  -6 22620.4 894.855   7
   0   2  -6 23477.3 714.294   3
   0  -2   6 23425.8 945.468   5
   0  -2   6 23159.2 1124.72   1
   0   2   6 24804.6 1072.86   1
   0  -2  -6 21338.1 995.975   1
   0   2   6 23762.7 961.749   4
   0   2   7 1288.00 411.638   1
   0  -2   7 1222.16 396.315   1
   0   2  -7 1624.95 384.207   1
   0  -2  -7 1238.21 300.360   1
   0  -2  -7 1451.39 419.739   9
   0   2  -7 1239.17 191.804   3
   0   2  -7 1522.81 513.327   9
   0   2   7 1443.89 314.482   4
   0  -2   7 1317.17 389.777   4
   0   2  -7 1740.77 287.750   6
   0   2  -7 1415.50 493.464   4
   0  -2   7 1024.91 268.363   5
   0  -2   7 1644.11 382.749   9
   0   2   7 1522.12 299.004   7
   0  -2  -7 1540.18 321.719   7
   0  -2   8 86405.1 2555.53   1
   0   2  -8 80217.4 1986.74   6
   0   2   8 86612.3 2284.88   4
   0   2  -8 84674.3 2555.01   1
   0  -2   8 89161.8 2701.09   9
   0  -2  -8 87670.2 2440.33   9
   0  -2   8 82799.1 2627.86   4
   0   2   8 83537.7 2416.81   1
   0   2  -8 82525.6 2206.95   5
   0   2  -8 83948.3 2677.69   9
   0  -2  -8 86967.9 2435.55   1
   0   2   8 86059.3 2307.61   7
   0  -2  -8 85307.1 2232.60   7
   0  -2   8 84709.1 2184.25   5
   0   2  -8 85195.0 1833.50   3
   0   2  -9 222878. 4624.35   5
   0   2  -9 218589. 4196.14   3
   0   2   9 220954. 4959.19   1
   0   2  -9 226711. 5338.41   9
   0   2  -9 214430. 4264.20   6
   0   2   9 232714. 4882.66   7
   0  -2  -9 223073. 4709.18   7
   0  -2   9 216734. 4554.49   5
   0  -2  -9 228230. 4982.70   9
   0  -2   9 235157. 5189.07   1
   0   2  -9 227597. 5136.10   1
   0   2 -10 23001.9 1397.40   9
   0   2 -10 20450.2 763.547   3
   0   2 -10 21696.9 742.359   6
   0   2  10 23859.2 1279.90   1
   0  -2 -10 24742.2 1265.70   9
   0  -2 -10 23146.8 1111.67   7
   0   2 -10 22467.1 1013.97   5
   0  -2  10 22513.4 1321.53   1
   0   2  10 23354.8 1166.04   7
   0  -2  11 516.357 490.639   1
   0   2  11-68.2297 355.854   7
   0  -2 -11 721.847 529.698   9
   0   2  11 1004.05 559.941   1
   0  -2 -11 519.229 373.210   7
   0   2 -11 1303.18 372.333   5
   0   2 -11-68.4471 632.740   9
   0  -2  11 933.729 233.037   3
   0  -2 -12 21929.2 1346.41   9
   0   2 -12 20371.2 1440.53   9
   0   2  12 21379.1 1312.19   1
   0  -2  12 19472.1 1305.53   1
   0  -2  12 19929.5 773.802   3
   0   2 -12 20995.3 1003.43   5
   0  -2 -12 18393.7 1117.05   7
   0  -2  13 77923.2 1912.68   3
   0   2 -13 82824.6 2253.66   5
   0   2  13 75374.7 2758.72   3
   0  -2 -13 74363.8 2490.23   7
   0   2 -13 78231.9 2989.21   9
   0  -2 -13 79939.3 2765.88   9
   0  -2  13 78173.7 2835.92   1
   0   2  13 77634.8 2732.14   1
   0  -2  14 224.760 233.478   3
   0   2 -14 322.741 670.333   9
   0   2 -14 682.052 395.985   5
   0   2  14-31.4587 660.652   1
   0  -2 -14 178.186 473.290   7
   0  -2 -14 531.127 668.617   9
   0  -2  14 297.866 574.967   1
   0   2  14-190.398 622.998   3
   0   2 -15 37061.9 2148.79   9
   0  -2  15 38854.8 2062.57   1
   0   2 -15 40265.6 1490.15   5
   0  -2 -15 38870.2 1836.31   7
   0  -2  15 38167.0 1267.88   3
   0   2  15 41365.5 2011.45   3
   0  -2 -15 36969.3 1972.19   9
   0   2  15 39087.6 1991.68   1
   0  -2 -16 2566.61 757.858   9
   0   2 -16 2185.34 449.740   5
   0  -2  16 1446.02 717.386   1
   0  -2  16 2281.10 360.543   3
   0  -2 -16 1957.61 643.921   7
   0   2 -16 2870.99 970.002   9
   0   2  16 780.367 712.827   1
   0   2  16 2814.69 805.198   3
   0   2  17 790.985 136.601   8
   0   2  17 1491.51 792.630   1
   0  -2 -17 602.112 635.979   9
   0  -2 -17 715.021 663.210   7
   0   2 -17 1255.82 934.793   7
   0  -2  17 686.940 299.473   3
   0  -2  17 1194.45 749.504   1
   0   2 -17 889.701 406.821   5
   0   2 -17 2145.36 929.306   9
   0   2  17 1379.81 742.183   3
   0   2  18 18237.1 1540.61   1
   0   2 -18 17408.4 1723.61   7
   0   2 -18 18991.4 1746.89   9
   0  -2 -18 17922.4 1444.42   7
   0  -2  18 19513.3 1635.87   1
   0   2  18 17408.0 1266.68   2
   0   2 -18 16419.5 980.725   5
   0  -2  18 19115.4 915.879   3
   0   2  18 20464.3 1541.47   3
   0  -2 -18 17031.2 1512.81   9
   0  -2  19 78754.4 3357.71   1
   0   2 -19 76384.4 3522.26   9
   0  -2 -19 83676.0 3386.53   9
   0   2  19 81205.2 3132.84   3
   0  -2 -19 75740.1 3031.24   7
   0   2 -19 80048.0 2360.65   5
   0   2  19 74674.6 3214.33   1
   0   2  19 74886.4 2798.05   2
   0  -2  19 76703.1 2140.63   3
   0   2 -19 67305.8 3351.91   7
   0   2 -20 5687.52 1372.48   7
   0  -2 -20 6204.84 1006.83   7
   0  -2 -20 7926.40 1351.38   9
   0  -2  20 6384.35 1165.95   1
   0   2  20 7478.52 1281.35   1
   0   2 -20 6793.36 1342.12   9
   0   2  20 7908.72 1158.09   3
   0   2 -20 7782.40 730.149   5
   0   2  20 6714.05 907.933   2
   0  -2  21 23051.6 1970.02   1
   0   2 -21 20509.6 1981.78   7
   0   2  21 21079.0 1500.41   2
   0  -2 -21 21125.4 1719.85   7
   0   2  21 20759.5 1633.71   3
   0   2  21 21499.5 1806.72   1
   0  -2 -21 18129.3 1798.91   9
   0   2 -21 21853.4 1987.25   9
   0  -2 -22 14919.3 1518.02   7
   0  -2  22 15941.3 1712.63   1
   0  -2 -22 13215.9 1585.76   9
   0   2  22 14833.3 1439.10   3
   0   2 -22 16052.2 1908.78   7
   0   2  22 17159.3 1784.80   1
   0   2 -22 16270.3 1886.49   9
   0   2  22 12893.7 1234.30   2
   0   2  23-617.985 767.101   3
   0   2  23 222.347 660.463   2
   0  -2 -23 860.673 864.634   7
   0  -2  23 853.989 826.263   1
   0  -2 -23 569.214 1055.55   9
   0   2 -23 709.365 993.218   9
   0   2  23 1122.78 933.976   1
   0   2 -23 1227.23 1080.89   7
   0  -2 -24-161.704 984.886   9
   0   2 -24 495.941 1121.88   9
   0  -2 -24 482.583 910.279   7
   0  -2  24 642.228 957.299   1
   0   2  24 1280.01 818.583   3
   0  -2  24 1888.26 1087.65   2
   0   2 -24 3651.23 1342.58   7
   0   2  24 1726.83 1042.40   1
   0  -2  25 712.366 1040.87   2
   0  -2  25 453.930 1084.06   1
   0   2  25 2053.57 1170.08   1
   0   2  25 139.592 735.271   3
   0   2 -25 210.899 1180.81   7
   0  -2 -25 188.516 1118.71   9
   0  -2 -25 1944.26 991.710   7
   0   2 -25 1504.13 1392.34   9
   0  -2 -26-761.714 1217.04   9
   0   2 -26-1134.17 1142.49   7
   0  -2 -26 1441.13 1007.22   7
   0   2 -26-657.504 1153.22   9
   0  -2  26-226.598 910.367   1
   0   2  26 393.961 1031.39   1
   0  -2  26-688.393 1218.18   2
   0  -2 -27 4490.23 1243.95   9
   0  -2  27 6114.21 1453.10   1
   0   2 -27 6064.95 1554.34   7
   0   2  27 5788.98 1292.95   1
   0   2 -27 7160.51 1554.02   9
   0  -2  27 8095.89 1603.91   2
   0  -2 -27 4607.48 1203.07   7
   0  -2 -28-1574.00 984.103   7
   0   2 -28 3427.08 1510.83   7
   0   2 -28 2216.92 1604.50   9
   0  -2 -28-272.916 1291.07   9
   0  -2  28 607.389 1079.86   1
   0   2  28 1157.45 1114.49   1
   0  -2  28 79.6077 1091.15   2
   0  -2 -29 422.119 905.960   7
   0  -2  29-3466.52 1517.91   2
   0  -3   0 1117.08 339.339   4
   0   3   0 509.427 243.861   7
   0   3   0 940.909 320.968   4
   0  -3  -1 4887.00 496.262   4
   0   3   1 5570.77 448.099   7
   0  -3   1 5632.05 566.721   4
   0   3   1 6204.15 585.587   4
   0   3  -1 5258.57 481.520   7
   0   3  -1 5518.65 612.028   4
   0  -3   1 4539.69 543.483   1
   0  -3  -2 292675. 5894.67   4
   0  -3   2 293202. 6146.77   4
   0   3   2 291715. 5647.70   7
   0  -3  -2 291948. 5680.37   7
   0  -3  -2 293730. 5389.18   2
   0   3  -2 311093. 6252.36   4
   0  -3   2 302645. 6133.03   9
   0  -3   2 311141. 6081.78   1
   0   3   2 295738. 5907.13   4
   0   3   3 33154.0 1100.21   7
   0  -3   3 34268.4 1410.58   9
   0  -3  -3 34318.2 1126.39   7
   0   3   3 32968.9 1252.56   4
   0   3  -3 30225.9 1326.17   1
   0  -3  -3 31672.2 779.655   2
   0  -3   3 33384.4 1430.77   4
   0  -3   3 35875.9 1426.28   1
   0   3  -3 34527.1 1492.89   4
   0  -3  -3 34089.7 1238.18   4
   0  -3   4 23896.3 1245.95   4
   0   3   4 25380.6 963.868   7
   0  -3   4 24419.2 1185.69   5
   0  -3   4 28001.5 1277.54   1
   0  -3   4 26737.1 1278.45   9
   0   3   4 24578.5 1065.96   4
   0   3  -4 28422.8 1414.75   4
   0   3  -4 23041.8 1154.01   1
   0  -3  -4 23341.7 1040.12   4
   0  -3  -4 28833.1 1003.48   7
   0  -3  -5 429.137 237.272   7
   0  -3   5 892.470 357.671   5
   0  -3   5-321.103 318.167   9
   0   3   5 88.8050 206.362   7
   0   3  -5 169.966 482.748   9
   0  -3  -5 41.4182 239.026   1
   0  -3  -5 298.509 260.087   4
   0  -3   5 447.176 440.748   1
   0   3  -5 885.725 463.181   4
   0  -3   5 166.694 381.383   4
   0   3  -5-152.377 354.099   1
   0   3   5 332.541 328.010   4
   0   3   6 217468. 4515.63   7
   0  -3   6 215282. 4845.35   5
   0   3  -6 216882. 5163.32   9
   0  -3   6 228816. 5099.78   1
   0   3  -6 222985. 5284.27   4
   0   3   6 219364. 4674.47   4
   0  -3   6 222210. 5206.54   9
   0  -3  -6 226677. 4509.75   7
   0   3  -6 214899. 5059.20   1
   0  -3  -6 219653. 4686.21   4
   0   3   7 43938.4 1551.17   4
   0   3  -7 44398.0 1894.74   9
   0   3  -7 40802.5 1602.51   6
   0  -3  -7 45740.1 1458.02   7
   0   3  -7 43065.6 1933.96   4
   0  -3   7 46320.0 1651.34   5
   0  -3   7 47826.8 1897.79   1
   0   3  -7 42997.2 1251.11   3
   0   3   7 45273.6 1490.97   7
   0  -3  -7 45420.5 1684.84   9
   0   3  -8 174590. 3544.31   3
   0   3   8 183483. 4034.92   7
   0  -3  -8 184005. 3971.63   7
   0  -3   8 170957. 4108.24   5
   0   3   8 185454. 4125.17   4
   0   3  -8 175119. 4086.59   6
   0   3  -8 182077. 4698.51   9
   0  -3   8 184825. 4516.01   1
   0  -3  -8 191467. 4330.93   9
   0   3  -8 180226. 4712.13   4
   0  -3  -9 168.093 329.965   7
   0   3  -9-34.1953 681.306   9
   0   3  -9 406.638 640.416   4
   0  -3   9-199.281 528.799   1
   0  -3   9 295.480 293.586   5
   0   3  -9 349.104 290.134   6
   0   3  -9 191.410 172.362   3
   0   3   9 305.709 384.108   4
   0  -3  -9 35.2467 472.820   9
   0   3   9 565.142 318.453   7
   0   3 -10 169168. 3899.01   6
   0   3  10 175950. 3319.47   2
   0   3  10 181366. 4228.73   7
   0  -3 -10 188211. 4494.26   9
   0   3 -10 172637. 3476.41   3
   0   3  10 183790. 4236.48   4
   0  -3  10 176110. 4623.90   1
   0  -3 -10 185785. 4109.89   7
   0   3 -10 189671. 4921.93   9
   0  -3  10 177332. 4125.55   5
   0  -3  11 45271.1 1669.87   5
   0   3 -11 44652.0 1465.74   6
   0   3 -11 45721.9 1229.17   3
   0   3 -11 49077.8 2292.26   9
   0  -3  11 46346.8 2102.12   1
   0  -3 -11 48522.6 2001.32   9
   0   3  11 47773.5 1814.05   4
   0   3  11 45014.9 1208.93   2
   0  -3 -11 48675.1 1738.60   7
   0  -3  12 636.549 335.909   5
   0  -3 -12 61.9966 418.476   7
   0   3  12-487.679 492.517   1
   0   3 -12-274.328 254.001   6
   0   3  12-365.003 452.854   4
   0   3 -12-189.546 663.455   9
   0   3  12 65.4668 198.191   2
   0  -3  12 609.640 551.443   1
   0  -3 -12-144.838 575.501   9
   0   3 -12-160.633 175.246   3
   0  -3 -13 5978.01 879.634   9
   0  -3  13 5367.13 905.881   1
   0   3  13 6878.36 800.020   4
   0   3 -13 5687.32 441.972   6
   0  -3 -13 7504.43 814.258   7
   0   3 -13 5346.92 977.480   9
   0   3  13 6602.75 875.381   1
   0   3  13 5919.49 491.473   2
   0   3  14 105097. 2637.09   2
   0  -3 -14 107930. 3521.49   9
   0   3  14 110085. 3254.72   4
   0   3 -14 107432. 3857.69   9
   0  -3  14 113381. 3747.30   1
   0   3  14 113430. 3561.41   1
   0  -3 -14 108339. 3204.96   7
   0   3  14 109936. 3775.70   3
   0   3  15 7823.31 1094.54   3
   0   3  15 5722.19 823.566   4
   0  -3 -15 5789.79 786.922   7
   0   3 -15 7480.01 1266.29   9
   0   3  15 6281.86 598.305   2
   0   3  15 6552.03 991.050   1
   0  -3  15 6220.58 1008.05   1
   0  -3 -15 5765.17 923.028   9
   0  -3  16 31306.0 2015.89   1
   0  -3 -16 30270.2 1644.78   7
   0   3 -16 26835.9 1953.54   9
   0   3  16 30425.2 1933.10   3
   0  -3 -16 31707.8 1924.54   9
   0   3  16 30221.6 1870.41   1
   0   3  16 29880.9 1659.72   4
   0   3  16 29171.5 1284.09   2
   0   3  17-370.026 734.354   3
   0   3 -17-178.238 923.752   9
   0   3  17 890.145 705.601   1
   0  -3  17 164.728 685.702   1
   0  -3 -17-411.676 836.564   9
   0   3  17 1818.73 684.575   4
   0  -3 -17-195.593 518.733   7
   0   3  17-76.1775 396.798   2
   0   3 -18 14709.7 1683.70   9
   0  -3 -18 15018.9 1486.10   9
   0   3  18 13467.0 1223.20   4
   0   3  18 17151.8 1544.91   3
   0  -3  18 13426.4 1483.38   1
   0  -3 -18 12716.3 1185.30   7
   0   3  18 15279.3 1489.88   1
   0   3  18 14605.3 987.983   2
   0   3  19 11863.9 918.003   2
   0  -3 -19 10677.8 1312.02   9
   0   3 -19 10849.0 1584.47   9
   0   3  19 11798.6 1360.78   1
   0  -3  19 12767.5 1477.41   1
   0   3  19 11631.7 1176.22   4
   0   3  19 10710.9 1316.83   3
   0  -3 -19 10126.7 1169.55   7
   0   3  20 6866.66 778.104   2
   0   3 -20 9184.30 1641.13   7
   0   3 -20 6030.62 1347.54   9
   0  -3 -20 6838.61 1053.82   7
   0  -3  20 6536.18 1237.52   1
   0   3  20 7618.79 1057.86   4
   0   3  20 8428.39 1257.70   3
   0   3  20 9300.33 1294.41   1
   0  -3 -20 6687.89 1138.09   9
   0   3  21 1282.09 831.197   1
   0  -3 -21 1153.18 845.171   9
   0  -3 -21-69.6974 697.883   7
   0   3  21 1089.79 895.106   3
   0   3 -21-1392.10 1155.67   7
   0  -3  21 1001.05 1060.44   1
   0   3 -21 1667.22 1200.76   9
   0   3  21-328.343 771.406   4
   0  -3 -22 4274.95 1189.80   9
   0   3 -22 6599.90 1422.57   7
   0   3  22 6681.53 1150.65   3
   0   3  22 6587.54 1284.04   1
   0  -3  22 5336.22 1261.53   1
   0   3  22 6004.09 1064.45   4
   0   3 -22 5217.99 1245.60   9
   0  -3 -22 5200.53 1036.45   7
   0   3 -23-2265.99 1330.87   9
   0  -3 -23-949.957 879.703   7
   0   3 -23-2094.95 1375.67   7
   0   3  23 713.182 821.095   3
   0   3  23-1158.58 1034.27   1
   0  -3  23 1667.22 1098.24   1
   0  -3 -23 587.234 1020.62   9
   0   3  23 1261.97 736.398   4
   0  -3 -24 2039.74 1204.19   9
   0   3 -24-554.081 1246.82   9
   0   3  24 1362.00 827.133   3
   0  -3 -24 2074.41 965.925   7
   0   3  24-513.462 884.430   4
   0  -3  24 1159.52 1176.79   1
   0   3 -24 796.806 1021.10   7
   0  -3  24 1309.22 1130.17   2
   0   3  24-1293.34 901.697   1
   0  -3 -25 46.6686 792.933   7
   0  -3  25 1258.68 1072.67   2
   0   3  25-991.550 796.487   3
   0  -3  25-676.943 1119.14   1
   0   3 -25-342.940 1287.08   9
   0   3 -25-2041.75 1344.99   7
   0   3  25 549.354 1104.83   1
   0  -3 -25 230.660 1118.46   9
   0   3  25 192.793 796.743   4
   0  -3  26 5678.25 1402.04   1
   0   3  26 4230.94 1085.14   4
   0   3  26 2885.79 1072.32   3
   0  -3 -26 4117.89 1118.84   7
   0   3  26 5766.09 1286.57   1
   0   3 -26 3246.74 1389.42   7
   0   3 -26 2749.28 1401.64   9
   0  -3  26 6293.31 1556.42   2
   0  -3 -26 2966.33 1140.36   9
   0  -3 -27 167.043 817.341   7
   0  -3  27-715.425 1324.97   2
   0  -3 -27-2700.18 1402.96   9
   0   3  27 3449.78 1356.69   1
   0   3 -27-1023.32 1457.26   9
   0   3  27 2822.38 1107.31   4
   0  -3  27 85.7678 1003.93   1
   0   3 -27 1519.92 1242.97   7
   0  -3 -28-338.837 903.641   7
   0  -3  28 1563.80 1251.56   2
   0  -3 -28 2596.26 1493.79   9
   0  -3  28-1477.50 1161.29   1
   0   4   0 389083. 7810.41   4
   0  -4   0 387081. 7685.96   1
   0   4   0 366082. 7399.06   7
   0   4  -1 27421.4 1238.11   7
   0   4   1 28828.9 1175.59   7
   0  -4  -1 28382.3 1312.10   4
   0  -4   1 28096.6 1381.45   1
   0   4  -1 29151.8 1431.43   4
   0  -4  -1 27240.9 1096.85   2
   0   4   1 27369.5 1353.04   4
   0  -4  -2 291006. 5594.70   2
   0  -4  -2 290196. 6188.90   4
   0   4  -2 287799. 6196.48   7
   0   4   2 306791. 6284.36   4
   0   4   2 290898. 5886.27   7
   0  -4   2 307529. 6397.39   1
   0   4  -2 301366. 6561.96   4
   0  -4   3 136185. 3594.37   1
   0  -4  -3 134820. 3371.08   4
   0   4   3 128770. 3074.78   7
   0  -4  -3 131749. 2656.76   2
   0   4   3 131146. 3380.93   4
   0   4  -3 134429. 3745.74   4
   0  -4  -3 131928. 3132.81   7
   0   4  -4 54885.1 2236.40   4
   0  -4   4 56292.6 2104.66   1
   0  -4  -4 51515.9 1141.19   2
   0   4   4 56331.1 1907.50   4
   0  -4  -4 52884.8 1677.50   7
   0   4   4 54807.9 1667.90   7
   0  -4  -5 192854. 4209.19   7
   0   4   5 188935. 4471.50   4
   0   4   5 196004. 4230.39   7
   0  -4   5 207774. 4895.87   1
   0   4  -5 200141. 5096.64   4
   0  -4   6 107841. 3213.15   1
   0  -4  -6 100330. 2627.00   7
   0   4   6 104649. 2673.49   7
   0   4  -6 107895. 3452.16   4
   0   4   6 107021. 2911.08   4
   0   4   7 19867.0 993.205   7
   0  -4  -7 19778.8 990.196   7
   0  -4   7 18607.3 1294.50   1
   0   4   7 19198.0 1103.00   4
   0   4  -7 21434.0 1495.71   4
   0   4  -7 20434.0 1405.65   9
   0  -4  -8 164933. 4162.64   9
   0   4   8 158701. 3979.24   4
   0   4  -8 162204. 4556.56   9
   0  -4   8 168450. 4452.01   1
   0  -4  -8 161121. 3742.73   7
   0   4  -8 161091. 4652.58   4
   0   4   8 163027. 3812.75   7
   0   4  -8 155563. 4150.68   6
   0   4  -9 99943.3 3045.68   6
   0   4  -9 99791.5 3551.20   4
   0  -4  -9 105441. 2796.38   7
   0  -4   9 100694. 3325.56   1
   0   4  -9 107701. 3535.60   9
   0   4  -9 103127. 2435.15   3
   0   4   9 108193. 2882.52   7
   0   4   9 102465. 2962.51   4
   0  -4  -9 107782. 3180.80   9
   0   4 -10 16105.1 1048.66   6
   0   4 -10 16661.4 733.763   3
   0  -4 -10 16995.7 1028.86   7
   0  -4  10 16449.6 1288.58   1
   0   4  10 17562.8 1144.49   4
   0  -4 -10 17786.9 1252.94   9
   0   4 -10 16567.8 1421.70   9
   0   4 -10 15989.9 1421.00   4
   0   4 -11 1575.30 256.773   3
   0  -4 -11 1458.99 442.092   7
   0   4 -11 1047.67 748.068   9
   0  -4 -11 3051.31 755.235   9
   0  -4  11 1914.83 698.024   1
   0   4 -11 1978.26 434.410   6
   0   4  11 1371.87 489.529   4
   0   4 -12 33328.6 1461.31   6
   0   4 -12 35049.8 1056.65   3
   0  -4 -12 35880.7 1849.51   9
   0  -4  12 37916.6 2053.38   1
   0  -4 -12 36508.4 1581.86   7
   0   4 -12 36862.0 2141.20   9
   0   4  12 35354.8 1671.15   4
   0   4 -13 19824.4 1047.45   6
   0   4  13 18554.1 1250.46   4
   0  -4 -13 17816.4 1413.40   9
   0  -4  13 21096.7 1627.49   1
   0  -4 -13 19973.8 1207.30   7
   0   4 -13 19439.3 1656.14   9
   0   4 -13 18416.0 685.910   3
   0  -4  14-860.152 792.240   1
   0  -4 -14 524.175 702.809   9
   0   4  14-244.479 526.594   4
   0   4 -14-746.246 980.507   9
   0  -4 -14-320.194 524.217   7
   0   4 -14-28.4457 323.472   6
   0   4 -15 33230.2 2265.91   9
   0   4  15 30133.0 789.303   2
   0  -4 -15 33357.1 1930.84   9
   0  -4  15 37385.7 2184.71   1
   0   4  15 32525.8 1724.39   4
   0  -4 -15 31147.7 1623.59   7
   0   4  16 19411.8 1731.13   3
   0   4 -16 19196.8 1800.28   9
   0  -4 -16 18030.5 1288.95   7
   0  -4  16 19936.7 1697.98   1
   0  -4 -16 21912.3 1628.40   9
   0   4  16 19299.2 1391.33   4
   0   4  16 19156.2 659.598   2
   0   4  17-651.382 691.274   4
   0  -4  17 51.6131 705.921   1
   0   4 -17 119.534 948.516   9
   0  -4 -17 188.984 591.090   7
   0  -4 -17 1456.74 864.369   9
   0  -4 -18 38480.0 1961.81   7
   0   4  18 36780.3 2377.33   3
   0   4  18 37632.2 2044.68   4
   0  -4 -18 38165.7 2328.07   9
   0   4 -18 40432.7 2644.17   9
   0  -4  18 39443.4 2445.67   1
   0  -4  19 24351.6 1968.94   1
   0  -4 -19 22409.6 1858.79   9
   0   4  19 22171.2 1924.96   3
   0   4  19 22677.2 1651.97   4
   0  -4 -19 22504.4 1561.56   7
   0   4 -19 24521.3 2224.84   9
   0   4 -20 4029.80 1364.95   9
   0  -4 -20 4568.68 1177.28   9
   0   4  20 2269.52 851.122   4
   0  -4 -20 2763.52 834.476   7
   0   4  20 3420.20 1036.96   3
   0  -4  20 4971.76 1233.23   1
   0   4 -21 10340.0 1685.60   9
   0   4  21 11968.5 1538.09   3
   0  -4  21 11052.5 1568.65   1
   0   4  21 10385.0 1253.72   4
   0   4 -21 8970.93 1597.97   7
   0  -4 -21 10986.5 1255.77   7
   0  -4 -21 10748.6 1568.76   9
   0  -4 -22 15507.6 1475.02   7
   0  -4  22 17092.2 1937.83   1
   0   4 -22 20609.2 2199.79   9
   0   4  22 18236.6 1618.13   4
   0   4  22 17645.2 1806.24   3
   0  -4 -22 16544.8 1843.88   9
   0   4 -22 16169.8 1965.58   7
   0  -4 -23-205.758 749.790   7
   0  -4  23 678.908 1282.85   2
   0   4 -23 753.613 1278.83   9
   0   4  23 1480.23 987.291   3
   0  -4  23-692.367 852.619   1
   0  -4 -23-1550.44 1156.54   9
   0   4  23 152.430 768.626   4
   0   4 -23-908.248 1352.33   7
   0  -4  24 6018.42 1609.47   2
   0   4 -24 5599.84 1428.30   7
   0   4  24 6277.34 1180.92   4
   0   4 -24 5124.81 1386.95   9
   0  -4 -24 6291.77 1191.79   7
   0  -4  24 2806.07 1071.35   1
   0  -4 -24 5110.58 1452.97   9
   0   4  24 4766.77 1208.56   3
   0  -4  25 509.115 910.371   1
   0   4  25-667.999 1065.41   3
   0   4 -25 253.167 1217.68   7
   0  -4 -25 598.774 1152.41   9
   0   4  25 625.258 865.438   4
   0   4 -25 3235.67 1195.92   9
   0  -4  25 638.860 1327.26   2
   0  -4 -25-118.336 736.914   7
   0   4 -26 2197.42 1583.47   7
   0  -4  26 3076.08 1154.41   1
   0  -4 -26 337.979 1070.57   9
   0   4  26 1922.87 997.415   4
   0   4  26 919.585 1132.33   3
   0  -4  26 149.486 1265.33   2
   0   4 -26 1706.47 1510.10   9
   0   4  27 1374.54 943.850   3
   0  -4  27 1261.49 1135.89   2
   0  -4 -27 3673.08 1245.55   9
   0  -4  27 1182.35 1009.32   1
   0   5   0-302.076 604.332   4
   0  -5   0 154.829 366.561   2
   0  -5   0 509.654 545.210   1
   0   5   1 84657.9 2535.58   7
   0  -5  -1 88822.8 2440.10   2
   0   5  -1 92156.8 3049.99   4
   0   5   1 93307.6 2978.05   4
   0  -5   1 89119.5 2906.47   1
   0  -5  -1 89945.1 2870.98   1
   0  -5  -2 3905.05 450.764   2
   0  -5   2 3719.20 767.596   1
   0   5  -2 4318.05 743.413   4
   0   5   2 2719.91 657.713   4
   0   5   2 3282.17 482.255   7
   0   5   3 23299.9 1388.68   4
   0  -5  -3 24429.2 902.826   2
   0  -5   3 27022.5 1530.84   1
   0   5  -3 23196.7 1543.48   4
   0   5   3 25430.1 1189.58   7
   0  -5   4 24101.3 1513.59   1
   0  -5  -4 25878.0 1226.17   7
   0   5   4 24728.7 1399.74   4
   0   5  -4 25207.6 1644.20   4
   0  -5  -4 23900.6 752.422   2
   0   5   4 23478.1 1147.20   7
   0  -5  -5 202097. 4536.09   7
   0   5   5 207368. 4923.15   4
   0   5   5 201150. 4509.12   7
   0   5  -5 215999. 5551.08   4
   0  -5  -5 194951. 3526.23   2
   0  -5   5 213187. 5268.18   1
   0  -5  -6 187.532 389.198   7
   0  -5   6-41.8897 658.426   1
   0   5   6-180.515 359.540   7
   0   5  -6 895.880 625.944   4
   0   5   6 243.758 527.628   4
   0   5   7 117525. 3389.15   4
   0  -5   7 118988. 3751.08   1
   0   5  -7 121331. 4004.89   4
   0  -5  -7 116322. 3085.27   7
   0   5   7 117512. 3100.41   7
   0   5  -8 2089.45 969.083   4
   0  -5   8 661.384 700.201   1
   0  -5  -8 516.349 411.971   7
   0   5   8 676.811 558.372   4
   0  -5  -9 8632.10 767.738   7
   0   5  -9 9611.90 1270.87   4
   0  -5   9 8038.45 1077.69   1
   0  -5  -9 8982.34 996.604   9
   0   5   9 8954.61 895.484   4
   0   5 -10 187.265 268.939   3
   0  -5  10 113.525 704.556   1
   0  -5 -10 445.312 660.369   9
   0   5  10 420.356 545.882   4
   0   5 -10 395.552 874.549   9
   0   5 -10-229.740 867.179   4
   0  -5 -10 611.501 442.792   7
   0   5  11 159230. 4308.55   4
   0   5 -11 161186. 4959.24   9
   0  -5 -11 155095. 4485.05   9
   0  -5 -11 158079. 3976.64   7
   0   5 -11 168851. 5134.58   4
   0   5 -11 152687. 3431.97   3
   0  -5  11 157844. 4771.42   1
   0  -5 -12 7044.62 805.625   7
   0   5 -12 7503.21 519.670   3
   0  -5  12 6826.15 1128.20   1
   0  -5 -12 7504.41 1038.44   9
   0   5 -12 7652.31 1236.32   9
   0   5  12 6359.69 888.087   4
   0   5 -12 7942.78 1212.15   4
   0  -5 -13 114988. 3840.96   9
   0  -5  13 116517. 4047.82   1
   0   5  13 108609. 3508.87   4
   0  -5 -13 114142. 3303.34   7
   0   5 -13 115145. 4232.92   9
   0  -5 -14 858.031 820.253   9
   0   5  14 2827.59 751.653   4
   0  -5  14 1046.26 757.921   1
   0  -5 -14 1152.60 523.587   7
   0   5 -14 1970.77 872.465   9
   0  -5  15 4997.08 1038.55   1
   0  -5 -15 3999.67 675.302   7
   0   5 -15 3833.20 946.435   9
   0   5  15 5827.23 941.348   4
   0  -5 -15 5026.13 1083.70   9
   0  -5  16 5009.64 1161.79   1
   0  -5 -16 4616.20 780.702   7
   0   5 -16 5312.57 1215.44   9
   0  -5 -16 3882.29 1017.99   9
   0   5  16 3998.45 816.315   4
   0   5  16 5713.16 1425.54   3
   0   5  17 26418.8 1724.43   4
   0   5 -17 24674.1 2144.33   9
   0  -5 -17 25103.3 1578.59   7
   0  -5  17 27303.4 2112.54   1
   0   5  17 25742.0 2160.49   3
   0  -5 -17 22213.4 1810.71   9
   0   5 -18 65.7979 1040.63   9
   0  -5  18 803.489 824.092   1
   0  -5 -18 190.322 929.053   9
   0   5  18-779.083 997.989   3
   0   5  18 956.401 770.088   4
   0  -5 -18 410.385 600.713   7
   0   5  19 7389.88 1406.27   3
   0   5  19 7540.02 1091.63   4
   0  -5  19 7915.82 1460.95   1
   0   5 -19 7104.72 1438.95   9
   0  -5 -19 7789.15 994.825   7
   0  -5 -19 9245.98 1400.52   9
   0  -5 -20 505.246 903.936   9
   0  -5 -20-433.384 676.824   7
   0   5  20 6.38864 756.967   4
   0  -5  20 1068.45 905.739   1
   0   5  20 692.831 1113.87   3
   0   5 -20-1612.48 990.321   9
   0   5 -21 2691.90 1325.22   9
   0   5  21 738.751 702.905   4
   0  -5  21 385.732 1101.20   1
   0  -5 -21 1715.26 1119.52   9
   0  -5 -21 238.952 680.210   7
   0   5  21 927.295 979.347   3
   0   5  22 6826.40 1143.60   4
   0  -5 -22 7813.82 1138.46   7
   0  -5  22 7633.74 1700.14   2
   0   5  22 7466.00 1352.76   3
   0  -5 -22 6148.78 1372.78   9
   0  -5  22 8310.73 1563.21   1
   0   5 -22 7726.81 1651.55   9
   0  -5  23 1401.04 997.605   1
   0  -5 -23 1242.42 1134.77   9
   0   5  23 735.180 1031.88   3
   0   5  23 973.803 841.285   4
   0   5 -23 1036.63 1361.14   9
   0   5 -23 3524.43 1598.24   7
   0  -5  23 1976.36 1467.69   2
   0   5  24 2127.10 1232.68   3
   0   5 -24 338.009 1086.78   7
   0  -5  24 3732.62 1557.91   2
   0  -5  24 384.809 997.287   1
   0   5  24-871.709 819.083   4
   0  -5 -24 2455.53 1245.28   9
   0   5 -24 2301.53 1435.64   9
   0   5 -25 3586.92 1525.83   9
   0   5  25 2024.50 1243.34   3
   0  -5 -25 3462.37 1264.79   9
   0  -5  25 1746.13 1257.61   1
   0   5 -25 3938.03 1554.93   7
   0  -5  25 2095.30 1387.98   2
   0  -5  26 301.194 1135.01   1
   0  -5 -26 632.569 1098.79   9
   0   5  26 1075.68 1165.31   3
   0   5  27-812.054 1157.32   3
   0   6   0 447357. 9569.88   4
   0  -6   0 449998. 9467.05   1
   0   6  -1 16860.9 1469.46   4
   0  -6  -1 14043.8 934.425   2
   0  -6   1 16057.6 1319.20   1
   0  -6  -1 14460.3 1298.17   1
   0  -6   1 15004.7 1100.73   2
   0   6   1 16734.2 1383.18   4
   0  -6   2 37137.3 1776.12   2
   0   6   2 38198.0 1974.45   4
   0  -6   2 40381.6 2045.18   1
   0  -6  -2 35956.0 1363.82   2
   0  -6  -2 37311.5 1921.58   1
   0   6  -2 40829.2 2179.52   4
   0   6  -3 16627.1 1496.85   4
   0   6   3 15354.1 1309.03   4
   0  -6  -3 16312.7 793.111   2
   0  -6   3 16472.3 1392.42   1
   0  -6  -4 31344.0 996.577   2
   0  -6   4 30955.4 1877.04   1
   0   6  -4 32976.8 2089.96   4
   0   6   4 31655.0 1760.61   4
   0   6   5 27154.3 1630.15   4
   0   6  -5 27175.3 1930.54   4
   0  -6  -5 25815.6 725.820   2
   0  -6   5 29134.7 1814.97   1
   0   6  -6 148775. 4785.64   4
   0  -6  -6 142232. 3776.21   7
   0   6   6 136167. 4097.83   4
   0  -6   6 146335. 4479.26   1
   0   6   7 619.541 661.461   4
   0  -6   7 230.219 745.634   1
   0  -6  -7 173.971 436.981   7
   0   6   8 15839.9 1298.62   4
   0  -6  -8 17684.2 1115.41   7
   0  -6   8 18686.0 1549.37   1
   0   6  -8 18101.8 1648.52   4
   0   6  -9 2480.27 877.185   4
   0  -6   9 1697.12 732.611   1
   0  -6  -9 2689.00 560.307   7
   0   6   9 1436.70 657.070   4
   0  -6 -10 15512.2 1100.92   7
   0   6 -10 16554.8 1726.11   4
   0   6  10 16691.9 1349.76   4
   0  -6  10 15772.0 1486.40   1
   0  -6 -10 12687.4 1297.73   9
   0   6  11 1210.63 736.458   4
   0  -6  11 1496.51 826.289   1
   0  -6 -11-339.948 683.264   9
   0   6 -11-874.072 995.986   4
   0  -6 -11-31.9485 516.158   7
   0   6  12 36340.8 1987.29   4
   0   6 -12 37381.6 2417.34   4
   0  -6 -12 34331.0 1676.60   7
   0  -6  12 37449.9 2285.50   1
   0  -6 -12 34293.6 2065.81   9
   0  -6 -13 844.513 798.657   9
   0  -6  13 2542.51 937.886   1
   0  -6 -13 1127.70 569.535   7
   0   6 -13 8.27008 1042.91   4
   0   6  13 1156.75 751.601   4
   0  -6  14-581.530 799.840   1
   0   6  14 266.379 668.560   4
   0  -6 -14 991.495 559.997   7
   0   6 -14-814.409 764.607   9
   0  -6 -14 487.720 797.363   9
   0  -6  15 1802.13 903.707   1
   0   6 -15 1622.41 1068.18   9
   0  -6 -15 314.954 770.743   9
   0  -6 -15 182.972 525.044   7
   0   6  15 365.292 708.195   4
   0   6 -16 13125.3 1705.58   9
   0  -6 -16 16015.5 1583.37   9
   0   6  16 11393.1 1652.71   3
   0   6  16 15770.4 1462.86   4
   0  -6  16 15265.2 1628.88   1
   0  -6 -16 14909.4 1249.49   7
   0  -6 -17 685.195 652.027   7
   0   6  17 472.082 1120.21   3
   0   6 -17 1835.09 1024.89   9
   0  -6  17-1146.25 1096.93   1
   0  -6 -17 245.612 923.920   9
   0   6  17 135.612 703.055   4
   0  -6  18 19553.8 1946.23   1
   0  -6 -18 17843.5 1416.07   7
   0  -6 -18 21363.4 1884.35   9
   0   6 -18 19069.0 2077.17   9
   0   6  18 17272.1 1532.41   4
   0   6  18 20168.1 2169.19   3
   0  -6  19 3550.40 1109.81   1
   0   6  19 5580.38 1009.85   4
   0  -6 -19 5708.15 1362.87   9
   0  -6 -19 4455.77 871.775   7
   0   6  19 5513.95 1408.24   3
   0   6 -19 5191.03 1477.33   9
   0   6  20 1213.59 866.381   4
   0  -6  20 734.829 1233.92   2
   0   6  20-820.073 1230.29   3
   0  -6  20 193.647 1086.51   1
   0   6 -20 744.007 1099.36   9
   0  -6 -20-119.547 869.495   9
   0  -6 -21 8601.31 1535.16   9
   0   6  21 6342.42 1442.67   3
   0  -6  21 6710.96 1616.16   2
   0   6 -21 4571.26 1351.48   9
   0  -6  21 6708.09 1405.02   1
   0   6  21 8199.13 1201.51   4
   0  -6  22 2996.04 1262.44   1
   0  -6 -22 3395.93 1267.89   9
   0   6  22 3964.88 1234.12   3
   0   6  22 4233.31 1033.23   4
   0   6 -22 5074.84 1640.44   9
   0  -6  22 5391.28 1656.00   2
   0  -6  23 1799.76 1324.70   1
   0   6 -23-63.0360 1354.51   9
   0  -6  23 1258.09 1211.90   2
   0   6  23 455.169 774.323   4
   0   6  23 428.655 1224.19   3
   0  -6 -23-1501.05 1141.63   9
   0   6  24 7156.32 1600.34   3
   0  -6  24 7918.04 1685.28   2
   0   6 -24 8501.66 1878.48   7
   0   6 -24 9829.88 1970.41   9
   0  -6 -24 5869.81 1385.63   9
   0  -6  24 7286.02 1454.41   1
   0  -6  25 173.111 996.131   1
   0   6  25 285.920 989.519   3
   0  -6 -25 1613.06 1187.32   9
   0  -7   0 549.539 727.839   1
   0   7   0-661.417 743.325   4
   0  -7   0-28.7140 459.433   2
   0   7  -1-1094.79 890.560   4
   0  -7  -1 808.826 485.009   2
   0  -7   1 276.403 504.969   2
   0  -7   1 960.567 715.164   1
   0   7   1-456.705 825.486   4
   0  -7  -1 196.327 732.915   1
   0  -7   2 25198.5 1544.85   2
   0   7  -2 26207.8 1903.60   4
   0   7   2 24148.8 1746.60   4
   0  -7  -2 26662.6 1814.26   1
   0  -7  -2 24513.2 1174.90   2
   0  -7   2 24032.2 1815.32   1
   0  -7   3 23698.1 1570.30   2
   0  -7   3 24683.4 1788.71   1
   0  -7  -3 24021.9 1723.03   1
   0   7   3 26073.8 1825.12   4
   0   7  -3 21374.2 1776.31   4
   0  -7  -3 22627.4 1016.01   2
   0   7   4 719.130 649.120   4
   0  -7   4 1446.68 731.056   1
   0  -7   4 1741.78 763.136   2
   0  -7  -4 915.777 269.467   2
   0   7  -4 514.198 869.245   4
   0  -7   5 26098.9 1755.71   2
   0   7   5 27277.7 1805.77   4
   0   7  -5 27297.5 2070.84   4
   0  -7  -5 25040.1 775.662   2
   0  -7   5 28269.0 1948.45   1
   0  -7   6 5117.86 1101.74   1
   0   7  -6 1908.55 864.548   4
   0   7   6 4150.45 947.751   4
   0  -7   6 3172.60 820.654   2
   0   7  -7 15892.3 1707.26   4
   0  -7   7 17768.1 1616.52   1
   0  -7   7 17150.7 1588.25   2
   0   7   7 17703.1 1499.30   4
   0  -7  -8 55301.2 2249.04   7
   0   7   8 57782.0 2656.41   4
   0  -7   8 63467.6 2957.53   1
   0   7  -8 58639.4 3081.42   4
   0   7   9 316.029 677.460   4
   0  -7   9 1179.36 845.110   1
   0  -7  -9-332.238 584.170   7
   0   7  -9-135.882 975.689   4
   0  -7 -10 41513.0 1914.03   7
   0   7 -10 38425.5 2574.06   4
   0  -7  10 35785.0 2316.88   1
   0   7  10 40931.8 2226.19   4
   0   7  11 3168.57 820.216   4
   0   7 -11 3316.23 1174.79   4
   0  -7  11 3438.70 992.197   1
   0  -7 -11 3849.64 719.906   7
   0  -7 -11 3952.18 949.097   9
   0  -7 -12 209.200 539.095   7
   0   7  12-458.477 678.831   4
   0  -7  12-1135.34 832.402   1
   0   7 -12 446.460 966.164   4
   0  -7 -12-206.834 764.515   9
   0   7  13 17203.0 1519.15   4
   0  -7  13 20508.3 1863.20   1
   0  -7 -13 15961.2 1218.60   7
   0   7 -13 17310.3 1959.23   4
   0  -7 -13 15093.7 1522.62   9
   0  -7 -14 15417.6 1624.15   9
   0  -7  14 15269.3 1669.09   1
   0   7  14 15242.6 1448.64   4
   0  -7 -14 14314.3 1207.60   7
   0  -7  15-1168.17 998.621   2
   0   7  15 942.377 687.270   4
   0  -7 -15 608.364 899.067   9
   0  -7 -15 264.246 587.793   7
   0  -7  15-977.405 1005.62   1
   0  -7  16 17929.9 1924.49   1
   0   7  16 17619.1 2142.33   3
   0  -7 -16 18110.1 1852.32   9
   0  -7  16 14800.3 1964.06   2
   0   7  16 14716.6 1473.82   4
   0  -7  17 4196.31 1159.29   2
   0   7  17 6444.17 1579.62   3
   0  -7 -17 4537.66 1134.87   9
   0  -7  17 2574.22 1066.06   1
   0   7  17 4025.52 897.408   4
   0  -7  18 1734.62 1363.61   2
   0   7  18 1076.19 1188.46   3
   0  -7 -18 696.056 1099.05   9
   0  -7  18-308.526 961.159   1
   0   7  18-1114.53 913.043   4
   0  -7  19 2168.51 1184.33   1
   0   7  19 566.105 1140.89   3
   0  -7  19 49.2850 1103.61   2
   0   7  19 1354.04 865.844   4
   0  -7 -19-105.762 938.104   9
   0  -7 -20 2585.98 1326.62   9
   0   7  20 1084.54 1283.15   3
   0  -7  20 2438.67 1267.38   2
   0  -7  20 1269.55 1165.99   1
   0   7  20 1173.07 854.170   4
   0  -7  21 1960.95 1370.16   1
   0   7  21-329.163 904.595   4
   0  -7  21-936.709 1318.87   2
   0   7  21-258.318 1090.16   3
   0  -7 -21-1572.87 1139.67   9
   0  -7  22 1070.01 1336.04   2
   0  -7 -22 2543.12 1189.01   9
   0   7  22-1895.60 1536.90   3
   0  -7  22-319.614 1244.17   1
   0  -7  23 917.347 1106.35   1
   0  -7 -23 424.302 1227.73   9
   0  -8   0 5077.99 760.320   2
   0  -8   0 3968.45 1017.75   1
   0   8   0 4236.81 1019.66   4
   0  -8  -1 14816.4 1504.34   1
   0  -8   1 15288.3 1633.96   1
   0  -8   1 11845.8 1065.28   2
   0   8  -1 13889.2 1649.41   4
   0  -8  -1 12519.7 963.030   2
   0   8   1 15812.6 1621.35   4
   0   8  -2 681.138 983.094   4
   0   8   2 312.257 927.540   4
   0  -8   2 374.367 870.396   1
   0  -8  -2 649.298 429.705   2
   0  -8  -2 390.337 856.167   1
   0  -8   2 1158.47 665.826   2
   0  -8  -3 111446. 2861.81   2
   0  -8  -3 119429. 4289.05   1
   0  -8   3 121253. 4415.07   1
   0  -8   3 117245. 3842.59   2
   0   8   3 114253. 4262.35   4
   0   8  -3 117524. 4553.72   4
   0   8  -4 4584.18 1256.69   4
   0  -8   4 6961.73 1071.77   2
   0  -8   4 6946.82 1273.73   1
   0  -8  -4 5846.70 1185.94   1
   0   8   4 6309.47 1246.93   4
   0  -8   5 21313.6 1654.21   2
   0  -8  -5 18986.9 1718.11   1
   0   8   5 20565.7 1752.59   4
   0   8  -5 18653.0 1958.32   4
   0  -8   5 19552.3 1763.97   1
   0  -8   6 3748.52 914.917   2
   0   8  -6 3505.88 1144.41   4
   0   8   6 4427.66 1112.73   4
   0  -8   6 4074.90 1102.96   1
   0   8  -7 11002.6 1539.48   4
   0  -8   7 14167.0 1601.30   1
   0  -8   7 14283.7 1522.69   2
   0   8   7 15236.1 1605.67   4
   0   8   8 1434.29 876.701   4
   0  -8   8 1296.41 922.099   1
   0   8  -8 1603.71 1104.58   4
   0  -8   8 536.904 835.768   2
   0  -8   9 18054.9 1757.45   2
   0  -8   9 13897.4 1629.69   1
   0   8   9 14251.8 1482.81   4
   0   8  -9 13023.3 1752.50   4
   0  -8  10 332.356 854.238   2
   0   8  10 1133.27 890.005   4
   0  -8  10-339.577 832.484   1
   0   8 -10 893.704 868.329   4
   0   8  11 2520.24 828.029   4
   0   8 -11 1259.47 1046.93   4
   0  -8 -11 1098.80 950.629   9
   0  -8 -11 1941.16 661.694   7
   0  -8  11 1003.04 978.536   2
   0  -8  11 1796.17 896.987   1
   0  -8  12 558.154 950.329   2
   0  -8  12 869.582 979.039   1
   0   8 -12 617.398 1205.11   4
   0   8  12-21.9392 823.433   4
   0  -8 -12-358.843 810.814   9
   0   8 -13 12194.3 1833.76   4
   0  -8  13 10142.3 1563.32   2
   0   8  13 10112.3 1334.26   4
   0  -8  13 12107.4 1618.14   1
   0  -8 -13 9350.38 1353.76   9
   0  -8  14 1060.29 918.282   2
   0   8 -14 946.852 1029.63   4
   0  -8  14-1751.99 1229.76   1
   0   8  14-553.002 824.359   4
   0  -8 -14-446.242 1026.67   9
   0  -8 -15 9708.16 1512.18   9
   0  -8  15 12291.6 1820.85   2
   0  -8  15 9729.67 1453.61   1
   0   8  15 10219.1 1381.64   4
   0   8  16-597.584 803.029   4
   0  -8 -16 1487.86 1075.63   9
   0  -8  16 1438.06 1025.68   1
   0  -8  16 770.802 1184.65   2
   0   8  16-1415.31 1387.47   3
   0   8  17 309.544 853.688   4
   0   8  17 549.020 1419.92   3
   0  -8  17-352.073 1183.56   1
   0  -8  17 347.474 957.399   2
   0  -8 -17 2047.76 1198.92   9
   0   8  18 988.996 1009.95   4
   0  -8  18 321.339 1331.83   2
   0  -8 -18-984.452 958.144   9
   0   8  18 559.421 1142.46   3
   0  -8  18 1641.68 1071.30   1
   0  -8 -19 6806.16 1574.89   9
   0  -8  19 6783.98 1618.22   1
   0   8  19 4548.18 1145.45   4
   0  -8  19 6241.91 1461.13   2
   0   8  19 7189.61 1889.15   3
   0   8  20 2035.08 1522.06   3
   0  -8 -20-238.284 1037.11   9
   0  -8  20 70.5221 983.053   1
   0  -8  20 1280.66 1358.04   2
   0  -8  21 1649.26 1227.25   1
   0  -8 -21 2674.07 1291.25   9
   0   9   0 875.733 889.012   4
   0  -9   0-902.490 1073.30   1
   0  -9  -1 2973.97 1026.52   1
   0   9   1 2980.69 1069.00   4
   0  -9   1 2440.19 680.090   2
   0   9  -1 3233.03 1066.84   4
   0  -9   1 3796.70 1144.08   1
   0  -9   2 10774.2 1129.13   2
   0   9   2 9503.32 1464.26   4
   0  -9   2 11859.5 1610.64   1
   0   9  -2 10599.6 1543.00   4
   0  -9  -2 10559.6 1418.00   1
   0  -9   3 2696.66 1155.69   1
   0  -9   3 2311.62 752.007   2
   0  -9  -3 1865.08 1087.86   1
   0   9  -3 2316.21 953.316   4
   0   9   3 2535.46 1099.06   4
   0   9   4 17245.4 1851.34   4
   0   9  -4 13800.3 1775.63   4
   0  -9   4 17106.3 1516.54   2
   0  -9  -4 13448.5 1630.83   1
   0  -9   4 13946.1 1677.34   1
   0  -9   5 8415.17 1200.17   2
   0   9  -5 11285.2 1650.80   4
   0   9   5 9239.16 1433.81   4
   0  -9  -5 11582.3 1535.30   1
   0  -9   5 8799.60 1497.33   1
   0  -9  -6 637.322 929.012   1
   0  -9   6 1556.75 803.726   2
   0   9  -6 2112.06 1212.64   4
   0   9   6 2572.08 1020.21   4
   0  -9   6 1623.07 1006.03   1
   0  -9  -7 4639.41 1197.99   1
   0   9   7 6079.10 1366.15   4
   0   9  -7 9261.70 1697.93   4
   0  -9   7 5876.96 1130.21   2
   0  -9   7 7277.13 1332.26   1
   0  -9   8 7349.90 1344.52   1
   0   9   8 8780.29 1379.66   4
   0  -9   8 7009.82 1227.38   2
   0   9  -8 4444.48 1448.94   4
   0   9   9-1474.33 1105.80   4
   0  -9   9-86.8947 1037.79   1
   0  -9   9-829.437 1027.07   2
   0   9  -9 1610.67 1221.14   4
   0   9 -10 13083.6 1934.33   4
   0  -9  10 10607.7 1542.64   2
   0  -9  10 8147.34 1389.59   1
   0   9  10 12994.7 1676.79   4
   0   9 -11 12700.2 1863.15   4
   0   9  11 15191.9 1789.34   4
   0  -9  11 11726.5 1608.44   1
   0  -9  11 10218.0 1563.50   2
   0  -9 -11 12541.3 1577.87   9
   0   9 -12 1888.06 1341.10   4
   0  -9  12 13.1129 1102.19   1
   0  -9 -12-1646.09 1198.96   9
   0  -9  12-2026.20 1295.83   2
   0   9  12 598.753 995.254   4
   0   9  13 5768.98 1193.76   4
   0  -9  13 6566.36 1346.40   1
   0  -9 -13 8053.54 1502.11   9
   0  -9  13 6165.39 1452.20   2
   0   9 -13 7644.34 1664.05   4
   0  -9 -14 4756.93 1163.51   9
   0   9  14 3647.26 954.473   4
   0   9 -14 7249.85 1656.18   4
   0  -9  14 4172.53 1441.84   2
   0   9  14 5473.79 1612.14   3
   0  -9  14 5813.88 1462.46   1
   0  -9 -15 191.840 1132.89   9
   0   9  15 4199.21 1668.55   3
   0  -9  15 1191.57 1176.66   2
   0   9  15 231.643 839.572   4
   0  -9  15 509.873 1060.69   1
   0  -9  16 2988.84 1303.84   2
   0  -9 -16 1030.44 1030.07   9
   0   9  16 1803.08 981.126   4
   0  -9  16 3229.46 1253.89   1
   0   9  16 648.888 1529.58   3
   0  -9  17 734.564 1144.21   1
   0  -9  17-745.045 1113.21   2
   0  -9 -17-388.524 1228.60   9
   0   9  17-328.352 922.980   4
   0  -9  18 893.922 1123.89   1
   0  -9 -18 755.846 1050.74   9
   0 -10   0 22414.0 2211.68   1
   0  10   0 20714.9 2127.77   4
   0  10   1 629.251 1175.43   4
   0 -10   1 642.791 1182.69   1
   0 -10  -1 345.692 1011.77   1
   0  10  -1-753.768 1092.22   4
   0  10  -2 18536.3 2108.01   4
   0 -10  -2 16096.8 1871.59   1
   0 -10   2 16570.4 1890.98   1
   0  10   2 19167.5 2101.64   4
   0 -10   3 1779.75 1203.31   1
   0 -10  -3-1073.11 944.487   1
   0  10  -3 66.1530 1194.54   4
   0  10   3-159.475 907.926   4
   0 -10  -4 4023.07 1215.07   1
   0  10   4 3944.21 1243.79   4
   0  10  -4 4440.56 1491.07   4
   0 -10   4 8395.41 1488.51   1
   0 -10   5 5001.51 1349.98   1
   0  10   5 3172.31 1146.89   4
   0 -10  -5 2705.92 1104.29   1
   0  10  -6 16588.5 1981.75   4
   0 -10   6 15397.4 1516.19   2
   0 -10   6 15734.5 1904.85   1
   0 -10  -6 14468.3 1855.10   1
   0  10   6 15345.1 1860.69   4
   0  10  -7 2455.50 1233.10   4
   0  10   7 2170.82 1043.23   4
   0 -10   7 3601.17 1116.37   2
   0 -10   7 3520.27 1236.94   1
   0 -10  -7 3888.29 1385.65   1
   0 -10  -8 2917.18 1120.83   1
   0  10  -8 2785.64 1426.39   4
   0  10   8 3577.35 1292.08   4
   0 -10   8 4100.35 1291.28   1
   0 -10   8 2577.75 973.144   2
   0  10  -9 4031.11 1489.49   4
   0 -10  -9 4346.41 1366.55   1
   0 -10   9 3114.24 1010.68   2
   0  10   9 7844.89 1416.61   4
   0 -10   9 3013.29 1295.57   1
   0 -10 -10 452.105 932.035   1
   0 -10  10-125.798 1036.39   1
   0  10 -10-763.208 1358.58   4
   0  10  10-894.857 879.525   4
   0 -10  10 493.507 978.355   2
   0  10 -11-169.873 1343.00   4
   0 -10  11-163.136 1135.82   1
   0  10  11-1392.45 1031.33   4
   0 -10  11 887.957 892.168   2
   0 -10 -11 1479.04 1243.68   9
   0 -10  12 6656.28 1454.35   2
   0  10  12 5435.65 1337.17   4
   0  10 -12 8503.80 1891.99   4
   0 -10 -12 7003.79 1366.56   9
   0 -10  12 8523.28 1579.59   1
   0 -10  13-298.826 1009.95   1
   0  10  13 1531.11 1146.81   4
   0 -10  13-1244.25 1158.37   2
   0 -10 -13 1273.54 1227.79   9
   0 -10  14 610.703 1174.52   1
   0 -10  14 1396.38 1231.07   2
   0 -10 -14-120.491 953.978   9
   0  10  14 626.258 1095.70   4
   0 -10  15 4575.85 1471.60   2
   0  10  15 4658.91 1295.31   4
   0 -11   0-544.609 1262.94   1
   0  11   0 97.1387 1105.74   4
   0 -11  -1 3275.26 1413.08   1
   0  11  -1 6168.23 1631.60   4
   0 -11   1 5817.13 1597.31   1
   0  11  -2 616.093 1234.14   4
   0 -11   2-302.788 1183.09   1
   0  11   2 2159.69 1129.49   4
   0 -11  -2 1606.10 1284.70   1
   0 -11  -3 434.635 1215.19   1
   0 -11   3-790.656 1127.87   1
   0  11   3 641.011 1207.97   4
   0  11  -3-45.7638 983.852   4
   0  11  -4-1317.11 1325.25   4
   0  11   4-653.616 1128.26   4
   0 -11   4-1203.30 1070.33   1
   0 -11  -4 117.606 1055.47   1
   0  11   5 7695.31 1607.50   4
   0 -11   5 6827.20 1587.81   1
   0  11  -5 6312.63 1609.30   4
   0  11   6 872.274 1217.81   4
   0 -11   6 484.139 1286.36   1
   0  11   7 5124.38 1440.06   4
   0  11   8 3425.22 1215.58   4
   0  11   9 19.1322 1062.17   4
   0  11  10 1452.34 1181.98   4
   0  11  11 3737.75 1323.85   4
  -1   0   0 550.325 133.102   7
  -1   0   0 713.808 207.668   3
  -1   0   0 495.798 150.293   2
   1   0   0 730.118 168.764   2
   1   0   0 885.697 200.545   8
  -1   0   0 1048.59 209.136   8
   1   0   0 851.551 192.782   3
   1   0   0 738.391 143.730   7
   1   0  -1 26763.0 872.589   3
  -1   0  -1 26940.9 829.311   8
   1   0  -1 27428.3 794.541   2
  -1   0  -1 26598.9 763.209   7
  -1   0   1 25467.3 775.665   2
  -1   0   1 26121.9 702.010   7
  -1   0   1 28513.5 844.775   8
   1   0  -1 23547.7 681.821   7
   1   0   1 25371.7 683.942   1
   1   0   1 26186.8 824.363   3
   1   0  -1 22869.7 586.952   4
   1   0   1 26845.4 801.186   2
   1   0   1 25885.2 761.542   7
   1   0  -1 22819.3 622.796   9
  -1   0   1 28665.1 893.062   3
   1   0   1 26995.6 840.381   8
  -1   0  -1 26708.4 712.898   1
   1   0  -1 27257.7 839.454   8
   1   0   2 3956.68 235.391   9
  -1   0   2 4304.80 335.873   8
   1   0  -2 4430.25 277.097   9
  -1   0   2 4110.23 385.055   3
  -1   0  -2 3556.52 290.115   1
   1   0   2 4074.10 321.028   7
  -1   0   2 3734.92 304.211   2
   1   0  -2 4244.32 265.079   7
   1   0   2 3996.00 325.140   8
  -1   0   2 3403.14 245.889   9
   1   0   2 3976.34 297.797   1
   1   0  -2 4019.37 306.543   2
  -1   0  -2 3440.30 306.825   8
   1   0   2 4506.79 267.877   5
   1   0  -2 4127.14 374.485   3
  -1   0  -2 4641.65 255.568   9
  -1   0  -2 4086.87 320.898   7
  -1   0   3 291539. 5449.78   8
   1   0  -3 293659. 5444.28   9
   1   0  -3 298091. 5203.36   4
  -1   0  -3 306373. 5398.95   9
   1   0   3 294370. 5518.06   1
  -1   0  -3 297956. 5462.27   8
  -1   0   3 298780. 5192.31   1
   1   0   3 302844. 5581.74   7
   1   0   3 308765. 5239.60   5
  -1   0   3 290298. 5471.73   2
  -1   0   3 299078. 5658.47   3
  -1   0  -3 291233. 5542.81   7
   1   0  -3 292474. 5657.55   3
  -1   0   3 300419. 5451.84   9
   1   0  -3 302740. 5199.87   1
   1   0   3 285388. 5453.50   8
   1   0   3 293197. 5370.27   9
   1   0  -3 302789. 5509.16   2
  -1   0  -3 298243. 5542.57   1
   1   0   4 624812. 11113.9   1
   1   0   4 630028. 11162.4   7
  -1   0   4 665476. 10798.8   4
  -1   0   4 662962. 11065.4   2
   1   0  -4 609821. 11034.9   9
   1   0   4 624318. 10960.1   9
   1   0  -4 601719. 10770.1   1
  -1   0   4 608615. 11034.7   9
  -1   0  -4 626868. 11145.7   1
  -1   0   4 606135. 10895.9   8
  -1   0  -4 603974. 11133.3   7
   1   0  -4 651641. 11252.8   3
  -1   0   4 617360. 10757.6   1
   1   0  -4 614357. 10867.0   6
  -1   0  -4 638217. 10991.2   9
  -1   0  -4 625303. 10905.0   8
   1   0  -4 654275. 11087.6   2
  -1   0   4 646236. 11207.1   3
  -1   0   5 403586. 7421.44   2
  -1   0   5 389181. 7428.90   9
   1   0   5 404004. 7578.80   7
   1   0  -5 405260. 7474.93   2
  -1   0  -5 402030. 7173.60   8
  -1   0  -5 395803. 7525.05   7
   1   0  -5 400870. 7459.49   9
  -1   0  -5 405906. 7530.74   1
   1   0   5 400469. 7360.05   9
   1   0  -5 401611. 7183.84   1
  -1   0   5 406270. 7181.55   4
   1   0  -5 408375. 7132.21   6
  -1   0   5 399662. 7163.49   1
  -1   0   5 400647. 7525.52   3
   1   0  -5 398436. 7543.87   3
  -1   0   5 389990. 7164.55   8
   1   0   5 403022. 7516.86   1
  -1   0  -5 412574. 7408.74   9
   1   0   6 5371.70 503.615   1
   1   0  -6 5611.10 508.717   9
  -1   0   6 5547.68 495.000   2
  -1   0   6 5269.39 506.358   3
  -1   0   6 6264.81 432.865   1
  -1   0  -6 5591.43 369.965   8
  -1   0   6 5836.56 484.593   9
   1   0  -6 4153.83 449.406   2
   1   0  -6 6272.73 549.762   3
  -1   0   6 5796.48 371.581   8
  -1   0   6 5331.92 400.658   4
   1   0  -6 5774.89 430.920   1
  -1   0  -6 5430.00 523.105   7
   1   0   6 5508.93 449.994   9
   1   0  -6 5934.33 347.818   6
  -1   0  -6 5579.14 493.557   9
  -1   0  -6 5539.50 530.146   1
   1   0   6 5776.59 522.963   7
   1   0  -7 71073.6 1851.62   1
  -1   0  -7 71960.4 2004.06   9
   1   0   7 70422.2 2110.28   1
   1   0  -7 69811.9 2025.05   3
  -1   0   7 71542.4 2023.61   3
  -1   0   7 70137.5 1619.97   8
  -1   0   7 69088.5 1982.22   2
  -1   0  -7 67554.3 2086.17   7
  -1   0   7 70427.7 2028.24   9
   1   0  -7 71790.6 1594.70   6
   1   0   7 72137.4 2125.23   7
  -1   0  -7 68840.1 2084.86   1
   1   0  -7 68747.1 2031.80   9
  -1   0   7 69781.3 1830.66   1
  -1   0   7 67804.0 1793.00   4
   1   0   7 65583.3 1917.03   9
  -1   0   8 5216.62 494.164   1
   1   0  -8 4983.16 473.562   1
  -1   0   8 4955.58 463.802   4
  -1   0  -8 5699.33 648.654   7
  -1   0  -8 4335.38 520.794   9
   1   0   8 6297.36 610.147   7
   1   0  -8 5005.20 535.728   3
  -1   0   8 5266.74 572.656   2
   1   0   8 5022.98 578.634   1
   1   0   8 4354.71 494.254   9
  -1   0   8 5046.72 568.601   3
  -1   0   8 4350.47 519.171   9
   1   0  -8 4895.07 589.014   9
   1   0  -8 5096.38 340.340   6
  -1   0  -8 4672.26 554.307   1
  -1   0   8 5427.79 354.625   8
  -1   0  -9 83099.6 2438.36   9
  -1   0   9 81781.0 2437.24   9
  -1   0  -9 81899.9 2518.94   7
  -1   0  -9 82727.6 2496.76   1
   1   0  -9 88653.8 2536.65   9
   1   0   9 79233.9 2343.02   9
  -1   0   9 83145.7 2236.86   1
  -1   0   9 81024.5 2203.83   4
   1   0  -9 79800.8 2245.16   1
  -1   0   9 76275.7 2375.88   2
   1   0  -9 79937.4 2385.74   3
  -1   0   9 80989.6 2343.00   3
   1   0   9 83631.2 2517.36   1
  -1   0  10 50443.3 1719.85   4
  -1   0  10 55021.5 1862.68   3
  -1   0 -10 55486.9 1988.05   9
  -1   0  10 55774.8 1832.80   1
   1   0 -10 52568.8 2008.01   9
  -1   0 -10 53222.2 2019.86   7
   1   0 -10 53990.6 1914.86   3
   1   0  10 51340.2 1888.40   9
   1   0  10 54414.5 2021.81   1
  -1   0  10 53151.1 1930.50   2
   1   0 -10 55705.8 1826.36   1
   1   0 -11 113073. 3068.61   1
   1   0  11 118967. 3365.76   1
  -1   0 -11 122285. 3332.54   9
   1   0 -11 110191. 3154.13   3
  -1   0  11 114196. 3046.27   1
  -1   0  11 115822. 3097.19   3
  -1   0  11 109999. 2985.78   4
  -1   0  11 112268. 3255.95   2
  -1   0 -11 112721. 3315.05   7
   1   0 -11 122616. 3376.93   9
  -1   0  12 2274.71 601.436   2
   1   0  12 1588.85 569.841   1
  -1   0  12 1520.30 422.475   3
  -1   0 -12 1056.66 579.584   7
  -1   0 -12 3059.41 672.201   9
   1   0 -12 1675.21 567.520   9
  -1   0  12 1919.11 452.711   4
  -1   0  12 1518.66 492.088   1
  -1   0  13 43827.9 1956.46   2
  -1   0  13 43282.0 1815.62   1
  -1   0 -13 45176.2 2019.81   9
   1   0  13 44172.1 2045.05   1
  -1   0 -13 42143.1 1995.71   7
   1   0 -13 44930.1 2046.11   9
  -1   0  13 42352.2 1761.87   4
  -1   0  13 47672.9 1832.54   3
  -1   0  14 3330.24 693.991   1
  -1   0  14 2956.06 742.412   2
  -1   0 -14 3314.66 813.350   7
   1   0  14 2952.24 495.330   3
  -1   0 -14 3471.30 802.366   9
  -1   0  14 3183.71 576.106   3
   1   0 -14 3157.08 838.916   9
  -1   0 -14 3292.06 259.098   5
   1   0  14 4026.64 795.535   1
  -1   0  15 108693. 3401.85   1
   1   0 -15 112998. 3711.74   9
   1   0  15 114367. 3704.22   1
   1   0 -15 106644. 3546.53   7
  -1   0  15 112438. 3617.14   2
  -1   0 -15 113498. 3649.71   9
  -1   0 -15 108340. 3659.03   7
  -1   0  15 117691. 3360.48   3
  -1   0 -15 111452. 2293.09   5
   1   0  15 112931. 2960.17   3
   1   0  16 5384.61 1017.64   1
  -1   0 -16 5749.31 1077.33   7
   1   0 -16 5263.45 1001.39   9
  -1   0 -16 4741.04 324.319   5
  -1   0  16 4054.35 814.552   2
  -1   0  16 4611.70 771.426   3
   1   0  16 5620.99 448.303   6
   1   0 -16 4561.34 880.445   7
   1   0  16 5438.84 626.623   3
  -1   0 -16 4648.20 883.870   9
  -1   0  16 5009.02 848.467   1
  -1   0 -17 2194.66 248.280   5
  -1   0  17 2606.16 604.224   3
   1   0  17 1740.79 465.897   3
   1   0 -17 2386.42 832.615   7
  -1   0  17 3026.16 838.294   2
   1   0 -17 2993.96 1015.80   9
  -1   0  17 1318.56 705.359   1
  -1   0 -17 3731.59 885.174   9
  -1   0 -17 2516.15 757.821   7
   1   0  17 1788.05 860.305   1
   1   0  17 2282.76 322.930   6
  -1   0  18 4117.21 779.847   3
  -1   0 -18 4334.32 302.023   5
  -1   0  18 5777.40 962.724   1
   1   0  18 4840.79 638.633   3
   1   0  18 4700.42 368.509   6
   1   0 -18 4708.75 1015.06   9
   1   0 -18 4272.21 878.257   7
  -1   0 -18 5483.52 1121.16   7
  -1   0  18 4576.33 912.906   2
   1   0  18 3349.12 904.785   1
  -1   0 -19 31914.1 2128.77   9
   1   0 -19 29479.3 2083.75   9
   1   0 -19 32360.1 1661.86   5
   1   0  19 34069.2 2183.38   1
  -1   0  19 34623.9 1798.25   3
   1   0 -19 30633.2 2031.67   7
  -1   0  19 32263.2 2021.02   2
   1   0  19 31889.7 1492.81   3
  -1   0 -19 33872.4 2225.61   7
  -1   0  19 34195.5 2000.28   1
   1   0 -20 19071.5 1712.26   7
   1   0 -20 16979.4 1716.06   9
   1   0 -20 18698.3 1302.49   5
  -1   0  20 16855.9 1572.69   2
  -1   0 -20 21121.0 1865.32   9
   1   0  20 18814.5 1160.34   3
  -1   0 -20 17959.4 1730.94   7
  -1   0  20 18951.9 1611.27   1
   1   0  20 16885.7 1656.36   1
  -1   0  20 19646.5 1411.37   3
  -1   0  21 26009.2 1902.27   2
  -1   0 -21 22023.0 1948.49   7
   1   0 -21 26369.3 2034.30   7
   1   0 -21 29075.6 2228.13   9
   1   0  21 27684.0 1442.26   3
   1   0  21 29267.3 2181.26   1
  -1   0 -21 30574.5 2216.12   9
  -1   0  21 30628.8 2036.76   1
  -1   0  21 30002.5 1759.93   3
   1   0 -21 28177.5 1601.18   5
   1   0 -22 2830.01 1307.34   9
  -1   0 -22 4006.93 1066.27   7
   1   0 -22 588.282 866.386   7
  -1   0 -22 1418.49 902.911   9
  -1   0  22 3134.04 1037.11   1
   1   0 -22 2859.64 692.386   5
  -1   0  22 2196.47 854.800   2
  -1   0  22 2847.28 725.240   3
   1   0  22 2550.95 1154.71   1
  -1   0  23 1315.27 849.894   2
   1   0 -23 1014.16 646.036   5
   1   0 -23 2810.79 1196.75   9
  -1   0 -23 1190.80 882.620   9
   1   0  23 388.709 972.926   1
  -1   0  23 943.243 892.339   1
  -1   0 -23 1384.46 958.339   7
  -1   0  23 1582.88 661.791   3
   1   0 -23 2.68631 840.522   7
  -1   0 -24-585.349 992.994   9
   1   0 -24 414.997 943.926   7
   1   0 -24-954.267 1026.68   9
  -1   0  24 683.077 876.347   2
  -1   0  24-1757.28 1089.67   1
   1   0  24-1534.60 1039.00   1
  -1   0  24 169.989 655.454   3
  -1   0 -24 1140.08 1039.17   7
  -1   0  25 5947.01 1335.69   1
   1   0  25 3283.56 1108.12   1
  -1   0 -25 3306.51 1292.07   7
   1   0 -25 2030.99 1040.57   7
  -1   0  25 4040.54 1112.54   2
   1   0 -25 1968.35 1216.20   9
  -1   0 -25 3879.49 1238.97   9
  -1   0  26 1105.73 1058.52   1
   1   0  26-377.743 1142.78   1
  -1   0  26 1267.36 902.735   2
   1   0 -26 2230.15 1172.64   7
  -1   0 -26 1541.70 1130.56   7
   1   0 -26 3158.01 1449.11   9
  -1   0 -26 546.369 1063.52   9
  -1   0 -27 6830.65 1486.37   7
  -1   0  27 8484.45 1386.33   2
  -1   0  27 6102.04 1359.99   1
  -1   0 -27 9886.97 1705.61   9
   1   0  27 7846.41 1662.23   1
   1   0 -27 7491.10 1679.61   9
   1   0 -27 8128.88 1540.25   7
  -1   0 -28-111.672 1235.44   9
   1   0 -28-275.564 1143.37   7
   1   0 -28 1786.56 1141.76   9
  -1   0  28-1337.38 1138.96   1
   1   0  28-1806.09 1230.10   1
  -1   0 -28 718.636 1131.77   7
  -1   0  29-669.428 972.869   1
   1   0 -29 814.515 1224.68   7
  -1   0 -29 2400.49 1464.14   9
  -1   0 -29 1273.43 1058.49   7
   1   0 -30-1971.94 1280.58   7
   1  -1  29 385.537 1238.61   2
  -1   1  29 2734.50 1193.91   1
   1   1 -29 976.702 1252.88   7
  -1  -1 -29 470.462 1040.28   7
  -1  -1 -29-576.103 1132.20   9
  -1   1  28-1161.31 1049.25   1
   1   1 -28-717.527 1002.81   9
   1   1 -28 3783.36 1300.64   7
   1  -1  28-883.851 1099.11   1
  -1  -1 -28 1994.32 1051.34   7
  -1  -1 -28 1227.75 1301.03   9
  -1  -1 -27 974.931 993.036   7
   1  -1  27-253.353 1212.67   1
  -1   1  27 740.841 994.942   1
   1   1 -27 1148.11 1074.05   7
   1   1 -27 673.170 1081.94   9
  -1  -1 -27-1575.44 1266.44   9
   1   1 -26 2477.68 1168.78   9
  -1   1  26 4416.19 1270.18   1
  -1  -1 -26 3629.92 1091.10   9
   1  -1  26 3917.13 1151.02   1
   1   1 -26 4503.58 1431.47   7
  -1  -1 -26 2319.77 1103.29   7
  -1   1  25 875.648 809.661   2
  -1  -1 -25 2364.42 1038.54   7
   1   1 -25 1216.75 1002.02   9
   1  -1  25 3395.63 1308.98   1
  -1   1  25 884.201 990.343   1
  -1  -1 -25 3927.69 1284.47   9
   1   1 -25 2895.24 1237.22   7
  -1   1  25 391.390 719.524   3
  -1   1  24 2778.38 863.837   2
   1  -1  24 2186.70 1090.42   1
  -1  -1 -24 3122.26 1288.77   9
  -1  -1 -24 2008.72 1089.82   7
  -1   1  24 4546.64 975.566   3
   1   1 -24 3228.99 1128.24   9
   1   1 -24 5291.49 1282.94   7
  -1   1  24 4573.98 1229.45   1
   1   1 -23 1403.05 1172.48   7
   1   1 -23 1106.80 888.873   9
  -1  -1 -23-128.049 965.844   9
  -1   1  23 988.618 733.404   2
  -1  -1 -23 2450.55 1147.17   7
  -1   1  23 1178.07 964.864   1
  -1   1  23 2053.50 817.461   3
   1  -1  23 598.969 1002.04   1
  -1   1  22 8399.95 1121.52   3
  -1   1  22 10231.0 1281.79   1
   1   1 -22 8908.10 962.219   5
   1   1 -22 10046.7 1430.07   9
   1  -1  22 8901.82 1377.86   1
  -1   1  22 8736.87 1121.49   2
   1   1 -22 8337.01 1468.44   7
  -1  -1 -22 8706.60 1316.55   7
  -1  -1 -22 7337.63 1232.70   9
  -1  -1 -21-150.786 869.560   9
   1  -1  21 869.104 989.831   1
   1   1 -21-227.440 794.926   7
   1   1 -21 319.531 893.322   9
  -1   1  21 780.085 689.727   2
  -1   1  21 61.2289 621.686   3
  -1   1  21 719.908 867.584   1
  -1  -1 -21 496.196 936.724   7
   1   1 -21 594.628 492.126   5
  -1  -1 -20 14023.4 1486.43   7
   1   1 -20 13344.0 1541.58   7
  -1   1  20 13270.4 1292.85   3
   1   1 -20 15128.7 1151.07   5
  -1   1  20 14872.7 1454.04   1
   1  -1  20 15211.3 1628.26   1
  -1  -1 -20 17548.4 1682.85   9
  -1   1  20 15332.8 1350.51   2
   1   1 -20 13520.6 1667.81   9
   1  -1  20 14269.1 824.863   3
  -1  -1 -19 10161.8 1331.44   7
  -1   1  19 9612.50 1188.11   1
   1  -1  19 12700.3 1488.94   1
  -1  -1 -19 10399.9 1299.89   9
  -1   1  19 11582.4 1153.85   2
   1   1 -19 11843.5 1045.04   5
  -1   1  19 10819.0 1147.29   3
   1   1 -19 12003.7 1516.44   9
   1   1 -19 9867.48 1372.92   7
   1  -1  19 12126.7 749.327   3
   1   1 -18 798.845 467.894   5
   1  -1  18 1044.53 341.983   3
   1   1 -18 924.836 890.671   7
   1   1 -18 1542.79 991.716   9
  -1  -1 -18 482.305 691.760   7
  -1   1  18 267.832 568.092   2
  -1  -1 -18 2153.46 780.355   9
  -1   1  18 613.652 611.748   3
   1  -1  18 409.222 647.621   1
  -1   1  18 448.040 705.804   1
  -1   1  17 26726.1 1681.43   1
  -1   1  17 28573.1 1702.08   3
   1  -1  17 30153.0 1136.79   3
  -1  -1 -17 30302.5 1865.95   9
  -1  -1 -17 26801.9 1812.63   7
   1   1 -17 30683.6 2000.31   9
  -1   1  17 27316.5 1596.98   2
   1   1 -17 28440.3 1479.51   5
   1  -1  17 26619.7 847.049   6
   1  -1  17 31075.8 1980.66   1
  -1   1  16 31785.3 1651.23   2
  -1  -1 -16 33067.2 1898.24   9
   1  -1  16 31244.7 1140.76   3
   1   1 -16 30874.5 1539.48   5
  -1   1  16 32484.7 1751.67   3
   1  -1  16 29845.4 1914.21   1
  -1   1  16 31691.1 1744.02   1
   1   1 -16 32995.5 1986.98   9
  -1  -1 -16 32179.7 1892.17   7
   1  -1  16 29342.3 971.438   6
  -1   1  15 7721.28 438.397   6
  -1  -1 -15 8792.04 1039.96   9
  -1   1  15 8210.35 930.885   3
   1   1 -15 9041.94 1190.94   9
   1  -1  15 9034.49 578.092   3
   1  -1  15 7124.72 972.571   1
  -1  -1 -15 8044.73 1080.36   7
   1  -1  15 8588.09 523.102   6
   1   1 -15 8240.79 821.528   5
  -1   1  15 9081.58 967.469   1
  -1   1  15 6497.74 801.399   2
  -1  -1 -14 114985. 3483.19   9
   1   1 -14 101953. 3111.20   3
  -1  -1 -14 107025. 3458.10   7
  -1   1  14 113044. 2283.76   8
  -1   1  14 109562. 3291.93   1
  -1   1  14 111209. 3384.47   3
   1   1 -14 111383. 3104.92   5
   1  -1  14 110287. 2488.36   6
   1  -1  14 108795. 2495.39   3
  -1   1  14 109566. 3186.95   2
   1   1 -14 113002. 3665.29   9
  -1   1  14 107196. 2384.08   6
   1  -1  14 113584. 3675.57   1
   1  -1  13 88537.7 3082.55   1
  -1   1  13 85211.4 2816.88   3
   1   1 -13 82864.9 2999.53   9
  -1   1  13 88505.5 2783.90   1
   1  -1  13 90360.0 2110.15   6
   1   1 -13 87041.0 2600.16   5
   1   1 -13 79078.4 2578.15   3
  -1   1  13 85516.0 2632.28   2
  -1  -1 -13 90660.8 2959.32   7
  -1  -1 -13 92788.9 2937.34   9
  -1   1  13 84662.6 2025.03   6
   1  -1  13 85860.1 2035.62   3
  -1   1  13 90633.5 1956.82   8
  -1  -1 -12 22728.6 1337.36   9
  -1  -1 -12 24589.5 1422.78   7
   1  -1  12 26070.0 1533.88   1
   1   1 -12 24364.1 1513.94   9
   1   1 -12 26552.4 1260.15   5
  -1   1  12 26698.7 1349.27   1
   1  -1  12 22431.5 820.055   3
  -1   1  12 24134.5 1211.10   2
  -1   1  12 23821.1 877.463   6
  -1   1  12 23899.5 824.586   8
  -1   1  12 25727.3 1405.19   3
   1  -1  12 24710.2 915.603   6
   1   1 -12 22091.8 1192.75   3
   1  -1  11 130964. 2666.47   3
  -1   1  11 128512. 3549.74   3
  -1  -1 -11 132033. 3479.03   9
  -1   1  11 125199. 2814.74   6
   1   1 -11 124002. 3349.99   1
   1  -1  11 131737. 3707.26   1
   1   1 -11 136136. 3334.17   5
  -1   1  11 127155. 3223.37   2
  -1   1  11 130681. 3366.87   1
   1  -1  11 130541. 2857.26   6
   1   1 -11 129532. 3690.12   9
   1   1 -11 132440. 3326.77   3
  -1  -1 -11 130018. 3537.60   7
  -1  -1 -10 100144. 2900.64   7
   1   1 -10 105043. 3054.66   9
  -1  -1 -10 104501. 2833.63   9
   1   1 -10 96099.3 2714.72   1
   1  -1  10 98065.3 2086.47   3
   1   1 -10 97197.9 2181.41   8
  -1   1  10 97070.8 2313.57   6
   1   1 -10 96816.6 2662.84   3
  -1   1  10 102227. 2723.07   1
  -1   1  10 101319. 2929.50   3
   1  -1  10 102982. 2350.82   6
  -1   1  10 97739.6 2583.21   2
   1  -1  10 104966. 3073.90   1
   1   1 -10 102306. 2735.48   5
   1  -1   9 87633.1 2716.36   1
  -1  -1  -9 87791.8 2596.42   7
  -1   1   9 88202.9 2320.85   2
  -1  -1  -9 93043.6 2526.33   9
  -1   1   9 90585.2 2454.32   1
   1   1  -9 92692.7 2500.57   5
   1   1  -9 88522.0 2033.13   8
   1   1  -9 87313.3 1758.21   6
   1   1  -9 89529.0 2445.71   3
   1   1  -9 96852.6 2770.58   9
  -1   1   9 92952.0 2691.43   3
   1  -1   9 90831.6 2699.73   9
  -1   1   9 91156.6 2167.61   6
   1   1  -9 89656.5 2457.28   1
   1  -1   9 92193.4 2170.95   6
   1  -1   8 250733. 4848.08   6
  -1   1   8 244831. 4851.19   6
   1   1  -8 248928. 5101.95   1
   1   1  -8 243914. 4719.29   8
  -1  -1  -8 246251. 5294.42   7
   1   1  -8 250461. 5142.54   3
   1  -1   8 255025. 5481.62   1
  -1   1   8 249071. 4935.60   2
  -1   1   8 247379. 5299.33   9
  -1   1   8 244362. 5074.36   1
   1   1  -8 254141. 5428.13   9
  -1   1   8 252433. 5432.61   3
  -1  -1  -8 246412. 5332.99   1
   1  -1   8 244425. 5394.45   9
   1   1  -8 245948. 5185.21   5
  -1  -1  -8 256181. 5161.36   9
  -1  -1  -7 106421. 2734.54   1
  -1  -1  -7 105991. 2717.03   7
  -1   1   7 105005. 2431.87   6
   1   1  -7 104163. 2522.05   1
   1  -1   7 107978. 2812.47   9
  -1  -1  -7 106862. 2570.19   9
   1   1  -7 101929. 2323.14   8
  -1   1   7 101372. 2504.93   1
   1   1  -7 105675. 2649.76   4
  -1   1   7 106103. 2707.57   9
  -1   1   7 109202. 2859.47   3
   1   1  -7 107861. 2815.07   9
   1  -1   7 108265. 2421.19   6
   1  -1   7 108730. 2880.29   1
  -1   1   7 101632. 2386.61   2
   1   1  -7 108201. 2683.92   5
   1   1  -7 105885. 2608.84   3
  -1  -1  -6 154249. 3551.33   7
  -1   1   6 161529. 3373.29   6
   1  -1   6 162852. 3710.33   1
   1   1  -6 159927. 3363.08   1
  -1   1   6 158354. 3360.71   1
  -1   1   6 163338. 3747.42   3
   1  -1   6 163878. 3348.50   6
  -1   1   6 150164. 3208.12   2
  -1   1   6 159879. 3555.52   9
   1   1  -6 157453. 3531.62   4
  -1  -1  -6 160319. 3593.58   1
  -1  -1  -6 163666. 3385.44   9
   1   1  -6 165844. 3584.47   5
   1   1  -6 160136. 3630.23   9
   1  -1   6 161973. 3666.20   9
   1   1  -6 159930. 3508.68   3
  -1   1   5 592371. 10175.3   2
   1   1  -5 587267. 10276.5   1
   1   1  -5 562808. 10559.6   5
  -1   1   5 583435. 10419.1   6
  -1   1   5 604604. 10776.8   3
  -1  -1  -5 565932. 10511.6   7
   1   1  -5 592161. 10522.7   4
   1   1  -5 558940. 10547.5   9
  -1  -1  -5 592415. 10529.8   1
  -1  -1  -5 594165. 10279.5   9
   1  -1   5 561769. 10339.8   6
   1   1  -5 584973. 10523.6   3
   1  -1   5 577604. 10693.0   1
   1  -1   5 584374. 10653.0   9
  -1   1   4 463969. 7686.21   4
  -1   1   4 467123. 8504.21   3
  -1  -1  -4 445682. 8183.79   5
   1   1  -4 466293. 8307.03   3
  -1   1   4 456389. 8246.45   6
   1   1  -4 458178. 7998.13   1
  -1   1   4 461654. 7951.67   2
   1   1  -4 458337. 8423.84   2
   1  -1   4 439839. 8174.77   6
  -1  -1  -4 436222. 8250.48   7
   1  -1   4 441933. 8395.02   1
   1   1  -4 438775. 8248.00   9
   1   1  -4 440175. 8349.53   5
   1   1  -4 453475. 8246.36   4
   1  -1   4 438130. 7749.44   3
  -1  -1  -4 449235. 7962.66   9
   1  -1   4 451032. 8359.93   9
  -1  -1  -4 451266. 8219.86   1
  -1  -1  -3 95314.6 2097.41   1
  -1   1   3 96289.0 2220.65   6
   1   1  -3 92497.7 2270.86   5
   1   1  -3 93009.6 2125.03   4
   1   1  -3 89409.0 2216.85   2
   1   1  -3 94326.7 2134.20   9
  -1  -1  -3 91247.8 2157.73   5
  -1  -1  -3 95775.6 1882.80   9
  -1   1   3 92776.0 1943.13   2
   1  -1   3 91284.8 2175.28   6
   1   1  -3 93459.5 2229.68   3
   1  -1   3 93050.1 1865.95   3
   1  -1   3 89839.4 2208.52   9
  -1  -1  -3 94110.4 2181.33   7
   1  -1   3 91680.7 2248.70   1
   1   1  -3 93335.2 1935.46   1
  -1   1   3 95458.8 2332.46   3
  -1  -1  -2 390724. 6999.47   1
   1   1  -2 384330. 7023.46   9
  -1   1   2 401752. 7273.74   6
   1   1  -2 404868. 7203.03   2
   1   1  -2 388337. 7269.90   3
   1   1  -2 405542. 7100.42   4
  -1  -1  -2 396230. 6751.64   9
   1  -1   2 375131. 7205.58   1
   1  -1   2 377351. 6917.32   3
  -1  -1  -2 386186. 6996.09   2
   1  -1   2 403111. 7176.33   9
   1   1  -2 404443. 6812.87   1
   1   1  -2 421568. 7255.13   7
   1  -1   2 376981. 7202.79   6
  -1  -1  -2 401674. 7228.81   5
  -1  -1  -2 395326. 7157.13   7
   1   1  -2 371419. 7259.08   5
  -1   1   2 392047. 6947.97   2
  -1   1   2 407783. 7336.33   3
   1   1  -1 223137. 4160.78   4
   1   1  -1 225221. 4385.47   5
  -1  -1  -1 219080. 4194.48   4
  -1  -1  -1 224321. 4124.40   2
  -1   1   1 223444. 4333.30   3
   1  -1   1 217565. 4069.47   7
   1   1  -1 219161. 4196.85   2
  -1  -1  -1 220823. 4328.15   5
  -1   1   1 221296. 4369.15   6
   1  -1   1 221400. 4347.10   6
   1  -1   1 209546. 4237.80   1
  -1  -1  -1 217356. 4223.71   7
   1   1  -1 223543. 4253.53   7
   1   1  -1 217283. 4018.76   9
  -1   1   1 226431. 3959.63   4
  -1  -1  -1 221244. 4016.31   1
   1  -1   1 214769. 4127.06   3
   1  -1   1 216702. 4180.57   4
  -1   1   0 106890. 2456.37   6
   1   1   0 109064. 2350.60   7
  -1  -1   0 110419. 2348.64   7
   1   1   0 105589. 2270.69   2
  -1   1   0 109054. 2363.98   3
   1   1   0 109199. 2282.96   4
   1  -1   0 112058. 2472.47   6
   1  -1   0 106687. 2340.45   3
   1  -1   0 109172. 2224.36   4
  -1  -1   0 109835. 2461.53   5
  -1  -1   0 104541. 2071.60   1
  -1   1   0 104999. 2268.45   1
   1  -1   0 113534. 2086.07   7
  -1  -1   0 108877. 2279.34   2
   1  -1   0 110485. 2310.68   1
  -1   1   0 112044. 2063.06   7
  -1  -1   0 106777. 2278.84   4
   1   1   0 111038. 2480.72   5
  -1  -1   1 233120. 4413.68   7
  -1  -1   1 234657. 4368.76   2
   1   1   1 224941. 4276.98   2
  -1   1  -1 220696. 4394.14   1
  -1   1  -1 228762. 4206.98   7
  -1   1  -1 231014. 4302.81   3
   1   1   1 228514. 4392.37   7
   1  -1  -1 228691. 4119.09   4
  -1  -1   1 224808. 4527.83   5
   1  -1  -1 236840. 4538.28   6
   1  -1  -1 232242. 4254.35   2
  -1  -1   1 233330. 4315.73   4
  -1   1  -1 230683. 4506.41   6
   1   1   1 228705. 4164.42   1
   1  -1  -1 229955. 4465.34   3
   1   1   1 229507. 4355.60   4
  -1  -1   1 226491. 4163.63   9
   1   1   1 235198. 4522.83   5
   1  -1  -1 233324. 4270.00   1
   1   1   2 421088. 7474.12   5
   1   1   2 398098. 7343.00   4
   1  -1  -2 416356. 7529.88   3
  -1  -1   2 420409. 7045.54   1
   1   1   2 397011. 7201.06   2
  -1   1  -2 400048. 7435.50   6
  -1  -1   2 391541. 7208.75   9
  -1   1  -2 395923. 7435.69   1
   1  -1  -2 402761. 7167.15   2
  -1   1  -2 382075. 7272.67   7
  -1  -1   2 428332. 7291.57   4
  -1  -1   2 419872. 7407.95   2
  -1   1  -2 408367. 7157.42   3
   1   1   2 404829. 7381.28   7
   1   1   2 407974. 7201.88   1
   1  -1  -2 423894. 7510.03   6
  -1  -1   2 390828. 7506.72   5
   1   1   3 90330.7 2137.77   7
   1   1   3 90690.8 1961.86   2
  -1  -1   3 90660.3 2237.89   5
  -1  -1   3 89545.4 2064.69   4
   1  -1  -3 93755.1 2205.56   6
  -1   1  -3 89133.4 2157.71   9
  -1   1  -3 91436.0 1847.66   3
  -1  -1   3 89500.6 1867.31   1
   1   1   3 94788.5 2064.68   1
  -1   1  -3 94924.3 2169.57   7
  -1   1  -3 89678.3 2141.09   6
  -1  -1   3 90777.0 2071.27   9
  -1   1  -3 89193.6 2205.00   1
   1  -1  -3 88124.6 1913.65   2
   1  -1  -3 91537.5 2278.16   3
  -1  -1   3 91817.9 2200.11   3
  -1  -1   3 94188.3 2201.92   2
   1   1   4 376216. 6995.43   7
   1   1   4 375642. 6899.36   1
   1  -1  -4 396916. 6981.24   9
   1  -1  -4 373826. 6746.30   1
   1   1   4 366036. 6646.90   9
   1  -1  -4 392807. 7030.13   6
   1  -1  -4 385430. 7197.98   3
  -1  -1   4 370857. 6968.65   3
  -1  -1   4 397649. 7124.12   2
  -1   1  -4 357715. 7027.45   7
  -1   1  -4 370997. 7109.51   1
  -1   1  -4 373288. 7054.13   9
  -1  -1   4 362564. 6667.81   1
  -1  -1   4 349226. 6910.98   9
   1  -1  -4 363423. 6656.07   2
  -1  -1   4 386259. 6936.75   4
  -1  -1   5 615086. 11063.5   3
  -1  -1   5 642250. 11318.9   2
  -1  -1   5 582176. 11082.1   9
   1  -1  -5 633072. 11119.3   9
   1  -1  -5 615117. 11320.2   3
   1   1   5 615733. 11141.6   7
  -1   1  -5 615221. 11256.0   1
   1  -1  -5 648027. 10897.5   1
  -1   1  -5 582956. 11209.8   7
   1  -1  -5 649197. 10829.0   2
  -1  -1   5 624536. 11096.3   4
   1  -1  -5 640979. 11110.2   6
  -1   1  -5 612179. 11240.0   9
  -1  -1   5 578805. 10804.7   1
   1   1   5 614091. 11063.0   1
   1   1   5 598469. 10810.2   9
  -1  -1   6 152422. 3336.26   3
  -1   1  -6 157688. 3563.39   9
   1   1   6 149300. 3205.99   9
   1   1   6 152024. 3408.36   1
  -1  -1   6 151448. 3203.74   1
   1  -1  -6 156618. 3449.90   9
   1  -1  -6 151123. 3221.58   1
   1   1   6 148726. 3441.64   7
  -1   1  -6 153436. 3594.35   7
   1  -1  -6 144981. 3565.02   3
   1  -1  -6 147181. 3167.75   2
  -1  -1   6 150580. 3407.37   4
  -1  -1   6 148334. 3447.59   9
  -1   1  -6 149769. 3546.23   1
  -1  -1   6 153095. 3592.08   2
   1   1   7 107893. 2602.15   9
   1  -1  -7 105753. 2577.49   1
  -1   1  -7 108381. 2881.86   1
  -1  -1   7 109998. 2596.42   1
  -1  -1   7 105420. 2809.39   9
  -1  -1   7 106997. 2744.86   4
   1  -1  -7 111141. 2509.49   7
  -1   1  -7 110122. 2901.14   9
   1   1   7 113520. 2797.01   1
  -1   1  -7 109712. 2960.03   7
  -1  -1   7 102904. 2911.72   2
   1  -1  -7 115042. 2829.83   9
  -1  -1   7 108087. 2644.99   3
   1  -1  -7 105757. 2915.39   3
   1   1   7 114451. 2839.29   7
   1   1   8 244617. 5316.31   7
  -1   1  -8 239068. 5395.34   1
  -1  -1   8 240070. 5306.56   9
   1  -1  -8 242221. 5038.73   1
   1   1   8 242219. 5241.47   1
  -1  -1   8 237945. 5206.39   4
  -1  -1   8 252536. 5059.05   1
  -1   1  -8 252729. 5422.63   9
   1   1   8 237810. 5043.00   9
  -1  -1   8 257945. 5558.39   2
   1  -1  -8 247778. 4944.77   7
  -1  -1   8 242369. 5036.77   3
   1  -1  -8 253307. 5284.67   9
  -1   1  -8 248764. 5509.12   7
  -1  -1   9 87043.7 2602.89   4
   1  -1  -9 92404.0 2446.39   7
   1   1   9 95728.5 2739.03   1
   1  -1  -9 99082.0 2753.03   9
   1   1   9 94985.1 2165.56   8
  -1  -1   9 93840.5 2480.59   3
  -1  -1   9 98218.0 2564.31   1
  -1   1  -9 96260.8 2815.39   9
  -1  -1   9 96175.5 2778.62   9
   1  -1  -9 94019.3 2527.76   1
   1   1   9 99976.7 2806.91   7
  -1  -1   9 96172.3 2921.54   2
  -1   1  -9 93667.9 2876.87   7
   1   1   9 91219.1 2535.63   9
   1   1  10 87915.4 2743.64   1
  -1  -1  10 88585.5 2668.66   4
  -1  -1  10 95151.0 2604.86   1
  -1   1 -10 90932.3 2040.36   8
  -1   1 -10 93467.6 2947.88   7
  -1  -1  10 89085.8 2940.03   2
   1  -1 -10 95229.6 2620.32   1
   1   1  10 88825.2 2578.77   9
   1  -1 -10 94497.7 2815.47   9
  -1  -1  10 91683.9 2476.11   3
  -1   1 -10 95679.9 2894.40   9
   1  -1 -10 89448.8 2504.90   7
   1   1  10 93949.5 2114.95   8
  -1  -1  11 118428. 3628.46   2
   1  -1 -11 124956. 3228.40   7
  -1  -1  11 130659. 3318.51   1
   1   1  11 124228. 2648.79   8
  -1  -1  11 118170. 3332.23   4
  -1   1 -11 126510. 3585.26   9
  -1   1 -11 123254. 2561.67   8
   1   1  11 124784. 3460.38   1
  -1  -1  11 121503. 3102.52   3
   1  -1 -11 124747. 3487.74   9
  -1   1 -11 126442. 3696.96   7
   1  -1 -12 25158.8 1294.12   7
  -1  -1  12 25711.0 1586.90   2
  -1  -1  12 24258.3 1176.88   3
  -1   1 -12 23641.8 1459.34   9
   1  -1 -12 26527.0 1495.95   9
  -1  -1  12 23783.1 1290.28   1
   1   1  12 26954.8 1472.75   1
  -1   1 -12 25883.7 1551.69   7
  -1   1 -12 24061.3 768.599   8
   1   1  12 24788.0 838.950   8
   1   1  13 88872.2 1977.06   8
   1  -1 -13 87275.1 2761.68   7
  -1   1 -13 86561.0 3158.71   7
   1  -1 -13 95089.3 3060.43   9
   1   1  13 90593.9 3003.62   1
  -1  -1  13 86949.1 2580.88   3
  -1   1 -13 92359.0 3116.05   9
  -1  -1  13 89215.6 3206.82   2
  -1  -1  13 87675.9 2815.19   1
  -1  -1  14 124502. 3323.31   3
  -1  -1  14 121911. 3999.23   2
   1  -1 -14 121393. 3541.96   7
   1   1  14 120463. 3765.36   1
  -1  -1  14 131137. 3680.39   1
  -1   1 -14 128839. 4046.11   7
  -1   1 -14 129940. 3981.57   9
   1  -1 -14 130482. 3872.76   9
  -1  -1  15 8126.42 1097.07   2
  -1   1 -15 10827.4 1297.97   7
   1  -1 -15 9859.67 998.071   7
  -1  -1  15 9805.32 859.884   3
  -1  -1  15 12747.4 1086.17   1
  -1   1 -15 9322.25 1173.01   9
   1  -1 -15 7808.78 1044.54   9
   1   1  15 8147.33 1100.74   1
   1   1  16 31840.7 1637.13   3
  -1  -1  16 30980.7 1962.86   2
   1  -1 -16 35508.9 2003.13   9
  -1  -1  16 31461.6 1771.16   1
  -1   1 -16 31174.6 1953.80   9
  -1  -1  16 33739.5 1567.78   3
   1   1  16 31572.7 1902.09   1
  -1   1 -16 36303.4 2193.22   7
   1  -1 -16 32783.5 1772.32   7
   1  -1 -17 26035.1 1812.53   9
   1  -1 -17 25773.9 1622.86   7
  -1   1 -17 23988.7 1759.10   9
   1   1  17 24000.2 1724.57   1
  -1   1 -17 21692.8 1763.03   7
  -1  -1  17 20369.8 1666.93   2
  -1  -1  17 24367.2 1363.99   3
   1   1  17 23995.6 1444.52   3
  -1  -1  17 23860.2 1582.71   1
  -1   1 -18 495.802 910.905   7
  -1  -1  18 1052.04 536.584   3
   1  -1 -18 1188.04 888.421   9
   1   1  18-234.482 782.365   1
   1  -1 -18-312.580 642.849   7
  -1   1 -18 989.172 832.128   9
  -1  -1  18-224.364 625.766   1
   1   1  18 558.852 544.511   3
  -1  -1  18 645.055 801.141   2
  -1   1 -19 7844.52 1313.28   7
  -1  -1  19 8064.83 1140.19   1
   1  -1 -19 6243.37 996.613   7
   1  -1 -19 8530.49 1238.63   9
   1   1  19 7392.10 856.551   3
  -1  -1  19 7800.13 852.462   3
   1   1  19 6904.84 1244.97   1
  -1  -1  19 6265.68 1074.64   2
  -1   1 -19 8137.69 1260.86   9
  -1   1 -20 16053.4 1689.49   9
   1   1  20 16199.0 1645.73   1
   1   1  20 15457.8 1217.94   3
   1  -1 -20 15138.1 1651.23   9
   1  -1 -20 14614.0 1426.39   7
  -1  -1  20 14799.8 1161.99   3
  -1   1 -20 16446.2 1735.53   7
  -1  -1  20 14243.0 1422.66   1
  -1  -1  20 13362.4 1511.80   2
   1   1  21 401.246 847.882   1
  -1   1 -21 218.501 1079.26   7
   1  -1 -21-41.3000 775.513   7
   1  -1 -21 1038.81 925.633   9
  -1   1 -21 919.771 924.086   9
  -1  -1  21 889.531 931.933   2
  -1  -1  21 736.887 806.111   1
   1   1  21 1492.68 669.942   3
  -1  -1  21 465.646 527.677   3
   1  -1 -22 9912.26 1318.48   7
  -1   1 -22 9095.15 1536.14   7
  -1  -1  22 8817.44 973.940   3
  -1  -1  22 9128.05 1413.12   2
   1   1  22 7734.13 1258.97   1
   1   1  22 11755.1 1122.60   3
  -1   1 -22 9305.19 1541.75   9
  -1  -1  22 11856.4 1436.82   1
   1  -1 -22 12858.6 1657.62   9
  -1  -1  23 563.157 900.910   1
   1   1  23 2556.77 924.444   1
   1  -1 -23 1271.79 799.065   7
  -1   1 -23 1081.32 1092.71   7
  -1   1 -23 2066.50 1034.25   9
  -1  -1  23 1677.58 1029.13   2
   1   1  23 1639.14 628.655   3
   1  -1 -23 3415.74 1163.91   9
  -1   1 -24 2625.15 1163.16   7
  -1   1 -24 7276.71 1504.31   9
   1   1  24 1649.88 963.905   1
   1  -1 -24 4259.11 1422.74   9
  -1  -1  24 3117.07 1173.30   2
   1  -1 -24 3550.05 1077.31   7
  -1  -1  24 3724.58 1106.26   1
   1   1  25-774.438 942.872   1
  -1   1 -25 3246.53 1366.06   9
  -1  -1  25-615.247 1016.72   2
   1  -1 -25 1597.94 1045.31   7
  -1  -1  25 2938.77 1216.56   1
   1  -1 -25 1986.32 1014.76   9
  -1   1 -25 956.009 1066.99   7
  -1  -1  26 4258.53 1206.50   1
  -1   1 -26 6336.00 1372.22   7
  -1   1 -26 6562.39 1598.87   9
   1  -1 -26 5705.55 1295.50   7
  -1  -1  26 4591.45 1310.96   2
   1   1  26 4437.12 1223.44   1
   1  -1 -26 3099.88 1377.95   9
  -1   1 -27 929.971 1258.93   9
  -1  -1  27 754.287 1049.71   2
   1  -1 -27-143.562 951.797   7
  -1   1 -27 210.422 1221.54   7
   1  -1 -27 452.789 1090.21   9
  -1  -1  27 592.343 1045.43   1
   1   1  27 779.843 893.744   1
  -1  -1  28 1312.24 1081.17   1
   1  -1 -28 1135.17 1107.43   7
  -1   1 -28-27.5736 1200.17   9
   1  -1 -28-141.948 1336.46   9
  -1  -1  28-996.156 995.409   2
   1   1  28-579.431 899.084   1
  -1   1 -28 3276.40 1502.47   7
   1  -1 -29 3145.56 1186.69   7
  -1  -1  29 1051.65 1002.43   1
  -1  -1  29 1235.06 1126.62   2
  -1  -2 -29-304.078 1104.63   7
  -1  -2 -28 150.091 1110.34   9
  -1  -2 -28-122.872 1127.92   7
   1   2 -28 1839.67 1385.11   7
   1  -2  28 718.341 1082.19   1
  -1   2  28-1230.46 1245.90   1
  -1  -2 -27 1757.30 1235.16   9
  -1  -2 -27 574.649 1152.65   7
  -1   2  27-301.262 994.902   1
   1   2 -27-1687.13 1212.78   7
   1  -2  27 2754.65 1401.06   1
   1   2 -27 277.674 1335.21   9
  -1   2  26-627.918 822.784   3
   1  -2  26-1040.10 1034.59   1
  -1  -2 -26 1663.53 1004.98   7
   1   2 -26-449.416 1105.36   7
  -1  -2 -26 546.407 1058.99   9
  -1   2  26 1661.10 918.674   1
   1   2 -25 188.297 1137.26   7
   1   2 -25-308.579 1211.44   9
  -1   2  25 1425.77 1076.89   1
   1  -2  25 3688.16 1361.78   1
  -1  -2 -25 427.939 1069.54   9
  -1  -2 -25-82.0033 974.745   7
  -1   2  25-93.8362 831.903   3
   1   2 -24 19959.7 2052.98   9
  -1  -2 -24 19524.8 2014.98   9
   1   2 -24 20776.9 2209.51   7
   1  -2  24 22438.2 2211.48   1
  -1   2  24 21192.8 1941.24   1
  -1   2  24 23924.3 1911.36   3
  -1  -2 -24 22462.4 1991.08   7
  -1   2  23 8734.48 1399.59   1
   1  -2  23 6255.87 1192.63   1
  -1  -2 -23 7025.75 1394.29   9
  -1  -2 -23 6195.71 1181.55   7
   1   2 -23 5251.59 1311.85   7
  -1   2  23 7745.00 1204.60   3
   1   2 -23 6264.42 1472.60   9
   1   2 -22 10569.9 1655.68   9
   1   2 -22 10689.0 1493.54   7
   1   2 -22 8686.38 976.428   5
  -1  -2 -22 9737.63 1462.98   9
   1  -2  22 10199.8 1576.10   1
  -1   2  22 8566.60 995.974   2
  -1   2  22 10218.7 1306.77   1
  -1   2  22 9984.91 1286.37   3
  -1  -2 -22 9862.93 1371.08   7
   1   2 -21 1254.33 868.987   7
   1  -2  21 585.525 990.286   1
  -1  -2 -21 398.391 833.035   9
  -1  -2 -21-312.973 959.147   7
  -1   2  21-281.014 764.532   3
  -1   2  21 1884.88 644.745   2
   1   2 -21 751.897 566.180   5
  -1   2  21 228.344 842.000   1
   1   2 -21 1284.45 835.239   9
   1   2 -20 16579.1 1818.56   9
  -1   2  20 16059.3 1500.84   1
   1   2 -20 13528.3 1140.25   5
  -1   2  20 15027.7 1188.81   2
  -1   2  20 17133.6 1518.72   3
   1  -2  20 18218.5 1792.56   1
  -1  -2 -20 14064.6 1495.20   9
  -1  -2 -20 14991.2 1492.99   7
  -1  -2 -19 2132.48 935.055   9
   1   2 -19 1926.62 900.422   9
   1  -2  19 2744.05 933.915   1
  -1   2  19 4581.06 1067.09   3
  -1  -2 -19 3677.78 912.893   7
   1   2 -19 1608.42 616.258   5
  -1   2  19 900.144 685.755   1
  -1   2  19 2386.99 639.984   2
  -1   2  18 48934.4 2435.27   3
   1  -2  18 50371.0 2656.45   1
  -1  -2 -18 51591.2 2472.49   7
   1   2 -18 52371.7 2800.29   9
  -1   2  18 47235.0 1981.54   2
  -1   2  18 49460.7 2413.89   1
  -1   2  18 49651.6 1233.61   8
   1   2 -18 53397.9 2146.66   5
  -1  -2 -18 50801.5 2502.84   9
  -1   2  17 7561.62 986.694   1
   1   2 -17 6189.68 802.000   5
  -1  -2 -17 8265.17 1144.56   9
  -1  -2 -17 7133.53 1084.04   7
   1   2 -17 7626.57 1188.72   9
   1  -2  17 7212.01 1109.88   1
  -1   2  17 8278.69 819.928   2
  -1   2  17 8330.61 1110.33   3
  -1   2  17 7101.63 454.584   8
  -1   2  17 6338.03 573.783   6
  -1  -2 -16 31347.7 1799.47   7
  -1   2  16 27621.2 1192.73   6
   1   2 -16 30872.0 1560.69   5
  -1   2  16 28927.6 1400.85   2
   1  -2  16 32490.9 1981.13   1
  -1   2  16 27963.8 1697.44   1
  -1  -2 -16 29853.9 1803.10   9
   1   2 -16 30505.8 1999.21   9
   1   2 -16 24605.2 1371.81   3
  -1   2  16 28585.6 1796.56   3
  -1   2  15 38912.5 2035.39   3
   1   2 -15 37293.2 1102.38   8
  -1   2  15 36458.4 1543.43   2
  -1   2  15 37141.0 1429.79   6
   1  -2  15 40725.5 2198.97   1
  -1  -2 -15 35296.4 1897.32   7
  -1   2  15 37749.6 1883.49   1
   1   2 -15 38668.1 2169.54   9
   1   2 -15 35694.3 1673.80   5
  -1  -2 -15 38352.5 1952.73   9
   1   2 -15 35085.6 1568.15   3
  -1   2  14 32829.4 1377.13   2
  -1   2  14 34538.0 1895.93   3
  -1   2  14 31430.6 1645.37   1
  -1  -2 -14 33770.2 1753.96   9
   1  -2  14 32147.5 1909.33   1
   1   2 -14 34602.3 1993.32   9
  -1   2  14 32315.1 1347.49   6
   1   2 -14 31373.1 1049.18   8
   1   2 -14 34008.4 1585.43   5
  -1  -2 -14 32465.6 1720.95   7
   1   2 -14 29900.0 1424.35   3
  -1  -2 -13 8389.21 942.049   7
   1   2 -13 7527.26 814.848   5
   1   2 -13 6773.88 484.207   8
   1  -2  13 8470.05 997.712   1
   1   2 -13 9049.25 1117.62   9
  -1   2  13 6788.52 644.464   6
  -1   2  13 7171.71 852.108   1
  -1  -2 -13 6985.61 874.151   9
  -1   2  13 6987.41 936.265   3
   1   2 -13 6949.78 683.400   3
  -1   2  13 6744.75 610.025   2
   1  -2  12 140001. 4060.30   1
  -1  -2 -12 135136. 3675.00   9
   1   2 -12 129326. 3365.87   3
  -1   2  12 140862. 4035.74   3
  -1   2  12 133842. 3374.65   6
   1  -2  12 136617. 3171.67   6
   1   2 -12 141179. 4111.80   9
   1   2 -12 142381. 3625.87   5
  -1   2  12 138372. 3678.47   1
  -1   2  12 130073. 3134.58   2
  -1  -2 -12 137895. 3750.77   7
  -1   2  11 3227.67 700.518   3
   1   2 -11 4858.41 854.654   9
   1  -2  11 3566.68 782.869   1
  -1  -2 -11 4277.43 655.254   7
  -1  -2 -11 4218.19 650.756   9
  -1   2  11 3756.65 424.056   2
   1   2 -11 4116.00 537.242   3
  -1   2  11 4223.84 521.446   6
  -1   2  11 3940.51 625.877   1
   1   2 -11 4820.41 640.445   5
   1  -2  11 4021.55 485.813   6
   1  -2  10 7058.35 387.147   5
  -1  -2 -10 6971.12 696.557   9
  -1   2  10 7551.19 554.092   4
  -1   2  10 6889.38 629.714   6
   1   2 -10 6739.15 791.141   9
  -1   2  10 8070.17 758.730   1
  -1  -2 -10 6574.24 718.983   7
   1   2 -10 7634.09 628.955   3
  -1   2  10 8593.63 928.219   3
  -1   2  10 7447.37 516.644   2
   1   2 -10 7255.02 715.934   5
   1   2 -10 6377.95 664.665   1
   1  -2  10 8635.07 630.837   6
   1  -2  10 6754.26 867.638   1
   1   2  -9 83568.9 2448.37   5
  -1   2   9 81846.9 1925.38   2
  -1   2   9 81655.7 2721.43   3
  -1   2   9 80181.1 2396.73   6
  -1   2   9 80182.0 2032.40   4
  -1  -2  -9 82625.7 2353.95   9
   1  -2   9 83712.3 2716.29   1
  -1  -2  -9 84460.1 2472.97   7
   1   2  -9 78336.1 2431.58   1
   1  -2   9 81916.9 1823.69   5
   1   2  -9 80399.9 2596.03   4
   1   2  -9 79136.1 2645.68   9
   1   2  -9 77483.0 2225.92   3
   1  -2   9 80418.9 2196.89   6
  -1   2   8 81193.6 1997.70   4
   1   2  -8 82950.4 2263.49   3
   1   2  -8 89527.8 2498.80   5
  -1  -2  -8 84833.8 2308.80   9
   1   2  -8 83207.6 2396.16   1
   1   2  -8 83732.7 2626.70   9
   1  -2   8 81295.9 1880.52   5
  -1  -2  -8 84080.5 2416.52   7
   1   2  -8 83953.3 2586.25   4
  -1   2   8 81361.1 1878.11   2
   1  -2   8 81944.5 2629.17   9
  -1   2   8 84400.2 2708.55   3
   1  -2   8 84167.1 2664.71   1
   1  -2   8 81612.4 2232.71   6
  -1   2   8 84103.3 2430.71   6
   1   2  -7 25855.8 1131.67   1
   1  -2   7 26313.1 1338.05   4
   1   2  -7 27421.3 1244.09   5
   1  -2   7 26263.3 893.884   5
  -1   2   7 26150.1 1220.43   6
  -1   2   7 25129.5 1358.37   3
  -1  -2  -7 24743.0 1146.19   7
  -1  -2  -7 25560.1 1059.39   9
   1   2  -7 26643.3 1302.22   4
   1  -2   7 24782.4 1302.37   9
  -1   2   7 26631.1 904.828   4
   1   2  -7 28501.5 1342.01   9
   1   2  -7 27347.8 1119.10   3
   1  -2   7 28419.2 1149.73   6
   1  -2   7 25394.9 1356.27   1
  -1  -2  -7 27472.5 1202.81   1
  -1   2   7 26704.2 811.081   2
   1  -2   6 419507. 8516.75   1
  -1  -2  -6 416023. 8187.06   7
   1  -2   6 413951. 8153.64   6
  -1  -2  -6 423391. 7975.34   9
   1   2  -6 419376. 8345.35   5
  -1   2   6 431418. 8432.06   6
   1   2  -6 432868. 8157.48   1
   1  -2   6 425367. 8555.42   4
  -1   2   6 448658. 8672.06   3
   1   2  -6 453294. 8521.53   4
  -1  -2  -6 428611. 8246.15   1
  -1   2   6 434384. 7565.28   2
   1   2  -6 429371. 8449.08   9
   1   2  -6 435533. 8130.26   3
   1  -2   6 446142. 8590.54   9
  -1   2   6 434124. 7695.77   4
  -1   2   5 30858.0 946.024   4
  -1   2   5 32698.1 1463.34   3
   1   2  -5 35885.0 1414.91   4
   1  -2   5 33869.1 1285.05   6
  -1  -2  -5 33835.9 1104.15   9
   1   2  -5 33135.4 1358.84   5
   1   2  -5 33874.2 1193.32   1
   1  -2   5 32069.0 1401.83   9
   1   2  -5 33161.4 1351.44   9
   1  -2   5 32883.3 1392.19   4
  -1   2   5 33462.9 1374.18   6
  -1  -2  -5 32663.9 1237.55   7
   1  -2   5 31673.1 1376.86   1
  -1   2   5 32879.9 882.485   2
  -1  -2  -5 33999.3 1237.56   1
   1   2  -5 33340.6 1216.00   3
   1   2  -4 137917. 3204.40   3
  -1   2   4 133734. 2816.64   4
   1  -2   4 138342. 3411.47   1
  -1  -2  -4 143264. 3161.20   1
   1  -2   4 144344. 3321.37   6
  -1  -2  -4 145465. 3219.86   7
   1  -2   4 147757. 3469.43   4
   1   2  -4 140642. 3405.88   5
  -1  -2  -4 141770. 2945.13   9
   1   2  -4 143293. 3362.98   4
  -1   2   4 142166. 3504.65   3
  -1   2   4 143779. 3466.30   6
   1  -2   4 141922. 3413.19   9
   1   2  -4 144508. 3315.23   9
   1   2  -4 141304. 3078.72   1
  -1  -2  -3 166753. 3257.24   2
   1   2  -3 169077. 3428.64   1
  -1  -2  -3 167073. 3508.17   1
   1   2  -3 170360. 3855.10   5
  -1   2   3 172055. 3878.91   3
   1  -2   3 168833. 3814.96   1
   1  -2   3 161524. 3747.62   6
  -1   2   3 171578. 3895.07   6
   1   2  -3 165567. 3767.34   7
   1  -2   3 161427. 3767.52   4
   1   2  -3 165687. 3745.44   2
   1  -2   3 170496. 3761.89   9
  -1  -2  -3 165968. 3617.62   4
  -1  -2  -3 169834. 3599.23   7
  -1   2   3 161387. 3288.83   4
   1   2  -3 171024. 3727.66   4
   1   2  -3 164261. 3616.30   9
   1   2  -2 360135. 6681.98   9
  -1  -2  -2 354018. 7031.67   5
  -1  -2  -2 350937. 6424.26   2
  -1  -2  -2 346245. 6589.87   1
  -1   2   2 366648. 7120.97   6
   1  -2   2 345244. 6963.92   6
  -1   2   2 357473. 6994.09   3
   1   2  -2 371666. 6844.97   2
   1   2  -2 360544. 6875.03   7
  -1  -2  -2 354411. 6746.70   7
   1  -2   2 335276. 6855.69   4
   1  -2   2 346216. 6897.68   1
   1   2  -2 379263. 6869.45   4
  -1  -2  -2 353746. 6756.57   4
  -1   2   2 365839. 6544.63   4
   1   2  -2 356662. 7038.74   5
  -1  -2  -1 176295. 3747.04   7
   1   2  -1 177562. 3798.65   7
  -1  -2  -1 174368. 4004.25   5
   1   2  -1 177020. 4017.66   5
  -1   2   1 176741. 4040.73   6
  -1   2   1 184090. 3674.91   4
  -1  -2  -1 178787. 3761.22   4
   1   2  -1 178801. 3788.27   4
   1  -2   1 174650. 3795.60   4
   1   2  -1 177391. 3709.24   2
   1  -2   1 179000. 4012.59   6
  -1  -2  -1 180287. 3521.02   2
  -1   2   1 180232. 3895.90   3
   1  -2   1 184818. 3891.24   1
  -1   2   0 671522. 11957.8   4
   1   2   0 698329. 12007.2   7
  -1   2   0 649688. 12274.4   6
  -1  -2   0 640235. 12231.4   5
  -1  -2   0 697901. 11797.5   2
   1   2   0 671993. 11806.3   2
   1   2   0 677411. 11968.7   4
   1  -2   0 656392. 12292.5   6
   1  -2   0 657749. 11985.3   1
  -1  -2   0 694226. 11997.8   4
   1  -2   0 642594. 11868.1   4
  -1  -2   0 692260. 12002.5   7
  -1   2   0 659610. 11985.8   3
  -1  -2   1 185776. 4207.70   5
  -1   2  -1 191117. 3883.59   3
  -1  -2   1 189827. 4013.80   7
  -1  -2   1 190004. 3837.27   9
   1   2   1 191740. 3973.63   4
  -1  -2   1 183753. 3855.86   2
  -1  -2   1 195064. 3982.24   4
   1   2   1 189552. 3946.08   7
  -1   2  -1 181165. 4007.44   1
   1   2   1 193564. 3735.58   2
  -1   2  -1 188533. 4191.04   6
   1  -2  -1 195845. 3947.52   1
  -1   2  -1 188836. 4018.61   4
   1  -2  -1 195443. 3788.38   4
   1  -2  -1 190655. 4282.48   6
   1   2   2 361382. 6592.56   2
  -1   2  -2 352544. 7124.08   6
  -1   2  -2 347083. 7014.97   1
  -1  -2   2 366982. 7195.59   5
  -1  -2   2 362409. 6879.63   9
  -1  -2   2 388632. 6755.79   1
  -1   2  -2 351262. 6697.76   3
   1  -2  -2 369289. 6605.45   4
  -1  -2   2 382377. 6995.61   4
  -1  -2   2 375221. 6970.67   2
   1   2   2 368808. 6943.51   4
   1   2   2 372649. 6916.26   7
  -1   2  -2 359472. 7068.42   4
   1   2   3 202249. 4177.88   4
  -1   2  -3 192738. 3791.25   3
  -1  -2   3 194040. 4352.50   5
   1  -2  -3 202370. 3776.29   4
  -1  -2   3 207629. 4253.88   4
   1   2   3 199292. 4149.04   7
   1  -2  -3 201197. 3703.40   2
  -1  -2   3 196534. 4249.91   2
  -1   2  -3 196866. 4332.50   4
  -1  -2   3 202022. 4018.91   1
  -1   2  -3 199235. 4357.01   1
  -1  -2   3 191827. 4166.42   9
  -1   2  -3 196981. 4295.34   6
   1   2   3 199049. 3786.67   2
   1   2   4 137369. 2741.98   2
   1  -2  -4 132014. 2632.57   2
  -1   2  -4 135507. 3213.84   6
  -1  -2   4 134664. 3318.20   2
  -1  -2   4 130950. 3274.57   5
  -1   2  -4 135076. 3340.02   1
   1   2   4 137929. 3160.99   4
  -1  -2   4 137695. 3020.35   1
  -1   2  -4 136797. 2643.65   3
  -1  -2   4 137366. 3228.49   4
   1  -2  -4 138359. 2462.27   7
   1   2   4 142647. 3090.26   1
  -1  -2   4 133274. 3193.82   9
   1   2   4 137414. 3114.86   7
   1  -2  -4 134165. 2722.55   4
  -1  -2   5 32890.2 1422.91   2
   1   2   5 32961.5 955.596   2
  -1   2  -5 31788.1 764.492   3
   1   2   5 33047.0 1239.95   7
   1   2   5 33085.6 1271.10   4
   1   2   5 31442.6 1222.69   1
  -1  -2   5 33299.7 1334.07   4
  -1  -2   5 34314.7 1204.20   1
  -1   2  -5 31176.6 1381.82   1
   1  -2  -5 30958.8 864.861   2
  -1   2  -5 31424.0 1371.26   9
  -1  -2   5 35023.4 1350.51   9
  -1   2  -5 31825.4 1221.39   6
   1  -2  -5 33391.8 815.292   7
   1  -2  -5 30626.3 1151.39   1
  -1  -2   5 34522.5 1362.17   5
   1  -2  -6 429529. 8186.59   1
   1  -2  -6 455333. 8399.98   9
  -1  -2   6 439863. 8204.10   1
   1   2   6 429807. 7753.58   2
  -1   2  -6 425500. 8196.47   6
  -1  -2   6 423952. 8431.99   5
   1   2   6 443251. 8342.34   4
  -1   2  -6 444424. 8634.54   9
  -1  -2   6 427620. 8488.90   9
  -1   2  -6 441447. 8634.76   1
   1  -2  -6 433048. 7711.44   2
  -1  -2   6 456526. 8782.19   2
   1   2   6 448168. 8316.91   1
  -1  -2   6 429201. 8490.42   4
   1  -2  -6 428857. 7636.40   7
   1   2   6 432002. 8326.29   7
  -1   2  -7 31330.5 1465.57   9
  -1  -2   7 29369.0 1228.68   1
  -1   2  -7 29529.7 1415.96   1
   1   2   7 33476.2 1352.45   4
  -1  -2   7 29754.9 1377.90   9
   1  -2  -7 30184.5 945.586   7
   1   2   7 29840.6 1289.09   7
  -1  -2   7 29173.9 1358.09   4
  -1  -2   7 30243.8 1312.97   5
   1   2   7 33084.9 1357.07   1
  -1  -2   7 30507.4 1528.99   2
  -1   2  -7 29185.1 1171.90   6
   1  -2  -7 31449.9 1356.42   9
   1  -2  -7 31817.0 1238.30   1
   1  -2  -8 79595.4 1953.34   7
   1   2   8 76910.8 2377.18   1
   1  -2  -8 83844.5 2494.22   9
  -1   2  -8 76824.5 2120.49   6
   1  -2  -8 84915.4 2321.41   1
  -1  -2   8 81659.3 2313.59   1
  -1   2  -8 78226.3 2594.64   9
  -1  -2   8 81706.9 2569.21   9
   1   2   8 79363.0 2396.33   7
  -1  -2   8 82865.5 2537.94   4
  -1  -2   8 79818.4 2751.36   2
   1   2   9 86992.3 2669.61   1
   1   2   9 88534.0 2492.92   9
  -1  -2   9 91793.5 2601.64   1
  -1   2  -9 92190.8 2924.53   9
  -1  -2   9 88248.7 2774.38   4
  -1  -2   9 91451.3 2429.09   3
  -1  -2   9 92203.9 3078.98   2
   1  -2  -9 89390.4 2232.92   7
   1  -2  -9 94664.4 2759.20   9
   1  -2 -10 14519.5 809.481   7
   1   2  10 15492.3 1087.41   1
  -1   2 -10 14544.0 1170.61   9
  -1  -2  10 14079.2 1232.52   2
  -1  -2  10 15572.0 880.979   3
  -1  -2  10 16490.3 1061.57   1
   1  -2 -10 13273.0 1025.89   9
  -1   2 -10 16173.9 1268.52   7
   1  -2 -11 6042.80 606.534   7
   1  -2 -11 6267.80 804.507   9
  -1   2 -11 5705.79 849.479   9
  -1  -2  11 5588.80 583.046   3
  -1  -2  11 5541.06 726.582   1
   1   2  11 6622.13 819.530   1
  -1   2 -11 5871.41 915.702   7
  -1  -2  11 5675.27 985.743   2
   1   2  12 134233. 3809.31   1
  -1  -2  12 128317. 4204.68   2
  -1  -2  12 136612. 3716.72   1
   1  -2 -12 132424. 3318.24   7
  -1  -2  12 134453. 3316.46   3
  -1   2 -12 133627. 4133.05   7
   1  -2 -12 131944. 3804.36   9
  -1   2 -12 140001. 4105.81   9
   1  -2 -13 4560.23 595.159   7
  -1  -2  13 3992.28 557.190   3
  -1   2 -13 5878.81 992.716   7
   1   2  13 4651.66 763.257   1
   1  -2 -13 4218.54 827.926   9
  -1  -2  13 3422.37 661.251   1
  -1  -2  13 4621.48 987.171   2
  -1   2 -13 5351.27 998.582   9
   1   2  14 33396.1 1832.82   1
  -1  -2  14 30719.9 1366.41   3
  -1  -2  14 34926.6 1765.71   1
  -1   2 -14 32530.0 1959.00   9
  -1  -2  14 29928.3 1987.37   2
   1  -2 -14 31279.8 1787.85   9
  -1   2 -14 33444.5 2019.03   7
   1  -2 -14 30987.8 1478.41   7
  -1   2 -15 30545.8 971.324   8
  -1  -2  15 30187.5 1396.21   3
   1   2  15 31387.4 1104.46   8
   1  -2 -15 32731.4 1900.74   9
   1  -2 -15 32529.0 1583.55   7
   1   2  15 30545.0 1814.05   1
  -1  -2  15 28223.4 1978.43   2
  -1   2 -15 32000.1 2125.26   7
  -1   2 -15 34134.8 2057.96   9
  -1  -2  15 30332.2 1738.57   1
   1  -2 -16 30346.6 1864.37   9
  -1   2 -16 29639.2 2034.12   7
  -1   2 -16 27112.3 1873.56   9
  -1   2 -16 23444.1 747.866   8
   1   2  16 27213.2 969.359   8
  -1  -2  16 29298.2 1377.78   3
  -1  -2  16 26922.4 1665.50   1
  -1  -2  16 27364.1 1976.34   2
   1   2  16 26749.9 1721.17   1
   1  -2 -16 26850.6 1496.01   7
  -1  -2  17 5572.57 931.981   1
   1  -2 -17 4569.28 776.766   7
  -1  -2  17 6109.88 1200.06   2
   1  -2 -17 5070.71 1027.58   9
  -1   2 -17 6026.17 1113.57   7
  -1   2 -17 5577.93 1147.41   9
   1   2  17 6262.74 1111.90   1
  -1  -2  17 5318.42 665.830   3
   1   2  18 69657.8 3008.58   1
  -1   2 -18 62268.6 3032.70   9
   1  -2 -18 64054.2 2945.95   9
  -1  -2  18 60505.3 3086.91   2
  -1  -2  18 71240.1 2901.00   1
   1   2  18 66202.1 2732.71   3
  -1  -2  18 64083.3 2244.18   3
  -1   2 -18 58824.6 3073.00   7
   1  -2 -18 57989.5 2464.39   7
  -1  -2  19 3319.00 988.321   2
   1   2  19 1159.56 757.429   1
  -1  -2  19 1504.15 482.873   3
  -1   2 -19 2260.06 1149.13   7
   1  -2 -19 2404.81 1029.73   9
  -1   2 -19 1814.32 857.003   9
   1  -2 -19 495.585 660.722   7
   1   2  19 2315.23 756.667   3
  -1  -2  19 2847.85 915.859   1
   1  -2 -20 15388.7 1682.76   9
  -1   2 -20 11008.3 1608.35   7
   1  -2 -20 12742.7 1274.33   7
  -1  -2  20 14062.1 1656.76   2
   1   2  20 15469.9 1653.86   1
  -1  -2  20 12606.1 1445.67   1
   1   2  20 12507.1 1270.18   3
  -1  -2  20 15753.4 1104.04   3
  -1   2 -20 13931.5 1587.59   9
  -1  -2  21-620.316 843.317   1
   1   2  21 1159.05 688.066   3
  -1   2 -21 110.759 956.308   7
   1   2  21 802.006 883.669   1
  -1   2 -21 2974.72 1217.90   9
   1  -2 -21 1717.18 1152.69   9
  -1  -2  21 446.708 984.103   2
  -1  -2  21-258.920 443.532   3
   1  -2 -21 1404.68 716.125   7
  -1  -2  22 7986.84 1444.74   2
   1  -2 -22 9193.76 1452.75   9
  -1  -2  22 9343.93 1346.61   1
   1  -2 -22 8918.82 1163.56   7
  -1   2 -22 12208.2 1688.19   9
   1   2  22 12447.0 1291.54   3
  -1   2 -22 9376.21 1491.42   7
   1   2  22 8575.65 1387.28   1
   1  -2 -23 5901.75 1093.68   7
  -1   2 -23 4536.26 1328.49   9
  -1  -2  23 6481.47 1364.50   2
  -1   2 -23 6571.43 1517.61   7
  -1  -2  23 5978.90 1287.08   1
   1   2  23 9093.29 1161.37   3
   1  -2 -23 5160.52 1318.92   9
   1   2  23 8871.75 1528.25   1
  -1  -2  24 17258.6 1913.25   2
  -1  -2  24 19613.5 1920.96   1
   1  -2 -24 15845.8 1585.34   7
   1   2  24 18868.2 1955.21   1
  -1   2 -24 21536.8 2277.10   7
   1  -2 -24 20336.2 2072.96   9
  -1   2 -24 24210.0 2261.21   9
   1   2  24 21016.4 1678.41   3
   1   2  25 2277.78 1232.15   1
  -1   2 -25 1029.22 1281.73   7
  -1  -2  25 2039.27 1002.22   2
   1  -2 -25-404.792 777.401   7
   1  -2 -25 1904.37 1199.64   9
  -1  -2  25 2574.05 1073.59   1
  -1   2 -25 770.283 1221.64   9
  -1  -2  26 1190.31 1035.98   2
  -1   2 -26 1197.56 1228.77   9
   1  -2 -26-698.778 1274.88   9
  -1   2 -26 537.132 1075.28   7
   1  -2 -26 576.719 789.876   7
  -1  -2  26 3044.91 1234.33   1
   1   2  26-369.000 1174.98   1
  -1  -2  27 2515.13 1102.63   1
   1  -2 -27 1899.51 937.175   7
  -1   2 -27 511.266 1372.36   9
  -1   2 -27-310.758 1279.62   7
   1  -2 -27 933.705 1334.41   9
   1   2  27 96.2310 1217.85   1
  -1  -2  27 2535.70 1163.83   2
  -1  -2  28-427.174 1092.37   1
  -1   2 -28 702.160 1465.71   7
  -1   2 -28-106.625 1173.82   9
   1   2  28-115.937 1207.37   1
  -1  -2  28-1558.32 1284.90   2
  -1  -2  29 930.156 1178.98   2
   1   2  29 650.899 942.926   4
  -1  -2  29 2718.86 1318.82   1
  -1  -3 -29 1332.99 1139.15   7
  -1  -3 -28 265.538 1056.58   9
  -1  -3 -28 941.122 1100.43   7
  -1  -3 -27 1448.88 1296.76   9
   1   3 -27-111.387 1132.03   9
  -1  -3 -27-600.041 1012.69   7
   1   3 -27 618.860 1284.89   7
   1  -3  27 1344.78 1109.33   1
  -1   3  27 2421.46 1103.58   3
   1   3 -26 157.205 1228.70   9
   1   3 -26 553.901 1322.72   7
  -1  -3 -26-135.242 1098.94   7
  -1   3  26-161.425 875.327   3
   1  -3  26 343.590 1233.54   1
  -1  -3 -26 1097.21 1026.14   9
   1   3 -25 3662.54 1468.58   9
  -1  -3 -25 5235.04 1212.01   7
   1  -3  25 1692.48 1173.62   1
  -1   3  25 3508.93 1199.92   3
  -1  -3 -25 3223.04 1244.17   9
   1   3 -25 3247.55 1413.55   7
   1  -3  24-1245.24 1010.86   1
   1   3 -24-871.587 1120.70   7
  -1   3  24 663.768 1006.08   3
   1   3 -24 1296.76 1140.90   9
  -1  -3 -24 866.367 939.480   7
  -1  -3 -24 757.012 1170.70   9
  -1   3  24 392.773 662.891   4
   1  -3  23 8029.84 1456.81   1
   1   3 -23 4331.14 1210.64   7
  -1   3  23 7455.43 1049.99   4
  -1  -3 -23 8350.48 1435.78   9
   1   3 -23 9447.82 1695.83   9
  -1   3  23 8228.49 1313.24   3
  -1  -3 -23 5489.53 1191.42   7
  -1  -3 -22 685.679 723.853   7
   1  -3  22 512.785 811.960   1
   1   3 -22-224.970 1138.17   9
  -1  -3 -22 1001.99 847.978   9
  -1   3  22 927.011 662.163   4
  -1   3  22 1060.53 992.336   3
  -1  -3 -21 787.049 763.694   7
   1   3 -21 555.330 571.758   5
  -1   3  21 2264.79 1023.91   3
   1  -3  21 1060.28 903.398   1
  -1   3  21 1509.06 648.764   4
   1   3 -21 448.065 1006.82   9
  -1  -3 -21 1887.79 985.074   9
  -1  -3 -20-172.627 784.763   7
   1   3 -20 433.400 574.075   5
   1  -3  20-33.0225 793.131   1
  -1   3  20 67.3047 603.500   4
   1   3 -20-1839.47 1201.32   9
  -1  -3 -20 1336.43 1003.14   9
  -1   3  20 967.933 823.542   3
   1   3 -19 16162.3 1256.97   5
  -1  -3 -19 13997.1 1373.18   7
  -1   3  19 16113.1 1220.67   4
  -1   3  19 17381.2 1708.38   3
  -1   3  19 14759.0 968.957   2
  -1  -3 -19 16489.7 1601.38   9
   1   3 -19 17106.2 1859.34   9
   1  -3  19 18059.0 1745.25   1
  -1   3  18 6068.72 811.823   4
  -1   3  18 6967.56 1187.84   3
  -1   3  18 5033.20 615.648   2
  -1  -3 -18 4533.91 929.712   7
   1   3 -18 3631.10 711.159   5
  -1  -3 -18 5638.56 1062.13   9
   1   3 -18 6927.67 1394.41   9
   1  -3  18 5004.10 1132.75   1
  -1   3  17 89976.7 2503.33   2
   1  -3  17 99583.5 3843.38   1
  -1  -3 -17 89654.1 3295.46   7
  -1   3  17 89162.0 2913.31   4
  -1   3  17 96935.3 3694.82   3
   1   3 -17 96016.0 3131.36   5
  -1  -3 -17 92642.8 3403.32   9
   1   3 -17 92849.4 3792.76   9
   1  -3  16 12333.2 1348.34   1
   1   3 -16 11125.7 866.888   3
   1   3 -16 11399.6 700.225   8
   1   3 -16 12329.5 1493.39   9
  -1   3  16 10739.8 1306.36   3
  -1   3  16 11076.2 755.862   2
  -1   3  16 13404.8 991.261   4
  -1  -3 -16 13522.6 1220.18   7
  -1  -3 -16 10788.3 1139.37   9
   1   3 -16 13404.5 1097.59   5
  -1   3  15 2867.04 578.840   4
  -1   3  15 3454.12 428.357   2
   1   3 -15 4620.60 783.095   5
  -1   3  15 3630.38 868.688   3
   1  -3  15 3924.60 1009.31   1
   1   3 -15 2744.69 485.444   3
   1   3 -15 4527.11 1001.65   9
  -1  -3 -15 3799.88 779.507   9
  -1  -3 -15 3630.82 795.551   7
  -1   3  14 35698.0 1214.83   2
   1   3 -14 35138.1 1024.14   6
  -1   3  14 38787.5 1592.52   4
  -1  -3 -14 38464.8 1893.15   9
   1  -3  14 36568.1 2119.30   1
  -1   3  14 40418.4 2211.30   3
   1   3 -14 38378.2 2217.31   9
   1   3 -14 40629.8 1861.40   5
  -1  -3 -14 34609.3 1797.87   7
   1   3 -14 33584.3 1468.28   3
  -1   3  13 182823. 5196.14   3
   1   3 -13 173459. 3692.88   6
  -1   3  13 181733. 4213.16   4
  -1  -3 -13 188289. 4724.00   9
   1   3 -13 180734. 4622.42   5
   1   3 -13 176247. 4172.05   3
  -1   3  13 179533. 3686.61   2
   1   3 -13 185947. 5199.36   9
   1  -3  13 187353. 5180.49   1
  -1  -3 -13 184239. 4692.27   7
   1   3 -12 14281.5 1365.21   9
  -1  -3 -12 14982.1 1108.84   7
  -1   3  12 13347.4 1297.34   3
  -1   3  12 14790.5 917.956   4
   1   3 -12 16118.8 1183.03   5
   1  -3  12 14373.5 1355.36   1
   1  -3  12 13735.0 732.647   5
  -1  -3 -12 15101.8 1112.83   9
   1   3 -12 14552.4 896.588   3
  -1   3  12 14330.3 647.388   2
  -1   3  11 203982. 4520.00   4
   1   3 -11 205512. 5068.31   5
   1   3 -11 220336. 5528.25   9
  -1   3  11 210593. 3984.42   2
  -1  -3 -11 212852. 4940.80   9
   1   3 -11 197105. 4583.77   3
   1   3 -11 211264. 5412.49   4
  -1   3  11 215845. 5577.97   3
  -1  -3 -11 208807. 4981.44   7
   1  -3  11 212623. 5476.48   1
   1  -3  11 203822. 4307.54   5
   1   3 -10 23746.6 1530.35   4
  -1  -3 -10 23263.7 1285.03   7
  -1   3  10 23536.3 1585.73   3
  -1  -3 -10 24606.6 1278.57   9
   1   3 -10 22923.5 1113.05   3
   1  -3  10 21712.2 978.288   5
  -1   3  10 24063.8 1067.13   4
   1  -3  10 22709.3 1493.40   1
   1   3 -10 25192.3 1561.97   9
  -1   3  10 24127.5 752.351   2
   1   3 -10 27933.4 1455.68   5
   1  -3   9 10208.9 1022.32   1
  -1  -3  -9 11174.1 834.070   9
  -1   3   9 10847.1 963.699   6
  -1   3   9 10932.5 699.981   4
  -1  -3  -9 11480.2 894.083   7
   1   3  -9 11342.3 954.916   5
  -1   3   9 10999.3 450.854   2
  -1   3   9 12012.8 1129.05   3
   1   3  -9 10706.5 749.618   3
   1   3  -9 10738.4 1035.15   4
   1  -3   9 11074.1 692.144   5
   1   3  -9 11999.8 1060.68   9
   1   3  -8 22134.0 1300.21   5
   1   3  -8 23509.4 1097.96   3
   1  -3   8 22179.0 1395.02   1
   1   3  -8 22082.0 1207.73   1
   1   3  -8 23968.7 1427.75   4
  -1   3   8 22288.0 1353.46   6
  -1  -3  -8 21870.1 1124.02   9
   1   3  -8 24113.1 1437.81   9
  -1   3   8 21760.9 973.283   4
   1  -3   8 21638.1 1008.42   5
  -1   3   8 23540.0 921.967   7
  -1  -3  -8 23370.6 1197.04   7
  -1   3   8 23724.2 1509.06   3
  -1  -3  -7 398845. 7766.38   9
   1  -3   7 401771. 8403.52   1
  -1   3   7 400795. 8490.40   6
   1   3  -7 408778. 8053.44   1
   1   3  -7 397221. 8226.36   5
  -1   3   7 402381. 7525.57   4
   1   3  -7 407203. 8430.02   4
  -1  -3  -7 397268. 7898.88   7
   1   3  -7 395036. 7785.21   3
  -1   3   7 395945. 7303.52   7
   1   3  -7 398475. 8313.94   9
  -1   3   7 406361. 8614.68   3
  -1  -3  -6 79315.7 2174.76   9
   1   3  -6 78293.8 2253.71   3
   1  -3   6 81794.0 2656.55   1
  -1   3   6 76923.1 2705.08   6
   1   3  -6 79961.2 2595.59   5
   1   3  -6 77124.1 2338.29   1
   1   3  -6 80468.8 2637.29   4
  -1   3   6 76818.1 2035.26   4
  -1  -3  -6 82443.3 2331.58   7
  -1   3   6 79182.7 1804.94   7
  -1   3   6 82694.5 2780.14   3
   1   3  -6 80614.5 2557.26   9
   1   3  -5 404158. 8044.02   9
  -1   3   5 399677. 7451.64   4
  -1  -3  -5 408974. 7829.60   1
  -1   3   5 404644. 8436.71   6
  -1  -3  -5 387194. 7845.89   4
   1   3  -5 421769. 8247.30   4
   1  -3   5 409056. 8208.53   1
   1  -3   5 383213. 8192.23   4
   1   3  -5 372680. 8098.31   5
   1  -3   5 394369. 8182.13   9
  -1   3   5 406221. 8388.26   3
   1   3  -5 385938. 7738.01   1
  -1  -3  -5 398348. 7747.73   7
  -1   3   5 394968. 7018.81   7
  -1  -3  -4 22171.7 1057.52   1
   1  -3   4 21297.2 1223.67   4
  -1  -3  -4 21781.8 1052.56   7
   1   3  -4 21733.4 1009.01   1
  -1   3   4 19665.7 1262.44   6
   1   3  -4 22543.1 1222.71   4
  -1   3   4 22546.5 673.875   7
  -1  -3  -4 21271.9 752.960   2
   1  -3   4 23447.1 1266.79   1
  -1   3   4 21221.5 928.030   4
  -1  -3  -4 21921.1 1087.91   4
   1   3  -4 20808.3 1174.08   7
   1   3  -4 22801.0 1155.18   9
  -1   3   4 23387.7 1334.04   3
   1  -3   4 20870.4 1168.71   9
  -1   3   3 17166.6 567.016   7
  -1   3   3 16770.3 1181.70   6
  -1  -3  -3 15856.5 861.886   1
  -1  -3  -3 17077.2 948.392   4
   1  -3   3 16925.4 1025.02   4
  -1  -3  -3 17806.4 694.461   2
   1   3  -3 16947.4 1010.68   7
  -1   3   3 18255.6 1164.50   3
  -1  -3  -3 18615.0 954.268   7
  -1   3   3 17328.7 851.854   4
   1  -3   3 17117.4 1092.17   1
   1  -3   3 18455.1 1044.84   9
   1   3  -3 17121.9 1052.09   4
   1  -3   2 119377. 3153.45   4
   1   3  -2 120965. 3121.23   7
   1   3  -2 124534. 3177.64   4
  -1   3   2 120841. 3474.84   6
   1  -3   2 126674. 3234.70   1
  -1   3   2 120300. 2415.74   7
  -1   3   2 121121. 2914.20   4
  -1  -3  -2 119475. 3028.68   4
  -1  -3  -2 120848. 2977.39   7
  -1   3   2 125021. 3301.69   3
  -1  -3  -2 119454. 2607.28   2
   1  -3   1 239681. 5099.39   1
  -1   3   1 229520. 5136.02   3
  -1  -3  -1 234889. 5333.13   5
   1   3  -1 239868. 5063.17   4
  -1  -3  -1 228526. 4954.89   4
   1   3  -1 226018. 4952.04   7
  -1  -3  -1 234987. 4563.29   2
  -1  -3  -1 234968. 4911.52   7
  -1   3   1 235960. 5463.96   6
  -1   3   1 225350. 4366.31   7
  -1   3   1 241581. 4954.94   4
   1  -3   1 224251. 4957.68   4
  -1  -3   0 1762.52 359.222   4
  -1  -3   0 1745.52 419.605   7
  -1   3   0 2027.15 470.206   6
   1   3   0 1793.75 319.201   2
   1  -3   0 1861.71 366.277   4
   1  -3   0 1488.39 466.251   1
  -1   3   0 2292.12 495.896   3
  -1  -3   0 1488.08 387.930   5
  -1   3   0 2700.68 464.800   4
   1   3   0 2182.28 438.278   4
   1   3   0 2081.36 362.343   7
  -1  -3   0 1741.61 322.329   2
   1   3   1 234827. 4707.68   2
  -1   3  -1 236761. 5179.73   4
   1   3   1 232252. 4994.79   4
   1   3   1 235571. 4953.50   7
  -1   3  -1 227285. 4985.97   3
  -1  -3   1 233027. 4841.87   2
  -1   3  -1 233779. 5421.24   6
   1  -3  -1 229683. 4838.08   4
  -1  -3   1 243496. 5090.28   4
  -1  -3   1 240477. 4839.21   1
  -1  -3   1 241650. 4955.32   9
   1  -3  -1 241464. 5051.91   1
  -1  -3   1 238687. 5378.66   5
  -1   3  -2 141651. 3560.90   4
   1   3   2 135782. 3244.80   7
  -1   3  -2 135864. 3192.29   3
  -1   3  -2 132863. 3606.37   6
   1   3   2 138171. 3334.36   4
  -1  -3   2 136230. 3614.56   5
  -1  -3   2 142663. 3331.09   9
   1   3   2 133157. 2921.77   2
  -1  -3   2 136382. 3383.44   4
   1  -3  -2 132996. 3071.33   4
  -1   3  -2 135067. 3403.40   1
  -1  -3   2 140620. 3197.10   1
  -1  -3   2 141046. 3294.06   2
  -1   3  -3 16467.7 1065.81   4
  -1  -3   3 17683.4 975.184   9
  -1   3  -3 18077.0 1096.07   6
   1   3   3 16888.6 686.911   2
  -1  -3   3 17258.6 1072.54   5
  -1   3  -3 16393.8 998.049   1
  -1  -3   3 16795.9 906.232   1
   1   3   3 17895.8 979.275   4
  -1  -3   3 15870.0 977.691   2
  -1  -3   3 17479.8 996.845   4
  -1   3  -3 15916.9 806.415   3
   1  -3  -3 17413.6 796.021   4
   1   3   3 16538.4 895.238   7
   1  -3  -4 15839.7 539.808   2
  -1   3  -4 18299.7 1085.60   6
  -1   3  -4 15449.4 728.013   3
   1   3   4 16457.6 903.485   7
  -1  -3   4 15923.7 1031.06   5
   1  -3  -4 16234.2 755.215   4
  -1  -3   4 15032.1 1003.48   2
   1   3   4 15174.9 948.257   4
  -1   3  -4 16053.7 1104.88   4
   1   3   4 15971.1 628.932   2
  -1  -3   4 17142.0 918.990   1
   1  -3  -4 15647.7 562.205   7
  -1  -3   4 15412.8 951.519   9
  -1   3  -4 14488.2 977.213   1
  -1  -3   4 14495.6 948.588   4
  -1  -3   5 355424. 7661.02   5
   1   3   5 375127. 7381.31   7
   1   3   5 374222. 6713.29   2
  -1   3  -5 352963. 7611.70   6
  -1  -3   5 380073. 7733.74   4
  -1  -3   5 360918. 7659.63   9
  -1  -3   5 386460. 7447.11   1
  -1  -3   5 391589. 7887.00   2
   1  -3  -5 375434. 6544.63   2
  -1   3  -5 375728. 7874.49   4
   1  -3  -5 382335. 6638.68   7
   1  -3  -5 383546. 7049.39   4
  -1   3  -5 360700. 6803.87   3
   1   3   5 383821. 7491.24   4
   1  -3  -6 78239.0 1650.20   2
  -1   3  -6 76265.8 2446.06   6
  -1  -3   6 83056.9 2605.30   9
  -1   3  -6 78265.3 1758.78   3
  -1  -3   6 81462.6 2558.11   5
   1  -3  -6 81136.4 2059.75   4
  -1   3  -6 85321.2 2758.86   4
   1   3   6 82825.4 1804.93   2
  -1  -3   6 79765.1 2731.55   2
   1  -3  -6 84409.1 1801.15   7
  -1  -3   6 81133.6 2389.80   1
   1   3   6 83059.3 2371.27   7
   1   3   6 85528.2 2473.11   4
   1  -3  -7 382827. 6821.20   7
  -1   3  -7 363169. 7580.87   6
  -1  -3   7 379503. 8200.49   2
  -1   3  -7 390686. 8074.46   9
   1   3   7 368507. 6752.28   2
  -1  -3   7 392795. 7643.50   1
  -1  -3   7 361083. 7744.69   5
   1  -3  -7 382378. 7709.61   9
   1   3   7 380913. 7640.38   4
   1   3   7 373921. 7554.76   7
  -1   3  -8 32480.4 1694.31   9
   1   3   8 27627.1 882.895   2
  -1  -3   8 27082.8 1664.73   2
   1  -3  -8 28054.5 1418.30   9
   1  -3  -8 28383.4 966.769   7
  -1  -3   8 26954.7 1344.01   1
  -1   3  -8 26852.6 1285.98   6
   1   3   8 26703.8 1340.40   4
  -1   3  -9 11776.0 1156.97   9
  -1  -3   9 10702.9 1187.93   2
   1   3   9 11382.2 549.635   2
   1  -3  -9 10769.5 621.797   7
   1  -3  -9 10556.9 950.596   9
  -1   3  -9 9692.87 758.340   6
   1   3   9 11279.4 928.865   4
   1   3   9 11158.1 961.653   1
  -1  -3   9 10527.6 884.730   1
   1  -3 -10 29905.6 1125.07   7
   1  -3 -10 32231.3 1643.03   9
   1   3  10 30700.2 1508.03   4
  -1   3 -10 27680.1 1681.94   9
  -1  -3  10 29791.9 1508.60   1
   1   3  10 28996.4 968.768   2
  -1  -3  10 25679.6 1783.27   2
   1   3  10 26744.8 1454.65   1
  -1   3 -10 28137.6 1269.65   6
  -1  -3  11 223520. 5326.22   1
  -1   3 -11 208722. 4795.84   6
   1   3  11 220758. 5296.09   4
  -1   3 -11 222964. 5749.24   9
  -1  -3  11 211363. 5963.59   2
   1   3  11 228574. 5412.81   1
   1  -3 -11 226943. 4654.89   7
   1  -3 -11 221640. 5435.15   9
   1   3  12 15548.9 1257.38   1
   1  -3 -12 15815.1 1314.44   9
  -1   3 -12 13309.2 1334.10   9
  -1  -3  12 12292.1 1317.87   2
   1  -3 -12 13285.7 834.216   7
   1   3  12 16462.8 1227.68   4
  -1  -3  12 13676.8 1103.46   1
   1   3  13 177139. 4873.29   1
   1  -3 -13 180538. 4209.08   7
  -1  -3  13 189482. 4910.50   1
  -1   3 -13 192286. 5380.26   9
  -1  -3  13 180532. 5522.74   2
   1   3  13 184132. 4809.86   4
   1  -3 -13 185282. 4949.76   9
   1  -3 -14 33742.7 1481.46   7
   1   3  14 34214.9 1892.85   1
  -1  -3  14 32354.1 2224.01   2
  -1   3 -14 32040.3 2078.33   9
  -1  -3  14 35257.2 1856.74   1
   1  -3 -14 36446.9 1999.06   9
  -1   3 -14 38311.4 2277.79   7
   1   3  14 35761.7 1852.50   4
  -1  -3  15 4990.26 1153.81   2
   1   3  15 4510.22 845.896   1
  -1   3 -15 4348.30 1073.28   7
   1  -3 -15 4587.31 662.529   7
  -1  -3  15 3049.18 797.607   1
   1   3  15 5096.16 843.803   4
   1  -3 -15 3447.17 824.370   9
  -1   3 -15 6690.60 1205.09   9
   1  -3 -16 9826.90 1222.10   9
  -1   3 -16 8569.12 1296.68   7
  -1  -3  16 10337.5 1347.81   2
  -1  -3  16 11230.8 1216.37   1
   1   3  16 9905.96 1122.66   4
  -1   3 -16 10979.3 1378.46   9
   1   3  16 8177.08 1138.95   1
   1  -3 -16 10040.1 923.223   7
   1   3  17 91308.5 3549.16   1
  -1  -3  17 95461.4 3961.44   2
  -1  -3  17 92136.9 3473.13   1
   1  -3 -17 87491.4 2889.54   7
  -1   3 -17 97018.1 3993.16   7
   1   3  17 86097.4 3263.43   4
   1  -3 -17 91224.8 3535.24   9
  -1   3 -17 90982.2 3792.60   9
   1   3  18 4857.69 924.087   4
  -1   3 -18 5351.09 1236.64   7
   1  -3 -18 6319.85 1097.66   9
   1  -3 -18 5365.84 792.514   7
   1   3  18 5719.59 1183.05   1
  -1   3 -18 6125.24 1195.74   9
  -1  -3  18 4313.50 1108.65   2
  -1  -3  18 4469.89 1017.06   1
   1   3  19 14408.4 1588.74   1
   1  -3 -19 19057.7 1365.06   7
  -1  -3  19 16569.5 1883.60   2
  -1   3 -19 18334.8 1815.10   9
   1  -3 -19 19367.7 1730.35   9
   1   3  19 18606.8 1574.08   4
   1   3  19 18802.2 1658.57   3
  -1   3 -19 20305.5 2059.60   7
  -1  -3  19 20534.8 1694.29   1
   1  -3 -20-156.957 624.901   7
   1   3  20 769.481 838.055   1
  -1   3 -20 343.807 947.207   9
  -1  -3  20-461.000 732.644   1
   1   3  20 144.374 653.836   4
  -1   3 -20 71.4477 1115.22   7
  -1  -3  20-179.508 952.708   2
   1   3  20 866.511 852.261   3
   1  -3 -20-1134.98 970.092   9
   1   3  21 1369.49 887.841   4
  -1   3 -21 26.1331 911.424   7
  -1  -3  21 427.400 808.463   1
   1   3  21 258.569 739.510   3
   1  -3 -21 882.121 677.008   7
  -1  -3  21 1771.02 955.995   2
   1  -3 -21 1893.08 1083.12   9
  -1   3 -21 2824.66 1139.93   9
   1   3  21 963.216 828.429   1
  -1  -3  22-242.363 1094.46   2
   1  -3 -22-371.213 696.634   7
   1   3  22-1685.56 906.344   3
   1   3  22 560.190 889.323   4
  -1   3 -22 178.697 1164.38   7
  -1  -3  22 166.636 833.205   1
   1   3  22 1164.91 1059.35   1
   1  -3 -22 2180.03 972.446   9
  -1   3 -22 474.076 860.625   9
  -1   3 -23 6767.00 1601.49   7
  -1  -3  23 5542.26 1194.91   1
  -1  -3  23 7225.45 1472.73   2
   1   3  23 6281.95 1225.37   4
   1  -3 -23 5694.07 1249.42   9
   1   3  23 5683.66 1278.69   1
   1  -3 -23 6511.72 1093.69   7
  -1   3 -23 8168.18 1497.99   9
   1   3  23 9338.09 1280.58   3
  -1  -3  24-2059.03 1318.60   2
   1   3  24-21.7705 1022.37   1
   1  -3 -24-955.830 803.875   7
  -1   3 -24 1482.50 1356.36   9
   1   3  24 151.302 821.156   3
   1   3  24-636.934 972.075   4
  -1   3 -24 63.2882 952.679   7
  -1  -3  24-1904.80 1069.72   1
   1  -3 -24 1322.85 1086.24   9
  -1  -3  25 3021.03 1354.57   2
  -1  -3  25 4727.52 1242.30   1
  -1   3 -25 5382.66 1639.46   7
   1  -3 -25 3319.50 1276.42   9
   1   3  25 4301.76 1141.37   4
   1   3  25 1722.91 1057.65   1
   1  -3 -25 2543.22 899.901   7
  -1   3 -25 1987.18 1236.54   9
   1   3  25 3289.33 1029.06   3
  -1  -3  26 180.108 1192.46   2
  -1   3 -26 1894.89 1445.68   7
   1   3  26-26.7932 992.906   4
   1  -3 -26 735.422 1363.50   9
  -1   3 -26 821.948 1272.60   9
   1   3  26 1341.81 1278.14   1
  -1  -3  26-742.919 1101.72   1
  -1  -3  27 314.576 1078.42   1
   1  -3 -27 1072.53 1209.17   9
   1   3  27 807.716 1127.30   1
  -1  -3  27 146.613 1256.24   2
   1   3  27 876.352 987.311   4
  -1   3 -27-67.2791 993.955   7
  -1   3 -27-3654.52 1524.29   9
  -1  -3  28 2671.96 1197.72   1
   1   3  28 2739.59 1126.68   4
  -1  -3  28 789.785 1205.66   2
  -1  -3  29 416.460 987.182   1
   1   3  29 2725.04 1284.33   4
  -1   4  28 523.194 912.157   3
  -1  -4 -28 888.669 995.068   7
  -1  -4 -27 2762.01 1302.58   9
  -1   4  27 2025.29 1144.51   3
  -1  -4 -27 880.574 1026.98   7
   1   4 -26 1443.42 1127.19   9
  -1  -4 -26 2144.27 1119.34   7
   1   4 -26 83.7326 1366.00   7
  -1  -4 -26 1968.87 1098.99   9
  -1   4  26-725.851 1168.03   3
  -1  -4 -25 1689.03 937.126   7
  -1  -4 -25 1387.37 1015.40   9
  -1   4  25 2042.34 1094.20   3
   1   4 -25 3144.36 1473.99   9
   1  -4  25 4304.72 1510.94   1
   1   4 -25 1117.52 1218.33   7
  -1   4  24 5929.89 1279.97   3
   1  -4  24 8732.98 1722.65   1
   1   4 -24 5331.80 1377.10   7
  -1  -4 -24 4556.57 1193.14   9
  -1  -4 -24 4899.46 1079.29   7
   1   4 -24 6318.62 1509.11   9
  -1  -4 -23 2810.94 1218.75   9
   1  -4  23 2865.88 1286.51   1
  -1   4  23 2550.72 1200.21   3
   1   4 -23 2986.31 1201.92   9
  -1  -4 -23 2982.56 1011.15   7
  -1   4  22 2686.43 753.450   4
   1  -4  22 2756.41 1204.69   1
  -1  -4 -22 4505.25 1268.36   9
   1   4 -22 3276.41 1349.37   9
  -1  -4 -22 3962.28 1041.58   7
  -1   4  22 3376.46 1147.98   3
  -1   4  21 5430.14 882.581   4
  -1  -4 -21 3756.82 983.742   7
  -1  -4 -21 5426.16 1231.98   9
  -1   4  21 5230.01 1300.05   3
   1  -4  21 5796.32 1307.06   1
   1   4 -21 6068.23 1584.13   9
  -1   4  20 7852.39 1377.38   3
  -1  -4 -20 5960.65 1062.45   7
  -1   4  20 4072.93 757.966   4
   1   4 -20 5371.19 1372.19   9
  -1  -4 -20 6790.15 1280.72   9
   1  -4  20 6924.24 1312.95   1
  -1   4  19 5154.18 850.702   4
   1   4 -19 5777.97 1307.33   9
  -1  -4 -19 5072.16 973.042   7
  -1  -4 -19 4781.46 999.668   9
  -1   4  19 6998.36 1363.68   3
   1  -4  19 6622.47 1264.93   1
  -1  -4 -18 28814.4 1949.76   9
   1  -4  18 28852.8 2238.53   1
  -1   4  18 33235.1 1712.77   4
  -1   4  18 34247.2 2386.79   3
   1   4 -18 32907.3 2354.70   9
  -1  -4 -18 28326.1 1833.16   7
  -1   4  17 209.515 881.714   3
  -1  -4 -17 1704.02 812.205   9
  -1   4  17 1117.73 530.627   4
   1   4 -17 439.499 905.659   9
   1  -4  17 2154.26 848.326   1
  -1  -4 -17 1467.54 733.009   7
  -1  -4 -16 2574.46 758.096   9
  -1   4  16 2788.62 911.196   3
   1  -4  16 3718.98 1136.94   1
  -1   4  16 3478.26 670.015   4
  -1  -4 -16 2515.70 782.030   7
   1   4 -16 3380.85 1075.57   9
  -1  -4 -15 32402.1 1791.69   7
  -1   4  15 36037.5 2321.10   3
  -1   4  15 31545.6 865.998   2
  -1  -4 -15 38029.6 2007.03   9
  -1   4  15 35131.3 1641.44   4
   1  -4  15 33190.1 2129.71   1
   1   4 -15 36835.5 2334.33   9
   1   4 -14 3089.21 905.035   9
  -1  -4 -14 1646.93 638.596   7
   1  -4  14 2142.05 410.627   5
  -1   4  14 1693.84 506.714   4
   1  -4  14 2037.96 857.980   1
  -1   4  14 3584.85 1066.85   3
  -1   4  14 1969.79 175.168   2
   1   4 -14 2765.73 482.904   3
  -1  -4 -14 2974.13 752.046   9
   1   4 -14 1386.25 352.520   6
   1   4 -13 9459.55 1247.06   9
  -1  -4 -13 7219.77 874.405   7
   1   4 -13 6788.35 1101.96   4
   1  -4  13 7200.12 659.646   5
   1  -4  13 6259.10 1146.06   1
  -1   4  13 7941.57 774.780   4
   1   4 -13 7017.13 668.693   3
  -1   4  13 8153.20 1168.85   3
   1   4 -13 7472.68 687.238   6
  -1  -4 -13 7665.83 991.338   9
  -1   4  12 47437.7 2475.24   3
   1   4 -12 42826.4 2338.49   9
  -1  -4 -12 45542.1 1967.56   7
   1   4 -12 41732.1 1643.54   3
   1  -4  12 41244.7 1605.32   5
   1   4 -12 43693.2 2324.85   4
  -1   4  12 43338.8 1711.74   4
   1  -4  12 44177.4 2336.62   1
  -1  -4 -12 43245.6 1964.78   9
  -1  -4 -11 1030.05 509.400   7
   1  -4  11 1775.41 726.899   1
   1   4 -11 1076.82 391.703   3
  -1   4  11 1003.83 435.298   4
   1  -4  11 749.973 363.744   5
  -1  -4 -11 1343.29 522.559   9
  -1   4  11 1539.19 921.435   3
   1   4 -11 1810.17 758.058   4
   1   4 -11 564.211 735.839   9
  -1  -4 -10 22311.3 1303.59   7
  -1   4  10 23712.7 1081.37   7
  -1   4  10 22429.5 1697.04   3
   1   4 -10 26702.3 1757.05   4
   1   4 -10 22204.5 1150.62   3
   1  -4  10 24399.8 1639.51   1
   1  -4  10 23521.4 1201.81   5
  -1   4  10 24045.1 1203.65   4
   1   4 -10 27483.3 1725.56   9
  -1  -4 -10 25680.6 1389.31   9
  -1   4   9 41401.1 2196.20   3
   1  -4   9 40957.8 1648.98   5
  -1  -4  -9 40695.4 1750.14   7
   1   4  -9 44747.5 2130.67   9
  -1   4   9 42730.7 1613.70   4
  -1  -4  -9 41125.3 1729.59   9
   1   4  -9 41159.3 2127.82   4
   1  -4   9 40007.9 2062.25   1
  -1   4   9 43818.7 1435.28   7
   1   4  -9 39369.1 1589.24   3
  -1   4   8 26337.6 1199.91   4
  -1   4   8 25201.9 1697.80   3
   1  -4   8 25450.7 1299.59   5
   1  -4   8 28656.5 1691.41   1
  -1  -4  -8 26061.6 1320.66   9
   1   4  -8 27310.5 1695.20   4
   1   4  -8 24960.0 1235.79   3
   1   4  -8 25786.3 1584.91   9
  -1  -4  -8 27961.1 1395.27   7
  -1   4   8 26354.1 1023.78   7
   1   4  -7 32836.2 1440.23   3
   1   4  -7 34763.8 1757.21   9
  -1  -4  -7 35946.3 1537.87   7
   1  -4   7 35087.3 1827.90   1
   1   4  -7 35931.1 1892.10   4
  -1   4   7 32567.2 1890.40   3
  -1   4   7 34117.4 1383.58   4
  -1   4   7 34694.9 1129.34   7
  -1   4   6 95805.6 2202.72   7
   1  -4   6 98447.4 3184.85   1
   1   4  -6 94826.0 3193.09   4
   1   4  -6 96739.8 3071.13   9
  -1  -4  -6 94984.6 2755.63   7
  -1   4   6 91113.6 3273.90   3
  -1   4   6 96354.3 2619.83   4
   1   4  -5 45504.6 2060.50   4
  -1  -4  -5 42751.0 1680.27   7
   1  -4   5 46398.5 1997.84   1
  -1   4   5 42944.7 1598.81   4
  -1  -4  -5 46214.3 1210.09   2
  -1   4   5 42683.3 1235.57   7
  -1  -4  -4 102178. 2262.89   2
  -1  -4  -4 100966. 2828.85   7
  -1   4   4 98134.2 2758.26   4
  -1   4   4 100029. 2239.29   7
   1   4  -4 101053. 3156.39   4
   1  -4   4 110271. 3261.95   1
  -1   4   3 167835. 3447.76   7
   1   4  -3 178932. 4463.99   4
  -1   4   3 172169. 4065.39   4
  -1  -4  -3 175073. 4096.83   7
   1  -4   3 179230. 4505.31   1
  -1  -4  -3 168422. 3513.10   2
   1   4  -2 79013.1 2568.37   4
  -1  -4  -2 76275.5 1952.75   2
   1  -4   2 77071.7 2586.43   1
  -1   4   2 75493.9 2365.60   4
  -1   4   2 74285.9 1867.48   7
  -1  -4  -2 76796.4 2344.78   7
  -1  -4  -1 66005.3 1855.42   2
  -1  -4  -1 67216.7 2191.89   7
  -1   4   1 65870.3 1780.17   7
  -1   4   1 69725.9 2283.29   4
   1  -4   1 65271.5 2222.03   4
   1   4  -1 69011.4 2356.56   4
   1  -4   1 67761.0 2333.19   1
   1  -4   0 370890. 7554.10   1
  -1   4   0 370614. 7549.96   4
  -1  -4   0 363261. 7001.69   2
   1  -4   0 345979. 7311.23   4
  -1   4   0 340090. 6844.96   7
   1   4   0 380821. 7579.04   4
   1   4   1 53848.6 2003.65   4
  -1  -4   1 51826.8 1832.75   1
   1  -4  -1 51488.6 1821.42   4
   1  -4  -1 53680.0 1995.64   1
  -1   4  -1 56396.0 2123.34   4
  -1  -4   1 53274.2 1784.79   2
  -1  -4   1 54976.0 1917.88   9
  -1  -4   2 61325.0 2129.25   9
   1  -4  -2 62432.3 1983.71   4
  -1   4  -2 64845.1 2345.47   4
  -1  -4   2 60371.0 2058.10   2
  -1  -4   2 65358.5 2096.42   1
   1   4   2 62879.0 2179.71   4
  -1   4  -3 174491. 4497.33   4
  -1  -4   3 168934. 4227.92   9
  -1  -4   3 164467. 4163.15   2
   1   4   3 168835. 4168.49   4
   1  -4  -3 166891. 3899.89   4
  -1  -4   3 174872. 4128.48   1
  -1  -4   4 115382. 3092.86   1
  -1   4  -4 113578. 3436.36   4
   1   4   4 105171. 2471.13   2
   1   4   4 107137. 3071.60   4
   1  -4  -4 103656. 2750.34   4
  -1  -4   4 105998. 3194.70   2
   1  -4  -4 108292. 2225.16   2
   1   4   5 45135.6 1292.39   2
  -1   4  -5 48596.6 2143.39   4
   1  -4  -5 44564.7 1053.20   2
   1   4   5 46717.0 1863.27   4
  -1  -4   5 48972.8 1876.25   1
  -1  -4   5 47120.1 2025.88   2
   1  -4  -5 45146.3 1579.47   4
   1  -4  -6 113900. 2538.15   7
  -1   4  -6 115918. 3658.81   4
  -1   4  -6 112126. 2702.24   3
  -1  -4   6 119415. 3311.32   1
   1  -4  -6 114561. 2914.64   4
  -1  -4   6 111495. 3560.08   2
   1   4   6 116625. 2448.88   2
   1   4   6 120359. 3310.42   4
   1   4   7 36520.4 1016.61   2
   1  -4  -7 37127.6 1403.86   4
  -1  -4   7 36856.2 1702.42   1
  -1  -4   7 34446.7 1900.64   2
   1   4   7 40342.8 1742.81   4
  -1   4  -7 37074.6 1177.18   3
  -1   4  -7 35693.8 1916.78   4
   1  -4  -7 37250.2 1161.23   7
   1   4   8 33277.4 1595.17   4
   1  -4  -8 31707.1 1080.98   7
  -1  -4   8 28056.5 1762.14   2
   1   4   8 30150.9 869.704   2
  -1  -4   8 32102.6 1607.72   1
  -1   4  -8 30121.0 1821.39   4
  -1   4  -8 29947.9 917.310   3
  -1  -4   9 37754.9 2121.50   2
   1  -4  -9 32074.5 1148.78   7
   1  -4  -9 34501.4 1746.63   9
  -1  -4   9 33825.6 1683.72   1
   1   4   9 31498.3 887.056   2
  -1   4  -9 34338.8 1923.34   9
   1   4   9 33980.9 1649.01   4
   1   4  10 17515.3 615.284   2
  -1   4 -10 20059.5 1576.38   9
  -1  -4  10 18592.3 1287.46   1
   1   4  10 16184.0 1226.28   4
  -1  -4  10 16963.8 1479.57   2
   1  -4 -10 18027.1 876.380   7
   1  -4 -10 16353.3 1282.08   9
   1  -4 -11-88.6351 743.107   9
   1   4  11 450.135 167.247   2
  -1  -4  11 41.9414 791.351   2
  -1   4 -11-273.125 807.198   9
  -1  -4  11-510.700 654.484   1
   1  -4 -11 328.988 321.316   7
   1   4  11 878.703 590.704   4
  -1   4 -12 36202.4 1637.78   6
  -1  -4  12 43360.9 2094.69   1
   1   4  12 39026.1 1095.24   2
  -1   4 -12 39605.8 2252.28   9
  -1  -4  12 44009.0 2496.67   2
   1  -4 -12 41798.6 1504.33   7
   1   4  12 41027.8 1975.04   4
   1  -4 -12 42360.2 2079.05   9
  -1   4 -13 7132.97 724.207   6
   1   4  13 6215.85 406.289   2
   1  -4 -13 5799.53 976.374   9
  -1  -4  13 6419.99 913.195   1
  -1  -4  13 5973.77 1155.60   2
   1   4  13 7604.33 996.885   4
   1  -4 -13 8588.36 736.232   7
  -1   4 -13 7261.80 1204.24   9
   1   4  14 2826.66 320.902   2
  -1  -4  14 2472.90 993.853   2
   1   4  14 3241.78 847.414   4
   1  -4 -14 3426.35 562.961   7
   1  -4 -14 3580.14 964.574   9
  -1  -4  14 3062.81 778.895   1
  -1   4 -14 2769.48 985.414   9
   1  -4 -15 44851.4 1781.34   7
  -1  -4  15 40601.6 2224.93   1
   1  -4 -15 48745.2 2453.12   9
  -1  -4  15 43761.6 2637.51   2
   1   4  15 46434.9 2283.91   4
  -1   4 -15 44006.7 2545.53   9
  -1  -4  16 2060.64 752.390   1
   1  -4 -16 1367.42 504.162   7
   1  -4 -16 2257.31 889.862   9
  -1   4 -16 1829.78 993.440   9
   1   4  16 1938.07 785.449   4
  -1  -4  16 1881.81 1088.35   2
  -1  -4  17 4865.78 1227.73   2
  -1   4 -17 2542.26 914.429   7
   1   4  17 1824.93 753.459   4
  -1  -4  17 4217.83 930.376   1
  -1   4 -17 4909.86 1268.27   9
   1  -4 -17 2728.62 1005.35   9
   1  -4 -17 3770.50 685.177   7
  -1   4 -18 24450.1 2197.34   7
   1  -4 -18 25255.5 1483.34   7
   1   4  18 25263.2 1802.10   4
  -1  -4  18 23441.5 2143.94   2
  -1  -4  18 26040.2 1932.78   1
   1  -4 -18 23754.5 1902.87   9
  -1   4 -18 24779.7 2076.02   9
  -1  -4  19 8736.42 1230.50   1
   1  -4 -19 8045.80 1330.34   9
   1  -4 -19 5950.81 822.095   7
  -1   4 -19 6130.51 1333.23   7
  -1  -4  19 7420.50 1360.63   2
  -1   4 -19 6546.13 1325.42   9
   1   4  19 6329.87 1210.87   4
   1   4  19 7232.23 1287.51   1
   1   4  20 8205.40 1388.22   3
  -1  -4  20 6494.40 1499.08   2
   1   4  20 7250.07 1311.63   1
  -1   4 -20 5904.12 1522.77   7
  -1  -4  20 5692.72 1103.50   1
  -1   4 -20 6360.80 1416.52   9
   1  -4 -20 8703.52 1447.55   9
   1   4  20 4919.34 1049.52   4
   1  -4 -20 5912.17 868.663   7
   1   4  21 4235.98 1039.81   4
   1  -4 -21 5053.79 1271.77   9
  -1   4 -21 5458.08 1262.65   7
  -1   4 -21 5439.50 1417.29   9
  -1  -4  21 4733.22 1244.43   1
  -1  -4  21 5419.65 1306.43   2
   1   4  21 4903.94 1248.54   1
   1  -4 -21 3519.01 807.399   7
   1   4  21 5971.88 1228.51   3
  -1  -4  22 3637.11 1159.11   2
   1  -4 -22 6046.17 1277.27   9
   1   4  22 5467.27 1184.96   1
  -1  -4  22 4088.75 1189.69   1
  -1   4 -22 6555.19 1558.59   7
  -1   4 -22 5802.12 1393.93   9
   1   4  22 5136.84 1153.91   4
   1  -4 -22 4894.18 965.931   7
   1   4  22 3910.94 1057.64   3
   1   4  23 2602.73 1124.13   4
   1   4  23-1535.69 1140.02   3
  -1   4 -23 3551.01 1504.51   7
  -1   4 -23 1588.68 1194.77   9
   1  -4 -23 360.020 957.752   9
  -1  -4  23 591.571 931.739   1
  -1  -4  23 2867.31 1255.95   2
  -1  -4  24 4385.35 1341.46   2
  -1  -4  24 4074.61 1201.07   1
   1   4  24 6313.88 1367.69   3
   1  -4 -24 5786.15 1357.81   9
  -1   4 -24 7202.93 1571.54   9
  -1   4 -24 5894.74 1477.33   7
   1   4  24 5769.29 1291.50   4
  -1  -4  25-473.104 1227.28   2
   1   4  25-314.456 859.763   3
  -1   4 -25 437.504 1334.98   9
  -1  -4  25 200.779 864.014   1
   1  -4 -25 574.130 1134.27   9
   1   4  25 269.612 880.397   4
  -1   4 -25-451.679 1413.68   7
   1  -4 -26 1063.31 1292.80   9
  -1   4 -26-941.744 1217.89   7
  -1  -4  26 469.791 902.728   1
  -1  -4  26 4199.19 1599.32   2
   1   4  26 1568.70 1089.56   4
   1   4  26-244.948 906.653   3
  -1   4 -26 2346.31 1647.52   9
  -1  -4  27 853.822 971.852   1
   1   4  27 835.375 911.513   4
  -1  -4  28 1248.63 999.932   1
   1   4  28-1611.95 1171.28   4
  -1   5  27 532.384 1249.61   3
  -1   5  26 3493.77 1322.55   3
  -1  -5 -26 3238.62 1285.77   9
  -1   5  25-163.699 1041.37   3
  -1  -5 -25-3260.54 1153.34   7
   1  -5  25 42.5317 1089.38   1
  -1  -5 -25-444.140 1162.15   9
   1   5 -25-504.197 1455.30   9
  -1  -5 -24 2426.24 1207.62   9
  -1   5  24 2100.90 1261.51   3
   1  -5  24 1542.04 1204.99   1
  -1  -5 -24 380.047 900.140   7
   1   5 -24 4323.82 1519.24   9
  -1  -5 -23-524.686 902.086   7
   1   5 -23 233.399 1211.96   9
  -1  -5 -23 1420.64 1153.76   9
   1  -5  23-839.121 1231.32   1
  -1   5  23 723.936 1003.11   3
   1  -5  22 5922.20 1519.99   1
   1   5 -22 3158.79 1252.83   9
  -1  -5 -22 5262.35 1094.38   7
  -1   5  22 5382.62 1428.84   3
  -1  -5 -22 3441.06 1209.54   9
  -1  -5 -21 667.426 737.525   7
  -1   5  21 1837.03 953.669   3
  -1  -5 -21 1765.70 1002.65   9
   1   5 -21 2268.87 1194.31   9
   1  -5  21-1141.01 1174.75   1
  -1   5  21 487.276 644.146   4
  -1  -5 -20 14264.3 1468.38   7
   1  -5  20 14190.3 1739.30   1
  -1  -5 -20 14749.9 1547.40   9
   1   5 -20 15533.6 1967.28   9
  -1   5  20 13498.0 1269.27   4
  -1   5  20 15464.1 1880.07   3
  -1  -5 -19 1359.67 961.402   9
  -1  -5 -19 1750.75 738.887   7
  -1   5  19 2558.22 965.615   3
   1  -5  19-902.219 1085.62   1
   1   5 -19 3546.56 1326.95   9
  -1   5  19 1915.42 686.164   4
  -1   5  18 1097.79 1030.67   3
  -1  -5 -18-430.988 712.769   7
   1  -5  18 127.092 943.307   1
  -1   5  18-14.9066 560.967   4
   1   5 -18 1353.92 1016.68   9
  -1  -5 -18-359.741 839.572   9
  -1  -5 -17 8378.18 1247.18   9
  -1  -5 -17 5928.09 981.402   7
  -1   5  17 7052.82 1233.97   3
   1  -5  17 6268.59 1236.48   1
   1   5 -17 8009.14 1439.37   9
  -1   5  17 8976.85 988.242   4
  -1   5  16 30521.4 2294.16   3
  -1  -5 -16 28235.1 1769.01   7
  -1  -5 -16 27684.8 1882.69   9
   1  -5  16 27912.6 2137.14   1
  -1   5  16 26683.6 1597.84   4
   1   5 -16 26947.3 2202.63   9
  -1  -5 -15 5480.15 1050.51   9
  -1   5  15 3301.46 672.611   4
   1   5 -15 2736.30 1006.26   9
  -1   5  15 3265.52 1169.05   3
  -1  -5 -15 2979.15 771.160   7
   1  -5  15 3688.44 1114.64   1
  -1   5  14 64328.0 3250.25   3
   1   5 -14 61776.7 3091.73   9
  -1  -5 -14 63905.1 2564.80   7
   1   5 -14 58232.5 3002.12   4
  -1   5  14 60344.4 2344.40   4
   1  -5  14 64677.0 3105.92   1
  -1  -5 -14 57831.3 2589.14   9
  -1  -5 -13 2599.23 812.635   9
  -1   5  13 1735.07 865.942   3
   1   5 -13 2100.60 961.631   4
  -1  -5 -13 929.073 525.817   7
  -1   5  13 588.798 469.237   4
   1  -5  13 1341.15 822.409   1
   1   5 -13-211.998 944.240   9
   1  -5  12 2541.82 949.362   1
  -1   5  12 1981.52 441.744   7
  -1  -5 -12 2136.53 720.690   9
   1   5 -12 2032.33 958.072   4
  -1   5  12 3082.77 972.098   3
   1   5 -12 2684.56 981.914   9
  -1  -5 -12 1908.95 652.457   7
  -1   5  12 2546.30 598.299   4
  -1   5  11 11597.5 828.910   7
  -1   5  11 11457.2 966.483   4
  -1  -5 -11 11625.5 1066.37   7
   1  -5  11 13285.6 1381.28   1
   1   5 -11 10399.1 1320.55   9
   1   5 -11 11300.3 891.725   3
  -1   5  11 11203.3 1432.26   3
  -1  -5 -11 11968.8 1117.22   9
   1   5 -11 12874.9 1391.57   4
   1   5 -10 71672.9 2400.48   3
   1  -5  10 77956.9 3136.02   1
   1   5 -10 76478.7 3220.72   4
  -1   5  10 76322.8 2199.17   7
  -1  -5 -10 77692.0 2674.41   7
   1   5 -10 75166.5 3081.81   9
  -1   5  10 73795.9 2486.48   4
  -1   5  10 72260.2 3310.03   3
  -1  -5 -10 71787.9 2639.39   9
  -1  -5  -9 27810.9 1494.46   7
  -1   5   9 30977.0 2129.08   3
  -1   5   9 27734.8 1158.44   7
   1   5  -9 30832.6 1901.85   9
   1  -5   9 28029.0 1823.43   1
   1   5  -9 27207.9 1924.50   4
  -1   5   9 26199.9 1399.48   4
  -1  -5  -9 28289.1 1541.69   9
  -1  -5  -8 129525. 3595.27   7
  -1   5   8 124987. 2980.88   7
   1  -5   8 127072. 4114.70   1
   1   5  -8 130932. 4281.67   4
  -1   5   8 122397. 3442.12   4
  -1   5   8 126709. 4381.16   3
  -1   5   7 20537.6 1226.64   4
  -1  -5  -7 21223.6 1290.23   7
  -1   5   7 20639.9 934.493   7
   1  -5   7 22537.8 1611.53   1
   1   5  -7 24749.3 1751.05   4
   1  -5   6 16527.2 1385.30   1
   1   5  -6 16838.7 1435.78   4
  -1   5   6 15588.2 803.088   7
  -1   5   6 17178.2 1140.97   4
  -1  -5  -6 18481.3 1176.50   7
  -1   5   5 19667.2 1224.97   4
   1   5  -5 18446.8 1442.72   4
  -1   5   5 16975.2 813.175   7
  -1  -5  -5 17710.3 1177.02   7
   1  -5   5 18966.9 1427.63   1
  -1  -5  -5 19636.6 751.867   2
   1   5  -4 85767.7 3142.82   4
  -1   5   4 87922.5 2232.24   7
  -1   5   4 91622.1 2833.78   4
   1  -5   4 86431.8 3101.15   1
  -1  -5  -4 87268.4 2125.49   2
  -1  -5  -4 92130.7 2799.03   7
  -1   5   3 4035.64 714.095   4
   1  -5   3 4346.47 815.323   1
  -1  -5  -3 4697.93 451.513   2
   1   5  -3 3424.19 775.536   4
  -1   5   3 4468.62 448.865   7
  -1  -5  -3 4683.54 712.472   7
   1   5  -2 134367. 3890.67   4
  -1  -5  -2 129401. 3552.64   7
  -1   5   2 122420. 2990.14   7
   1  -5   2 137478. 3925.65   1
  -1   5   2 129963. 3687.59   4
  -1  -5  -2 125861. 2989.79   2
  -1   5   1 13781.8 1113.77   4
  -1   5   1 12829.5 781.438   7
  -1  -5  -1 12973.6 796.929   2
   1   5  -1 13539.7 1165.22   4
   1  -5   1 13113.8 1185.59   1
  -1  -5   0-72.8410 450.238   1
  -1   5   0 405.363 299.005   7
  -1   5   0-279.103 547.158   4
   1  -5   0 263.288 586.561   1
   1   5   0-30.6493 478.292   4
  -1  -5   0 535.241 405.114   2
  -1  -5   1 16263.3 1041.16   2
   1   5   1 17370.5 1242.01   4
  -1   5  -1 18115.3 1290.99   4
  -1   5  -1 15812.0 969.070   7
   1  -5  -1 16646.3 1253.99   1
  -1  -5   1 18689.9 1200.12   1
   1   5   2 110973. 3434.70   4
   1  -5  -2 115276. 3489.53   1
  -1   5  -2 117569. 3705.75   4
  -1  -5   2 114788. 3227.84   2
  -1  -5   2 116253. 3359.24   1
  -1  -5   3 4755.24 764.167   1
  -1  -5   3 5220.98 744.908   2
  -1   5  -3 5075.09 936.909   4
   1   5   3 5416.38 852.287   4
  -1   5  -4 108348. 3589.96   4
  -1  -5   4 99466.8 3212.76   2
   1   5   4 103913. 3224.17   4
  -1  -5   4 104047. 3221.01   1
  -1  -5   5 14951.3 1184.79   1
  -1   5  -5 17143.3 1437.14   4
   1  -5  -5 14533.3 533.268   2
  -1  -5   5 14832.8 1255.72   2
   1   5   5 17304.3 1263.67   4
  -1   5  -6 20584.8 1592.33   4
  -1  -5   6 19880.6 1347.30   1
  -1  -5   6 18991.1 1440.31   2
   1   5   6 18441.8 1327.41   4
  -1   5  -7 18196.0 1007.76   3
   1  -5  -7 19992.6 932.875   7
  -1  -5   7 19560.8 1381.44   1
   1   5   7 19008.3 1319.26   4
  -1   5  -7 20059.0 1624.52   4
  -1  -5   7 17842.2 1468.39   2
  -1   5  -8 113827. 2775.06   3
   1  -5  -8 115385. 2786.75   7
  -1  -5   8 120759. 3708.49   1
  -1   5  -8 119160. 4109.47   4
  -1  -5   8 113090. 3934.74   2
   1   5   8 118568. 3603.89   4
  -1   5  -9 26711.8 988.549   3
  -1  -5   9 30149.8 1719.89   1
  -1   5  -9 27086.1 1937.94   4
  -1  -5   9 29379.9 1982.37   2
   1   5   9 29495.0 1694.64   4
   1  -5  -9 26392.9 1102.18   7
   1  -5 -10 76081.5 2105.14   7
  -1   5 -10 68519.4 1621.65   3
  -1  -5  10 76499.4 2893.31   1
  -1   5 -10 74893.4 1624.81   3
   1  -5 -10 77034.5 2909.66   9
  -1  -5  10 74251.2 3240.90   2
   1   5  10 74160.4 2772.12   4
  -1  -5  11 12832.1 1252.26   1
   1   5  11 12015.5 1186.39   4
   1  -5 -11 10702.1 746.923   7
  -1  -5  11 9560.49 1316.32   2
   1  -5 -11 12610.2 1288.84   9
  -1  -5  12 2524.81 881.710   2
  -1  -5  12 2405.95 734.430   1
   1  -5 -12 2990.74 942.093   9
   1   5  12 3366.65 763.290   4
   1  -5 -12 3171.06 495.612   7
  -1  -5  13 949.982 742.097   1
   1   5  13 506.020 693.337   4
   1  -5 -13 548.851 371.920   7
  -1   5 -13 234.994 935.363   9
   1  -5 -13 1744.81 908.591   9
  -1  -5  13 547.773 757.861   2
  -1   5 -14 65355.5 3194.18   9
   1  -5 -14 60689.9 2068.54   7
  -1  -5  14 67129.4 2922.88   1
   1   5  14 61929.7 2672.30   4
  -1  -5  14 54199.7 3045.00   2
   1  -5 -14 63365.2 2886.22   9
  -1   5 -15 1701.65 885.060   9
  -1  -5  15 4130.92 1318.28   2
   1   5  15 2471.94 867.997   4
  -1  -5  15 3182.25 974.948   1
   1  -5 -15 3126.19 601.053   7
   1  -5 -15 3293.31 1024.07   9
  -1  -5  16 25000.9 2190.89   2
   1  -5 -16 28316.3 1429.66   7
   1  -5 -16 26252.2 1935.59   9
   1   5  16 28436.5 1862.82   4
  -1   5 -16 26041.5 2078.71   9
  -1  -5  16 28770.9 1975.65   1
  -1   5 -17 10198.0 1557.65   9
   1   5  17 9261.07 1235.24   4
  -1  -5  17 7442.00 1275.65   1
   1  -5 -17 8814.72 848.106   7
   1  -5 -17 9888.58 1387.72   9
  -1  -5  17 7708.31 1368.52   2
   1  -5 -18 630.270 848.246   9
   1  -5 -18-54.6004 531.632   7
  -1  -5  18 119.921 844.030   1
  -1  -5  18 2069.60 1239.57   2
   1   5  18 849.719 749.088   4
  -1   5 -19 1965.19 1311.42   7
   1  -5 -19 2646.69 1234.30   9
  -1  -5  19 4215.16 1225.19   2
  -1  -5  19 1263.47 869.399   1
  -1   5 -19 992.745 952.563   9
   1   5  19 1863.63 977.473   4
  -1  -5  20 16666.4 1798.09   1
  -1   5 -20 14552.5 1853.31   7
  -1   5 -20 11307.4 1770.80   9
   1   5  20 14020.3 1548.26   4
  -1  -5  20 15579.8 1961.53   2
   1  -5 -20 14341.0 1688.17   9
  -1  -5  21 1829.17 1226.72   2
  -1   5 -21-592.439 1057.93   9
  -1   5 -21 2768.77 1362.34   7
   1  -5 -21 223.108 883.861   9
   1   5  21 1126.22 1152.05   3
  -1  -5  21 963.495 880.346   1
   1   5  21 776.841 810.673   4
   1  -5 -22 3973.06 1358.87   9
  -1   5 -22 4571.81 1330.00   7
   1   5  22 5953.87 1414.14   3
  -1  -5  22 5085.09 1309.94   1
  -1  -5  22 5046.60 1497.32   2
   1   5  22 5139.65 1191.55   4
  -1   5 -22 4956.00 1299.91   9
  -1  -5  23 2045.04 1386.43   2
   1  -5 -23 759.910 1169.09   9
  -1   5 -23-1765.23 1481.24   7
  -1  -5  23 1599.75 1158.88   1
   1   5  23-1005.46 1209.58   3
   1   5  23-162.455 899.343   4
  -1   5 -23 2552.45 1206.79   9
  -1  -5  24 1981.80 1038.73   1
   1   5  24 3253.58 1266.50   3
   1  -5 -24 1563.94 1381.89   9
  -1  -5  24 2447.37 1536.55   2
  -1   5 -24 3882.04 1432.42   9
  -1   5 -24 1770.07 1288.81   7
   1   5  24 1335.60 915.160   4
  -1  -5  25-787.920 1137.32   2
  -1   5 -25 2517.86 1251.65   9
   1   5  25-564.783 956.467   3
   1  -5 -25 514.383 1261.89   9
  -1  -5  25 1797.35 1099.10   1
   1   5  25-158.390 1000.16   4
  -1   5 -25-307.380 1412.62   7
   1   5  26 1727.97 1041.31   4
   1   5  26 2979.74 1194.25   3
  -1  -5  26 2554.49 1151.81   1
  -1  -5  27 33.1737 1105.07   1
   1   5  27-511.972 1057.63   3
   1   5  27-1344.73 1064.61   4
  -1  -6 -25 2337.30 1319.87   9
  -1   6  24 1464.95 1095.62   3
   1  -6  24-1438.14 1317.10   1
  -1  -6 -24 1937.11 1161.38   9
  -1   6  23 638.396 1286.24   3
  -1  -6 -23-327.368 861.421   7
   1  -6  23 1310.12 1352.22   1
   1   6 -23-3100.61 1533.55   9
  -1  -6 -23 1370.09 1162.56   9
  -1  -6 -22 1753.29 1079.01   9
  -1  -6 -22-720.787 754.305   7
  -1   6  22 233.797 986.321   3
   1  -6  22-1419.77 1301.30   1
   1   6 -22 1870.95 1367.12   9
  -1  -6 -21 6686.51 1209.79   7
  -1  -6 -21 8012.01 1386.41   9
  -1   6  21 8728.46 1774.73   3
   1  -6  21 7894.73 1442.93   1
   1   6 -21 6392.56 1586.55   9
  -1  -6 -20 3021.92 852.318   7
  -1   6  20 1358.86 1035.24   3
   1  -6  20 3568.95 1256.07   1
  -1  -6 -20 2411.07 1132.82   9
   1   6 -20 4326.24 1286.46   9
   1   6 -19 7000.02 1561.48   9
  -1   6  19 8803.36 1600.32   3
  -1   6  19 7638.94 1074.53   4
   1  -6  19 6865.66 1489.16   1
  -1  -6 -19 8250.92 1370.72   9
  -1  -6 -19 8056.92 1134.15   7
  -1   6  18 342.797 1167.75   3
  -1  -6 -18 1866.54 818.851   7
   1   6 -18 2587.37 1046.88   9
  -1  -6 -18 1899.66 1029.57   9
   1  -6  18 125.074 942.260   1
  -1   6  18 2462.47 756.763   4
   1  -6  17 1142.29 1053.41   1
  -1   6  17 3231.35 812.380   4
  -1  -6 -17 3165.01 880.467   7
  -1  -6 -17 4042.30 999.371   9
   1   6 -17 4196.53 1335.26   9
  -1   6  17 2426.56 1073.98   3
  -1   6  16 2029.68 1096.99   3
   1  -6  16 3084.73 1028.96   1
  -1  -6 -16 3967.65 874.273   7
   1   6 -16 6410.85 1426.19   9
  -1  -6 -16 3684.25 1042.58   9
  -1   6  16 3699.10 771.463   4
   1   6 -15 27023.1 2230.16   9
  -1  -6 -15 25272.4 1719.17   7
  -1  -6 -15 28953.6 1927.44   9
  -1   6  15 26603.5 2357.83   3
   1  -6  15 24373.1 2085.01   1
   1   6 -15 30435.8 2347.05   4
  -1   6  15 26658.6 1634.80   4
   1  -6  14 1394.33 958.373   1
  -1  -6 -14 997.059 791.168   9
  -1  -6 -14 1761.47 694.888   7
  -1   6  14 2434.93 1126.31   3
  -1   6  14 2274.60 709.400   4
   1   6 -14 1142.97 1002.59   9
   1   6 -14 1602.50 907.349   4
  -1  -6 -13 11586.9 1285.12   9
   1   6 -13 12616.3 1537.57   9
  -1   6  13 11588.9 1576.07   3
  -1  -6 -13 12657.6 1194.78   7
   1  -6  13 11475.4 1533.12   1
   1   6 -13 12765.8 1610.44   4
  -1   6  13 12921.4 1139.28   4
   1  -6  12 11246.6 1391.30   1
   1   6 -12 8945.43 1398.09   4
  -1   6  12 9549.60 1451.96   3
  -1  -6 -12 10443.8 1206.77   9
  -1   6  12 9100.58 972.409   4
  -1  -6 -12 9591.10 1094.70   7
   1  -6  11 15366.4 1544.49   1
  -1   6  11 11994.8 1474.50   3
  -1  -6 -11 15206.2 1314.54   9
  -1  -6 -11 17069.6 1346.44   7
  -1   6  11 14851.7 1196.49   4
   1   6 -11 17477.2 1748.38   4
  -1   6  10-763.425 942.254   3
   1  -6  10 1329.31 925.097   1
   1   6 -10 1119.41 999.009   4
  -1   6  10 146.244 522.324   4
  -1  -6 -10 837.662 686.442   9
  -1  -6 -10-129.205 529.434   7
  -1   6   9 53488.5 2266.39   4
  -1   6   9 57538.5 3069.65   3
  -1  -6  -9 54341.9 2285.15   7
  -1   6   9 56464.7 1849.06   7
   1  -6   9 52283.3 2701.05   1
   1   6  -9 58843.3 2986.57   4
  -1  -6  -9 54661.4 2368.29   9
  -1   6   8 2324.30 408.770   7
  -1   6   8 3329.03 716.353   4
   1  -6   8 2047.50 872.646   1
  -1  -6  -8 3533.93 685.090   7
   1   6  -7 11513.3 1394.26   4
  -1   6   7 10918.6 751.690   7
  -1  -6  -7 10612.1 1030.51   7
   1  -6   7 11401.4 1310.40   1
  -1   6   7 10748.7 1082.11   4
   1  -6   6 52605.7 2585.52   1
  -1   6   6 47991.7 1649.98   7
  -1  -6  -6 48904.5 2122.89   7
   1   6  -6 50700.0 2592.92   4
  -1   6   6 49335.0 2163.41   4
  -1   6   5 44771.1 1572.64   7
  -1   6   5 44869.5 2096.22   4
  -1  -6  -5 44780.7 1319.64   2
   1   6  -5 46344.2 2477.52   4
   1  -6   5 44378.6 2330.19   1
  -1  -6  -5 43228.7 1984.65   7
  -1  -6  -4 46339.4 2056.47   7
  -1   6   4 42206.3 1543.19   7
  -1  -6  -4 43846.6 1405.53   2
   1  -6   4 47950.8 2393.28   1
  -1   6   4 42837.2 2056.98   4
   1   6  -4 45498.4 2385.16   4
   1   6  -3 79807.0 3178.15   4
  -1  -6  -3 79040.1 2769.10   7
  -1  -6  -3 78027.7 2125.53   2
  -1   6   3 76433.7 2865.78   4
   1  -6   3 75513.6 3047.98   1
  -1   6   3 75230.9 2242.99   7
   1  -6   2 42626.6 2227.37   1
   1   6  -2 42896.1 2263.52   4
  -1  -6  -2 40933.1 1497.82   2
  -1   6   2 41616.6 2072.92   4
  -1   6   2 37716.5 1511.68   7
  -1  -6  -1 29159.9 1665.94   1
  -1   6   1 26709.4 1284.31   7
  -1   6   1 31806.4 1856.97   4
   1   6  -1 28470.5 1792.39   4
  -1  -6  -1 29764.4 1329.49   2
   1  -6   1 29743.4 1809.49   1
  -1  -6   0 38443.8 1891.86   1
  -1   6   0 34347.3 1962.29   4
  -1  -6   0 35116.5 1531.19   2
   1   6   0 33031.8 1917.41   4
   1  -6   0 36190.9 2024.80   1
   1  -6  -1 40591.8 2091.64   1
   1   6   1 37187.9 2017.98   4
  -1  -6   1 41125.8 1987.99   1
  -1   6  -1 38607.8 2130.65   4
  -1  -6   1 40914.7 1748.62   2
   1  -6  -2 35831.1 2021.31   1
  -1  -6   2 37316.4 1891.84   1
  -1   6  -2 37788.1 2133.53   4
  -1  -6   2 37137.8 1760.69   2
   1   6   2 36045.4 1970.58   4
   1   6   3 78790.9 3016.85   4
  -1   6  -3 83477.1 3288.81   4
  -1  -6   3 83460.1 2990.45   1
  -1  -6   3 77375.5 2801.63   2
   1  -6  -3 80483.8 3024.90   1
  -1  -6   4 41871.6 2050.40   1
   1   6   4 37348.7 1996.11   4
  -1   6  -4 40258.9 2254.46   4
  -1  -6   4 37311.6 1973.43   2
   1   6   5 45286.3 2179.98   4
   1  -6  -5 42313.8 1125.30   2
  -1   6  -5 49424.5 2552.70   4
  -1  -6   5 45821.5 2220.05   2
   1  -6  -5 44868.1 1221.29   2
  -1  -6   5 45794.4 2206.31   1
  -1  -6   6 46223.6 2269.11   1
  -1   6  -6 46753.1 2532.00   4
   1   6   6 49220.2 2301.97   4
  -1  -6   6 48297.0 2357.44   2
  -1  -6   7 9187.49 1078.02   1
   1   6   7 10269.0 1113.87   4
  -1   6  -7 9398.85 1365.53   4
  -1  -6   7 11482.6 1289.13   2
  -1  -6   8 3309.78 937.207   2
  -1   6  -8 1513.89 472.743   3
  -1  -6   8 111.763 619.268   1
  -1   6  -8 1990.77 815.670   4
   1   6   8 2098.18 743.018   4
  -1  -6   9 61082.9 2700.16   1
  -1   6  -9 60824.5 1920.68   3
   1  -6  -9 60364.7 1952.33   7
  -1   6  -9 62622.6 3070.62   4
  -1  -6   9 61596.6 2947.53   2
   1   6   9 59877.0 2611.09   4
   1  -6 -10-43.7544 805.750   9
   1  -6 -10 1552.20 433.738   7
  -1   6 -10 2018.80 356.955   3
  -1  -6  10 961.975 973.213   2
  -1  -6  10 730.363 718.430   1
  -1   6 -10 2016.66 880.059   4
   1   6  10 674.250 609.228   4
   1  -6 -11 17915.7 1023.85   7
   1  -6 -11 22023.7 1711.60   9
  -1  -6  11 20655.4 1635.92   1
   1   6  11 18595.8 1541.52   4
  -1  -6  11 17437.9 1704.92   2
   1   6  12 8979.93 1171.80   4
  -1  -6  12 7096.48 1117.08   1
   1  -6 -12 8147.79 742.351   7
   1  -6 -12 8900.10 1266.44   9
  -1  -6  12 8012.99 1294.18   2
   1  -6 -13 9651.67 796.299   7
   1  -6 -13 10744.6 1369.30   9
  -1  -6  13 12330.1 1534.51   2
  -1  -6  13 10184.4 1324.87   1
   1   6  13 9935.32 1235.77   4
  -1  -6  14-69.7636 832.892   1
   1  -6 -14 2093.83 1007.37   9
  -1  -6  14 2585.33 1091.03   2
   1  -6 -14 1700.24 459.931   7
   1   6  14 2394.71 893.243   4
  -1  -6  15 22567.0 1827.69   1
   1  -6 -15 21016.4 1867.07   9
   1   6  15 20527.7 1700.26   4
  -1  -6  15 18928.6 1924.55   2
   1   6  16 5916.91 1124.66   4
  -1  -6  16 6355.00 1227.04   1
  -1  -6  16 6929.63 1448.17   2
   1  -6 -16 5821.53 1178.01   9
   1   6  17 2624.14 964.622   4
  -1  -6  17 3892.80 1210.34   1
   1  -6 -17 2654.92 1134.11   9
  -1  -6  17 4544.89 1360.96   2
   1   6  18 2637.13 906.660   4
   1  -6 -18 4572.55 1090.74   9
  -1   6 -18 3763.00 1378.96   9
  -1  -6  18 4476.30 1208.20   1
  -1  -6  18 2956.72 1142.19   2
  -1  -6  19 8184.57 1590.67   2
  -1  -6  19 8954.63 1377.37   1
   1  -6 -19 5269.57 1343.56   9
   1   6  19 7813.42 1314.35   4
  -1   6 -19 8269.95 1497.53   9
  -1  -6  20 3396.44 1265.66   1
  -1   6 -20 1533.45 1232.69   7
   1   6  20 4175.42 1050.04   4
  -1  -6  20 6315.69 1566.45   2
  -1   6 -20 5328.16 1612.53   9
   1  -6 -20 770.200 1047.42   9
  -1  -6  21 7077.00 1649.81   2
   1  -6 -21 4587.11 1286.08   9
   1   6  21 4507.05 1304.53   3
  -1   6 -21 9214.49 1605.26   9
   1   6  21 8703.20 1465.18   4
  -1  -6  21 5285.85 1297.39   1
  -1   6 -21 6748.78 1657.34   7
  -1  -6  22-74.8930 981.221   2
  -1   6 -22-509.052 1311.99   7
  -1  -6  22 1533.16 1176.07   1
   1   6  22 616.477 1055.38   4
   1  -6 -22 1087.33 1174.04   9
  -1   6 -22-3229.16 1588.36   9
   1   6  22 1100.56 1010.75   3
  -1   6 -23 2148.55 1510.91   9
   1   6  23 441.414 956.001   3
   1  -6 -23 370.557 1267.90   9
  -1  -6  23-844.987 1030.53   1
   1   6  23-575.512 936.773   4
  -1  -6  23 1538.52 1284.00   2
  -1   6 -23-1311.43 1239.87   7
   1  -6 -24 1853.08 1374.96   9
   1   6  24 2174.64 1158.48   3
   1   6  24 1902.04 1115.76   4
  -1  -6  24 1726.36 1156.08   1
   1   6  25 1176.53 1113.75   3
  -1  -6  25 804.803 1220.01   1
   1   6  25 2072.75 1132.35   4
  -1  -6  26-436.004 968.002   1
  -1  -7 -24-323.346 977.141   9
  -1  -7 -23 1086.80 967.381   9
   1   7 -22-1034.01 1435.13   9
   1  -7  22 1222.41 1130.30   1
  -1  -7 -22 1706.04 1193.59   9
  -1   7  22-905.013 1308.96   3
  -1   7  21-923.126 1234.94   3
  -1  -7 -21 676.334 1033.74   9
   1  -7  21-1631.65 1356.37   1
   1   7 -21 834.197 1076.57   9
  -1   7  20 1556.52 1465.99   3
   1   7 -20 3327.31 1465.96   9
   1  -7  20 4363.28 1416.55   1
  -1  -7 -20 963.341 936.332   9
  -1  -7 -19 4886.65 1300.03   9
   1  -7  19 4539.28 1262.15   1
  -1   7  19 6359.09 1574.33   3
   1   7 -19 5591.24 1470.02   9
  -1  -7 -19 7395.21 1240.66   7
  -1   7  18 1957.06 1274.90   3
   1  -7  18 531.447 1132.26   1
  -1  -7 -18-585.585 816.867   7
  -1  -7 -18-242.470 820.613   9
  -1   7  18-92.9886 719.461   4
   1  -7  17 7710.74 1360.40   1
  -1   7  17 10033.7 1750.63   3
  -1  -7 -17 7496.62 1171.59   7
  -1  -7 -17 9022.37 1395.26   9
  -1   7  17 8803.60 1147.44   4
  -1  -7 -16 1656.54 801.547   7
  -1   7  16-67.3604 1246.31   3
  -1  -7 -16 1457.38 888.247   9
   1  -7  16 2768.12 1196.62   1
  -1   7  16 679.502 653.850   4
  -1   7  15 2174.88 1323.10   3
  -1  -7 -15 423.772 672.448   7
  -1   7  15-30.2227 605.490   4
  -1  -7 -15-160.277 740.862   9
   1   7 -15 1155.80 1100.21   4
   1  -7  15 343.606 947.446   1
  -1   7  14 6484.97 1427.24   3
  -1  -7 -14 6270.11 1106.13   9
  -1  -7 -14 8289.27 1126.41   7
   1   7 -14 5972.93 1293.06   4
   1  -7  14 6700.21 1239.74   1
  -1   7  14 7427.13 1069.80   4
   1   7 -13 24945.9 2278.81   4
  -1   7  13 27120.6 2383.25   3
  -1  -7 -13 23681.2 1845.39   9
   1  -7  13 23908.7 2112.83   1
  -1  -7 -13 26105.1 1751.91   7
  -1   7  13 22669.3 1670.06   4
   1   7 -12 8426.56 1509.12   4
  -1  -7 -12 9472.71 1207.94   9
   1  -7  12 9359.07 1439.59   1
  -1  -7 -12 6843.46 1034.31   7
  -1   7  12 9011.90 1103.96   4
  -1   7  12 5813.03 1342.94   3
  -1   7  11 42067.6 2211.24   4
   1  -7  11 41335.4 2589.08   1
   1   7 -11 40244.4 2658.39   4
  -1  -7 -11 41542.0 2261.85   9
  -1  -7 -11 39516.2 2115.34   7
  -1   7  11 42870.1 2869.64   3
  -1   7  10 16166.9 1900.09   3
  -1  -7 -10 14371.2 1304.56   7
   1  -7  10 13628.0 1511.04   1
  -1  -7 -10 12467.0 1329.26   9
  -1   7  10 14325.8 1310.75   4
   1   7 -10 13397.9 1749.65   4
  -1  -7  -9 4534.71 891.891   7
  -1   7   9 5952.46 982.944   4
  -1   7   9 6691.56 1415.10   3
   1  -7   9 6323.65 1121.50   1
   1   7  -9 5252.13 1250.01   4
  -1   7   8 23484.2 2155.76   3
  -1  -7  -8 19958.8 1494.05   7
   1  -7   8 20080.9 1737.14   1
  -1   7   8 24589.0 1674.97   4
   1   7  -8 21255.5 1992.23   4
   1  -7   7 38180.2 2365.99   1
   1   7  -7 36777.9 2496.11   4
  -1   7   7 38957.2 2116.09   4
  -1  -7  -7 41781.1 2093.75   7
  -1  -7  -6 1776.52 685.947   7
   1  -7   6 1015.50 866.971   1
   1   7  -6 2252.86 975.008   4
  -1   7   6 920.837 747.543   4
  -1  -7  -5 79650.3 2037.37   2
  -1   7   5 85835.8 3240.09   4
   1   7  -5 81974.3 3564.90   4
   1  -7   5 80453.9 3426.52   1
   1  -7   4 23036.2 1809.27   1
  -1   7   4 21009.2 1590.15   4
  -1  -7  -4 21826.1 988.464   2
   1   7  -4 21845.6 1910.68   4
   1   7  -3-211.986 892.460   4
   1  -7   3 1781.35 978.926   1
  -1  -7  -3 633.701 369.791   2
  -1   7   3 2002.55 800.745   4
   1   7  -2 77316.1 3322.05   4
   1  -7   2 78022.1 3326.01   1
  -1  -7  -2 75781.5 2319.30   2
  -1   7   2 79559.9 3213.96   4
  -1  -7  -2 73662.8 3005.14   1
   1  -7   1 61023.9 2869.48   1
  -1   7   1 63509.1 2868.61   4
  -1  -7  -1 58891.7 2630.05   1
  -1  -7  -1 58491.8 2078.62   2
   1   7  -1 62700.4 2941.61   4
   1  -7   0 21539.8 1709.17   1
  -1  -7   0 26691.5 1752.89   1
  -1   7   0 25080.5 1855.77   4
  -1  -7   0 22250.1 1292.84   2
   1   7   0 24014.9 1824.17   4
   1   7   1 63795.7 2947.24   4
   1  -7  -1 74624.0 3138.17   1
  -1  -7   1 66886.4 2454.31   2
  -1   7  -1 70333.8 3132.20   4
  -1  -7   1 68431.6 2856.85   1
  -1  -7   2 76215.2 2772.44   2
   1   7   2 76417.9 3229.74   4
  -1   7  -2 77737.4 3353.98   4
   1  -7  -2 76675.0 3236.73   1
  -1  -7   2 80093.4 3140.56   1
  -1  -7   3 522.495 581.995   2
   1   7   3 318.697 743.577   4
   1  -7  -3 725.530 774.646   1
  -1  -7   3 1398.70 648.044   1
  -1   7  -3 1908.03 871.355   4
   1  -7  -3 1028.31 388.934   2
  -1  -7   4 19402.3 1571.62   1
  -1   7  -4 16159.4 1604.43   4
  -1  -7   4 14429.9 1263.29   2
   1  -7  -4 15041.9 1392.42   1
   1  -7  -4 15225.3 801.951   2
   1   7   4 16911.6 1516.68   4
   1  -7  -5 85150.9 3370.21   1
  -1   7  -5 81274.3 3537.10   4
   1  -7  -5 77007.1 1820.02   2
   1   7   5 84559.5 3325.42   4
  -1  -7   5 83804.1 3292.25   1
  -1  -7   5 82386.1 3184.89   2
  -1   7  -6 757.425 905.959   4
  -1  -7   6 1049.77 813.781   2
   1   7   6 64.3623 785.717   4
  -1  -7   6 1392.48 704.121   1
  -1  -7   7 33351.2 2101.07   2
   1   7   7 31995.6 2043.29   4
  -1   7  -7 35951.9 2385.33   4
  -1  -7   7 35728.0 2165.19   1
  -1   7  -7 33196.6 1712.58   3
  -1   7  -8 18977.6 1234.63   3
  -1  -7   8 23193.2 1752.83   1
  -1   7  -8 19545.8 1810.16   4
   1   7   8 20031.3 1633.08   4
  -1  -7   8 17547.8 1649.61   2
   1   7   9 5669.52 1102.49   4
  -1   7  -9 5664.40 1282.58   4
  -1   7  -9 5299.34 707.413   3
  -1  -7   9 7321.00 1227.00   1
  -1  -7   9 5818.47 1136.18   2
  -1   7 -10 11933.5 1689.92   4
  -1  -7  10 12186.0 1488.15   2
  -1  -7  10 10778.1 1350.27   1
   1   7  10 10686.8 1296.15   4
  -1   7 -11 41492.6 2703.01   4
  -1  -7  11 36874.7 2475.01   2
   1   7  11 38455.1 2265.32   4
   1  -7 -11 39896.6 2359.86   9
  -1  -7  11 40984.5 2406.88   1
   1  -7 -12 8144.12 1283.06   9
  -1  -7  12 8286.58 1387.87   2
  -1  -7  12 8161.34 1312.37   1
   1   7  12 8628.35 1202.30   4
  -1  -7  13 24149.0 1955.89   1
   1   7  13 25586.5 1921.91   4
  -1  -7  13 23321.1 2151.92   2
   1  -7 -13 26536.3 2069.31   9
  -1  -7  14 9842.36 1527.39   2
  -1  -7  14 7659.36 1251.46   1
   1   7  14 10175.7 1400.32   4
   1  -7 -14 10771.4 1517.94   9
  -1  -7  15-213.201 786.424   1
  -1  -7  15-656.215 1048.79   2
   1   7  15 293.638 900.573   4
   1  -7 -15 553.928 959.140   9
  -1  -7  16 2375.46 1169.27   2
   1   7  16 1915.29 1008.78   4
   1  -7 -16 1055.91 1087.29   9
  -1  -7  16 1550.60 846.849   1
  -1  -7  17 7512.69 1582.72   2
   1  -7 -17 10804.5 1564.96   9
  -1  -7  17 10150.8 1493.82   1
   1   7  17 7839.87 1363.01   4
  -1  -7  18-138.735 1019.36   2
  -1  -7  18-937.217 1156.58   1
   1   7  18-700.230 923.496   4
   1  -7 -18-1255.98 1162.24   9
  -1  -7  19 4332.61 1175.09   1
   1  -7 -19 6663.85 1393.76   9
   1   7  19 5640.12 1339.11   4
  -1  -7  19 3291.62 1221.58   2
  -1  -7  20 3503.82 1488.22   2
   1  -7 -20 3429.63 1412.48   9
  -1   7 -20 2389.67 1432.33   7
   1   7  20 2369.14 1024.50   4
  -1  -7  20 3049.58 1162.77   1
   1   7  21-613.152 1021.71   4
  -1  -7  21-104.622 1087.09   2
  -1   7 -21 2625.50 1419.45   7
  -1  -7  21-960.878 1164.46   1
   1   7  21 54.9733 1258.82   3
   1  -7 -21-622.439 1040.84   9
  -1   7 -22 2110.68 1500.12   7
   1   7  22 981.064 1057.84   4
   1   7  22 1097.99 1254.17   3
  -1  -7  22 951.075 1016.47   1
   1  -7 -22 446.348 1070.17   9
   1   7  23 1492.51 1037.28   4
  -1  -7  23 1963.91 1214.36   1
  -1  -7  24-1221.50 1183.70   1
   1   7  24 40.0562 903.389   4
  -1  -8 -22 764.883 1146.08   9
  -1  -8 -21-641.974 1184.75   9
   1  -8  20-1074.42 1354.06   1
  -1  -8 -20 1225.41 1008.57   9
   1  -8  19 356.721 1104.19   1
  -1  -8 -19 825.872 1113.74   9
  -1   8  19-1268.53 1217.31   3
  -1  -8 -18 8046.12 1334.73   9
  -1   8  18 9973.02 1745.46   3
   1  -8  18 11584.4 1810.75   1
  -1   8  17-358.119 1229.86   3
   1  -8  17 2591.79 1276.36   1
  -1  -8 -17-748.074 1059.30   9
  -1  -8 -16 4441.80 1028.15   7
   1  -8  16 5539.04 1326.00   1
  -1   8  16 3808.14 966.044   4
  -1   8  16 7968.37 1816.95   3
  -1  -8 -16 4486.12 1106.48   9
  -1   8  15 1407.50 875.114   4
  -1  -8 -15 180.810 930.677   9
  -1  -8 -15 590.354 755.651   7
  -1   8  15-838.848 1419.11   3
   1   8 -15 810.937 1140.08   4
   1  -8  15-437.617 1053.71   1
   1  -8  14 4153.70 1333.68   1
   1   8 -14 3766.90 1420.70   4
  -1   8  14 3760.66 1487.10   3
  -1   8  14 5113.44 1100.27   4
  -1  -8 -14 4588.39 1016.35   7
  -1  -8 -14 5155.70 1191.76   9
  -1  -8 -13 1045.22 767.589   7
   1  -8  13 1583.81 1067.04   1
  -1  -8 -13 1536.98 946.547   9
  -1   8  13 204.805 1316.70   3
   1   8 -13 4202.09 1374.01   4
  -1   8  13 1779.19 815.747   4
  -1  -8 -12 19595.7 1622.92   7
   1  -8  12 17137.3 1922.15   1
  -1   8  12 19836.4 2255.07   3
  -1  -8 -12 22596.1 1883.67   9
  -1   8  12 19164.0 1682.69   4
   1   8 -12 21490.8 2259.69   4
  -1   8  11 124.751 735.110   4
   1  -8  11-791.117 940.730   1
  -1   8  11 353.744 1278.40   3
   1   8 -11 1648.85 1333.31   4
  -1  -8 -11-503.270 854.658   9
  -1  -8 -11 1223.16 749.561   7
  -1   8  10 4169.51 924.405   4
  -1   8  10 6198.35 1491.83   3
   1   8 -10 2592.11 994.777   4
   1  -8  10 3689.79 1192.60   1
  -1  -8 -10 4247.06 1052.77   9
  -1  -8 -10 4189.33 951.399   7
  -1   8   9 2614.56 859.135   4
  -1  -8  -9 2954.43 809.949   7
  -1   8   9 6826.93 1526.85   3
   1   8  -9 7590.83 1573.12   4
   1  -8   9 4922.34 1286.54   1
   1   8  -8 24731.2 2253.54   4
  -1   8   8 20150.8 1713.48   4
   1  -8   8 19736.1 1915.76   1
  -1   8   8 20004.7 2181.16   3
  -1  -8  -8 21237.1 1633.15   7
  -1   8   7 4398.47 1039.60   4
   1  -8   7 3352.26 1039.81   1
  -1   8   7 5789.32 1498.47   3
   1   8  -7 5628.57 1377.58   4
   1   8  -6 32648.6 2466.64   4
   1  -8   6 31564.8 2301.00   1
  -1   8   6 31388.9 2130.31   4
   1  -8   5 797.368 979.793   1
  -1   8   5 14.2037 811.847   4
   1   8  -5-1645.46 1064.45   4
   1  -8   4 8033.23 1413.56   1
  -1  -8  -4 7708.71 1122.04   1
   1   8  -4 7314.72 1437.16   4
  -1   8   4 8117.21 1293.82   4
  -1  -8  -3 1922.04 472.823   2
  -1   8   3 3692.22 1048.11   4
  -1  -8  -3 3921.61 1094.93   1
   1  -8   3 1840.29 962.089   1
   1   8  -3 3203.04 1145.67   4
  -1   8   2 11460.6 1438.84   4
  -1  -8  -2 11248.1 875.316   2
   1   8  -2 10323.0 1477.48   4
  -1  -8  -2 12042.9 1401.02   1
   1  -8   2 12491.8 1461.62   1
   1   8  -1 10650.3 1508.17   4
  -1   8   1 9396.46 1380.45   4
   1  -8   1 10161.4 1469.22   1
  -1  -8  -1 9843.08 897.811   2
  -1  -8  -1 8728.33 1247.64   1
  -1  -8   0 69323.0 3113.43   1
  -1   8   0 68215.1 3278.03   4
  -1  -8   0 66434.4 2448.34   2
   1   8   0 65737.7 3244.24   4
   1  -8   0 66814.2 2557.41   2
   1  -8   0 71994.5 3310.60   1
  -1  -8   1 8472.44 1227.32   1
   1  -8  -1 8375.06 1230.20   1
  -1   8  -1 8582.33 1326.81   4
   1   8   1 8141.94 1240.05   4
  -1  -8   1 8789.30 939.866   2
   1  -8  -1 8933.79 916.422   2
   1  -8  -2 8877.42 828.562   2
  -1  -8   2 10581.4 1077.32   2
   1   8   2 8022.21 1289.55   4
   1  -8  -2 10309.5 1471.51   1
  -1  -8   2 9950.55 1285.23   1
  -1   8  -2 11084.8 1460.47   4
  -1   8  -3 2622.45 1017.32   4
   1   8   3 2912.41 1089.83   4
  -1  -8   3 2611.73 900.570   1
   1  -8  -3 3146.48 928.001   1
  -1  -8   3 1812.40 707.990   2
  -1  -8   4 6381.29 948.139   2
   1  -8  -4 7147.84 1283.00   1
  -1  -8   4 6866.39 1171.22   1
   1   8   4 5646.91 1233.54   4
  -1   8  -4 4638.62 1149.23   4
  -1  -8   5 444.289 826.717   1
  -1  -8   5-700.953 716.879   2
   1   8   5 516.996 876.578   4
  -1   8  -5 872.669 1146.33   4
   1  -8  -5 324.622 965.289   1
  -1   8  -6 37008.4 2056.74   3
  -1  -8   6 32504.3 2233.00   1
  -1   8  -6 36708.8 2540.06   4
   1   8   6 36108.6 2329.77   4
  -1  -8   6 35212.2 2151.44   2
   1  -8  -6 37653.8 2384.06   1
   1  -8  -7 3915.78 1107.43   1
  -1  -8   7 4599.60 1116.14   1
   1   8   7 3158.59 993.987   4
  -1  -8   7 4719.75 1095.62   2
  -1   8  -7 4558.69 1309.43   4
  -1   8  -7 3718.91 750.386   3
  -1   8  -8 24146.5 2164.04   4
  -1  -8   8 21638.8 1831.82   1
   1   8   8 22196.8 1858.35   4
  -1  -8   8 21929.1 1873.55   2
   1   8   9 3346.80 1120.96   4
  -1   8  -9 2983.74 1087.52   4
  -1  -8   9 4635.20 968.018   1
  -1  -8   9 3867.78 1060.62   2
  -1  -8  10 5536.14 1164.84   2
  -1  -8  10 7033.06 1288.56   1
   1   8  10 4951.56 1041.98   4
  -1   8 -10 6421.24 1324.89   4
  -1   8 -11-440.829 864.587   4
  -1  -8  11 191.999 1006.43   1
   1  -8 -11-676.692 1009.25   9
  -1  -8  11-221.231 1050.98   2
   1   8  11 698.456 970.934   4
   1  -8 -12 19071.3 1818.31   9
  -1  -8  12 18539.2 1842.64   1
  -1  -8  12 15644.8 1811.57   2
   1   8  12 16190.0 1747.39   4
  -1  -8  13 823.176 995.422   1
   1  -8 -13-347.945 1090.12   9
  -1  -8  13 797.012 972.669   2
   1   8  13 1963.62 988.079   4
   1   8  14 2368.10 889.713   4
  -1  -8  14 4934.13 1274.31   2
   1  -8 -14 4898.99 1380.52   9
  -1  -8  14 5828.19 1378.86   1
  -1  -8  15 2103.95 1103.59   1
   1   8  15-928.491 871.379   4
  -1  -8  15 3669.89 1334.22   2
   1  -8 -15 2809.58 1127.86   9
  -1  -8  16 2732.62 1210.75   2
   1   8  16 2303.32 1046.83   4
  -1  -8  16 3231.12 1097.65   1
   1  -8 -16 1388.47 1184.25   9
   1  -8 -17 1329.48 1112.35   9
  -1  -8  17 1473.50 1017.25   2
  -1  -8  17 2602.98 1207.87   1
   1   8  17 3502.73 1246.33   4
   1   8  18 10950.8 1547.33   4
  -1  -8  18 11774.5 1737.72   1
  -1  -8  18 9506.27 1584.18   2
   1  -8 -18 10564.8 1719.45   9
  -1  -8  19 1772.12 1338.44   2
   1   8  19-262.776 898.448   4
   1  -8 -19-300.047 1235.16   9
  -1  -8  19-945.250 974.116   1
   1  -8 -20 2999.16 1227.56   9
  -1  -8  20 1194.18 1213.05   1
   1   8  20 1475.46 966.749   4
  -1  -8  21 690.428 1054.53   1
   1   8  21 781.304 1000.05   4
   1   8  22 1687.75 999.421   4
  -1  -8  22 3029.06 1345.70   1
  -1  -9 -19-1054.97 1252.43   9
  -1  -9 -18-69.9620 905.233   9
   1  -9  17 3610.65 1350.24   2
  -1  -9 -17 3307.69 1291.05   9
   1  -9  17 3636.33 1464.61   1
   1  -9  16 1752.01 1100.72   1
  -1   9  16 1252.41 1512.93   3
  -1  -9 -16 1136.43 910.635   9
   1   9 -15 405.544 1132.01   4
  -1   9  15 2932.56 1644.73   3
   1  -9  15 2282.78 1367.48   1
  -1  -9 -15 188.641 1009.94   9
   1  -9  14 6459.52 1395.74   1
   1   9 -14 5855.69 1582.40   4
  -1   9  14 2457.20 1597.29   3
  -1   9  14 4333.21 1140.40   4
  -1  -9 -14 4833.03 1292.63   9
   1  -9  13 1452.97 1240.49   1
   1   9 -13 2461.02 1425.63   4
  -1  -9 -13 2511.58 1027.56   9
  -1   9  13 4633.68 1573.65   3
  -1   9  13 2303.15 1005.09   4
   1  -9  12 1151.07 1048.67   1
  -1   9  12-255.020 1274.69   3
   1   9 -12 2443.57 1405.56   4
  -1  -9 -12-253.056 962.865   9
  -1   9  12-101.344 899.371   4
  -1  -9 -12 2117.34 892.525   7
   1  -9  11 11460.2 1661.06   1
  -1   9  11 11311.8 1878.53   3
   1   9 -11 10741.7 1786.26   4
  -1  -9 -11 13008.3 1618.21   9
  -1   9  11 11236.1 1397.07   4
   1  -9  10 2504.85 1210.02   1
  -1   9  10 2132.72 938.679   4
  -1   9  10 2020.95 1156.59   3
   1   9 -10 4008.47 1280.27   4
  -1  -9 -10 1545.09 1023.93   9
   1   9  -9 400.775 1090.73   4
  -1   9   9 990.312 936.978   4
   1  -9   9-29.7545 1071.42   1
  -1   9   9 1365.48 1366.10   3
   1  -9   8 11476.4 1590.95   1
  -1   9   8 11778.3 1483.97   4
  -1   9   8 8407.31 1672.41   3
   1   9  -8 9498.25 1739.18   4
  -1   9   7 23433.6 2003.26   4
  -1   9   7 22322.4 2341.10   3
   1  -9   7 24830.3 2256.73   1
   1   9  -7 27558.3 2468.48   4
   1  -9   6 743.105 841.427   1
  -1  -9  -6 1108.42 886.149   1
   1   9  -6 1532.18 1086.44   4
  -1   9   6 188.272 1164.12   3
  -1   9   6 1195.47 891.752   4
  -1   9   5 14277.7 1677.41   4
   1   9  -5 12785.7 1690.97   4
  -1  -9  -5 12859.6 1559.24   1
  -1   9   5 13052.5 1894.41   3
   1  -9   5 14193.1 1820.67   1
  -1   9   4 4147.13 1121.04   4
   1  -9   4 1584.74 1039.40   1
   1  -9   4 4196.31 968.221   2
   1   9  -4 3221.42 1152.67   4
  -1   9   4 3371.08 1197.13   3
  -1  -9  -4 2327.21 1073.33   1
   1  -9   3-424.529 636.061   2
   1  -9   3 551.228 1089.65   1
  -1   9   3 680.233 1137.47   3
  -1  -9  -3 1422.44 1019.41   1
  -1   9   3 2683.76 1121.93   4
   1   9  -3 158.960 1044.05   4
  -1   9   2 2543.32 956.697   4
   1  -9   2 3682.53 1058.53   1
  -1   9   2 6554.61 1405.63   3
  -1  -9  -2 5480.92 1075.01   1
   1  -9   2 3931.07 862.595   2
   1   9  -2 5372.05 1395.40   4
  -1   9   1 12691.7 1630.61   4
   1  -9   1 14653.0 1758.70   1
  -1  -9  -1 16925.9 1817.22   1
  -1   9   1 14004.2 1699.21   3
   1   9  -1 14442.9 1820.82   4
   1  -9   1 14318.9 1247.55   2
  -1   9   0 1975.90 1045.01   3
   1   9   0 430.864 1070.33   4
  -1   9   0 767.567 920.271   4
   1  -9   0 578.735 926.822   1
  -1  -9   0 414.574 748.155   1
   1   9   1 14338.6 1846.91   4
  -1   9  -1 17248.2 1776.41   3
  -1   9  -1 17094.7 1894.71   4
  -1  -9   1 14513.3 1677.12   1
   1  -9  -1 16718.6 1854.18   1
  -1  -9   1 12250.9 1166.40   2
  -1  -9   2 6953.17 972.137   2
  -1   9  -2 5588.37 1156.60   3
   1  -9  -2 8329.04 1463.53   1
  -1  -9   2 4112.69 1125.04   1
  -1   9  -2 7048.73 1390.64   4
   1   9   2 7331.31 1373.48   4
  -1  -9   3 2239.56 1046.63   1
  -1   9  -3 51.9654 772.129   3
   1   9   3 1473.43 916.723   4
   1  -9  -3 58.6392 984.820   1
  -1  -9   3 1292.47 713.484   2
  -1   9  -3-1316.21 1144.46   4
  -1  -9   4 2980.01 953.713   1
   1   9   4 3461.07 1033.60   4
  -1   9  -4 2728.73 879.017   3
   1  -9  -4 1014.47 940.757   1
  -1   9  -4 3137.92 1272.36   4
  -1  -9   4 4799.83 969.774   2
  -1  -9   5 12601.1 1649.30   1
  -1  -9   5 10435.4 1310.05   2
  -1   9  -5 12436.2 1396.39   3
  -1   9  -5 10575.2 1752.17   4
   1  -9  -5 11163.7 1565.48   1
   1   9   5 11660.1 1618.73   4
   1  -9  -6 2696.48 1127.08   1
   1   9   6 2456.80 1209.14   4
  -1  -9   6 774.912 771.185   2
  -1   9  -6 265.576 1123.68   4
  -1  -9   6 2719.32 1150.20   1
  -1   9  -7 21838.2 2212.38   4
   1  -9  -7 21489.2 2044.68   1
  -1  -9   7 15896.0 1784.24   1
   1   9   7 18107.9 1842.46   4
  -1  -9   7 17938.0 1716.41   2
  -1  -9   8 10367.3 1411.40   2
   1  -9  -8 9544.59 1615.45   1
  -1  -9   8 8997.39 1471.57   1
   1   9   8 9772.01 1557.61   4
  -1   9  -8 12307.5 1841.68   4
   1  -9  -9 73.6139 844.958   1
  -1   9  -9 1146.30 1240.95   4
  -1  -9   9 800.640 839.572   2
  -1  -9   9 608.492 986.350   1
   1   9   9 284.054 804.636   4
   1   9  10 2237.02 1092.40   4
  -1   9 -10 1836.36 1196.62   4
  -1  -9  10 998.728 1013.77   1
  -1  -9  10 1728.08 1030.91   2
   1   9  11 14431.5 1753.23   4
  -1  -9  11 12375.9 1651.82   1
  -1   9 -11 12632.4 1763.19   4
   1  -9 -11 13585.1 1737.59   9
  -1  -9  11 15016.1 1776.44   2
  -1  -9  12-762.696 914.059   1
  -1  -9  12-38.3643 998.224   2
   1   9  12 243.591 936.886   4
   1  -9 -12 282.237 1130.99   9
  -1  -9  13 2438.97 1049.09   1
   1   9  13 1424.90 926.233   4
   1  -9 -13 3504.62 1239.44   9
  -1  -9  13 822.737 915.269   2
  -1  -9  14 3638.60 1337.77   2
   1  -9 -14 2351.78 1241.85   9
   1   9  14 3119.87 1066.07   4
  -1  -9  14 4932.38 1359.28   1
   1  -9 -15 2719.66 1327.25   9
   1   9  15-385.130 1026.22   4
  -1  -9  15 2713.17 1143.86   1
  -1  -9  15-39.6007 1132.42   2
   1   9  16 1677.00 1091.97   4
  -1  -9  16 716.363 886.280   1
   1  -9 -16 85.5418 1213.96   9
  -1  -9  16-1710.85 1269.84   2
   1   9  17 3188.46 1224.56   4
  -1  -9  17 1938.32 1194.18   2
   1  -9 -17 4650.60 1368.92   9
  -1  -9  17 6432.74 1545.70   1
   1   9  18-935.244 933.577   4
  -1  -9  18 2977.53 1248.44   1
  -1  -9  19-47.8808 1053.62   1
   1   9  19 257.814 1119.24   4
  -1 -10 -16 3011.34 1355.10   9
  -1 -10 -15 2510.55 1053.24   9
  -1 -10 -14 623.622 1171.52   9
   1 -10  14 1238.19 1165.74   2
  -1 -10 -13 704.571 934.596   9
   1 -10  13-329.550 1017.71   2
  -1  10  12-201.700 1473.04   3
   1 -10  12-177.530 1206.35   1
  -1 -10 -12-37.9789 1124.93   9
   1 -10  12 814.206 1033.13   2
   1  10 -12 1796.77 1459.67   4
   1  10 -11 785.169 1328.82   4
   1 -10  11-148.318 900.961   1
  -1  10  11 431.971 1412.69   3
  -1 -10 -11 161.137 1032.40   9
  -1  10  11-321.845 967.274   4
   1 -10  11-223.284 978.946   2
  -1 -10 -10-692.200 878.663   9
   1 -10  10-197.658 1028.87   2
  -1  10  10 1169.82 987.701   4
  -1  10  10-2602.20 1469.41   3
   1 -10  10 320.923 1149.51   1
   1  10 -10-845.874 1474.24   4
   1 -10   9 7106.12 1453.63   2
  -1  10   9 7319.24 1696.38   3
  -1  10   9 6715.33 1336.32   4
   1 -10   9 6419.27 1514.94   1
  -1 -10  -9 4886.55 1383.09   1
   1  10  -9 6109.05 1656.84   4
  -1 -10  -8 669.255 994.336   1
  -1  10   8 1103.24 1471.70   3
   1 -10   8-328.633 873.566   1
   1  10  -8 608.971 1324.28   4
   1 -10   8-1698.50 1023.08   2
  -1  10   8-3441.43 1356.92   4
  -1 -10  -7 759.406 962.266   1
   1  10  -7 2152.30 1410.17   4
   1 -10   7 1888.03 1329.92   1
  -1  10   7 1322.98 1059.21   4
  -1  10   7 1346.05 1117.76   3
   1 -10   7 1451.36 936.693   2
  -1  10   6 4567.66 1615.65   3
  -1 -10  -6 1703.26 1214.96   1
   1 -10   6 973.866 829.985   2
   1 -10   6 366.427 1083.11   1
   1  10  -6 718.357 1275.69   4
  -1  10   6 2272.73 1059.58   4
  -1 -10  -5 1851.90 1189.41   1
   1  10  -5 2470.90 1310.50   4
   1 -10   5 979.009 984.915   1
  -1  10   5 3642.90 1311.19   4
  -1  10   5 2234.01 1261.24   3
   1 -10   4 4384.30 1464.65   1
  -1  10   4 3951.58 1298.97   3
  -1  10   4 3746.70 1184.50   4
  -1 -10  -4 3279.11 1283.81   1
   1  10  -4 4932.99 1618.79   4
   1  10  -3 9906.51 1753.00   4
  -1  10   3 9041.74 1673.63   3
  -1 -10  -3 13536.0 1790.18   1
  -1  10   3 9774.24 1649.65   4
   1 -10   3 11941.2 1806.27   1
   1  10  -2 2744.63 1250.10   4
  -1 -10  -2 2949.83 1222.60   1
  -1  10   2 2593.34 1343.12   4
  -1  10   2 933.908 1099.99   3
   1 -10   2 1809.91 1061.99   1
  -1  10   1 6415.66 1491.48   3
   1 -10   1 4698.96 1312.30   1
  -1  10   1 3866.58 1327.89   4
   1  10  -1 3410.96 1172.92   4
  -1 -10  -1 5197.51 1161.97   1
   1  10   0 1931.66 1034.13   4
  -1 -10   0 5585.96 1431.74   1
  -1  10   0 5232.78 1379.06   3
   1 -10   0 4425.72 1352.88   1
  -1  10   0 5776.83 1463.93   4
  -1  10  -1 2737.34 1038.70   3
  -1 -10   1 5816.96 1408.43   1
   1 -10  -1 4818.66 1419.21   1
  -1  10  -1 3540.88 1207.94   4
   1  10   1 4248.83 1273.59   4
  -1  10  -2 400.766 976.268   3
  -1 -10   2-490.781 987.214   1
   1  10   2-1297.73 1272.03   4
   1 -10  -2-89.4869 1116.99   1
  -1  10  -2-221.620 1048.69   4
  -1  10  -3 14323.0 1664.08   3
   1 -10  -3 11081.8 1727.38   1
   1  10   3 13866.6 1832.35   4
  -1  10  -3 12742.0 1916.46   4
  -1 -10   3 10317.0 1660.44   1
   1 -10  -4 308.718 1127.67   1
   1  10   4 867.919 1116.26   4
  -1 -10   4 5696.69 1276.45   1
  -1  10  -4 3900.50 1283.37   4
  -1  10  -5 1291.02 1066.44   4
  -1 -10   5 3021.35 928.678   2
  -1 -10   5 391.233 1126.92   1
   1 -10  -5 306.123 1116.66   1
   1  10   5 1927.64 1160.43   4
  -1 -10   6 4236.64 1297.37   1
  -1 -10   6 5075.15 1099.69   2
   1 -10  -6 2714.64 1055.87   1
  -1  10  -6 5271.17 1558.32   4
   1  10   6 4092.78 1248.45   4
  -1  10  -7 2237.12 1356.44   4
   1 -10  -7 2270.30 1202.37   1
  -1 -10   7 3036.21 1085.90   1
   1  10   7 1517.11 1099.37   4
  -1 -10   7 1377.65 864.118   2
   1  10   8-1055.38 1203.36   4
  -1  10  -8-957.263 1229.17   4
  -1 -10   8 185.720 1034.50   1
  -1 -10   8 2323.64 1094.55   2
   1 -10  -8 980.962 1190.50   1
   1  10   9 6986.17 1413.64   4
  -1 -10   9 6318.98 1367.46   1
   1 -10  -9 5978.52 1424.67   1
  -1  10  -9 6761.50 1514.24   4
  -1 -10   9 5874.31 1194.57   2
  -1 -10  10 251.991 859.653   2
  -1  10 -10 947.294 1138.12   4
  -1 -10  10-144.059 898.567   1
   1 -10 -10-611.863 1153.07   1
   1  10  10 1172.66 996.896   4
  -1  10 -11 3157.66 1480.86   4
   1 -10 -11 2284.84 1260.02   1
   1  10  11-430.939 1043.76   4
  -1 -10  11 1724.74 1195.16   1
  -1 -10  11 1655.81 1112.80   2
   1 -10 -11 2996.18 1355.62   9
   1  10  12 2710.74 1211.90   4
  -1 -10  12 2007.17 1091.86   2
  -1 -10  12 1515.51 1058.86   1
   1 -10 -12 800.334 995.904   9
   1  10  13 815.601 1137.55   4
  -1 -10  13 936.261 1111.79   1
  -1 -10  13 2371.96 1309.76   2
   1 -10 -13-657.118 1406.40   9
  -1 -10  14 1747.16 1016.83   2
  -1 -10  14 1368.47 1247.58   1
   1  10  14-754.135 1128.47   4
   1  10  15 2932.38 1250.87   4
  -1 -10  15 2288.07 1234.87   1
  -1 -11 -10 4481.85 1333.25   9
  -1 -11  -9-1277.27 1228.60   9
  -1  11   8 2976.85 1309.34   4
  -1  11   7-1297.86 1104.69   4
  -1  11   7 1012.30 1488.86   3
  -1  11   6-501.499 965.481   4
  -1  11   6-1260.92 1218.87   3
  -1  11   5-1545.76 1187.46   4
  -1 -11  -5 774.253 1195.38   1
  -1  11   5-3401.10 1622.92   3
  -1 -11  -4 4454.44 1436.20   1
  -1  11   4 6052.56 1744.65   3
  -1  11   4 3583.58 1440.88   4
  -1  11   3 518.477 1117.41   4
  -1 -11  -3 625.349 1169.78   1
   1  11  -3 388.479 1350.25   4
  -1  11   3 56.4116 1284.91   3
   1 -11   3 654.384 1314.67   1
   1  11  -2 12004.1 2002.01   4
   1 -11   2 10163.2 1806.41   1
  -1 -11  -2 6626.71 1566.11   1
  -1  11   2 9707.04 1769.02   4
  -1  11   2 7539.72 1652.35   3
   1  11  -1 1304.97 1178.66   4
   1 -11   1 4273.78 1556.75   1
  -1  11   1 3804.13 1411.29   3
  -1 -11  -1 625.164 1169.95   1
  -1  11   1 1848.97 1278.98   4
   1 -11   0 769.145 1339.28   1
  -1  11   0-1094.62 1142.29   3
   1  11   0 477.857 1336.61   4
  -1  11   0 1486.92 1132.05   4
  -1 -11   0 333.411 1254.22   1
  -1  11  -1 3689.59 1425.32   4
  -1 -11   1 259.814 1124.95   1
   1 -11  -1 1282.71 1399.74   1
   1  11   1 636.688 1068.88   4
  -1 -11   2 4591.62 1318.02   1
  -1  11  -2 5735.32 1479.13   4
   1 -11  -2 10325.7 1857.03   1
   1  11   2 6398.37 1579.23   4
  -1 -11   3 243.077 1013.83   1
   1  11   3 1160.86 1174.99   4
  -1  11  -3 993.008 1300.76   4
  -1  11  -4 3584.80 1429.48   4
   1  11   4 3873.93 1539.41   4
  -1 -11   4 3325.52 1422.33   1
   1  11   5 536.775 998.936   4
  -1  11  -5 54.3670 1109.43   4
  -1 -11   5-630.014 1102.17   1
   1  11   6 337.451 1237.08   4
  -1 -11   6 758.588 1199.35   1
  -1  11  -6-861.086 1335.85   4
  -1 -11   7 1662.81 1240.25   1
   1  11   7 1287.53 1312.17   4
  -1 -11   8 2985.02 1200.40   1
   2   0   0 328639. 6026.33   7
  -2   0   0 321441. 6401.95   3
  -2   0   0 321125. 5986.55   7
   2   0   0 318462. 6180.41   2
  -2   0   0 319902. 6330.99   8
  -2   0   0 324465. 6187.12   2
   2   0   0 320915. 5662.16   1
  -2   0   0 309880. 5691.19   1
   2   0   0 310630. 6339.40   3
   2   0  -1 231735. 4556.12   7
  -2   0  -1 234981. 4633.69   7
   2   0  -1 246839. 4321.06   9
   2   0   1 229224. 4897.57   3
   2   0  -1 232629. 4965.10   3
  -2   0  -1 243649. 4930.84   8
  -2   0   1 233668. 4552.60   7
   2   0   1 234044. 4398.34   1
  -2   0   1 235792. 4778.42   2
   2   0   1 236215. 4786.38   2
   2   0  -1 234899. 4771.19   2
   2   0  -1 234550. 4368.02   4
  -2   0   1 232446. 4985.71   3
  -2   0  -1 235607. 4446.33   1
  -2   0   1 234477. 4915.82   8
  -2   0  -1 231259. 4939.67   3
   2   0   1 235005. 4658.84   7
   2   0  -1 232045. 4157.95   1
  -2   0   2 201539. 4453.41   3
   2   0  -2 207199. 4469.07   3
   2   0   2 206155. 4149.94   5
   2   0  -2 193396. 3962.75   7
   2   0   2 198877. 3954.57   1
  -2   0  -2 201868. 4142.57   7
   2   0  -2 209525. 3870.24   9
  -2   0  -2 202903. 3999.34   1
  -2   0  -2 205472. 4351.06   8
   2   0   2 199691. 4231.73   2
  -2   0   2 198612. 3987.71   7
  -2   0   2 201333. 4206.87   2
   2   0  -2 199954. 4200.88   2
   2   0   2 203814. 4162.39   7
   2   0   2 197798. 4300.79   3
   2   0  -2 200368. 3726.96   4
   2   0   2 195322. 3719.38   9
  -2   0   2 204864. 4347.58   8
  -2   0   3 780.526 241.552   7
  -2   0   3 1981.39 438.419   8
  -2   0  -3 954.932 240.298   1
   2   0  -3 1441.56 276.111   7
   2   0  -3 893.472 325.871   3
  -2   0  -3 763.869 297.346   7
   2   0   3 1318.36 319.270   3
   2   0   3 1067.58 324.242   7
  -2   0   3 776.198 309.448   2
   2   0  -3 762.550 250.999   2
   2   0   3 1271.73 293.477   5
   2   0   3 878.834 180.969   9
   2   0   3 1181.08 287.704   1
   2   0   3 1023.04 265.519   2
  -2   0   3 987.780 405.056   3
   2   0  -3 982.948 250.315   9
   2   0  -3 906.193 167.029   4
  -2   0  -3 1178.56 401.729   8
   2   0   4 531537. 9315.95   9
  -2   0  -4 525014. 9753.28   7
   2   0  -4 542999. 10082.8   3
   2   0  -4 525767. 9510.34   9
   2   0  -4 509967. 8985.89   1
  -2   0   4 516043. 9472.77   9
  -2   0  -4 518044. 9327.27   9
   2   0   4 525857. 9464.55   5
  -2   0  -4 526342. 9689.66   1
   2   0  -4 548778. 9510.90   7
  -2   0   4 536657. 9744.73   2
   2   0  -4 561050. 9789.86   2
   2   0  -4 533682. 9104.29   4
  -2   0  -4 520687. 9773.09   8
  -2   0   4 530884. 9027.75   4
   2   0   4 515206. 9751.78   3
  -2   0   4 520679. 10044.0   3
   2   0   4 536051. 9822.19   7
   2   0   4 515120. 9626.19   1
  -2   0   4 519476. 9771.38   8
   2   0  -5 17298.9 810.347   7
  -2   0  -5 19562.9 1002.56   7
  -2   0   5 18557.4 1068.24   3
   2   0  -5 19110.2 604.642   1
   2   0   5 19559.1 946.888   1
   2   0   5 19846.6 1007.66   7
  -2   0  -5 19045.4 947.542   8
  -2   0  -5 19884.5 965.017   1
   2   0   5 17684.4 731.927   5
  -2   0   5 18117.5 930.533   8
   2   0   5 18714.5 768.350   9
  -2   0   5 18076.4 844.962   9
   2   0  -5 17957.0 912.141   6
  -2   0   5 19960.1 954.767   2
   2   0  -5 17309.4 602.224   4
   2   0  -5 18069.6 919.177   2
  -2   0   5 16804.4 538.789   4
   2   0  -5 19027.9 1066.96   3
  -2   0  -5 17515.7 778.310   9
   2   0  -5 18379.5 876.462   9
   2   0   6 556398. 9830.07   5
  -2   0  -6 550268. 10468.0   7
   2   0   6 553958. 10548.3   7
  -2   0   6 561676. 10681.0   3
   2   0  -6 548980. 10715.7   3
  -2   0   6 539866. 10247.5   8
   2   0  -6 543326. 9725.66   1
   2   0   6 558086. 10397.7   1
  -2   0  -6 549685. 10264.8   8
  -2   0  -6 562272. 10150.5   9
  -2   0   6 569714. 9709.18   1
   2   0   6 543620. 10038.4   9
  -2   0   6 569882. 10351.9   2
   2   0  -6 544607. 10365.8   2
  -2   0   6 551712. 10248.8   9
  -2   0   6 556815. 9617.56   4
   2   0  -6 575933. 10237.0   7
   2   0  -6 561599. 9685.29   4
  -2   0  -6 547764. 10450.2   1
   2   0  -6 552503. 10273.9   9
   2   0  -6 560656. 10232.8   6
   2   0  -7 114705. 2879.40   9
  -2   0   7 107762. 2375.32   1
   2   0   7 111076. 2954.75   1
   2   0  -7 110134. 2427.32   1
  -2   0   7 109264. 2821.90   9
  -2   0  -7 112052. 2965.34   1
   2   0   7 107000. 2289.47   5
  -2   0  -7 109602. 2734.58   9
  -2   0  -7 111048. 2997.48   7
   2   0  -7 107449. 2668.86   6
  -2   0   7 106030. 2812.31   2
   2   0  -7 109183. 3098.56   3
  -2   0   7 104326. 2281.98   4
   2   0  -7 102654. 2827.57   2
   2   0   7 108999. 2652.43   9
  -2   0   7 110762. 3071.46   3
  -2   0  -7 107561. 2716.57   8
  -2   0   7 110013. 2734.47   8
  -2   0  -8 53003.2 1979.04   7
  -2   0   8 52371.4 1998.71   3
   2   0  -8 56279.8 1686.74   6
   2   0   8 56179.9 2003.63   1
  -2   0   8 54352.0 1527.82   1
   2   0  -8 55540.4 1559.65   1
   2   0   8 52132.9 1709.25   9
   2   0  -8 57261.1 1921.79   9
  -2   0   8 52554.6 1855.00   9
  -2   0   8 57799.2 1750.62   8
  -2   0   8 53211.1 1860.07   2
  -2   0   8 53316.6 1462.41   4
   2   0  -8 50227.8 1868.12   2
  -2   0  -8 55477.6 1827.32   9
  -2   0  -9 33285.3 1575.10   7
  -2   0  -9 31428.5 1396.63   9
  -2   0   9 33874.1 1567.39   3
   2   0  -9 28742.5 1407.45   9
  -2   0   9 28721.8 1096.09   1
   2   0  -9 28567.7 1148.54   6
  -2   0   9 27631.9 1063.60   4
   2   0  -9 27782.5 1109.26   1
   2   0   9 28233.3 1473.16   1
   2   0   9 30386.1 1287.71   9
  -2   0   9 26501.2 1341.29   2
  -2   0   9 31372.4 1206.36   8
  -2   0  10 273840. 5930.69   2
  -2   0 -10 277256. 6232.61   7
  -2   0  10 274125. 6169.59   3
   2   0 -10 266984. 5526.22   1
   2   0 -10 261872. 5424.96   6
  -2   0  10 276420. 5506.06   1
   2   0  10 265596. 5805.49   9
   2   0  10 279976. 6198.53   1
  -2   0 -10 283847. 5979.81   9
  -2   0  10 259927. 5434.75   4
   2   0 -10 275650. 6060.28   9
  -2   0  11 4344.07 740.676   3
  -2   0 -11 3004.95 755.572   7
  -2   0 -11 3243.05 615.200   9
   2   0 -11 3513.49 689.994   9
   2   0  11 3422.31 718.532   1
   2   0 -11 4087.92 464.901   6
  -2   0  11 3326.03 456.192   4
  -2   0  11 3870.39 506.976   1
   2   0 -11 4131.81 510.219   1
  -2   0  11 3036.43 593.792   2
   2   0 -12 226907. 5513.31   9
  -2   0  12 228571. 4936.68   1
  -2   0  12 219638. 5413.41   3
   2   0 -12 220689. 4592.38   6
  -2   0 -12 218797. 5575.21   7
   2   0 -12 220890. 4961.69   1
  -2   0  12 212411. 4869.77   4
  -2   0  12 222424. 5309.67   2
  -2   0 -12 229797. 5406.72   9
   2   0  12 229459. 5567.82   1
   2   0 -13 952.760 597.630   9
  -2   0  13 1907.80 609.904   3
   2   0  13 1389.45 748.744   1
  -2   0 -13 1398.43 685.376   7
  -2   0  13 1508.77 386.702   4
  -2   0 -13 1183.43 594.778   9
  -2   0  13 887.205 449.324   1
  -2   0  13 1428.21 598.268   2
  -2   0  14 62254.8 2462.17   3
  -2   0 -14 61849.4 2481.72   9
   2   0 -14 64147.8 2633.27   9
   2   0  14 59119.5 2554.77   1
  -2   0  14 59132.8 2391.76   2
  -2   0  14 55440.2 2091.25   4
  -2   0  14 59657.2 2178.70   1
  -2   0 -14 66512.3 2719.06   7
  -2   0  15 2666.97 593.502   1
  -2   0 -15 3188.44 889.291   7
  -2   0  15 3438.58 820.164   3
   2   0  15 1846.23 684.406   1
  -2   0  15 3496.62 819.159   2
  -2   0  15 3275.38 569.817   4
   2   0 -15 3789.71 914.714   9
  -2   0 -15 3735.23 789.769   9
  -2   0 -16 7129.09 1198.59   7
  -2   0 -16 5774.42 966.772   9
  -2   0  16 7262.56 996.408   3
  -2   0  16 6840.55 871.543   1
   2   0 -16 5771.96 1045.12   9
  -2   0  16 5816.54 939.334   2
   2   0  16 5430.74 1001.93   1
  -2   0 -17 5054.74 976.264   9
  -2   0 -17 4734.40 1038.92   7
  -2   0  17 3910.11 889.571   3
   2   0  17 5129.93 644.800   6
   2   0  17 4549.61 1042.93   1
  -2   0  17 4220.80 780.034   1
   2   0 -17 5112.27 1114.26   9
  -2   0  17 4635.66 871.326   2
  -2   0  18 36968.9 2044.79   3
   2   0  18 35603.2 1573.57   3
   2   0  18 33100.7 2236.79   1
   2   0  18 38492.4 1550.21   6
   2   0 -18 35357.3 2250.67   9
  -2   0  18 34219.3 2007.48   2
  -2   0  18 37901.5 1957.60   1
   2   0 -18 36188.4 2088.34   7
  -2   0 -18 39141.7 2234.50   9
  -2   0 -18 30657.5 2150.10   7
  -2   0  19-129.207 600.317   1
  -2   0  19 172.699 621.965   3
  -2   0  19-92.1839 770.566   2
   2   0  19 862.299 819.180   1
  -2   0 -19-786.613 961.526   7
   2   0 -19 334.356 731.454   7
   2   0  19-233.900 419.059   6
   2   0  19 214.223 416.325   3
   2   0 -19 877.154 693.115   5
   2   0 -19 288.954 821.767   9
  -2   0 -19-663.216 790.156   9
  -2   0  20 11871.2 1258.96   1
  -2   0  20 12242.6 1270.91   3
   2   0  20 11386.7 903.952   3
   2   0 -20 11647.5 1404.53   7
   2   0  20 12763.5 1454.02   1
  -2   0 -20 11516.1 1418.57   7
   2   0 -20 10027.8 1179.67   5
  -2   0  20 12931.1 1345.63   2
  -2   0 -20 13274.2 1543.26   9
   2   0 -20 10819.0 1538.10   9
   2   0  21-48.5499 892.789   1
  -2   0 -21 605.398 1029.41   7
   2   0 -21-858.322 724.971   7
  -2   0 -21-890.368 942.743   9
   2   0 -21-944.328 1046.99   9
  -2   0  21-946.543 799.729   1
  -2   0  21-664.357 811.882   2
   2   0 -21 176.807 667.967   5
  -2   0  21 482.478 670.670   3
  -2   0 -22 3909.75 1108.85   7
  -2   0 -22 5158.51 1116.71   9
  -2   0  22 7161.92 1062.65   3
   2   0 -22 7924.42 1286.48   7
  -2   0  22 6601.14 1161.04   2
   2   0 -22 6897.79 1306.67   9
   2   0 -22 6406.04 1026.61   5
  -2   0  22 5467.12 1052.59   1
   2   0  22 5513.14 1365.13   1
  -2   0  23 3789.22 935.150   1
  -2   0  23 3080.57 944.805   2
   2   0  23 6478.34 1428.58   1
  -2   0  23 4066.88 959.880   3
   2   0 -23 2147.19 1194.17   9
   2   0 -23 3832.79 923.903   5
   2   0 -23 3272.87 1033.89   7
  -2   0 -23 2095.53 1089.60   9
  -2   0 -23 1986.87 1030.78   7
   2   0  24 1260.46 1138.26   1
  -2   0 -24 2012.46 1110.61   7
  -2   0  24 4521.58 990.097   3
   2   0 -24 5606.24 1077.42   5
  -2   0  24 5429.10 1130.88   1
  -2   0 -24 5526.52 1419.89   9
   2   0 -24 6699.73 1300.80   7
  -2   0  24 4558.83 1113.50   2
   2   0 -24 3513.90 1352.35   9
   2   0  25 3708.16 1135.65   1
  -2   0  25 1661.73 963.544   1
  -2   0 -25 4382.48 1297.53   7
  -2   0  25 4365.87 1024.12   3
   2   0 -25 4553.73 1263.41   7
   2   0 -25 2563.87 1329.52   9
  -2   0 -25 2641.55 1248.68   9
  -2   0  25 2592.15 1027.34   2
  -2   0 -26-1853.49 1226.87   9
   2   0  26-315.475 1154.52   1
  -2   0  26-1675.63 943.585   1
   2   0 -26 1858.45 988.409   7
   2   0 -26 569.778 945.218   9
  -2   0 -26-758.280 1165.81   7
  -2   0  26 747.938 857.781   2
  -2   0  27 188.074 830.184   2
  -2   0  27 1301.68 898.543   1
   2   0 -27-345.590 955.605   7
  -2   0 -27 2346.28 1318.67   9
   2   0 -27-876.178 1264.31   9
   2   0  27 1037.07 1282.25   1
  -2   0 -27 880.168 1221.79   7
  -2   0  28 781.413 847.874   1
   2   0 -28 77.0099 1049.47   7
  -2   0 -28 34.4999 1082.87   9
  -2   0 -28 2635.34 1485.80   7
  -2   0  29 770.696 1009.11   1
  -2   1  29 1055.26 1008.58   1
   2   1 -29-113.990 1035.59   7
  -2  -1 -29-608.615 1188.13   9
  -2  -1 -28 329.530 1213.80   7
   2   1 -28 3109.91 1313.60   7
  -2   1  28-231.646 1069.44   1
  -2  -1 -28 1698.55 1363.85   9
  -2   1  27 2791.27 1243.58   1
   2   1 -27 2015.83 1361.57   7
   2   1 -27 2329.87 1492.15   9
  -2  -1 -27 2042.54 1193.37   7
   2  -1  27-256.488 1243.73   1
  -2  -1 -27 2552.43 1377.87   9
   2  -1  26 2613.53 1153.94   1
   2   1 -26 1754.72 1166.30   7
  -2   1  26 2306.28 957.109   3
  -2  -1 -26 2537.86 1261.70   9
   2   1 -26 2393.74 1354.41   9
  -2   1  26 1886.89 1047.55   1
  -2  -1 -26 3419.47 1298.11   7
   2   1 -25 9653.36 1718.96   9
  -2  -1 -25 7834.07 1482.79   9
   2  -1  25 6687.03 1621.36   1
  -2  -1 -25 6286.53 1404.47   7
  -2   1  25 7719.44 1258.34   3
   2   1 -25 6531.02 1443.58   7
  -2   1  25 7603.04 1289.09   1
   2   1 -24-482.294 731.305   5
   2   1 -24 716.328 1036.89   7
  -2   1  24 282.105 695.487   2
  -2  -1 -24 2824.81 1225.62   9
   2  -1  24 2345.89 1139.08   1
  -2   1  24 683.126 909.354   3
  -2   1  24 868.702 942.397   1
  -2  -1 -24 177.353 1127.01   7
   2   1 -24 1820.98 1325.11   9
  -2  -1 -23 8984.98 1426.36   7
   2   1 -23 7125.78 1360.75   7
  -2   1  23 9491.89 1307.40   3
   2   1 -23 8913.10 1157.73   5
   2  -1  23 6027.96 1305.65   1
  -2   1  23 8180.99 1292.18   1
   2   1 -23 9074.03 1625.06   9
  -2  -1 -23 6841.94 1296.33   9
  -2   1  23 7117.14 1078.62   2
   2  -1  22 3295.36 1185.18   1
   2   1 -22 4296.10 1229.38   7
  -2   1  22 2352.38 880.789   3
  -2   1  22 4117.91 971.024   1
   2   1 -22 3353.12 874.267   5
  -2  -1 -22 4501.83 1294.85   7
  -2   1  22 2895.95 843.376   2
   2   1 -22 3353.58 1350.38   9
  -2  -1 -22 2303.13 938.552   9
   2  -1  21 2275.66 995.146   1
  -2  -1 -21 2774.82 1039.04   7
   2   1 -21 99.2202 1096.44   9
   2   1 -21 1710.64 916.279   7
  -2   1  21 888.405 786.690   3
  -2   1  21 2252.79 790.863   2
   2   1 -21 512.300 646.280   5
  -2  -1 -21 472.036 772.794   9
  -2   1  21 1438.88 793.897   1
   2   1 -20 24641.5 2051.68   9
  -2   1  20 25558.1 1821.81   3
   2  -1  20 25310.9 2074.08   1
  -2  -1 -20 21488.0 1791.78   9
   2   1 -20 22405.6 1625.74   5
  -2   1  20 22672.8 1612.55   2
  -2  -1 -20 22632.8 1868.43   7
  -2   1  20 24439.4 1723.89   1
   2   1 -19 30297.0 2209.46   9
  -2   1  19 25912.5 1713.60   1
   2  -1  19 24029.7 1997.37   1
   2  -1  19 26194.9 1218.16   6
   2   1 -19 22476.3 1622.13   5
  -2  -1 -19 25965.0 1885.31   9
  -2   1  19 26072.7 1664.36   2
  -2  -1 -19 27593.5 2023.96   7
  -2   1  19 27795.9 1889.72   3
  -2   1  18 9049.46 1061.06   1
   2  -1  18 9175.05 591.077   3
  -2  -1 -18 8968.47 1344.46   7
  -2  -1 -18 9382.99 1187.76   9
   2  -1  18 10561.1 795.577   6
  -2   1  18 10074.1 1202.36   3
   2  -1  18 12074.8 1452.58   1
   2   1 -18 12894.5 1516.41   9
   2   1 -18 9643.70 1090.89   5
  -2   1  18 9302.50 1017.10   2
  -2  -1 -17 56798.7 2739.64   7
  -2   1  17 53469.2 2547.60   3
   2  -1  17 59370.2 1974.74   6
  -2   1  17 56813.1 2411.19   1
   2  -1  17 58404.3 1645.90   3
   2  -1  17 59309.0 2890.18   1
   2   1 -17 58731.3 2828.47   9
   2   1 -17 59591.2 2489.19   5
  -2  -1 -17 61203.6 2683.86   9
  -2   1  17 55083.9 2297.60   2
  -2   1  16 7307.13 892.082   1
   2  -1  16 6208.55 657.792   6
  -2  -1 -16 8773.17 1205.05   7
  -2   1  16 6503.31 1037.31   3
   2   1 -16 9921.59 1280.59   9
   2  -1  16 8637.71 1214.89   1
  -2   1  16 6590.51 712.011   4
  -2  -1 -16 6272.54 328.140   5
  -2  -1 -16 7140.19 1047.48   9
   2   1 -16 7861.75 979.785   5
   2  -1  16 5816.84 480.822   3
  -2   1  16 5925.82 812.061   2
  -2   1  15 22313.1 1350.28   1
  -2  -1 -15 17654.2 1461.01   7
  -2   1  15 20084.4 1498.34   3
   2  -1  15 18645.7 830.476   3
   2  -1  15 19497.0 1090.89   6
   2  -1  15 22149.1 1694.14   1
  -2  -1 -15 18013.6 665.253   5
  -2   1  15 17084.8 1065.79   4
  -2   1  15 19025.7 1254.48   2
  -2  -1 -15 19598.2 1387.76   9
   2   1 -15 17857.9 1495.93   9
   2   1 -15 20322.5 1413.72   5
  -2   1  15 19106.8 933.160   8
  -2   1  14 48375.3 1572.79   8
   2  -1  14 47887.2 1739.37   6
  -2   1  14 46498.1 1906.61   1
   2   1 -14 49287.0 2326.25   9
  -2  -1 -14 44181.6 2195.00   7
   2   1 -14 40273.1 1154.93   6
  -2  -1 -14 44186.1 1213.06   5
  -2   1  14 47011.3 2224.95   3
   2   1 -14 45571.8 2089.65   5
  -2   1  14 45229.6 1680.12   4
  -2   1  14 49317.4 1936.86   2
  -2  -1 -14 47685.8 2089.69   9
   2  -1  14 45294.5 2279.96   1
  -2   1  13 25073.1 1593.79   3
  -2   1  13 27212.5 1154.15   8
   2   1 -13 28286.6 1683.88   9
   2   1 -13 24353.8 892.609   6
   2  -1  13 27362.5 1283.07   6
  -2   1  13 27190.1 1358.89   1
   2  -1  13 25522.2 1641.40   1
  -2  -1 -13 27191.4 908.668   5
  -2   1  13 24193.5 1137.63   4
  -2   1  13 24429.9 1337.02   2
  -2  -1 -13 28181.4 1511.64   9
  -2  -1 -13 26098.8 1612.62   7
   2   1 -13 26885.0 1545.54   5
  -2  -1 -12 26341.3 1598.45   7
  -2   1  12 29272.3 1681.61   3
  -2   1  12 24781.9 1262.35   1
   2  -1  12 27631.3 1659.67   1
   2  -1  12 28824.3 1304.98   6
   2   1 -12 26067.7 960.156   6
   2   1 -12 26758.4 1572.42   9
  -2  -1 -12 27261.8 1426.18   9
   2   1 -12 26321.9 1500.43   5
  -2  -1 -12 25551.7 906.642   5
   2   1 -12 25424.4 1256.96   1
  -2   1  12 24630.8 1080.29   4
  -2   1  12 23858.2 1282.53   2
  -2   1  12 27448.7 1154.65   8
  -2  -1 -11 115366. 3526.74   7
  -2   1  11 127835. 3722.74   3
  -2   1  11 124064. 2997.79   8
   2   1 -11 124454. 2757.91   6
  -2   1  11 120589. 3123.38   1
   2  -1  11 124057. 3714.92   1
   2   1 -11 122175. 3534.57   5
  -2  -1 -11 116686. 2653.21   5
   2   1 -11 123420. 3593.87   9
  -2   1  11 119874. 2805.75   4
  -2   1  11 122092. 3184.47   2
   2  -1  11 123401. 3169.55   6
   2   1 -11 121501. 3125.37   1
  -2  -1 -11 123058. 3321.87   9
  -2  -1 -10 75369.8 2595.24   7
   2  -1  10 74789.5 1896.83   3
  -2   1  10 80300.7 2738.52   3
   2   1 -10 74971.4 1972.73   6
   2  -1  10 76961.3 2308.78   6
  -2   1  10 77090.2 2208.81   1
   2  -1  10 76681.9 2679.91   1
   2   1 -10 79535.0 2603.52   5
  -2  -1 -10 74931.7 1893.01   5
   2   1 -10 73346.9 2148.13   1
   2   1 -10 78772.6 2602.43   9
  -2   1  10 73667.9 1869.79   4
   2   1 -10 75032.9 2163.44   8
  -2   1  10 73375.1 2246.52   2
  -2  -1 -10 81047.1 2372.42   9
  -2   1  10 74180.0 2148.90   8
  -2  -1  -9 120797. 3374.31   7
   2   1  -9 124955. 3380.85   9
   2  -1   9 121273. 2676.06   3
   2  -1   9 120910. 3303.07   9
   2  -1   9 127349. 3176.99   6
  -2   1   9 122593. 3548.65   3
   2   1  -9 122719. 3404.88   5
  -2  -1  -9 121396. 2708.61   5
   2   1  -9 121984. 2880.77   1
   2   1  -9 121116. 3033.10   4
  -2   1   9 116746. 3001.38   2
  -2   1   9 114161. 2524.92   4
   2  -1   9 126135. 3500.68   1
  -2  -1  -9 120326. 3060.79   9
   2   1  -9 120962. 3001.75   8
  -2   1   9 127134. 3026.77   8
  -2   1   8 1256.72 385.942   2
   2  -1   8 1467.50 426.244   6
   2   1  -8 871.202 243.943   1
   2  -1   8 738.485 241.861   3
   2   1  -8 1367.65 397.840   4
  -2   1   8 1966.70 554.652   3
  -2  -1  -8 1579.96 388.328   9
   2   1  -8 1970.52 585.532   5
  -2  -1  -8 950.558 240.676   5
   2  -1   8 937.542 512.816   1
  -2  -1  -8 747.942 553.215   7
   2   1  -8 773.532 448.271   9
   2  -1   8 1077.62 386.245   9
   2   1  -8 874.623 288.380   8
  -2  -1  -7 276185. 5985.29   7
   2   1  -7 290094. 6135.55   3
  -2   1   7 292471. 6259.76   3
   2   1  -7 283523. 5868.32   9
   2  -1   7 270846. 6040.01   7
  -2  -1  -7 285082. 5927.81   1
   2  -1   7 280889. 6063.83   1
   2   1  -7 283775. 6119.84   5
   2  -1   7 287151. 5882.68   6
   2   1  -7 277148. 5297.55   1
   2   1  -7 280348. 5635.92   4
  -2   1   7 272173. 5604.39   2
   2  -1   7 274929. 5014.90   5
   2  -1   7 273679. 5350.46   3
   2  -1   7 273151. 5833.90   9
  -2  -1  -7 289995. 5533.49   9
  -2  -1  -7 283994. 5455.10   5
   2   1  -7 273418. 5720.10   8
  -2  -1  -6 101413. 2815.20   7
   2   1  -6 105108. 2936.21   3
  -2  -1  -6 108192. 2408.32   9
  -2   1   6 104865. 3033.02   3
   2  -1   6 108125. 2815.25   6
  -2  -1  -6 109329. 2776.89   1
   2  -1   6 102074. 2717.37   9
   2  -1   6 101869. 2396.55   3
   2   1  -6 102448. 2680.09   9
   2  -1   6 105339. 2872.45   1
   2   1  -6 101541. 2939.94   5
  -2  -1  -6 104266. 2494.21   5
   2   1  -6 105315. 2240.67   1
  -2   1   6 103786. 2572.96   2
   2   1  -6 101814. 2549.19   4
   2   1  -6 100294. 2831.78   2
   2   1  -6 100394. 2793.02   7
   2  -1   6 107000. 2879.24   7
   2   1  -6 103882. 2706.03   8
   2   1  -5 88623.7 2458.89   7
   2  -1   5 92801.9 2543.71   7
   2   1  -5 92019.7 2651.57   3
  -2  -1  -5 94282.0 2544.92   7
  -2  -1  -5 90711.6 2281.30   5
   2  -1   5 94075.6 2558.69   6
   2   1  -5 91397.4 2473.39   8
  -2  -1  -5 92939.7 2399.85   1
   2   1  -5 93298.2 2683.45   5
   2   1  -5 96086.2 2370.87   9
   2  -1   5 90811.7 2534.87   1
  -2  -1  -5 92587.1 2035.58   9
  -2   1   5 91655.8 2302.05   2
   2   1  -5 86923.5 1874.72   1
   2   1  -5 92301.8 2262.79   4
  -2   1   5 88417.4 2677.80   3
   2   1  -5 87435.5 2486.25   2
   2  -1   5 86593.4 2368.14   9
   2  -1   5 87374.7 2171.79   3
  -2  -1  -4 73120.2 2104.08   7
  -2   1   4 68045.3 1890.93   2
   2  -1   4 73685.9 2081.25   7
   2  -1   4 70510.8 1858.37   3
  -2   1   4 75249.3 2306.00   3
   2  -1   4 70602.0 1957.17   9
   2   1  -4 71321.1 1865.26   9
   2   1  -4 70749.8 2221.15   3
   2  -1   4 69669.4 2138.50   6
   2   1  -4 72220.7 2232.66   5
  -2  -1  -4 71418.6 1948.17   5
   2  -1   4 69265.0 2057.29   1
   2   1  -4 70329.7 2073.57   2
  -2  -1  -4 71113.5 1541.27   9
   2   1  -4 66468.5 1802.74   4
   2   1  -4 69022.8 2011.09   7
   2   1  -4 68801.0 2067.87   8
  -2  -1  -4 69467.0 1904.83   1
   2  -1   3 7607.00 604.768   1
   2   1  -3 9229.76 631.422   7
  -2  -1  -3 7860.05 632.787   7
   2   1  -3 10061.7 546.987   9
   2  -1   3 9793.87 760.714   6
  -2   1   3 8667.10 753.944   3
  -2  -1  -3 8907.59 540.876   1
  -2  -1  -3 8416.11 604.269   5
   2   1  -3 9329.03 690.167   8
  -2   1   3 8564.66 586.228   2
   2   1  -3 9767.66 776.898   5
   2  -1   3 10132.2 635.651   7
   2   1  -3 9065.99 532.961   4
   2  -1   3 8715.35 572.930   9
   2  -1   3 8682.47 587.369   3
   2   1  -3 8690.62 625.074   2
   2   1  -3 9803.30 753.706   3
   2   1  -2 185523. 3596.92   9
  -2   1   2 185306. 4246.69   3
   2  -1   2 184949. 3963.31   3
   2   1  -2 179799. 3967.82   7
   2  -1   2 188261. 4207.78   6
  -2  -1  -2 190687. 3714.61   1
  -2  -1  -2 188773. 4060.66   5
   2   1  -2 187245. 4287.97   3
  -2  -1  -2 190776. 3990.84   2
  -2   1   2 190451. 3935.15   2
   2  -1   2 181760. 3929.77   1
   2   1  -2 188380. 4167.30   8
   2   1  -2 183681. 4019.16   2
   2   1  -2 188314. 3766.46   4
  -2   1   2 183325. 3492.19   7
   2   1  -2 187281. 4237.69   5
   2  -1   2 187516. 3872.83   7
  -2  -1  -2 186468. 4020.58   7
   2  -1   2 187962. 3829.02   9
  -2   1   1 526189. 9299.33   7
   2   1  -1 534805. 10143.1   3
   2  -1   1 525846. 9536.64   7
   2  -1   1 531424. 9838.20   3
  -2  -1  -1 529690. 9337.75   1
   2   1  -1 537002. 9198.82   9
   2   1  -1 538961. 9802.05   7
   2  -1   1 544385. 10065.5   6
  -2  -1  -1 540944. 9940.90   5
   2   1  -1 540865. 10073.3   5
  -2  -1  -1 538750. 9793.24   2
   2   1  -1 529370. 9997.38   8
   2  -1   1 513249. 9656.25   1
   2   1  -1 550207. 9589.08   4
   2  -1   1 538430. 9815.27   2
   2   1  -1 526156. 9814.79   2
  -2  -1  -1 543685. 9811.27   7
  -2   1   1 535108. 10027.7   3
  -2  -1   0 33103.3 1308.07   5
  -2  -1   0 31800.6 1186.63   7
   2   1   0 33141.2 1210.98   2
   2  -1   0 34832.0 1020.72   7
   2  -1   0 32795.9 1270.65   3
   2  -1   0 32969.2 1347.62   6
  -2   1   0 33701.1 1308.23   3
  -2  -1   0 34566.5 856.636   1
  -2   1   0 35165.2 1002.94   7
   2   1   0 33708.6 1330.54   5
   2  -1   0 31365.6 1180.79   2
   2   1   0 32458.8 1375.23   3
  -2  -1   0 31949.6 1205.24   2
   2  -1   0 30949.5 1078.54   1
  -2   1   0 33448.7 1066.72   1
   2   1   0 35686.5 1345.89   8
   2   1   0 30674.9 1175.61   7
   2   1   0 34374.3 1124.34   4
  -2  -1   1 541330. 9725.52   7
   2   1   1 524222. 10053.4   3
  -2   1  -1 532138. 9444.31   7
   2  -1  -1 542733. 9287.58   7
  -2   1  -1 530388. 9824.66   3
   2  -1  -1 534441. 9701.10   2
   2  -1  -1 529139. 9955.51   3
   2   1   1 527593. 9223.62   1
  -2   1  -1 506586. 9575.85   1
   2   1   1 527744. 9779.07   7
   2  -1  -1 534294. 10004.3   6
   2   1   1 516478. 9614.70   4
  -2  -1   1 528369. 9075.85   9
   2   1   1 550050. 9924.61   5
  -2  -1   1 542093. 9801.44   2
   2   1   1 537885. 9742.02   2
   2  -1  -1 516788. 9477.04   1
  -2  -1   1 539699. 9527.55   4
   2   1   1 529860. 9945.93   8
  -2  -1   2 197704. 4208.48   7
   2   1   2 199409. 4266.93   7
   2  -1  -2 200055. 3740.85   7
  -2   1  -2 202242. 4047.01   7
  -2   1  -2 202254. 4255.44   3
   2   1   2 208741. 4427.81   8
  -2  -1   2 198990. 3975.05   4
   2   1   2 201446. 3873.81   1
   2  -1  -2 205109. 4453.61   6
   2   1   2 202991. 4345.66   5
  -2  -1   2 200347. 4262.85   2
   2   1   2 203190. 4189.83   4
  -2   1  -2 193547. 4179.38   1
   2  -1  -2 198926. 4444.16   3
   2  -1  -2 197946. 4160.15   2
   2  -1  -2 199023. 3910.57   1
   2   1   2 197052. 4190.68   2
  -2  -1   2 196705. 3758.14   9
   2   1   3 12143.4 756.685   8
  -2   1  -3 11575.1 692.624   3
   2   1   3 10935.4 701.598   7
  -2  -1   3 11220.9 543.422   9
   2  -1  -3 10771.9 770.099   3
   2  -1  -3 10647.5 446.392   7
   2   1   3 11759.9 602.214   1
  -2   1  -3 10785.2 670.767   7
   2  -1  -3 10180.0 770.822   6
  -2  -1   3 10571.2 563.922   4
   2  -1  -3 11278.4 637.248   9
   2   1   3 11461.0 678.754   2
   2  -1  -3 10760.0 651.375   2
  -2  -1   3 10712.3 728.451   2
  -2   1  -3 11248.3 702.669   1
   2   1   3 11066.1 706.749   4
   2   1   3 10975.0 718.214   5
  -2  -1   3 11211.5 829.063   3
  -2   1  -4 96371.2 2466.95   7
   2   1   4 98029.3 2339.35   1
   2  -1  -4 97933.3 2603.55   6
   2  -1  -4 98018.9 2397.62   9
   2   1   4 100579. 2484.81   5
   2   1   4 96938.9 2561.26   7
   2   1   4 96287.0 2427.38   2
  -2  -1   4 94892.2 2700.74   3
  -2   1  -4 95835.8 2560.22   1
   2  -1  -4 96162.2 2376.37   2
  -2  -1   4 95434.4 2552.14   2
  -2  -1   4 89015.6 2178.14   4
   2   1   4 93236.9 1894.30   9
  -2  -1   4 93825.9 2250.87   9
   2  -1  -4 94080.5 1979.31   7
   2  -1  -4 95965.4 2725.04   3
   2   1   4 101547. 2601.70   8
  -2   1  -5 71107.3 2067.18   7
   2   1   5 67284.2 2089.34   7
   2  -1  -5 65111.0 2208.02   3
   2  -1  -5 65809.0 1647.57   1
  -2  -1   5 69692.3 2217.49   3
   2   1   5 70224.8 1930.81   1
   2  -1  -5 66757.8 2055.11   6
   2  -1  -5 67476.5 1565.82   7
   2   1   5 64774.4 1890.51   5
   2   1   5 65910.3 1911.33   2
  -2   1  -5 67127.5 2100.01   1
   2   1   5 64483.0 1533.63   9
  -2  -1   5 65461.7 2057.14   2
   2  -1  -5 65762.8 1862.76   2
  -2  -1   5 62028.5 1697.05   4
   2  -1  -5 71087.1 1986.33   9
  -2  -1   5 68078.3 1863.71   9
  -2  -1   5 66914.7 1428.66   1
  -2   1  -5 67172.5 1934.03   9
   2   1   5 68798.4 2040.26   8
   2  -1  -6 91299.4 2129.64   7
  -2  -1   6 96686.5 2752.28   3
   2   1   6 94497.1 2677.05   7
  -2   1  -6 93410.4 2538.45   9
   2  -1  -6 96885.7 2856.96   3
   2  -1  -6 96467.7 2218.36   1
  -2  -1   6 96717.6 2026.41   1
   2  -1  -6 94062.2 2586.85   6
  -2   1  -6 99213.0 2680.55   7
   2  -1  -6 96866.2 2552.77   9
   2   1   6 94396.5 2512.04   1
  -2   1  -6 98097.2 2729.33   1
  -2  -1   6 92669.8 2465.99   9
  -2  -1   6 94357.2 2670.35   2
   2  -1  -6 89930.0 2390.84   2
  -2  -1   6 90597.7 2269.61   4
   2   1   6 92372.6 2138.88   9
   2   1   6 100286. 2582.32   8
  -2  -1   7 290661. 6334.57   3
  -2   1  -7 297409. 6335.16   7
   2   1   7 291914. 5682.28   9
   2   1   7 303441. 6172.52   1
  -2  -1   7 298834. 5549.36   1
  -2  -1   7 296579. 6107.20   9
   2  -1  -7 298971. 6131.98   6
  -2   1  -7 293322. 6381.50   1
  -2   1  -7 293020. 6014.97   8
   2  -1  -7 297005. 5727.56   1
  -2  -1   7 291597. 6293.78   2
   2  -1  -7 287391. 5965.05   2
  -2  -1   7 299864. 5848.67   4
  -2   1  -7 300013. 6207.70   9
   2   1   7 307834. 6090.58   8
   2  -1  -7 313778. 6218.85   9
  -2   1  -8 5963.18 712.171   7
   2  -1  -8 6369.57 595.216   2
   2   1   8 6589.61 584.516   8
  -2  -1   8 5841.57 476.267   1
   2  -1  -8 6356.61 507.967   1
   2  -1  -8 6799.93 643.566   6
  -2  -1   8 6464.60 755.493   3
   2   1   8 6673.03 699.940   1
  -2  -1   8 7031.27 585.226   4
  -2  -1   8 8325.25 791.909   2
  -2   1  -8 5610.12 663.790   9
   2  -1  -8 5505.37 685.399   9
  -2   1  -8 7352.49 634.507   8
  -2  -1   8 7150.73 643.613   9
   2   1   8 6671.94 524.277   9
  -2  -1   9 130456. 3519.07   3
  -2   1  -9 131641. 3639.43   7
   2  -1  -9 136915. 3513.82   9
   2   1   9 130345. 3176.87   8
  -2  -1   9 128205. 2954.08   1
   2  -1  -9 131791. 3097.20   1
  -2   1  -9 133955. 3551.95   9
   2   1   9 127379. 3097.42   9
   2   1   9 135478. 3492.70   1
  -2  -1   9 126871. 3536.36   2
  -2  -1   9 124365. 3150.03   4
   2  -1  -9 120647. 3247.46   2
  -2   1  -9 129551. 3134.58   8
   2  -1  -9 126362. 3258.37   6
  -2  -1  10 94004.8 2826.69   3
  -2   1 -10 90448.1 2857.45   9
   2   1  10 88013.5 2816.28   1
  -2  -1  10 89763.9 2361.23   1
  -2  -1  10 83049.2 2492.16   4
   2  -1 -10 91953.1 2491.19   1
   2  -1 -10 86498.8 2531.71   6
  -2   1 -10 90918.2 2424.38   8
  -2   1 -10 89330.2 2952.14   7
   2   1  10 87198.8 2480.06   9
  -2  -1  10 87017.8 2867.49   2
   2  -1 -10 84083.0 2608.61   2
   2  -1 -10 92190.5 2844.61   9
   2   1  10 91807.3 2442.89   8
  -2  -1  11 119635. 3352.79   3
   2  -1 -11 116300. 3404.54   9
   2   1  11 105759. 3292.42   1
  -2  -1  11 113462. 2901.75   1
   2  -1 -11 113962. 3014.40   1
   2   1  11 106654. 2991.26   9
  -2  -1  11 106894. 3384.66   2
  -2   1 -11 111820. 3517.53   7
  -2   1 -11 117616. 3464.48   9
   2   1  11 113418. 2851.55   8
  -2  -1  11 110942. 3077.44   4
  -2   1 -11 114809. 2848.71   8
  -2  -1  12 27117.3 1270.31   1
   2   1  12 25191.5 1505.84   1
   2   1  12 25084.1 1123.09   8
  -2   1 -12 26592.5 1563.12   9
   2  -1 -12 28106.2 1612.85   9
  -2  -1  12 23747.5 1291.40   4
  -2  -1  12 24517.4 1526.51   2
  -2   1 -12 27178.1 1663.23   7
  -2  -1  12 25554.9 1451.96   3
  -2   1 -12 25251.6 1108.50   8
  -2  -1  13 24234.2 1591.99   2
  -2   1 -13 25860.9 1756.19   7
  -2  -1  13 28679.3 1532.47   3
   2   1  13 24917.9 1557.38   1
  -2  -1  13 26127.5 1302.89   1
  -2   1 -13 23880.1 1070.51   8
   2  -1 -13 28363.3 1659.26   9
  -2  -1  13 24968.9 1379.80   4
  -2   1 -13 27836.8 1650.52   9
   2   1  14 43009.8 2106.69   1
  -2   1 -14 40776.7 2098.38   9
  -2   1 -14 42585.6 2271.90   7
  -2  -1  14 41282.2 1913.23   3
   2  -1 -14 43484.9 2157.86   9
  -2  -1  14 42891.7 1772.24   1
  -2  -1  14 40331.8 2119.13   2
   2  -1 -14 39571.6 1791.95   7
  -2  -1  15 22733.9 1413.39   3
   2  -1 -15 18697.1 1280.45   7
  -2   1 -15 20709.7 1616.37   9
   2   1  15 20487.2 1515.30   1
   2  -1 -15 20006.0 1562.43   9
  -2  -1  15 19141.3 1520.82   2
  -2   1 -15 18965.5 1572.08   7
  -2  -1  15 22021.8 1320.98   1
   2   1  16 6970.79 1040.50   1
  -2  -1  16 6785.38 940.609   3
   2  -1 -16 4996.12 779.958   7
  -2  -1  16 6087.35 817.536   1
   2  -1 -16 5884.80 1013.99   9
  -2   1 -16 5743.83 1023.81   9
  -2  -1  16 5150.53 949.174   2
  -2   1 -16 7292.05 1213.87   7
  -2   1 -17 57029.6 2859.60   7
  -2  -1  17 59444.3 2450.73   3
   2  -1 -17 55735.4 2399.12   7
  -2  -1  17 56297.6 2370.18   1
  -2   1 -17 58151.3 2767.79   9
  -2  -1  17 54621.0 2675.56   2
   2  -1 -17 58884.0 2773.13   9
   2   1  17 56011.3 2693.44   1
  -2  -1  18 9939.48 1233.36   2
   2   1  18 11492.9 1364.94   1
  -2  -1  18 10018.1 1085.93   1
  -2  -1  18 10122.0 1092.60   3
   2  -1 -18 10028.2 1402.96   9
   2  -1 -18 8436.57 1031.35   7
  -2   1 -18 9885.75 1312.84   9
  -2   1 -18 10518.6 1493.82   7
  -2  -1  19 27261.3 1716.53   3
   2  -1 -19 26482.9 1747.62   7
   2   1  19 26003.4 1981.51   1
  -2   1 -19 27020.4 2071.05   7
  -2   1 -19 27438.8 2034.29   9
  -2  -1  19 27026.3 1725.09   1
  -2  -1  19 24362.7 1897.59   2
   2  -1 -19 27626.9 2141.83   9
  -2  -1  20 26812.9 1726.47   3
  -2   1 -20 29102.1 2290.08   7
   2  -1 -20 25321.3 1753.22   7
   2   1  20 27009.9 1603.23   3
  -2  -1  20 25070.8 1745.37   1
   2   1  20 24355.5 1952.72   1
  -2  -1  20 22323.7 1913.02   2
   2  -1 -20 26379.3 2087.16   9
  -2   1 -20 23734.6 1989.23   9
   2   1  21 1086.59 909.622   1
   2  -1 -21 1643.23 1105.33   9
  -2   1 -21 1865.19 1140.53   7
  -2  -1  21 1559.39 727.110   3
  -2  -1  21 1531.17 831.492   1
   2   1  21 1007.25 589.844   3
   2  -1 -21 921.826 700.006   7
  -2   1 -21 926.889 988.910   9
  -2  -1  21 1008.35 780.841   2
   2  -1 -22 2861.09 1030.97   9
  -2  -1  22 1124.36 822.324   1
   2   1  22 3474.15 1264.14   1
  -2  -1  22 3813.96 1180.41   2
  -2   1 -22 2410.31 1081.39   7
   2  -1 -22 1213.42 775.353   7
  -2  -1  22 2944.45 771.453   3
   2   1  22 2795.65 685.674   3
  -2   1 -22 2641.34 1047.31   9
  -2  -1  23 7649.80 1252.30   1
  -2   1 -23 5488.66 1287.22   7
  -2  -1  23 7392.94 1066.15   3
   2  -1 -23 6064.23 1084.91   7
  -2   1 -23 6886.17 1449.61   9
   2   1  23 7783.68 1400.81   1
   2  -1 -23 8162.05 1552.03   9
  -2  -1  23 7953.85 1320.00   2
  -2  -1  24 991.959 855.026   1
   2   1  24 654.768 1080.29   1
  -2   1 -24-882.465 1215.64   7
   2  -1 -24 67.3238 819.117   7
   2  -1 -24 803.131 791.954   5
   2  -1 -24 1373.34 988.615   9
  -2   1 -24 1198.08 1093.47   9
  -2  -1  24 1171.74 1002.35   2
  -2  -1  25 7556.57 1273.88   1
   2   1  25 5100.93 1438.16   1
  -2   1 -25 8182.20 1657.44   7
   2  -1 -25 6205.44 1067.08   5
   2  -1 -25 8014.71 1291.27   7
   2  -1 -25 5292.27 1572.43   9
  -2   1 -25 6184.29 1519.14   9
  -2  -1  25 5929.14 1322.93   2
  -2   1 -26 5506.88 1614.18   7
   2  -1 -26 4583.39 1216.88   7
  -2   1 -26 1138.12 1234.34   9
   2  -1 -26 3798.83 1294.68   9
  -2  -1  26 3772.51 1091.46   1
   2   1  26 2939.40 1289.23   1
  -2  -1  26 1053.48 934.016   2
   2   1  27 1167.04 1288.61   1
  -2   1 -27 1760.90 1399.27   7
  -2  -1  27 3090.78 1116.78   2
  -2   1 -27 3210.08 1334.03   9
   2  -1 -27 1269.65 1330.09   9
  -2  -1  27 565.552 930.983   1
  -2   1 -28 619.615 1060.62   9
  -2  -1  28 1269.37 1012.81   1
  -2  -1  28 2116.57 1125.37   2
  -2  -1  29 2654.82 1158.48   2
  -2  -1  29 2029.71 1082.58   1
  -2  -2 -28-1005.26 1331.90   7
   2   2 -28 2127.80 1224.49   7
   2  -2  27 2273.41 1358.47   1
   2   2 -27 1480.81 1099.62   7
  -2   2  27 1567.92 979.091   3
  -2  -2 -27 1801.90 1229.63   7
   2   2 -27 2174.00 1291.78   9
  -2  -2 -27 315.847 1031.10   9
   2   2 -26 14.7894 1073.63   7
  -2   2  26 1145.20 1047.79   3
  -2  -2 -26 1145.23 1094.20   7
  -2  -2 -26 2417.10 1273.16   9
   2   2 -26 3106.31 1243.55   9
   2  -2  26 5331.36 1486.58   1
  -2  -2 -25 3257.34 1249.92   7
   2   2 -25 3033.16 1098.35   7
   2  -2  25 4588.07 1599.71   1
  -2   2  25 3032.09 1006.52   3
  -2  -2 -25 3716.73 1353.52   9
   2   2 -25 2590.05 1325.07   9
  -2  -2 -24 3259.11 1157.11   7
  -2  -2 -24 4205.53 1208.42   9
   2   2 -24 2922.41 1389.87   9
  -2   2  24 1591.85 954.357   3
   2  -2  24 2913.48 1198.17   1
   2   2 -24 2920.15 1211.85   7
  -2  -2 -23 992.057 937.687   7
  -2   2  23 1142.90 979.467   3
   2  -2  23 1424.05 1251.27   1
   2   2 -23-575.839 1273.36   9
   2   2 -23 1201.90 673.885   5
  -2  -2 -23 1967.07 1034.37   9
  -2  -2 -22-118.573 935.220   9
  -2   2  22 2233.54 711.724   2
  -2   2  22 2021.72 938.686   3
   2  -2  22 1569.72 1117.94   1
  -2  -2 -22-5.44876 1004.36   7
   2   2 -22 2673.23 842.274   5
  -2   2  22 1499.73 829.865   1
   2   2 -22 1884.78 1041.11   9
  -2   2  21 4591.61 707.884   4
  -2  -2 -21 5626.60 1275.81   7
  -2   2  21 5383.63 1150.56   3
  -2  -2 -21 5977.27 1146.84   9
   2   2 -21 4635.44 958.107   5
  -2   2  21 3831.80 1002.10   1
   2  -2  21 5468.41 1211.72   1
   2   2 -21 5405.61 1186.37   9
  -2   2  21 4039.01 757.883   2
   2   2 -20 6827.57 1362.82   9
  -2   2  20 7902.91 1256.05   3
   2  -2  20 5746.17 1253.21   1
  -2  -2 -20 6517.09 1176.16   9
  -2  -2 -20 6661.07 1252.12   7
   2   2 -20 6968.03 1036.95   5
  -2   2  20 5988.34 743.090   4
  -2   2  20 6365.97 1068.47   1
  -2   2  20 7090.50 898.521   2
  -2   2  19 7651.43 781.343   4
  -2  -2 -19 6834.04 1227.70   7
  -2   2  19 8918.83 1279.73   3
  -2   2  19 7736.00 883.964   2
   2  -2  19 7975.54 1405.05   1
   2   2 -19 7061.63 1203.86   9
   2  -2  19 6816.46 665.282   6
   2   2 -19 6333.43 997.252   5
  -2  -2 -19 8505.29 1189.91   9
  -2   2  19 7642.94 1096.81   1
  -2   2  18 10371.8 711.056   8
  -2  -2 -18 11288.4 1239.45   9
  -2   2  18 8242.28 793.418   4
   2   2 -18 10315.4 1151.01   5
  -2  -2 -18 9240.38 1328.85   7
  -2   2  18 7271.09 1204.81   3
   2  -2  18 9512.44 786.457   6
   2  -2  18 9497.02 1413.23   1
  -2   2  18 9216.91 913.547   2
   2   2 -18 8828.30 1369.38   9
  -2   2  17 8741.89 775.694   4
  -2  -2 -17 9020.28 1098.62   9
  -2  -2 -17 9323.75 1242.97   7
   2   2 -17 8182.04 1192.21   9
  -2   2  17 8381.80 1213.00   3
   2   2 -17 7030.13 993.136   5
   2  -2  17 8408.82 761.956   6
   2  -2  17 7840.08 1281.57   1
  -2   2  17 8526.10 679.997   8
  -2   2  17 7828.49 829.731   2
  -2   2  16 6611.09 644.002   4
   2   2 -16 4746.87 1039.76   9
  -2   2  16 5714.75 1042.14   3
  -2  -2 -16 6723.47 641.743   5
   2  -2  16 6866.98 709.914   6
  -2  -2 -16 6966.05 1021.59   7
  -2   2  16 5433.32 700.999   2
  -2  -2 -16 6215.81 915.708   9
   2  -2  16 7175.63 1165.43   1
   2   2 -16 6974.13 957.374   5
  -2   2  16 5766.43 608.145   8
  -2   2  15 61791.5 2058.09   6
   2  -2  15 66911.3 2958.78   1
  -2  -2 -15 64845.0 2752.87   7
   2   2 -15 64583.1 2593.59   5
  -2  -2 -15 57793.0 1994.36   5
   2   2 -15 64719.3 2853.92   9
  -2   2  15 62483.9 2157.59   2
  -2   2  15 69397.2 2933.18   3
  -2  -2 -15 65119.4 2542.07   9
  -2   2  15 65943.3 1952.75   4
   2  -2  15 65052.4 2187.95   6
  -2   2  15 65366.7 2027.36   8
  -2   2  14 12780.5 744.530   4
  -2  -2 -14 12809.2 1246.22   7
  -2   2  14 12498.9 875.705   6
   2   2 -14 12016.0 563.273   6
   2  -2  14 13067.3 936.293   6
  -2   2  14 12934.9 1292.21   3
  -2  -2 -14 11902.8 848.380   5
  -2   2  14 13612.0 925.398   2
   2  -2  14 12512.7 1369.38   1
   2   2 -14 12378.9 1274.74   9
  -2  -2 -14 16088.0 1209.67   9
   2   2 -14 12309.0 1144.19   5
   2   2 -14 13444.4 846.197   8
   2   2 -13 57181.4 2493.24   9
  -2   2  13 55498.5 2513.11   3
  -2   2  13 55688.4 1604.87   4
  -2   2  13 53217.3 1882.17   6
   2  -2  13 54763.9 1976.37   6
   2  -2  13 57434.2 2584.95   1
  -2  -2 -13 49139.0 1808.29   5
  -2  -2 -13 52626.6 2322.36   7
   2   2 -13 54164.9 2306.02   5
  -2   2  13 54085.6 1856.25   2
  -2  -2 -13 55310.8 2143.04   9
   2   2 -13 50220.1 1772.89   8
  -2   2  12 51342.7 1848.29   6
  -2  -2 -12 54481.9 2254.56   7
  -2   2  12 52863.8 2409.05   3
   2  -2  12 52366.8 1910.71   6
   2   2 -12 51684.9 2302.02   9
   2  -2  12 49669.1 2334.84   1
   2   2 -12 53354.6 2213.76   5
  -2  -2 -12 51835.8 1822.23   5
   2   2 -12 46940.5 1875.50   1
  -2   2  12 50341.5 1733.62   2
   2   2 -12 51066.4 1782.93   8
  -2  -2 -12 52295.6 2003.81   9
  -2   2  12 50981.3 1458.10   4
  -2  -2 -11 22764.5 1212.32   9
  -2  -2 -11 24752.3 1467.95   7
   2  -2  11 21945.8 1223.38   6
  -2   2  11 22798.3 1577.96   3
   2  -2  11 19863.6 1498.60   1
  -2  -2 -11 23457.2 1163.29   5
   2   2 -11 22283.7 1164.17   1
  -2   2  11 20861.6 1036.19   2
   2   2 -11 21646.2 1302.92   4
   2   2 -11 21556.3 1113.63   8
   2   2 -11 24237.8 1500.72   9
   2   2 -11 23749.8 1432.96   5
  -2   2  11 22032.3 815.413   4
  -2   2  11 22210.5 1168.65   6
   2   2 -10 1284.27 380.657   8
   2   2 -10 528.394 552.832   9
  -2   2  10 1220.48 351.084   2
  -2   2  10 1253.20 395.156   6
  -2   2  10 1655.22 678.091   3
   2  -2  10 1063.87 576.864   1
  -2   2  10 916.951 207.370   4
   2   2 -10 775.639 581.721   5
   2   2 -10 1220.59 344.781   1
  -2  -2 -10 515.660 313.427   5
   2   2 -10 1118.59 495.064   4
   2  -2  10 1263.54 477.455   6
  -2  -2 -10 1156.35 584.753   7
  -2  -2 -10 1282.28 415.155   9
  -2   2   9 363489. 7943.76   3
  -2  -2  -9 358912. 7551.04   7
  -2   2   9 355189. 7334.92   6
   2  -2   9 360033. 7836.93   1
   2   2  -9 352979. 7664.48   5
  -2  -2  -9 362359. 7234.56   5
   2   2  -9 359114. 7593.59   9
  -2   2   9 356947. 6893.73   2
   2   2  -9 364680. 7482.04   4
   2   2  -9 347417. 7029.87   1
  -2   2   9 350416. 6323.33   4
   2   2  -9 348217. 7174.51   8
  -2  -2  -9 362481. 7053.38   9
   2  -2   9 361733. 7338.62   6
   2   2  -8 2317.99 456.478   8
   2   2  -8 3225.39 711.002   5
   2   2  -8 1870.93 360.113   1
  -2   2   8 1509.39 345.329   2
  -2  -2  -8 2005.67 628.589   7
  -2   2   8 2067.18 450.252   6
  -2   2   8 1537.17 543.834   3
   2  -2   8 1896.39 217.726   3
   2  -2   8 1945.91 527.618   6
   2  -2   8 1827.39 592.737   1
  -2  -2  -8 1844.04 445.159   5
  -2   2   8 1795.52 180.945   4
  -2  -2  -8 2271.37 402.597   9
   2   2  -8 2094.49 511.258   4
   2   2  -8 2671.81 620.021   9
  -2  -2  -7 191066. 4485.72   7
   2   2  -7 188082. 4510.21   3
  -2   2   7 190370. 4790.48   3
   2  -2   7 185595. 4400.83   6
   2  -2   7 183894. 4538.01   9
   2   2  -7 195611. 4661.69   5
   2  -2   7 192505. 4671.04   1
  -2  -2  -7 185572. 4308.45   5
   2   2  -7 189431. 4415.13   9
   2  -2   7 184024. 3599.07   3
  -2   2   7 188340. 3930.30   2
  -2  -2  -7 190810. 3904.14   9
   2   2  -7 187818. 4401.48   4
  -2   2   7 176642. 3362.86   4
   2   2  -7 187955. 3939.74   1
  -2   2   7 191285. 4440.57   6
   2  -2   6 86851.5 2647.71   9
  -2  -2  -6 90567.1 2620.69   7
   2   2  -6 84427.2 2629.37   3
   2   2  -6 81582.7 2072.14   1
  -2   2   6 90022.1 2874.41   3
   2  -2   6 86142.5 2007.42   3
   2   2  -6 91094.0 2526.88   9
  -2   2   6 84676.1 2599.73   6
   2  -2   6 87962.7 2615.88   6
  -2  -2  -6 90738.8 2560.55   5
   2  -2   6 87801.8 2739.41   1
  -2   2   6 88385.7 2196.74   2
   2   2  -6 88143.9 2537.43   4
   2   2  -6 88536.3 2764.12   5
  -2  -2  -6 87621.6 2456.97   1
  -2  -2  -6 84393.7 2067.74   9
  -2  -2  -5 10871.1 857.604   7
   2   2  -5 9964.14 817.953   3
   2   2  -5 8409.98 745.751   7
   2  -2   5 9378.01 541.804   3
   2  -2   5 7805.00 775.234   1
  -2   2   5 9762.15 791.517   6
  -2   2   5 9013.83 897.919   3
  -2  -2  -5 8508.38 701.532   5
  -2   2   5 8942.67 611.369   2
   2   2  -5 9568.07 867.917   5
   2  -2   5 8819.31 785.293   4
  -2  -2  -5 9370.08 488.506   9
   2   2  -5 9609.32 708.777   9
   2  -2   5 10119.3 845.721   6
   2   2  -5 9072.87 502.331   1
   2  -2   5 10883.5 796.435   9
   2   2  -5 10092.1 758.190   4
  -2  -2  -5 9082.53 675.974   1
  -2  -2  -4 76923.0 2282.91   7
   2   2  -4 75589.8 2381.23   3
   2  -2   4 75190.6 1922.25   3
  -2  -2  -4 74811.6 2053.76   1
  -2   2   4 74044.8 2355.37   6
   2  -2   4 76303.1 2380.66   6
   2   2  -4 73387.0 2429.83   5
  -2  -2  -4 72683.1 2265.09   5
   2  -2   4 77237.7 2361.06   1
   2   2  -4 73905.3 2074.41   9
   2  -2   4 73461.6 2290.10   4
   2   2  -4 76118.1 2166.41   4
   2   2  -4 71221.6 2241.01   2
  -2  -2  -4 74609.6 1653.12   9
   2  -2   4 72279.6 2240.24   9
  -2   2   4 73334.6 2450.07   3
   2   2  -4 73349.6 2291.76   7
  -2   2   3 149809. 3780.40   6
   2   2  -3 147297. 3298.75   9
   2  -2   3 151691. 3616.90   4
  -2   2   3 158345. 3868.16   3
  -2  -2  -3 150394. 2842.91   9
   2  -2   3 147312. 3308.98   3
   2  -2   3 152392. 3772.75   6
   2   2  -3 146223. 3576.23   2
  -2  -2  -3 148981. 3692.07   5
   2   2  -3 155469. 3878.82   5
  -2  -2  -3 147114. 3374.43   2
   2  -2   3 150838. 3689.99   1
   2   2  -3 155083. 3487.90   4
  -2  -2  -3 155492. 3631.17   7
   2   2  -3 148971. 3795.19   3
   2   2  -3 147476. 3630.11   7
   2  -2   3 153132. 3589.69   9
  -2  -2  -3 150067. 3292.29   1
  -2  -2  -2 63070.5 1672.37   1
   2   2  -2 62066.8 2128.28   3
  -2   2   2 61698.4 2086.78   3
   2  -2   2 63005.1 1815.90   3
  -2  -2  -2 63183.0 1830.92   2
   2  -2   2 65511.8 2150.54   6
  -2  -2  -2 61111.0 1890.69   4
   2   2  -2 62425.4 1636.97   9
  -2  -2  -2 61853.3 2055.37   5
   2   2  -2 63948.6 2191.18   5
  -2  -2  -2 64626.3 1994.54   7
   2  -2   2 61726.6 1897.65   4
   2  -2   2 62371.2 2007.25   1
   2   2  -2 56786.5 1869.15   2
   2   2  -2 62585.6 1856.37   4
  -2   2   2 65588.5 2164.44   6
   2   2  -2 61600.6 1977.16   7
   2   2  -1 57954.1 1856.09   7
  -2   2   1 57405.8 1263.98   7
  -2   2   1 56189.5 1916.58   3
  -2  -2  -1 56756.6 1486.83   1
   2  -2   1 57626.3 2008.88   6
  -2   2   1 59992.4 2032.14   6
  -2  -2  -1 59001.4 1988.70   5
   2   2  -1 59982.5 2067.03   5
  -2  -2  -1 56165.8 1835.86   7
  -2  -2  -1 59136.9 1791.96   4
  -2  -2  -1 57694.8 1739.68   2
   2  -2   1 53432.5 1701.60   4
   2   2  -1 53442.6 1739.97   2
   2  -2   1 55853.0 1840.96   1
   2   2  -1 59278.6 1770.69   4
   2  -2   1 58960.7 1799.84   3
  -2  -2  -1 56338.7 1310.75   9
   2   2   0 128928. 3132.21   7
  -2   2   0 127232. 2549.94   7
  -2   2   0 123290. 3134.24   3
   2  -2   0 126274. 3112.58   3
  -2   2   0 119512. 3268.72   6
   2  -2   0 130512. 3375.85   6
  -2  -2   0 129929. 3338.12   5
  -2  -2   0 123468. 3090.43   7
  -2  -2   0 127306. 3017.95   2
   2  -2   0 122263. 2867.52   4
   2   2   0 116387. 2951.10   2
   2  -2   0 128083. 3078.91   1
   2   2   0 126591. 3016.96   4
   2   2   0 126974. 3361.42   5
  -2  -2   0 123934. 2532.75   9
  -2  -2   0 126267. 2613.46   1
  -2  -2   0 126124. 3009.51   4
  -2   2  -1 66448.1 1634.31   7
  -2  -2   1 63133.6 2001.61   7
   2   2   1 63428.7 1962.35   7
  -2   2  -1 65147.4 2149.25   6
   2  -2  -1 65094.2 2175.20   6
   2  -2  -1 64752.4 1890.36   1
  -2  -2   1 66077.4 2162.62   5
   2   2   1 65742.2 2178.73   5
   2  -2  -1 63720.9 1817.12   2
   2   2   1 65442.7 1927.92   4
  -2  -2   1 64421.6 1928.23   2
   2  -2  -1 61518.0 1672.17   4
   2  -2  -1 66204.7 2057.96   3
   2   2   1 64726.5 1854.04   2
  -2  -2   1 61880.8 1493.02   1
  -2  -2   1 66485.8 1890.12   4
  -2  -2   1 64353.1 1564.48   9
  -2   2  -1 61151.5 1927.37   3
  -2   2  -1 62625.1 1898.70   1
  -2  -2   2 51021.4 1763.77   7
   2   2   2 51302.5 1729.51   7
  -2   2  -2 50555.4 1483.77   7
  -2   2  -2 51923.1 1640.27   3
   2  -2  -2 48782.1 1774.40   3
  -2   2  -2 49392.2 1830.66   6
   2  -2  -2 51771.1 1903.07   6
  -2  -2   2 51059.5 1415.12   9
   2   2   2 51842.6 1689.55   4
  -2  -2   2 53416.4 1927.87   5
   2   2   2 51282.7 1882.18   5
   2  -2  -2 49260.4 1517.89   2
   2   2   2 50976.4 1589.78   2
  -2  -2   2 49088.3 1683.96   2
   2  -2  -2 50425.6 1309.85   4
  -2  -2   2 49988.5 1268.62   1
  -2  -2   2 48471.9 1577.42   4
  -2   2  -2 50707.9 1705.64   1
   2  -2  -2 47072.8 1576.80   1
  -2   2  -3 120460. 2859.21   7
   2  -2  -3 118784. 3223.64   3
   2   2   3 119428. 2747.83   1
  -2   2  -3 119356. 3212.58   6
   2  -2  -3 125868. 3319.43   6
  -2  -2   3 121494. 3299.16   5
   2   2   3 124728. 3240.04   5
   2  -2  -3 118695. 2790.76   2
   2   2   3 116099. 2842.07   2
  -2  -2   3 122083. 3075.46   2
  -2  -2   3 121018. 2519.48   1
   2  -2  -3 121407. 2381.51   4
  -2  -2   3 119924. 2917.57   4
   2   2   3 122809. 3054.40   4
  -2   2  -3 118047. 2829.39   3
  -2   2  -3 119191. 3125.93   1
   2   2   3 122708. 3104.32   7
  -2  -2   3 119794. 2747.68   9
   2   2   4 81472.7 2407.29   7
  -2   2  -4 81207.5 2076.55   3
   2  -2  -4 77799.7 1588.97   4
   2   2   4 81028.2 2367.60   4
   2  -2  -4 80520.2 2524.38   3
   2  -2  -4 82015.6 2542.83   6
  -2   2  -4 82362.0 2487.47   6
   2   2   4 81681.3 2133.79   1
  -2  -2   4 79766.9 2146.90   9
  -2  -2   4 81834.3 1874.87   1
   2   2   4 79823.6 2142.19   2
   2  -2  -4 79389.2 2072.87   2
  -2  -2   4 82519.9 2429.66   2
  -2   2  -4 83625.1 2279.58   7
  -2   2  -4 81181.2 2475.36   1
  -2  -2   4 78494.3 2204.11   4
  -2  -2   4 81032.8 2556.93   5
  -2   2  -5 11396.2 623.821   3
   2  -2  -5 10894.6 904.149   6
  -2  -2   5 10380.1 854.544   2
   2   2   5 11078.7 738.297   1
  -2  -2   5 10542.8 567.433   1
   2   2   5 11109.3 682.097   2
   2  -2  -5 10232.1 629.195   2
  -2   2  -5 10701.2 833.594   1
  -2   2  -5 11741.2 836.474   7
  -2  -2   5 10641.7 713.440   4
  -2  -2   5 12952.1 764.923   9
   2   2   5 10160.7 829.708   4
  -2   2  -6 100457. 2812.46   7
   2  -2  -6 98590.2 2692.72   9
   2  -2  -6 99662.1 2452.04   1
  -2  -2   6 94895.9 2613.93   9
   2   2   6 100582. 2607.71   1
   2  -2  -6 95726.0 2884.60   6
   2   2   6 96342.9 2452.18   2
  -2  -2   6 95137.4 2254.89   1
   2  -2  -6 89054.2 2321.71   2
  -2  -2   6 96187.3 2845.99   2
  -2  -2   6 91199.4 2554.72   4
   2   2   6 100523. 2792.56   4
   2  -2  -6 93916.9 1796.91   7
   2  -2  -6 91625.2 1787.08   7
   2  -2  -7 199097. 3677.37   7
  -2   2  -7 198224. 4736.20   7
   2  -2  -7 205745. 4657.35   9
   2   2   7 208734. 4552.47   1
   2   2   7 204802. 4710.07   4
  -2  -2   7 195444. 4093.58   1
   2   2   7 194940. 4258.88   2
   2  -2  -7 197349. 4290.04   1
   2  -2  -7 194935. 4174.77   2
  -2  -2   7 198092. 4812.34   2
  -2   2  -7 202097. 4749.64   9
  -2  -2   7 192521. 4549.47   9
   2  -2  -7 196269. 4772.11   6
  -2  -2   7 193402. 4492.73   4
   2  -2  -8 1823.33 350.158   1
   2   2   8 2600.18 649.666   4
  -2   2  -8 2028.99 576.473   7
   2  -2  -8 2589.83 286.647   7
   2  -2  -8 1908.98 602.155   6
   2   2   8 2644.80 409.402   2
  -2  -2   8 2181.01 419.268   4
   2  -2  -8 2110.34 359.719   2
   2   2   8 1817.28 518.876   1
  -2  -2   8 2188.03 378.534   1
   2  -2  -8 2071.84 547.343   9
  -2   2  -8 2493.47 583.871   9
  -2  -2   8 2306.17 602.184   2
  -2  -2   9 337175. 7103.11   3
  -2   2  -9 325310. 7314.80   7
   2   2   9 331897. 7017.03   1
   2  -2  -9 344098. 6750.98   1
   2   2   9 318976. 6581.91   2
  -2  -2   9 339091. 7425.67   2
  -2  -2   9 322900. 6972.34   4
  -2  -2   9 337610. 6570.80   1
   2  -2  -9 320561. 6589.42   2
   2  -2  -9 343621. 7167.56   9
  -2   2  -9 334505. 7303.78   9
   2  -2  -9 330483. 6170.57   7
  -2  -2  10 333.378 535.794   2
   2   2  10 661.498 485.762   1
   2  -2 -10 869.160 322.337   2
   2  -2 -10 311.055 275.860   7
  -2   2 -10 821.430 632.653   7
  -2  -2  10 418.028 451.835   3
  -2  -2  10 901.082 363.944   1
   2  -2 -10 462.723 577.879   9
   2   2  10 1336.79 342.672   9
  -2  -2  10 963.384 396.606   4
  -2   2 -10 604.112 521.688   9
   2   2  10 656.957 367.258   8
  -2   2 -11 26580.8 1634.00   7
  -2  -2  11 25540.7 1416.08   3
  -2   2 -11 23922.9 1529.47   9
   2   2  11 23757.6 1431.40   1
  -2  -2  11 26292.8 1242.07   1
   2  -2 -11 26289.5 1531.70   9
  -2  -2  11 20726.5 1490.08   2
   2  -2 -11 24743.9 1046.41   7
   2   2  11 22360.3 1158.81   8
  -2  -2  12 51987.2 2095.06   3
   2  -2 -12 53486.0 1731.59   7
  -2   2 -12 56979.5 2526.20   7
  -2   2 -12 50247.0 2316.68   9
   2   2  12 52785.1 2230.61   1
  -2  -2  12 52090.0 1921.36   1
  -2  -2  12 48850.0 2357.57   2
   2   2  12 50730.1 1823.66   8
   2  -2 -12 55445.8 2311.83   9
  -2  -2  13 55986.1 2169.65   3
   2  -2 -13 50558.6 1779.58   7
  -2  -2  13 55612.8 2041.57   1
  -2   2 -13 53922.1 1826.88   8
  -2   2 -13 55005.8 2482.13   9
  -2  -2  13 51023.8 2478.70   2
   2   2  13 50160.9 2251.98   1
  -2   2 -13 53630.9 2548.74   7
   2  -2 -13 51510.9 2340.18   9
   2   2  13 49675.2 1809.61   8
  -2  -2  14 16380.3 1488.13   2
  -2  -2  14 15537.2 1196.03   3
   2   2  14 18882.9 1045.37   8
   2   2  14 17942.8 1414.25   1
  -2   2 -14 19237.6 1608.62   7
  -2  -2  14 19022.7 1236.56   1
  -2   2 -14 18779.6 1012.84   8
   2  -2 -14 19716.1 1541.62   9
  -2   2 -14 18498.8 1546.80   9
   2  -2 -14 17328.6 1045.72   7
  -2  -2  15 70051.4 2559.72   3
   2   2  15 64107.2 2768.09   1
  -2  -2  15 72733.8 2581.18   1
  -2   2 -15 74322.4 3066.22   9
   2   2  15 67233.5 2126.33   8
  -2  -2  15 68807.6 3078.91   2
   2  -2 -15 68884.6 2896.86   9
   2  -2 -15 66542.2 2271.93   7
  -2   2 -15 66536.3 3035.92   7
  -2   2 -15 72530.0 2113.33   8
  -2  -2  16 5558.39 1089.26   2
   2   2  16 6041.65 1070.33   1
  -2  -2  16 5917.58 833.904   3
  -2   2 -16 5948.11 1055.79   7
  -2  -2  16 4684.58 824.473   1
   2  -2 -16 5299.46 1018.82   9
   2  -2 -16 5073.90 694.590   7
  -2   2 -16 6010.89 1049.63   9
  -2   2 -16 5484.04 547.509   8
   2   2  17 7703.43 1234.50   1
   2  -2 -17 7415.75 845.057   7
  -2   2 -17 8736.66 1372.25   7
  -2  -2  17 7798.58 979.856   1
  -2   2 -17 7607.54 585.408   8
  -2  -2  17 7567.23 1226.58   2
   2  -2 -17 6758.42 1169.16   9
  -2  -2  17 7181.36 913.286   3
  -2   2 -17 8843.83 1318.47   9
   2  -2 -18 8571.15 969.213   7
  -2  -2  18 7316.45 945.402   1
  -2  -2  18 9704.69 978.193   3
  -2   2 -18 7779.60 1417.51   7
  -2  -2  18 7521.23 1168.50   2
   2  -2 -18 7777.42 1176.96   9
  -2   2 -18 7399.80 1255.24   9
   2   2  18 7288.89 1099.37   1
   2   2  19 7413.79 1293.78   1
  -2  -2  19 6380.67 967.578   1
  -2   2 -19 6093.65 1296.16   7
  -2   2 -19 5447.21 1178.88   9
  -2  -2  19 5612.93 888.100   3
   2  -2 -19 5093.07 842.943   7
  -2  -2  19 4624.08 1152.57   2
   2  -2 -19 4413.60 1107.72   9
  -2  -2  20 6654.77 1352.71   2
  -2  -2  20 6309.67 1069.45   1
  -2  -2  20 6856.26 936.197   3
   2  -2 -20 5260.26 846.306   7
  -2   2 -20 6052.91 1342.71   7
  -2   2 -20 5620.34 1215.36   9
   2  -2 -20 5969.38 1146.10   9
   2   2  20 5759.64 1112.67   1
   2   2  21 3606.17 1227.26   1
  -2  -2  21 6372.73 960.661   3
   2  -2 -21 4144.94 817.123   7
  -2  -2  21 6443.79 1273.06   2
  -2  -2  21 6497.41 1041.19   1
  -2   2 -21 4649.94 1149.63   7
   2  -2 -21 4039.94 1167.26   9
  -2   2 -21 5227.42 1185.48   9
   2   2  22 758.711 992.981   1
  -2  -2  22 2705.44 954.498   1
   2  -2 -22 1872.12 779.809   7
  -2   2 -22 577.807 1054.47   7
  -2  -2  22 2515.15 743.188   3
   2   2  22 2491.14 815.249   3
  -2  -2  22 1642.53 1036.43   2
   2  -2 -22 680.575 1097.41   9
  -2   2 -22 1021.46 1108.20   9
   2   2  23 955.983 824.820   1
  -2  -2  23 691.678 962.573   2
   2  -2 -23 915.286 1091.67   9
  -2   2 -23 449.880 1059.67   7
  -2   2 -23 3832.35 1325.17   9
  -2  -2  23 1505.79 852.319   1
   2   2  23 2390.85 790.744   3
   2  -2 -23 1282.48 726.891   7
  -2  -2  24 1599.99 1082.83   2
  -2  -2  24 4134.47 1095.65   1
   2  -2 -24 2106.58 801.194   7
   2  -2 -24 1946.46 1068.83   9
  -2   2 -24 2967.94 1306.90   7
   2   2  24 5206.20 1433.11   1
  -2   2 -24 3653.56 1306.53   9
  -2  -2  25 1634.78 928.487   1
   2   2  25 969.437 1207.70   1
  -2  -2  25 5361.11 1487.44   2
  -2   2 -25 1855.56 1199.50   7
   2  -2 -25 7064.35 1712.36   9
  -2   2 -25 4020.93 1388.43   9
   2   2  26 2871.13 1361.18   1
  -2   2 -26-930.938 1235.46   7
  -2  -2  26 3204.67 1219.36   2
  -2  -2  26 1352.90 1005.31   1
   2  -2 -26 3682.26 1490.70   9
  -2   2 -26 1804.04 1311.08   9
  -2  -2  27 723.307 980.370   1
  -2   2 -27-37.3666 1202.01   7
  -2  -2  27 1546.81 1069.56   2
   2  -2 -27 1015.24 1134.68   9
  -2   2 -27 1090.98 1111.95   9
   2   2  27 958.724 1047.33   1
  -2  -2  28 910.653 953.535   1
  -2   2 -28 688.256 1229.82   9
  -2  -2  28 368.387 972.807   2
  -2   3  28 3997.04 1226.37   3
  -2  -3 -28 1937.03 1243.94   9
  -2  -3 -27 166.258 1139.22   7
   2   3 -27-3308.34 1626.46   7
  -2   3  27-1442.68 1097.21   3
  -2  -3 -27-183.469 1170.75   9
   2   3 -26 2739.54 1451.54   7
  -2  -3 -26 1860.65 1092.51   7
   2  -3  26 811.271 1105.58   1
  -2   3  26 132.702 948.687   3
  -2  -3 -26 2420.99 1142.63   9
   2   3 -26 3777.32 1470.36   9
  -2  -3 -25-2008.97 1264.39   7
   2   3 -25 1327.11 1295.98   7
  -2   3  25 1451.84 1105.47   3
   2  -3  25 918.416 1099.05   1
  -2  -3 -25 3716.07 1225.89   9
   2   3 -25 859.553 1268.75   9
  -2  -3 -24-206.002 886.380   9
  -2  -3 -24-720.571 1099.07   7
   2  -3  24-35.8724 1142.74   1
  -2   3  24 2375.23 1024.91   3
   2   3 -24 2286.80 1404.33   9
  -2  -3 -23 984.703 988.261   7
   2  -3  23 2608.35 1293.89   1
  -2  -3 -23-422.019 984.692   9
   2   3 -23 1317.96 815.042   5
   2   3 -23 158.901 965.355   9
   2   3 -22 10551.9 1714.17   9
  -2   3  22 13862.0 1698.53   3
   2  -3  22 12743.9 1762.58   1
   2   3 -22 12166.7 1328.07   5
  -2  -3 -22 10854.5 1416.83   7
  -2  -3 -22 11621.3 1415.34   9
  -2  -3 -21-154.341 738.841   7
  -2   3  21 1167.85 882.450   3
   2  -3  21 1145.51 1030.76   1
   2   3 -21 640.140 774.799   5
  -2  -3 -21 723.984 911.169   9
   2   3 -21-596.570 1061.60   9
  -2   3  20 32874.9 2317.36   3
   2  -3  20 32177.5 2437.02   1
  -2  -3 -20 27584.8 2013.20   9
   2   3 -20 29145.5 1938.11   5
  -2  -3 -20 25908.8 2004.92   7
   2   3 -20 29927.3 2339.29   9
  -2   3  19 870.056 438.479   4
  -2   3  19 446.241 934.400   3
  -2  -3 -19 928.891 902.850   7
  -2  -3 -19 1719.34 820.370   9
   2  -3  19 1874.96 953.054   1
   2   3 -19 1538.79 763.514   5
   2   3 -19 1306.72 1066.63   9
  -2   3  19 1509.58 528.681   2
  -2  -3 -18 3404.95 998.525   7
  -2   3  18 2952.66 1069.26   3
   2   3 -18 2009.13 825.576   5
   2  -3  18 2532.12 977.141   1
  -2   3  18 3851.70 584.048   4
  -2   3  18 3195.44 590.326   2
  -2  -3 -18 3762.53 961.304   9
   2   3 -18 1803.49 1051.62   9
  -2   3  17 8034.90 726.633   4
  -2  -3 -17 8028.19 1169.84   7
  -2   3  17 9198.29 1362.99   3
   2   3 -17 9133.33 1117.49   5
   2  -3  17 7910.22 1261.24   1
   2   3 -17 10111.7 1445.45   9
  -2  -3 -17 7896.20 1090.31   9
  -2   3  17 8487.38 768.855   2
  -2  -3 -16 19945.7 1610.93   7
  -2   3  16 19484.8 1744.28   3
   2   3 -16 21470.2 1560.11   5
  -2   3  16 19418.3 1071.12   2
   2  -3  16 17829.6 1757.85   1
  -2  -3 -16 16773.3 1364.11   9
  -2   3  16 19183.8 1033.65   4
   2   3 -16 19203.8 1737.07   9
  -2  -3 -15 3456.77 936.159   7
  -2   3  15 3590.47 500.285   2
  -2   3  15 3447.76 1006.78   3
   2  -3  15 4151.35 671.971   6
   2   3 -15 2761.95 789.713   5
   2  -3  15 2717.54 983.949   1
   2   3 -15 3778.26 1094.51   9
  -2  -3 -15 4286.82 816.394   9
  -2   3  15 2934.24 460.731   4
  -2  -3 -14 13015.9 1291.72   7
   2  -3  14 14731.4 1097.30   6
  -2   3  14 13564.1 1433.84   3
   2  -3  14 14398.0 1482.76   1
   2   3 -14 12673.3 1222.71   5
  -2   3  14 13258.8 824.269   2
  -2   3  14 12341.4 775.853   4
  -2  -3 -14 11831.0 1104.51   9
   2   3 -14 14679.8 1435.07   9
  -2   3  13 56339.0 2695.80   3
   2   3 -13 62362.6 2690.97   9
   2  -3  13 56146.5 2168.45   6
   2   3 -13 57315.8 2456.48   5
  -2  -3 -13 56071.6 2408.97   7
  -2   3  13 55194.6 1732.63   2
   2   3 -13 51208.5 2395.55   4
  -2   3  13 53655.6 1650.50   4
   2  -3  13 54009.7 2626.08   1
  -2  -3 -13 57458.8 2209.81   9
  -2  -3 -12 29481.4 1705.09   7
  -2   3  12 29877.1 1951.64   3
   2  -3  12 31435.2 1608.83   6
   2  -3  12 33335.5 2008.85   1
   2  -3  12 28727.4 881.721   5
   2   3 -12 33506.2 1838.55   5
  -2   3  12 32253.3 1216.39   2
   2   3 -12 30627.0 1780.95   4
  -2   3  12 30980.3 1137.31   4
  -2  -3 -12 31001.1 1518.60   9
   2   3 -12 32370.9 1885.50   9
  -2  -3 -11 18195.1 1348.30   7
  -2   3  11 19336.9 1588.71   3
   2  -3  11 18098.1 1228.41   6
   2   3 -11 17300.3 1377.14   9
   2  -3  11 17474.4 1433.97   1
   2   3 -11 18338.2 1389.08   5
   2  -3  11 18035.4 740.009   5
  -2   3  11 18289.2 872.011   2
   2   3 -11 17585.5 1346.63   4
  -2   3  11 17784.8 808.325   4
  -2  -3 -11 17688.1 1111.73   9
  -2  -3 -10 40500.3 1628.86   9
  -2   3  10 43636.6 2248.98   3
  -2  -3 -10 42990.0 1933.96   7
   2  -3  10 44433.7 1914.96   6
   2  -3  10 40705.8 2102.06   1
   2   3 -10 45530.1 2113.02   5
   2  -3  10 40433.7 1298.68   5
  -2   3  10 40486.8 1351.00   2
   2   3 -10 44615.2 2043.71   4
  -2   3  10 41272.2 1261.08   4
   2   3 -10 42654.6 1728.41   1
   2   3 -10 44203.8 2057.77   9
  -2  -3  -9 64630.4 2034.47   9
  -2   3   9 65300.5 2727.31   3
   2  -3   9 68951.0 2425.03   6
   2   3  -9 63636.2 2116.46   1
   2   3  -9 66725.6 2605.72   5
   2  -3   9 65585.2 2639.28   1
  -2   3   9 67432.1 1807.54   2
  -2  -3  -9 65189.2 2399.42   7
   2   3  -9 61796.8 2472.17   4
  -2   3   9 64724.4 1681.60   4
   2   3  -9 67111.4 2502.48   9
  -2  -3  -8 86250.1 2725.31   7
   2  -3   8 80342.6 2707.07   6
   2   3  -8 83724.0 2918.55   5
   2  -3   8 84569.5 2950.64   1
  -2  -3  -8 78913.7 2244.82   9
   2   3  -8 81348.2 2801.42   4
  -2   3   8 82698.0 1975.77   4
   2   3  -8 77277.5 2338.92   1
   2   3  -8 84903.6 2785.16   9
  -2   3   8 83264.8 3085.12   3
  -2   3   7 57397.5 2420.79   3
  -2  -3  -7 60295.3 2190.29   7
   2  -3   7 57042.0 2188.39   6
  -2  -3  -7 54870.5 1698.57   9
   2   3  -7 57246.9 2340.19   5
   2  -3   7 60192.4 2374.24   1
   2   3  -7 57814.3 2229.62   4
  -2   3   7 57193.0 1529.57   4
   2   3  -7 57755.4 2137.51   9
   2   3  -7 54174.6 1785.20   1
  -2  -3  -6 15547.5 1082.65   7
  -2  -3  -6 13958.0 742.130   9
   2  -3   6 13884.3 1082.19   6
   2   3  -6 13940.2 786.361   1
   2   3  -6 16249.6 1260.33   5
   2  -3   6 13860.0 1116.05   1
  -2   3   6 15011.0 1224.69   3
   2   3  -6 13828.2 1030.88   4
  -2   3   6 14871.7 687.881   4
   2   3  -6 14144.3 1005.46   9
   2   3  -5 8395.00 834.839   4
  -2   3   5 9779.66 1027.15   3
  -2  -3  -5 8727.80 835.260   7
  -2  -3  -5 7668.30 667.581   1
   2  -3   5 10217.6 973.184   6
   2  -3   5 9313.35 942.771   1
  -2   3   5 8045.40 552.538   4
   2   3  -5 8199.32 761.219   9
  -2  -3  -5 8274.37 547.767   9
   2   3  -5 8570.89 968.017   5
  -2   3   4 184883. 4756.22   3
   2  -3   4 184254. 4676.66   6
  -2   3   4 192028. 3943.07   4
   2   3  -4 188859. 4256.90   9
   2   3  -4 190599. 4828.99   5
  -2  -3  -4 186106. 4028.00   2
  -2  -3  -4 186339. 4459.62   7
   2  -3   4 181109. 4630.63   1
   2  -3   4 177042. 4534.03   4
   2   3  -4 191378. 4491.19   4
  -2  -3  -4 181198. 4169.79   1
  -2  -3  -3 11257.0 903.834   7
   2   3  -3 10638.9 756.408   9
  -2   3   3 12918.5 1044.29   3
  -2  -3  -3 11150.7 722.656   1
   2  -3   3 10435.8 983.439   6
  -2  -3  -3 11676.7 715.636   2
   2   3  -3 10846.7 1034.68   5
  -2   3   3 11410.1 699.781   4
   2  -3   3 11812.9 894.846   4
   2   3  -3 11647.8 876.149   4
   2  -3   3 9342.82 889.973   1
  -2  -3  -2 377630. 7529.15   7
  -2   3   2 378538. 7742.36   3
  -2  -3  -2 357113. 7076.70   1
   2  -3   2 356237. 7837.04   6
   2   3  -2 376012. 7956.49   5
  -2  -3  -2 377676. 7150.95   2
  -2   3   2 368736. 7132.99   4
   2  -3   2 350195. 7465.12   4
   2  -3   2 364546. 7647.19   1
   2   3  -2 379188. 7514.55   4
   2   3  -2 360748. 7423.75   2
  -2  -3  -1 99863.9 2503.13   1
  -2   3   1 104903. 2099.34   7
  -2   3   1 102319. 2980.36   3
   2  -3   1 103101. 3193.38   6
  -2  -3  -1 100478. 2409.32   9
   2   3  -1 101160. 3193.09   5
  -2  -3  -1 105731. 2912.77   7
  -2  -3  -1 104780. 2677.05   2
  -2   3   1 103475. 2670.77   4
   2  -3   1 96886.2 2751.38   4
   2   3  -1 97398.1 2723.17   2
   2   3  -1 101579. 2848.79   4
   2  -3   1 105390. 2993.35   1
  -2  -3   0 3083.26 610.187   7
  -2   3   0 3643.07 576.067   3
   2   3   0 3747.41 749.993   5
   2  -3   0 3017.42 438.465   4
  -2   3   0 2053.66 412.551   4
   2   3   0 2939.53 507.615   4
  -2  -3   0 1956.49 450.547   2
  -2  -3   0 2153.13 326.664   9
  -2   3   0 2658.35 306.408   7
   2  -3   0 2400.64 660.752   6
   2  -3   0 2172.41 517.010   1
   2   3   0 2472.21 392.419   2
  -2   3  -1 105036. 2435.84   7
  -2   3  -1 103584. 2836.05   3
   2  -3  -1 106082. 3262.11   6
  -2  -3   1 101318. 2549.95   9
  -2  -3   1 101031. 2734.57   2
   2   3   1 101445. 2642.85   2
   2  -3  -1 99475.7 2561.37   4
   2   3   1 103359. 2867.45   4
  -2  -3   1 101176. 2927.14   7
   2  -3  -1 102913. 2863.74   1
  -2   3  -2 355876. 6824.02   7
  -2   3  -2 359898. 7079.97   3
   2  -3  -2 360192. 7733.16   6
   2  -3  -2 356382. 6791.36   2
  -2  -3   2 354186. 7140.18   2
  -2  -3   2 366491. 7384.48   7
   2   3   2 345044. 6872.29   2
   2  -3  -2 342943. 6688.22   4
   2   3   2 359696. 7251.92   4
  -2  -3   2 347538. 6897.87   9
  -2  -3   2 359827. 6735.40   1
   2  -3  -2 358250. 7191.35   1
  -2   3  -2 326492. 7210.76   1
  -2   3  -3 15545.6 916.757   7
   2   3   3 15085.6 1006.58   4
  -2  -3   3 13734.2 759.002   1
  -2   3  -3 13581.8 824.709   3
  -2  -3   3 12732.2 813.969   9
   2  -3  -3 14957.9 1192.42   6
   2  -3  -3 12731.9 710.947   2
   2  -3  -3 12286.8 865.860   1
   2   3   3 13718.8 777.248   2
  -2  -3   3 12113.6 924.303   2
   2  -3  -3 12322.2 638.171   4
   2  -3  -4 180855. 4799.80   6
  -2  -3   4 179230. 4208.63   9
   2   3   4 194066. 4461.37   4
   2  -3  -4 183439. 3865.19   2
   2   3   4 177738. 3958.22   2
  -2  -3   4 185688. 4439.26   2
  -2  -3   4 189945. 3985.46   1
   2  -3  -4 175840. 3661.33   4
  -2   3  -4 188314. 4280.09   7
  -2   3  -4 187189. 3978.93   3
  -2   3  -5 11874.0 697.636   3
  -2  -3   5 13234.3 909.512   9
   2  -3  -5 12239.9 676.739   2
   2   3   5 12207.7 731.502   2
  -2  -3   5 13252.9 783.640   1
  -2  -3   5 13288.0 1029.68   2
  -2   3  -5 14604.3 998.333   7
   2   3   5 13757.6 1008.95   4
   2  -3  -5 12972.0 591.028   4
  -2   3  -6 15071.7 706.886   3
  -2   3  -6 16297.9 1095.42   7
   2  -3  -6 14531.6 604.849   4
  -2  -3   6 16262.3 905.487   1
   2   3   6 14879.4 809.758   2
   2  -3  -6 14391.2 722.728   2
  -2  -3   6 14407.2 1157.93   2
  -2  -3   6 15956.6 1029.00   9
   2   3   6 16272.3 1131.77   4
  -2   3  -7 58309.6 1493.89   3
  -2   3  -7 61881.2 2302.33   7
  -2  -3   7 59591.6 1891.19   1
   2   3   7 57235.0 1765.06   2
   2  -3  -7 57422.5 1649.84   2
  -2  -3   7 62453.4 2405.73   2
   2  -3  -7 63350.0 2245.63   9
   2   3   7 62407.0 2107.24   1
   2   3   7 61358.7 2244.40   4
  -2   3  -8 91790.1 3004.36   7
   2   3   8 88845.4 2845.78   4
   2   3   8 84331.0 2687.95   1
   2  -3  -8 88185.3 2829.87   9
  -2  -3   8 90507.2 2489.11   1
   2   3   8 83704.8 2276.96   2
  -2  -3   8 81777.7 2947.78   2
   2  -3  -8 81187.6 2159.38   2
  -2   3  -9 63570.6 2536.50   7
   2   3   9 64266.2 2298.25   1
   2   3   9 58277.0 1818.01   2
  -2  -3   9 60522.4 2554.11   2
   2  -3  -9 57890.3 1745.97   2
   2  -3  -9 61031.8 2345.41   9
   2   3   9 66504.0 2426.29   4
   2  -3  -9 59307.6 1355.71   7
  -2   3  -9 61493.4 2488.41   9
  -2  -3   9 62269.3 2059.43   1
   2  -3 -10 35935.4 1039.69   7
  -2   3 -10 39528.3 2056.19   7
   2   3  10 36592.7 1736.60   1
  -2   3 -10 35369.9 1909.00   9
   2   3  10 37964.4 1849.16   4
  -2  -3  10 36603.2 1552.55   1
   2   3  10 33221.5 1323.06   2
   2  -3 -10 37053.6 1827.56   9
  -2  -3  10 33583.2 1957.94   2
   2  -3 -10 34063.9 1326.15   2
  -2  -3  11 14751.4 1394.04   2
   2   3  11 14667.3 1187.46   1
   2  -3 -11 15444.8 703.036   7
  -2  -3  11 15317.6 1035.28   1
  -2   3 -11 15618.2 1349.72   9
   2   3  11 16505.3 901.490   2
   2  -3 -11 17419.2 1349.27   9
   2   3  11 16683.4 1286.95   4
  -2   3 -11 15480.9 1410.76   7
   2  -3 -12 32410.9 1154.51   7
  -2   3 -12 33153.0 2058.22   7
   2   3  12 37038.8 1875.34   1
  -2   3 -12 32273.5 1956.31   9
  -2  -3  12 33512.7 1613.40   1
   2   3  12 31000.6 1322.51   2
   2  -3 -12 35575.9 1915.93   9
  -2  -3  12 32827.7 2037.52   2
   2   3  12 30821.3 1815.03   4
   2  -3 -13 58389.4 1777.21   7
  -2   3 -13 59500.4 2810.89   7
   2   3  13 58460.9 2516.77   1
  -2  -3  13 64659.5 2357.13   1
  -2  -3  13 53615.1 2751.55   2
   2  -3 -13 62474.1 2639.71   9
   2   3  13 64424.6 2658.39   4
  -2   3 -13 62871.1 2779.36   9
  -2  -3  14 13937.6 1461.66   2
   2   3  14 16635.3 1404.30   4
   2  -3 -14 16731.8 937.487   7
   2  -3 -14 15628.2 1419.24   9
  -2  -3  14 16560.1 1217.84   1
  -2   3 -14 17932.4 1676.68   7
   2   3  14 14488.1 1360.36   1
  -2   3 -14 17505.2 1604.32   9
   2  -3 -15 4151.04 549.551   7
  -2  -3  15 3577.75 1125.51   2
   2   3  15 3511.03 826.303   1
  -2   3 -15 3701.36 1123.80   7
  -2  -3  15 3020.78 715.207   1
   2   3  15 4547.32 951.767   4
   2  -3 -15 4344.98 1043.72   9
  -2   3 -15 4134.07 1034.94   9
   2  -3 -16 22422.8 1196.83   7
   2   3  16 21110.7 1677.38   1
  -2   3 -16 21540.7 1862.86   7
  -2  -3  16 21766.6 1914.85   2
  -2  -3  16 22614.4 1527.48   1
   2   3  16 22129.6 1677.01   4
   2  -3 -16 23266.5 1751.44   9
  -2   3 -16 22686.6 1892.82   9
  -2  -3  17 7334.43 1319.24   2
   2  -3 -17 10653.5 1450.28   9
   2  -3 -17 8600.10 828.520   7
  -2   3 -17 10264.0 1468.31   7
  -2  -3  17 7421.18 964.894   1
   2   3  17 9772.30 1296.93   4
   2   3  17 8896.75 1229.39   1
  -2   3 -17 11894.0 1556.21   9
  -2   3 -17 10524.9 811.566   8
   2   3  18 4463.84 1078.04   4
  -2  -3  18 3170.41 838.679   1
  -2   3 -18 2740.86 938.078   9
  -2   3 -18 2452.28 1048.92   7
   2  -3 -18 3888.62 1135.08   9
  -2  -3  18 3840.83 1133.73   2
   2  -3 -18 3563.68 620.043   7
   2   3  18 2949.94 931.260   1
  -2   3 -18 3311.46 494.785   8
  -2  -3  19 1475.05 962.339   2
   2   3  19 890.329 856.048   4
  -2  -3  19 1746.80 808.100   1
   2  -3 -19 1258.67 548.581   7
  -2   3 -19 3285.32 1190.28   9
  -2   3 -19-108.139 1043.45   7
   2  -3 -19 1471.46 1006.56   9
   2   3  19 1863.10 904.964   1
   2  -3 -20 30989.5 1682.90   7
  -2   3 -20 25305.1 2304.07   7
  -2   3 -20 29958.2 2345.53   9
  -2  -3  20 32383.0 2065.94   1
   2  -3 -20 32301.3 2317.16   9
   2   3  20 26902.9 2100.22   1
   2   3  20 29476.3 2136.81   4
  -2  -3  20 27282.6 2342.65   2
   2   3  21 1167.25 1004.08   4
   2  -3 -21 403.053 557.654   7
  -2   3 -21 829.327 1014.29   7
  -2  -3  21-395.638 820.064   1
  -2  -3  21 131.183 926.941   2
  -2   3 -21-293.063 980.592   9
   2   3  21 875.434 1079.73   1
   2  -3 -21 20.0260 955.686   9
  -2  -3  22 12255.8 1732.51   2
   2   3  22 11531.5 1542.93   1
  -2   3 -22 11433.4 1831.41   7
   2   3  22 11357.0 1546.29   4
   2  -3 -22 13479.5 1780.99   9
  -2   3 -22 13612.7 1731.91   9
  -2  -3  22 13514.9 1519.14   1
   2   3  23 83.8167 841.657   4
   2  -3 -23 3111.30 1316.94   9
  -2  -3  23 927.757 857.877   1
  -2   3 -23 955.693 1149.04   7
  -2  -3  23 684.938 990.206   2
   2   3  23 590.510 863.556   3
   2   3  23 2294.15 1249.66   1
  -2   3 -23 1256.15 1134.62   9
   2   3  24-685.502 1024.30   4
  -2  -3  24 564.149 822.936   1
   2  -3 -24 1732.68 1363.55   9
  -2   3 -24-1713.97 1441.61   7
   2   3  24-595.412 946.406   1
   2   3  24 603.259 850.353   3
  -2  -3  24-515.908 1238.59   2
  -2   3 -24 885.238 1231.75   9
   2   3  25 229.070 946.846   4
  -2  -3  25 1196.44 950.714   1
  -2  -3  25-416.153 1270.70   2
  -2   3 -25 360.878 1291.04   7
   2   3  25 47.9842 1155.35   1
   2  -3 -25-652.329 1220.30   9
  -2   3 -25 3212.91 1477.03   9
  -2  -3  26 3145.45 1185.21   2
   2   3  26-2704.39 1290.82   4
   2  -3 -26 1354.68 1147.65   9
  -2  -3  26 571.849 1004.80   1
  -2   3 -26 1243.58 1487.54   7
  -2   3 -26-162.729 1107.80   9
   2   3  26 2042.42 1091.78   1
   2   3  27 546.657 874.583   4
  -2  -3  27-504.881 948.072   1
  -2  -3  27 1609.24 1233.62   2
  -2   3 -27 101.038 1360.23   9
  -2  -4 -27 1869.29 1239.41   7
  -2   4  27 2686.10 1369.08   3
  -2  -4 -27 491.597 977.588   9
  -2   4  26 1715.37 1144.60   3
  -2  -4 -26-1049.76 1087.76   7
  -2  -4 -26-193.427 996.974   9
   2   4 -26 2967.90 1468.49   9
  -2  -4 -25 179.858 879.898   7
   2   4 -25-164.535 1377.51   9
  -2   4  25 391.502 1158.80   3
   2  -4  25 1381.83 1060.28   1
  -2  -4 -25 2553.82 1215.07   9
   2  -4  24 2641.85 1312.19   1
  -2  -4 -24 42.1774 954.196   7
   2   4 -24 1939.10 1175.36   9
  -2   4  24 5261.40 1376.32   3
  -2  -4 -24 3038.43 1168.08   9
  -2  -4 -23 1462.67 969.891   7
   2  -4  23 500.590 1105.27   1
  -2  -4 -23 1495.71 983.880   9
   2   4 -23 1645.35 1295.99   9
  -2   4  23 3274.07 1159.33   3
  -2  -4 -22 3208.91 1043.62   7
  -2   4  22 2506.01 1259.98   3
   2  -4  22 2356.43 1263.58   1
   2   4 -22 2287.49 935.772   5
   2   4 -22 1664.79 1259.46   9
  -2  -4 -22 1759.98 1003.94   9
  -2  -4 -21 1827.63 833.152   7
   2  -4  21 1734.88 1118.88   1
   2   4 -21 2879.61 917.310   5
  -2  -4 -21 3279.52 1050.33   9
   2   4 -21 3741.31 1257.12   9
  -2  -4 -20 3064.61 1058.42   7
  -2   4  20 4672.32 1293.22   3
  -2  -4 -20 4220.70 1111.91   9
   2   4 -20 2809.01 930.037   5
   2  -4  20 3450.13 1168.50   1
   2   4 -20 3499.29 1174.52   9
  -2  -4 -19 5763.90 1105.95   9
  -2  -4 -19 3783.09 1018.35   7
  -2   4  19 4320.69 1112.86   3
   2   4 -19 3370.40 868.325   5
   2  -4  19 3751.44 1071.13   1
   2   4 -19 4804.55 1175.15   9
  -2  -4 -18 20674.3 1683.69   7
  -2   4  18 19248.2 1921.88   3
   2   4 -18 22507.5 1738.91   5
   2  -4  18 20177.2 2030.79   1
  -2   4  18 21111.2 1224.53   4
   2   4 -18 21435.8 2039.02   9
  -2  -4 -18 18582.3 1576.21   9
  -2   4  17 1226.96 472.152   4
  -2  -4 -17 822.704 737.716   7
  -2  -4 -17 1050.52 724.133   9
  -2   4  17 1277.12 1000.45   3
   2   4 -17 999.541 814.757   5
   2  -4  17-821.345 1049.20   1
   2   4 -17-85.9139 961.650   9
  -2  -4 -16 7016.62 1147.40   7
  -2   4  16 8937.54 1412.07   3
   2   4 -16 6737.02 1082.02   5
   2  -4  16 8248.61 1366.77   1
   2   4 -16 8643.12 1339.39   9
  -2  -4 -16 7709.55 1019.63   9
  -2   4  16 7378.20 721.267   4
  -2  -4 -15 51782.6 2474.45   7
  -2   4  15 49708.9 2793.63   3
   2  -4  15 52505.9 2804.82   1
   2   4 -15 55771.4 2617.13   5
  -2   4  15 49830.0 1507.85   2
  -2   4  15 51011.5 1813.90   4
  -2  -4 -15 52127.3 2331.93   9
   2   4 -15 53071.1 2792.67   9
  -2  -4 -14 21888.5 1637.86   7
  -2   4  14 24191.6 1919.26   3
   2   4 -14 28713.1 1855.73   5
  -2   4  14 25099.0 964.776   2
   2  -4  14 28033.4 2072.58   1
   2   4 -14 26383.3 1824.47   4
  -2   4  14 22924.9 1158.19   4
  -2  -4 -14 25378.5 1563.82   9
   2   4 -14 23131.5 1818.25   9
  -2  -4 -13 18296.1 1443.75   7
  -2   4  13 19979.3 1755.39   3
   2  -4  13 19181.2 1698.89   1
  -2  -4 -13 20871.8 1354.06   9
   2  -4  13 18204.4 891.246   5
   2   4 -13 21111.1 1630.88   5
   2   4 -13 20822.6 1661.54   4
  -2   4  13 19368.4 1016.89   4
   2   4 -13 21813.5 1693.95   9
  -2  -4 -12 128097. 3927.92   7
  -2   4  12 124474. 4427.98   3
   2  -4  12 130807. 4409.46   1
   2  -4  12 122546. 3062.60   5
   2   4 -12 128855. 4184.30   5
   2   4 -12 141531. 4368.24   4
  -2   4  12 125360. 3115.89   4
   2   4 -12 127185. 4247.17   9
  -2  -4 -12 132199. 3637.16   9
  -2  -4 -11 34097.5 1860.54   7
  -2   4  11 36738.1 2234.11   3
   2   4 -11 35008.2 2014.54   9
   2  -4  11 37736.6 2169.73   1
   2   4 -11 36220.2 2055.63   5
   2  -4  11 34281.6 1378.67   5
   2   4 -11 35542.2 2068.22   4
  -2   4  11 35073.0 1359.35   4
  -2  -4 -11 35581.0 1650.01   9
  -2  -4 -10 33484.2 1788.16   7
  -2   4  10 35607.3 2160.58   3
   2   4 -10 30075.2 1879.40   5
   2  -4  10 29604.2 1890.13   1
   2   4 -10 36042.2 2034.26   4
  -2   4  10 33620.1 1305.06   4
   2   4 -10 34165.6 1934.54   9
  -2  -4 -10 34309.7 1536.43   9
  -2  -4  -9 86045.8 2919.45   7
  -2   4   9 92423.5 3527.20   3
   2   4  -9 83594.0 3201.75   5
   2  -4   9 89547.5 3294.94   1
  -2  -4  -9 84696.7 2539.59   9
   2   4  -9 90176.8 3245.51   4
  -2   4   9 81885.6 2309.24   4
   2   4  -9 83656.8 3046.76   9
  -2   4   8 31612.3 1994.26   3
   2   4  -8 35460.7 1956.26   5
   2  -4   8 33251.1 1922.15   1
  -2  -4  -8 31283.5 1376.84   9
   2   4  -8 31264.8 1817.53   4
  -2   4   8 31295.9 1273.61   4
  -2  -4  -8 29935.7 1636.81   7
   2   4  -8 30508.6 1709.74   9
  -2  -4  -7 54448.4 2182.04   7
  -2   4   7 50776.0 2474.78   3
   2   4  -7 52619.2 2395.75   5
  -2  -4  -7 53634.6 1812.54   9
   2  -4   7 54125.2 2419.91   1
   2   4  -7 56340.1 2393.98   4
  -2   4   7 52640.8 1740.57   4
   2   4  -7 54030.9 2207.30   9
  -2  -4  -6 139594. 3354.19   9
  -2   4   6 144477. 4368.61   3
   2   4  -6 143130. 4346.01   5
   2  -4   6 146398. 4258.22   1
  -2  -4  -6 142985. 3917.21   7
   2   4  -6 143820. 4104.37   4
  -2   4   6 140173. 3418.95   4
   2   4  -6 137700. 3845.40   9
  -2  -4  -5 7760.32 896.825   7
  -2   4   5 8269.92 1091.64   3
  -2  -4  -5 7568.45 625.802   2
   2   4  -5 7185.92 970.170   5
   2  -4   5 5797.31 945.787   1
  -2   4   5 6948.45 670.876   4
   2   4  -5 6874.07 859.058   4
  -2  -4  -4 75893.4 2139.09   2
   2  -4   4 76908.2 2804.67   1
  -2   4   4 77375.4 2336.44   4
   2   4  -4 73531.7 2656.14   4
  -2   4   4 77165.9 2887.72   3
  -2  -4  -4 73594.9 2537.27   7
  -2  -4  -3 97126.4 2978.14   7
  -2  -4  -3 99149.0 2573.74   2
  -2   4   3 100257. 2815.90   4
   2  -4   3 94262.7 3160.13   1
   2   4  -3 99662.0 3116.32   4
  -2   4   3 94019.5 3223.03   3
  -2  -4  -2 1269.01 605.749   7
  -2   4   2 1109.42 169.166   7
   2  -4   2 1068.00 602.421   1
  -2   4   2 940.716 180.993   7
  -2   4   2 1063.84 622.010   3
   2   4  -2 534.643 524.526   4
  -2   4   2 188.197 414.513   4
  -2  -4  -2 759.159 364.902   2
  -2  -4  -1 30672.3 1529.67   7
  -2   4   1 31431.9 1625.41   3
  -2  -4  -1 30865.6 1330.86   2
  -2   4   1 30881.0 1467.05   4
   2  -4   1 28047.2 1407.99   4
   2   4  -1 29674.6 1543.21   4
   2  -4   1 30578.8 1622.84   1
  -2  -4  -1 29237.0 1258.73   9
  -2   4   0 222601. 5371.16   3
  -2  -4   0 229170. 5396.07   7
   2  -4   0 231472. 5442.90   1
  -2  -4   0 228099. 5006.87   2
  -2   4   0 230764. 5308.06   4
   2  -4   0 215642. 5087.16   4
   2   4   0 228452. 5373.66   4
  -2  -4   0 227651. 4950.09   9
  -2   4  -1 38735.1 1718.47   3
  -2  -4   1 40192.1 1525.55   1
  -2  -4   1 41372.4 1603.99   9
   2  -4  -1 41537.9 1835.44   1
  -2   4  -1 42106.3 1835.88   4
  -2  -4   1 42758.7 1668.71   2
   2  -4  -1 37227.0 1514.60   4
   2   4   1 40681.9 1589.27   2
   2   4   1 41239.6 1808.47   4
  -2  -4   1 40368.7 1821.79   7
   2   4   2 4460.93 506.977   2
   2  -4  -2 5624.42 791.769   1
   2  -4  -2 4973.52 548.025   4
   2   4   2 5858.73 757.875   4
  -2   4  -2 4948.51 633.313   3
  -2   4  -2 5295.83 800.842   4
  -2  -4   2 5560.66 604.586   9
  -2  -4   2 4742.00 569.632   1
  -2   4  -3 108054. 2982.13   3
   2  -4  -3 110534. 2672.05   2
  -2   4  -3 112195. 3386.48   4
  -2  -4   3 111080. 3170.56   2
   2   4   3 106568. 2804.24   2
   2  -4  -3 107730. 2756.41   4
   2   4   3 111580. 3289.54   4
  -2  -4   3 109215. 2913.45   1
  -2  -4   3 110802. 3110.13   9
   2  -4  -3 108607. 3211.17   1
  -2   4  -4 71154.2 2161.08   3
  -2  -4   4 69872.3 2372.67   9
   2  -4  -4 68262.0 1883.96   2
  -2  -4   4 66427.3 2421.87   2
   2   4   4 67963.0 2028.71   2
  -2  -4   4 70331.8 2216.88   1
   2  -4  -4 68112.5 1974.55   4
   2   4   4 73983.0 2524.15   4
  -2   4  -5 8960.38 686.748   3
  -2  -4   5 10011.9 811.912   1
   2  -4  -5 9664.66 596.961   2
   2   4   5 8766.67 638.900   2
   2  -4  -5 10038.9 644.512   4
   2   4   5 9719.20 985.453   4
  -2  -4   5 10163.3 1012.47   2
   2  -4  -6 127645. 2989.14   4
  -2   4  -6 128285. 3003.68   3
   2  -4  -6 129051. 2871.72   2
  -2  -4   6 134770. 3448.80   1
   2   4   6 126125. 3042.81   2
  -2  -4   6 125264. 3814.61   2
   2   4   6 137663. 3799.71   4
  -2   4  -7 52193.1 1496.96   3
   2   4   7 54822.0 2220.16   4
  -2  -4   7 58463.0 2036.02   1
   2   4   7 50420.3 1609.31   2
   2  -4  -7 49460.4 1456.55   2
  -2  -4   7 50556.5 2283.42   2
   2  -4  -7 48795.8 1545.17   4
  -2   4  -7 58334.1 2322.78   7
  -2   4  -8 27271.8 893.553   3
  -2   4  -8 29803.7 1754.15   7
   2   4   8 29025.8 1648.17   4
  -2  -4   8 28091.2 1403.13   1
   2   4   8 27450.9 1119.00   2
   2  -4  -8 26267.0 987.155   2
  -2  -4   8 27026.2 1771.09   2
  -2  -4   9 106061. 3078.99   1
   2   4   9 96481.1 2518.04   2
  -2  -4   9 102458. 3615.15   2
   2  -4  -9 99436.5 2374.48   2
   2  -4  -9 103758. 3387.45   9
   2   4   9 104095. 3362.69   4
  -2   4  -9 100543. 3524.93   7
   2  -4 -10 40366.7 1002.42   7
  -2   4 -10 40923.8 2216.30   7
  -2  -4  10 46370.6 1907.42   1
   2  -4 -10 40802.3 2039.86   9
   2   4  10 40213.5 1400.32   2
  -2  -4  10 39968.9 2266.79   2
   2  -4 -10 38757.4 1312.28   2
   2   4  10 45188.1 2127.79   4
   2  -4 -11 39109.2 1085.15   7
  -2   4 -11 42455.1 2331.61   7
   2  -4 -11 40915.4 2119.42   9
   2   4  11 39296.0 2050.81   4
   2   4  11 36667.9 1370.47   2
  -2  -4  11 37204.6 2254.89   2
   2  -4 -12 122272. 2654.03   7
  -2   4 -12 121149. 4249.01   7
  -2   4 -12 125848. 4274.95   9
  -2  -4  12 124413. 3657.14   1
   2   4  12 118421. 2960.49   2
   2  -4 -12 128259. 4064.92   9
  -2  -4  12 124161. 4394.10   2
   2   4  12 125457. 3995.75   4
   2  -4 -13 18042.7 815.905   7
  -2  -4  13 16502.8 1276.04   1
  -2  -4  13 16796.6 1647.44   2
   2  -4 -13 14875.1 1472.71   9
  -2   4 -13 19859.5 1764.09   7
   2   4  13 17011.8 919.107   2
  -2   4 -13 19829.0 1712.56   9
   2   4  13 17904.9 1479.78   4
  -2   4 -14 24357.8 1968.71   7
   2  -4 -14 21987.2 1675.75   9
   2   4  14 19680.4 1548.02   1
  -2  -4  14 22300.0 1472.68   1
   2  -4 -14 20472.7 943.721   7
   2   4  14 20605.7 1645.25   4
  -2   4 -14 23718.2 1916.71   9
   2  -4 -15 48746.5 1630.44   7
  -2   4 -15 50247.4 2861.65   7
   2   4  15 49987.3 2518.36   1
  -2  -4  15 48920.4 2300.51   1
   2  -4 -15 50073.4 2561.81   9
  -2   4 -15 48473.5 2674.38   9
  -2  -4  15 44893.0 2775.76   2
   2   4  15 52556.3 2557.66   4
   2   4  16 4482.93 915.387   4
   2  -4 -16 5342.96 615.387   7
  -2   4 -16 5957.81 1293.38   7
   2  -4 -16 5463.45 1129.13   9
  -2  -4  16 4937.06 888.885   1
   2   4  16 5098.71 1050.72   1
  -2   4 -16 7194.71 1263.50   9
  -2  -4  16 4847.22 1283.38   2
   2   4  17 291.559 842.926   4
   2  -4 -17 801.892 438.022   7
  -2   4 -17 1334.56 1002.19   7
  -2   4 -17 260.473 827.196   9
  -2  -4  17 165.467 1066.96   2
   2   4  17-237.287 901.721   1
  -2  -4  17 1859.55 710.737   1
   2  -4 -17 1495.28 1052.07   9
  -2  -4  18 21925.3 2163.69   2
  -2   4 -18 22403.3 2165.96   7
  -2  -4  18 23167.5 1736.41   1
  -2   4 -18 21420.2 2038.26   9
   2  -4 -18 24133.1 1941.12   9
   2   4  18 19535.5 1792.21   1
   2   4  18 20876.9 1816.60   4
   2   4  19 6727.20 1194.88   4
   2   4  19 5768.46 1157.93   1
  -2  -4  19 3901.15 1268.33   2
  -2   4 -19 5935.70 1260.60   9
  -2   4 -19 6257.86 1345.09   7
   2  -4 -19 7893.02 1427.53   9
  -2  -4  19 8901.72 1226.07   1
   2   4  20 2902.03 1028.15   4
   2   4  20 3241.91 1054.14   1
  -2  -4  20 3141.07 1112.55   2
   2  -4 -20 4122.66 1243.88   9
  -2  -4  20 4196.91 1015.97   1
  -2   4 -20 1323.85 966.329   7
  -2   4 -20 4745.19 1390.74   9
  -2  -4  21 2644.13 1290.18   2
   2   4  21 2837.79 1069.51   4
  -2   4 -21 1347.82 1038.33   7
  -2  -4  21 1834.04 919.416   1
   2   4  21 1731.01 1062.39   1
  -2   4 -21 2536.59 1064.25   9
   2  -4 -21 1699.85 1177.76   9
   2   4  22 2995.39 1167.80   4
   2  -4 -22 2186.26 1241.45   9
  -2   4 -22 2381.23 1161.53   9
  -2   4 -22 2321.32 1261.03   7
   2   4  22 3061.22 1247.45   1
  -2  -4  22 331.211 971.715   2
  -2  -4  22 651.959 892.584   1
   2   4  23 2378.54 1040.58   4
  -2   4 -23 4631.57 1626.24   7
  -2  -4  23 2217.79 1344.41   2
  -2  -4  23 1953.91 926.101   1
   2   4  23 1822.37 1047.28   3
   2   4  23 1807.50 1240.89   1
   2  -4 -23 2814.57 1379.82   9
  -2   4 -23 10.7047 1155.58   9
  -2  -4  24 1244.26 1034.01   2
   2   4  24 3030.79 1283.30   4
  -2  -4  24 1840.28 920.584   1
   2   4  24 754.947 954.404   3
   2  -4 -24 14.0727 1289.59   9
   2   4  24-171.955 916.433   1
  -2   4 -24 4540.52 1598.76   7
  -2   4 -24 70.7269 1207.07   9
  -2  -4  25-216.264 1070.95   2
   2  -4 -25 3486.94 1528.38   9
  -2   4 -25 5449.18 1653.60   7
  -2  -4  25 2233.31 1072.52   1
   2   4  25 4006.91 1434.46   1
   2   4  25 352.859 1020.55   3
  -2   4 -25 1233.45 1193.49   9
   2   4  25 2346.01 1220.43   4
   2   4  26-2142.97 1096.65   4
  -2   4 -26-662.089 990.823   9
  -2  -5 -26 1812.76 1250.95   7
  -2  -5 -26 1990.76 1303.90   9
  -2  -5 -25 3001.16 1214.33   7
  -2  -5 -25 4184.32 1284.70   9
  -2   5  25 1949.80 1105.47   3
  -2   5  24 1631.24 1249.40   3
   2  -5  24-1332.03 1427.51   1
  -2  -5 -24-1065.49 1110.43   7
  -2  -5 -24 247.930 913.960   9
   2   5 -24-131.079 1172.60   9
   2   5 -23 7242.17 1548.46   9
  -2  -5 -23 3726.22 1220.14   7
  -2   5  23 6808.92 1615.89   3
  -2  -5 -23 3485.94 1094.98   9
   2  -5  23 5903.92 1611.07   1
  -2   5  22-382.558 932.551   3
  -2  -5 -22 823.989 846.180   7
   2  -5  22 308.204 1205.06   1
   2   5 -22-123.581 1064.87   9
  -2  -5 -22 255.876 850.541   9
  -2  -5 -21 734.960 830.672   7
  -2  -5 -21 1234.64 864.290   9
  -2   5  21 244.183 1099.05   3
   2  -5  21 1108.68 1244.28   1
   2   5 -21 27.7663 915.616   9
  -2  -5 -20 840.393 904.070   7
  -2   5  20-342.791 1244.30   3
   2   5 -20 1205.33 948.724   9
   2  -5  20 1062.88 1099.95   1
  -2  -5 -20 2480.09 942.499   9
  -2  -5 -19 19326.3 1676.82   9
   2   5 -19 18097.8 1972.70   9
  -2   5  19 17756.7 2042.52   3
  -2  -5 -19 17749.7 1672.58   7
   2  -5  19 15293.9 1769.01   1
  -2  -5 -18 1835.00 872.325   7
  -2  -5 -18 1707.05 904.579   9
  -2   5  18 2520.26 1205.18   3
   2   5 -18 869.872 1011.58   9
   2  -5  18 5117.72 1251.69   1
  -2  -5 -17 21849.1 1775.28   7
  -2   5  17 22995.7 2146.39   3
  -2  -5 -17 21152.6 1653.09   9
   2  -5  17 22254.8 2120.91   1
   2   5 -17 21913.5 1997.34   9
   2   5 -16 1681.83 888.798   9
  -2  -5 -16 1374.82 784.699   7
  -2   5  16 2205.07 1184.92   3
  -2  -5 -16 790.762 728.205   9
   2  -5  16 1508.02 902.100   1
  -2   5  16 2034.25 513.128   4
  -2  -5 -15 6401.64 1089.67   7
  -2  -5 -15 5122.70 922.282   9
  -2   5  15 6214.42 717.527   4
  -2   5  15 4431.32 1233.64   3
   2   5 -15 5531.00 1110.11   4
   2   5 -15 5589.52 1238.92   9
   2  -5  15 5727.12 1304.50   1
   2   5 -14 7276.84 1270.40   9
  -2  -5 -14 7593.56 1082.88   7
  -2   5  14 9526.25 1532.51   3
   2   5 -14 7228.89 1209.49   4
  -2  -5 -14 7894.19 1005.06   9
  -2   5  14 7914.10 790.111   4
   2  -5  14 5802.52 1123.19   1
  -2  -5 -13 10983.8 1109.31   9
   2  -5  13 11402.0 1511.05   1
   2   5 -13 13550.3 1514.96   9
  -2   5  13 10324.5 851.517   4
   2   5 -13 11224.7 1455.29   4
  -2  -5 -13 12100.3 1284.65   7
  -2  -5 -12 16993.3 1393.39   7
  -2   5  12 15237.9 1742.21   3
   2   5 -12 16448.9 1605.23   4
  -2   5  12 14893.6 1030.43   4
  -2  -5 -12 16170.7 1212.12   9
   2  -5  12 18141.0 1699.54   1
   2   5 -12 15943.0 1526.61   9
  -2  -5 -11 46737.5 2222.51   7
  -2   5  11 44123.5 2621.83   3
   2  -5  11 43870.2 2516.44   1
   2   5 -11 44788.4 2487.66   4
  -2   5  11 46497.1 1801.27   4
  -2  -5 -11 46104.6 1990.26   9
   2   5 -11 43689.6 2356.22   9
   2   5 -10 32098.5 1939.56   9
  -2  -5 -10 30467.6 1782.25   7
  -2   5  10 35632.6 2328.93   3
  -2  -5 -10 31913.7 1602.84   9
   2  -5  10 33074.1 2097.27   1
   2   5 -10 29423.4 2039.10   4
  -2   5  10 32874.3 1502.26   4
  -2  -5  -9 9138.19 1007.00   7
   2  -5   9 8039.77 1223.14   1
  -2   5   9 7845.86 1249.26   3
   2   5  -9 8222.23 1161.63   4
  -2  -5  -9 8019.69 837.360   9
  -2   5   9 7533.38 778.854   4
   2   5  -9 8577.01 1097.89   9
  -2  -5  -8 1866.73 735.213   7
  -2   5   8 2840.91 1030.06   3
   2   5  -8 1870.62 771.078   9
  -2  -5  -8 1202.37 523.104   9
   2   5  -8 1873.47 872.136   4
  -2   5   8 1948.37 539.742   4
   2  -5   8 2360.18 976.685   1
  -2   5   7 146276. 4845.33   3
  -2  -5  -7 144042. 4209.41   7
   2  -5   7 153202. 4717.45   1
   2   5  -7 149777. 4627.62   4
  -2   5   7 152684. 3897.75   4
  -2  -5  -7 150086. 3809.42   9
  -2  -5  -6 22923.4 1491.40   7
  -2   5   6 26797.6 1914.63   3
   2  -5   6 26268.2 1789.47   1
  -2   5   6 27653.4 1413.10   4
   2   5  -6 26241.4 1746.10   4
  -2  -5  -5 102411. 3308.85   7
  -2   5   5 103614. 3819.88   3
  -2  -5  -5 101029. 2675.18   2
   2  -5   5 106276. 3656.65   1
  -2   5   5 108907. 3153.39   4
   2   5  -5 106809. 3593.47   4
  -2  -5  -4 34242.0 1772.96   7
  -2   5   4 36514.4 2121.72   3
  -2  -5  -4 35115.3 1395.21   2
  -2   5   4 35794.2 1695.25   4
   2  -5   4 36136.2 2021.41   1
   2   5  -4 35080.1 1938.26   4
  -2   5   3 14555.3 584.020   7
  -2  -5  -3 14551.4 1189.39   7
   2  -5   3 13313.9 1244.67   1
  -2   5   3 15859.3 1440.14   3
  -2  -5  -3 15058.3 918.492   2
  -2   5   3 15108.7 1136.51   4
   2   5  -3 15461.0 1261.29   4
   2  -5   2 7418.65 997.319   1
  -2   5   2 5976.26 897.412   3
  -2  -5  -2 7458.66 701.137   2
  -2  -5  -2 6715.50 888.044   7
   2   5  -2 7400.97 984.601   4
  -2   5   2 6390.29 435.985   7
  -2   5   2 6793.14 834.204   4
  -2   5   1 221258. 4639.84   7
  -2   5   1 243582. 6037.25   3
  -2  -5  -1 237004. 5777.68   7
  -2  -5  -1 239845. 5222.43   2
  -2   5   1 239688. 5762.73   4
   2   5  -1 238376. 5876.43   4
   2  -5   1 251321. 6095.97   1
  -2  -5   0 11519.8 1115.12   7
  -2  -5   0 10935.9 897.156   1
  -2   5   0 10726.1 687.226   7
  -2   5   0 13632.2 1193.11   3
   2   5   0 11874.4 1164.70   4
  -2  -5   0 11616.5 928.699   2
  -2   5   0 12531.1 1133.60   4
   2  -5   0 13292.5 1219.10   1
  -2   5  -1 239248. 5807.83   3
  -2  -5   1 238629. 5413.46   1
  -2   5  -1 235764. 5901.02   4
  -2  -5   1 233560. 5400.22   2
   2   5   1 233419. 5833.06   4
   2  -5  -1 235642. 5878.68   1
  -2   5  -2 5606.25 792.283   3
  -2   5  -2 5994.53 944.930   4
  -2  -5   2 4672.14 662.790   1
   2  -5  -2 5215.50 891.206   1
   2   5   2 4705.77 840.561   4
  -2  -5   2 4732.63 716.033   2
  -2  -5   3 13929.2 1105.40   2
   2   5   3 13709.8 1189.63   4
  -2   5  -3 11577.4 978.688   3
   2  -5  -3 11651.0 1126.96   1
   2   5   3 11910.9 868.720   2
  -2  -5   3 13413.5 1007.88   1
  -2   5  -3 13066.4 1250.84   4
   2  -5  -4 32919.5 1208.30   2
   2  -5  -4 31109.6 1734.67   1
  -2   5  -4 34332.6 1934.47   4
  -2  -5   4 30668.6 1678.71   2
   2   5   4 29705.6 1343.39   2
   2   5   4 29992.7 1726.04   4
  -2  -5   4 32749.8 1588.32   1
  -2   5  -4 32073.3 1514.47   3
  -2   5  -5 97491.7 2774.67   3
   2  -5  -5 94335.8 2330.69   2
  -2   5  -5 96366.7 3476.98   4
  -2  -5   5 97236.9 3280.39   2
  -2  -5   5 99503.7 3021.07   1
   2   5   5 89757.9 2569.17   2
   2   5   5 99432.4 3313.84   4
   2  -5  -5 93035.3 2662.96   4
  -2   5  -6 23561.7 1159.82   3
   2  -5  -6 23154.7 917.405   2
  -2  -5   6 26896.5 1488.50   1
  -2  -5   6 24317.9 1616.20   2
   2   5   6 22548.0 1077.30   2
   2   5   6 24189.9 1570.33   4
   2  -5  -6 23535.3 1172.11   4
  -2   5  -7 138580. 3220.58   3
  -2  -5   7 149111. 3914.42   1
   2  -5  -7 132008. 2857.61   2
  -2  -5   7 140650. 4300.30   2
   2   5   7 127366. 3163.43   2
   2   5   7 138784. 4103.87   4
   2  -5  -7 126672. 3299.25   4
   2   5   8 709.688 275.589   2
  -2  -5   8 641.920 632.048   2
   2  -5  -8 633.802 356.450   4
  -2   5  -8 782.389 296.619   3
  -2  -5   8 1126.00 541.956   1
   2   5   8 857.537 696.896   4
   2  -5  -8 925.617 229.745   2
  -2  -5   9 7714.63 1135.81   2
  -2   5  -9 7183.94 432.887   3
  -2  -5   9 6382.91 878.773   1
   2  -5  -9 6103.51 401.548   2
   2   5   9 7558.58 1067.30   4
   2   5   9 6228.14 534.281   2
  -2  -5  10 32200.2 1736.00   1
   2   5  10 32939.2 1906.53   4
   2   5  10 27567.3 1099.46   2
  -2  -5  10 27873.5 1981.41   2
   2  -5 -10 28406.1 1862.85   9
  -2  -5  11 47395.6 2182.65   1
   2  -5 -11 50385.8 2453.56   9
  -2  -5  11 45529.4 2610.73   2
   2   5  11 45284.4 2332.95   4
  -2   5 -11 46636.5 2569.81   7
   2  -5 -12 16340.7 649.430   7
  -2  -5  12 16592.8 1689.35   2
  -2   5 -12 17134.4 1691.70   7
  -2  -5  12 20642.7 1438.28   1
   2  -5 -12 18359.9 1586.36   9
   2   5  12 18508.0 1587.11   4
  -2  -5  13 11833.2 1199.84   1
  -2   5 -13 14965.2 1665.44   7
   2  -5 -13 13644.8 1453.73   9
  -2  -5  13 10556.5 1442.59   2
   2   5  13 13338.6 1412.58   4
  -2   5 -14 7164.29 1276.70   7
   2  -5 -14 7193.40 1142.38   9
  -2  -5  14 8113.34 1340.09   2
  -2  -5  14 9307.53 1110.41   1
   2   5  14 10083.1 1327.71   4
  -2  -5  15 4661.71 913.335   1
   2  -5 -15 6291.27 1203.02   9
  -2  -5  15 5149.90 1232.00   2
  -2   5 -15 4915.62 1177.84   7
   2   5  15 5877.66 1134.23   4
  -2  -5  16 1473.27 1043.31   2
  -2   5 -16 3136.26 1047.85   7
  -2  -5  16 2578.46 820.351   1
   2  -5 -16 3709.99 1126.23   9
   2   5  16 1388.65 790.536   4
  -2  -5  17 21804.4 2192.17   2
  -2   5 -17 24847.9 2245.60   7
  -2  -5  17 25102.7 1800.01   1
   2   5  17 25289.8 1967.66   4
  -2   5 -17 24527.5 2154.06   9
   2  -5 -17 27945.2 2134.43   9
   2   5  18 2865.23 1076.49   4
  -2  -5  18 3319.31 1232.57   2
  -2   5 -18 5241.98 1408.52   7
  -2   5 -18 5402.49 1388.67   9
  -2  -5  18 4427.84 1011.50   1
   2  -5 -18 4321.41 1254.78   9
   2   5  19 16999.0 1785.89   4
  -2  -5  19 17067.9 1969.50   2
  -2   5 -19 20507.8 2073.96   9
  -2   5 -19 18016.2 2141.14   7
  -2  -5  19 19271.1 1692.26   1
   2  -5 -19 20899.0 2027.06   9
   2   5  20 868.938 879.619   4
  -2  -5  20 1853.42 1260.15   2
  -2   5 -20 1173.97 1277.51   7
  -2  -5  20 242.816 800.804   1
  -2   5 -20 341.235 995.881   9
   2  -5 -20 2408.99 1152.91   9
   2   5  21 628.855 996.842   4
  -2   5 -21-1204.91 1217.55   7
  -2  -5  21 624.693 877.009   1
  -2   5 -21 1277.94 1255.12   9
  -2  -5  21 693.503 1082.25   2
   2  -5 -21 2085.30 968.562   9
  -2  -5  22 913.653 1146.33   2
  -2   5 -22 988.264 1114.61   7
   2  -5 -22 363.779 1081.18   9
  -2   5 -22 1467.89 1270.18   9
  -2  -5  22-429.835 913.929   1
   2   5  22 991.887 1062.99   4
   2   5  23 4851.52 1250.27   4
  -2  -5  23 5003.43 1370.62   2
  -2   5 -23 3955.67 1301.00   7
   2  -5 -23 3949.25 1453.26   9
  -2  -5  23 4376.30 1103.98   1
  -2   5 -23 5058.44 1363.71   9
   2  -5 -24-1385.07 1293.44   9
  -2  -5  24-775.525 1386.08   2
  -2   5 -24-111.570 1401.17   7
  -2   5 -24 2636.24 1305.63   9
   2   5  24 185.143 1096.67   3
  -2  -5  24-1524.14 1029.46   1
   2   5  24 364.436 905.870   4
   2   5  25 1714.97 982.914   4
   2   5  25 3965.90 1231.07   3
   2   5  26-667.521 1128.18   3
  -2  -6 -25 3148.42 1268.03   7
  -2  -6 -25 728.746 1079.32   9
  -2  -6 -24 4633.56 1344.88   7
  -2  -6 -24-742.000 1181.32   9
  -2  -6 -23 2978.91 1120.62   7
  -2   6  23 3816.77 1479.03   3
   2  -6  23 2085.07 1586.52   1
  -2  -6 -23 498.676 1049.55   9
   2   6 -23 952.390 1277.11   9
  -2  -6 -22 2256.08 1017.06   7
  -2   6  22 2352.72 1292.86   3
   2  -6  22 4286.81 1611.48   1
  -2  -6 -22 1238.96 1021.74   9
   2   6 -22-529.390 1288.90   9
  -2  -6 -21 72.2171 900.832   9
  -2  -6 -21 638.915 1010.94   7
  -2   6  21 470.202 984.020   3
   2  -6  21 1790.04 1302.33   1
   2   6 -21 226.438 1201.49   9
  -2  -6 -20 3948.14 1081.11   7
  -2   6  20 2605.06 1321.30   3
   2  -6  20 3190.68 1227.16   1
  -2  -6 -20 2974.24 993.230   9
   2   6 -20 4928.42 1446.47   9
  -2  -6 -19 526.240 928.615   7
   2  -6  19 157.030 944.898   1
  -2  -6 -19 401.789 832.488   9
  -2   6  19 1367.09 1145.53   3
   2   6 -19 1329.05 1279.40   9
  -2  -6 -18 7027.98 1191.73   7
  -2   6  18 4974.15 1359.07   3
   2   6 -18 8052.41 1463.24   9
  -2  -6 -18 5301.27 1134.20   9
  -2  -6 -17 3497.40 1006.29   7
  -2   6  17 3409.75 1454.57   3
  -2  -6 -17 3404.93 982.919   9
   2  -6  17 6097.01 1358.30   1
   2   6 -17 4441.39 1335.33   9
  -2  -6 -16 5684.33 1136.18   7
  -2   6  16 6626.55 1588.51   3
   2   6 -16 5391.68 1336.32   9
   2   6 -16 6814.82 1370.25   4
  -2  -6 -16 5842.68 1053.89   9
   2  -6  16 4426.26 1109.42   1
  -2  -6 -15 3989.74 1059.25   7
   2   6 -15 3715.27 1158.28   9
  -2   6  15 4293.42 1328.05   3
   2   6 -15 4551.53 1198.43   4
  -2  -6 -15 3567.19 904.448   9
  -2   6  15 4305.26 771.424   4
   2  -6  15 4008.34 1307.83   1
  -2  -6 -14 11597.3 1304.85   7
  -2   6  14 10773.5 1008.91   4
   2   6 -14 11271.4 1554.64   9
  -2   6  14 12841.0 1753.28   3
   2  -6  14 10612.3 1491.59   1
   2   6 -14 11879.4 1534.48   4
  -2  -6 -14 10739.3 1188.76   9
   2  -6  13 4219.49 1207.42   1
  -2  -6 -13 1569.13 732.935   7
  -2  -6 -13 2548.14 791.884   9
  -2   6  13 5290.87 1286.34   3
   2   6 -13 4625.87 1230.53   4
   2   6 -13 3124.41 1015.39   9
  -2   6  13 2555.03 624.935   4
  -2  -6 -12 50430.0 2483.58   7
  -2   6  12 51102.3 3078.62   3
  -2  -6 -12 48974.9 2262.62   9
   2  -6  12 53947.6 2979.44   1
   2   6 -12 51738.7 2897.38   4
  -2   6  12 50892.7 2169.53   4
   2   6 -12 49825.0 2737.05   9
  -2  -6 -11 4072.07 968.236   7
   2  -6  11 5411.75 1225.66   1
  -2   6  11 3596.64 1167.81   3
  -2  -6 -11 3812.48 786.417   9
   2   6 -11 2748.87 990.025   4
  -2   6  11 4533.49 794.622   4
  -2  -6 -10 27633.2 1824.45   7
  -2   6  10 27565.6 2228.09   3
   2  -6  10 27906.5 2070.81   1
   2   6 -10 31324.8 2184.74   4
  -2   6  10 28091.9 1551.89   4
  -2  -6 -10 29348.2 1684.41   9
  -2  -6  -9 22714.5 1623.94   7
  -2   6   9 22814.3 2089.79   3
   2  -6   9 26210.5 1968.53   1
   2   6  -9 23554.6 1888.17   4
  -2   6   9 21555.3 1384.96   4
  -2  -6  -9 23250.5 1432.39   9
  -2  -6  -8 3312.97 825.768   7
  -2   6   8 3238.25 684.445   4
  -2   6   8 3749.76 1165.02   3
   2  -6   8 3945.43 987.121   1
  -2  -6  -8 3354.10 688.156   9
   2   6  -8 3909.08 1095.08   4
  -2   6   7 11164.0 1524.08   3
   2   6  -7 14469.1 1582.80   4
   2  -6   7 13612.8 1451.42   1
  -2   6   7 13126.0 1134.09   4
  -2  -6  -7 13566.0 1314.70   7
  -2  -6  -6 96718.4 3419.48   7
  -2   6   6 95540.0 3962.30   3
   2  -6   6 102510. 3857.47   1
  -2   6   6 103554. 3321.15   4
   2   6  -6 104521. 3893.86   4
  -2   6   5 4970.36 355.363   7
   2   6  -5 4868.53 1047.68   4
  -2  -6  -5 5165.43 943.607   7
  -2   6   5 6550.69 1111.67   3
  -2  -6  -5 5408.31 609.671   2
  -2   6   5 5626.54 867.709   4
   2  -6   5 6564.97 1114.06   1
  -2  -6  -4 78944.4 2987.51   7
  -2   6   4 78296.2 1894.46   7
  -2   6   4 81930.9 3481.58   3
  -2  -6  -4 80113.5 2357.14   2
  -2   6   4 85136.9 3001.79   4
   2  -6   4 77912.5 3297.15   1
   2   6  -4 79652.8 3261.37   4
  -2  -6  -3 2443.33 833.085   7
   2  -6   3 3000.97 928.986   1
  -2   6   3 2584.32 347.076   7
  -2   6   3 3559.37 1041.39   3
  -2   6   3 3166.30 787.610   4
   2   6  -3 1841.95 686.602   4
  -2  -6  -3 3007.85 540.727   2
  -2   6   2 29085.6 1102.81   7
  -2  -6  -2 31009.2 1843.58   7
  -2   6   2 30980.9 2037.11   3
  -2  -6  -2 28677.2 1375.27   2
  -2   6   2 30591.6 1805.94   4
   2   6  -2 29108.2 1919.85   4
   2  -6   2 28719.6 1894.45   1
  -2   6   1 26618.8 1126.51   7
  -2   6   1 27537.0 1883.11   3
  -2  -6  -1 26660.7 1383.79   2
  -2   6   1 25195.0 1683.87   4
   2   6  -1 27215.4 1824.21   4
   2  -6   1 29419.6 1919.60   1
  -2  -6  -1 28505.0 1574.84   1
  -2   6   0 55251.5 2584.18   3
  -2   6   0 49999.3 1763.05   7
   2  -6   0 58245.8 2675.32   1
  -2  -6   0 57529.9 2132.70   2
  -2   6   0 57250.4 2548.43   4
   2   6   0 54384.0 2546.94   4
  -2  -6   0 52700.7 2215.55   1
  -2   6  -1 29870.6 1811.61   3
  -2   6  -1 25747.3 1275.07   7
  -2   6  -1 27802.1 1809.39   4
  -2  -6   1 26059.7 1491.48   2
   2   6   1 26297.4 1737.74   4
   2  -6  -1 28925.6 1879.85   1
  -2  -6   1 28607.5 1600.42   1
  -2  -6   2 29387.0 1616.87   1
   2  -6  -2 29656.9 1868.33   1
  -2   6  -2 32564.8 1999.24   4
  -2  -6   2 31001.9 1664.60   2
   2   6   2 28223.8 1840.43   4
  -2   6  -2 31035.0 1782.32   3
   2  -6  -3 2216.28 787.507   1
  -2   6  -3 3131.85 742.194   3
  -2   6  -3 3751.85 853.091   4
  -2  -6   3 2132.69 612.928   1
   2   6   3 2719.62 885.903   4
  -2  -6   3 2622.09 709.185   2
  -2   6  -4 77954.3 2759.85   3
   2  -6  -4 75472.1 3071.60   1
   2  -6  -4 76409.5 2134.65   2
  -2   6  -4 83513.9 3360.23   4
  -2  -6   4 74145.7 2841.12   2
   2   6   4 77623.3 3089.69   4
  -2  -6   4 83194.3 2914.52   1
  -2   6  -5 11357.5 1369.31   4
  -2  -6   5 9065.55 991.711   1
  -2   6  -5 9837.27 958.259   3
   2  -6  -5 9196.33 608.655   2
   2   6   5 9129.46 1143.92   4
   2  -6  -5 8329.66 1130.98   1
  -2  -6   5 11346.1 1219.62   2
  -2   6  -6 112102. 3213.40   3
   2  -6  -6 110565. 2563.12   2
  -2   6  -6 119670. 4225.61   4
  -2  -6   6 120605. 3730.53   1
  -2  -6   6 108773. 3814.90   2
   2   6   6 115159. 3870.51   4
  -2   6  -7 10476.1 851.273   3
   2  -6  -7 9203.75 494.748   2
   2   6   7 11073.1 1236.32   4
  -2  -6   7 11767.8 1172.46   1
  -2  -6   7 11346.5 1299.54   2
   2   6   8 5357.67 1034.83   4
  -2   6  -8 6158.68 596.621   3
  -2  -6   8 4895.45 844.824   1
  -2  -6   8 6432.79 1064.86   2
  -2   6  -9 20628.4 927.853   3
  -2  -6   9 21820.8 1551.06   1
  -2  -6   9 19236.9 1716.65   2
   2   6   9 21675.1 1696.30   4
   2  -6 -10 27792.2 1962.40   9
  -2  -6  10 28954.6 1807.36   1
  -2  -6  10 25894.6 2004.19   2
   2   6  10 29050.1 1955.32   4
  -2  -6  11 4587.56 1191.18   2
  -2  -6  11 2418.46 784.148   1
   2  -6 -11 4690.51 1079.42   9
   2   6  11 3460.96 1006.50   4
  -2  -6  12 54564.6 2528.32   1
  -2  -6  12 51979.6 2968.11   2
   2   6  12 47477.4 2565.93   4
   2  -6 -12 52828.1 2741.32   9
  -2  -6  13 2713.66 1114.83   2
   2  -6 -13 2440.97 1090.19   9
  -2   6 -13 3902.07 1221.88   7
  -2  -6  13 5304.95 1010.48   1
   2   6  13 4419.72 1021.91   4
  -2  -6  14 8832.50 1374.24   2
  -2   6 -14 14500.3 1784.30   7
   2  -6 -14 11669.6 1509.76   9
  -2  -6  14 12979.5 1365.93   1
   2   6  14 14485.2 1536.66   4
  -2  -6  15 4535.78 1227.66   2
   2   6  15 4286.36 1061.97   4
  -2   6 -15 4188.19 1313.31   7
   2  -6 -15 4550.51 1152.95   9
  -2  -6  15 3895.00 922.100   1
  -2  -6  16 7103.04 1441.63   2
  -2  -6  16 4132.59 953.553   1
  -2   6 -16 3288.13 1115.10   7
   2  -6 -16 4497.97 1280.88   9
   2   6  16 4044.01 1015.22   4
  -2  -6  17 1745.65 1212.36   2
  -2   6 -17 2131.71 1116.46   7
   2  -6 -17 2690.31 1021.37   9
  -2  -6  17 2034.66 871.445   1
   2   6  17 3359.32 1158.87   4
  -2  -6  18 5672.73 1326.88   2
  -2   6 -18 7209.09 1678.38   7
   2  -6 -18 8332.54 1474.55   9
  -2  -6  18 4891.69 1051.56   1
   2   6  18 4307.10 1128.72   4
   2  -6 -19 550.805 1106.47   9
  -2  -6  19-322.295 812.742   1
  -2  -6  19 360.402 931.785   2
   2   6  19 2237.39 1059.71   4
  -2  -6  20 2179.48 1374.10   2
  -2   6 -20 3357.02 1351.02   7
   2  -6 -20 3759.80 1203.69   9
  -2  -6  20 5358.20 1195.09   1
   2   6  20 5309.70 1177.71   4
  -2  -6  21-1854.08 1381.67   2
  -2   6 -21 1938.78 1144.85   7
   2  -6 -21 1235.90 1149.14   9
  -2  -6  21 851.848 866.021   1
   2   6  21 1188.49 1092.56   4
  -2  -6  22 2312.66 1250.55   2
  -2   6 -22 3908.07 1510.96   7
  -2  -6  22 2863.32 1062.21   1
   2   6  22 1286.55 1087.30   4
   2  -6 -22 3550.62 1544.43   9
   2  -6 -23 1786.33 1385.24   9
  -2   6 -23 2592.62 1565.81   7
   2   6  23 1332.20 1187.18   4
   2   6  24 615.518 1166.85   3
   2   6  24 1902.79 1235.27   4
   2   6  25 312.034 1264.38   3
  -2  -7 -22 1394.74 1044.87   7
  -2  -7 -22 1232.04 951.593   9
  -2  -7 -21-2303.83 1124.17   7
   2  -7  21 1063.86 1061.42   1
  -2   7  21-1453.73 1185.31   3
  -2  -7 -21 1088.49 1036.75   9
   2   7 -21 697.910 1021.80   9
  -2  -7 -20 5063.33 1217.45   7
  -2   7  20 6585.67 1634.33   3
   2  -7  20 9712.57 1849.86   1
  -2  -7 -20 6739.69 1251.90   9
   2   7 -20 8214.21 1765.67   9
  -2   7  19 331.633 1223.28   3
  -2  -7 -19-493.125 873.902   7
   2   7 -19 932.566 1025.19   9
   2  -7  19-326.106 1209.79   1
  -2  -7 -19-198.629 878.022   9
  -2  -7 -18 3892.31 1153.73   7
   2  -7  18 3695.59 1397.28   1
  -2   7  18 3947.84 1418.72   3
  -2  -7 -18 2026.89 969.216   9
   2   7 -18 4663.88 1433.54   9
   2  -7  17 5573.82 1302.76   1
  -2  -7 -17 5975.72 1173.00   9
  -2   7  17 4791.63 1491.86   3
  -2  -7 -17 5703.60 1162.14   7
  -2  -7 -16 2066.30 941.120   7
   2   7 -16 2818.28 1331.51   4
  -2   7  16 767.604 1096.96   3
   2  -7  16 2950.60 1264.29   1
  -2  -7 -16 1788.37 819.061   9
   2  -7  15 838.709 994.157   1
  -2  -7 -15 4586.00 1009.90   7
   2   7 -15 2717.83 1081.17   4
  -2   7  15 6585.26 1510.99   3
  -2  -7 -15 3349.49 937.769   9
   2  -7  14 9786.55 1597.22   1
  -2  -7 -14 12224.2 1464.86   7
  -2   7  14 11735.5 1737.24   3
   2   7 -14 13510.8 1812.89   4
  -2  -7 -14 10224.9 1261.69   9
  -2  -7 -13 7274.39 1147.04   7
   2  -7  13 9886.85 1513.06   1
  -2   7  13 8364.48 1631.88   3
   2   7 -13 8618.85 1567.08   4
  -2   7  13 5130.03 830.598   4
  -2  -7 -13 6784.88 1075.79   9
   2  -7  12-651.861 1103.70   1
  -2   7  12 1199.48 1309.92   3
   2   7 -12 1965.41 952.108   4
  -2   7  12 2208.29 704.195   4
  -2  -7 -12 2038.89 847.892   7
  -2  -7 -12 1542.14 688.530   9
  -2  -7 -11 4619.21 925.963   7
  -2   7  11 7087.84 1005.74   4
  -2   7  11 8756.64 1574.01   3
   2  -7  11 6563.88 1297.17   1
   2   7 -11 7830.84 1386.25   4
  -2  -7 -11 4435.85 880.485   9
  -2  -7 -10 8120.89 1155.09   7
   2  -7  10 6536.93 1254.92   1
  -2   7  10 4992.06 1281.82   3
  -2  -7 -10 6083.51 943.218   9
   2   7 -10 6899.85 1458.14   4
  -2   7  10 6749.06 977.550   4
  -2  -7  -9 11836.1 1343.60   7
  -2  -7  -9 13958.1 1246.05   9
  -2   7   9 14424.6 1838.74   3
   2  -7   9 11973.6 1619.77   1
   2   7  -9 11321.4 1638.62   4
  -2   7   9 14115.1 1275.59   4
  -2  -7  -8 6215.91 1075.59   7
  -2   7   8 4718.27 1198.82   3
   2  -7   8 8287.08 1374.18   1
   2   7  -8 5296.10 1258.48   4
  -2   7   8 6107.96 956.381   4
  -2  -7  -7 15132.0 1441.94   7
  -2   7   7 14727.5 1770.24   3
  -2   7   7 16317.7 1395.10   4
   2  -7   7 16678.1 1667.55   1
   2   7  -7 12458.6 1456.78   4
  -2  -7  -6 11760.1 1307.99   7
   2  -7   6 12130.9 1480.51   1
  -2   7   6 12774.8 1713.94   3
  -2   7   6 14782.8 1338.08   4
   2   7  -6 14297.4 1654.29   4
  -2  -7  -5 7898.06 1130.01   7
  -2   7   5 6845.62 1422.22   3
  -2  -7  -5 8159.18 738.416   2
  -2   7   5 9891.29 1168.09   4
   2   7  -5 9265.35 1349.91   4
   2  -7   5 7828.52 1278.60   1
  -2  -7  -4 47614.8 2443.21   7
  -2   7   4 50683.4 2921.05   3
  -2  -7  -4 50348.1 1845.18   2
  -2   7   4 52690.7 2526.31   4
   2   7  -4 53934.6 2830.18   4
   2  -7   4 55231.6 2864.99   1
  -2   7   3 832.156 714.603   4
   2  -7   3 314.248 898.604   1
   2   7  -3 260.901 777.951   4
  -2  -7  -3 556.858 437.651   2
  -2   7   3 996.102 769.080   3
  -2   7   2 41864.4 2592.37   3
  -2  -7  -2 37500.5 1666.85   2
  -2   7   2 37380.4 2166.97   4
   2   7  -2 34669.2 2275.73   4
   2  -7   2 40238.9 2436.55   1
  -2  -7  -2 35054.8 1969.04   1
  -2  -7  -1 10500.1 936.872   2
  -2   7   1 10944.2 1313.29   4
  -2   7   1 9988.67 1369.87   3
   2  -7   1 9347.11 1357.62   1
   2   7  -1 8850.00 1320.60   4
  -2  -7  -1 9741.54 1100.43   1
  -2  -7   0 1214.06 707.761   1
  -2   7   0 561.539 784.531   4
  -2   7   0-173.422 722.107   3
  -2  -7   0 589.669 499.486   2
   2  -7   0 583.689 761.684   1
   2   7   0 719.905 740.428   4
   2  -7  -1 11669.5 1371.88   1
  -2   7  -1 10509.1 1243.05   3
  -2  -7   1 10250.9 1149.72   1
   2   7   1 8857.01 1287.62   4
  -2  -7   1 9340.29 989.026   2
  -2   7  -1 8821.58 1223.16   4
  -2   7  -2 32207.0 2022.71   3
  -2   7  -2 31973.4 2142.67   4
  -2  -7   2 33991.0 1842.17   2
   2   7   2 32316.9 2091.98   4
  -2  -7   2 33786.4 1944.56   1
   2  -7  -2 36288.5 2310.66   1
  -2   7  -3 300.590 615.711   3
  -2  -7   3 1623.87 730.868   1
   2  -7  -3-68.2707 904.607   1
  -2   7  -3 902.174 729.587   4
  -2  -7   3 367.330 617.678   2
   2   7   3 263.114 835.949   4
  -2   7  -4 52919.4 2390.36   3
  -2   7  -4 51424.2 2790.54   4
  -2  -7   4 47640.1 2354.73   2
   2   7   4 51562.3 2668.20   4
  -2  -7   4 54846.6 2529.48   1
   2  -7  -4 50051.2 2650.90   1
  -2  -7   5 5379.20 992.603   1
   2   7   5 3461.44 995.411   4
  -2   7  -5 4675.84 831.768   3
   2  -7  -5 5252.50 1100.98   1
  -2   7  -5 3411.45 1040.45   4
  -2  -7   5 4954.04 974.859   2
  -2   7  -6 11250.0 1042.49   3
   2  -7  -6 11471.3 1374.55   1
   2   7   6 12160.0 1455.63   4
  -2  -7   6 9944.50 1265.30   2
  -2   7  -6 10527.2 1415.64   4
  -2  -7   6 13467.8 1350.59   1
  -2   7  -7 13156.2 1618.25   4
   2   7   7 13049.7 1512.24   4
   2  -7  -7 11364.9 1349.79   1
  -2   7  -7 11831.5 1000.59   3
  -2  -7   7 11506.8 1264.21   1
  -2  -7   7 11854.4 1365.06   2
  -2   7  -8 10307.2 892.428   3
  -2  -7   8 9052.95 1117.62   1
   2   7   8 9852.40 1366.09   4
  -2  -7   8 9626.72 1338.00   2
  -2  -7   9 16642.8 1509.07   1
   2   7   9 14193.2 1478.49   4
  -2  -7   9 13258.9 1526.62   2
  -2  -7  10 6765.25 1006.07   1
  -2  -7  10 6752.59 1323.29   2
   2   7  10 6306.29 1236.05   4
  -2  -7  11 5612.94 1209.70   2
   2   7  11 5879.72 1130.38   4
  -2  -7  11 6206.00 1100.23   1
   2  -7 -11 7149.90 1396.06   9
  -2  -7  12 1910.87 878.148   1
   2   7  12 2398.28 926.907   4
   2  -7 -12 1737.39 861.214   9
  -2  -7  12 1182.28 1034.76   2
  -2  -7  13 7539.68 1243.86   1
   2  -7 -13 9283.78 1404.78   9
   2   7  13 7934.03 1338.63   4
  -2  -7  13 8181.34 1428.27   2
  -2  -7  14 11620.4 1715.16   2
  -2  -7  14 12544.6 1445.27   1
  -2   7 -14 14683.1 1924.42   7
   2   7  14 15353.9 1753.92   4
   2  -7 -14 13563.1 1670.19   9
  -2   7 -15 5532.76 1553.06   7
  -2  -7  15 4641.01 1073.67   1
   2  -7 -15 5372.90 1255.43   9
  -2  -7  15 2478.58 1161.76   2
   2   7  15 3611.05 1160.24   4
  -2  -7  16 2344.65 1200.07   2
  -2  -7  16 2293.57 955.419   1
  -2   7 -16 3150.90 1376.02   7
   2  -7 -16 2557.61 1267.07   9
   2   7  16 1900.47 944.340   4
  -2  -7  17 6957.98 1457.42   2
  -2  -7  17 6291.27 1166.43   1
  -2   7 -17 6137.26 1408.67   7
   2  -7 -17 6845.34 1465.10   9
   2   7  17 5690.41 1251.37   4
  -2   7 -18 6143.94 1537.38   7
   2   7  18 1426.93 1072.55   4
  -2  -7  18 4342.04 1288.14   2
  -2  -7  18 4680.65 1180.67   1
   2  -7 -18 4297.70 1306.93   9
  -2  -7  19 2478.41 1463.34   2
  -2   7 -19-1239.85 1328.26   7
   2  -7 -19-711.955 1238.06   9
  -2  -7  19-1537.30 1040.41   1
   2   7  19 542.321 923.956   4
  -2  -7  20 6098.75 1640.76   2
   2   7  20 7174.72 1439.52   4
   2  -7 -20 7475.41 1611.29   9
  -2  -7  20 8434.99 1439.09   1
  -2   7 -20 5806.03 1626.93   7
  -2  -7  21-1804.27 1261.91   2
   2  -7 -21-797.104 1042.87   9
  -2   7 -21 1203.60 1231.20   7
  -2  -7  21 941.097 979.563   1
   2   7  21-1172.66 1203.67   4
   2   7  22 1438.34 979.015   4
  -2  -8 -19 139.277 954.694   7
  -2  -8 -19-518.871 1105.19   9
  -2  -8 -18 138.381 886.593   7
   2  -8  18 392.256 1286.24   1
  -2   8  18 400.339 1489.44   3
  -2  -8 -18-484.305 943.062   9
  -2  -8 -17 1637.68 929.716   7
   2  -8  17 2357.92 1372.30   1
  -2   8  17 1541.55 1520.57   3
  -2  -8 -17 281.540 951.172   9
   2   8 -17 1806.61 1311.12   4
   2  -8  16 917.295 996.262   1
  -2  -8 -16 604.828 868.118   7
  -2   8  16 2323.32 1572.00   3
   2   8 -16-631.853 1082.36   4
  -2  -8 -16 166.507 807.990   9
  -2  -8 -15 9045.42 1359.49   7
   2  -8  15 10501.2 1766.42   1
  -2   8  15 9119.21 1656.22   3
   2   8 -15 8888.77 1778.56   4
  -2  -8 -15 6948.50 1245.43   9
  -2  -8 -14-946.837 1020.60   7
   2  -8  14 1393.09 1136.40   1
  -2   8  14 509.446 1088.86   3
  -2  -8 -14 1573.39 879.013   9
   2   8 -14 1739.83 1143.96   4
  -2  -8 -13 8405.43 1255.93   7
   2  -8  13 7738.45 1574.51   1
  -2  -8 -13 9952.89 1310.74   9
   2   8 -13 9627.13 1701.68   4
  -2   8  13 11786.8 1873.64   3
  -2  -8 -12 1519.98 963.581   7
   2  -8  12 2215.19 1283.62   1
  -2   8  12 2945.39 1471.83   3
  -2  -8 -12 1182.25 783.383   9
   2   8 -12 3170.81 1309.11   4
   2  -8  11 3064.47 1128.05   1
  -2  -8 -11 3282.48 943.426   9
  -2   8  11 3673.84 1329.02   3
   2   8 -11 3291.52 1356.18   4
  -2  -8 -11 2834.88 910.464   7
  -2   8  11 3091.43 827.047   4
  -2  -8 -10 726.576 809.648   7
   2  -8  10 1905.21 1185.79   1
  -2   8  10 2304.06 1233.34   3
  -2  -8 -10 916.166 722.197   9
  -2   8  10 1491.84 758.339   4
   2   8 -10 1288.66 1002.60   4
  -2   8   9 37035.1 2872.68   3
   2  -8   9 39841.2 2741.25   1
   2   8  -9 40133.9 2788.71   4
  -2   8   9 35448.3 2164.68   4
  -2  -8  -9 36065.1 2125.49   9
  -2  -8  -9 33823.2 2210.35   7
  -2  -8  -8 2534.40 989.467   7
  -2   8   8 3397.47 1320.50   3
  -2   8   8 2895.19 873.815   4
   2   8  -8 2632.79 1115.46   4
   2  -8   8 3456.92 1274.22   1
  -2  -8  -7 30137.7 2104.71   7
  -2   8   7 31162.7 2564.46   3
   2  -8   7 32129.8 2410.66   1
   2   8  -7 33112.8 2503.85   4
  -2   8   7 28283.3 1983.61   4
  -2  -8  -6 198.446 834.734   7
  -2   8   6 2502.69 1392.47   3
   2  -8   6-188.969 833.054   1
  -2   8   6-1151.51 780.254   4
   2   8  -6 423.512 995.807   4
   2  -8   5 3936.49 1201.81   1
  -2   8   5 4126.58 977.062   4
  -2   8   5 5115.11 1310.16   3
   2   8  -5 4061.53 1200.57   4
   2  -8   4 9804.51 1508.21   1
  -2   8   4 10135.4 1618.26   3
  -2  -8  -4 10256.0 869.215   2
   2   8  -4 13703.0 1696.32   4
  -2   8   4 9147.46 1258.48   4
  -2   8   3 29613.3 2352.70   3
  -2  -8  -3 30227.3 1494.90   2
  -2  -8  -3 27552.1 1946.95   1
  -2   8   3 28725.6 2073.84   4
   2   8  -3 31517.0 2356.03   4
   2  -8   3 28581.0 2290.82   1
   2   8  -2 3173.52 1142.13   4
   2  -8   2 2596.96 1075.92   1
  -2   8   2 4532.18 1277.39   3
  -2  -8  -2 2354.86 898.453   1
  -2   8   2 3500.53 1031.25   4
  -2  -8  -2 3082.23 631.257   2
   2  -8   1 8285.76 1336.67   1
  -2   8   1 8144.52 1311.87   4
  -2  -8  -1 8421.95 1223.75   1
  -2   8   1 8750.38 1339.23   3
   2   8  -1 7506.15 1375.56   4
  -2  -8  -1 8074.69 892.069   2
  -2   8   0-5.32119 906.510   3
  -2  -8   0-402.306 795.789   1
   2  -8   0 937.389 1011.64   1
  -2   8   0-476.902 926.514   4
   2   8   0 8.15333 805.285   4
  -2  -8   0 305.867 555.278   2
  -2  -8   1 11140.4 1339.72   1
  -2   8  -1 8277.94 1238.59   3
  -2   8  -1 10893.7 1456.90   4
   2  -8  -1 12757.5 1575.51   1
  -2  -8   1 11435.8 1141.25   2
   2  -8  -2 4329.01 1216.64   1
  -2   8  -2 2927.96 907.094   3
  -2  -8   2 3101.49 878.625   1
   2   8   2 2128.85 1063.60   4
  -2   8  -2 5421.95 1214.24   4
  -2  -8   2 4993.34 886.583   2
  -2   8  -3 29938.5 1962.32   3
  -2   8  -3 29085.4 2237.27   4
  -2  -8   3 31359.1 1909.11   2
   2   8   3 33023.6 2346.80   4
  -2  -8   3 28220.4 2011.42   1
   2  -8  -3 29295.4 2219.95   1
  -2  -8   4 9178.59 1268.47   1
   2   8   4 10053.4 1459.03   4
  -2   8  -4 10261.3 1256.50   3
   2  -8  -4 9630.23 1405.25   1
  -2   8  -4 10559.7 1458.37   4
  -2  -8   4 11141.3 1273.27   2
  -2  -8   5 3587.05 989.168   1
   2  -8  -5 5100.28 1132.53   1
  -2   8  -5 3417.83 777.547   3
  -2   8  -5 4808.33 1196.69   4
   2   8   5 2812.47 958.879   4
  -2  -8   5 4488.64 959.764   2
   2  -8  -6-532.260 914.297   1
  -2  -8   6 1956.53 947.946   2
  -2   8  -6-38.3039 595.850   3
  -2   8  -6-555.822 1053.48   4
   2   8   6 352.640 879.438   4
  -2  -8   6 803.153 805.701   1
  -2   8  -7 33269.0 2529.25   4
  -2  -8   7 32810.0 2143.98   1
  -2  -8   7 31052.1 2182.22   2
   2   8   7 32794.9 2337.24   4
   2  -8  -7 32568.3 2305.69   1
   2   8   8 2261.64 1157.44   4
  -2  -8   8 3274.07 1061.04   2
  -2  -8   8 3582.26 948.932   1
   2  -8  -8 1225.66 810.064   1
  -2  -8   9 38227.7 2372.87   1
  -2  -8   9 38553.5 2531.24   2
   2   8   9 37977.8 2469.91   4
   2  -8  -9 34916.8 2417.10   1
  -2  -8  10 2903.32 907.558   1
   2   8  10 3095.25 1178.01   4
  -2  -8  10 4129.24 1185.06   2
   2   8  11 3391.02 1167.88   4
  -2  -8  11 4365.30 1087.04   1
   2  -8 -11 4822.35 1366.62   9
  -2  -8  11 4082.55 1038.81   2
  -2  -8  12 1730.61 975.765   1
   2   8  12 1277.84 881.533   4
   2  -8 -12 2656.27 1020.33   9
  -2  -8  12 1653.34 1094.60   2
  -2  -8  13 7966.27 1393.41   1
   2   8  13 7456.25 1251.58   4
   2  -8 -13 7836.87 1509.42   9
  -2  -8  13 9962.75 1511.01   2
  -2  -8  14-1334.70 994.276   1
   2   8  14-116.172 795.838   4
   2  -8 -14 1068.87 1036.98   9
  -2  -8  14-553.539 1123.66   2
  -2  -8  15 12359.3 1805.73   2
  -2  -8  15 8940.67 1415.14   1
  -2   8 -15 10000.1 1595.12   7
   2  -8 -15 9281.62 1726.91   9
   2   8  15 7318.98 1343.87   4
  -2  -8  16-1160.74 1167.31   2
  -2   8 -16 384.737 1164.28   7
   2  -8 -16-617.648 1028.72   9
   2   8  16 479.939 1023.13   4
  -2  -8  16 1319.69 988.647   1
  -2  -8  17 2714.18 1209.18   2
  -2   8 -17 2903.77 1459.11   7
   2   8  17-1392.15 1218.63   4
  -2  -8  17-413.570 979.919   1
   2  -8 -17 2219.78 1347.42   9
  -2  -8  18-926.156 1169.01   2
  -2   8 -18 1719.47 1439.33   7
  -2  -8  18 211.956 939.637   1
   2  -8 -18-1428.60 1384.92   9
   2   8  18 2194.45 1058.06   4
  -2  -8  19-452.963 927.846   1
  -2   8 -19 1325.96 1207.15   7
   2   8  19-472.085 1174.13   4
   2   8  20-131.189 975.737   4
   2   9 -16-167.873 1138.10   4
  -2  -9 -15 1915.58 1098.20   7
  -2   9  15-1124.90 1345.71   3
  -2  -9 -15 568.814 877.426   9
   2   9 -15-999.447 1205.26   4
   2  -9  15 2837.88 1269.05   1
  -2  -9 -14 900.948 877.988   7
   2  -9  14 3296.19 1473.87   1
  -2   9  14 5558.77 1723.68   3
   2   9 -14 3429.39 1527.52   4
  -2  -9 -14 1899.98 969.234   9
  -2  -9 -13 3763.58 1085.32   7
   2  -9  13 7042.41 1583.85   1
  -2   9  13 5415.06 1742.17   3
  -2  -9 -13 4731.98 1136.89   9
   2   9 -13 5955.13 1656.06   4
  -2  -9 -12 3397.11 1102.05   7
   2  -9  12 3518.14 1376.34   1
  -2   9  12 1897.76 1098.25   3
   2   9 -12 834.115 974.171   4
  -2  -9 -12 1953.14 1012.65   9
  -2  -9 -11 2512.36 988.015   7
  -2  -9 -11 3993.23 1094.80   9
   2  -9  11 2575.79 1267.54   1
  -2   9  11 3678.36 1570.89   3
   2   9 -11 1015.92 1241.59   4
  -2  -9 -10 3119.46 1067.17   7
   2  -9  10 1831.08 1119.40   1
  -2   9  10 3707.07 1397.69   3
  -2  -9 -10 4713.08 1080.96   9
   2   9 -10 2548.90 1402.74   4
  -2   9   9 6322.31 1685.26   3
   2  -9   9 2521.09 1251.64   1
  -2   9   9 3206.36 1049.91   4
  -2  -9  -9 4621.31 1098.64   9
   2   9  -9 2827.59 1253.76   4
  -2   9   8 6206.14 1423.33   3
   2  -9   8 1938.05 1157.03   1
   2   9  -8 4905.81 1351.65   4
  -2   9   8 4138.83 969.404   4
  -2   9   7 3641.29 1419.84   3
   2  -9   7 6118.22 1273.91   1
   2   9  -7 8278.22 1716.12   4
  -2   9   7 4193.05 1137.39   4
  -2   9   6-984.219 1383.76   3
  -2  -9  -6 1400.29 983.709   1
   2  -9   6 1354.58 1158.91   1
  -2   9   6-664.458 838.664   4
   2   9  -6 1097.32 1247.48   4
  -2  -9  -5 6881.24 1241.34   1
  -2   9   5 7459.20 1317.59   4
   2   9  -5 3514.10 1134.24   4
   2  -9   5 7653.57 1541.79   1
  -2   9   5 5343.94 1336.66   3
   2  -9   4 14463.2 1788.05   1
  -2   9   4 14340.7 1937.99   3
  -2   9   4 11724.9 1539.89   4
  -2  -9  -4 13009.2 1619.14   1
   2   9  -4 12809.8 1662.10   4
   2  -9   3 3448.33 1329.98   1
  -2  -9  -3 4656.50 1133.39   1
  -2   9   3 4854.62 1243.07   3
  -2   9   3 4676.09 1191.21   4
   2   9  -3 6253.20 1399.96   4
   2  -9   2 15691.6 1849.60   1
  -2   9   2 18948.4 2037.47   3
  -2   9   2 17601.6 1808.63   4
  -2  -9  -2 15723.6 1677.36   1
   2   9  -2 19281.8 2011.20   4
   2  -9   1 18456.3 1950.93   1
  -2  -9  -1 15607.5 1663.26   1
  -2   9   1 17483.4 1827.20   3
   2   9  -1 17872.6 2043.72   4
  -2   9   1 16887.3 1815.09   4
  -2  -9   0 844.375 869.814   1
  -2   9   0 3697.83 1231.52   4
  -2   9   0 1647.03 941.755   3
   2  -9   0-29.0369 1136.36   1
   2   9   0 1891.45 1132.03   4
  -2   9  -1 14698.1 1605.81   3
   2  -9  -1 17989.0 1997.15   1
  -2   9  -1 19273.5 1982.74   4
  -2  -9   1 16612.8 1684.76   1
   2   9   1 19765.7 2007.13   4
  -2  -9   1 15480.4 1337.82   2
  -2   9  -2 12586.9 1522.36   3
   2  -9  -2 16171.3 1915.05   1
  -2  -9   2 15507.8 1718.42   1
  -2   9  -2 15421.3 1794.95   4
   2   9   2 14349.3 1771.15   4
  -2  -9   2 15305.7 1353.30   2
   2  -9  -3 4357.00 1136.99   1
   2   9   3 2621.07 1027.59   4
  -2  -9   3 3340.60 1107.54   1
  -2   9  -3 6036.28 1141.05   3
  -2   9  -3 4581.93 1361.35   4
  -2  -9   3 4638.13 902.808   2
  -2  -9   4 11339.2 1463.67   1
   2  -9  -4 12425.1 1611.37   1
  -2   9  -4 13676.7 1416.91   3
   2   9   4 12923.2 1718.72   4
  -2  -9   4 12636.8 1388.08   2
   2  -9  -5 5584.44 1202.07   1
   2   9   5 9047.67 1596.96   4
  -2   9  -5 8683.43 1467.12   4
  -2  -9   5 7539.12 1375.97   1
  -2  -9   5 5289.21 1065.89   2
   2   9   6 636.832 1035.85   4
   2  -9  -6 661.992 975.827   1
  -2   9  -6-963.185 1181.17   4
  -2  -9   6-1322.45 1010.01   1
  -2  -9   6 910.622 873.786   2
   2  -9  -7 4785.39 1317.39   1
   2   9   7 3869.52 1194.53   4
  -2   9  -7 7208.50 1566.16   4
  -2  -9   7 7999.65 1375.02   1
  -2  -9   7 5931.26 1155.53   2
   2  -9  -8 5663.63 1432.90   1
   2   9   8 3688.70 1191.20   4
  -2  -9   8 3902.06 1162.99   1
  -2  -9   8 4133.36 1148.73   2
  -2  -9   9 1991.87 1000.52   1
   2   9   9 2664.24 1222.21   4
   2  -9  -9 3151.12 1136.06   1
  -2  -9   9 2357.79 1140.61   2
  -2  -9  10 2770.72 1186.15   2
   2  -9 -10 3896.04 1341.32   1
   2   9  10 1865.83 1181.10   4
  -2  -9  10 4878.22 1205.00   1
   2  -9 -11 877.644 893.520   1
  -2  -9  11 3818.31 1171.97   1
   2  -9 -11-239.154 1266.68   9
   2   9  11 1102.87 878.522   4
  -2  -9  11 2101.32 1118.09   2
  -2  -9  12 1469.79 958.931   1
   2  -9 -12 1770.49 1211.89   1
   2  -9 -12 3009.97 1209.31   9
   2   9  12 4888.22 1157.32   4
  -2  -9  12 4303.28 1157.44   2
  -2  -9  13 9640.31 1451.28   1
   2  -9 -13 7803.10 1545.62   9
   2   9  13 5494.66 1324.37   4
  -2  -9  13 4847.10 1425.35   2
  -2  -9  14 2385.63 1097.67   1
   2  -9 -14 3391.51 1420.84   9
   2   9  14 3594.86 1247.67   4
  -2  -9  14 3802.83 1220.58   2
  -2  -9  15 299.476 992.132   1
  -2   9 -15 1172.36 1094.15   7
   2   9  15 3202.49 1152.86   4
  -2  -9  15 255.997 1107.20   2
   2  -9 -15 736.795 1002.07   9
  -2   9 -16 1549.01 1277.01   7
  -2  -9  16 1361.72 1212.36   2
   2   9  16 2718.41 1217.51   4
  -2  -9  16 2742.95 1126.10   1
  -2   9 -17 5422.70 1647.33   7
  -2  10  11 721.065 1540.18   3
  -2 -10 -11-74.7064 987.307   9
  -2 -10 -10 4542.43 1141.21   9
  -2  10  10 5564.60 1535.21   3
   2  10 -10 3423.14 1374.47   4
   2  10  -9 3334.59 1148.96   4
  -2  10   9 629.667 1366.27   3
   2 -10   9 39.5263 1221.82   1
  -2 -10  -9 1850.78 1068.10   9
  -2  10   8 150.437 1267.18   3
   2 -10   8 3004.14 1298.85   1
  -2 -10  -8 3209.04 1232.45   1
   2  10  -8 3094.86 1277.46   4
  -2  10   7-360.141 1037.72   3
  -2 -10  -7-1724.27 908.002   1
   2 -10   7-638.729 1105.52   1
   2  10  -7 90.1711 1145.93   4
  -2  10   6 12698.2 1680.00   4
   2 -10   6 19665.0 2212.76   1
  -2  10   6 16357.0 2165.20   3
  -2 -10  -6 12759.0 1689.84   1
   2  10  -6 14970.4 2077.88   4
  -2 -10  -5 3176.40 1010.17   1
   2 -10   5 1635.74 1389.37   1
  -2  10   5 2226.08 1412.93   3
  -2  10   5 1453.24 1080.58   4
   2  10  -5 2098.06 1272.76   4
  -2 -10  -4 4131.38 1215.88   1
   2 -10   4 2906.16 1372.31   1
  -2  10   4 4275.35 1422.38   3
  -2  10   4 3183.84 1283.26   4
   2  10  -4 3210.24 1377.98   4
  -2  10   3 2962.43 1124.10   4
  -2  10   3 916.883 1125.20   3
  -2 -10  -3 3338.70 1079.02   1
   2 -10   3 1669.02 1058.23   1
   2  10  -3 2979.40 1201.85   4
   2 -10   2 609.482 984.879   1
  -2 -10  -2 2249.98 1120.73   1
  -2  10   2 2088.06 1087.46   3
  -2  10   2-849.245 1151.04   4
   2  10  -2-877.266 1109.00   4
  -2 -10  -1 4598.75 1286.46   1
   2 -10   1 1265.77 1110.46   1
  -2  10   1 968.084 1092.39   3
   2  10  -1 1591.36 1253.38   4
  -2  10   1 3656.17 1204.61   4
   2 -10   0 7592.86 1563.69   1
  -2  10   0 6640.32 1344.28   3
  -2 -10   0 7158.09 1376.93   1
  -2  10   0 9304.43 1724.89   4
   2  10   0 4338.33 1374.08   4
  -2  10  -1 622.541 941.031   3
   2  10   1 3975.27 1483.18   4
   2 -10  -1 1500.45 1259.65   1
  -2 -10   1 1767.12 1117.39   1
  -2  10  -1 1509.83 1129.61   4
  -2 -10   2 1600.31 1002.44   1
   2 -10  -2-1230.90 1099.55   1
  -2  10  -2 804.715 1126.53   4
   2  10   2 1920.46 1093.11   4
   2 -10  -3 3173.98 1108.18   1
  -2 -10   3 3706.05 1107.53   1
  -2  10  -3 5065.52 1376.24   4
   2  10   3 3525.58 1394.21   4
  -2 -10   4 1929.82 1085.57   1
  -2  10  -4 4502.05 1471.82   4
   2 -10  -4 5768.47 1469.99   1
   2  10   4 3720.53 1456.33   4
   2 -10  -5 1850.53 1226.43   1
   2  10   5 1565.08 1076.08   4
  -2 -10   5 1300.51 890.634   2
  -2  10  -5 2680.53 1158.35   4
  -2 -10   5 3483.78 1109.77   1
   2 -10  -6 13803.8 1968.85   1
   2  10   6 17539.6 2080.83   4
  -2  10  -6 15324.8 2011.13   4
  -2 -10   6 14943.7 1730.88   1
  -2 -10   6 13884.8 1610.02   2
   2 -10  -7-941.138 952.281   1
  -2 -10   7-123.028 901.820   1
  -2  10  -7 1014.20 1187.89   4
  -2 -10   7-1377.16 926.642   2
   2  10   7-1019.29 1105.56   4
   2  10   8 7.35162 976.237   4
  -2 -10   8 2184.43 1056.23   1
  -2 -10   8 2108.34 1021.53   2
  -2 -10   9 1909.92 1037.89   2
  -2 -10   9 3103.51 1237.50   1
   2  10   9 3569.28 1377.85   4
   2 -10  -9 544.671 1055.32   1
   2 -10 -10 4860.86 1526.34   1
  -2 -10  10 5568.26 1317.48   1
   2  10  10 3986.42 1414.27   4
  -2 -10  10 4589.65 1265.51   2
   2  10  11 3285.78 1411.63   4
  -2 -10  11 2428.96 1019.55   1
  -2 -10  11 2296.66 1232.11   2
  -2 -10  12 7695.67 1426.11   2
  -2 -10  12 7057.22 1403.54   1
  -2 -10  13 1188.60 1112.82   1
  -2 -10  13 39.5829 1071.06   2
  -2  10 -14 330.673 1058.03   7
  -2  11   6-373.042 1453.48   3
  -2  11   5 6897.82 1757.55   3
  -2 -11  -4 2839.40 1184.18   1
  -2  11   4-79.8133 1317.00   3
  -2 -11  -3-39.2318 941.617   1
  -2  11   3 1897.83 1368.11   3
  -2  11   3 297.133 1106.92   4
  -2  11   2 19.0140 976.599   4
  -2 -11  -2 558.076 1079.28   1
  -2  11   2 1236.19 1272.47   3
  -2 -11  -1 6195.17 1549.69   1
  -2  11   1 5423.99 1455.65   4
  -2 -11   0 161.879 1131.02   1
  -2  11   0-876.204 1245.32   4
  -2 -11   1 4033.90 1202.26   1
  -2  11  -1 6138.62 1455.07   4
  -2  11  -2-416.459 1166.49   4
  -2 -11   2 780.558 1035.45   1
  -2 -11   3-818.316 1122.66   1
  -2  11  -3-676.328 1213.74   4
  -2  11  -4 253.662 1053.43   4
  -2 -11   4 961.372 912.494   1
  -2  11  -5 8471.19 1783.75   4
  -2 -11   5 3519.94 1334.95   1
  -2 -11   6 1038.23 944.284   1
  -2 -11   7 2667.60 1236.91   1
  -2 -11   8-1258.21 1127.06   1
  -2 -11   9-731.069 1054.29   1
   3   0   0 193.149 248.157   4
   3   0   0 345.101 246.413   7
  -3   0   0 121.704 396.147   3
   3   0   0 260.465 156.239   9
  -3   0   0 162.749 178.487   1
   3   0   0-7.66341 173.868   1
  -3   0   0-380.195 352.812   7
  -3   0   1 19990.3 634.594   1
  -3   0   1 23078.1 1038.53   7
   3   0  -1 22342.2 1028.59   7
  -3   0   1 20656.6 1284.40   3
   3   0   1 22263.1 1056.87   7
   3   0   1 22719.0 830.200   1
   3   0  -1 23184.5 673.136   1
  -3   0   1 24799.6 1321.55   8
  -3   0  -1 23561.5 1311.23   8
   3   0   1 21606.5 1169.65   5
  -3   0  -1 22055.0 1050.45   7
  -3   0   1 21777.2 1173.79   2
  -3   0  -1 21779.1 869.710   1
   3   0  -1 22664.6 879.556   4
   3   0  -1 22314.0 781.860   9
  -3   0   2 56225.2 1729.19   7
  -3   0  -2 58943.1 1879.29   7
   3   0  -2 58245.5 1767.38   7
  -3   0   2 60132.0 2249.21   3
   3   0   2 58110.2 1883.03   7
   3   0   2 55366.8 2042.33   3
   3   0   2 60091.5 1628.67   1
   3   0  -2 56021.8 1178.04   1
   3   0  -2 56915.7 1510.82   4
   3   0   2 59631.0 1982.70   5
  -3   0   2 57991.8 1982.09   2
  -3   0   2 61864.8 2147.95   8
  -3   0  -2 57378.5 1675.77   1
   3   0  -2 57956.6 1528.06   9
   3   0   2 53540.0 1370.55   9
  -3   0  -2 60864.6 2128.49   8
  -3   0   3 96713.6 2472.72   7
  -3   0   3 95283.4 2859.11   8
   3   0  -3 93955.7 2439.76   7
  -3   0  -3 96909.3 2644.48   7
  -3   0   3 95712.5 3026.36   3
   3   0   3 94318.7 2810.79   3
   3   0   3 90847.9 2062.18   9
   3   0   3 95316.2 2397.69   1
   3   0   3 95478.3 2664.92   5
  -3   0   3 94399.0 2711.53   2
  -3   0  -3 92059.5 2455.90   1
  -3   0  -3 97613.2 2878.75   8
   3   0  -3 98518.9 2306.62   9
   3   0   3 96958.3 2684.28   7
   3   0  -3 95887.7 2126.32   4
   3   0  -4 31254.3 1242.07   7
  -3   0  -4 36088.5 1490.66   7
  -3   0   4 35914.9 1756.01   3
   3   0   4 32652.6 1485.91   3
   3   0   4 33187.3 1297.68   1
   3   0   4 33559.5 1379.34   5
  -3   0  -4 33152.5 1348.31   1
  -3   0   4 34240.0 1492.64   2
   3   0  -4 34543.9 996.184   4
   3   0  -4 34940.2 1242.53   9
   3   0   4 33910.9 1034.34   9
  -3   0  -4 34243.0 1578.34   8
  -3   0   4 36078.0 1612.36   8
  -3   0  -5 2709.19 461.582   1
   3   0   5 2292.51 299.221   9
   3   0  -5 1825.91 357.262   7
  -3   0  -5 2790.65 545.597   7
   3   0   5 2094.62 444.092   3
  -3   0   5 2378.21 674.159   3
   3   0  -5 2203.49 534.732   6
   3   0   5 2601.38 491.143   1
   3   0   5 2561.84 448.597   5
   3   0  -5 2079.32 244.918   4
  -3   0   5 2874.33 616.761   2
   3   0  -5 2196.77 414.280   9
  -3   0   5 1905.11 554.703   8
  -3   0  -5 2533.63 575.348   8
   3   0  -6 49851.7 1678.97   7
  -3   0  -6 51213.0 1935.84   7
   3   0   6 50500.3 1902.28   3
   3   0  -6 52340.6 1966.34   6
   3   0   6 51506.6 1841.44   1
   3   0  -6 49065.0 1138.93   1
   3   0   6 50978.2 1676.14   5
  -3   0  -6 49969.3 1872.81   1
   3   0   6 51295.8 1504.49   9
  -3   0   6 51229.1 1906.43   2
   3   0  -6 50319.4 1294.33   4
  -3   0   6 50308.2 2154.56   3
   3   0  -6 53116.3 1749.99   9
  -3   0   6 52548.3 1980.74   8
  -3   0  -6 52696.2 1985.53   8
   3   0  -7 110702. 2862.14   7
   3   0   7 111081. 3082.51   3
  -3   0  -7 111345. 3213.04   7
  -3   0   7 113065. 3471.16   3
  -3   0  -7 112362. 2710.79   9
   3   0   7 111358. 3081.07   1
   3   0  -7 114014. 3126.50   6
   3   0  -7 108968. 2254.20   1
   3   0   7 108393. 2717.95   5
  -3   0   7 109545. 3124.18   2
   3   0  -7 104791. 2268.84   4
   3   0  -7 110471. 2963.80   9
   3   0   7 106473. 2628.03   9
  -3   0   7 104787. 2160.95   4
  -3   0  -7 111719. 3166.91   8
  -3   0   7 117087. 3187.10   8
   3   0   8 46730.7 1563.08   9
   3   0  -8 45511.1 1704.05   7
   3   0   8 47861.0 1843.87   3
  -3   0  -8 45927.2 1966.14   7
  -3   0   8 51692.6 2227.05   3
  -3   0  -8 47497.8 1895.74   8
  -3   0   8 51505.3 1922.72   8
   3   0  -8 48138.3 1849.61   6
   3   0   8 49479.5 1959.46   1
   3   0  -8 46915.5 1290.44   1
   3   0   8 46416.8 1496.76   5
   3   0  -8 49680.6 1859.03   9
  -3   0   8 45845.7 1886.01   2
  -3   0   8 44636.0 1123.68   4
  -3   0  -8 47687.0 1659.69   9
   3   0  -9 271917. 6025.15   7
   3   0   9 291438. 6205.89   3
  -3   0   9 289172. 6747.91   3
   3   0  -9 285383. 6174.93   6
   3   0   9 294208. 6443.66   1
   3   0  -9 279329. 5420.00   1
  -3   0  -9 281350. 6493.16   7
  -3   0   9 297437. 6227.75   8
  -3   0   9 290632. 6328.15   2
  -3   0   9 270391. 5112.94   4
   3   0  -9 292388. 6258.11   9
  -3   0  -9 289914. 6017.96   9
   3   0   9 272290. 5804.74   9
   3   0 -10 42114.5 1791.34   7
   3   0  10 46261.8 1820.42   3
   3   0  10 48794.6 2083.73   1
  -3   0  10 46033.1 2195.35   3
   3   0  10 45299.6 1688.82   9
   3   0 -10 46255.3 1458.72   1
   3   0 -10 46535.2 1825.22   6
  -3   0  10 46577.6 1848.27   8
  -3   0  10 46778.1 1969.49   2
  -3   0  10 44258.1 1210.56   4
   3   0 -10 47944.9 1987.48   9
  -3   0 -10 44903.6 1818.47   9
  -3   0 -10 48391.9 2143.05   7
   3   0 -11 22427.7 1426.41   9
  -3   0 -11 23253.8 1544.72   7
  -3   0  11 19344.2 1449.87   3
  -3   0 -11 20105.3 1238.67   9
   3   0 -11 22495.7 1242.02   6
   3   0 -11 21026.6 977.774   1
  -3   0  11 18596.9 1296.17   2
   3   0  11 20789.0 1429.37   1
  -3   0  11 19071.9 773.880   4
   3   0 -12 1087.91 347.776   1
   3   0 -12 724.070 594.490   9
  -3   0  12 1034.65 259.034   4
  -3   0  12 1350.95 394.106   1
  -3   0 -12-111.155 736.077   7
  -3   0  12-160.177 693.117   3
   3   0  12 1139.31 724.928   1
   3   0 -12 1457.12 491.716   6
  -3   0  12 1163.83 708.335   2
  -3   0 -12 386.813 499.850   9
  -3   0 -13 29964.8 1845.39   7
  -3   0  13 28391.0 1291.01   1
   3   0  13 27343.3 1726.72   1
   3   0 -13 27052.8 1366.48   6
  -3   0  13 27948.9 1796.66   3
   3   0 -13 27317.9 1295.14   1
  -3   0 -13 30222.8 1654.19   9
  -3   0  13 27032.9 1614.55   2
  -3   0  13 27302.3 1104.15   4
   3   0 -13 28035.2 1730.60   9
  -3   0  14 12156.2 887.038   1
  -3   0 -14 13267.1 1411.59   7
   3   0 -14 13177.5 1309.02   9
  -3   0  14 13704.7 1363.79   3
   3   0  14 15972.8 1442.69   1
   3   0 -14 11813.7 891.864   6
  -3   0  14 12189.0 796.225   4
  -3   0  14 12881.9 1208.44   2
  -3   0 -14 14793.6 1246.70   9
  -3   0 -15 121053. 4180.27   7
  -3   0  15 123080. 4141.95   3
  -3   0  15 124450. 3393.51   1
  -3   0 -15 126886. 3942.19   9
   3   0  15 124030. 4193.97   1
   3   0 -15 120799. 3244.85   6
  -3   0  15 124181. 3956.04   2
  -3   0  15 117978. 3148.72   4
   3   0 -15 131579. 4190.28   9
  -3   0  16 21268.3 1660.64   3
  -3   0  16 20284.2 1252.98   1
   3   0  16 20562.0 1719.05   1
   3   0 -16 22046.2 1725.69   9
  -3   0  16 21205.1 1568.28   2
  -3   0 -16 20296.5 1558.39   9
  -3   0 -16 20763.2 1747.83   7
  -3   0 -17 6384.88 1253.70   7
   3   0  17 7192.04 1194.52   1
  -3   0  17 6836.08 1126.72   3
   3   0  17 7322.75 911.967   6
   3   0 -17 6142.27 1098.08   9
  -3   0  17 5558.68 810.145   1
  -3   0 -17 5275.25 956.119   9
  -3   0  17 4789.67 880.579   2
   3   0 -18 1499.41 990.825   9
  -3   0 -18 568.960 1007.48   7
  -3   0  18-554.146 763.840   3
  -3   0  18 547.657 534.993   1
   3   0  18 873.511 764.663   1
   3   0  18 898.909 551.891   6
   3   0 -18 1310.45 732.926   5
  -3   0 -18 1534.74 781.197   9
  -3   0  18 993.542 769.475   2
  -3   0 -19 531.842 993.517   7
  -3   0  19 411.194 815.947   3
   3   0  19 434.435 800.701   1
  -3   0 -19 1112.27 791.266   9
   3   0  19 1216.41 586.517   6
   3   0 -19 849.682 748.949   5
   3   0 -19 2203.83 1090.05   9
  -3   0  19 508.207 595.021   1
  -3   0  19 163.033 753.572   2
  -3   0 -20 1042.06 852.937   9
   3   0  20 1837.06 1007.52   1
  -3   0 -20 1981.04 1027.50   7
  -3   0  20 1860.10 910.553   3
   3   0 -20 2979.67 905.184   7
   3   0  20 2592.62 680.578   6
   3   0 -20 1541.05 877.952   5
   3   0 -20 1973.63 963.803   9
  -3   0  20 2262.12 724.338   1
  -3   0  20 2729.00 876.891   2
  -3   0  21 4860.50 898.046   1
   3   0  21 2801.34 1076.85   1
  -3   0 -21 6680.33 1292.40   7
  -3   0  21 8303.82 1238.81   3
   3   0 -21 4169.44 980.038   7
   3   0 -21 5220.58 1143.58   5
   3   0 -21 5750.37 1327.23   9
  -3   0 -21 6200.82 1250.96   9
  -3   0  21 4234.04 1031.03   2
   3   0  22 465.063 1087.12   1
  -3   0 -22 617.156 1096.55   7
  -3   0  22-435.185 894.161   3
   3   0 -22 298.328 845.785   7
   3   0 -22-858.826 912.496   5
  -3   0  22 369.954 791.324   2
  -3   0  22 382.297 692.971   1
  -3   0 -22-64.9744 896.179   9
   3   0 -22 37.2375 1141.38   9
   3   0 -23-174.069 1096.34   9
   3   0  23 526.477 1073.91   1
  -3   0 -23 109.228 1060.72   7
  -3   0  23 388.147 903.736   3
   3   0 -23 354.958 885.144   7
   3   0 -23 598.000 916.670   5
  -3   0  23 856.291 767.675   1
  -3   0  23-704.035 851.386   2
  -3   0 -23-914.966 1084.73   9
   3   0  24 2911.28 1202.13   1
  -3   0 -24 2187.19 1309.41   7
  -3   0  24 345.325 882.742   3
   3   0 -24 1448.51 948.231   7
   3   0 -24 1243.85 860.033   5
   3   0 -24 3176.35 1164.52   9
  -3   0  24 2161.24 767.146   1
  -3   0 -24 2470.61 1198.27   9
  -3   0  24 1372.47 864.490   2
  -3   0  25 6337.85 1265.01   3
   3   0  25 3511.14 1158.16   1
  -3   0 -25 4134.03 1436.02   7
   3   0 -25 3385.87 1119.23   7
   3   0 -25 4531.69 1121.57   5
  -3   0 -25 3861.27 1377.11   9
   3   0 -25 5319.46 1537.78   9
  -3   0  25 3705.44 1082.70   2
   3   0  26 929.919 1170.57   1
  -3   0 -26 1718.30 1327.57   7
   3   0 -26 575.068 1305.69   9
  -3   0 -26-235.759 1076.30   9
  -3   0  26 2514.33 1069.07   2
  -3   0 -27 790.585 1118.21   9
  -3   0 -28 1759.16 1424.24   9
  -3  -1 -28 2272.43 1177.88   9
   3   1 -27 721.514 1164.57   7
  -3  -1 -27 396.653 1096.69   9
   3  -1  26 5123.39 1494.59   1
   3   1 -26 4251.90 1330.49   7
  -3   1  26 3418.40 1143.63   3
  -3  -1 -26 4090.39 1255.76   7
   3   1 -26 244.940 1105.63   9
  -3  -1 -26 1606.57 1086.52   9
   3  -1  25 1157.64 1193.99   1
  -3  -1 -25 3389.87 1410.09   7
   3   1 -25 2472.41 1175.78   9
   3   1 -25 2344.03 1182.29   7
  -3   1  25 2015.21 968.258   3
   3   1 -25 3129.17 1104.45   5
  -3  -1 -25 351.185 1067.80   9
   3  -1  24 1070.13 1233.39   1
  -3  -1 -24-47.4603 961.760   7
   3   1 -24-579.389 970.655   7
  -3   1  24 632.589 882.502   3
  -3   1  24 486.143 851.289   2
   3   1 -24 2751.82 1001.20   5
   3   1 -24 831.823 1283.17   9
  -3  -1 -24 571.016 1061.57   9
  -3  -1 -23 7972.23 1585.66   7
   3  -1  23 8610.90 1518.28   1
   3   1 -23 8808.47 1475.79   7
  -3   1  23 8485.67 1340.02   3
   3   1 -23 9554.21 1665.34   9
   3   1 -23 9314.36 1435.62   5
  -3   1  23 9313.72 1265.03   2
  -3  -1 -23 7557.29 1350.57   9
  -3   1  22 3518.34 1044.59   3
   3  -1  22 4385.22 1333.21   1
   3   1 -22 6017.49 1387.51   9
  -3   1  22 6276.35 1116.42   2
  -3  -1 -22 3510.45 1353.15   7
   3   1 -22 4634.26 1055.38   5
  -3  -1 -22 4812.99 1201.71   9
  -3   1  21 7336.12 1242.51   3
  -3  -1 -21 4624.00 1199.54   7
  -3   1  21 5856.25 1065.55   2
   3  -1  21 4383.41 1273.45   1
   3   1 -21 5445.29 1114.68   5
   3   1 -21 5911.35 1332.79   9
  -3  -1 -21 5709.16 1195.54   9
  -3  -1 -20 23818.1 2017.92   7
  -3   1  20 22895.6 1906.30   3
   3  -1  20 22779.3 2098.35   1
   3   1 -20 22706.4 1848.97   5
  -3   1  20 23007.7 1709.61   2
   3   1 -20 25517.8 2114.23   9
  -3  -1 -20 22634.6 1821.00   9
  -3  -1 -19 3474.63 1001.21   7
  -3   1  19 4796.45 1170.87   3
   3  -1  19 2707.47 688.586   6
  -3  -1 -19 2672.97 898.528   9
   3   1 -19 3880.72 999.097   5
   3  -1  19 2262.09 1126.17   1
   3   1 -19 3314.51 1123.15   9
  -3   1  19 2791.30 750.233   2
   3   1 -18 9783.71 1319.50   9
  -3   1  18 9523.24 1095.70   2
  -3  -1 -18 10470.9 1351.56   7
  -3   1  18 10247.8 1350.19   3
   3  -1  18 9970.33 1350.15   1
   3  -1  18 11202.8 1042.18   6
   3   1 -18 10345.2 1333.90   5
  -3  -1 -18 10391.2 1204.69   9
  -3  -1 -17 16301.6 1411.91   9
  -3  -1 -17 14431.0 1571.98   7
  -3   1  17 17116.9 1610.38   3
   3  -1  17 14550.2 1177.05   6
   3  -1  17 13417.8 1558.84   1
   3   1 -17 16603.1 1521.66   5
   3   1 -17 17633.6 1635.78   9
  -3   1  17 14569.7 1268.46   2
   3   1 -16 9497.72 1210.65   9
  -3  -1 -16 7065.42 1157.95   7
  -3   1  16 8486.35 1235.47   3
   3  -1  16 8515.35 926.390   6
   3  -1  16 7795.76 1149.75   1
   3   1 -16 7878.16 626.763   6
   3   1 -16 8881.95 1188.74   5
  -3   1  16 5593.00 885.397   2
  -3  -1 -16 8397.24 1048.05   9
  -3  -1 -15 14180.7 1202.24   9
  -3  -1 -15 12324.3 1360.25   7
   3  -1  15 14297.5 1185.86   6
  -3   1  15 14008.2 1429.90   3
   3   1 -15 13250.7 851.985   6
   3  -1  15 13479.5 1451.16   1
   3   1 -15 12942.6 1354.56   5
  -3   1  15 13715.6 1201.67   2
   3   1 -15 14059.8 1392.48   9
  -3   1  15 14861.3 1021.07   8
  -3  -1 -14 18601.0 1571.33   7
   3  -1  14 20487.9 1023.25   3
  -3   1  14 21496.7 1711.30   3
   3  -1  14 22033.7 1395.11   6
   3   1 -14 20664.0 1112.02   6
   3  -1  14 22060.1 1656.72   1
   3   1 -14 21965.7 1668.90   5
   3   1 -14 22818.3 1631.69   9
  -3   1  14 19589.1 1338.64   2
  -3   1  14 20529.1 817.962   4
  -3  -1 -14 21447.9 1413.11   9
  -3   1  14 22348.5 1261.36   8
   3  -1  13 12430.0 778.732   3
  -3  -1 -13 13527.0 1388.52   7
   3  -1  13 14082.5 1140.72   6
   3   1 -13 10970.2 852.609   6
  -3   1  13 15945.9 1477.08   3
   3  -1  13 11521.8 1232.76   1
   3   1 -13 13236.6 1298.70   5
   3   1 -13 11740.1 835.474   1
  -3   1  13 13260.7 1097.01   2
  -3   1  13 11731.7 460.704   4
  -3  -1 -13 13595.4 1056.97   9
   3   1 -13 10717.5 1153.89   9
  -3   1  13 14109.3 1027.15   8
  -3  -1 -12 2246.79 806.653   7
   3  -1  12 715.505 306.342   3
  -3   1  12 2282.07 876.377   3
   3   1 -12 688.148 332.860   1
  -3   1  12 918.227 528.192   2
   3  -1  12 2122.27 630.027   6
   3   1 -12 1628.76 446.386   6
   3  -1  12 1279.79 749.102   1
   3   1 -12-464.933 785.783   5
   3   1 -12 1518.11 629.052   9
  -3  -1 -12 1377.63 523.086   9
  -3   1  12 1231.58 518.564   8
  -3  -1 -11 16474.5 1377.58   7
   3  -1  11 18755.7 984.780   3
   3   1 -11 16822.7 1052.90   6
   3  -1  11 17471.6 1240.14   6
  -3   1  11 17746.7 1487.32   3
   3  -1  11 16290.9 1343.56   1
   3   1 -11 17652.3 1405.23   5
   3   1 -11 16950.4 866.909   1
   3   1 -11 18961.2 1334.36   9
  -3   1  11 17523.2 1158.53   2
  -3  -1 -11 17501.6 1077.97   9
  -3   1  11 18038.1 1146.84   8
   3  -1  10 12518.2 809.719   3
  -3  -1 -10 12006.9 1163.75   7
   3   1 -10 12026.0 904.848   6
  -3   1  10 13208.2 1247.77   3
   3  -1  10 13502.9 1129.77   6
   3  -1  10 13599.3 1163.99   1
   3  -1  10 11833.0 501.692   5
   3   1 -10 11896.3 1173.60   5
   3   1 -10 11987.8 678.302   1
   3   1 -10 13916.1 864.026   4
  -3   1  10 12954.0 1027.08   8
  -3  -1 -10 13821.2 905.294   9
  -3   1  10 11036.4 929.196   2
   3   1 -10 12863.8 1068.10   9
   3   1  -9 2666.35 597.649   9
  -3  -1  -9 2977.29 647.400   7
   3  -1   9 3152.55 469.395   3
  -3   1   9 2636.92 803.284   3
   3  -1   9 2423.16 662.448   6
   3   1  -9 2625.09 754.769   5
   3  -1   9 3019.64 331.395   5
   3   1  -9 2838.68 324.190   1
   3  -1   9 3730.40 670.142   1
   3   1  -9 2763.89 472.432   4
  -3   1   9 2858.16 592.016   2
   3  -1   9 2566.97 505.605   9
  -3  -1  -9 3819.93 524.173   9
  -3   1   9 2445.78 547.402   8
  -3  -1  -8 55341.6 2195.94   7
   3  -1   8 52980.0 1815.75   3
   3  -1   8 59313.2 2258.58   6
   3  -1   8 54551.2 2161.88   1
   3   1  -8 59526.0 2393.83   5
   3  -1   8 53817.3 1550.51   5
  -3  -1  -8 55469.8 1696.92   9
  -3   1   8 54881.9 1985.48   2
   3   1  -8 55752.3 2001.64   9
   3   1  -8 56362.8 1766.47   4
   3   1  -8 51650.6 1339.06   1
   3  -1   8 51449.9 1911.63   9
  -3   1   8 55195.2 2409.51   3
  -3   1   8 55038.1 2083.75   8
  -3  -1  -7 124637. 3468.88   7
   3  -1   7 117663. 3058.33   3
  -3   1   7 127900. 3796.27   3
   3  -1   7 123619. 3528.26   6
   3   1  -7 122134. 3141.66   9
   3  -1   7 121642. 3400.28   1
   3   1  -7 129929. 3722.27   5
   3  -1   7 120309. 2794.14   5
  -3   1   7 119973. 3186.48   2
   3   1  -7 122637. 2929.58   4
   3   1  -7 109220. 2227.96   1
  -3  -1  -7 125730. 2738.52   9
   3  -1   7 114876. 3083.02   9
  -3   1   7 123771. 3361.05   8
  -3  -1  -6 78052.6 2575.14   7
  -3   1   6 79138.9 2856.54   3
   3  -1   6 81464.5 2731.94   6
   3  -1   6 75385.0 2322.18   3
   3  -1   6 83103.1 2567.57   1
  -3  -1  -6 79296.0 2412.55   1
   3  -1   6 80971.6 2162.80   5
   3   1  -6 80719.9 2818.53   5
  -3   1   6 79644.6 2430.28   2
   3   1  -6 78166.1 2137.04   4
   3   1  -6 80360.8 2290.22   9
   3  -1   6 73143.3 2261.32   9
  -3  -1  -6 76986.0 1828.75   9
  -3   1   6 84349.7 2626.93   8
  -3   1   5 97882.6 3114.51   3
   3  -1   5 88925.9 2575.68   3
   3  -1   5 89301.3 2905.09   6
   3   1  -5 89110.8 2630.95   7
   3  -1   5 94573.1 2721.30   1
  -3  -1  -5 94504.2 2576.71   1
   3   1  -5 89379.5 2976.41   5
  -3   1   5 90097.7 2615.29   2
   3   1  -5 88967.7 2318.04   4
  -3  -1  -5 96164.8 2823.40   7
   3   1  -5 91815.6 2411.49   9
   3  -1   5 86569.4 2442.77   9
  -3   1   5 94440.9 2849.86   8
  -3  -1  -4 234784. 5349.88   7
   3  -1   4 247422. 5314.94   7
  -3   1   4 249689. 5795.44   3
   3  -1   4 250760. 5681.75   6
   3   1  -4 232007. 5222.79   7
  -3  -1  -4 244157. 5044.51   1
   3  -1   4 237014. 5205.29   1
   3   1  -4 246672. 5737.26   5
  -3   1   4 235961. 5246.20   2
   3   1  -4 240062. 4852.93   4
   3   1  -4 243786. 4844.86   9
   3  -1   4 227662. 4960.46   9
  -3   1   4 243592. 5513.35   8
   3  -1   4 233458. 5270.36   3
  -3   1   3 44946.7 1344.97   7
   3   1  -3 44111.3 1647.61   7
  -3  -1  -3 44380.5 1723.75   7
   3  -1   3 46550.0 1648.06   7
  -3   1   3 45280.9 1962.21   3
   3  -1   3 44299.2 1711.54   3
   3  -1   3 45477.0 1938.37   6
  -3  -1  -3 43532.9 1443.89   1
   3  -1   3 45688.2 1606.01   1
   3   1  -3 46741.0 1965.97   5
  -3   1   3 45198.8 1690.85   2
   3   1  -3 41521.9 1385.15   4
   3   1  -3 43441.9 1308.61   9
   3  -1   3 43751.2 1463.59   9
  -3   1   3 45970.3 1879.68   8
   3  -1   2 179037. 4587.94   6
  -3  -1  -2 185603. 4310.67   7
   3  -1   2 186892. 4127.31   7
  -3   1   2 190035. 4672.51   3
   3  -1   2 178766. 4349.01   3
  -3  -1  -2 188315. 3814.48   1
   3   1  -2 188722. 4650.25   5
   3  -1   2 185913. 4073.85   1
  -3   1   2 173021. 3752.55   7
  -3   1   2 185365. 4530.94   8
   3   1  -2 185414. 3932.62   4
   3   1  -2 178148. 4210.06   7
   3   1  -2 188997. 3607.89   9
   3  -1   2 177569. 3898.47   9
  -3   1   1 232893. 4738.93   7
  -3  -1  -1 241243. 5213.13   7
   3   1  -1 233896. 5136.74   7
   3  -1   1 242405. 4965.39   7
  -3   1   1 240336. 5541.38   3
   3  -1   1 228240. 5327.10   3
   3  -1   1 246565. 5605.92   6
   3   1  -1 247124. 5542.67   5
  -3  -1  -1 241288. 4572.94   1
   3  -1   1 236332. 4885.74   1
  -3  -1  -1 241406. 5279.71   2
  -3   1   1 249556. 5546.29   8
   3   1  -1 237696. 4873.71   4
   3   1  -1 231121. 4316.18   9
  -3   1   0 28458.5 1476.59   8
  -3  -1   0 26330.2 1242.46   7
  -3   1   0 24665.5 1029.31   7
   3   1   0 27221.3 1248.54   7
   3   1   0 26179.9 728.345   1
   3  -1   0 27500.6 1081.22   7
   3  -1   0 28585.2 1503.56   6
   3   1   0 25492.1 1383.12   5
  -3  -1   0 25306.3 785.534   1
   3  -1   0 25189.8 1021.61   1
  -3  -1   0 23940.8 1247.25   2
   3   1   0 27732.0 1129.36   4
  -3   1   0 28152.0 1437.09   3
  -3   1   0 25902.2 1002.69   1
  -3  -1   1 210937. 4693.43   7
  -3   1  -1 208225. 4427.56   7
  -3   1  -1 212813. 5002.59   3
   3  -1  -1 213466. 4341.28   7
   3   1   1 213168. 4030.71   1
   3  -1  -1 218448. 5111.16   6
   3   1   1 217255. 4992.48   5
  -3  -1   1 209468. 4827.91   2
   3  -1  -1 211713. 4309.43   1
  -3   1  -1 204831. 4415.73   1
   3   1   1 213332. 4559.67   4
  -3   1  -1 205589. 5002.30   8
  -3  -1   2 202731. 4541.88   7
  -3   1  -2 197375. 4750.19   3
   3  -1  -2 204288. 4110.51   7
   3   1   2 200111. 3983.82   1
   3  -1  -2 204446. 4922.18   6
  -3   1  -2 199726. 4341.13   7
   3   1   2 202709. 4460.96   4
   3   1   2 199003. 4722.39   5
  -3  -1   2 207766. 4713.53   2
   3  -1  -2 198876. 4071.03   1
  -3   1  -2 191363. 4360.21   1
  -3   1  -2 207165. 4859.39   8
  -3  -1   3 41523.6 1582.60   7
  -3   1  -3 40332.9 1660.65   3
   3  -1  -3 37813.6 1216.43   7
  -3   1  -3 40490.9 1489.16   7
   3   1   3 40702.8 1288.48   1
   3  -1  -3 42260.1 1826.24   6
   3   1   3 39809.9 1628.02   5
  -3  -1   3 38549.5 1609.38   2
  -3   1  -3 38981.9 1499.02   1
   3  -1  -3 38616.8 1228.44   1
   3  -1  -3 41224.5 1412.44   9
   3  -1  -3 38236.3 961.466   4
   3   1   3 39812.2 1540.60   4
  -3  -1   3 37864.8 1277.58   4
  -3   1  -3 39460.5 1735.75   8
   3  -1  -4 253561. 4915.07   7
  -3  -1   4 260149. 6056.58   3
  -3   1  -4 258088. 5433.01   7
   3   1   4 249041. 5122.09   1
   3  -1  -4 255208. 5809.71   6
   3   1   4 261001. 5591.20   5
  -3  -1   4 254120. 5663.00   2
  -3   1  -4 249511. 5500.33   1
  -3  -1   4 249704. 4962.27   9
   3  -1  -4 259200. 5278.40   9
  -3  -1   4 244223. 4997.08   4
   3   1   4 262953. 5525.95   4
  -3   1  -4 249745. 5739.37   8
   3  -1  -4 250705. 4904.20   1
   3  -1  -5 81096.9 1980.83   7
  -3  -1   5 85217.8 2893.51   3
  -3   1  -5 82538.5 2465.78   7
   3  -1  -5 81234.0 1877.14   1
   3   1   5 80309.6 2244.95   1
   3  -1  -5 80388.9 2664.11   6
   3   1   5 76665.8 1599.57   9
  -3  -1   5 78398.1 2027.75   4
   3   1   5 80273.0 2449.91   5
  -3  -1   5 80066.6 2573.74   2
  -3   1  -5 78280.7 2496.18   1
  -3  -1   5 81769.8 2137.67   9
   3  -1  -5 84449.6 2331.60   9
   3  -1  -5 81302.9 1963.27   1
  -3   1  -5 78777.9 2587.45   8
   3  -1  -6 80736.6 2037.84   7
  -3  -1   6 82956.6 2885.90   3
  -3   1  -6 79427.5 2540.37   7
   3  -1  -6 83050.5 2441.03   9
   3  -1  -6 84583.8 1959.72   1
   3   1   6 78801.4 2356.48   1
   3  -1  -6 87339.2 2748.69   6
  -3  -1   6 84098.1 2306.67   9
   3   1   6 79194.7 2449.32   5
  -3  -1   6 81346.0 2651.75   2
   3   1   6 80959.3 1796.08   9
  -3  -1   6 81520.0 2067.99   4
  -3   1  -6 83684.0 2662.13   8
   3  -1  -7 103281. 2516.63   7
  -3  -1   7 106494. 3430.37   3
  -3   1  -7 105225. 3128.59   7
   3  -1  -7 110135. 2477.28   1
   3   1   7 107500. 2969.48   1
   3  -1  -7 111499. 3224.67   6
   3   1   7 106058. 2895.16   5
  -3  -1   7 104468. 2521.40   4
  -3  -1   7 112020. 3244.80   2
  -3  -1   7 110790. 2885.53   9
   3  -1  -7 111758. 3029.38   9
  -3   1  -7 115056. 3208.67   8
   3   1   7 105439. 2365.02   9
   3  -1  -8 35876.1 1278.48   7
  -3   1  -8 37089.6 1750.83   7
  -3  -1   8 36940.4 966.641   1
   3   1   8 38605.0 1652.72   1
   3  -1  -8 37767.8 1732.40   6
  -3  -1   8 39588.0 1948.91   3
  -3  -1   8 36131.3 1744.13   2
  -3  -1   8 33638.3 1239.59   4
   3  -1  -8 37728.2 1649.03   9
  -3   1  -8 36739.9 1673.20   8
  -3   1  -8 39706.3 1628.09   9
   3  -1  -8 37192.6 1235.62   1
   3   1   8 35829.4 1203.46   9
   3  -1  -9 2992.29 420.729   7
   3   1   9 3607.60 669.225   1
  -3   1  -9 3848.94 796.011   7
  -3  -1   9 3639.08 786.583   3
  -3   1  -9 2697.97 580.212   9
   3  -1  -9 2541.78 371.259   1
   3  -1  -9 3665.09 655.484   6
   3   1   9 2566.93 380.803   9
   3  -1  -9 3814.81 665.302   9
  -3  -1   9 2942.57 310.865   1
  -3  -1   9 2934.19 380.364   4
  -3  -1   9 2222.79 605.698   2
  -3   1  -9 3654.85 660.156   8
   3  -1 -10 14065.2 871.007   7
  -3   1 -10 16268.5 1303.34   7
  -3  -1  10 14765.3 716.482   1
  -3  -1  10 15541.4 1307.47   3
   3   1  10 14079.8 1096.82   1
   3  -1 -10 16028.2 853.381   1
  -3   1 -10 15830.5 1120.89   9
   3  -1 -10 14607.8 1146.95   6
   3   1  10 14510.4 845.539   9
  -3  -1  10 15239.5 834.564   4
   3  -1 -10 17260.8 1235.12   9
  -3  -1  10 14486.7 1206.31   2
  -3   1 -10 15316.5 1073.22   8
   3  -1 -11 12862.8 880.573   7
  -3  -1  11 14267.5 764.690   1
  -3   1 -11 14563.8 1260.26   7
  -3  -1  11 13064.4 1237.21   3
   3   1  11 14724.7 1198.47   1
   3  -1 -11 13632.7 852.751   1
   3  -1 -11 14889.8 1119.53   6
  -3  -1  11 14422.4 860.556   4
   3   1  11 15212.9 918.353   9
   3  -1 -11 15942.4 1236.59   9
  -3  -1  11 14414.9 1205.07   2
  -3   1 -11 16281.2 1203.69   9
  -3   1 -11 15517.9 1064.64   8
  -3  -1  12 785.923 317.728   1
   3   1  12 2098.73 754.695   1
  -3   1 -12 545.526 634.548   7
  -3  -1  12 1465.98 698.693   3
   3  -1 -12 977.109 516.410   6
   3  -1 -12 584.666 330.637   1
  -3  -1  12 1029.58 342.067   4
   3  -1 -12 2170.59 765.384   9
  -3   1 -12 1906.39 623.702   9
  -3  -1  12 945.241 726.450   2
  -3   1 -12 1764.09 548.602   8
  -3  -1  13 16323.8 951.009   1
  -3   1 -13 16782.7 1503.36   7
  -3  -1  13 16451.8 1415.17   3
   3   1  13 15021.8 1287.43   1
  -3  -1  13 16407.3 1395.57   2
   3  -1 -13 14311.6 1085.23   6
  -3  -1  13 14693.6 962.285   4
  -3   1 -13 15459.8 1291.54   9
   3  -1 -13 15422.5 1363.90   9
  -3   1 -13 16172.2 1105.68   8
  -3  -1  14 19392.0 1535.28   3
  -3  -1  14 18383.1 1070.90   1
  -3   1 -14 20235.4 1655.31   7
   3   1  14 17896.2 1487.34   1
   3  -1 -14 16087.0 1147.45   6
  -3  -1  14 19985.2 1589.62   2
  -3  -1  14 17310.2 1124.21   4
  -3   1 -14 19462.1 1450.28   9
   3  -1 -14 17876.5 1442.82   9
  -3  -1  15 16412.7 1418.26   3
   3   1  15 13875.0 1363.79   1
  -3  -1  15 15852.8 1061.35   1
  -3   1 -15 13032.3 1427.77   7
   3  -1 -15 16426.7 1468.86   9
  -3   1 -15 14249.3 1361.07   9
  -3  -1  15 16817.2 1477.66   2
  -3  -1  16 8804.81 856.350   1
   3   1  16 8495.55 1239.01   1
  -3   1 -16 7367.86 1169.95   7
  -3  -1  16 7384.44 1032.44   3
   3  -1 -16 8423.50 1172.11   9
  -3   1 -16 7552.97 1105.28   9
  -3  -1  16 8941.95 1183.08   2
  -3  -1  17 19973.2 1626.29   3
   3  -1 -17 15629.2 1274.14   7
   3   1  17 15955.9 1587.54   1
  -3  -1  17 17317.3 1206.26   1
  -3   1 -17 15644.9 1632.67   7
   3  -1 -17 20255.3 1750.35   9
  -3   1 -17 17056.8 1514.74   9
  -3  -1  17 16276.2 1548.80   2
  -3  -1  18 8820.85 1000.10   1
   3   1  18 11015.1 1443.61   1
  -3   1 -18 7765.50 1236.95   9
  -3   1 -18 9307.16 1439.94   7
  -3  -1  18 8146.20 1191.10   3
   3  -1 -18 8831.12 1018.66   7
   3  -1 -18 10459.9 1443.45   9
  -3  -1  18 7566.62 1169.77   2
  -3  -1  19 3971.35 744.149   1
   3   1  19 2272.84 866.687   1
  -3   1 -19 2651.31 1013.85   7
  -3  -1  19 4481.13 1031.83   3
   3  -1 -19 4182.73 843.059   7
  -3   1 -19 2639.47 1021.16   9
   3  -1 -19 1815.33 891.620   9
  -3  -1  19 2626.46 977.985   2
  -3   1 -20 24291.5 2081.38   7
  -3  -1  20 24554.6 1874.09   3
   3  -1 -20 23632.9 1674.16   7
  -3  -1  20 23457.6 1604.93   1
   3   1  20 22364.6 1978.61   1
   3  -1 -20 23939.7 2067.37   9
  -3  -1  20 24747.7 2038.16   2
  -3   1 -20 27156.2 2125.06   9
   3   1  21 5432.99 1274.25   1
  -3   1 -21 3168.16 1389.61   7
  -3  -1  21 3048.37 919.125   3
   3  -1 -21 4141.30 977.493   7
  -3  -1  21 3853.08 1140.53   2
  -3  -1  21 4763.24 922.275   1
   3  -1 -21 4692.21 1150.76   9
  -3   1 -21 5910.78 1278.58   9
   3  -1 -22 6956.34 1505.28   9
   3   1  22 6614.89 1379.61   1
  -3   1 -22 5458.27 1287.31   7
  -3  -1  22 6269.85 1200.93   3
   3  -1 -22 5111.12 1033.14   7
  -3   1 -22 6480.81 1368.74   9
  -3  -1  22 6315.44 1292.02   2
  -3  -1  22 5770.51 995.223   1
   3   1  23 5776.11 1442.66   1
  -3  -1  23 6907.57 1086.38   1
  -3   1 -23 7448.77 1614.86   7
  -3  -1  23 6076.33 1137.04   3
   3  -1 -23 9293.36 1409.29   5
   3  -1 -23 6011.37 1333.49   9
  -3   1 -23 6490.85 1375.48   9
  -3  -1  23 7963.84 1394.84   2
   3   1  24 265.688 1206.67   1
  -3   1 -24 2496.07 1255.08   9
  -3   1 -24-68.8213 939.600   7
  -3  -1  24 625.395 814.733   3
   3  -1 -24 220.536 1200.91   9
   3  -1 -24 1690.19 993.380   5
  -3  -1  24 972.848 1018.49   2
   3   1  25 4393.42 1454.69   1
  -3   1 -25 3207.95 1461.26   7
   3  -1 -25 1430.22 954.781   5
   3  -1 -25 4020.14 1259.25   9
  -3   1 -25 5161.19 1492.62   9
  -3  -1  25 1307.22 1026.21   2
   3   1  26 2276.37 1397.32   1
  -3   1 -26 1912.60 1404.60   7
   3  -1 -26 3410.84 1093.43   5
   3  -1 -26 1064.98 1415.66   9
  -3   1 -26 2282.38 1181.42   9
  -3  -1  26 2078.61 1055.33   2
  -3   1 -27-794.805 1268.53   9
  -3  -1  27 528.612 972.298   2
  -3   1 -28 1519.84 1232.75   9
  -3  -1  28 4573.26 1381.05   2
   3   2 -28 2766.01 1341.06   7
   3   2 -27 1860.85 1186.75   7
  -3   2  27-399.347 909.482   3
  -3  -2 -27 383.403 1042.70   9
  -3  -2 -26-554.262 1187.83   7
   3  -2  26 506.630 1281.54   1
   3   2 -26 133.185 1088.44   7
  -3   2  26 220.193 1023.10   3
  -3  -2 -26-123.669 1112.75   9
   3   2 -26 2902.82 1531.31   9
  -3  -2 -25-66.6765 1207.91   7
   3  -2  25 712.559 1123.73   1
   3   2 -25-325.254 1152.31   7
  -3   2  25-789.710 1022.84   3
  -3  -2 -25-1299.93 1128.26   9
   3   2 -25 1046.09 1201.10   9
  -3  -2 -24 1445.44 1024.40   7
   3  -2  24 3342.27 1458.78   1
   3   2 -24 1241.14 1046.01   9
  -3   2  24 3290.84 1195.03   3
   3   2 -24 3469.24 1127.46   5
  -3  -2 -24 1414.34 1052.76   9
  -3  -2 -23 1724.13 1071.43   7
  -3   2  23-31.1017 1006.86   3
   3  -2  23 779.690 1064.65   1
   3   2 -23 333.683 882.106   5
  -3  -2 -23 1290.77 977.024   9
   3   2 -23 966.334 1007.80   9
  -3  -2 -22-770.349 1025.03   7
  -3   2  22-646.938 1085.13   3
   3  -2  22-1569.74 1209.11   1
   3   2 -22-937.217 1279.56   9
   3   2 -22-275.874 829.205   5
  -3  -2 -22-904.105 915.891   9
  -3  -2 -21 3890.27 1311.40   7
  -3   2  21 1805.28 1095.81   3
   3  -2  21 1999.52 1284.84   1
   3   2 -21 911.826 876.304   5
  -3   2  21 1020.16 630.918   2
  -3  -2 -21 1082.10 943.162   9
   3   2 -21 1045.37 1088.78   9
  -3  -2 -20 6743.00 1312.71   7
  -3   2  20 6935.70 1334.15   3
   3  -2  20 6711.22 1271.90   1
   3   2 -20 5838.80 1147.06   5
  -3   2  20 5075.07 842.236   2
  -3  -2 -20 6753.02 1135.75   9
   3   2 -20 6973.07 1287.83   9
  -3  -2 -19 93.5661 874.262   7
  -3  -2 -19 191.053 723.671   9
  -3   2  19 1644.96 969.227   3
   3  -2  19 576.103 528.988   6
   3  -2  19-550.826 1005.05   1
   3   2 -19 1155.76 789.637   5
  -3   2  19-44.3078 603.204   2
   3   2 -19 313.603 1053.11   9
  -3  -2 -18 27708.8 2091.43   7
  -3   2  18 31147.8 2212.15   3
   3  -2  18 29780.0 1669.65   6
   3  -2  18 25979.8 2175.76   1
   3   2 -18 30588.3 2068.06   5
  -3   2  18 28778.8 1653.72   2
  -3  -2 -18 33520.1 1974.09   9
   3   2 -18 32346.4 2268.32   9
  -3   2  18 29856.6 1473.91   8
  -3  -2 -17 2998.66 1057.23   7
  -3   2  17 4366.31 1048.81   3
   3  -2  17 6417.45 919.867   6
   3  -2  17 4997.18 1092.41   1
   3   2 -17 3766.03 1011.22   5
  -3   2  17 4677.75 742.749   2
  -3  -2 -17 4230.16 864.923   9
   3   2 -17 4133.32 1109.75   9
  -3   2  17 4331.59 693.061   8
  -3  -2 -16 7179.17 1190.17   7
   3   2 -16 8035.56 620.383   6
  -3   2  16 9061.29 1347.83   3
   3  -2  16 6980.53 923.661   6
   3  -2  16 8761.61 1257.84   1
   3   2 -16 6707.65 1094.57   5
  -3   2  16 8241.31 908.056   2
  -3  -2 -16 9687.28 1087.52   9
   3   2 -16 9448.38 1248.16   9
  -3   2  16 8027.47 826.091   8
  -3  -2 -15 3451.26 988.848   7
  -3   2  15 2279.43 944.768   3
   3   2 -15 2179.03 422.198   6
   3  -2  15 2418.78 651.900   6
   3   2 -15 1111.06 794.786   5
   3  -2  15 1281.10 867.670   1
  -3   2  15 2556.21 645.777   2
  -3  -2 -15 2858.38 737.122   9
   3   2 -15 1491.58 856.570   9
  -3   2  15 1882.29 196.375   4
  -3   2  15 3068.32 662.088   8
  -3  -2 -14 56412.3 2662.54   7
  -3   2  14 61149.0 2893.30   3
   3  -2  14 54541.3 1380.10   3
   3   2 -14 60691.1 1949.78   6
   3  -2  14 56993.5 2370.01   6
   3  -2  14 59434.7 2849.97   1
   3   2 -14 60371.4 2728.83   5
  -3   2  14 58180.5 2193.15   2
  -3  -2 -14 57170.9 2283.07   9
   3   2 -14 57533.0 2638.35   9
  -3   2  14 60482.0 2217.16   8
  -3  -2 -13 63487.5 2763.99   7
   3  -2  13 58859.3 1540.40   3
  -3   2  13 66031.3 3002.24   3
   3  -2  13 63089.4 2440.92   6
  -3  -2 -13 60577.0 2274.81   9
   3   2 -13 61608.9 2658.56   9
   3  -2  13 63057.1 2846.96   1
  -3  -2 -13 61424.5 1968.53   5
   3   2 -13 60215.6 2711.28   5
  -3   2  13 59294.7 2186.74   2
   3   2 -13 55817.4 2026.76   1
  -3   2  13 59631.3 2257.27   8
  -3   2  12 171686. 5120.67   3
   3  -2  12 163674. 3475.24   3
  -3  -2 -12 170124. 4831.17   7
   3  -2  12 172138. 4571.53   6
   3  -2  12 174755. 5027.22   1
  -3  -2 -12 162238. 3947.33   5
   3   2 -12 177563. 4985.43   5
  -3   2  12 171305. 4238.16   2
   3   2 -12 169738. 4365.65   4
   3   2 -12 159718. 3906.67   1
  -3  -2 -12 175419. 4252.65   9
   3   2 -12 169603. 4727.29   9
  -3   2  12 166929. 4340.84   8
  -3   2  11 72915.8 3005.25   3
   3  -2  11 62360.2 1740.28   3
   3  -2  11 72207.3 2601.26   6
  -3  -2 -11 65058.3 2663.59   7
  -3  -2 -11 65546.8 2159.14   9
   3  -2  11 63626.5 2731.38   1
  -3  -2 -11 65043.3 2119.72   5
   3   2 -11 66073.4 2761.05   5
  -3   2  11 63818.6 2203.41   2
   3   2 -11 64237.2 2330.37   4
   3   2 -11 58517.5 1904.05   1
   3   2 -11 64790.4 2541.89   9
  -3  -2 -10 65769.0 2602.75   7
  -3   2  10 65123.3 2798.75   3
   3  -2  10 64433.2 1800.02   3
   3  -2  10 64661.4 2510.13   6
   3  -2  10 63795.2 2640.06   1
   3  -2  10 58650.1 1520.84   5
  -3  -2 -10 64839.2 2139.63   5
   3   2 -10 68656.9 2748.33   5
  -3   2  10 65182.1 2172.31   2
   3   2 -10 65306.2 2307.38   4
   3   2 -10 61441.4 1823.92   1
  -3  -2 -10 64575.6 2031.54   9
   3   2 -10 65454.1 2444.63   9
   3   2  -9 14314.9 1091.45   9
   3  -2   9 12775.4 748.786   3
  -3  -2  -9 12495.0 1165.23   7
   3  -2   9 14754.7 1204.30   6
  -3   2   9 13147.8 1276.02   3
  -3  -2  -9 13833.1 925.427   5
   3   2  -9 14709.9 1271.21   5
  -3   2   9 12204.0 900.287   2
   3   2  -9 12899.2 998.167   4
   3   2  -9 12441.2 669.380   1
  -3  -2  -9 14604.9 827.080   9
   3  -2   9 14310.0 1242.62   1
  -3  -2  -8 45149.1 2028.62   7
  -3   2   8 48723.4 2320.86   3
   3  -2   8 43576.3 1511.09   3
   3  -2   8 45522.4 2031.18   6
   3   2  -8 48236.3 1890.79   9
   3  -2   8 43169.9 2029.63   1
  -3  -2  -8 47936.8 1820.82   5
   3   2  -8 51952.9 2294.18   5
  -3   2   8 46534.5 1751.56   2
   3   2  -8 48848.6 1870.56   4
  -3  -2  -8 49903.2 1488.37   9
   3   2  -8 40600.6 1225.19   1
  -3  -2  -7 83058.0 2766.44   7
  -3   2   7 83875.5 3046.82   3
   3  -2   7 76530.0 2211.18   3
   3  -2   7 79640.8 2807.62   6
   3  -2   7 76075.8 2732.20   1
  -3  -2  -7 79510.6 2518.11   5
   3   2  -7 81631.0 2951.78   5
  -3   2   7 79711.5 2396.33   2
   3   2  -7 78474.3 2450.23   9
   3   2  -7 78354.4 2470.03   4
  -3  -2  -7 79348.4 1939.89   9
  -3  -2  -6 261174. 6008.21   7
  -3   2   6 263299. 6377.12   3
   3  -2   6 253704. 5423.02   3
   3  -2   6 265649. 6164.73   6
  -3  -2  -6 263651. 5832.39   5
   3   2  -6 258973. 6261.72   5
   3  -2   6 259527. 6007.22   1
  -3   2   6 262085. 5588.41   2
   3   2  -6 263368. 5620.68   4
  -3  -2  -6 259092. 4813.97   9
   3   2  -6 258978. 5568.40   9
   3  -2   6 247854. 5801.12   9
  -3  -2  -5 67082.7 2406.02   7
  -3   2   5 68001.2 2648.29   3
   3  -2   5 67318.6 2114.35   3
   3  -2   5 71022.8 2597.33   6
  -3  -2  -5 69265.1 2158.93   1
   3   2  -5 68083.3 2061.65   9
   3   2  -5 74384.0 2724.69   5
   3  -2   5 67192.1 2388.30   1
   3   2  -5 73502.3 2220.80   4
   3  -2   5 64437.6 2248.43   9
  -3  -2  -4 139072. 3692.62   7
   3  -2   4 137604. 3478.36   7
  -3   2   4 140468. 4007.67   3
   3  -2   4 134890. 3409.40   3
   3  -2   4 137306. 3885.12   6
  -3  -2  -4 141128. 3314.66   1
   3   2  -4 136642. 3960.54   5
   3  -2   4 134550. 3628.46   1
   3   2  -4 126165. 3303.37   4
   3   2  -4 135466. 3154.94   9
   3  -2   4 131823. 3473.01   9
  -3   2   3 34018.2 981.944   7
  -3  -2  -3 36895.7 1651.03   7
   3  -2   3 36013.1 1445.39   7
  -3   2   3 37263.9 1829.19   3
   3  -2   3 36026.8 1514.04   3
   3  -2   3 41687.5 1911.55   6
  -3  -2  -3 38935.4 1357.33   1
   3   2  -3 36916.5 1840.84   5
  -3  -2  -3 36867.8 1566.76   2
   3  -2   3 36779.8 1586.56   1
   3   2  -3 35888.0 1437.68   4
   3   2  -3 37838.9 1235.40   9
   3  -2   3 34705.3 1463.63   9
  -3   2   2 55073.9 1399.40   7
  -3  -2  -2 59773.8 2120.48   7
   3  -2   2 57147.3 1804.32   7
  -3   2   2 59591.5 2268.94   3
   3  -2   2 54451.0 1974.74   3
   3  -2   2 56220.8 2270.42   6
  -3  -2  -2 57256.8 1638.46   1
   3   2  -2 56791.6 2294.58   5
  -3  -2  -2 56815.4 2004.17   2
   3  -2   2 56145.1 1981.15   1
   3  -2   2 55003.9 1876.15   4
   3   2  -2 57834.9 1880.78   4
   3   2  -2 53320.0 1442.05   9
  -3  -2  -1 33704.4 1550.16   7
   3  -2   1 35700.9 1283.96   7
  -3   2   1 34962.4 1677.20   3
   3  -2   1 33214.2 1519.69   3
  -3   2   1 35790.8 1086.66   7
   3  -2   1 34808.5 1760.00   6
  -3  -2  -1 35289.7 1141.27   1
   3   2  -1 34063.3 1718.25   5
  -3  -2  -1 34176.4 1512.51   2
   3  -2   1 34725.9 1468.28   1
   3  -2   1 34329.3 1360.02   4
   3   2  -1 33350.9 1402.76   4
  -3  -2   0 81139.4 2539.72   7
  -3   2   0 80676.0 2013.54   7
   3  -2   0 81748.5 2102.44   7
  -3   2   0 82909.0 2677.73   3
  -3  -2   0 84776.8 1908.61   1
   3  -2   0 87066.0 2888.16   6
   3   2   0 81278.9 2768.03   5
  -3  -2   0 78817.6 2500.36   2
   3  -2   0 80105.9 2215.82   4
   3  -2   0 80961.1 2398.78   1
   3   2   0 79652.6 2387.87   4
  -3  -2   1 35873.0 1584.37   7
  -3   2  -1 34514.6 1212.92   7
  -3   2  -1 34827.3 1591.48   3
   3  -2  -1 36730.7 1154.27   7
  -3  -2   1 34721.6 960.878   1
   3  -2  -1 33929.7 1731.76   6
   3   2   1 35234.6 1737.07   5
   3   2   1 36486.9 1498.26   4
  -3  -2   1 34738.0 1543.13   2
  -3   2  -1 36560.4 1434.35   1
   3  -2  -1 34099.9 1223.90   4
   3  -2  -1 36177.7 1439.29   1
  -3  -2   1 34414.3 873.518   9
  -3  -2   1 34284.5 1404.66   4
  -3  -2   2 67034.3 2252.74   7
  -3   2  -2 63620.2 1863.12   7
  -3   2  -2 61475.9 2181.77   3
   3  -2  -2 65957.4 1594.41   7
  -3  -2   2 62762.6 1988.51   4
   3  -2  -2 66783.7 2498.17   6
   3   2   2 64441.0 2385.74   5
  -3  -2   2 64636.0 2235.16   2
   3  -2  -2 62883.6 1679.74   4
   3  -2  -2 64511.8 2016.62   1
   3   2   2 67322.9 2153.87   4
  -3  -2   2 63959.7 1530.85   9
  -3   2  -2 61424.5 2074.06   1
  -3  -2   2 64530.4 1392.81   1
  -3  -2   3 31118.0 1501.71   7
  -3   2  -3 30646.8 1257.50   7
  -3   2  -3 31403.9 1441.69   3
   3  -2  -3 31612.7 909.969   7
   3   2   3 31653.9 1155.19   1
  -3   2  -3 31723.3 1447.24   1
   3  -2  -3 35287.7 1743.53   6
   3   2   3 29434.3 1582.12   5
  -3  -2   3 30915.7 1494.86   2
  -3  -2   3 30230.6 1282.46   4
   3  -2  -3 28844.8 885.236   4
   3  -2  -3 29509.9 1273.11   1
   3   2   3 31611.6 1446.95   4
  -3  -2   3 30950.3 1029.67   9
  -3   2  -4 137111. 3521.96   3
  -3   2  -4 139165. 3427.03   7
   3  -2  -4 138744. 2690.41   7
   3   2   4 138986. 3222.17   1
  -3  -2   4 134569. 3070.12   9
   3  -2  -4 140901. 3977.60   6
  -3  -2   4 133283. 3325.67   4
   3   2   4 136091. 3773.59   5
  -3  -2   4 132951. 3682.60   2
   3  -2  -4 138910. 3320.72   1
   3   2   4 140327. 3648.97   4
  -3   2  -5 66333.3 2150.10   3
   3  -2  -5 67242.6 1448.68   7
  -3   2  -5 64975.6 2169.40   7
   3   2   5 67565.8 2023.75   1
   3  -2  -5 63054.2 2494.93   6
   3   2   5 64991.8 2375.63   5
   3  -2  -5 69684.4 2238.67   9
  -3  -2   5 67434.2 2400.24   2
  -3  -2   5 63645.0 2023.83   4
  -3  -2   5 65375.5 1927.40   9
   3   2   5 72920.6 2399.05   4
   3  -2  -5 66004.9 1976.21   1
   3  -2  -6 259857. 4717.04   7
  -3   2  -6 275088. 5894.23   7
   3  -2  -6 271360. 5357.64   1
   3   2   6 270363. 5621.19   1
  -3  -2   6 265990. 5532.10   9
  -3  -2   6 254607. 4653.73   1
   3  -2  -6 267830. 6261.69   6
  -3  -2   6 266584. 6135.99   2
  -3  -2   6 261275. 5548.46   4
   3  -2  -6 277496. 5864.30   9
   3   2   6 266694. 6013.12   4
   3  -2  -7 70406.7 1571.88   7
   3  -2  -7 71324.2 2061.29   1
   3   2   7 74745.1 2324.12   1
  -3  -2   7 74026.4 1608.95   1
   3  -2  -7 79303.9 2769.14   6
  -3  -2   7 69435.7 2608.62   2
  -3  -2   7 71475.1 2208.79   4
  -3   2  -7 73008.2 2526.21   7
   3  -2  -7 74612.7 2475.39   9
  -3  -2   7 70356.7 2246.21   9
   3   2   7 75230.3 2583.40   4
   3  -2  -8 59110.8 1426.97   7
  -3   2  -8 62168.9 2355.88   7
   3  -2  -8 59364.6 1863.30   1
   3   2   8 61422.0 2160.27   1
  -3  -2   8 61219.6 1499.15   1
   3  -2  -8 57236.2 2391.71   6
  -3  -2   8 56863.6 2388.80   2
  -3  -2   8 59371.1 1993.74   4
   3  -2  -8 60970.3 2267.39   9
   3   2   8 61863.1 2382.01   4
   3  -2  -9 15405.8 652.614   7
   3   2   9 14766.5 1215.13   4
  -3   2  -9 16179.4 1268.03   7
   3   2   9 13762.7 1054.74   1
   3  -2  -9 16606.0 1214.80   9
   3  -2  -9 13834.7 861.306   1
  -3  -2   9 15708.2 715.527   1
   3  -2  -9 16825.4 1293.82   6
  -3  -2   9 14389.5 1229.18   2
  -3  -2   9 15221.2 961.171   4
  -3   2  -9 15978.0 1175.73   8
   3  -2 -10 68465.5 1810.25   7
  -3  -2  10 71973.5 2814.87   3
   3   2  10 73097.3 2584.75   1
  -3   2 -10 73323.7 2683.33   9
  -3  -2  10 74373.2 1920.72   1
   3  -2 -10 72787.5 2745.64   6
  -3  -2  10 69695.8 2800.94   2
  -3  -2  10 67917.8 2287.61   4
   3  -2 -10 77095.1 2693.96   9
   3   2  10 72263.3 2742.30   4
  -3   2 -10 69056.2 2731.86   7
  -3   2 -10 73103.0 2548.70   8
   3  -2 -11 60520.9 1791.96   7
  -3  -2  11 64083.7 2665.18   3
  -3   2 -11 67367.8 2748.30   7
   3  -2 -11 65010.6 1823.31   7
   3  -2 -11 65754.6 2576.71   9
   3   2  11 66435.5 2524.94   1
  -3  -2  11 65101.8 1886.72   1
   3  -2 -11 65177.3 2574.22   6
  -3  -2  11 62897.2 2692.61   2
  -3   2 -11 68201.3 2622.43   9
  -3   2 -11 66003.4 2403.62   8
   3  -2 -12 163320. 3847.64   7
  -3  -2  12 182938. 4991.72   3
  -3   2 -12 173520. 5045.63   7
   3  -2 -12 172786. 3852.28   7
   3   2  12 171119. 4717.13   1
  -3  -2  12 171522. 3928.42   1
  -3  -2  12 169583. 5003.51   2
   3  -2 -12 181897. 4877.26   9
  -3   2 -12 177476. 4890.16   9
  -3   2 -12 175048. 4481.87   8
  -3  -2  13 64199.2 2704.08   3
  -3   2 -13 56745.3 2725.87   7
   3  -2 -13 61511.9 1928.74   7
  -3  -2  13 60171.3 1980.67   1
   3  -2 -13 60360.3 2646.29   9
   3   2  13 62136.6 2594.56   1
  -3  -2  13 59711.0 2754.11   2
  -3   2 -13 58530.0 2605.90   9
  -3   2 -13 58996.0 2263.00   8
  -3  -2  14 53343.8 2480.48   3
  -3   2 -14 51282.4 2635.62   7
   3  -2 -14 50436.2 1808.52   7
   3  -2 -14 53087.7 2503.82   9
   3   2  14 53528.8 2488.05   1
  -3  -2  14 52111.3 1894.48   1
  -3   2 -14 53249.8 2107.86   8
  -3  -2  14 51716.7 2617.37   2
  -3   2 -14 51182.3 2499.51   9
   3   2  15 2032.57 825.414   1
  -3  -2  15 2377.07 542.321   1
  -3  -2  15 1888.50 762.167   3
  -3   2 -15 872.400 744.903   7
   3  -2 -15 2205.61 514.057   7
  -3  -2  15 1600.24 877.272   2
   3  -2 -15 2666.93 787.801   9
  -3   2 -15 2580.98 918.181   9
  -3   2 -15 2192.91 599.514   8
   3   2  16 6787.40 1123.16   1
  -3  -2  16 10264.2 934.912   1
  -3  -2  16 11202.2 1258.66   3
  -3   2 -16 6987.63 1227.90   7
   3  -2 -16 8420.75 832.752   7
   3  -2 -16 8497.67 1198.40   9
  -3   2 -16 10150.8 1282.77   9
  -3  -2  16 9003.21 1333.69   2
  -3   2 -16 7500.59 826.846   8
  -3   2 -17 5510.68 712.197   8
   3   2  17 5162.85 1151.60   1
  -3  -2  17 5793.95 794.756   1
  -3  -2  17 6215.99 1065.11   3
  -3   2 -17 7277.33 1362.66   7
   3  -2 -17 5860.86 788.090   7
   3  -2 -17 5544.28 1147.34   9
  -3   2 -17 6755.90 1176.18   9
  -3  -2  17 4981.55 1118.23   2
  -3  -2  18 27253.3 1883.50   3
  -3   2 -18 26674.1 2162.15   7
   3  -2 -18 27866.2 1504.60   7
   3   2  18 25439.5 1971.33   1
  -3  -2  18 27096.3 1593.84   1
  -3  -2  18 27354.2 2112.73   2
   3  -2 -18 26746.5 1986.09   9
  -3   2 -18 26218.6 2014.11   9
   3   2  19 756.450 997.335   1
  -3  -2  19 1142.64 640.489   1
  -3  -2  19-271.083 674.687   3
  -3   2 -19 2073.84 1162.03   7
   3  -2 -19 38.3253 496.459   7
   3  -2 -19-266.870 831.174   9
  -3   2 -19 784.741 905.467   9
  -3  -2  19 713.431 823.656   2
   3   2  20 8758.09 1492.03   1
  -3  -2  20 7263.94 976.342   1
  -3  -2  20 5795.75 1053.11   3
  -3   2 -20 7357.94 1489.81   7
   3  -2 -20 7063.40 1398.69   9
  -3   2 -20 5118.35 1283.63   9
  -3  -2  20 4443.29 1125.11   2
   3  -2 -21 1112.71 1103.88   9
   3   2  21 3090.27 1194.43   1
  -3  -2  21 506.682 649.464   1
  -3   2 -21 2133.71 1140.90   9
  -3  -2  21 550.980 748.157   3
  -3   2 -21 1827.71 1168.46   7
  -3  -2  21 1243.43 932.105   2
   3   2  22 402.659 794.359   1
  -3   2 -22 2663.98 1127.83   9
  -3  -2  22 1288.62 726.367   1
  -3  -2  22 487.919 700.098   3
  -3   2 -22-1202.18 1119.34   7
   3  -2 -22-574.252 1222.54   9
  -3  -2  22 1814.58 1057.76   2
   3   2  23 888.252 1033.48   1
  -3  -2  23 700.530 785.328   3
  -3   2 -23 1573.83 1327.59   7
   3  -2 -23 634.301 947.473   9
  -3  -2  23 529.844 1098.37   2
  -3   2 -23 489.150 1070.57   9
  -3   2 -24 5285.88 1551.97   7
  -3  -2  24 3529.56 1211.67   2
   3  -2 -24 4757.85 1519.66   9
  -3   2 -24 1463.65 1058.67   9
   3   2  24 2463.73 1287.35   1
  -3   2 -25-883.812 1015.31   7
  -3  -2  25-343.705 1139.45   2
   3  -2 -25-1818.76 1298.64   9
  -3   2 -25-963.255 1257.68   9
   3   2  25-739.020 1121.70   1
   3  -2 -26-946.984 1122.49   9
  -3   2 -26 653.880 1215.75   9
  -3  -2  26 561.086 1086.44   2
   3   2  26-982.032 923.802   1
  -3  -2  27 1434.77 1139.20   2
  -3   2 -27 577.029 1147.59   9
   3   3 -27-2198.62 1433.89   7
  -3   3  27-2444.00 1360.00   3
  -3  -3 -26 328.480 971.877   7
  -3   3  26 534.966 1046.53   3
   3   3 -26-1451.96 1480.97   9
  -3  -3 -25 4214.92 1349.79   7
  -3   3  25 2172.48 971.116   3
   3  -3  25 3628.46 1500.95   1
  -3  -3 -25 3046.47 1060.33   9
   3   3 -25 4741.61 1426.55   9
  -3  -3 -24 4502.06 1382.66   7
  -3   3  24 3763.12 1213.55   3
   3  -3  24 3246.13 1334.94   1
   3   3 -24 5954.71 1280.77   5
   3   3 -24 6283.82 1473.09   9
  -3  -3 -24 5033.86 1219.28   9
  -3  -3 -23 9103.71 1614.79   7
  -3   3  23 12993.7 1771.00   3
   3  -3  23 7208.36 1564.07   1
   3   3 -23 11966.0 1527.58   5
   3   3 -23 12064.2 1800.16   9
  -3  -3 -23 10633.4 1501.97   9
  -3  -3 -22 1139.03 1100.45   7
  -3   3  22 114.600 1045.51   3
   3  -3  22 802.562 1197.87   1
   3   3 -22 590.299 869.054   5
  -3  -3 -22 688.018 862.682   9
   3   3 -22 121.108 1066.28   9
  -3  -3 -21 1007.51 1065.30   7
  -3   3  21 2868.45 1147.06   3
   3  -3  21 1939.42 1322.78   1
   3   3 -21 1113.55 934.298   5
  -3  -3 -21 2060.65 911.462   9
   3   3 -21 363.665 1061.91   9
  -3  -3 -20 5835.39 1296.29   7
   3   3 -20 6353.26 1343.51   9
  -3   3  20 5148.35 1280.32   3
  -3  -3 -20 5751.66 1057.92   9
   3  -3  20 5707.14 1364.33   1
   3   3 -20 3787.13 1046.34   5
   3   3 -19 15245.2 1735.63   9
  -3  -3 -19 12605.0 1487.63   7
  -3   3  19 16002.2 1739.65   3
   3  -3  19 15747.4 1312.96   6
   3  -3  19 12884.1 1670.90   1
   3   3 -19 15855.3 1643.94   5
  -3  -3 -19 13442.1 1373.03   9
  -3  -3 -18 10944.1 1461.43   7
   3   3 -18 12588.0 1576.27   9
  -3   3  18 13389.4 1709.34   3
   3  -3  18 13866.8 1238.76   6
   3  -3  18 11747.1 1516.45   1
   3   3 -18 12663.0 1452.12   5
  -3   3  18 11691.5 998.340   2
  -3  -3 -18 13382.5 1359.89   9
  -3   3  18 11547.6 1077.89   8
  -3  -3 -17 23122.6 1857.82   7
  -3   3  17 28219.2 2229.24   3
   3  -3  17 27641.6 1692.72   6
   3  -3  17 28134.0 2205.86   1
   3   3 -17 23429.4 1889.27   5
  -3   3  17 23888.8 1365.43   2
  -3  -3 -17 24163.3 1660.47   9
   3   3 -17 26166.0 2026.09   9
  -3   3  17 26126.1 1525.81   8
  -3  -3 -16 8471.07 1288.82   7
  -3   3  16 10127.9 1398.98   3
  -3  -3 -16 11877.7 1185.73   9
   3  -3  16 11885.7 1162.24   6
  -3   3  16 11011.9 937.594   2
   3   3 -16 9160.00 1254.00   5
   3  -3  16 10475.6 1423.23   1
   3   3 -16 12970.9 1479.75   9
  -3   3  16 10933.5 1044.08   8
   3   3 -15 11403.3 1350.50   9
  -3   3  15 10559.4 901.591   2
  -3  -3 -15 9737.11 1320.33   7
  -3   3  15 13627.3 1591.89   3
   3  -3  15 12691.0 1163.49   6
   3   3 -15 12969.4 1468.44   5
   3  -3  15 10317.5 1371.95   1
  -3  -3 -15 12043.8 1119.17   9
  -3  -3 -14 17979.2 1597.52   7
   3  -3  14 16946.3 1343.76   6
  -3   3  14 14098.4 1565.72   3
  -3   3  14 16913.3 1086.82   2
  -3  -3 -14 15491.7 1171.63   9
   3   3 -14 14623.4 1446.34   5
   3   3 -14 16219.5 1345.74   4
   3  -3  14 16291.9 1605.86   1
   3   3 -14 16946.2 1522.02   9
  -3  -3 -13 24825.4 1735.29   7
  -3   3  13 29387.6 2120.10   3
   3  -3  13 30705.9 1766.20   6
   3  -3  13 28581.0 2028.12   1
   3   3 -13 29316.5 1978.20   5
  -3   3  13 25080.1 1292.75   2
   3   3 -13 28917.4 1728.42   4
  -3  -3 -13 26710.1 1464.42   9
   3   3 -13 30063.9 1901.48   9
   3   3 -12 2269.69 487.840   1
  -3  -3 -12 2394.89 785.476   7
  -3   3  12 1177.14 866.050   3
   3  -3  12 2776.79 744.691   6
   3   3 -12 2592.13 821.529   5
   3  -3  12 2304.74 240.273   5
   3  -3  12 1995.77 847.666   1
  -3   3  12 2758.29 532.816   2
   3   3 -12 3169.35 764.831   4
  -3  -3 -12 1966.82 535.608   9
   3   3 -12 1678.31 741.066   9
  -3  -3 -11 55931.8 2506.34   7
  -3   3  11 56578.0 2769.67   3
   3  -3  11 60807.2 2502.07   6
   3  -3  11 54252.3 2637.07   1
   3   3 -11 57344.6 2674.31   5
  -3   3  11 52604.0 1903.26   2
   3   3 -11 56386.6 2368.13   4
  -3  -3 -11 57108.9 1985.59   9
   3   3 -11 50611.2 1815.61   1
   3   3 -11 55597.9 2424.66   9
  -3  -3 -10 1441.52 802.542   7
   3   3 -10 2287.76 423.197   1
  -3   3  10 1126.02 762.427   3
   3  -3  10 1774.40 724.493   6
  -3   3  10 1255.06 453.987   2
   3  -3  10 2437.34 309.689   3
   3   3 -10 2179.91 875.399   5
   3   3 -10 2987.29 729.563   4
   3   3 -10 2114.52 656.316   9
  -3  -3 -10 2379.05 480.992   9
   3  -3  10 2461.70 788.913   1
  -3  -3  -9 27272.8 1679.79   7
  -3   3   9 26623.4 1859.12   3
   3  -3   9 24385.2 988.110   3
   3  -3   9 27505.5 1690.27   6
   3  -3   9 27123.0 1793.78   1
   3   3  -9 26759.0 1805.95   5
  -3   3   9 28559.7 1294.34   2
   3   3  -9 26218.6 1573.87   4
  -3  -3  -9 27456.8 1172.50   9
   3   3  -9 24931.3 1521.39   9
   3  -3   8 4201.88 919.537   1
  -3  -3  -8 4193.56 848.592   7
  -3   3   8 3622.76 924.870   3
   3  -3   8 4821.59 867.515   6
   3  -3   8 4003.04 438.131   3
   3   3  -8 4650.61 915.898   5
  -3  -3  -8 4334.66 448.546   9
   3   3  -8 3400.25 684.461   9
   3   3  -8 4491.48 779.703   4
  -3  -3  -7 117994. 3629.16   7
  -3   3   7 120651. 3987.61   3
   3  -3   7 121087. 3774.60   6
   3   3  -7 123056. 3985.23   5
   3  -3   7 120542. 3806.79   1
   3  -3   7 114806. 2907.35   3
   3   3  -7 120635. 3518.06   4
  -3  -3  -7 119343. 2700.83   9
   3   3  -7 121524. 3408.58   9
  -3  -3  -6 19211.6 1367.17   7
  -3   3   6 18748.3 1503.43   3
   3  -3   6 19779.0 1037.43   3
  -3  -3  -6 21523.7 801.505   9
   3  -3   6 20817.0 1479.30   6
   3   3  -6 21290.7 1579.56   5
   3  -3   6 22107.0 1504.25   1
   3   3  -6 22112.2 1326.58   4
   3   3  -6 20250.6 1174.41   9
  -3  -3  -5 116427. 3495.44   7
  -3   3   5 117226. 3799.22   3
   3  -3   5 113043. 3010.18   3
   3  -3   5 120457. 3740.26   6
   3   3  -5 116878. 3821.86   5
  -3  -3  -5 116075. 2402.22   9
   3  -3   5 111038. 3511.58   1
   3   3  -5 111288. 3289.68   4
   3   3  -5 114495. 3061.02   9
  -3   3   4 38772.3 1995.57   3
   3  -3   4 38949.7 1569.39   3
  -3  -3  -4 37897.4 1503.63   1
   3  -3   4 40271.9 1991.24   6
   3   3  -4 41518.6 2112.70   5
  -3  -3  -4 37651.2 1804.08   7
  -3  -3  -4 36378.8 1595.51   2
   3  -3   4 35108.9 1798.12   1
   3   3  -4 44293.0 1801.18   4
  -3  -3  -4 38870.2 988.999   9
   3   3  -4 39094.1 1467.55   9
  -3  -3  -4 36251.1 1017.19   9
  -3  -3  -3 20422.8 1329.34   7
  -3   3   3 21904.3 1463.11   3
   3  -3   3 21972.7 1192.96   3
  -3  -3  -3 21186.2 1042.79   1
   3  -3   3 25213.0 1640.57   6
   3   3  -3 24756.3 1620.19   5
  -3  -3  -3 21832.4 1211.98   2
   3  -3   3 19010.3 1291.37   1
   3   3  -3 23303.1 1291.83   4
  -3  -3  -3 20220.1 681.344   9
  -3  -3  -3 21518.4 632.565   9
  -3  -3  -2 73107.2 2555.15   7
  -3   3   2 70519.1 1492.06   7
  -3   3   2 73181.1 2711.49   3
  -3  -3  -2 74427.9 2072.45   1
   3  -3   2 75466.5 2849.39   6
  -3  -3  -2 69674.3 1587.54   9
   3   3  -2 74476.8 2859.54   5
  -3  -3  -2 70959.1 2334.94   2
   3  -3   2 71428.1 2522.19   1
   3  -3   2 70887.9 2359.89   4
   3   3  -2 74456.7 2448.04   4
  -3  -3  -1 280133. 6292.99   7
  -3   3   1 277173. 5098.15   7
  -3   3   1 286148. 6461.27   3
  -3  -3  -1 277394. 5528.45   1
   3  -3   1 284557. 6704.38   6
   3   3  -1 278981. 6712.80   5
  -3  -3  -1 280139. 6071.79   2
   3  -3   1 265739. 5945.16   4
   3  -3   1 274295. 6261.48   1
   3   3  -1 283832. 6114.13   4
  -3  -3  -1 274105. 5088.35   9
  -3  -3   0 25226.5 1461.59   7
  -3   3   0 26640.3 937.078   7
  -3   3   0 27376.7 1515.39   3
  -3  -3   0 25379.0 859.526   9
  -3  -3   0 25188.2 996.508   1
   3  -3   0 26215.1 1709.34   6
   3   3   0 27385.4 1684.91   5
  -3  -3   0 27861.8 1410.39   2
   3  -3   0 24273.5 1192.20   4
   3  -3   0 26605.5 1402.52   1
   3   3   0 26737.6 1376.65   4
  -3  -3   1 279762. 6443.18   7
  -3   3  -1 285346. 5587.05   7
  -3   3  -1 287637. 6435.01   3
  -3  -3   1 278211. 5488.79   1
   3  -3  -1 296629. 6932.16   6
   3   3   1 298480. 6892.21   5
  -3  -3   1 292707. 6338.56   2
   3  -3  -1 274473. 5797.09   4
   3  -3  -1 288169. 6335.09   1
   3   3   1 289157. 6320.07   4
  -3  -3   1 293246. 5459.06   9
  -3  -3   2 69450.4 2487.39   7
  -3   3  -2 68366.7 1934.02   7
  -3   3  -2 64992.1 2307.25   3
  -3  -3   2 65130.8 1690.55   1
   3  -3  -2 69261.1 2744.89   6
   3  -3  -2 66958.1 2313.63   1
   3   3   2 71588.4 2717.31   5
  -3  -3   2 64876.8 2339.62   2
   3  -3  -2 61653.5 1816.02   4
   3   3   2 69931.8 2369.64   4
  -3  -3   2 66756.3 1805.49   9
  -3  -3   2 64906.4 1726.13   1
  -3   3  -3 22861.9 1111.95   7
  -3   3  -3 23250.5 1258.78   3
  -3  -3   3 21253.4 810.113   1
  -3  -3   3 21833.3 984.354   9
   3  -3  -3 23372.5 1587.17   6
   3   3   3 21949.1 1322.20   4
  -3  -3   3 21626.4 1329.35   2
   3  -3  -3 23158.5 869.911   4
  -3  -3   3 23741.7 907.229   1
   3  -3  -3 21052.6 1210.07   1
  -3   3  -4 35810.1 1491.96   7
  -3   3  -4 35779.4 1535.44   3
   3  -3  -4 34084.1 1903.86   6
  -3  -3   4 32903.3 1690.40   2
  -3  -3   4 33370.3 1128.74   1
   3  -3  -4 32562.7 968.618   4
   3   3   4 33652.1 1635.92   4
  -3  -3   4 34258.6 1329.00   9
   3  -3  -4 31644.9 1503.91   1
  -3   3  -5 115547. 3103.10   3
  -3   3  -5 119022. 3222.36   7
   3  -3  -5 124475. 3874.91   6
  -3  -3   5 119534. 2643.62   1
  -3  -3   5 116971. 3525.90   2
   3  -3  -5 112384. 2262.22   4
   3   3   5 119232. 3478.17   4
  -3  -3   5 117979. 3041.51   9
   3  -3  -5 116252. 3191.58   1
  -3   3  -6 18999.1 1043.43   3
  -3   3  -6 19331.8 1205.57   7
   3  -3  -6 19971.8 1516.42   6
  -3  -3   6 20102.4 855.442   1
  -3  -3   6 19519.6 1348.80   2
   3   3   6 19830.5 1322.14   4
  -3  -3   6 19579.5 1098.31   9
  -3   3  -7 109352. 2855.36   3
  -3   3  -7 107990. 3328.64   7
   3  -3  -7 104975. 3683.49   6
  -3  -3   7 113591. 2633.91   1
  -3  -3   7 103058. 3504.10   2
   3  -3  -7 115819. 3397.61   9
   3   3   7 115773. 3509.05   4
   3   3   7 116144. 3193.01   1
   3   3   8 1853.19 757.693   4
  -3   3  -8 3424.93 755.977   7
   3  -3  -8 2784.90 835.255   6
  -3  -3   8 3396.71 774.937   2
  -3  -3   8 2625.91 385.890   1
   3  -3  -8 709.285 602.603   9
   3   3   8 2511.15 616.437   1
  -3   3  -9 29293.4 1742.28   7
   3   3   9 26068.1 1487.22   1
   3  -3  -9 28296.2 1849.02   6
   3  -3  -9 28869.5 1678.26   9
  -3  -3   9 28074.3 1152.38   1
  -3  -3   9 26056.5 1765.27   2
   3   3   9 28344.2 1708.76   4
   3   3  10 1020.45 743.718   4
  -3   3 -10 1362.57 664.159   7
  -3  -3  10 1394.46 397.263   1
   3   3  10 880.715 608.883   1
  -3  -3  10 2518.67 823.416   2
   3  -3 -10 1002.02 681.042   9
   3   3  11 48407.8 2289.99   4
   3  -3 -11 42271.7 972.015   7
   3  -3 -11 43400.3 968.451   7
   3   3  11 46676.0 2152.21   1
  -3   3 -11 46497.9 2327.27   7
  -3  -3  11 48099.4 1678.57   1
  -3  -3  11 45330.5 2364.54   2
   3  -3 -11 51090.3 2306.21   9
   3   3  12 3673.37 852.746   4
   3  -3 -12 3047.74 281.898   7
   3  -3 -12 2925.69 266.026   7
  -3   3 -12 3737.71 972.771   7
  -3  -3  12 3497.96 907.910   2
  -3  -3  12 2207.61 473.714   1
   3  -3 -12 2971.54 884.619   9
   3   3  12 3398.32 792.587   1
   3  -3 -13 28619.8 960.492   7
  -3   3 -13 28573.0 1953.02   7
   3   3  13 28659.7 1800.30   1
  -3  -3  13 30332.9 1417.55   1
  -3  -3  13 25934.0 1949.54   2
   3  -3 -13 29027.0 1857.16   9
   3   3  13 26289.3 1778.88   4
  -3   3 -13 25345.9 1820.19   9
   3   3  14 13639.8 1428.93   4
   3  -3 -14 12802.1 689.333   7
  -3   3 -14 12552.2 1447.96   7
  -3  -3  14 15523.6 1068.54   1
   3  -3 -14 13092.2 1378.05   9
  -3   3 -14 13437.1 1425.46   9
  -3   3 -14 14787.0 1185.13   8
   3   3  14 13319.4 1328.33   1
  -3  -3  14 13183.0 1592.94   2
   3  -3 -15 9244.74 653.009   7
  -3   3 -15 11090.3 1437.51   7
   3   3  15 11980.0 1400.21   4
  -3  -3  15 9090.78 884.639   1
  -3   3 -15 9577.15 1288.41   9
   3  -3 -15 9252.13 1220.28   9
   3   3  15 10734.2 1294.86   1
  -3  -3  15 9964.51 1359.11   2
  -3   3 -15 10393.2 997.305   8
   3   3  16 13761.5 1496.40   4
   3  -3 -16 13447.1 1502.38   9
  -3   3 -16 16677.5 1727.93   7
  -3  -3  16 14506.2 1122.30   1
  -3   3 -16 14302.0 1540.30   9
  -3   3 -16 13793.8 1124.50   8
   3   3  16 13342.6 1449.20   1
  -3  -3  16 12880.6 1634.03   2
   3   3  17 23128.2 1874.55   1
  -3   3 -17 25246.8 2126.32   7
  -3  -3  17 25008.6 1524.98   1
  -3   3 -17 23906.9 1954.88   9
  -3   3 -17 25685.6 1497.02   8
   3   3  17 25546.2 1964.08   4
   3  -3 -17 25971.5 2021.04   9
  -3  -3  17 22777.3 2042.57   2
   3   3  18 14520.0 1638.48   4
  -3   3 -18 12293.7 1643.07   7
  -3  -3  18 12585.4 1150.63   1
  -3   3 -18 14037.7 1109.80   8
   3  -3 -18 14712.0 1665.68   9
  -3   3 -18 11939.4 1560.93   9
   3   3  18 17267.7 1727.00   1
  -3  -3  18 13760.5 1714.16   2
   3   3  19 16915.3 1747.32   4
   3   3  19 17317.8 1778.09   1
  -3   3 -19 16910.0 1954.87   7
  -3  -3  19 18280.6 1384.77   1
   3  -3 -19 16045.7 1757.91   9
  -3   3 -19 12921.7 1605.18   9
  -3  -3  19 13445.8 1733.51   2
   3   3  20 4575.22 1174.59   4
  -3  -3  20 4802.56 897.250   1
  -3   3 -20 3869.23 1171.46   7
   3  -3 -20 6218.87 1327.32   9
  -3   3 -20 4489.06 1157.66   9
   3   3  20 4461.07 1155.03   1
  -3  -3  20 6253.21 1442.49   2
   3   3  21 3348.40 1161.68   4
  -3  -3  21 1266.52 687.870   1
  -3   3 -21 312.486 1082.64   7
   3  -3 -21 1333.38 1085.17   9
  -3   3 -21 1036.49 1015.86   9
   3   3  21 1191.15 1047.55   1
  -3  -3  21 122.311 1169.67   2
   3   3  22-516.930 890.164   4
  -3   3 -22-2340.98 1464.61   7
   3   3  22 404.920 1083.38   1
   3  -3 -22-790.285 1158.23   9
  -3   3 -22-1279.93 1240.46   9
  -3  -3  22 498.845 1010.56   2
   3   3  23 11072.6 1612.05   4
  -3   3 -23 11772.3 1893.68   7
   3  -3 -23 13079.9 1895.40   9
  -3   3 -23 15040.5 1979.49   9
   3   3  23 13660.7 1717.48   1
  -3  -3  23 11417.5 1786.04   2
   3   3  24 4265.15 1409.34   4
  -3   3 -24 3600.32 1296.63   7
   3  -3 -24 5952.91 1539.47   9
   3   3  24 3103.88 1270.41   1
  -3  -3  24 5003.82 1459.36   2
  -3   3 -24 3499.52 1423.59   9
   3   3  25 6307.98 1359.20   4
  -3   3 -25 4265.76 1364.90   7
   3  -3 -25 3825.56 1279.33   9
   3   3  25 1191.27 982.491   1
  -3   3 -25 5853.16 1630.43   9
  -3  -3  25 4202.43 1297.17   2
  -3   3 -26 544.431 1314.01   9
  -3  -3  26 3973.02 1499.02   2
  -3  -4 -25-80.6494 1117.87   7
  -3   4  25-728.806 1304.31   3
   3   4 -25 951.117 1135.41   9
  -3  -4 -24 1633.76 1208.44   7
  -3   4  24 1594.40 1307.92   3
   3  -4  24 1499.32 1177.87   1
   3   4 -24 628.412 1344.53   9
  -3  -4 -23-569.795 1053.51   7
  -3   4  23-244.861 1096.06   3
   3  -4  23-1746.42 1129.27   1
   3   4 -23-787.448 1046.07   5
  -3  -4 -23 1451.37 1072.55   9
   3   4 -23 115.472 1143.29   9
  -3  -4 -22 249.534 1062.63   7
  -3   4  22 1847.49 1183.82   3
   3  -4  22 684.751 1166.55   1
   3   4 -22 824.674 945.825   5
   3   4 -22-411.772 994.077   9
  -3  -4 -22 430.915 804.250   9
  -3  -4 -21 435.185 1018.13   7
  -3   4  21-665.885 1030.11   3
   3  -4  21 2569.26 1308.26   1
   3   4 -21-740.824 906.531   5
  -3  -4 -21 2034.09 971.957   9
   3   4 -21 1699.30 1139.70   9
  -3  -4 -20 927.933 852.169   7
  -3   4  20-1134.34 1185.23   3
   3  -4  20 1739.41 1230.58   1
   3   4 -20-179.435 997.929   5
  -3  -4 -20-557.092 759.762   9
   3   4 -20-54.5876 1116.39   9
  -3  -4 -19-295.754 1011.22   7
  -3   4  19-810.092 1261.70   3
   3   4 -19 2601.21 1059.65   5
   3  -4  19 1627.80 1310.01   1
  -3  -4 -19 373.231 716.759   9
   3   4 -19 1761.48 1184.21   9
  -3  -4 -18 8417.62 1287.50   7
  -3   4  18 9443.32 1638.83   3
   3   4 -18 8447.71 1354.04   5
   3  -4  18 9099.43 1620.82   1
  -3  -4 -18 8722.02 1163.71   9
   3   4 -18 9990.16 1443.06   9
  -3  -4 -17 5710.56 1226.95   7
  -3   4  17 5904.92 1336.05   3
   3   4 -17 6205.63 1239.64   5
   3  -4  17 6435.72 1382.73   1
  -3  -4 -17 6509.80 967.906   9
   3   4 -17 6082.09 1177.65   9
  -3  -4 -16 3543.71 1100.17   7
  -3   4  16 3824.61 1148.56   3
   3  -4  16 3903.17 861.467   6
   3   4 -16 5598.11 1216.41   5
   3  -4  16 4832.35 1123.71   1
  -3  -4 -16 2526.32 724.441   9
   3   4 -16 2609.47 1012.65   9
  -3  -4 -15 14867.4 1262.96   9
   3  -4  15 15769.4 1653.82   1
  -3  -4 -15 16785.7 1585.09   7
  -3   4  15 15354.1 1782.34   3
   3  -4  15 13768.8 1315.40   6
   3   4 -15 16684.1 1630.72   5
   3   4 -15 15685.9 1473.00   4
   3   4 -15 14589.9 1554.42   9
   3   4 -14 16664.6 1583.35   9
  -3  -4 -14 17220.8 1621.13   7
   3   4 -14 16078.0 1520.31   4
  -3   4  14 16311.8 1748.55   3
   3  -4  14 16545.9 1440.01   6
   3   4 -14 14080.4 1494.85   5
  -3  -4 -14 15377.4 1224.43   9
   3  -4  14 17570.4 1764.49   1
  -3  -4 -13 28405.0 1890.29   7
  -3   4  13 25444.3 2143.85   3
   3  -4  13 27129.5 1813.22   6
   3  -4  13 25179.2 1992.03   1
   3   4 -13 26778.8 1943.83   5
   3   4 -13 27967.3 1870.08   4
  -3  -4 -13 25664.4 1457.97   9
   3   4 -13 28007.2 1961.18   9
  -3  -4 -12 23652.6 1685.09   7
  -3   4  12 24821.6 1990.48   3
   3  -4  12 23989.4 1699.12   6
   3   4 -12 25836.2 1778.13   9
   3  -4  12 22266.1 1846.66   1
   3   4 -12 23005.4 1898.17   5
   3   4 -12 23168.9 1700.98   4
  -3   4  12 21208.2 691.276   4
  -3  -4 -12 23147.6 1306.09   9
  -3  -4 -11 58460.8 2621.33   7
  -3   4  11 60960.7 3054.06   3
   3  -4  11 63066.5 2766.71   6
   3  -4  11 65387.2 3011.25   1
   3   4 -11 59906.5 2898.03   5
  -3   4  11 54596.3 1334.27   4
   3   4 -11 59592.1 2704.59   4
   3   4 -11 59829.8 2652.15   9
  -3  -4 -11 59515.2 2078.53   9
  -3  -4 -10 32194.1 1919.26   7
  -3   4  10 33142.3 2217.02   3
   3   4 -10 37837.4 1977.85   9
   3  -4  10 33839.7 1978.10   6
   3  -4  10 33172.1 2136.08   1
   3   4 -10 33076.5 2141.78   5
  -3   4  10 32320.9 941.571   4
   3   4 -10 34889.8 1984.46   4
  -3  -4 -10 33614.8 1452.85   9
  -3  -4  -9 41881.0 2151.43   7
  -3   4   9 43669.6 2527.01   3
   3  -4   9 46950.1 2357.55   6
   3   4  -9 51055.2 2588.46   5
   3  -4   9 44875.9 2385.18   1
  -3   4   9 42082.3 1181.13   4
   3   4  -9 44522.3 2237.95   4
   3   4  -9 42642.5 2073.96   9
  -3  -4  -9 44947.6 1628.61   9
  -3  -4  -8 44970.1 2217.54   7
  -3   4   8 46503.2 2546.41   3
   3  -4   8 43631.0 2285.38   6
   3   4  -8 45433.4 2463.42   5
   3  -4   8 42454.6 2280.14   1
  -3   4   8 43043.1 1254.02   4
   3   4  -8 46283.9 2228.24   4
  -3  -4  -8 44689.7 1550.52   9
   3   4  -8 47141.9 2088.24   9
  -3  -4  -7 123274. 3895.17   7
  -3   4   7 128644. 4350.05   3
   3  -4   7 127385. 4138.16   6
   3   4  -7 131645. 4359.89   5
   3  -4   7 129326. 4135.47   1
  -3   4   7 124815. 2784.21   4
   3   4  -7 123789. 3906.68   4
  -3  -4  -7 125880. 2984.67   9
   3   4  -7 123832. 3636.39   9
  -3  -4  -6 96083.6 3301.68   7
  -3   4   6 97006.4 3630.95   3
   3  -4   6 99115.1 3587.98   6
   3   4  -6 98751.8 3693.14   5
   3  -4   6 99788.0 3521.02   1
   3   4  -6 102602. 3330.48   4
  -3  -4  -6 94740.9 2369.43   9
   3   4  -6 93114.4 2923.79   9
  -3  -4  -5 15239.1 1248.69   7
  -3   4   5 15579.5 1463.52   3
   3  -4   5 15587.1 1441.42   6
   3   4  -5 16412.3 1512.35   5
   3  -4   5 15231.1 1358.95   1
  -3  -4  -5 14065.0 726.532   9
   3   4  -5 14704.4 1217.35   4
  -3  -4  -4 49579.0 2218.00   7
  -3   4   4 51967.7 2478.55   3
   3  -4   4 49160.1 2452.68   6
  -3  -4  -4 50518.6 1542.63   9
   3   4  -4 51138.0 2547.48   5
  -3  -4  -4 50707.3 1926.44   2
  -3  -4  -4 49032.5 1424.98   9
   3  -4   4 53192.3 2399.68   1
   3   4  -4 49090.3 2168.59   4
  -3  -4  -3 30031.1 1697.49   7
  -3   4   3 28447.6 1783.95   3
   3  -4   3 28433.2 1871.80   6
   3   4  -3 31132.5 2046.48   5
  -3  -4  -3 29741.7 1475.50   2
   3  -4   3 28610.6 1720.96   1
   3   4  -3 29832.8 1646.13   4
  -3  -4  -3 29286.3 1119.71   9
  -3  -4  -2 15926.1 1277.34   7
  -3   4   2 16087.5 1355.50   3
   3  -4   2 15891.4 1456.04   6
  -3  -4  -2 16065.3 1100.90   2
   3   4  -2 16858.2 1513.43   5
   3  -4   2 17022.1 1351.68   1
   3   4  -2 16196.7 1209.78   4
  -3  -4  -2 14824.3 798.731   9
  -3  -4  -1 22953.8 1467.92   7
  -3   4   1 22651.9 741.898   7
  -3   4   1 24920.2 1582.17   3
  -3  -4  -1 23115.7 1128.19   1
   3  -4   1 25968.0 1788.48   6
   3   4  -1 22842.5 1721.90   5
  -3  -4  -1 25933.0 1378.46   2
   3  -4   1 22874.9 1509.03   1
   3   4  -1 25244.7 1514.06   4
  -3  -4  -1 23623.2 1030.29   9
  -3  -4   0 46689.9 2162.12   7
  -3   4   0 49816.0 1389.96   7
  -3   4   0 53135.7 2251.58   3
  -3  -4   0 48098.1 1682.62   1
   3  -4   0 51711.9 2509.13   6
  -3  -4   0 49915.3 2007.91   2
   3  -4   0 45467.4 1818.57   4
   3  -4   0 51784.1 2238.77   1
   3   4   0 48808.8 2094.31   4
  -3  -4   0 48709.9 1614.08   9
  -3  -4   1 20812.2 1463.46   7
  -3   4  -1 19119.0 898.981   7
  -3   4  -1 17799.4 1291.48   3
  -3  -4   1 17590.3 938.779   1
  -3  -4   1 19407.2 983.421   1
   3  -4  -1 18624.5 1556.85   6
  -3  -4   1 20777.9 1316.57   2
   3  -4  -1 19306.6 1086.30   4
   3   4   1 20824.8 1362.63   4
   3  -4  -1 22150.9 1428.35   1
  -3  -4   1 18495.7 978.910   9
  -3  -4   2 15795.7 1298.43   7
  -3   4  -2 16759.8 917.593   7
  -3   4  -2 17219.8 1238.89   3
  -3  -4   2 15996.2 867.765   1
   3  -4  -2 17067.9 1496.14   6
  -3  -4   2 16363.3 951.763   9
  -3  -4   2 16319.9 1208.40   2
   3  -4  -2 15638.4 914.965   4
   3   4   2 17405.6 1271.74   4
   3  -4  -2 16666.8 1242.46   1
  -3  -4   2 17548.2 940.041   1
  -3   4  -3 37058.6 1484.44   7
  -3   4  -3 33911.8 1674.55   3
  -3  -4   3 37387.8 1526.89   9
   3  -4  -3 37579.6 2192.97   6
  -3  -4   3 36393.5 1803.34   2
   3  -4  -3 35172.7 1319.86   4
   3   4   3 37369.1 1877.96   4
  -3  -4   3 38272.5 1455.09   1
   3  -4  -3 34826.9 1748.28   1
  -3   4  -4 54013.8 1928.89   7
  -3   4  -4 47013.6 1893.60   3
   3  -4  -4 47940.8 2529.07   6
  -3  -4   4 47280.0 2155.10   2
  -3  -4   4 52526.4 1745.48   1
   3  -4  -4 46535.7 1492.35   4
   3   4   4 49349.4 2182.55   4
  -3  -4   4 49478.4 1867.94   9
   3  -4  -4 51673.0 2155.56   1
  -3   4  -5 21403.7 1267.59   7
  -3   4  -5 20919.2 1197.67   3
  -3  -4   5 20842.3 1462.83   2
  -3  -4   5 22933.9 1109.20   1
   3   4   5 22950.4 1493.97   4
   3  -4  -5 19968.3 844.850   4
  -3  -4   5 19972.5 1178.57   9
   3  -4  -5 22935.2 1418.22   1
   3  -4  -6 83693.7 2859.64   1
  -3   4  -6 85479.6 2519.19   3
  -3   4  -6 89355.9 2876.08   7
   3   4   6 86532.5 3074.84   4
  -3  -4   6 87072.6 2451.05   1
   3  -4  -6 83611.3 1995.52   4
  -3  -4   6 84633.2 3110.62   2
  -3   4  -7 130401. 3231.43   3
  -3   4  -7 126417. 3817.78   7
   3   4   7 135317. 4045.87   4
  -3  -4   7 132202. 3301.32   1
  -3  -4   7 123470. 4052.87   2
  -3   4  -8 38179.7 1380.82   3
  -3   4  -8 39568.0 1992.45   7
  -3  -4   8 38671.0 1534.89   1
  -3  -4   8 37292.0 2131.86   2
   3  -4  -8 33997.7 1446.81   2
   3  -4  -8 38447.2 1997.78   9
   3   4   8 37408.7 2000.96   4
  -3  -4   9 46229.2 1754.44   1
  -3  -4   9 46289.9 2388.41   2
   3  -4  -9 47148.7 1721.59   2
   3  -4  -9 51116.7 2341.04   9
   3   4   9 48067.3 2308.20   4
  -3   4  -9 45106.5 2237.22   7
  -3   4 -10 30643.5 1891.43   7
   3  -4 -10 30302.7 1878.48   9
  -3  -4  10 30459.1 1421.18   1
  -3  -4  10 30939.3 2041.42   2
   3  -4 -10 27575.4 1308.15   2
   3   4  10 30346.0 1877.66   4
  -3   4 -11 64322.9 2898.06   7
  -3  -4  11 66428.5 2266.62   1
  -3  -4  11 62414.8 2973.04   2
   3  -4 -11 64452.8 2811.51   9
   3   4  11 61503.1 2772.21   4
  -3   4 -12 25758.7 1912.19   7
  -3  -4  12 25352.7 1380.55   1
  -3  -4  12 21336.0 1810.61   2
   3  -4 -12 25469.8 1806.83   9
   3   4  12 27719.3 1893.02   4
  -3   4 -13 33145.7 2192.85   7
  -3  -4  13 32942.2 1624.60   1
  -3  -4  13 33210.3 2268.04   2
   3  -4 -13 30228.6 1994.99   9
   3   4  13 30384.9 2043.37   4
  -3   4 -14 18013.8 1749.07   7
   3  -4 -14 18478.9 1675.75   9
  -3  -4  14 18003.8 1252.40   1
   3   4  14 18169.7 1628.52   4
   3   4  14 18022.3 1556.94   1
  -3  -4  14 16173.2 1758.46   2
   3   4  15 14749.1 1487.92   1
   3   4  15 14884.7 1542.71   4
  -3   4 -15 14940.0 1669.25   7
  -3  -4  15 16545.7 1236.77   1
   3  -4 -15 14915.0 1536.40   9
  -3  -4  15 13511.4 1643.43   2
   3   4  16 1275.65 914.458   4
  -3   4 -16 2243.00 1165.58   7
  -3  -4  16 3291.00 728.840   1
   3  -4 -16 3572.28 1172.25   9
   3   4  16 1260.32 822.483   1
  -3  -4  16 1974.39 1075.66   2
   3   4  17 6431.72 1228.66   4
  -3   4 -17 4689.36 1177.48   9
  -3  -4  17 1883.31 1119.47   2
  -3   4 -17 5023.62 1190.15   7
  -3  -4  17 4241.79 870.822   1
   3  -4 -17 5109.55 1170.68   9
   3   4  17 4378.02 1016.46   1
  -3   4 -17 4719.21 824.199   8
   3   4  18 11036.1 1479.49   4
   3  -4 -18 10297.3 1492.50   9
  -3   4 -18 8558.86 1592.87   7
  -3  -4  18 11464.6 1181.39   1
   3   4  18 10388.4 1424.72   1
  -3   4 -18 7904.49 1395.07   9
  -3  -4  18 8317.16 1504.90   2
   3   4  19 149.263 941.166   1
  -3   4 -19 1426.09 1053.09   9
   3   4  19-146.466 1004.21   4
  -3   4 -19 70.5475 1115.43   7
  -3  -4  19 392.571 650.845   1
   3  -4 -19 2965.23 1241.11   9
  -3  -4  19 1408.47 1164.14   2
   3   4  20-406.660 1029.70   4
  -3   4 -20 1986.89 1109.55   7
   3   4  20-335.276 983.827   1
   3  -4 -20 955.367 1209.71   9
  -3   4 -20 1099.06 1169.13   9
  -3  -4  20 3688.22 1401.85   2
   3   4  21 1451.62 1163.54   4
  -3   4 -21 2676.38 1242.18   7
   3  -4 -21-93.2091 1252.06   9
   3   4  21 483.496 967.141   1
  -3   4 -21 2797.69 1211.21   9
  -3  -4  21 2038.05 1176.36   2
   3   4  22 315.538 1075.17   4
  -3   4 -22 341.284 1254.75   7
   3  -4 -22 1470.20 1376.55   9
   3   4  22-127.318 874.082   1
  -3   4 -22-917.814 1143.12   9
  -3  -4  22-566.005 1089.44   2
   3   4  23-1028.64 1185.48   4
  -3   4 -23 1190.23 1471.55   7
  -3  -4  23 293.678 1210.80   2
   3  -4 -23-332.659 1272.47   9
   3   4  23-873.985 1053.96   1
  -3   4 -23 3280.44 1433.42   9
   3   4  24 52.6811 1031.45   4
  -3   4 -24 3528.23 1571.59   7
   3   4  24-1365.14 1309.64   1
   3  -4 -24 1646.07 1353.58   9
  -3   4 -24 1622.43 1331.65   9
  -3  -4  24 2513.67 1359.10   2
   3   4  25-1529.96 1103.08   4
  -3   4 -25 2576.71 1368.31   9
  -3  -5 -24-1406.09 1168.72   7
   3   5 -24 345.323 1110.30   9
  -3  -5 -23 2091.54 1156.00   7
  -3   5  23 2213.11 1399.41   3
   3  -5  23 2829.90 1473.91   1
   3   5 -23 219.159 1186.05   9
  -3  -5 -22 2487.79 1219.17   7
  -3   5  22 4835.08 1598.86   3
   3  -5  22 5566.44 1642.19   1
   3   5 -22 4216.05 1209.36   5
   3   5 -22 4724.81 1469.60   9
  -3  -5 -21 1903.19 998.627   7
  -3   5  21 4094.80 1518.22   3
   3   5 -21 2533.38 1111.30   5
   3  -5  21 2571.87 1366.36   1
   3   5 -21 2889.65 1203.65   9
  -3  -5 -20 9774.83 1485.30   7
  -3   5  20 13332.9 1943.95   3
   3   5 -20 12476.6 1592.94   5
  -3  -5 -20 10929.1 1383.56   9
   3   5 -20 11862.2 1713.46   9
  -3  -5 -19 911.062 865.730   7
  -3  -5 -19 2146.09 846.656   9
  -3   5  19 560.210 1206.53   3
   3   5 -19 813.700 1081.79   5
   3  -5  19 1660.85 1313.23   1
   3   5 -19 1167.94 969.138   9
  -3  -5 -18 4954.56 1232.88   7
  -3   5  18 4703.91 1239.87   3
   3   5 -18 4580.76 1263.12   9
   3   5 -18 6197.33 1298.43   5
   3  -5  18 4482.30 1375.41   1
  -3  -5 -18 5266.96 1019.33   9
  -3  -5 -17-293.550 847.248   7
  -3   5  17 691.787 804.614   3
   3   5 -17-846.758 1023.47   5
   3  -5  17-2067.95 1161.29   1
  -3  -5 -17 897.003 659.939   9
   3   5 -17-656.968 933.707   9
  -3  -5 -16 5454.03 1129.90   7
  -3   5  16 4897.70 1381.24   3
   3   5 -16 6887.07 1362.65   5
   3   5 -16 5325.36 1166.82   4
   3  -5  16 5684.74 1298.07   1
  -3  -5 -16 5283.60 907.425   9
   3   5 -16 7250.10 1333.95   9
  -3  -5 -15 7796.25 1214.88   7
  -3   5  15 8151.78 1499.75   3
   3   5 -15 7226.45 1218.75   5
   3   5 -15 9312.16 1321.28   4
  -3  -5 -15 9664.78 1085.02   9
   3  -5  15 7901.33 1434.75   1
   3   5 -15 8779.23 1368.57   9
  -3  -5 -14 14873.3 1222.94   9
  -3  -5 -14 14198.9 1537.07   7
  -3   5  14 14956.8 1701.42   3
   3   5 -14 17881.6 1800.69   5
   3   5 -14 14830.4 1574.53   4
   3  -5  14 16334.3 1827.78   1
   3   5 -14 15401.3 1621.32   9
  -3  -5 -13 4598.13 1113.32   7
  -3   5  13 5070.04 1378.43   3
   3   5 -13 4546.17 1252.67   5
   3   5 -13 4315.88 1076.38   4
  -3  -5 -13 4012.22 710.236   9
   3   5 -13 6841.75 1210.52   9
   3  -5  13 4594.62 1069.21   1
   3  -5  12-284.565 950.834   1
  -3  -5 -12-932.746 751.275   7
  -3   5  12-159.202 816.392   3
   3   5 -12-569.386 947.962   5
   3   5 -12-843.876 806.932   4
  -3  -5 -12 734.517 504.527   9
   3   5 -12-107.074 683.609   9
   3  -5  11 10859.1 1459.41   1
  -3  -5 -11 10485.7 1274.53   7
  -3   5  11 9753.87 1477.64   3
   3   5 -11 8112.29 1233.03   4
   3   5 -11 12185.6 1554.25   5
  -3   5  11 11404.1 777.425   4
  -3  -5 -11 10257.2 924.983   9
   3   5 -11 10942.8 1238.36   9
  -3  -5 -10 10216.7 1272.05   7
   3  -5  10 11836.1 1475.67   1
  -3   5  10 9809.97 1511.41   3
   3   5 -10 10656.4 1430.84   5
  -3   5  10 10348.7 746.756   4
   3   5 -10 12557.4 1402.30   4
  -3  -5 -10 9255.31 861.341   9
   3   5 -10 11507.6 1214.04   9
  -3  -5  -9 3308.69 899.321   7
  -3  -5  -9 2253.66 511.202   9
   3  -5   9 2334.68 998.775   1
  -3   5   9 2653.56 1140.61   3
  -3   5   9 2446.32 457.719   4
   3   5  -9 2911.24 1038.06   5
   3   5  -9 2128.58 690.168   9
   3   5  -9 2296.53 873.368   4
  -3  -5  -8 20043.1 1603.08   7
   3   5  -8 19463.0 1640.05   4
   3  -5   8 21072.4 1760.27   1
  -3   5   8 18043.3 1746.05   3
   3   5  -8 19948.8 1810.48   5
  -3   5   8 19754.6 1078.03   4
  -3  -5  -8 17806.5 1049.88   9
   3   5  -8 19185.5 1423.48   9
  -3  -5  -7 4992.55 996.114   7
  -3   5   7 4711.31 1166.98   3
   3  -5   7 5790.38 1093.82   1
   3   5  -7 3330.53 1031.13   5
  -3   5   7 5005.91 623.508   4
  -3  -5  -7 4920.43 599.551   9
   3   5  -7 5692.23 1019.67   4
  -3  -5  -6 14120.5 1291.50   7
  -3   5   6 13843.4 1531.92   3
   3  -5   6 17454.3 1588.19   1
  -3   5   6 14027.1 965.494   4
   3   5  -6 16226.4 1433.17   4
  -3  -5  -6 14058.8 881.623   9
  -3  -5  -5 8285.88 1160.28   7
  -3   5   5 7640.11 1162.93   3
   3   5  -5 10460.3 1230.32   4
   3  -5   5 7963.39 1201.50   1
  -3  -5  -5 8144.31 675.257   9
  -3  -5  -5 8912.61 854.222   2
  -3   5   5 7944.95 793.234   4
  -3  -5  -4 101423. 3516.65   7
  -3   5   4 103851. 3831.71   3
  -3  -5  -4 103784. 3023.16   2
  -3   5   4 99799.1 3005.69   4
   3  -5   4 104469. 3729.42   1
   3   5  -4 100807. 3551.52   4
  -3  -5  -4 96506.4 2740.59   9
  -3  -5  -3 24082.5 1619.32   7
  -3   5   3 26589.9 1836.69   3
  -3  -5  -3 27635.5 1445.45   2
  -3   5   3 25350.9 1405.77   4
   3  -5   3 23594.5 1703.58   1
   3   5  -3 26304.9 1737.19   4
  -3  -5  -3 24018.3 1199.37   9
  -3  -5  -2 88472.1 3273.37   7
  -3  -5  -2 92178.5 2697.52   9
  -3   5   2 94660.8 3503.94   3
  -3  -5  -2 95897.8 2960.52   2
  -3   5   2 97245.9 3032.43   4
   3  -5   2 95951.8 3477.74   1
   3   5  -2 95001.4 3351.67   4
  -3   5   1 5213.33 378.014   7
  -3   5   1 5461.21 376.556   7
  -3  -5  -1 6159.32 934.353   7
  -3  -5  -1 6390.79 817.696   2
   3  -5   1 5196.65 991.743   1
  -3   5   1 6283.98 963.197   3
   3   5  -1 5507.51 996.442   4
  -3  -5  -1 6022.53 667.596   9
  -3  -5   0 7909.56 763.696   1
  -3   5   0 7366.15 532.896   7
  -3  -5   0 6863.14 980.964   7
   3  -5   0 6563.79 973.521   1
  -3   5   0 7165.64 1036.28   3
  -3  -5   0 6435.15 838.823   2
  -3  -5   0 6360.95 674.719   9
   3   5   0 7219.90 1013.40   4
  -3   5  -1 3913.45 480.347   7
  -3  -5   1 4395.44 605.029   1
  -3   5  -1 4794.60 862.268   3
   3   5   1 4684.42 839.058   4
   3  -5  -1 5719.48 1001.35   1
  -3  -5   1 4650.35 727.775   2
  -3  -5   1 5450.72 646.953   9
  -3   5  -2 97261.9 2703.56   7
  -3   5  -2 99710.8 3305.32   3
  -3  -5   2 97541.3 3209.86   2
   3   5   2 99529.5 3430.13   4
   3  -5  -2 99795.1 3449.79   1
  -3  -5   2 101283. 2894.01   1
  -3  -5   2 91918.5 2925.02   9
  -3   5  -3 21702.1 1206.02   7
  -3   5  -3 18969.0 1313.52   3
  -3  -5   3 20236.6 1178.57   1
  -3  -5   3 18113.3 1378.39   2
   3  -5  -3 18515.9 1060.19   4
   3  -5  -3 20048.1 1469.15   1
   3   5   3 17384.8 1420.06   4
  -3   5  -4 99447.1 3023.11   7
  -3   5  -4 101910. 3129.41   3
  -3  -5   4 101151. 3416.41   2
  -3  -5   4 103681. 2985.50   1
   3   5   4 101508. 3507.48   4
   3  -5  -4 107842. 3528.22   1
  -3   5  -5 12983.4 1084.27   7
  -3   5  -5 11715.9 961.868   3
   3  -5  -5 10441.9 1145.22   1
  -3  -5   5 11853.8 955.315   1
   3  -5  -5 11999.6 777.890   4
   3   5   5 12056.2 1298.82   4
  -3  -5   5 14158.7 1309.60   2
  -3   5  -6 15146.2 1228.79   7
  -3   5  -6 13782.6 983.479   3
   3  -5  -6 13084.5 1246.24   1
  -3  -5   6 14198.2 1028.10   1
   3  -5  -6 12319.4 763.659   4
  -3  -5   6 12966.5 1272.19   2
   3   5   6 11454.2 1200.50   4
   3  -5  -7 6778.60 574.619   4
  -3   5  -7 8249.85 999.116   7
  -3   5  -7 8270.56 747.408   3
   3  -5  -7 8396.96 1076.22   1
  -3  -5   7 9128.27 885.260   1
   3  -5  -7 7135.11 661.824   2
  -3  -5   7 9019.96 1184.76   2
   3   5   7 8508.87 1092.65   4
  -3   5  -8 28699.7 1243.90   3
  -3   5  -8 30356.7 1838.72   7
  -3  -5   8 28909.8 1488.08   1
   3  -5  -8 25634.0 1203.14   2
  -3  -5   8 24948.4 1847.23   2
   3   5   8 26572.5 1834.78   4
  -3  -5   9 1086.99 492.799   1
  -3   5  -9 1016.49 313.003   3
  -3   5  -9 1660.12 745.822   7
   3  -5  -9 1071.58 708.260   9
  -3  -5   9 1854.95 941.185   2
   3   5   9 984.182 775.834   4
  -3  -5  10 10055.2 953.391   1
  -3   5 -10 12083.9 1370.05   7
   3  -5 -10 10278.6 1279.74   9
  -3  -5  10 11104.0 1423.34   2
   3   5  10 10250.9 1274.11   4
  -3   5 -11 9875.16 1248.93   7
  -3  -5  11 10668.0 1007.99   1
   3  -5 -11 11381.1 1373.81   9
  -3  -5  11 10457.9 1438.66   2
   3   5  11 11088.8 1399.34   4
  -3   5 -12-637.632 864.362   7
  -3  -5  12 433.884 510.749   1
  -3  -5  12-283.461 1038.48   2
   3  -5 -12 1932.35 1057.84   9
   3   5  12 1151.54 933.790   4
  -3   5 -13 4269.03 1134.43   7
  -3  -5  13 3782.15 744.796   1
   3  -5 -13 3079.36 1079.57   9
  -3  -5  13 4461.43 1205.54   2
   3   5  13 3647.84 941.705   4
  -3   5 -14 15778.1 1761.41   7
  -3  -5  14 12487.3 1667.03   2
  -3  -5  14 15086.3 1229.46   1
   3  -5 -14 16935.7 1677.86   9
   3   5  14 15450.0 1606.33   4
  -3   5 -15 8097.73 1337.72   7
  -3  -5  15 10439.4 1077.39   1
   3  -5 -15 11238.2 1574.35   9
  -3  -5  15 8626.70 1425.63   2
   3   5  15 10424.1 1442.25   4
   3  -5 -16 2715.26 1024.12   9
  -3   5 -16 3025.05 1223.76   7
  -3  -5  16 3625.97 803.537   1
  -3  -5  16 6780.43 1513.49   2
   3   5  16 6398.25 1345.34   4
   3   5  17-211.810 823.808   4
  -3   5 -17-837.805 1082.99   7
  -3  -5  17 977.275 649.938   1
   3  -5 -17 96.0025 968.269   9
  -3  -5  17-2495.56 1367.53   2
   3   5  18 5648.10 1342.66   4
  -3   5 -18 8349.61 1456.45   7
  -3  -5  18 5795.63 989.021   1
   3  -5 -18 5817.67 1421.40   9
  -3  -5  18 3287.00 1312.72   2
   3   5  19 1421.80 1013.97   4
  -3   5 -19 1287.11 1191.79   7
   3  -5 -19 747.783 1056.97   9
  -3  -5  19 2294.98 1286.77   2
   3   5  20 14784.0 1747.50   4
  -3   5 -20 10342.6 1854.45   7
   3  -5 -20 13038.2 1690.15   9
  -3  -5  20 13917.8 2060.52   2
   3   5  21 4085.99 1229.90   4
  -3   5 -21 7644.15 1806.39   7
   3  -5 -21 4319.44 1253.89   9
  -3  -5  21 4585.16 1584.99   2
   3   5  22 3256.82 1215.95   4
  -3   5 -22 4178.59 1555.92   7
   3  -5 -22 1895.31 1235.61   9
  -3  -5  22 4972.23 1435.41   2
   3  -5 -23 93.6954 1124.38   9
  -3   5 -23 826.469 1366.17   7
  -3  -5  23 1367.77 1111.12   2
   3   5  23 2371.07 1225.25   4
  -3  -6 -23 460.895 1138.19   7
   3   6 -23-1231.00 1230.30   9
  -3  -6 -22-320.628 950.043   7
   3   6 -22-1456.99 1440.13   9
  -3  -6 -21 1581.97 1058.94   7
  -3   6  21 1068.94 1313.16   3
   3  -6  21 968.916 1360.40   1
   3   6 -21-1074.38 1241.09   9
  -3  -6 -20 916.146 1062.58   7
  -3   6  20-249.360 1329.57   3
   3  -6  20 643.773 1263.99   1
   3   6 -20 3073.08 1167.03   9
  -3  -6 -19 687.427 1087.04   7
  -3   6  19 768.941 1293.60   3
   3  -6  19-790.907 1275.81   1
   3   6 -19 1558.01 1208.77   9
  -3  -6 -18 1677.32 934.787   7
  -3   6  18 2048.09 1177.21   3
   3  -6  18 2970.49 1389.62   1
   3   6 -18 2878.26 1192.34   9
  -3  -6 -17 2052.64 953.125   7
  -3   6  17 1902.86 1085.46   3
   3   6 -17 2139.58 1047.87   4
   3  -6  17 1724.25 1066.76   1
  -3  -6 -17 734.905 722.849   9
   3   6 -17 498.255 1037.39   9
  -3  -6 -16 7693.02 1315.39   7
  -3  -6 -16 6919.84 1047.53   9
  -3   6  16 9454.70 1772.67   3
   3  -6  16 5154.96 1365.04   1
   3   6 -16 9729.72 1490.35   4
   3   6 -16 7461.08 1362.52   9
  -3  -6 -15 20414.4 1858.73   7
  -3   6  15 27462.6 2476.25   3
   3   6 -15 25836.4 2201.39   4
  -3  -6 -15 20783.3 1576.95   9
   3   6 -15 24478.1 2092.34   9
   3  -6  15 24459.2 2283.98   1
  -3  -6 -14 9575.49 1300.37   7
  -3   6  14 7058.03 1422.79   3
   3   6 -14 9283.34 1420.79   9
   3   6 -14 9501.27 1487.50   4
  -3  -6 -14 8657.06 1054.47   9
   3  -6  14 6966.66 1403.97   1
  -3  -6 -13 8708.49 1316.68   7
  -3   6  13 8553.16 1609.14   3
   3   6 -13 6669.72 1303.10   4
   3  -6  13 8497.62 1379.70   1
  -3  -6 -13 7701.76 963.657   9
   3   6 -13 7301.58 1235.03   9
   3  -6  12 18937.8 1984.47   1
  -3  -6 -12 14333.7 1509.52   7
  -3   6  12 14892.7 1824.52   3
  -3  -6 -12 17003.5 1277.18   9
   3   6 -12 16478.6 1735.93   4
   3   6 -12 15172.3 1616.91   9
  -3  -6 -11 4350.48 1076.71   7
   3  -6  11 3062.68 1063.37   1
  -3   6  11 4887.28 1348.40   3
   3   6 -11 4532.34 1166.74   4
  -3  -6 -11 3105.53 727.254   9
  -3  -6 -10 22470.6 1770.76   7
  -3   6  10 25629.1 2236.02   3
   3  -6  10 25821.7 2145.31   1
  -3  -6 -10 23467.1 1404.95   9
  -3   6  10 25313.4 1389.81   4
   3   6 -10 28587.8 2154.43   4
  -3  -6  -9 70403.3 3123.86   7
  -3   6   9 73503.7 3696.88   3
   3  -6   9 73732.9 3471.74   1
  -3   6   9 74948.3 2592.38   4
   3   6  -9 75447.9 3471.73   4
  -3  -6  -9 75497.9 2570.12   9
  -3  -6  -8 22912.7 1796.23   7
  -3   6   8 22027.2 1988.75   3
  -3  -6  -8 22854.2 1316.31   9
   3  -6   8 24540.8 1958.70   1
  -3   6   8 23938.9 1416.62   4
   3   6  -8 23856.5 1972.64   4
  -3  -6  -7 8120.37 1181.52   7
  -3   6   7 10852.5 995.001   4
  -3   6   7 11612.0 1501.73   3
   3  -6   7 9964.29 1444.26   1
  -3  -6  -7 11398.7 919.271   9
   3   6  -7 10793.8 1362.87   4
  -3  -6  -6 25926.0 1827.71   7
  -3   6   6 24637.4 2050.63   3
  -3  -6  -6 23873.3 1300.57   9
   3  -6   6 28066.0 2094.16   1
  -3   6   6 25708.7 1521.18   4
   3   6  -6 23590.4 1852.69   4
  -3  -6  -5 21280.7 1680.30   7
  -3   6   5 20159.0 1882.49   3
  -3  -6  -5 23489.7 1335.83   2
   3  -6   5 23374.9 1893.83   1
  -3   6   5 21257.4 1421.21   4
   3   6  -5 22684.0 1795.99   4
  -3  -6  -4 17883.1 1563.51   7
   3   6  -4 20186.3 1662.19   4
  -3   6   4 20737.7 1856.07   3
  -3  -6  -4 18771.2 1247.54   2
  -3   6   4 19214.4 1377.48   4
   3  -6   4 18456.2 1685.41   1
  -3  -6  -3 29116.7 1938.05   7
  -3   6   3 30187.4 2096.34   3
  -3  -6  -3 29142.6 1528.66   2
  -3   6   3 30186.0 1753.95   4
   3  -6   3 26560.0 1929.11   1
   3   6  -3 28949.7 2007.79   4
   3  -6   2 16627.0 1523.99   1
  -3   6   2 15320.2 510.745   7
  -3  -6  -2 16069.0 1444.43   7
  -3   6   2 16438.7 1589.25   3
  -3  -6  -2 14856.1 1162.74   2
  -3   6   2 17101.9 1313.47   4
   3   6  -2 16457.1 1569.68   4
  -3   6   1 17328.4 764.972   7
  -3  -6  -1 18002.0 1584.38   7
  -3   6   1 20097.4 1665.64   3
   3  -6   1 17815.1 1583.89   1
  -3  -6  -1 16404.0 1252.08   2
  -3   6   1 16486.7 1376.50   4
  -3  -6  -1 18248.3 1273.86   1
   3   6  -1 19746.0 1637.96   4
  -3   6   0 5310.59 542.556   7
  -3   6   0 5690.14 956.976   3
   3  -6   0 6431.28 1077.62   1
  -3  -6   0 6319.65 850.899   1
  -3   6   0 6955.40 1017.28   4
  -3  -6   0 7267.17 919.135   2
   3   6   0 5191.91 1049.84   4
  -3   6  -1 19403.1 1042.32   7
  -3   6  -1 15399.5 1403.20   3
   3  -6  -1 14546.4 1428.11   1
  -3  -6   1 17363.9 1325.54   2
  -3  -6   1 18281.0 1270.66   1
   3   6   1 17549.7 1544.14   4
  -3   6  -2 19285.7 1164.93   7
  -3   6  -2 18107.9 1453.74   3
  -3  -6   2 17133.5 1371.96   2
   3  -6  -2 18464.4 1577.42   1
  -3  -6   2 16629.0 1219.80   1
   3   6   2 17504.8 1617.72   4
  -3   6  -3 34086.0 1636.00   7
  -3   6  -3 33001.7 1844.98   3
  -3  -6   3 33902.4 1934.17   2
   3   6   3 34663.7 2115.83   4
  -3  -6   3 31757.4 1693.87   1
   3  -6  -3 32337.8 2044.69   1
  -3   6  -4 23043.4 1446.83   7
  -3   6  -4 21614.5 1426.81   3
  -3  -6   4 19397.9 1542.79   2
  -3  -6   4 21884.1 1396.84   1
   3   6   4 22785.4 1743.70   4
   3  -6  -4 21650.6 1718.23   1
  -3   6  -5 16611.5 1296.90   7
   3   6   5 16178.5 1518.89   4
  -3   6  -5 16400.1 1215.49   3
  -3  -6   5 14777.3 1142.88   1
   3  -6  -5 17006.8 1541.99   1
  -3  -6   5 14360.5 1372.62   2
  -3   6  -6 28908.1 1778.24   7
  -3   6  -6 27484.3 1470.33   3
   3  -6  -6 22102.4 1738.16   1
  -3  -6   6 25578.5 1840.96   2
  -3  -6   6 27577.1 1587.02   1
   3   6   6 26127.6 1927.62   4
  -3   6  -7 14296.2 1032.51   3
  -3   6  -7 13149.9 1317.51   7
  -3  -6   7 11212.8 1045.01   1
   3  -6  -7 12669.0 1393.06   1
  -3  -6   7 12910.5 1478.53   2
   3   6   7 12466.3 1435.21   4
  -3   6  -8 25105.6 1227.47   3
  -3   6  -8 23593.7 1760.57   7
  -3  -6   8 25794.8 1571.93   1
  -3  -6   8 25188.1 1909.14   2
   3   6   8 26463.8 1960.45   4
   3  -6  -8 22823.7 1723.12   1
  -3   6  -9 67499.8 3072.78   7
  -3  -6   9 72952.1 2733.08   1
  -3  -6   9 66740.2 3209.18   2
   3   6   9 61408.2 3018.83   4
  -3   6 -10 27379.2 1997.48   7
  -3  -6  10 26494.4 1635.06   1
  -3  -6  10 31408.0 2243.87   2
   3   6  10 30049.4 2065.70   4
   3  -6 -10 27872.5 2063.73   9
  -3  -6  11 5027.78 861.136   1
  -3   6 -11 3270.96 1045.46   7
   3  -6 -11 3078.71 1057.20   9
  -3  -6  11 4271.32 1145.04   2
   3   6  11 5559.86 1198.75   4
  -3   6 -12 17828.9 1815.54   7
  -3  -6  12 20008.5 1480.30   1
   3  -6 -12 14945.6 1593.24   9
  -3  -6  12 16490.9 1761.30   2
   3   6  12 17287.2 1676.37   4
  -3   6 -13 10114.1 1534.92   7
  -3  -6  13 9770.67 1112.98   1
   3  -6 -13 6440.23 1381.18   9
  -3  -6  13 7355.30 1429.96   2
   3   6  13 7050.13 1212.52   4
   3  -6 -14 6291.30 1328.22   9
  -3   6 -14 7187.97 1359.35   7
  -3  -6  14 7433.31 1024.97   1
  -3  -6  14 5892.77 1386.61   2
   3   6  14 5567.32 1152.22   4
  -3   6 -15 26271.9 2317.98   7
  -3  -6  15 24782.8 1751.38   1
   3   6  15 27607.8 2148.27   4
   3  -6 -15 26006.7 2218.48   9
  -3  -6  15 24807.2 2329.44   2
  -3   6 -16 4943.61 1417.39   7
  -3  -6  16 7386.20 1388.79   2
  -3  -6  16 7206.28 1072.03   1
   3  -6 -16 6406.26 1284.61   9
   3   6  16 7284.78 1399.52   4
  -3   6 -17 1432.05 1169.49   7
   3  -6 -17 839.125 1145.91   9
  -3  -6  17 1450.85 1026.36   2
   3   6  17 1885.85 1093.46   4
  -3   6 -18 1011.77 1069.63   7
   3  -6 -18 4702.04 1380.02   9
  -3  -6  18 1149.30 1201.28   2
   3   6  18 2450.05 1044.66   4
  -3   6 -19 1260.59 1114.79   7
   3  -6 -19-640.889 942.452   9
  -3  -6  19 2080.04 1197.95   2
   3   6  19 513.298 991.944   4
  -3   6 -20 271.861 1132.28   7
   3  -6 -20 255.931 1159.03   9
  -3  -6  20 808.301 1165.09   2
   3   6  20 2245.08 1312.74   4
  -3   6 -21 1277.44 1226.94   7
   3  -6 -21 2714.04 1464.65   9
  -3  -6  21 4049.23 1272.60   2
   3   6  21 4577.11 1337.92   4
  -3   6 -22 458.637 1367.95   7
   3   6  22-549.849 997.979   4
  -3  -7 -21 694.667 1084.83   7
   3   7 -21 645.440 1170.38   9
  -3  -7 -20 2254.64 1216.08   7
   3   7 -20 2214.53 1334.54   9
  -3  -7 -19 97.3368 909.262   7
  -3   7  19 2612.24 1504.77   3
   3   7 -19 1749.79 1154.60   9
   3  -7  19 266.265 1074.28   1
  -3  -7 -18 2055.32 1102.06   7
  -3   7  18 1165.46 1387.68   3
   3  -7  18 4667.69 1296.90   1
   3   7 -18 1749.29 1172.14   9
  -3  -7 -17 10701.3 1589.55   7
  -3   7  17 6586.34 1602.79   3
   3   7 -17 9967.69 1662.65   4
   3  -7  17 10872.8 1752.10   1
  -3  -7 -16 552.638 1007.78   7
  -3   7  16 2992.23 1347.85   3
   3   7 -16 2220.05 1058.12   4
   3  -7  16 4420.28 1392.26   1
  -3  -7 -15-1369.07 1024.27   7
  -3   7  15 1334.72 1305.59   3
   3   7 -15-470.545 1175.22   4
   3  -7  15-920.151 1194.75   1
   3  -7  14 34.4634 962.086   1
  -3  -7 -14 659.990 1032.44   7
  -3   7  14 678.305 1069.40   3
   3   7 -14 1218.02 1085.40   4
  -3  -7 -13 3494.55 827.204   9
   3  -7  13 6815.16 1479.09   1
  -3  -7 -13 4426.63 1175.81   7
  -3   7  13 4427.59 1549.10   3
   3   7 -13 4250.48 1228.34   4
   3   7 -12 1577.80 1021.28   4
  -3  -7 -12 2039.29 1017.86   7
   3  -7  12 2648.44 1225.53   1
  -3   7  12 2872.66 1262.50   3
  -3  -7 -12 1546.75 670.726   9
  -3  -7 -11 5738.61 1183.22   7
   3  -7  11 7418.79 1444.52   1
  -3   7  11 4164.44 1455.65   3
  -3  -7 -11 4144.22 876.328   9
   3   7 -11 5280.32 1203.21   4
  -3  -7 -10 1792.83 948.246   7
   3  -7  10 1882.35 1070.33   1
  -3   7  10 3624.54 1305.91   3
   3   7 -10 3422.53 1189.63   4
  -3  -7 -10 2879.05 717.407   9
  -3  -7  -9 6041.02 1097.05   7
   3  -7   9 7775.19 1374.94   1
  -3   7   9 7877.27 1446.28   3
   3   7  -9 7867.79 1429.95   4
  -3  -7  -9 6790.99 899.215   9
  -3   7   8 8578.31 1024.06   4
  -3  -7  -8 8554.54 1250.17   7
  -3   7   8 11833.8 1670.03   3
   3  -7   8 11427.0 1706.24   1
  -3  -7  -8 8911.70 966.589   9
   3   7  -8 8691.75 1497.29   4
  -3  -7  -7 34060.4 2248.14   7
  -3   7   7 33643.3 2571.75   3
  -3  -7  -7 34850.1 1748.29   9
   3  -7   7 36395.5 2509.87   1
  -3   7   7 35748.0 1984.06   4
   3   7  -7 35819.2 2468.36   4
  -3  -7  -6 3753.49 1011.84   7
  -3   7   6 5534.44 1375.23   3
   3  -7   6 6760.58 1359.15   1
  -3   7   6 3737.09 770.324   4
   3   7  -6 5392.78 1149.26   4
  -3  -7  -5 25189.4 1908.05   7
  -3   7   5 25769.5 2170.94   3
  -3  -7  -5 25854.4 1431.47   2
   3  -7   5 28536.0 2197.04   1
  -3   7   5 28117.2 1836.33   4
   3   7  -5 25249.3 2076.08   4
  -3  -7  -4 11724.6 1373.68   7
  -3   7   4 11938.1 1545.36   3
   3   7  -4 10082.7 1460.90   4
  -3  -7  -4 9627.98 958.368   2
  -3   7   4 11194.4 1217.62   4
   3  -7   4 11198.6 1448.25   1
  -3  -7  -3 6035.98 1192.77   7
   3  -7   3 9589.92 1432.12   1
  -3   7   3 7519.85 1323.73   3
  -3  -7  -3 7493.50 873.366   2
  -3   7   3 7178.48 1048.26   4
   3   7  -3 9482.09 1404.13   4
  -3   7   2 17154.7 1529.10   4
   3  -7   2 15928.9 1709.51   1
  -3  -7  -2 15104.6 1304.57   1
  -3   7   2 15705.1 1692.87   3
  -3  -7  -2 15485.6 1243.94   2
   3   7  -2 15203.5 1670.46   4
  -3   7   1 66982.5 3234.44   3
  -3  -7  -1 70648.1 2689.99   2
  -3   7   1 79828.3 3228.99   4
   3   7  -1 78841.5 3472.90   4
   3  -7   1 66232.0 3271.32   1
  -3  -7  -1 69507.2 2817.09   1
  -3  -7   0 12765.2 1203.26   1
  -3   7   0 17353.7 1555.36   4
   3  -7   0 12610.8 1507.60   1
  -3   7   0 14973.0 1563.04   3
  -3  -7   0 14303.4 1241.86   2
   3   7   0 15915.2 1688.76   4
  -3   7  -1 70558.3 2321.55   7
  -3   7  -1 68075.1 3076.14   3
  -3  -7   1 64685.0 2715.88   2
  -3   7  -1 68763.3 3152.91   4
   3   7   1 68121.3 3203.63   4
   3  -7  -1 68713.2 3275.82   1
  -3  -7   1 72407.5 2823.25   1
   3   7   2 18538.6 1747.93   4
  -3   7  -2 17340.5 1189.14   7
  -3   7  -2 15089.2 1449.62   3
  -3  -7   2 16701.0 1417.60   2
   3  -7  -2 15395.4 1653.79   1
  -3  -7   2 16942.6 1374.28   1
  -3  -7   3 7008.49 1062.74   2
  -3   7  -3 6740.82 888.245   7
  -3   7  -3 6894.94 1030.38   3
  -3  -7   3 7243.92 970.750   1
   3   7   3 4621.89 1122.50   4
   3  -7  -3 7016.49 1245.26   1
   3  -7  -4 11653.0 1454.89   1
  -3   7  -4 13483.3 1215.19   7
  -3  -7   4 13265.3 1255.93   1
  -3   7  -4 13100.6 1243.75   3
  -3  -7   4 12023.7 1306.81   2
   3   7   4 11511.9 1456.28   4
  -3   7  -5 22897.4 1604.25   7
  -3   7  -5 21279.8 1496.00   3
  -3  -7   5 21044.4 1705.88   2
  -3  -7   5 25748.0 1658.25   1
   3   7   5 22329.4 1882.05   4
   3  -7  -5 22140.6 1847.27   1
  -3   7  -6 2779.59 844.482   7
  -3   7  -6 3043.32 667.980   3
   3  -7  -6 5047.94 1171.30   1
  -3  -7   6 4082.84 837.312   1
  -3  -7   6 4356.30 949.944   2
   3   7   6 2855.89 1063.93   4
  -3   7  -7 32828.7 2117.53   7
  -3  -7   7 33846.3 1956.79   1
  -3  -7   7 34749.5 2263.38   2
   3   7   7 32990.4 2296.75   4
   3  -7  -7 31612.6 2276.36   1
  -3   7  -8 9995.75 1285.20   7
  -3  -7   8 8428.30 1069.71   1
   3  -7  -8 8203.28 1351.83   1
  -3  -7   8 5358.85 1089.00   2
   3   7   8 10317.5 1441.40   4
  -3   7  -9 6576.03 1223.17   7
   3  -7  -9 6011.94 1267.36   1
  -3  -7   9 7374.87 1024.32   1
  -3  -7   9 4943.12 1179.11   2
   3   7   9 5615.71 1192.49   4
  -3   7 -10 4367.77 1037.38   7
  -3  -7  10 3934.48 938.059   1
   3  -7 -10 2270.45 1027.48   1
   3   7  10 4713.76 1130.68   4
  -3  -7  10 4944.41 1203.46   2
   3  -7 -10 3147.96 983.661   9
  -3  -7  11 6064.69 1003.03   1
  -3   7 -11 6636.60 1311.84   7
   3  -7 -11 5580.68 1253.22   9
  -3  -7  11 6483.70 1336.27   2
   3   7  11 7203.70 1391.67   4
  -3  -7  12 2045.87 818.405   1
  -3   7 -12 848.689 909.623   7
   3  -7 -12 598.642 981.899   9
  -3  -7  12 1178.69 987.705   2
   3   7  12 320.228 1013.84   4
  -3   7 -13 3173.34 1178.65   7
   3  -7 -13 4715.31 1368.98   9
  -3  -7  13 6098.81 1382.84   2
   3   7  13 5403.47 1289.76   4
  -3  -7  13 5558.42 988.953   1
  -3   7 -14-1712.61 1261.58   7
   3  -7 -14 1198.39 1097.55   9
  -3  -7  14-656.827 742.392   1
  -3  -7  14 37.1543 1131.25   2
   3   7  14-588.990 1078.00   4
  -3   7 -15-235.363 1247.97   7
   3  -7 -15 525.865 1202.43   9
  -3  -7  15 1299.96 1177.93   2
   3   7  15-207.551 1122.02   4
  -3   7 -16 1412.40 1022.18   7
   3  -7 -16 3510.24 1155.61   9
  -3  -7  16 2260.97 1101.93   2
   3   7  16 4728.18 1324.08   4
  -3   7 -17 8014.12 1544.33   7
   3  -7 -17 10782.0 1797.55   9
  -3  -7  17 10137.1 1727.97   2
   3   7  17 10368.1 1554.41   4
  -3   7 -18 1250.32 1258.27   7
   3  -7 -18 4585.00 1527.69   9
  -3  -7  18 2991.85 1410.06   2
   3   7  18-560.070 1173.23   4
  -3   7 -19 1813.13 1230.42   7
   3  -7 -19 3365.75 1311.35   9
   3   7  19 630.603 936.015   4
  -3   7 -20-1816.07 1545.31   7
   3   7  20 5536.41 1596.75   4
  -3  -8 -19-2076.10 1196.90   7
  -3  -8 -18 7100.98 1452.60   7
   3   8 -18 6235.95 1485.10   4
  -3  -8 -17 693.038 856.596   7
   3   8 -17 1554.35 1301.34   4
  -3  -8 -16 1397.26 1007.75   7
   3   8 -16 188.861 1095.84   4
   3  -8  16 1834.03 1105.20   1
   3  -8  15 790.939 1105.80   1
  -3  -8 -15-63.4267 833.138   7
  -3   8  15 2383.30 1403.36   3
   3   8 -15 2346.22 1391.43   4
   3  -8  14 1704.09 1297.70   1
  -3  -8 -14 3332.08 1111.71   7
  -3   8  14 5456.56 1711.09   3
   3   8 -14 2543.32 1230.92   4
  -3  -8 -13 7725.35 1362.60   7
   3  -8  13 5952.35 1519.76   1
  -3   8  13 8608.96 1809.80   3
   3   8 -13 6890.53 1557.70   4
  -3  -8 -12 22436.0 2070.35   7
   3  -8  12 24781.4 2284.51   1
  -3   8  12 20442.5 2392.80   3
   3   8 -12 27082.6 2546.36   4
  -3  -8 -11 8314.35 1371.74   7
   3  -8  11 10702.4 1706.28   1
  -3   8  11 6821.44 1551.80   3
   3   8 -11 6710.71 1433.85   4
  -3  -8 -10 6821.18 1396.98   7
   3  -8  10 3640.46 1291.43   1
  -3   8  10 7281.02 1624.94   3
   3   8 -10 7505.41 1621.62   4
  -3  -8  -9 396.397 832.861   7
   3  -8   9-57.0479 857.800   1
  -3   8   9 449.952 1326.62   3
  -3  -8  -9 784.842 616.164   9
   3   8  -9-103.101 993.644   4
  -3  -8  -8 1835.00 1005.68   7
  -3   8   8 1211.29 1201.70   3
   3  -8   8 3161.03 1223.24   1
  -3  -8  -8 2116.64 631.804   9
   3   8  -8 2740.30 1217.90   4
  -3  -8  -7 8034.07 1454.86   7
  -3   8   7 8696.00 1709.01   3
   3  -8   7 5105.12 1341.86   1
  -3  -8  -7 5971.34 920.283   9
   3   8  -7 7683.02 1565.12   4
  -3  -8  -6 22146.3 1980.56   7
  -3   8   6 24052.2 2380.90   3
   3  -8   6 27242.8 2284.55   1
  -3   8   6 24577.6 1834.22   4
   3   8  -6 25720.5 2337.15   4
  -3  -8  -5 5646.29 1234.09   7
  -3   8   5 4708.39 1368.80   3
  -3   8   5 5885.34 1030.20   4
   3  -8   5 6668.76 1382.51   1
   3   8  -5 4693.54 1262.88   4
  -3   8   4 8864.23 1609.15   3
  -3  -8  -4 11814.0 1386.76   1
  -3  -8  -4 14687.3 1172.94   2
  -3   8   4 12885.7 1443.24   4
   3  -8   4 14253.3 1702.03   1
   3   8  -4 14026.7 1788.85   4
   3   8  -3 3337.86 1011.46   4
  -3   8   3 4026.81 1146.05   3
  -3  -8  -3 1682.75 749.280   1
  -3  -8  -3 2448.83 727.118   2
  -3   8   3 2951.28 949.668   4
   3  -8   3 4473.18 1310.77   1
   3  -8   2 5128.39 1254.21   1
  -3   8   2 5441.32 1308.01   3
  -3  -8  -2 5917.76 1048.04   1
   3   8  -2 6924.88 1378.76   4
  -3   8   2 6730.58 1231.89   4
  -3  -8  -2 5753.66 898.578   2
   3  -8   1 5123.71 1259.62   1
  -3   8   1 4716.82 1191.81   3
  -3   8   1 3550.91 982.812   4
  -3  -8  -1 3600.85 759.231   2
  -3  -8  -1 3640.04 872.765   1
   3   8  -1 4392.64 1271.66   4
   3  -8   0 18367.0 1967.42   1
  -3   8   0 19502.8 1832.98   3
  -3  -8   0 18869.2 1491.70   2
  -3  -8   0 19776.6 1634.34   1
  -3   8   0 21006.7 1859.28   4
   3   8   0 20516.8 2029.75   4
  -3  -8   1 3468.43 924.696   1
  -3   8  -1 4069.32 1040.16   3
   3  -8  -1 3004.17 1078.86   1
  -3   8  -1 3391.90 1005.55   4
  -3  -8   1 3177.46 785.952   2
   3   8   1 4721.26 1056.26   4
  -3   8  -2 6662.39 1128.67   3
   3  -8  -2 9632.57 1465.45   1
  -3  -8   2 9337.30 1226.95   1
  -3   8  -2 9113.21 1362.27   4
   3   8   2 9219.69 1374.91   4
  -3  -8   2 8211.88 1116.16   2
  -3   8  -3 3562.30 873.558   3
  -3  -8   3 3517.37 868.138   1
   3  -8  -3 3086.63 1055.76   1
  -3  -8   3 3611.67 967.087   2
   3   8   3 3138.90 1006.53   4
  -3  -8   4 14822.0 1441.79   1
  -3   8  -4 14010.8 1371.58   3
  -3  -8   4 11102.0 1314.43   2
   3   8   4 14563.8 1698.75   4
   3  -8  -4 14495.8 1752.68   1
  -3   8  -5 8155.07 1140.13   7
   3   8   5 6675.18 1343.69   4
   3  -8  -5 6336.24 1310.99   1
  -3  -8   5 7546.40 1222.28   2
  -3  -8   5 5467.58 1033.76   1
  -3   8  -6 22755.2 1826.27   7
   3  -8  -6 22976.8 2103.77   1
  -3  -8   6 23207.0 1947.53   2
  -3  -8   6 27656.5 1911.19   1
   3   8   6 26232.5 2215.74   4
  -3   8  -7 5429.62 1033.53   7
   3  -8  -7 7302.67 1393.11   1
  -3  -8   7 5041.81 986.931   1
  -3  -8   7 7628.69 1303.52   2
   3   8   7 7040.20 1319.30   4
  -3   8  -8 4384.27 1077.45   7
  -3  -8   8 2724.19 840.776   1
  -3  -8   8 2800.87 1181.51   2
   3   8   8 2568.02 1200.11   4
   3  -8  -8 336.991 999.024   1
  -3   8  -9 1390.58 905.580   7
   3  -8  -9 419.854 987.165   1
  -3  -8   9 361.235 718.822   1
   3   8   9 937.697 870.099   4
  -3  -8   9-720.073 1092.74   2
  -3   8 -10 8879.95 1425.00   7
  -3  -8  10 10776.2 1310.49   1
   3  -8 -10 7673.68 1410.47   1
   3  -8 -10 8353.60 1539.86   9
   3   8  10 8133.05 1488.57   4
  -3  -8  10 8679.93 1426.84   2
   3  -8 -11 9586.67 1597.58   1
  -3  -8  11 7279.76 1101.44   1
  -3   8 -11 8100.59 1446.63   7
   3  -8 -11 7716.59 1416.53   9
   3   8  11 9204.89 1564.38   4
  -3  -8  11 8235.37 1511.91   2
   3  -8 -12 21192.4 2028.38   1
  -3   8 -12 22764.5 2207.61   7
   3  -8 -12 21831.7 2209.19   9
   3   8  12 26331.3 2304.13   4
  -3  -8  12 22916.5 2243.65   2
  -3   8 -13 6798.12 1371.03   7
   3   8  13 7397.86 1497.10   4
   3  -8 -13 6810.44 1360.33   1
   3  -8 -13 7371.51 1537.77   9
  -3  -8  13 5644.47 1463.76   2
  -3   8 -14 1262.52 1128.19   7
   3  -8 -14 3609.95 1272.85   9
  -3  -8  14 1337.11 1112.16   2
  -3   8 -15 791.642 1202.35   7
   3  -8 -15 184.329 1299.26   9
   3   8  15-816.240 1216.63   4
  -3  -8  15 633.657 1105.77   2
  -3   8 -16 3499.27 1432.82   7
   3  -8 -16 1354.42 1218.88   9
   3   8  16 2026.76 1134.19   4
  -3  -8  16 122.273 1226.34   2
  -3   8 -17 719.213 1213.38   7
   3   8  17-580.567 1028.53   4
  -3  -8  17-39.5053 1221.44   2
  -3   8 -18 5985.32 1542.81   7
  -3   8 -19-2254.42 1418.75   7
  -3  -9 -16 1322.23 1175.00   7
  -3  -9 -15-116.213 1098.14   7
  -3  -9 -14 1310.49 1249.40   7
   3   9 -14 3611.58 1589.71   4
  -3  -9 -13 1505.09 1117.65   7
   3  -9  13 3033.69 1522.41   1
  -3   9  13 2718.93 1430.63   3
   3   9 -13 1148.33 1027.71   4
  -3  -9 -12-935.081 1091.11   7
   3  -9  12 257.896 1319.67   1
  -3   9  12 2140.85 1533.80   3
   3   9 -12 299.194 1288.87   4
  -3  -9 -11 7209.98 1397.62   7
   3  -9  11 7656.37 1641.50   1
  -3   9  11 7374.67 1732.83   3
   3   9 -11 8163.10 1788.86   4
  -3  -9 -10-944.063 1083.26   7
   3  -9  10-1320.42 1086.53   1
  -3   9  10-809.775 1379.80   3
   3   9 -10 2399.28 1277.09   4
  -3  -9  -9 1181.24 891.632   7
   3   9  -9-510.519 1291.79   4
   3  -9   9 1712.19 1274.27   1
  -3   9   9-1565.16 1570.80   3
  -3  -9  -8 708.444 1082.81   7
   3   9  -8 1022.78 1279.94   4
  -3   9   8 1921.11 1403.87   3
   3  -9   8 1457.12 1235.34   1
  -3   9   7 4702.85 1499.99   3
   3  -9   7 5163.03 1525.50   1
   3   9  -7 4228.81 1272.69   4
  -3   9   6 4291.14 1620.34   3
   3  -9   6 3929.82 1284.55   1
   3   9  -6 3975.00 1366.02   4
  -3  -9  -6 1665.19 1009.53   1
   3  -9   5 5485.22 1328.60   1
  -3   9   5 5586.88 1518.96   3
  -3  -9  -5 6239.52 1250.10   1
   3   9  -5 6124.64 1641.28   4
  -3   9   4 8118.47 1622.93   3
  -3  -9  -4 9647.75 1412.86   1
  -3   9   4 11366.4 1489.49   4
   3  -9   4 12797.4 1890.18   1
   3   9  -4 10657.1 1724.12   4
  -3  -9  -3 1842.11 991.632   1
   3   9  -3 2138.86 1194.06   4
  -3   9   3 1610.97 1036.58   3
  -3   9   3 3385.81 1094.40   4
   3  -9   3 944.447 1203.84   1
  -3   9   2 7268.18 1427.75   3
   3  -9   2 7985.04 1545.29   1
  -3  -9  -2 6512.91 1263.50   1
  -3   9   2 5786.06 1211.14   4
   3   9  -2 6153.00 1412.08   4
   3  -9   1 6985.07 1433.55   1
  -3  -9  -1 6670.21 1170.76   1
  -3   9   1 10619.3 1676.92   3
  -3   9   1 7920.00 1363.59   4
   3   9  -1 6564.21 1372.90   4
  -3  -9   0 1052.55 918.036   1
   3  -9   0 2518.15 989.790   1
  -3   9   0 2714.40 1025.11   3
  -3   9   0 1421.65 989.740   4
   3   9   0 866.111 1018.01   4
   3  -9  -1 6917.16 1358.38   1
  -3   9  -1 7877.66 1332.95   3
  -3  -9   1 5906.54 1125.41   1
  -3   9  -1 7684.03 1426.06   4
  -3  -9   1 7671.43 1076.29   2
   3   9   1 4184.78 1225.26   4
  -3   9  -2 7084.39 1232.42   3
   3  -9  -2 6875.23 1466.90   1
  -3  -9   2 7797.74 1248.68   1
  -3   9  -2 6817.36 1455.23   4
  -3  -9   2 3947.78 925.064   2
   3   9   2 5705.60 1417.18   4
  -3  -9   3 2085.75 907.264   1
   3   9   3 4464.92 1462.28   4
   3  -9  -3 2663.13 1148.94   1
  -3  -9   3 1665.43 794.352   2
  -3  -9   4 8175.78 1247.24   1
   3  -9  -4 8047.79 1436.99   1
  -3  -9   4 9385.37 1326.68   2
   3   9   4 6729.96 1438.82   4
  -3  -9   5 5629.06 1135.42   2
   3   9   5 4046.14 1258.53   4
   3  -9  -5 3465.76 1139.71   1
  -3  -9   5 5431.21 1155.14   1
   3  -9  -6 1378.62 1083.59   1
  -3  -9   6 1367.07 864.769   1
  -3  -9   6-689.033 920.597   2
   3   9   6 1047.14 1146.16   4
   3  -9  -7 4219.73 1426.48   1
  -3  -9   7 4114.05 982.853   1
   3   9   7 4531.98 1272.98   4
  -3  -9   7 4386.44 1175.93   2
   3  -9  -8 999.282 1137.22   1
  -3  -9   8 599.812 885.736   1
   3   9   8 1763.30 1099.72   4
  -3  -9   8-173.550 1051.79   2
  -3  -9   9 1167.02 886.923   1
  -3  -9   9-797.335 1017.99   2
   3  -9  -9 177.765 1096.37   1
   3   9   9 714.215 1172.32   4
   3  -9 -10 3906.44 1497.24   9
   3   9  10 1605.44 1158.76   4
   3  -9 -10-451.469 1259.53   1
  -3  -9  10 1457.47 1031.83   2
   3  -9 -11 5280.09 1416.38   1
   3  -9 -11 6498.94 1525.34   9
   3   9  11 5688.06 1320.74   4
  -3  -9  11 3850.12 1208.78   2
   3  -9 -12 2919.94 1242.10   1
  -3  -9  12 1690.37 1271.21   2
   3  -9 -12 790.888 977.212   9
   3   9  12 1653.50 961.907   4
   3  -9 -13 4498.52 1441.70   9
   3   9  13 4119.29 1224.55   4
  -3  -9  13 2879.90 1251.34   2
  -3   9 -14 2178.77 1181.09   7
   3  -9 -14 336.855 1183.39   1
  -3  -9  14 664.870 1069.39   2
  -3   9 -15 1741.31 1220.20   7
  -3   9 -16 2168.70 1367.37   7
  -3 -10 -12-1696.33 1159.18   7
  -3  10   9 9387.75 1964.19   3
  -3  10   8 2845.09 1419.09   3
  -3 -10  -8 2314.10 1174.67   1
  -3 -10  -7 3536.43 1163.28   1
   3  10  -7 5989.91 1689.92   4
  -3  10   6-1530.48 1256.97   3
  -3 -10  -6 2897.28 1148.77   1
   3 -10   6-1115.83 1114.57   1
   3  10  -6 998.906 1312.64   4
  -3 -10  -5 282.510 1008.18   1
  -3  10   5-805.461 1265.60   3
   3 -10   5 471.136 1119.15   1
   3  10  -5-2034.40 1479.25   4
  -3  10   4 1647.85 1351.76   3
  -3 -10  -4-1131.30 1158.97   1
   3 -10   4-1556.80 1261.46   1
   3  10  -4-1357.18 1318.63   4
  -3  10   3 3943.22 1193.76   3
   3 -10   3 4855.82 1469.63   1
  -3 -10  -3 3854.19 1122.61   1
   3  10  -3 3538.19 1547.83   4
  -3 -10  -2-674.696 904.598   1
  -3  10   2 1983.07 1259.59   3
   3  10  -2 1597.04 1423.66   4
   3 -10   2-666.642 1250.49   1
  -3  10   1 4316.10 1227.72   3
  -3  10   1 2264.48 1098.53   4
   3  10  -1 2902.90 1347.56   4
  -3 -10  -1 2484.63 980.467   1
   3 -10   1 4057.72 1380.36   1
   3 -10   0 1664.29 1275.04   1
  -3 -10   0 1892.28 1024.73   1
  -3  10   0-6.85693 917.387   4
   3  10   0 1909.19 1156.16   4
   3 -10  -1 7061.19 1621.31   1
  -3 -10   1 2720.91 1129.65   1
  -3  10  -1 2836.37 1120.63   4
   3  10   1 5403.75 1460.22   4
   3 -10  -2 3.94831 979.241   1
  -3 -10   2 667.823 956.397   1
   3  10   2 2336.59 1313.17   4
  -3 -10   3 2835.21 1018.56   1
   3 -10  -3 5420.51 1516.47   1
   3  10   3 7702.55 1642.50   4
  -3 -10   4-804.201 1051.77   1
   3 -10  -4 2317.35 1397.12   1
   3  10   4 3072.03 1430.78   4
   3 -10  -5-453.607 1188.07   1
  -3 -10   5 1961.18 1019.63   1
   3  10   5-1564.14 1153.77   4
  -3 -10   6 1387.29 899.258   2
   3  10   6 1920.78 1381.88   4
   3 -10  -6-1580.94 1180.20   1
  -3 -10   7 6311.29 1298.20   2
   3 -10  -7 2970.80 1457.69   1
   3 -10  -8 2392.66 1179.16   1
  -3 -10   8 1147.58 861.102   2
  -3 -10   9 5108.04 1278.22   2
  -3 -10  10 2263.51 1102.98   2
  -3 -10  11 1904.09 1155.41   2
  -3 -11  -3 248.514 913.054   1
  -3 -11  -2 2382.14 1069.45   1
  -3 -11  -1 2870.46 1265.64   1
  -3 -11   0-2119.02 1152.50   1
  -3 -11   1 1671.16 1126.82   1
  -4   0   0 217381. 4947.01   7
   4   0   0 219259. 4172.93   1
   4   0   0 220019. 5454.35   5
   4   0   0 218041. 4159.13   9
   4   0   0 218324. 4662.02   4
  -4   0   0 206291. 4178.13   1
  -4   0   0 221209. 5546.95   8
   4   0  -1 6787.30 595.847   4
   4   0   1 6994.77 642.347   4
  -4   0   1 7031.80 736.160   7
  -4   0  -1 6889.35 752.388   7
  -4   0   1 6653.32 1048.23   3
   4   0  -1 6754.63 354.731   1
   4   0   1 7733.56 520.616   1
   4   0  -1 7786.25 1005.20   5
   4   0   1 7318.97 403.533   9
   4   0   1 7869.42 927.569   5
  -4   0  -1 7448.57 555.270   1
   4   0   1 5828.02 404.551   9
   4   0  -1 6959.81 472.291   9
  -4   0   1 7890.91 1060.83   8
  -4   0  -1 6178.91 945.617   8
  -4   0   2 42458.9 1659.19   7
  -4   0  -2 38891.8 1697.64   7
  -4   0   2 39950.0 2132.50   3
   4   0   2 41570.2 1375.97   1
   4   0  -2 40642.5 1366.55   4
   4   0  -2 44676.1 2083.91   5
   4   0   2 45530.4 1973.09   5
  -4   0   2 40188.1 1856.54   2
   4   0   2 38097.2 1126.33   9
  -4   0  -2 39649.1 1431.74   1
   4   0   2 40204.5 1047.44   9
   4   0  -2 43649.1 1322.24   9
   4   0   2 41358.1 1609.70   4
  -4   0   2 44996.4 2095.43   8
  -4   0  -2 40909.5 2012.31   8
  -4   0  -3 16958.9 1327.69   8
  -4   0   3 15769.5 1007.25   7
  -4   0  -3 15985.3 1112.65   7
  -4   0   3 15619.0 1366.48   3
   4   0   3 16661.8 892.245   1
   4   0   3 14533.1 1141.97   5
   4   0  -3 15786.3 1309.92   5
  -4   0  -3 15287.8 920.963   1
   4   0  -3 16192.3 780.525   4
   4   0  -3 16213.6 812.689   9
  -4   0   3 14153.1 1150.99   2
   4   0   3 14769.4 618.034   9
  -4   0   3 17234.6 1337.65   8
  -4   0   4 34112.3 1500.48   7
  -4   0  -4 35421.8 1678.00   7
  -4   0   4 35371.3 2010.25   3
   4   0  -4 36149.6 1910.63   6
   4   0   4 37378.7 1440.16   1
   4   0   4 35930.2 1693.75   5
  -4   0   4 36162.6 1785.45   2
  -4   0  -4 33930.0 1480.98   1
   4   0  -4 34705.8 1141.52   4
   4   0  -4 36715.4 1350.49   9
   4   0   4 32666.3 1019.40   9
  -4   0   4 35068.8 1830.89   8
  -4   0  -4 36364.2 1911.31   8
  -4   0  -5 65256.6 2431.68   7
  -4   0   5 68106.9 2851.49   3
   4   0  -5 67742.1 2668.26   6
   4   0   5 69196.7 2204.17   1
   4   0   5 66492.4 2357.09   5
  -4   0   5 64748.4 2480.32   2
  -4   0  -5 66845.1 2271.77   1
   4   0  -5 68320.6 1729.36   4
   4   0   5 63830.6 1646.82   9
   4   0  -5 68753.3 2083.53   9
  -4   0   5 68550.2 2653.73   8
  -4   0  -5 67601.2 2650.82   8
  -4   0  -6 106540. 3320.41   7
  -4   0   6 108876. 3767.20   3
   4   0  -6 109601. 3502.61   6
   4   0   6 113568. 3087.46   1
   4   0   6 105208. 3094.32   5
  -4   0   6 107494. 3368.24   2
   4   0  -6 106287. 2380.82   4
   4   0  -6 111850. 2956.77   9
   4   0   6 102518. 2430.31   9
  -4   0   6 109701. 3489.25   8
  -4   0  -6 108137. 3503.95   8
  -4   0  -7 39493.8 1930.45   7
  -4   0   7 38772.6 2213.70   3
   4   0  -7 40216.8 1950.72   6
   4   0   7 43188.1 1789.92   1
   4   0   7 38745.8 1650.40   5
  -4   0   7 40761.0 1930.57   2
   4   0  -7 37410.6 1091.43   4
   4   0  -7 40186.6 1669.26   9
   4   0   7 37101.3 1261.43   9
  -4   0   7 41723.4 2017.81   8
  -4   0  -8 16056.8 1313.92   7
  -4   0   8 15966.4 1514.75   3
   4   0  -8 15111.6 1256.92   6
   4   0   8 16346.0 1177.99   1
   4   0  -8 15056.2 1053.80   9
   4   0   8 14823.1 1012.43   5
  -4   0   8 15040.7 1235.30   2
   4   0   8 15166.3 814.148   9
  -4   0   8 16921.9 1327.94   8
  -4   0  -9 3631.47 863.574   7
  -4   0   9 2158.09 898.844   3
   4   0   9 2498.56 642.408   1
   4   0  -9 1161.32 585.929   6
   4   0  -9 2566.07 199.566   1
   4   0   9 2325.00 497.805   5
   4   0  -9 1982.73 194.503   1
  -4   0   9 2531.32 674.811   2
   4   0   9 2046.35 376.153   9
   4   0  -9 2913.78 644.392   9
  -4   0 -10 18001.3 1465.23   7
  -4   0  10 16520.5 1561.09   3
   4   0  10 18560.9 1383.72   1
   4   0 -10 15686.1 1264.11   6
   4   0  10 17030.0 976.600   5
   4   0 -10 16832.0 653.313   1
  -4   0  10 16637.0 1340.76   2
   4   0  10 15991.1 936.492   9
   4   0 -10 18225.8 1276.36   9
  -4   0 -11 109809. 3771.53   7
  -4   0  11 114852. 4082.62   3
   4   0  11 114229. 3656.72   1
   4   0 -11 109729. 3534.45   6
   4   0 -11 104990. 2466.38   1
  -4   0  11 111793. 3662.92   2
   4   0 -11 112510. 3528.08   9
  -4   0 -11 113806. 3163.17   9
  -4   0 -12 74329.8 3082.68   7
  -4   0  12 68158.0 3132.41   3
   4   0  12 66547.3 2774.79   1
   4   0 -12 70155.1 2690.57   6
  -4   0  12 70575.0 2858.53   2
   4   0 -12 72516.4 2812.75   9
  -4   0 -12 70131.9 2466.68   9
  -4   0 -13 33464.7 2131.75   7
  -4   0  13 34682.9 2220.09   3
   4   0  13 35621.9 2086.09   1
   4   0 -13 37040.6 1874.01   6
  -4   0  13 34308.7 1988.15   2
   4   0 -13 35564.6 1994.13   9
  -4   0 -13 31447.8 1697.41   9
  -4   0 -14 6573.19 1210.26   7
  -4   0  14 7267.37 1229.29   3
   4   0  14 7077.80 1126.71   1
   4   0 -14 7636.82 950.691   6
   4   0 -14 8331.34 1277.84   5
  -4   0  14 8356.55 1151.71   2
   4   0 -14 7401.65 1093.83   9
  -4   0 -14 6669.27 900.916   9
  -4   0 -15 4546.77 1155.48   7
  -4   0  15 5915.00 1243.95   3
   4   0  15 4066.33 1066.96   1
   4   0 -15 4023.32 770.310   6
   4   0 -15 3456.38 915.570   5
  -4   0  15 3545.61 910.285   2
   4   0 -15 5417.84 1074.84   9
  -4   0 -15 5368.47 866.148   9
  -4   0 -16 11177.2 1450.90   7
   4   0  16 9557.15 1362.43   1
  -4   0  16 8957.17 1384.08   3
   4   0  16 11235.8 1302.42   6
   4   0 -16 9443.04 990.931   6
   4   0 -16 10274.8 1403.57   5
  -4   0  16 11709.9 1332.88   2
   4   0 -16 11612.9 1413.54   9
  -4   0 -16 8471.13 1084.42   9
  -4   0 -17 394.224 746.403   7
   4   0  17 1320.68 956.954   1
  -4   0  17 324.376 795.334   3
   4   0  17 1839.74 683.114   6
   4   0 -17 2453.16 1052.42   5
  -4   0  17 928.364 836.006   2
   4   0 -17 1302.32 819.755   9
  -4   0 -17 1013.62 784.354   9
  -4   0 -18 37927.5 2577.33   7
  -4   0  18 37612.0 2487.23   3
   4   0  18 38894.5 2545.12   1
   4   0  18 40614.3 2225.04   6
   4   0 -18 40807.5 2587.54   5
  -4   0  18 37415.4 2307.15   2
   4   0 -18 39223.9 2458.21   9
  -4   0 -18 33536.8 2119.18   9
  -4   0 -19 5951.17 1385.13   7
   4   0  19 7537.42 1414.08   1
  -4   0  19 5522.04 1363.79   3
  -4   0 -19 5600.73 1082.13   9
   4   0  19 5607.34 995.823   6
   4   0 -19 7354.84 1436.68   5
  -4   0  19 3618.20 1007.91   2
   4   0 -19 4694.82 1227.11   9
   4   0  20 3595.79 1190.13   1
  -4   0 -20 2717.58 1215.37   7
  -4   0  20 4269.54 1180.15   3
   4   0 -20 2214.47 1112.71   9
   4   0  20 2848.15 858.727   6
   4   0 -20 3570.96 1242.34   5
  -4   0  20 2238.86 886.824   2
  -4   0 -20 4685.66 1124.79   9
   4   0  21-1019.83 1103.63   1
  -4   0 -21 502.085 1084.09   7
  -4   0  21 918.779 1065.18   3
   4   0 -21-1662.94 1119.17   5
  -4   0  21-410.992 822.104   2
   4   0 -21-111.141 890.378   9
  -4   0 -21-383.664 908.510   9
   4   0  22 761.475 1143.01   1
  -4   0 -22-310.349 1086.87   7
  -4   0  22 83.0960 959.401   3
   4   0 -22-2126.87 1099.34   5
  -4   0  22 700.864 841.917   2
   4   0 -22-110.784 987.434   9
  -4   0 -22 612.676 869.228   9
   4   0  23 774.274 1087.80   1
  -4   0 -23 912.194 1015.07   7
  -4   0  23 971.122 1026.83   3
   4   0 -23 449.892 989.413   5
  -4   0  23 964.797 957.647   2
   4   0 -23 940.246 1229.74   9
  -4   0 -23-411.620 916.290   9
   4   0  24 3978.43 1291.78   1
  -4   0 -24 132.845 1151.47   7
  -4   0  24 3288.25 1240.41   3
   4   0 -24 1188.71 1028.68   5
   4   0 -24 880.498 1280.25   9
  -4   0  24 2660.17 1062.18   2
   4   0  25-377.723 988.392   1
  -4   0  25-632.401 1176.05   3
   4   0 -25-772.861 1034.71   5
  -4   0  25-447.719 958.811   2
   4   0 -25 980.583 1190.55   9
  -4   0  26 2559.07 1159.10   3
   4   0 -26 3094.69 1247.97   5
  -4   1  26 1121.02 1179.32   3
   4   1 -26 1032.74 1142.40   5
  -4   1  25-1114.30 1197.12   3
   4   1 -25 1715.19 1020.10   5
   4   1 -25 1353.62 1261.46   9
  -4  -1 -24 4047.59 1498.22   7
   4  -1  24 6383.76 1612.93   1
  -4   1  24 5483.01 1346.65   3
   4   1 -24 4965.93 1282.53   5
   4   1 -24 6404.31 1618.99   9
  -4  -1 -23 6714.27 1644.83   7
   4  -1  23 6671.50 1598.57   1
  -4   1  23 7000.82 1416.44   3
   4   1 -23 9306.85 1552.79   5
  -4   1  23 8255.04 1326.75   2
   4   1 -23 7490.78 1650.77   9
  -4  -1 -22 3287.16 1276.28   7
   4  -1  22 3248.61 1122.70   1
  -4   1  22 3220.10 1121.71   3
   4   1 -22 3224.83 1240.28   5
   4   1 -22 3350.85 1304.73   9
  -4   1  22 4366.69 1032.67   2
  -4  -1 -21 5121.98 1318.68   7
   4  -1  21 3093.69 1207.44   1
  -4   1  21 3311.42 1222.64   3
  -4  -1 -21 3763.55 1030.03   9
   4   1 -21 3171.88 1256.78   5
  -4   1  21 2505.42 920.034   2
   4   1 -21 3671.55 1264.40   9
  -4  -1 -20 2851.59 1225.49   7
  -4   1  20 4235.04 1192.68   3
   4  -1  20 3727.02 1255.45   1
   4  -1  20 3343.57 948.396   6
   4   1 -20 4701.75 1311.12   5
  -4  -1 -20 3743.75 976.487   9
  -4   1  20 4022.87 1010.10   2
   4   1 -20 2640.31 1142.36   9
  -4  -1 -19 15011.3 1797.76   7
  -4   1  19 14038.7 1730.39   3
   4  -1  19 14548.6 1719.45   1
   4  -1  19 13707.5 1356.23   6
   4   1 -19 17586.9 1809.73   5
  -4   1  19 12192.6 1378.69   2
  -4  -1 -19 14258.3 1475.35   9
   4   1 -19 13970.1 1708.77   9
  -4  -1 -18 9261.24 1476.13   7
  -4   1  18 9628.34 1379.59   3
   4  -1  18 11842.2 1512.16   1
   4  -1  18 10962.4 1227.57   6
   4   1 -18 13276.0 1633.49   5
  -4   1  18 9535.87 1184.37   2
   4   1 -18 13916.8 1602.83   9
  -4  -1 -18 10061.4 1231.51   9
  -4  -1 -17 6661.03 1191.51   7
  -4   1  17 6024.54 1268.00   3
   4  -1  17 6709.72 1313.32   1
   4  -1  17 6153.50 1058.62   6
   4   1 -17 7459.88 1281.18   5
  -4   1  17 6035.15 1051.76   2
   4   1 -17 8248.99 1288.75   9
  -4  -1 -17 6892.13 1013.20   9
  -4  -1 -16 12412.2 1568.59   7
  -4   1  16 12537.8 1597.20   3
   4  -1  16 10163.2 1401.78   1
   4  -1  16 12269.4 1261.36   6
   4   1 -16 10727.0 975.905   6
   4   1 -16 12268.0 1556.09   5
  -4   1  16 9493.75 1200.43   2
   4   1 -16 10939.3 1332.43   9
  -4  -1 -16 11109.3 1157.80   9
  -4  -1 -15-83.5186 859.590   7
  -4   1  15 1787.31 984.702   3
   4  -1  15 2459.46 814.891   6
   4   1 -15 1731.18 590.995   6
   4  -1  15 2167.93 888.205   1
   4   1 -15 3038.67 1035.98   5
  -4   1  15 2207.56 825.482   2
   4   1 -15 1954.76 824.927   9
  -4  -1 -15 1947.59 653.757   9
  -4   1  14 2800.19 739.460   8
  -4  -1 -14 3407.24 916.839   7
  -4   1  14 3242.53 995.834   3
   4  -1  14 2638.21 774.287   6
   4   1 -14 3221.14 694.485   6
   4  -1  14 3514.72 1080.33   1
   4   1 -14 5221.47 1173.78   5
  -4   1  14 3042.45 851.637   2
   4   1 -14 3150.79 922.531   9
  -4  -1 -14 3571.43 710.953   9
  -4  -1 -13 40096.4 2305.76   7
  -4   1  13 43401.2 2528.00   3
   4  -1  13 45409.5 2319.66   6
   4   1 -13 45385.7 2025.77   6
   4  -1  13 44303.0 2397.16   1
   4   1 -13 43991.9 2496.20   5
  -4   1  13 44734.9 2140.98   2
   4   1 -13 44482.0 2233.58   9
  -4  -1 -13 39842.5 1812.66   9
  -4   1  13 42331.7 2049.36   8
  -4  -1 -12 2646.79 768.830   7
  -4   1  12 1737.67 921.078   3
   4  -1  12 2750.75 832.295   6
   4   1 -12 2972.56 693.427   6
   4  -1  12 1609.58 759.590   1
   4   1 -12 2595.90 1012.83   5
  -4   1  12 2308.35 705.172   2
   4   1 -12 1223.16 659.192   9
  -4  -1 -12 3275.96 605.501   9
  -4   1  12 1773.80 640.957   8
  -4  -1 -11 51055.3 2478.39   7
  -4   1  11 53500.8 2723.51   3
   4  -1  11 56898.8 2554.81   6
   4   1 -11 52063.1 2210.91   6
   4  -1  11 53297.7 2441.80   1
   4   1 -11 54141.2 2293.37   9
   4   1 -11 56225.6 2711.85   5
   4  -1  11 50992.3 1512.86   5
  -4   1  11 53700.5 2264.36   2
  -4  -1 -11 50942.7 1805.06   9
  -4   1  11 55138.3 2327.05   8
  -4  -1 -10 19352.9 1518.28   7
  -4   1  10 20047.4 1741.24   3
   4   1 -10 20612.9 1410.52   6
   4  -1  10 22308.0 1628.44   6
   4  -1  10 22079.7 1538.74   1
   4   1 -10 23283.5 1779.50   5
   4  -1  10 18091.1 941.062   5
  -4   1  10 19105.1 1366.38   2
   4   1 -10 17452.6 958.607   4
   4   1 -10 20757.3 1362.98   9
  -4  -1 -10 20738.0 996.016   9
  -4   1  10 18977.2 1392.74   8
  -4  -1  -9 1531.34 812.131   7
  -4   1   9-623.241 712.547   3
   4   1  -9-34.1860 566.391   6
   4  -1   9 139.485 676.086   6
  -4   1   9-454.814 613.664   2
   4   1  -9 694.536 838.488   5
   4  -1   9 1190.66 632.619   1
   4  -1   9 363.624 338.513   5
   4   1  -9 700.366 380.984   4
   4   1  -9 297.400 517.104   9
   4  -1   9 400.993 345.005   9
  -4   1   9 417.949 587.980   8
   4   1  -8 45755.6 1830.89   9
  -4  -1  -8 41521.2 2087.78   7
  -4   1   8 42480.5 2336.84   3
   4  -1   8 45645.9 2271.68   6
   4  -1   8 43006.9 2000.01   1
   4   1  -8 42332.7 2284.75   5
   4  -1   8 39690.9 1593.97   5
  -4   1   8 39711.7 1925.40   2
   4   1  -8 43031.6 1544.08   4
   4  -1   8 39074.8 1645.92   9
  -4   1   8 45747.6 2138.85   8
  -4  -1  -7 77343.6 2826.18   7
  -4   1   7 74584.8 3116.42   3
   4  -1   7 76068.8 3000.14   6
   4  -1   7 72536.8 2618.06   1
   4   1  -7 78492.8 3089.66   5
   4  -1   7 73118.8 2359.90   5
  -4   1   7 72049.9 2618.10   2
   4   1  -7 78913.3 2197.83   4
   4   1  -7 73416.5 2352.67   9
   4  -1   7 69373.1 2256.37   9
  -4   1   7 74319.6 2813.71   8
  -4  -1  -6 47981.4 2132.36   7
  -4   1   6 46101.1 2396.15   3
   4  -1   6 50231.9 2377.54   6
   4  -1   6 49516.0 1984.76   1
   4  -1   6 49842.0 1894.49   5
   4   1  -6 50917.8 2446.82   5
  -4   1   6 46878.5 2033.31   2
   4   1  -6 48711.8 1647.86   4
   4   1  -6 53384.3 1810.93   9
   4  -1   6 44188.6 1688.20   9
  -4   1   6 52643.5 2300.97   8
  -4  -1  -5 117516. 3585.33   7
  -4   1   5 129746. 4147.63   3
   4  -1   5 128031. 4000.07   6
   4  -1   5 119813. 3365.28   1
   4  -1   5 121846. 3402.85   5
   4   1  -5 128271. 4059.37   5
  -4  -1  -5 124407. 3303.68   1
  -4   1   5 123618. 3584.84   2
   4   1  -5 121457. 3005.17   4
   4   1  -5 127291. 3063.67   9
   4  -1   5 113160. 3046.47   9
  -4   1   5 126063. 3850.50   8
  -4  -1  -4 69425.2 2543.91   7
  -4   1   4 70663.7 2881.76   3
   4  -1   4 76382.7 2961.49   6
   4  -1   4 72292.7 2318.88   1
   4   1  -4 73329.9 2887.47   5
  -4  -1  -4 70106.0 2191.09   1
  -4   1   4 68813.1 2510.28   2
   4   1  -4 70718.1 1964.88   9
   4   1  -4 71764.9 2080.76   4
   4  -1   4 62964.8 2038.69   9
  -4   1   4 74140.0 2793.73   8
  -4   1   3 19824.6 1006.75   7
  -4  -1  -3 20857.7 1317.71   7
  -4   1   3 22874.1 1619.70   3
   4  -1   3 21513.1 1575.72   6
   4  -1   3 21110.7 1120.27   1
   4   1  -3 21978.4 1554.81   5
  -4  -1  -3 19462.6 977.342   1
   4   1  -3 19927.8 1018.64   4
   4   1  -3 19817.5 844.277   9
   4  -1   3 17961.5 959.788   9
  -4   1   3 20392.0 1457.66   8
  -4   1   2 70793.8 2108.94   7
  -4   1   2 75105.2 2924.70   3
   4  -1   2 76761.6 2912.32   6
   4  -1   2 74575.5 2202.07   1
   4   1  -2 74971.0 2858.27   5
  -4  -1  -2 70912.1 1970.67   1
   4   1  -2 71811.1 2148.98   4
   4   1  -2 71093.0 1723.13   9
   4  -1   2 67854.4 2039.58   9
  -4  -1  -2 74690.1 2561.88   7
  -4   1   2 74560.4 2812.26   8
  -4   1   1 110774. 2828.78   7
  -4  -1  -1 105520. 3161.24   7
  -4   1   1 109750. 3603.90   3
   4  -1   1 108095. 3605.94   6
   4  -1   1 111082. 2757.49   1
   4   1  -1 110738. 3532.93   5
  -4  -1  -1 108745. 2455.32   1
   4   1  -1 113462. 2877.06   4
   4   1  -1 99152.1 2097.52   9
  -4   1   1 117816. 3622.21   8
  -4  -1   0 214646. 5166.71   7
  -4   1   0 224419. 4869.47   7
  -4   1   0 225856. 5703.33   3
   4  -1   0 222576. 4911.27   7
   4  -1   0 220309. 5719.16   6
   4  -1   0 221610. 4605.85   1
   4   1   0 225952. 5629.45   5
  -4  -1   0 227603. 5433.14   2
  -4  -1   0 209266. 4091.56   1
   4   1   0 220607. 4875.94   4
  -4   1   0 235653. 5737.90   8
  -4  -1   1 109427. 3153.44   7
  -4   1  -1 110069. 2925.68   7
  -4   1  -1 103638. 3505.90   3
   4  -1  -1 107421. 2851.39   7
   4   1   1 107406. 2323.94   1
   4  -1  -1 113750. 3648.61   6
   4   1   1 100727. 3372.46   5
   4  -1  -1 107001. 2594.31   1
  -4  -1   1 110580. 3353.98   2
   4  -1  -1 109090. 2671.13   9
   4   1   1 111409. 2996.58   4
   4  -1  -1 106704. 2571.71   4
  -4   1  -1 104249. 2713.27   1
  -4   1  -1 109137. 3537.98   8
  -4  -1   2 58170.7 2169.30   7
  -4   1  -2 57009.7 1993.80   7
  -4   1  -2 57492.4 2436.42   3
   4  -1  -2 59095.1 1884.00   7
   4   1   2 57854.6 1588.59   1
   4  -1  -2 55769.8 2476.60   6
   4  -1  -2 58861.6 1819.27   9
   4   1   2 60505.6 2389.82   5
   4  -1  -2 57678.9 1627.02   1
  -4  -1   2 58384.2 2336.31   2
  -4   1  -2 56887.9 1908.58   1
   4   1   2 58585.8 2061.54   4
   4  -1  -2 57359.7 1590.26   4
  -4   1  -2 61808.8 2537.66   8
  -4  -1   3 19180.3 1216.90   7
  -4   1  -3 19525.2 1147.08   7
   4  -1  -3 18964.3 969.498   7
   4   1   3 19735.5 902.445   1
   4  -1  -3 19272.1 1502.57   6
   4  -1  -3 19260.7 996.399   9
   4   1   3 17874.7 1277.19   5
   4  -1  -3 17630.9 784.234   1
  -4  -1   3 18196.1 1304.84   2
  -4   1  -3 18756.1 1080.99   1
   4  -1  -3 18605.7 727.125   4
   4   1   3 19577.5 1195.71   4
  -4   1  -3 20367.0 1457.29   8
  -4  -1   4 66417.4 2353.02   7
  -4   1  -4 68176.5 2343.68   7
   4  -1  -4 67783.5 1992.67   7
   4  -1  -4 66520.0 1601.53   1
   4   1   4 67103.1 1985.87   1
   4  -1  -4 70940.9 2752.64   6
   4   1   4 68543.4 2523.93   5
  -4  -1   4 68781.4 2579.65   2
   4  -1  -4 66086.6 1722.04   1
  -4   1  -4 66516.4 2299.42   1
   4  -1  -4 65888.2 1505.86   4
   4  -1  -4 68088.7 2112.89   9
   4   1   4 65954.4 2347.68   4
  -4   1  -4 69588.4 2713.67   8
  -4  -1   5 134609. 4261.37   3
  -4   1  -5 131150. 3635.05   7
   4  -1  -5 128311. 3112.28   7
   4  -1  -5 129482. 2675.89   1
   4   1   5 127449. 3234.12   1
   4  -1  -5 136657. 4089.86   6
   4   1   5 133159. 3772.93   5
  -4  -1   5 129364. 3823.83   2
   4  -1  -5 125042. 2809.40   1
   4  -1  -5 136728. 3408.96   9
   4   1   5 131491. 3667.49   4
  -4   1  -5 133658. 4016.97   8
   4  -1  -6 52858.3 1697.98   7
  -4  -1   6 53323.7 2573.11   3
  -4   1  -6 55791.5 2183.98   7
   4  -1  -6 53017.5 1368.70   1
   4   1   6 54823.7 1924.43   1
   4  -1  -6 50676.4 2344.20   6
   4   1   6 50768.3 2135.54   5
  -4  -1   6 50939.6 2260.77   2
   4  -1  -6 51031.3 1476.71   1
   4   1   6 56336.3 2224.85   4
   4  -1  -6 54975.8 1993.30   9
  -4   1  -6 59757.2 2477.95   8
   4  -1  -7 82986.9 2313.44   7
  -4  -1   7 89906.4 3405.06   3
  -4   1  -7 84685.8 2903.23   7
   4   1   7 86125.7 2645.93   1
   4  -1  -7 84595.7 1970.31   1
   4  -1  -7 84499.4 3121.66   6
   4   1   7 86451.2 2793.95   5
  -4  -1   7 86843.3 3052.04   2
   4  -1  -7 84631.1 2108.71   1
   4  -1  -7 86038.7 2684.02   9
  -4   1  -7 86821.3 3104.66   8
   4  -1  -8 39325.6 1447.41   7
  -4  -1   8 40355.0 2277.47   3
  -4   1  -8 37759.9 1911.57   7
   4  -1  -8 41033.9 1793.41   9
   4   1   8 40007.2 1740.54   1
   4  -1  -8 39134.1 1194.59   1
   4  -1  -8 38901.1 2025.88   6
   4   1   8 41510.3 1807.02   5
  -4  -1   8 40499.8 2047.05   2
   4   1   8 37992.1 1080.08   9
  -4  -1   8 35940.9 1280.60   4
   4  -1  -8 37710.1 1263.73   1
  -4   1  -8 41757.5 2080.04   8
  -4  -1   9 609.848 245.896   4
   4  -1  -9 891.546 339.557   7
   4   1   9 990.940 568.869   1
  -4   1  -9 284.788 655.117   7
  -4  -1   9 760.646 800.045   3
   4  -1  -9 751.917 312.932   1
   4  -1  -9 1048.30 720.485   6
   4  -1  -9 1383.31 300.280   1
   4   1   9 712.594 226.113   9
  -4  -1   9 1211.26 662.954   2
   4  -1  -9 610.825 518.601   9
  -4   1  -9 1469.07 685.051   8
   4  -1 -10 14720.7 934.837   7
  -4   1 -10 15352.2 1319.38   7
  -4  -1  10 17323.4 1602.30   3
   4   1  10 15554.9 1195.67   1
   4  -1 -10 16209.0 1358.32   6
   4  -1 -10 16386.8 810.130   1
   4   1  10 15353.6 788.321   9
  -4  -1  10 16513.9 812.433   4
   4  -1 -10 17128.2 1293.51   9
  -4  -1  10 17046.3 1422.75   2
  -4   1 -10 17024.7 1369.80   8
  -4  -1  11 59750.7 2810.12   3
  -4   1 -11 60253.0 2643.24   7
   4   1  11 55590.5 2345.77   1
   4  -1 -11 53698.6 2442.71   6
  -4  -1  11 57974.7 2582.64   2
  -4  -1  11 52710.1 1631.74   4
   4  -1 -11 55534.4 2380.48   9
  -4   1 -11 53226.8 2365.12   8
  -4   1 -12 2924.51 737.565   8
   4   1  12 4157.79 877.102   1
  -4   1 -12 3767.48 967.238   7
  -4  -1  12 4166.50 970.844   3
   4  -1 -12 3923.90 908.490   6
   4  -1 -12 3368.72 862.457   9
  -4  -1  12 4025.62 984.853   2
  -4  -1  13 41450.4 2389.48   3
  -4   1 -13 39119.9 2258.02   7
   4   1  13 36671.8 2060.39   1
   4  -1 -13 35173.0 1965.40   6
  -4  -1  13 38125.8 2213.13   2
   4  -1 -13 37391.8 2068.66   9
  -4   1 -13 40242.0 2005.45   9
   4   1  14 4541.83 990.022   1
  -4   1 -14 5258.09 1120.98   7
  -4  -1  14 5248.37 1128.00   3
   4  -1 -14 4122.94 829.618   6
   4  -1 -14 6080.22 1031.79   9
  -4  -1  14 3605.68 982.190   2
  -4   1 -14 4908.25 890.687   9
   4   1  15 1395.89 820.684   1
  -4   1 -15 2010.92 942.842   7
  -4  -1  15 1087.34 787.591   3
   4  -1 -15 1147.32 677.689   6
   4  -1 -15 2330.43 971.775   9
  -4  -1  15 976.325 826.715   2
  -4   1 -15 1082.37 619.665   9
   4   1  16 13205.9 1445.01   1
  -4   1 -16 13314.3 1637.19   7
  -4  -1  16 12975.8 1481.01   3
   4  -1 -16 12168.1 1170.60   6
   4  -1 -16 12661.9 1427.40   9
  -4  -1  16 14190.2 1464.21   2
  -4   1 -16 12292.2 1295.25   9
   4   1  17 3555.82 875.763   1
  -4   1 -17 6597.33 1323.53   7
  -4  -1  17 4628.60 1063.14   3
   4  -1 -17 5662.24 1172.12   9
  -4  -1  17 6535.12 1250.23   2
  -4   1 -17 5390.93 1040.73   9
   4   1  18 11951.4 1569.41   1
  -4   1 -18 10890.2 1534.76   7
  -4  -1  18 8437.27 1307.12   3
   4  -1 -18 9488.10 1415.83   9
  -4  -1  18 8425.42 1286.18   2
  -4   1 -18 11666.9 1417.41   9
   4   1  19 9277.81 1463.65   1
  -4   1 -19 9040.99 1568.42   7
  -4  -1  19 10203.6 1480.92   3
   4  -1 -19 9861.91 1434.61   9
  -4  -1  19 9796.59 1470.54   2
  -4   1 -19 12451.8 1468.83   9
   4   1  20 5947.80 1223.59   1
  -4   1 -20 4819.58 1382.18   7
  -4  -1  20 3686.10 1198.03   3
   4  -1 -20 6587.94 1475.51   9
  -4  -1  20 4766.98 1160.25   2
  -4   1 -20 3276.11 997.316   9
   4   1  21 3866.97 1124.07   1
  -4   1 -21 4863.64 1534.48   7
  -4  -1  21 3098.28 1036.71   3
   4  -1 -21 2998.30 981.148   5
   4  -1 -21 3556.84 1198.47   9
  -4  -1  21 4299.87 1229.93   2
  -4   1 -21 4493.89 1149.76   9
   4   1  22 3690.12 1242.58   1
  -4   1 -22 2674.43 1250.84   7
  -4  -1  22 6146.92 1318.57   3
   4  -1 -22 3069.43 1174.81   5
   4  -1 -22 6610.76 1498.18   9
  -4  -1  22 3693.33 1182.68   2
  -4   1 -22 4493.42 1259.42   9
   4   1  23 3636.39 1333.75   1
  -4   1 -23 7364.01 1490.86   7
  -4  -1  23 6303.06 1374.13   3
   4  -1 -23 6350.33 1413.43   5
   4  -1 -23 7401.44 1518.11   9
  -4  -1  23 4711.90 1196.93   2
  -4   1 -23 5285.75 1327.29   9
   4   1  24 7532.44 1629.08   1
  -4   1 -24 6719.30 1694.85   7
  -4  -1  24 8338.13 1442.23   3
   4  -1 -24 6263.69 1356.79   5
   4  -1 -24 6658.05 1571.09   9
  -4  -1  24 7069.25 1489.88   2
  -4   1 -24 4377.03 1316.53   9
   4   1  25 732.091 1216.81   1
  -4  -1  25-194.527 881.063   3
   4  -1 -25 891.453 1100.42   5
   4  -1 -25-61.6627 1269.57   9
  -4  -1  25 186.533 1040.60   2
  -4   1 -25 717.108 1174.05   9
   4  -1 -26 1168.56 1031.63   5
  -4  -1  26 920.389 1032.49   2
  -4   2  26 1082.75 1213.74   3
  -4   2  25-1485.02 1265.31   3
   4   2 -25 822.329 942.833   5
   4   2 -25-196.355 1258.75   9
  -4  -2 -24-841.585 1202.46   7
   4  -2  24 1570.18 1254.73   1
  -4   2  24-1266.37 1158.25   3
   4   2 -24 1346.95 1173.12   5
  -4  -2 -23 2103.23 1093.75   7
  -4   2  23 532.807 976.793   3
   4  -2  23 1301.72 1298.20   1
   4   2 -23 1794.46 1125.73   5
   4   2 -23 1444.04 1149.09   9
  -4  -2 -22 2819.48 1090.39   7
  -4   2  22 1185.71 943.637   3
   4  -2  22 382.161 1007.96   1
   4   2 -22-271.406 1047.98   5
   4   2 -22 1222.81 1022.06   9
  -4  -2 -21 5651.06 1284.45   7
  -4   2  21 10738.0 1668.73   3
   4  -2  21 7245.03 1590.86   1
   4   2 -21 4895.18 1256.19   5
   4   2 -21 7550.31 1519.71   9
  -4  -2 -20 1848.41 1175.34   7
  -4   2  20 189.221 1059.11   3
   4  -2  20 1055.31 1048.50   1
   4   2 -20 870.117 1060.52   5
  -4   2  20 1010.86 749.656   2
   4   2 -20 225.627 986.103   9
  -4  -2 -19 4475.46 1293.30   7
  -4   2  19 6492.80 1340.34   3
   4  -2  19 5992.74 1428.00   1
   4  -2  19 5312.42 968.504   6
   4   2 -19 4908.16 1083.29   5
  -4   2  19 5475.02 950.428   2
   4   2 -19 5027.71 1195.02   9
  -4  -2 -19 4102.74 952.469   9
  -4   2  18 10751.1 1119.97   8
  -4  -2 -18 10551.2 1461.77   7
  -4   2  18 11120.4 1651.48   3
   4  -2  18 10348.8 1275.17   6
   4  -2  18 12413.1 1629.71   1
   4   2 -18 10772.7 1513.47   5
  -4   2  18 10317.7 1147.95   2
   4   2 -18 10243.7 1452.64   9
  -4  -2 -18 12556.7 1310.90   9
  -4  -2 -17 4595.66 1227.72   7
  -4   2  17 5238.96 1255.54   3
   4  -2  17 5000.58 935.619   6
   4  -2  17 4239.40 1192.52   1
   4   2 -17 5073.87 1204.22   5
  -4   2  17 5665.64 928.679   2
   4   2 -17 7227.35 1186.88   9
  -4  -2 -17 5413.66 938.608   9
  -4   2  17 5841.34 937.347   8
  -4  -2 -16 14594.4 1547.75   7
  -4   2  16 18584.4 1863.10   3
   4  -2  16 15020.5 1365.48   6
   4  -2  16 15823.4 1720.81   1
   4   2 -16 15707.1 1650.01   5
  -4  -2 -16 15938.8 1268.56   9
  -4   2  16 13460.7 1279.11   2
   4   2 -16 15520.7 1564.19   9
  -4   2  16 18636.2 1385.61   8
  -4  -2 -15 22854.0 1900.74   7
  -4   2  15 24446.1 2102.55   3
   4   2 -15 21927.8 1383.53   6
   4  -2  15 23381.1 1734.29   6
   4  -2  15 20731.4 1796.00   1
   4   2 -15 24653.4 2052.04   5
  -4   2  15 25140.8 1603.23   2
   4   2 -15 21527.9 1753.34   9
  -4  -2 -15 22256.7 1425.42   9
  -4   2  15 22542.2 1547.87   8
  -4  -2 -14 8804.73 1318.76   7
  -4   2  14 7322.73 1367.57   3
   4   2 -14 8185.24 919.288   6
   4  -2  14 8499.91 1154.45   6
   4  -2  14 6936.60 1192.56   1
   4   2 -14 7571.22 1330.26   5
  -4   2  14 7497.36 984.922   2
   4   2 -14 8904.13 1199.69   9
  -4  -2 -14 8211.15 864.666   9
  -4   2  14 7141.85 962.463   8
  -4  -2 -13 41405.1 2372.75   7
  -4   2  13 43217.9 2634.24   3
   4   2 -13 39534.6 1920.31   6
   4  -2  13 43141.0 2308.18   6
   4  -2  13 43380.9 2459.82   1
   4   2 -13 42413.4 2510.33   5
  -4   2  13 42522.6 2029.95   2
   4   2 -13 40971.7 2194.16   9
  -4  -2 -13 40152.9 1740.87   9
  -4   2  13 43398.8 2159.20   8
  -4  -2 -12 2268.12 794.431   7
  -4   2  12 264.141 903.554   3
   4  -2  12 790.349 732.257   6
   4   2 -12 458.334 843.638   5
   4  -2  12 144.658 729.519   1
  -4   2  12 848.950 601.117   2
   4   2 -12 502.312 445.340   4
   4   2 -12 1032.83 689.052   9
  -4  -2 -12 1592.37 466.664   9
  -4   2  12 1112.51 742.259   8
  -4  -2 -11 10547.5 1311.03   7
  -4   2  11 8429.26 1292.26   3
   4  -2  11 10767.7 1221.78   6
   4  -2  11 8289.20 562.356   5
   4   2 -11 8674.01 1249.87   5
   4  -2  11 11233.0 1277.09   1
  -4   2  11 9525.37 979.923   2
  -4  -2 -11 11613.3 785.162   9
   4   2 -11 8157.06 855.876   4
   4   2 -11 9479.20 1052.91   9
  -4   2  11 12380.0 1231.13   8
  -4  -2 -10 38464.7 2147.55   7
  -4   2  10 40210.3 2416.50   3
   4  -2  10 39229.1 1655.29   3
   4  -2  10 41244.3 2219.94   6
   4  -2  10 39625.6 2155.97   1
   4  -2  10 39149.1 1416.71   5
   4   2 -10 39170.6 2302.53   5
  -4   2  10 40221.0 1887.96   2
   4   2 -10 39723.5 1753.91   4
   4   2 -10 39798.5 1942.60   9
  -4  -2 -10 37670.9 1335.79   9
  -4   2  10 40394.1 2077.38   8
  -4  -2  -9 57804.1 2569.36   7
  -4   2   9 59766.1 2879.10   3
   4  -2   9 60366.9 2686.39   6
   4  -2   9 56337.6 2518.54   1
   4  -2   9 54274.2 1835.25   5
   4   2  -9 54795.8 2725.57   5
  -4   2   9 57822.5 2263.39   2
   4   2  -9 58248.0 2158.60   4
   4   2  -9 57878.4 2237.28   9
  -4  -2  -9 53992.3 1466.10   9
  -4   2   9 56230.8 2484.71   8
  -4  -2  -8 70505.1 2851.84   7
  -4   2   8 70524.3 3152.37   3
   4  -2   8 77228.8 3098.99   6
   4  -2   8 75501.2 2885.94   1
   4   2  -8 78060.1 3236.84   5
  -4   2   8 80046.8 2706.66   2
   4   2  -8 72727.5 2475.94   4
   4   2  -8 73606.1 2529.24   9
  -4   2   8 80178.8 2982.24   8
  -4  -2  -7 19152.6 1434.92   7
  -4   2   7 19024.1 1616.67   3
   4  -2   7 19833.9 1609.81   6
   4  -2   7 21329.7 1490.85   1
   4   2  -7 20633.5 1639.05   5
  -4   2   7 19462.5 1273.85   2
   4   2  -7 19644.0 1149.09   9
   4   2  -7 19806.0 1191.83   4
  -4   2   7 21743.2 1521.93   8
  -4  -2  -6 35023.9 1874.20   7
  -4   2   6 30781.8 1966.10   3
   4  -2   6 33658.1 2009.85   6
   4  -2   6 31134.5 1710.32   1
   4   2  -6 36084.3 2124.55   5
   4   2  -6 33765.4 1523.14   4
   4   2  -6 32380.9 1415.72   9
  -4   2   6 33367.1 1894.46   8
  -4  -2  -5 6489.56 886.022   7
  -4   2   5 7339.79 1062.53   3
   4  -2   5 4958.52 932.185   6
   4   2  -5 7816.37 1218.33   5
  -4  -2  -5 6502.56 678.654   1
   4   2  -5 6436.81 716.270   4
   4  -2   5 6691.97 855.924   1
   4   2  -5 6128.17 631.982   9
  -4   2   5 5500.00 992.668   8
  -4  -2  -4 2721.29 698.646   7
  -4   2   4 2095.91 889.337   3
   4  -2   4 2722.17 826.023   6
   4   2  -4 3274.64 1008.17   5
  -4  -2  -4 2343.93 449.030   1
   4   2  -4 2436.26 520.285   4
   4   2  -4 2654.34 425.418   9
   4  -2   4 2261.45 496.868   9
   4  -2   4 2611.62 599.458   1
  -4   2   4 3137.83 802.098   8
  -4   2   3 55071.2 1625.45   7
  -4  -2  -3 57459.6 2361.24   7
  -4   2   3 58193.7 2601.56   3
   4  -2   3 57975.3 2601.11   6
  -4  -2  -3 59824.2 1851.24   1
   4   2  -3 59180.8 2607.97   5
   4  -2   3 59785.8 2192.69   1
   4   2  -3 60475.3 2076.17   4
   4   2  -3 53813.1 1533.97   9
   4  -2   3 53434.7 2015.60   9
  -4   2   3 61709.2 2593.11   8
  -4   2   2 28553.7 1077.79   7
  -4  -2  -2 27009.6 1560.08   7
  -4   2   2 25861.2 1714.22   3
   4  -2   2 28529.8 1349.60   7
   4  -2   2 27389.4 1806.68   6
  -4  -2  -2 29118.7 1128.64   1
  -4   2   2 28405.8 1791.29   8
   4   2  -2 27149.7 1754.94   5
   4  -2   2 27236.1 1406.70   1
  -4  -2  -2 26943.6 1560.32   2
   4   2  -2 27555.7 1345.12   4
   4  -2   2 25126.4 1290.32   9
   4   2  -2 25018.0 769.012   9
  -4  -2  -1 47550.5 2048.14   7
  -4   2   1 45459.7 1493.08   7
  -4   2   1 44545.3 2192.72   3
   4  -2   1 44946.6 1689.73   7
   4  -2   1 45812.7 2311.96   6
  -4  -2  -1 45398.0 1362.84   1
   4   2  -1 49592.6 2342.77   5
   4  -2   1 43963.8 1780.57   1
  -4  -2  -1 43655.9 1995.42   2
   4  -2   1 42909.0 1703.06   4
   4   2  -1 44371.4 1782.89   4
  -4   2   1 45368.0 2221.85   8
  -4   2   0 10404.2 719.786   7
   4  -2   0 11123.9 751.845   7
  -4  -2   0 10225.2 1016.80   7
  -4   2   0 11906.5 1174.68   3
   4  -2   0 9697.21 798.375   1
   4  -2   0 8410.61 1111.15   6
  -4  -2   0 9862.08 504.582   1
   4   2   0 9809.79 1180.87   5
   4  -2   0 10137.7 769.192   4
  -4  -2   0 8644.43 944.211   2
  -4   2   0 10163.7 1160.46   8
   4   2   0 9314.98 846.018   4
  -4  -2   1 53164.4 2177.63   7
  -4   2  -1 52237.4 1754.03   7
  -4   2  -1 50713.6 2308.56   3
   4  -2  -1 53437.3 1696.01   7
   4  -2  -1 50186.1 2426.15   6
   4   2   1 55459.5 2450.94   5
  -4  -2   1 51351.2 2220.40   2
   4  -2  -1 53139.7 1895.20   1
   4  -2  -1 49222.3 1669.82   4
   4   2   1 53613.1 2026.22   4
  -4   2  -1 50749.2 1836.34   1
  -4   2  -1 51836.3 2406.23   8
  -4  -2   2 29451.1 1637.26   7
  -4   2  -2 28920.0 1317.77   7
  -4   2  -2 30108.5 1718.76   3
   4  -2  -2 29828.0 1155.76   7
   4  -2  -2 28546.2 1797.62   6
   4   2   2 30061.0 1780.35   5
  -4  -2   2 28048.3 1642.79   2
   4  -2  -2 30281.9 1356.76   1
   4  -2  -2 28271.6 1104.05   4
   4   2   2 30164.6 1528.76   4
  -4   2  -2 30672.3 1835.41   8
  -4  -2   3 63413.7 2434.28   7
  -4   2  -3 62933.1 2097.27   7
  -4   2  -3 62244.3 2460.23   3
   4  -2  -3 64147.0 1772.44   7
   4  -2  -3 61285.3 2713.58   6
   4   2   3 66841.8 2651.98   5
  -4  -2   3 60371.8 2445.53   2
   4  -2  -3 59642.6 2006.78   1
   4  -2  -3 57240.5 1577.40   4
   4   2   3 61044.9 2285.65   4
   4  -2  -3 61695.0 1470.49   4
  -4   2  -3 66572.6 2710.46   8
   4   2   4 537.554 507.145   4
   4  -2  -4 649.534 412.725   1
  -4   2  -4 215.516 430.969   7
  -4   2  -4-34.4418 500.493   3
   4  -2  -4 182.851 225.434   7
   4  -2  -4 373.523 743.224   6
   4   2   4 614.648 625.744   5
  -4  -2   4 482.411 218.220   9
  -4  -2   4 455.304 693.536   2
   4  -2  -4 446.661 455.654   9
   4   2   4 262.617 344.359   1
  -4   2  -4 1418.91 835.824   8
   4   2   5 1725.06 651.505   4
  -4   2  -5 2957.08 615.837   7
   4  -2  -5 2667.80 325.752   7
   4  -2  -5 2957.94 521.020   1
   4  -2  -5 1201.48 677.756   6
  -4  -2   5 2203.37 361.870   9
   4   2   5 1077.11 647.877   5
   4  -2  -5 2565.34 587.760   9
  -4  -2   5 2780.30 698.883   2
   4   2   5 3076.76 517.420   1
  -4   2  -5 2397.17 725.542   8
  -4   2  -6 27911.5 1509.03   7
   4  -2  -6 24835.7 908.149   7
   4  -2  -6 24575.9 1060.06   1
   4   2   6 27435.7 1314.77   1
   4  -2  -6 27152.4 1787.07   6
   4   2   6 26759.8 1650.69   5
  -4  -2   6 28859.5 1719.05   2
  -4  -2   6 24875.5 1137.21   9
   4  -2  -6 26858.2 1450.62   9
   4  -2  -6 24360.1 1194.18   1
   4   2   6 25957.3 1545.85   4
  -4   2  -6 26632.6 1713.72   8
   4   2   7 13929.6 1211.34   4
   4  -2  -7 13356.1 632.760   7
  -4   2  -7 14958.0 1174.19   7
   4  -2  -7 13171.6 775.657   1
   4   2   7 14495.8 1017.46   1
   4  -2  -7 15532.3 1383.10   6
   4  -2  -7 14110.2 1124.61   9
  -4  -2   7 13515.0 896.804   9
  -4  -2   7 14031.1 1299.12   2
   4  -2  -7 12869.8 870.571   1
  -4   2  -7 12842.3 1251.90   8
   4  -2  -8 73220.3 1811.83   7
  -4   2  -8 77775.3 2795.85   7
   4   2   8 78751.8 2566.22   1
   4  -2  -8 69985.6 2093.29   1
   4  -2  -8 78410.8 3084.73   6
  -4  -2   8 76483.6 3007.18   2
   4  -2  -8 79926.7 2734.63   9
  -4  -2   8 71949.6 2301.60   4
   4   2   8 84165.7 2999.60   4
   4  -2  -8 73145.1 2283.68   1
  -4   2  -8 80148.0 3004.55   8
   4  -2  -9 50708.1 1410.76   7
  -4   2  -9 49997.0 2288.00   7
   4   2   9 52381.9 2128.06   1
   4  -2  -9 49130.1 1686.94   1
   4  -2  -9 50686.1 2472.71   6
  -4  -2   9 52529.8 2493.51   2
   4  -2  -9 52357.2 2246.58   9
   4   2   9 51816.7 2391.22   4
  -4   2  -9 53489.0 2396.30   8
   4  -2  -9 48360.5 1798.41   1
  -4   2 -10 37887.5 2066.58   7
   4   2  10 34357.5 1770.48   1
   4  -2 -10 37659.8 2123.61   6
  -4  -2  10 39494.2 2220.47   2
   4  -2 -10 34934.0 1879.07   9
   4   2  10 33382.4 1978.66   4
  -4   2 -10 38844.1 2047.71   8
   4   2  11 13494.4 1204.98   1
   4   2  11 13846.9 1356.03   4
  -4   2 -11 11564.6 1272.57   7
   4  -2 -11 12659.1 1287.94   6
   4  -2 -11 11394.3 1172.10   9
  -4  -2  11 11518.1 1333.01   2
  -4   2 -11 11575.9 1237.80   8
   4   2  12-271.018 640.897   1
   4   2  12-226.161 630.627   4
  -4   2 -12 100.136 757.007   7
   4  -2 -12 586.295 719.767   6
   4  -2 -12-99.5124 665.922   9
  -4  -2  12 739.753 708.858   2
  -4   2 -12-264.130 616.022   8
  -4  -2  13 38419.7 2350.54   3
  -4   2 -13 35715.8 2197.67   7
   4  -2 -13 37593.8 1428.85   7
  -4  -2  13 35622.7 1166.17   1
   4   2  13 34807.0 1983.39   1
   4  -2 -13 38064.5 2155.70   6
  -4  -2  13 35798.7 2216.93   2
   4  -2 -13 39176.5 2171.00   9
   4   2  13 35225.5 2181.17   4
  -4   2 -13 40817.7 2099.24   8
   4   2  14 8832.08 1115.97   1
   4   2  14 9887.51 1355.93   4
  -4  -2  14 10566.0 1317.57   3
  -4   2 -14 8490.80 1288.56   7
   4  -2 -14 8568.48 1153.39   6
   4  -2 -14 10702.4 1372.29   9
  -4  -2  14 9021.42 1330.75   2
  -4   2 -14 10532.6 1146.87   8
  -4  -2  15 20901.5 1801.84   3
   4   2  15 19853.5 1661.45   1
  -4   2 -15 21612.6 1881.94   7
   4   2  15 21267.0 1867.53   4
   4  -2 -15 21100.1 1745.16   9
  -4  -2  15 19682.4 1830.71   2
  -4   2 -15 22141.1 1548.75   8
   4   2  16 16485.8 1563.38   1
  -4  -2  16 16610.4 1669.76   3
  -4   2 -16 17325.1 1780.11   7
   4  -2 -16 18806.1 1740.08   9
  -4  -2  16 17096.9 1730.80   2
  -4   2 -16 15313.5 1501.34   9
  -4   2 -16 17178.8 1363.10   8
   4   2  17 5604.64 1215.84   1
  -4  -2  17 6366.27 1222.76   3
  -4   2 -17 3995.63 1099.93   7
   4  -2 -17 4613.15 1176.87   9
  -4  -2  17 6435.04 1274.72   2
  -4   2 -17 5120.45 1029.91   9
   4   2  18 12947.5 1555.73   1
  -4  -2  18 10869.0 1451.99   3
  -4   2 -18 10947.9 1591.58   7
   4  -2 -18 11436.8 1520.33   9
  -4  -2  18 10646.6 1498.01   2
  -4   2 -18 14149.2 1614.65   9
   4   2  19 4592.18 1200.66   1
  -4  -2  19 5390.02 1156.31   3
  -4   2 -19 4440.32 1228.07   7
   4  -2 -19 2432.35 901.624   9
  -4  -2  19 7037.37 1377.77   2
  -4   2 -19 4072.47 1042.64   9
   4   2  20 1601.01 965.307   1
  -4  -2  20-495.549 951.747   3
  -4   2 -20 716.600 1127.06   7
   4  -2 -20 833.577 1032.70   9
  -4  -2  20 1004.48 1079.95   2
  -4   2 -20 53.2328 949.526   9
   4   2  21 8188.37 1492.91   1
   4   2  21 7441.33 1314.62   4
  -4  -2  21 5450.22 1273.81   3
  -4   2 -21 7827.25 1607.79   7
   4  -2 -21 6649.44 1457.47   9
  -4  -2  21 8255.41 1536.69   2
  -4   2 -21 7085.19 1353.74   9
   4   2  22 215.624 903.374   1
   4   2  22-1217.82 1236.03   4
  -4   2 -22-1102.91 1158.44   7
   4  -2 -22-1439.25 1156.77   9
  -4  -2  22-926.590 1097.11   2
  -4   2 -22 858.741 1102.76   9
   4   2  23 584.365 1200.71   4
  -4   2 -23 563.461 1328.81   7
   4  -2 -23 226.903 1167.23   9
  -4  -2  23-309.137 1109.52   2
  -4   2 -23 2953.07 1244.13   9
   4   2  23-44.1092 1137.87   1
   4   2  24 1407.49 960.075   4
  -4   2 -24 1312.62 1085.96   7
   4  -2 -24 2161.83 1289.98   9
  -4  -2  24 1462.09 1008.54   2
  -4   2 -24 1845.49 1071.91   9
   4   2  24 568.391 1096.56   1
  -4  -2  25 741.860 1041.42   2
  -4   2 -25-691.934 962.612   9
   4  -2 -26-3526.49 1330.33   5
  -4   2 -26-1641.38 1063.40   9
   4   3 -25-2797.37 1272.88   5
   4   3 -25-80.2275 1298.75   9
  -4   3  24 3721.79 1512.59   3
   4   3 -24 1937.20 1216.54   5
   4   3 -24 1293.83 1168.28   9
  -4  -3 -23 1127.62 1010.63   7
  -4   3  23 2534.92 1271.85   3
   4  -3  23-278.869 1116.12   1
   4   3 -23 824.532 1218.80   5
   4   3 -23 2395.18 1457.14   9
  -4  -3 -22 1739.79 1039.60   7
  -4   3  22 643.597 1141.22   3
   4  -3  22-945.716 1210.25   1
   4   3 -22 927.654 1141.95   5
   4   3 -22 741.952 1043.19   9
  -4  -3 -21 2136.47 1156.51   7
  -4   3  21 4785.45 1251.87   3
   4  -3  21 5857.72 1500.70   1
   4   3 -21 2166.93 1260.40   5
   4   3 -21 2739.47 1231.43   9
  -4  -3 -20 3891.22 1300.29   7
  -4   3  20 3485.35 1379.43   3
   4  -3  20 3154.27 1224.16   1
   4   3 -20 2348.10 1078.08   5
   4   3 -20 3289.48 1036.54   9
  -4  -3 -19 12415.3 1651.65   7
  -4   3  19 12211.3 1756.63   3
   4  -3  19 8910.91 1192.95   6
   4  -3  19 8908.43 1562.16   1
   4   3 -19 10726.2 1624.54   5
   4   3 -19 9243.15 1384.50   9
  -4  -3 -18 3525.98 1241.79   7
  -4   3  18 4100.06 1295.45   3
  -4   3  18 4087.48 795.599   2
   4  -3  18 5477.88 1054.64   6
   4  -3  18 3747.47 1170.07   1
   4   3 -18 5230.51 1297.43   5
   4   3 -18 5194.21 1243.90   9
  -4   3  18 4390.77 841.929   8
  -4  -3 -17 3357.41 951.399   7
  -4   3  17 4783.38 1406.11   3
   4   3 -17 5350.51 1217.85   9
   4  -3  17 3152.78 932.863   6
   4  -3  17 2439.60 1073.43   1
   4   3 -17 6103.59 1308.84   5
  -4   3  17 3367.96 705.935   2
  -4   3  17 5117.75 934.638   8
  -4  -3 -16 9413.77 1377.34   7
  -4   3  16 7560.03 1414.29   3
   4  -3  16 7429.25 1093.88   6
   4   3 -16 10247.8 1523.05   5
   4  -3  16 11847.4 1596.24   1
  -4   3  16 10130.1 1046.21   2
   4   3 -16 9780.46 1317.29   9
  -4   3  16 9471.88 1152.52   8
  -4  -3 -15 8878.69 1446.78   7
  -4   3  15 7372.06 1349.02   3
   4   3 -15 7717.38 892.949   6
   4  -3  15 7110.77 1179.64   6
   4   3 -15 7041.01 1344.83   5
   4  -3  15 4225.17 1079.28   1
  -4   3  15 7255.97 910.743   2
  -4  -3 -15 7625.89 924.861   9
   4   3 -15 7878.30 1195.70   9
  -4   3  15 7244.16 1071.07   8
  -4  -3 -14 23467.8 1941.70   7
  -4   3  14 25928.7 2207.49   3
   4  -3  14 25540.1 1856.19   6
  -4  -3 -14 26764.8 1440.98   9
   4  -3  14 25712.5 2031.21   1
   4   3 -14 27271.0 2126.28   5
  -4   3  14 25273.7 1515.86   2
   4   3 -14 25395.4 1671.46   4
   4   3 -14 26097.5 1857.34   9
  -4   3  14 25196.6 1706.06   8
  -4  -3 -13 8866.62 1302.79   7
  -4   3  13 5486.11 1264.07   3
   4  -3  13 8207.10 1160.64   6
   4   3 -13 8055.97 1330.67   5
   4  -3  13 6285.95 1121.46   1
  -4   3  13 6706.91 837.225   2
   4   3 -13 5664.96 917.581   4
  -4  -3 -13 7170.11 763.276   9
   4   3 -13 7833.04 1139.28   9
  -4   3  13 7588.61 1086.50   8
  -4  -3 -12 1406.53 441.853   9
  -4  -3 -12 951.403 750.137   7
  -4   3  12 1420.61 1046.99   3
   4  -3  12 1467.92 845.393   6
   4   3 -12 1951.63 955.083   5
  -4   3  12 807.710 513.915   2
   4  -3  12 682.373 723.696   1
   4   3 -12 491.792 571.597   4
   4   3 -12 1127.59 679.897   9
  -4   3  12 1350.08 708.818   8
  -4  -3 -11 4374.07 970.401   7
  -4   3  11 3727.53 1129.07   3
   4  -3  11 4965.31 1047.16   6
   4  -3  11 4350.27 989.936   1
   4   3 -11 5151.69 1202.57   5
  -4   3  11 4731.97 724.416   2
   4   3 -11 3601.38 789.624   4
  -4  -3 -11 3549.69 480.146   9
   4   3 -11 4074.00 846.530   9
  -4  -3 -10 18643.0 1532.19   7
  -4   3  10 17161.1 1682.69   3
   4  -3  10 19968.3 1642.61   6
   4  -3  10 19302.2 1657.22   1
   4   3 -10 16494.1 1658.73   5
   4   3 -10 17952.8 1371.95   4
  -4  -3 -10 17403.4 840.933   9
   4   3 -10 19158.4 1386.80   9
  -4  -3  -9 30661.1 1959.11   7
  -4   3   9 29941.5 2178.75   3
   4  -3   9 34584.7 2077.20   6
   4  -3   9 31688.3 1983.12   1
   4   3  -9 31270.9 2132.26   5
   4   3  -9 31210.2 1723.15   4
  -4  -3  -9 30355.1 993.974   9
   4   3  -9 30491.7 1663.39   9
  -4  -3  -8 88207.7 3305.54   7
  -4   3   8 93201.0 3738.88   3
   4  -3   8 89310.7 3471.65   6
   4  -3   8 82677.5 3273.03   1
   4   3  -8 90360.7 3624.55   5
   4   3  -8 90934.9 3041.45   4
   4   3  -8 85734.9 2846.30   9
  -4  -3  -7 21383.6 1571.21   7
  -4   3   7 19333.7 1726.75   3
   4  -3   7 18737.3 1589.44   6
   4  -3   7 21601.9 1583.19   1
   4   3  -7 20381.0 1738.94   5
   4   3  -7 17100.0 1273.58   4
   4   3  -7 16021.8 1113.62   9
   4  -3   6 3583.97 787.691   1
  -4  -3  -6 2632.98 828.085   7
  -4   3   6 3660.73 1015.58   3
   4  -3   6 3769.14 902.990   6
   4   3  -6 5832.59 1151.95   5
   4   3  -6 3886.67 683.719   4
   4   3  -6 3933.15 580.425   9
  -4  -3  -5 50579.3 2345.53   7
  -4   3   5 46560.4 2513.12   3
   4  -3   5 52114.7 2572.34   6
   4   3  -5 56782.6 2724.11   5
   4  -3   5 48837.9 2269.94   1
   4   3  -5 52349.9 2141.67   4
   4   3  -5 49306.9 1761.04   9
  -4  -3  -4 69130.2 2731.64   7
  -4   3   4 68795.4 2992.31   3
   4  -3   4 66600.1 2966.21   6
  -4  -3  -4 65808.3 2184.08   1
   4   3  -4 74422.4 3119.43   5
   4  -3   4 66569.7 2628.90   1
   4   3  -4 66185.4 2433.76   4
   4   3  -4 63076.5 1902.27   9
  -4  -3  -3 118554. 3759.83   7
  -4   3   3 115045. 3957.05   3
   4  -3   3 114133. 4030.74   6
  -4  -3  -3 118463. 3048.09   1
   4   3  -3 113700. 4046.27   5
  -4  -3  -3 117501. 3568.62   2
   4  -3   3 110047. 3522.73   1
   4   3  -3 113243. 3401.02   4
  -4   3   2 77441.5 1867.39   7
  -4  -3  -2 78504.6 2918.60   7
  -4   3   2 78555.9 3130.96   3
   4  -3   2 85224.3 3331.78   6
  -4  -3  -2 80797.1 2268.88   1
   4   3  -2 80732.0 3269.54   5
  -4  -3  -2 74841.4 2758.14   2
   4  -3   2 78716.6 2797.32   1
   4   3  -2 80162.9 2714.05   4
  -4  -3  -1 36101.2 1899.58   7
  -4   3   1 36489.5 1192.86   7
  -4   3   1 34212.4 2012.57   3
   4  -3   1 38014.4 2187.20   6
  -4  -3  -1 39197.9 1352.79   1
   4   3  -1 31399.8 2001.17   5
  -4  -3  -1 37752.3 1877.09   2
   4  -3   1 35195.6 1783.95   1
   4  -3   1 35340.8 1615.22   4
   4   3  -1 35052.7 1706.92   4
  -4   3   0 16219.2 831.383   7
  -4   3   0 16140.5 1368.25   3
  -4  -3   0 15411.7 1287.31   7
  -4  -3   0 16683.2 789.546   1
   4  -3   0 17219.9 1564.64   6
  -4  -3   0 16266.7 1282.54   2
   4   3   0 15587.6 1425.84   5
   4  -3   0 17584.2 1236.44   1
   4  -3   0 15923.2 1022.80   4
   4   3   0 17094.1 1219.78   4
  -4  -3   1 32485.2 1803.98   7
  -4   3  -1 36272.5 1351.41   7
  -4   3  -1 37446.1 1978.47   3
   4  -3  -1 35767.8 2165.15   6
  -4  -3   1 33858.1 1084.50   1
   4   3   1 37287.1 2149.20   5
  -4  -3   1 34588.7 1855.02   2
   4  -3  -1 36810.3 1752.61   1
   4  -3  -1 32376.4 1382.53   4
   4   3   1 35503.1 1762.57   4
  -4  -3   1 34103.5 1060.66   1
  -4  -3   2 80231.3 2961.76   7
  -4   3  -2 85321.8 2387.05   7
  -4   3  -2 81637.8 2957.51   3
   4  -3  -2 86232.9 3371.07   6
  -4  -3   2 80460.4 1798.83   1
   4   3   2 83776.5 3268.90   5
  -4  -3   2 82103.5 2943.10   2
   4  -3  -2 81028.7 2720.08   1
   4  -3  -2 73770.9 2144.67   4
  -4  -3   2 82360.0 1824.38   1
   4   3   2 81470.9 2824.57   4
  -4  -3   2 78414.9 1755.64   9
  -4  -3   3 118436. 3682.03   7
  -4   3  -3 115400. 3032.10   7
  -4   3  -3 112933. 3534.86   3
   4  -3  -3 119096. 4067.41   6
   4   3   3 119320. 3940.24   5
  -4  -3   3 104900. 2116.11   1
  -4  -3   3 118774. 3688.97   2
   4  -3  -3 106801. 2500.22   4
   4  -3  -3 118308. 3377.17   1
   4   3   3 111346. 3459.63   4
  -4  -3   3 110497. 2467.17   9
  -4   3  -4 74814.8 2360.59   7
  -4   3  -4 72950.0 2640.14   3
   4  -3  -4 75148.0 3147.01   6
   4   3   4 67076.8 2902.49   5
  -4  -3   4 71016.7 2781.32   2
   4  -3  -4 65405.0 1509.27   4
   4  -3  -4 67125.4 2422.04   1
   4   3   4 68923.5 2640.39   4
  -4  -3   4 70566.3 1906.14   9
  -4   3  -5 49296.1 2099.20   3
  -4   3  -5 47429.1 1951.55   7
   4  -3  -5 46603.4 2494.42   6
  -4  -3   5 46728.4 2282.31   2
   4  -3  -5 50444.9 2107.15   9
   4  -3  -5 49612.5 2006.06   1
   4   3   5 51222.2 2239.77   4
  -4  -3   5 45692.9 1593.73   9
   4  -3  -6 1761.14 513.289   1
  -4   3  -6 3659.13 642.037   3
  -4   3  -6 3814.82 697.222   7
   4  -3  -6 4127.27 982.776   6
   4  -3  -6 2773.72 652.892   9
  -4  -3   6 1981.11 401.202   9
  -4  -3   6 4043.78 882.590   2
   4   3   6 2772.73 793.479   4
   4   3   7 12307.1 1255.06   4
  -4   3  -7 12960.3 1135.19   7
   4  -3  -7 14346.9 1464.33   6
   4  -3  -7 11798.5 971.172   1
   4  -3  -7 13370.9 1202.36   9
  -4  -3   7 12693.9 1280.57   2
  -4   3  -8 97409.4 3305.65   7
   4   3   8 96918.2 3016.43   1
   4  -3  -8 92201.8 3676.40   6
  -4  -3   8 97403.7 3600.13   2
   4  -3  -8 102847. 3353.65   9
   4   3   8 98587.7 3490.50   4
   4  -3  -8 95589.1 3016.99   1
  -4   3  -9 28884.8 1763.45   7
   4   3   9 31901.5 1629.42   1
   4  -3  -9 28450.9 2050.88   6
  -4  -3   9 29541.7 1950.88   2
   4  -3  -9 30318.6 1797.82   9
   4   3   9 29030.9 1838.95   4
   4  -3  -9 29315.0 1543.75   1
  -4   3 -10 20276.6 1559.86   7
   4   3  10 19179.7 1356.24   1
  -4  -3  10 17306.9 581.185   1
   4  -3 -10 20347.7 1731.33   6
  -4  -3  10 17989.7 1579.87   2
   4  -3 -10 20918.5 1559.07   9
   4   3  10 21750.3 1681.08   4
  -4   3 -10 20875.0 1621.42   8
   4   3  11 8941.98 1272.99   4
  -4  -3  11 7175.69 427.866   1
  -4   3 -11 7722.87 1055.49   7
   4  -3 -11 8230.00 1273.95   6
   4  -3 -11 7220.18 1010.33   9
  -4  -3  11 7044.27 1233.51   2
   4   3  11 7992.83 992.365   1
  -4   3 -11 7901.43 1098.84   8
   4   3  12-32.7566 856.965   4
  -4   3 -12 1150.06 809.504   7
   4  -3 -12 2562.38 891.347   9
  -4  -3  12 1924.14 920.620   2
   4   3  12 560.527 635.214   1
  -4   3 -12 1202.31 754.560   8
   4   3  13 7778.31 1295.12   4
  -4   3 -13 7068.88 1169.02   7
   4  -3 -13 7317.15 1113.21   9
  -4  -3  13 8374.94 1345.53   2
   4   3  13 8128.07 1056.76   1
  -4   3 -13 7290.69 1078.01   8
  -4   3 -14 26676.2 2048.02   7
   4   3  14 23653.3 1736.07   1
  -4  -3  14 23619.9 1985.55   2
   4  -3 -14 22083.7 1830.06   9
   4   3  14 25570.6 1979.90   4
  -4   3 -14 23588.7 1695.01   8
   4   3  15 5023.42 1129.75   4
  -4   3 -15 5191.45 1205.49   7
  -4  -3  15 4812.35 1256.10   2
   4   3  15 5849.90 1074.01   1
   4  -3 -15 4760.16 1090.45   9
  -4   3 -15 6004.06 1020.19   8
   4   3  16 7717.62 1380.94   4
  -4   3 -16 9210.12 1527.15   7
   4  -3 -16 8321.96 1355.06   9
  -4  -3  16 7826.71 1403.38   2
   4   3  16 6335.43 1178.81   1
  -4   3 -16 7891.52 1041.17   8
   4   3  17 6632.85 1341.74   4
  -4   3 -17 6191.41 1350.22   7
   4  -3 -17 9143.92 1376.99   9
  -4  -3  17 3617.73 1223.45   2
   4   3  17 7169.09 1277.43   1
  -4   3 -17 5169.19 944.650   8
   4   3  18 4142.21 1166.11   4
  -4   3 -18 1699.84 1159.58   7
   4  -3 -18 4858.32 1164.40   9
  -4  -3  18 4502.56 1159.28   2
   4   3  18 5450.97 1248.12   1
   4   3  19 12375.6 1590.67   4
  -4   3 -19 12727.7 1775.25   7
   4  -3 -19 10525.8 1515.18   9
  -4  -3  19 8650.57 1578.66   2
   4   3  19 8521.13 1425.87   1
   4   3  20 2965.64 1039.89   4
  -4   3 -20 2821.91 1186.99   7
   4  -3 -20 1579.03 1071.09   9
  -4  -3  20 4718.37 1369.64   2
   4   3  20 3509.06 1215.13   1
   4   3  21 5666.71 1295.05   4
  -4   3 -21 3119.14 1418.10   7
   4  -3 -21 3365.95 1287.67   9
  -4  -3  21 2801.66 1227.68   2
   4   3  21 4079.70 1107.94   1
  -4   3 -21 4969.56 1360.55   9
   4   3  22 439.910 1054.91   4
  -4   3 -22-3.85604 972.613   7
   4  -3 -22 718.935 1276.96   9
  -4  -3  22 741.442 1105.44   2
   4   3  22 2325.45 1167.07   1
  -4   3 -22 496.550 1067.44   9
   4   3  23 738.055 1214.79   4
  -4   3 -23 2385.35 1451.59   7
   4  -3 -23-439.009 1223.02   9
  -4  -3  23 2375.23 1168.01   2
   4   3  23 185.233 1051.82   1
  -4   3 -23 124.294 993.269   9
   4  -3 -24 172.225 960.783   9
  -4  -3  24-1237.31 1175.88   2
   4   3  24 1633.51 1188.29   1
  -4   3 -24 1190.41 1151.05   9
  -4   3 -25-186.958 1208.39   9
  -4   3 -26 3225.75 1382.64   9
   4   4 -24 951.221 1145.64   5
   4   4 -24 774.586 1300.94   9
   4   4 -23 827.621 1196.43   5
   4   4 -23-1845.04 1192.53   9
  -4  -4 -22 3910.74 1366.58   7
  -4   4  22 2944.73 1433.57   3
   4  -4  22 1535.74 1127.85   1
   4   4 -22 1561.85 1236.92   5
   4   4 -22 119.522 1137.41   9
  -4  -4 -21 5168.43 1392.16   7
  -4   4  21 8617.40 1780.26   3
   4  -4  21 2247.08 1267.07   1
   4   4 -21 5127.15 1378.52   5
   4   4 -21 6329.47 1458.72   9
  -4  -4 -20 3012.09 1082.15   7
  -4   4  20 6176.14 1460.02   3
   4  -4  20 4519.70 1515.22   1
   4   4 -20 2943.84 1178.97   5
   4   4 -20 3678.27 1311.07   9
  -4  -4 -19 1774.99 1183.47   7
  -4   4  19 5101.86 1462.88   3
   4  -4  19 3040.03 1271.49   1
   4   4 -19 438.384 1164.13   5
   4   4 -19 4674.31 1351.80   9
  -4  -4 -18 14253.6 1674.05   7
  -4   4  18 18110.0 2079.06   3
   4  -4  18 16251.3 1625.09   6
   4   4 -18 15850.4 1816.97   5
   4  -4  18 15114.0 1843.65   1
   4   4 -18 14484.1 1706.37   9
  -4  -4 -17 4607.94 1214.22   7
  -4   4  17 4418.12 1262.03   3
   4  -4  17 5524.72 1136.65   6
   4   4 -17 1477.28 1083.17   5
   4  -4  17 2811.78 1062.07   1
   4   4 -17 4709.10 1163.07   9
  -4   4  17 3931.27 912.651   8
  -4  -4 -16 12664.5 1679.08   7
  -4   4  16 14169.4 1859.34   3
   4  -4  16 14953.4 1577.01   6
   4   4 -16 16367.8 1894.43   5
   4  -4  16 14318.9 1749.11   1
   4   4 -16 14176.8 1599.60   9
  -4   4  16 15038.4 1443.40   8
  -4  -4 -15 4533.75 1114.33   7
  -4   4  15 6358.28 1402.38   3
   4  -4  15 8511.55 1285.61   6
   4   4 -15 8737.44 1480.25   5
   4  -4  15 7136.09 1322.46   1
   4   4 -15 6271.81 1105.11   4
   4   4 -15 5790.90 1130.65   9
  -4  -4 -14 12400.2 1544.94   7
  -4   4  14 11637.5 1587.03   3
   4  -4  14 11636.4 1408.92   6
   4   4 -14 11789.3 1563.57   5
   4  -4  14 12903.8 1659.04   1
   4   4 -14 10437.5 1257.42   4
   4   4 -14 11607.2 1390.12   9
  -4  -4 -13 25466.3 1998.45   7
  -4   4  13 27933.4 2326.41   3
   4  -4  13 30254.4 2060.47   6
   4  -4  13 25051.0 2124.03   1
   4   4 -13 30983.7 2289.45   5
   4   4 -13 26216.0 1848.01   4
   4   4 -13 28242.4 1949.53   9
  -4  -4 -12 14899.7 1526.43   7
  -4   4  12 18208.9 1925.60   3
   4  -4  12 15967.3 1633.93   6
   4   4 -12 15199.5 1664.58   5
   4   4 -12 17091.5 1542.52   4
   4  -4  12 17450.1 1776.79   1
   4   4 -12 15824.9 1467.10   9
  -4  -4 -11 23913.8 1873.69   7
   4  -4  11 26540.0 1992.83   6
  -4   4  11 25951.6 2156.28   3
   4  -4  11 24225.7 1982.90   1
   4   4 -11 25777.0 2147.09   5
   4   4 -11 24809.1 1779.63   4
   4   4 -11 25006.0 1707.93   9
  -4  -4 -10 31042.4 1217.71   9
  -4  -4 -10 29387.9 2007.13   7
  -4   4  10 31431.5 2344.11   3
   4  -4  10 33239.7 2195.17   6
   4  -4  10 29633.7 2094.95   1
   4   4 -10 30636.6 2310.99   5
   4   4 -10 30361.8 1895.42   4
   4   4 -10 31264.0 1823.26   9
  -4  -4  -9 25825.4 1902.39   7
  -4   4   9 28420.1 2159.15   3
   4  -4   9 26255.9 2004.39   6
   4  -4   9 25420.0 1950.65   1
   4   4  -9 23716.5 1953.33   5
   4   4  -9 25589.2 1738.48   4
  -4  -4  -9 26340.2 1004.24   9
   4   4  -9 25015.9 1567.49   9
  -4  -4  -8 20207.0 1653.45   7
  -4  -4  -8 20368.8 770.886   9
   4  -4   8 23263.0 1824.29   6
  -4   4   8 19269.3 1839.53   3
   4  -4   8 20416.2 1694.42   1
   4   4  -8 21222.9 1956.73   5
   4   4  -8 22788.2 1606.48   4
   4   4  -8 19931.5 1343.93   9
   4  -4   7 12179.5 1380.98   1
  -4  -4  -7 11835.7 1325.38   7
  -4   4   7 12295.1 1529.33   3
   4  -4   7 10632.4 1352.66   6
   4   4  -7 11955.2 1509.02   5
   4   4  -7 11637.3 1182.39   4
   4   4  -7 9813.42 949.628   9
  -4  -4  -6 40324.4 2204.11   7
  -4   4   6 40191.0 2450.27   3
   4  -4   6 44250.6 2521.72   6
   4   4  -6 44291.7 2584.97   5
   4  -4   6 43111.3 2289.98   1
   4   4  -6 39173.9 2048.10   4
  -4  -4  -5 9677.35 1181.57   7
   4  -4   5 11319.7 1216.29   1
  -4   4   5 11262.2 1426.81   3
   4  -4   5 10469.4 1339.53   6
   4   4  -5 10531.0 1379.55   5
   4   4  -5 12910.2 1241.50   4
  -4  -4  -4 11097.1 1225.56   7
  -4   4   4 11219.6 1351.30   3
   4  -4   4 10991.7 1176.14   1
   4  -4   4 11514.1 1402.03   6
   4   4  -4 12441.3 1499.87   5
   4   4  -4 10737.6 1156.17   4
  -4  -4  -3 43526.6 2249.33   7
  -4   4   3 41932.4 2373.08   3
   4  -4   3 45006.0 2518.74   6
   4   4  -3 43483.3 2552.42   5
  -4  -4  -3 44987.8 2053.25   2
   4  -4   3 38283.0 2102.84   1
   4   4  -3 41562.3 2072.24   4
  -4  -4  -2 30616.8 1895.24   7
  -4   4   2 32922.9 2010.61   3
  -4  -4  -2 30054.8 1368.04   1
   4  -4   2 29966.5 2133.30   6
   4   4  -2 27165.3 2046.29   5
  -4  -4  -2 29577.9 1696.54   2
   4  -4   2 30713.0 1833.45   1
   4   4  -2 30071.9 1727.38   4
  -4   4   1 12383.4 565.134   7
  -4  -4  -1 13445.1 1340.20   7
  -4  -4  -1 11633.0 803.458   1
  -4   4   1 13872.0 1394.64   3
   4  -4   1 15597.0 1621.79   6
   4   4  -1 12935.1 1535.11   5
   4  -4   1 12981.5 1214.65   1
  -4  -4  -1 12755.4 1179.22   2
   4   4  -1 11508.8 1125.88   4
  -4  -4   0 50631.6 2437.96   7
  -4   4   0 53026.2 1508.67   7
  -4   4   0 49920.5 2443.98   3
  -4  -4   0 52206.2 1713.21   1
   4  -4   0 51759.9 2746.47   6
   4   4   0 51918.7 2730.32   5
  -4  -4   0 51952.7 2305.32   2
   4  -4   0 54744.1 2415.65   1
   4  -4   0 51107.7 1992.71   4
   4   4   0 53543.3 2344.48   4
  -4  -4   0 49988.0 1233.35   9
  -4   4  -1 8361.10 627.792   7
  -4  -4   1 9510.09 1241.71   7
  -4  -4   1 8336.67 624.584   1
  -4   4  -1 9012.73 1140.97   3
   4  -4  -1 6850.81 1173.12   6
   4   4   1 7555.51 1190.38   5
  -4  -4   1 7990.35 478.396   9
  -4  -4   1 9139.72 648.990   1
  -4  -4   1 7705.27 1046.91   2
   4  -4  -1 7092.52 687.563   4
   4   4   1 10084.6 1080.81   4
   4  -4  -1 9967.98 1095.29   1
  -4  -4   2 25642.0 1761.12   7
  -4   4  -2 27439.0 1205.75   7
  -4   4  -2 26670.0 1675.00   3
  -4  -4   2 25488.8 1057.62   1
   4  -4  -2 26246.4 1981.13   6
  -4  -4   2 26014.2 1697.78   2
   4  -4  -2 22803.7 1132.71   4
   4  -4  -2 26634.4 1638.28   1
   4   4   2 29993.0 1736.26   4
  -4  -4   2 28665.6 1135.25   1
  -4  -4   2 26901.2 1019.38   9
  -4   4  -3 34758.5 1465.28   7
  -4   4  -3 32693.4 1804.58   3
  -4  -4   3 32254.3 1137.65   1
   4  -4  -3 32425.4 2215.36   6
  -4  -4   3 33261.5 1921.16   2
  -4  -4   3 31788.8 1178.48   1
   4  -4  -3 29659.2 1174.41   4
   4  -4  -3 34064.1 1853.32   1
   4   4   3 31619.9 1839.73   4
  -4  -4   3 30116.2 1195.61   9
  -4   4  -4 12916.9 959.209   7
  -4   4  -4 13708.6 1182.08   3
  -4  -4   4 12583.9 653.962   1
   4  -4  -4 13410.2 1483.94   6
   4  -4  -4 13004.4 1165.09   1
  -4  -4   4 12666.4 693.365   1
   4  -4  -4 12547.8 643.324   4
  -4  -4   4 11842.5 804.593   9
  -4  -4   4 13638.5 1293.99   2
   4   4   4 12876.7 1266.75   4
  -4   4  -5 13976.6 1054.55   7
  -4  -4   5 12056.0 622.752   1
  -4   4  -5 12595.8 1108.86   3
   4  -4  -5 12992.7 1563.53   6
  -4  -4   5 14092.7 702.798   1
  -4  -4   5 12667.9 882.023   9
  -4  -4   5 16188.9 1508.01   2
   4  -4  -5 13999.4 1189.66   1
   4   4   5 14913.3 1367.35   4
  -4   4  -6 45721.1 2008.35   3
  -4   4  -6 48620.6 2068.89   7
  -4  -4   6 45780.2 1332.35   1
   4  -4  -6 50809.9 2774.91   6
  -4  -4   6 49550.4 1430.86   1
  -4  -4   6 44552.0 2382.62   2
   4   4   6 49803.2 2406.21   4
   4  -4  -6 49147.7 2176.34   1
  -4   4  -7 15292.0 1115.55   3
  -4   4  -7 18636.8 1348.69   7
  -4  -4   7 15068.2 722.544   1
   4  -4  -7 15176.4 1658.67   6
   4  -4  -7 14973.6 1256.86   1
   4  -4  -7 15430.0 1378.86   9
  -4  -4   7 19037.2 1634.64   2
   4   4   7 15427.1 1425.13   4
  -4   4  -8 18978.3 1410.11   7
  -4  -4   8 18724.9 805.719   1
   4  -4  -8 16386.6 1670.63   6
  -4  -4   8 17742.3 1564.05   2
   4  -4  -8 17609.5 1360.50   1
   4  -4  -8 18152.3 1494.22   9
   4   4   8 18323.0 1517.16   4
  -4   4  -9 26742.6 1744.49   7
  -4  -4   9 26260.9 1006.01   1
   4  -4  -9 25519.9 1799.29   9
  -4  -4   9 25767.5 1952.31   2
   4   4   9 25621.4 1852.67   4
   4  -4  -9 22418.7 1535.51   1
  -4   4 -10 31888.9 1964.51   7
  -4  -4  10 31039.4 1148.23   1
  -4  -4  10 31273.7 2158.04   2
   4  -4 -10 30822.9 2001.99   9
   4   4  10 31836.7 2055.03   4
   4  -4 -10 27633.2 1703.92   1
  -4   4 -11 22502.7 1756.34   7
  -4  -4  11 20169.2 1846.03   2
   4  -4 -11 22698.2 1727.78   9
   4   4  11 22807.2 1865.00   4
   4   4  12 14112.0 1556.34   4
  -4   4 -12 15451.3 1598.30   7
   4  -4 -12 14973.6 1510.25   9
  -4  -4  12 14937.5 1659.59   2
  -4   4 -13 31493.5 2164.85   7
  -4  -4  13 28533.9 2198.40   2
   4  -4 -13 28658.3 2070.68   9
   4   4  13 29583.4 2152.74   4
   4   4  14 7646.12 1341.14   4
  -4   4 -14 9334.43 1376.98   7
   4  -4 -14 8661.59 1389.28   9
  -4  -4  14 8575.81 1554.04   2
  -4   4 -14 7254.64 1159.54   8
   4   4  15 7989.77 1352.06   4
  -4   4 -15 10858.4 1511.21   7
   4  -4 -15 10272.9 1365.23   9
   4   4  15 9812.42 1352.46   1
  -4  -4  15 11254.8 1560.06   2
  -4   4 -15 9665.11 1245.67   8
   4   4  16 15826.5 1785.05   4
  -4   4 -16 16708.4 1813.38   7
   4  -4 -16 11528.5 1546.89   9
   4   4  16 12291.6 1433.61   1
  -4  -4  16 15612.8 1866.18   2
  -4   4 -16 13279.7 1367.92   8
   4   4  17 4877.88 1309.54   4
  -4   4 -17 3677.44 1232.19   7
   4  -4 -17 4552.91 1254.88   9
   4   4  17 4175.96 1101.93   1
  -4  -4  17 4337.10 1302.10   2
  -4   4 -17 6905.94 1123.54   8
   4   4  18 10677.5 1611.53   4
  -4   4 -18 11569.6 1760.69   7
   4  -4 -18 15040.6 1827.83   9
   4   4  18 11672.1 1529.78   1
  -4  -4  18 11804.2 1774.88   2
   4   4  19 3794.19 1215.55   4
  -4   4 -19 3651.87 1192.20   7
   4  -4 -19 4521.46 1402.74   9
   4   4  19 3117.52 1151.95   1
  -4  -4  19 4265.91 1342.77   2
   4   4  20 2516.81 1124.82   4
  -4   4 -20 4815.55 1408.62   7
   4  -4 -20 6386.85 1594.15   9
   4   4  20 1560.03 1086.62   1
  -4  -4  20 3756.31 1444.24   2
   4   4  21 4150.99 1156.94   4
  -4   4 -21 8042.13 1673.48   7
   4  -4 -21 7288.78 1630.31   9
   4   4  21 7220.82 1462.63   1
  -4  -4  21 6215.12 1620.87   2
  -4   4 -22 2769.54 1461.31   7
   4  -4 -22 2074.31 1415.88   9
   4   4  22 1262.76 1136.41   1
  -4  -4  22 548.669 1253.08   2
  -4   4 -23-590.034 1171.17   7
   4   4  23-277.964 937.929   1
   4   5 -23 3297.55 1263.13   5
   4   5 -23 1732.30 1186.52   9
   4   5 -22 1632.76 1206.62   5
   4   5 -22 1824.72 1243.84   9
  -4  -5 -21 1935.78 1117.73   7
  -4   5  21 255.902 1144.71   3
   4  -5  21 1993.16 1273.02   1
   4   5 -21 1134.76 1149.58   5
   4   5 -21 1204.63 1059.67   9
  -4  -5 -20-318.279 1175.33   7
  -4   5  20-150.007 1138.34   3
   4   5 -20-878.666 993.026   5
   4  -5  20-509.817 1055.70   1
   4   5 -20-777.366 973.369   9
  -4  -5 -19-54.3558 953.346   7
  -4   5  19-995.027 1316.17   3
   4   5 -19 3021.81 1294.14   5
   4  -5  19 3332.93 1256.12   1
   4   5 -19 2163.61 1131.48   9
  -4  -5 -18 3830.45 1298.57   7
  -4   5  18 3338.85 1273.29   3
   4   5 -18 5343.90 1329.80   5
   4  -5  18 4404.06 1233.14   1
   4   5 -18 6288.12 1427.73   9
  -4  -5 -17 6779.33 1449.13   7
  -4   5  17 5164.97 1488.70   3
   4   5 -17 6531.28 1412.43   5
   4  -5  17 6219.76 1313.49   1
   4   5 -17 5143.56 1210.12   9
  -4  -5 -16 4598.60 1283.48   7
  -4   5  16 5895.18 1547.24   3
   4   5 -16 4781.14 1410.05   5
   4  -5  16 4672.64 1216.00   1
   4   5 -16 4734.09 1058.97   4
   4   5 -16 4385.28 1163.50   9
  -4  -5 -15 4818.99 1240.69   7
  -4   5  15 4622.81 1450.42   3
   4   5 -15 6368.27 1471.72   5
   4   5 -15 1617.07 894.418   4
   4  -5  15 2966.15 1096.04   1
   4   5 -15 2910.48 976.430   9
  -4  -5 -14 3969.97 1191.24   7
  -4   5  14 3239.28 1200.21   3
   4  -5  14 1179.82 893.555   6
   4   5 -14 3051.76 1312.75   5
   4   5 -14 2554.08 975.603   4
   4  -5  14 5505.01 1301.88   1
   4   5 -14 4084.98 1055.00   9
  -4  -5 -13 23786.6 2008.77   7
   4  -5  13 23894.1 2022.62   6
  -4   5  13 24491.5 2319.12   3
   4  -5  13 24892.1 2219.49   1
   4   5 -13 24347.1 2192.55   5
   4   5 -13 21653.6 1784.21   9
   4   5 -13 20963.5 1853.19   4
  -4  -5 -12 374.333 938.728   7
  -4   5  12 1716.90 1288.93   3
   4  -5  12 1042.29 902.831   6
   4   5 -12 1194.32 1205.67   5
   4   5 -12 1371.99 902.857   4
   4  -5  12-175.276 1019.17   1
   4   5 -12 397.292 697.530   9
  -4  -5 -11 48156.5 2701.91   7
  -4   5  11 46973.7 3074.72   3
   4  -5  11 47901.4 2782.86   6
   4  -5  11 45982.3 2766.20   1
   4   5 -11 47853.9 2899.01   5
   4   5 -11 44546.0 2556.76   4
   4   5 -11 45485.4 2357.57   9
   4  -5  10 46.3438 936.667   1
  -4  -5 -10 1498.90 882.927   7
  -4   5  10 2019.82 1208.20   3
   4  -5  10 1747.15 957.385   6
   4   5 -10 290.719 919.305   5
   4   5 -10 165.019 864.168   4
   4   5 -10 2500.10 800.021   9
   4  -5   9 3139.39 1020.77   1
  -4  -5  -9 3326.18 1090.76   7
  -4   5   9 3234.48 1228.59   3
   4  -5   9 2860.81 1123.96   6
   4   5  -9 5071.82 1387.13   5
   4   5  -9 1837.13 669.419   9
   4   5  -9 3049.06 943.647   4
  -4  -5  -8 5673.63 1165.13   7
   4  -5   8 8116.58 1293.00   1
  -4   5   8 7448.76 1405.54   3
   4  -5   8 7340.55 1320.36   6
   4   5  -8 7846.42 1483.14   5
   4   5  -8 6870.64 1086.89   4
  -4  -5  -7 39500.2 2351.09   7
  -4   5   7 38971.3 2592.40   3
   4  -5   7 38550.9 2519.63   6
   4   5  -7 34108.3 2489.37   5
   4  -5   7 37350.3 2347.33   1
   4   5  -7 38205.2 2251.38   4
  -4  -5  -6 38807.2 2308.17   7
  -4   5   6 42340.5 2642.57   3
   4  -5   6 39763.1 2544.93   6
   4   5  -6 42017.7 2696.34   5
   4  -5   6 40216.1 2451.51   1
   4   5  -6 41566.9 2298.89   4
  -4  -5  -5 67635.6 2983.48   7
  -4   5   5 66618.5 3257.76   3
   4  -5   5 63247.8 3237.71   6
   4   5  -5 67628.0 3405.81   5
   4  -5   5 64664.0 3014.68   1
   4   5  -5 71182.9 2974.27   4
  -4  -5  -5 62825.2 1627.62   9
  -4  -5  -4 12789.6 1347.25   7
  -4   5   4 13731.9 1597.29   3
   4  -5   4 14492.0 1665.76   6
   4  -5   4 12381.1 1397.68   1
   4   5  -4 15331.7 1769.57   5
  -4  -5  -4 13319.3 1192.48   2
  -4  -5  -4 11987.5 578.561   9
   4   5  -4 12829.9 1319.56   4
  -4  -5  -3 3622.19 1020.72   7
  -4   5   3 2983.37 835.814   3
   4  -5   3 3859.08 1198.80   6
   4   5  -3 2135.00 954.192   5
   4  -5   3 4093.54 936.166   1
  -4  -5  -3 4006.32 788.739   2
  -4  -5  -3 3594.58 341.118   9
   4   5  -3 3795.56 967.004   4
  -4  -5  -2 34174.9 2089.22   7
  -4   5   2 37723.1 2303.13   3
   4  -5   2 35149.4 2447.21   6
  -4  -5  -2 34282.5 1881.29   2
   4  -5   2 34901.5 2121.94   1
   4   5  -2 34148.7 2044.48   4
  -4  -5  -1 73124.2 3058.83   7
  -4   5   1 60210.3 1292.57   7
  -4   5   1 67478.9 2987.76   3
   4  -5   1 69755.9 3392.90   6
  -4  -5  -1 68215.3 2706.47   2
   4  -5   1 65293.3 2921.98   1
   4   5  -1 69321.5 2887.93   4
  -4  -5   0 111973. 3980.69   7
  -4   5   0 107714. 2420.47   7
  -4   5   0 104730. 3853.47   3
   4  -5   0 111394. 4396.06   6
  -4  -5   0 111654. 3638.64   2
   4  -5   0 108594. 3879.55   1
   4   5   0 108922. 3806.81   4
  -4  -5   0 105557. 2986.78   1
  -4  -5   1 62927.9 2913.09   7
  -4   5  -1 62528.6 1818.36   7
  -4   5  -1 63739.9 2811.35   3
   4  -5  -1 61054.3 3234.67   6
  -4  -5   1 62553.9 2697.61   2
   4  -5  -1 63373.9 2857.58   1
   4   5   1 60701.4 2741.17   4
  -4  -5   1 65214.7 2140.57   1
  -4   5  -2 37763.9 1459.28   7
  -4   5  -2 34966.4 2022.37   3
   4  -5  -2 36964.3 2539.40   6
  -4  -5   2 37689.4 2085.28   2
   4  -5  -2 33985.5 2073.84   1
   4   5   2 38001.6 2137.15   4
  -4  -5   2 38399.8 1565.87   1
  -4   5  -3 5913.08 682.751   7
  -4  -5   3 5058.60 647.231   1
  -4   5  -3 4150.81 814.204   3
   4  -5  -3 6483.82 1061.64   1
   4  -5  -3 4110.21 1180.42   6
  -4  -5   3 5144.91 1015.50   2
   4   5   3 4723.65 915.419   4
  -4   5  -4 15610.3 1060.01   7
  -4   5  -4 15582.8 1312.19   3
  -4  -5   4 18794.6 1622.74   2
  -4  -5   4 16416.3 1007.18   1
   4  -5  -4 14277.4 1413.10   1
   4   5   4 17798.4 1567.93   4
  -4   5  -5 61348.0 2345.65   7
  -4   5  -5 62288.0 2486.82   3
  -4  -5   5 65375.8 2095.19   1
  -4  -5   5 61836.8 2850.09   2
   4   5   5 63319.1 2912.13   4
   4  -5  -5 60665.4 2756.59   1
  -4   5  -6 35460.8 1775.27   3
  -4   5  -6 36091.5 1834.53   7
  -4  -5   6 38016.2 1519.04   1
  -4  -5   6 33307.0 2138.34   2
   4   5   6 40217.0 2277.16   4
   4  -5  -6 35661.7 2045.33   1
  -4   5  -7 38459.4 1773.38   3
  -4   5  -7 41848.7 2051.67   7
  -4  -5   7 39253.2 1565.07   1
  -4  -5   7 40709.7 2403.92   2
   4   5   7 38379.2 2294.77   4
   4  -5  -7 40253.9 2218.80   1
  -4  -5   8 6595.93 666.015   1
  -4   5  -8 6190.60 732.011   3
  -4   5  -8 9959.81 1159.09   7
   4  -5  -8 6909.73 1118.55   9
   4  -5  -8 6453.98 956.592   1
  -4  -5   8 5761.50 1064.47   2
   4   5   8 9443.68 1344.20   4
  -4   5  -9 1831.60 757.247   7
   4  -5  -9 933.891 700.369   1
   4  -5  -9 1570.18 773.707   9
  -4  -5   9 2728.41 1044.37   2
   4   5   9 1219.17 823.144   4
   4  -5 -10 2422.10 827.328   1
  -4   5 -10 763.138 726.479   7
   4  -5 -10 1668.09 961.024   9
  -4  -5  10 3948.12 1239.18   2
   4   5  10 3785.61 1118.97   4
  -4   5 -11 45910.2 2524.19   7
  -4  -5  11 36942.2 2521.01   2
   4   5  11 37606.1 2413.37   4
   4  -5 -11 44657.6 2528.37   9
   4  -5 -11 39224.4 2235.02   1
  -4   5 -12 3301.48 996.567   7
   4  -5 -12 2941.36 961.740   9
  -4  -5  12 2590.75 1195.02   2
   4   5  12 3032.68 951.703   4
  -4   5 -13 24462.6 2011.82   7
  -4  -5  13 27529.7 2333.60   2
   4   5  13 27610.5 2107.24   4
   4  -5 -13 28684.4 2190.34   9
  -4   5 -14 1182.01 794.790   7
   4  -5 -14 2776.65 1062.55   9
  -4  -5  14 3886.01 1241.41   2
   4   5  14 1358.17 1015.11   4
  -4   5 -15 4943.84 1253.94   7
   4  -5 -15 4564.58 1284.06   9
  -4  -5  15 2534.45 1201.48   2
   4   5  15 3562.14 1208.15   4
  -4   5 -16 4138.96 1344.18   7
   4  -5 -16 5863.54 1395.39   9
  -4  -5  16 6242.43 1345.95   2
   4   5  16 4360.68 1290.93   4
  -4   5 -17 7030.49 1568.90   7
   4  -5 -17 5937.07 1369.39   9
  -4  -5  17 6369.61 1543.83   2
  -4   5 -17 5563.72 1114.58   8
   4   5  17 5742.91 1291.95   4
  -4   5 -18 5852.40 1299.48   7
   4  -5 -18 3826.33 1146.57   9
  -4  -5  18 5395.72 1586.54   2
   4   5  18 4061.40 1203.22   4
   4   5  19 900.602 1225.63   4
  -4   5 -19 1455.59 1261.53   7
   4  -5 -19 2830.21 1201.55   9
  -4  -5  19 1142.19 1201.38   2
   4   5  20-421.109 974.559   4
  -4   5 -20 1398.64 1028.03   7
   4  -5 -20 1740.24 1234.50   9
  -4  -5  20-291.482 980.280   2
   4   5  21 1161.05 1027.82   4
  -4   5 -21-2434.94 1564.89   7
   4  -5 -21-355.706 1192.18   9
  -4  -5  21 808.669 1051.93   2
  -4   5 -22 1106.83 1216.15   7
   4   6 -22 1698.05 1317.30   9
   4   6 -21-21.9178 1081.97   9
  -4  -6 -20 2727.33 1316.09   7
   4   6 -20 1088.25 991.333   9
  -4  -6 -19 2562.39 1148.73   7
  -4   6  19 1365.79 1518.17   3
   4  -6  19 1389.35 1080.77   1
   4   6 -19 4429.11 1394.31   9
  -4  -6 -18 7678.30 1518.92   7
  -4   6  18 10332.9 1864.16   3
   4  -6  18 8918.73 1621.10   1
   4   6 -18 7467.49 1427.52   9
  -4  -6 -17 3174.93 1281.47   7
  -4   6  17 271.230 1201.34   3
   4   6 -17 1721.77 1009.13   4
   4  -6  17 273.132 996.075   1
   4   6 -17 2471.95 1034.83   9
  -4  -6 -16 2510.94 1076.21   7
  -4   6  16 3629.69 1542.88   3
   4   6 -16 4472.75 1214.72   4
   4  -6  16 3227.45 1203.49   1
   4   6 -16 2817.94 1075.15   9
  -4  -6 -15 1852.91 1031.58   7
  -4   6  15 832.174 1161.99   3
   4   6 -15 1724.18 967.413   4
   4  -6  15 2656.09 1346.18   1
   4   6 -15 2710.54 1061.30   9
  -4  -6 -14 3315.66 1137.87   7
  -4   6  14 2417.97 1265.03   3
   4   6 -14 1055.75 973.348   4
   4  -6  14 3715.37 1389.33   1
   4   6 -14 2324.69 977.957   9
  -4  -6 -13 15376.3 1750.07   7
  -4   6  13 13897.9 2047.77   3
   4   6 -13 12434.3 1652.45   4
   4   6 -13 11605.2 1421.38   9
   4  -6  13 12219.3 1797.61   1
   4  -6  12 10110.2 1664.55   1
  -4  -6 -12 9254.45 1499.21   7
  -4   6  12 10140.1 1756.84   3
   4   6 -12 9327.03 1491.33   4
   4  -6  11 14759.5 1730.45   1
  -4  -6 -11 15694.5 1640.52   7
  -4   6  11 14874.4 1973.61   3
   4   6 -11 16753.3 1781.65   4
   4  -6  10 11054.2 1659.88   1
  -4  -6 -10 5807.53 1290.55   7
  -4   6  10 7140.08 1502.96   3
   4   6 -10 7927.16 1396.53   4
  -4  -6  -9 1659.07 858.413   7
   4  -6   9 3740.36 1181.00   1
  -4   6   9 2856.48 1147.21   3
   4   6  -9 2191.00 1021.82   4
  -4  -6  -8 2611.58 921.675   7
   4  -6   8 4467.74 1270.27   1
  -4   6   8 3327.11 1308.05   3
   4   6  -8 3001.89 991.957   4
  -4  -6  -7 8712.50 1345.60   7
   4  -6   7 13821.3 1683.27   1
  -4   6   7 14033.2 1783.67   3
   4   6  -7 10357.0 1400.16   4
  -4  -6  -6 32094.4 2215.25   7
  -4   6   6 28477.2 2320.03   3
   4  -6   6 34428.6 2375.62   1
   4   6  -6 31194.0 2176.26   4
  -4  -6  -5 21118.6 1861.20   7
  -4   6   5 20193.8 1931.08   3
   4  -6   5 21713.6 1934.80   1
   4   6  -5 19807.2 1711.98   4
  -4  -6  -4 9294.91 1289.48   7
  -4   6   4 11125.7 1509.25   3
   4  -6   4 9417.04 1307.65   1
  -4  -6  -4 10066.0 1094.57   2
   4   6  -4 9087.35 1291.00   4
  -4  -6  -3 3814.75 1089.12   7
  -4   6   3 3763.41 967.021   3
   4  -6   3 3492.18 936.747   1
  -4  -6  -3 4250.23 902.236   2
   4   6  -3 3230.64 907.003   4
  -4  -6  -2 12310.3 1509.06   7
  -4   6   2 12486.4 1466.51   3
   4  -6   2 14390.0 1576.61   1
  -4  -6  -2 11261.5 1157.07   2
   4   6  -2 13128.9 1444.82   4
  -4  -6  -1 2350.31 873.384   7
   4  -6   1 2123.77 894.217   1
  -4  -6  -1 2338.12 571.773   1
  -4   6   1 2360.00 971.061   3
  -4  -6  -1 3122.43 780.353   2
   4   6  -1 2924.81 930.829   4
  -4   6   0 30495.0 2048.69   3
  -4  -6   0 27514.3 1787.05   2
   4  -6   0 30891.6 2159.29   1
   4   6   0 32603.2 2172.18   4
  -4  -6   0 30307.2 1601.73   1
   4  -6  -1 1854.57 931.380   1
  -4  -6   1 2407.13 613.584   1
  -4   6  -1 1357.82 752.382   3
  -4  -6   1 1790.66 733.177   2
   4   6   1 1551.96 796.418   4
  -4   6  -2 16152.7 952.474   7
  -4   6  -2 16964.2 1534.10   3
   4  -6  -2 17149.7 1640.32   1
  -4  -6   2 17197.5 1194.92   1
  -4  -6   2 17521.1 1545.21   2
   4   6   2 17362.5 1710.40   4
  -4   6  -3 3138.39 552.971   7
  -4   6  -3 4267.36 911.373   3
  -4  -6   3 5150.19 753.480   1
   4  -6  -3 3270.70 919.973   1
  -4  -6   3 4009.24 880.644   2
   4   6   3 3433.91 1015.54   4
  -4  -6   4 6216.96 779.155   1
  -4   6  -4 6369.74 774.832   7
  -4   6  -4 7928.72 1019.72   3
   4  -6  -4 4852.03 1102.32   1
  -4  -6   4 6706.24 1201.85   2
   4   6   4 6692.37 1133.61   4
  -4   6  -5 20567.2 1373.31   7
  -4   6  -5 20392.4 1454.50   3
  -4  -6   5 21670.2 1775.75   2
  -4  -6   5 18875.5 1245.96   1
   4   6   5 20439.7 1759.20   4
   4  -6  -5 17638.8 1654.26   1
  -4   6  -6 29837.9 1729.17   7
  -4   6  -6 27393.0 1623.90   3
  -4  -6   6 32851.1 1597.51   1
  -4  -6   6 29360.3 2077.61   2
   4   6   6 27462.6 2045.34   4
   4  -6  -6 28331.1 2046.66   1
  -4   6  -7 11712.9 1169.82   7
   4  -6  -7 10609.7 1296.60   1
  -4  -6   7 12305.2 1008.06   1
  -4  -6   7 12017.9 1545.68   2
   4   6   7 12109.7 1576.07   4
  -4   6  -8 3290.46 856.891   7
   4  -6  -8 1853.07 841.356   1
  -4  -6   8 2951.73 1032.88   2
   4   6   8 1629.03 1029.80   4
  -4   6  -9 3698.53 979.711   7
   4  -6  -9 3914.21 1171.30   9
  -4  -6   9 2624.14 1100.73   2
   4  -6  -9 2736.77 935.166   1
   4   6   9 1553.26 859.396   4
  -4   6 -10 8631.08 1243.21   7
   4  -6 -10 8521.88 1276.50   1
   4  -6 -10 12142.1 1527.44   9
  -4  -6  10 8715.08 1483.39   2
   4   6  10 11095.4 1522.32   4
  -4   6 -11 19195.5 1752.19   7
   4  -6 -11 18053.9 1792.02   9
  -4  -6  11 14414.0 1761.33   2
   4  -6 -11 17979.8 1681.61   1
   4   6  11 21198.8 1996.78   4
  -4   6 -12 8872.93 1394.41   7
   4   6  12 10806.3 1591.28   4
   4  -6 -12 9308.74 1343.83   1
   4  -6 -12 11055.0 1600.42   9
  -4  -6  12 9625.85 1627.88   2
   4  -6 -13 12233.1 1462.37   1
  -4   6 -13 11013.7 1511.62   7
   4  -6 -13 12474.9 1613.16   9
  -4  -6  13 11365.3 1752.90   2
   4   6  13 10854.9 1567.72   4
  -4   6 -14 1850.22 973.167   7
   4  -6 -14 2669.99 1130.43   9
  -4  -6  14 2048.11 1094.25   2
   4   6  14 3924.68 1229.20   4
  -4   6 -15 1403.26 1103.02   7
   4  -6 -15 2681.46 1280.91   9
  -4  -6  15 2758.14 1364.45   2
   4   6  15 4883.69 1413.63   4
  -4   6 -16 5416.53 1570.89   7
   4  -6 -16 4472.42 1291.36   9
  -4  -6  16 2868.14 1206.28   2
   4   6  16 1883.05 1085.10   4
  -4   6 -17-573.229 1060.54   7
   4  -6 -17-1383.47 1077.55   9
   4   6  17-106.879 1082.03   4
  -4   6 -18 5915.06 1448.84   7
   4  -6 -18 10077.1 1689.19   9
  -4  -6  18 7541.89 1613.26   2
   4   6  18 5514.48 1407.75   4
  -4   6 -19 2678.52 1304.35   7
   4  -6 -19 2132.33 1338.76   9
  -4  -6  19 358.076 1148.31   2
   4   6  19 2143.87 1212.41   4
  -4   6 -20-712.915 1272.74   7
  -4  -7 -18 2158.36 1216.60   7
   4   7 -18 1093.71 1162.45   4
  -4  -7 -17-670.564 1048.57   7
  -4   7  17-476.102 1242.28   3
   4   7 -17-1566.74 1117.91   4
   4  -7  17-689.602 1357.67   1
  -4  -7 -16 4172.16 1205.27   7
  -4   7  16-698.790 1560.23   3
   4   7 -16 2284.76 1144.25   4
   4  -7  16 2293.73 1359.38   1
  -4  -7 -15-530.740 977.774   7
  -4   7  15 227.656 1248.00   3
   4   7 -15 58.9216 976.855   4
   4  -7  15-1413.09 1407.70   1
  -4  -7 -14 4235.39 1162.78   7
  -4   7  14 4991.92 1695.32   3
   4   7 -14 5162.77 1296.32   4
   4  -7  14 4978.33 1478.04   1
   4  -7  13 3457.37 1309.01   1
  -4  -7 -13 4638.45 1201.63   7
  -4   7  13 3901.18 1427.39   3
   4   7 -13 3010.23 1247.27   4
   4  -7  12 744.548 935.717   1
  -4  -7 -12 2173.68 1097.13   7
  -4   7  12 4009.73 1425.60   3
   4   7 -12 3367.80 1236.28   4
   4  -7  11 4899.38 1295.28   1
  -4  -7 -11 4693.61 1275.66   7
  -4   7  11 5278.28 1561.11   3
   4   7 -11 4475.59 1322.45   4
  -4  -7 -10 9693.87 1445.47   7
   4  -7  10 7475.07 1524.06   1
  -4   7  10 9744.88 1732.14   3
   4   7 -10 8791.30 1581.68   4
  -4  -7  -9 1758.40 1138.06   7
   4  -7   9 95.0681 1065.67   1
  -4   7   9 856.528 1176.40   3
   4   7  -9 424.732 1000.82   4
  -4  -7  -8 10716.3 1536.70   7
   4  -7   8 12516.3 1558.19   1
  -4   7   8 10829.0 1714.81   3
   4   7  -8 7048.25 1376.52   4
  -4  -7  -7 1960.01 910.390   7
  -4   7   7 3396.29 1172.75   3
   4  -7   7 3620.25 1296.07   1
   4   7  -7 3930.80 1062.54   4
  -4  -7  -6 5025.81 1156.29   7
  -4   7   6 6299.94 1424.68   3
   4  -7   6 4926.42 1270.68   1
   4   7  -6 4579.24 1236.33   4
  -4  -7  -5 12441.4 1642.75   7
  -4   7   5 10566.3 1602.47   3
   4  -7   5 9033.84 1466.12   1
   4   7  -5 9037.75 1453.00   4
  -4  -7  -4 15006.5 1671.63   7
  -4   7   4 12651.2 1762.23   3
   4  -7   4 10728.4 1633.52   1
  -4  -7  -4 13425.4 1230.46   2
   4   7  -4 12203.3 1636.04   4
  -4  -7  -3 13189.0 1614.59   7
  -4  -7  -3 12713.0 1224.80   1
  -4   7   3 11026.3 1529.09   3
   4  -7   3 12262.4 1546.90   1
  -4  -7  -3 14992.6 1325.81   2
   4   7  -3 13623.9 1660.82   4
  -4  -7  -2 16042.3 1700.20   7
  -4   7   2 16460.8 1785.79   3
  -4  -7  -2 15772.9 1408.34   2
   4  -7   2 17931.2 1821.91   1
  -4  -7  -2 16852.2 1343.99   1
   4   7  -2 17039.9 1804.40   4
  -4  -7  -1 6037.63 922.290   1
  -4   7   1 8621.14 1284.56   3
  -4  -7  -1 6113.79 1029.81   2
   4   7  -1 7673.10 1321.08   4
   4  -7   1 6101.34 1194.94   1
  -4   7   0 6756.12 1244.14   3
  -4  -7   0 7223.35 980.105   1
  -4  -7   0 7162.88 1088.50   2
   4   7   0 8031.53 1379.39   4
   4  -7   0 7719.11 1320.88   1
   4  -7  -1 4878.89 1211.93   1
  -4   7  -1 5220.88 1081.64   3
  -4  -7   1 5555.37 1026.86   2
   4   7   1 6541.67 1337.33   4
  -4  -7   1 6430.74 959.663   1
   4  -7  -2 15615.9 1690.35   1
  -4   7  -2 16816.6 1573.66   3
  -4  -7   2 17691.4 1373.13   1
  -4  -7   2 17839.8 1610.39   2
   4   7   2 15997.6 1746.79   4
  -4  -7   3 14706.3 1259.82   1
  -4   7  -3 14737.1 1483.81   3
   4  -7  -3 12361.6 1589.59   1
  -4  -7   3 14264.6 1504.28   2
   4   7   3 12224.5 1587.31   4
  -4   7  -4 16396.0 1455.06   3
   4  -7  -4 15391.2 1746.30   1
  -4  -7   4 15291.5 1270.42   1
  -4  -7   4 14949.1 1561.19   2
   4   7   4 16157.2 1747.80   4
   4  -7  -5 10688.8 1472.46   1
  -4  -7   5 12391.5 1454.05   2
   4   7   5 12739.2 1623.22   4
  -4  -7   6 4534.85 1110.37   2
   4  -7  -6 6585.23 1268.19   1
   4   7   6 7565.65 1451.20   4
   4  -7  -7 5939.31 1160.49   1
  -4   7  -7 5831.60 991.616   7
  -4  -7   7 4600.22 1260.82   2
   4   7   7 5281.44 1162.96   4
  -4   7  -8 10669.4 1242.97   7
   4  -7  -8 10903.3 1501.78   1
  -4  -7   8 8073.47 1399.31   2
   4   7   8 9856.17 1558.04   4
  -4   7  -9-834.388 829.677   7
   4  -7  -9 316.945 778.287   1
   4  -7  -9-234.646 981.033   9
  -4  -7   9 1065.09 977.936   2
   4   7   9-943.320 959.572   4
  -4   7 -10 10090.1 1365.23   7
   4  -7 -10 8358.53 1523.69   9
   4  -7 -10 8972.68 1391.32   1
  -4  -7  10 8005.63 1499.13   2
   4   7  10 5678.52 1276.14   4
   4  -7 -11 2172.62 988.601   1
  -4   7 -11 5061.41 1135.77   7
   4  -7 -11 1804.54 1027.53   9
  -4  -7  11 3017.33 1167.22   2
   4   7  11 3978.01 1220.18   4
  -4   7 -12 3612.68 1112.99   7
   4  -7 -12 793.014 962.057   1
   4  -7 -12 535.356 1151.72   9
  -4  -7  12 2511.14 1035.52   2
   4   7  12 2203.09 1124.52   4
   4  -7 -13 2879.91 1037.34   1
  -4   7 -13 4709.47 1365.49   7
   4  -7 -13 2614.98 1123.55   9
  -4  -7  13 4989.72 1338.73   2
   4   7  13 2065.99 1147.56   4
  -4   7 -14 5312.84 1426.80   7
   4  -7 -14 3434.06 1110.30   1
   4  -7 -14 1504.78 1185.12   9
  -4  -7  14 4656.02 1479.12   2
   4   7  14 2740.80 1265.42   4
  -4   7 -15-1132.95 1147.40   7
   4  -7 -15 18.5046 957.493   1
   4  -7 -15-329.762 1266.99   9
  -4  -7  15-715.030 1023.60   2
   4   7  15 1300.22 1216.87   4
  -4   7 -16 1103.50 1090.63   7
   4  -7 -16 1446.11 1209.97   9
  -4  -7  16 1633.10 1308.32   2
   4  -7 -16 2335.01 1058.32   1
   4   7  16 3330.31 1240.03   4
  -4   7 -17 894.996 1237.80   7
   4  -7 -17-131.837 991.927   9
  -4  -7  17-659.230 1218.06   2
   4   7  17-804.245 1181.39   4
  -4   7 -18-238.136 1095.93   7
  -4   7 -19 3572.08 1464.54   7
   4   8 -17-55.6257 1256.29   4
   4   8 -16-1218.38 1465.22   4
  -4  -8 -15 3483.60 1311.69   7
   4   8 -15 3698.83 1300.61   4
  -4  -8 -14 2406.23 1210.80   7
  -4   8  14 690.826 1477.10   3
   4   8 -14 2429.88 1323.54   4
   4  -8  14 4180.62 1385.49   1
   4  -8  13 4177.66 1426.33   1
  -4  -8 -13 2960.84 1199.70   7
  -4   8  13 2414.71 1533.26   3
   4   8 -13 3976.72 1381.87   4
   4  -8  12 2548.09 1325.24   1
  -4  -8 -12 1058.42 893.357   7
  -4   8  12 2586.76 1331.49   3
   4   8 -12 709.479 1005.96   4
  -4  -8 -11 1735.90 1092.21   7
   4  -8  11 2100.84 1364.35   1
  -4   8  11 1228.11 1159.91   3
   4   8 -11 1149.34 1256.32   4
  -4  -8 -10 2640.35 1243.15   7
   4  -8  10 1933.26 1328.66   1
  -4   8  10 5623.77 1587.26   3
   4   8 -10 2453.71 1141.56   4
  -4  -8  -9 5889.94 1251.55   7
   4  -8   9 4089.81 1227.10   1
  -4   8   9 7914.82 1828.46   3
   4   8  -9 5839.33 1494.96   4
  -4  -8  -8 12609.1 1794.17   7
   4  -8   8 13532.9 1821.31   1
  -4   8   8 8246.78 1752.67   3
   4   8  -8 10636.9 1670.72   4
  -4  -8  -7 3985.89 1189.70   7
  -4   8   7 717.329 969.486   3
   4  -8   7 1427.26 1187.12   1
   4   8  -7 1945.86 1078.36   4
  -4  -8  -6 3465.82 1164.12   7
  -4   8   6 4415.56 1428.25   3
   4  -8   6 3778.13 1384.05   1
   4   8  -6 2748.09 1279.25   4
  -4  -8  -5 3242.49 1293.50   7
  -4   8   5 1144.41 1117.15   3
   4  -8   5 4014.11 1268.27   1
   4   8  -5 2791.30 1231.52   4
  -4   8   4 4520.07 1417.90   3
   4  -8   4 2212.90 1102.11   1
   4   8  -4 2804.00 1161.85   4
  -4  -8  -4 2125.78 825.781   1
  -4   8   3 13735.3 1771.50   3
  -4  -8  -3 17026.4 1515.28   1
   4  -8   3 16389.5 1914.61   1
  -4  -8  -3 14698.1 1354.08   2
   4   8  -3 11398.3 1668.93   4
  -4   8   2 4440.05 1183.15   3
  -4  -8  -2 3706.61 871.884   2
   4  -8   2 5043.05 1455.11   1
   4   8  -2 3016.86 1193.74   4
  -4  -8  -2 3682.83 887.164   1
  -4   8   1 6320.99 1279.31   3
  -4  -8  -1 4075.91 886.600   1
  -4  -8  -1 5066.90 991.726   2
   4   8  -1 5138.63 1231.70   4
   4  -8   1 7147.15 1466.75   1
  -4  -8   0 716.581 619.217   1
  -4   8   0-329.937 836.133   3
  -4  -8   0-1249.44 801.578   2
   4   8   0-530.041 1014.56   4
   4  -8   0 62.9034 975.486   1
   4  -8  -1 4130.55 1228.93   1
  -4   8  -1 6881.01 1303.65   3
  -4  -8   1 6631.03 1026.29   1
  -4  -8   1 4919.90 1032.78   2
   4   8   1 4539.78 1236.72   4
   4  -8  -2 1054.70 859.686   1
  -4   8  -2 3772.33 1009.30   3
  -4  -8   2 3244.03 870.685   1
  -4  -8   2 2749.52 1007.21   2
   4   8   2 4033.61 1294.34   4
   4  -8  -3 14141.7 1785.14   1
  -4  -8   3 12424.7 1498.98   2
   4   8   3 12448.5 1680.75   4
   4  -8  -4 4314.64 1223.41   1
  -4  -8   4 2989.31 1011.07   2
   4   8   4 1836.50 980.087   4
   4  -8  -5 1229.16 979.326   1
  -4  -8   5 2967.13 1077.55   2
   4   8   5 1609.28 1222.72   4
   4  -8  -6 3368.06 1172.26   1
  -4  -8   6 4416.70 1323.41   2
   4   8   6 6284.34 1517.54   4
  -4  -8   7 1575.57 1019.09   2
   4  -8  -7 1478.83 1062.76   1
   4   8   7-32.4922 1007.90   4
   4  -8  -8 15093.3 1869.35   1
  -4  -8   8 10983.4 1613.58   2
   4   8   8 15546.2 1892.61   4
   4  -8  -9 6036.50 1410.79   1
   4  -8  -9 6761.44 1574.51   9
  -4  -8   9 5047.25 1132.58   2
   4   8   9 7000.26 1544.17   4
   4  -8 -10 1718.18 1067.53   1
   4  -8 -10 2898.48 1212.36   9
  -4  -8  10 1655.80 1039.12   2
   4   8  10 1783.16 1042.72   4
   4  -8 -11 629.612 1019.63   1
   4  -8 -11 1552.39 1124.95   9
  -4  -8  11 583.159 973.077   2
   4   8  11 2969.00 1151.92   4
   4  -8 -12-38.2686 1241.26   9
   4  -8 -12 3296.70 1177.08   1
  -4  -8  12 940.000 975.590   2
   4   8  12 1926.05 1117.72   4
   4  -8 -13 2065.49 1102.15   1
   4  -8 -13 3334.29 1290.85   9
  -4  -8  13 2950.82 1287.56   2
   4   8  13 4039.67 1261.15   4
   4  -8 -14 1070.63 1034.52   1
   4  -8 -14 2606.98 1144.27   9
  -4  -8  14 2441.66 1396.66   2
   4  -8 -15 4370.13 1312.38   1
   4  -8 -16 1247.71 982.432   1
  -4   8 -17 3063.27 1301.44   7
   4  -8 -17 1252.56 1065.60   1
  -4  -9 -11 2616.31 1295.31   7
   4   9 -11 1283.98 1159.13   4
  -4  -9 -10-292.409 1022.44   7
  -4   9  10-4.92282 1402.79   3
   4   9 -10 1657.48 1478.56   4
  -4  -9  -9 2346.55 1163.74   7
   4  -9   9 1698.15 1341.48   1
  -4   9   9 6088.10 1745.53   3
   4   9  -9 4827.18 1408.24   4
  -4  -9  -8 13010.7 1823.54   7
   4  -9   8 10593.6 1854.47   1
  -4   9   8 10501.1 1993.93   3
   4   9  -8 11798.2 1919.30   4
  -4   9   7 7598.72 1709.69   3
   4  -9   7 5689.68 1600.93   1
   4   9  -7 4835.70 1498.53   4
  -4  -9  -6 1010.41 884.198   1
  -4   9   6 437.050 1105.48   3
   4  -9   6-46.9417 1285.47   1
   4   9  -6-1052.03 1317.37   4
  -4   9   5 6102.61 1621.35   3
   4  -9   5 8166.13 1714.15   1
  -4  -9  -5 4962.80 1124.98   1
   4   9  -5 5624.38 1354.72   4
  -4  -9  -4 4291.21 1064.12   1
  -4   9   4 5358.50 1457.44   3
   4  -9   4 5406.84 1514.98   1
   4   9  -4 6328.84 1527.74   4
  -4   9   3 10446.1 1758.92   3
   4  -9   3 7355.10 1634.79   1
  -4  -9  -3 9517.10 1341.72   1
   4   9  -3 6309.95 1554.92   4
  -4   9   2 5288.66 1470.05   3
  -4  -9  -2 4240.42 1026.92   1
   4  -9   2 4998.37 1446.53   1
   4   9  -2 5103.73 1514.58   4
  -4   9   1 5633.64 1374.28   3
   4  -9   1 5514.01 1420.21   1
   4   9  -1 6339.89 1570.66   4
  -4   9   0 2705.95 1117.72   3
   4   9   0 1715.75 1202.44   4
   4  -9   0 3538.27 1314.72   1
   4  -9  -1 5042.77 1400.03   1
  -4  -9   1 6293.67 1148.26   2
   4   9   1 4903.42 1342.66   4
   4  -9  -2 5682.80 1491.99   1
  -4  -9   2 4043.96 1059.68   2
   4   9   2 7210.18 1438.58   4
   4  -9  -3 7292.49 1628.19   1
  -4  -9   3 7971.62 1297.08   2
   4   9   3 8048.85 1696.45   4
   4  -9  -4 7742.42 1645.31   1
  -4  -9   4 6375.78 1242.33   2
   4   9   4 5894.50 1536.11   4
   4  -9  -5 6969.46 1534.99   1
  -4  -9   5 6818.29 1342.46   2
   4   9   5 6999.59 1416.10   4
   4  -9  -6-490.571 955.834   1
  -4  -9   6-887.253 934.558   2
   4   9   6-1884.91 1365.92   4
   4  -9  -7 7803.76 1674.14   1
  -4  -9   7 6382.06 1410.83   2
   4   9   7 4699.00 1345.50   4
  -4  -9   8 8772.11 1481.51   2
   4   9   8 10615.4 1711.22   4
   4  -9  -9 5630.04 1583.23   1
   4  -9  -9 3181.13 1433.18   9
  -4  -9   9 3672.75 1372.34   2
   4  -9 -10-1745.99 1323.39   1
  -4  -9  10 4175.47 1380.52   2
   4  -9 -11 807.163 1158.12   1
  -4  -9  11 4118.44 1438.31   2
   4  -9 -12 246.846 937.072   1
  -4  10   6 3567.06 1517.08   3
  -4  10   5 1835.42 1206.02   3
  -4  10   4 4954.84 1632.86   3
  -4  10   3-1794.79 1220.64   3
  -4 -10   7-2208.86 1251.71   2
  -4 -10   8-1101.81 1039.64   2
   5   0   0-270.011 379.872   4
  -5   0   0-556.924 721.854   8
   5   0   0 58.9832 154.798   1
  -5   0   0-461.862 557.253   7
   5   0   0-52.9244 856.771   6
   5   0   0-377.916 715.777   5
   5   0   0 36.9104 179.143   9
   5   0   0 31.4134 180.295   9
  -5   0   1 45338.5 1941.83   7
  -5   0  -1 45728.0 2018.41   7
   5   0   1 43811.1 1322.25   1
   5   0  -1 41196.3 2362.91   6
   5   0  -1 48341.2 2438.70   5
   5   0   1 49749.9 2386.96   5
   5   0  -1 43761.1 1649.55   4
   5   0   1 44312.2 1788.75   4
   5   0   1 44060.9 1115.61   9
   5   0  -1 45877.3 1327.25   9
   5   0   1 39416.2 1165.13   9
  -5   0  -1 43224.7 1370.30   1
  -5   0   1 45373.3 2399.23   8
  -5   0  -1 48409.3 2454.95   8
  -5   0   2 19921.0 1298.80   7
  -5   0  -2 23214.0 1460.83   7
   5   0   2 22934.7 995.512   1
   5   0  -2 23877.9 1819.79   6
   5   0  -2 24731.8 1774.07   5
   5   0   2 23047.3 1658.14   5
   5   0  -2 23587.8 1118.11   4
  -5   0  -2 20993.4 1008.53   1
   5   0  -2 23896.4 975.665   9
   5   0   2 23368.3 1305.33   4
   5   0   2 19705.4 636.483   9
  -5   0   2 22417.0 1718.39   8
  -5   0  -2 26190.3 1874.58   8
  -5   0   3 93300.6 2981.74   7
  -5   0  -3 94189.6 3166.31   7
  -5   0   3 94585.6 3789.57   3
   5   0   3 94519.7 2518.38   1
   5   0  -3 96799.5 3678.67   6
   5   0  -3 97820.6 3673.54   5
   5   0   3 95302.0 3393.40   5
  -5   0  -3 95717.7 2714.72   1
   5   0  -3 89822.1 2465.42   4
   5   0  -3 92754.9 2445.73   9
   5   0   3 98059.2 2995.18   4
  -5   0   3 94073.1 3550.75   8
  -5   0  -4 24494.1 1558.31   7
  -5   0   4 25368.3 1970.18   3
   5   0   4 23455.2 1173.29   1
   5   0  -4 24040.3 1818.77   6
   5   0  -4 23305.2 1819.23   5
   5   0   4 22749.1 1568.64   5
  -5   0   4 23899.1 1656.75   2
  -5   0  -4 23928.7 1298.24   1
   5   0  -4 21815.1 1004.74   4
   5   0  -4 21755.3 1094.78   9
   5   0   4 25594.2 1469.53   4
  -5   0   4 25764.6 1800.22   8
  -5   0  -5 38408.7 1951.76   7
  -5   0   5 38553.4 2394.18   3
   5   0   5 40370.0 1633.49   1
   5   0  -5 38733.0 2254.13   6
   5   0  -5 42805.6 2383.14   5
   5   0   5 40924.5 2023.87   5
  -5   0   5 38003.6 2069.05   2
   5   0  -5 36431.6 1249.82   4
   5   0   5 33386.3 815.436   9
   5   0  -5 37693.1 1506.01   9
   5   0   5 39017.2 1880.43   4
  -5   0  -6 2108.89 707.242   7
  -5   0   6 2741.16 1087.90   3
   5   0   6 2096.69 575.444   1
   5   0  -6 2686.22 862.360   6
   5   0  -6 1391.91 854.412   5
   5   0   6 1508.82 623.646   5
  -5   0   6 1860.39 897.292   2
   5   0  -6 1884.79 511.580   9
   5   0  -6 1990.36 307.747   4
  -5   0  -7 2348.44 788.515   7
  -5   0   7 1956.92 999.011   3
   5   0   7 2266.47 624.567   1
   5   0  -7 1959.71 845.143   6
   5   0  -7 1787.63 840.419   5
   5   0   7 2774.02 742.286   5
  -5   0   7 2046.32 848.226   2
   5   0  -7 2096.07 272.695   4
   5   0  -7 2387.22 613.490   9
  -5   0  -8 45557.5 2315.59   7
  -5   0   8 47867.7 2737.71   3
   5   0   8 46086.2 2041.50   1
   5   0  -8 45374.7 2410.45   6
   5   0  -8 46754.9 2630.79   5
   5   0   8 43302.2 2022.69   5
  -5   0   8 44247.9 2318.14   2
   5   0  -8 46618.2 1963.75   9
  -5   0  -9 14404.7 1378.43   7
  -5   0   9 12974.3 1622.47   3
   5   0   9 13404.1 1185.86   1
   5   0  -9 14031.8 1421.55   6
   5   0  -9 16893.2 1731.46   5
   5   0   9 11797.1 1032.51   5
   5   0  -9 14447.3 1169.38   9
  -5   0   9 13240.9 1351.59   2
  -5   0 -10 9602.18 1194.61   7
  -5   0  10 9182.30 1471.84   3
   5   0  10 7879.81 1008.54   1
   5   0 -10 8192.00 1160.93   6
   5   0 -10 9900.75 1490.97   5
   5   0  10 8547.75 906.078   5
  -5   0  10 6610.83 1117.56   2
   5   0 -10 8687.85 983.401   9
  -5   0 -11-1257.92 956.612   7
  -5   0  11 1347.61 933.919   3
   5   0  11-611.442 708.686   1
   5   0 -11 202.575 707.493   6
   5   0 -11 354.492 895.623   5
   5   0  11 375.466 432.060   5
  -5   0  11 206.978 706.846   2
   5   0 -11-223.043 605.245   9
  -5   0 -12 862.136 947.488   7
  -5   0  12 578.307 1052.82   3
   5   0  12-240.634 650.613   1
   5   0  12 464.153 951.689   6
   5   0 -12-1154.09 819.369   6
   5   0 -12 128.106 653.311   9
   5   0 -12-442.705 875.006   5
  -5   0  12 1034.95 727.607   2
  -5   0 -13 18629.3 1714.71   7
  -5   0  13 19226.1 1950.99   3
   5   0  13 21832.2 1688.02   1
   5   0  13 22776.8 1899.42   6
   5   0 -13 17179.3 1543.47   6
   5   0 -13 21680.7 2043.11   5
  -5   0  13 24918.6 1860.98   2
   5   0 -13 22730.3 1681.76   9
  -5   0 -14 25705.4 2061.86   7
  -5   0  14 22853.3 2049.00   3
   5   0  14 27189.8 1920.78   1
   5   0  14 26355.5 2055.39   6
   5   0 -14 26740.5 1873.76   6
   5   0 -14 27162.7 2215.21   5
  -5   0  14 32056.1 2121.30   2
   5   0 -14 26759.5 1894.84   9
  -5   0 -15 3100.66 1175.91   7
   5   0  15 2721.46 900.869   1
  -5   0  15 1867.08 1102.97   3
   5   0  15 1648.93 904.533   6
   5   0 -15 3604.03 912.807   6
   5   0 -15-817.298 1191.52   5
  -5   0  15 1710.92 934.903   2
   5   0 -15 2290.86 864.209   9
  -5   0 -16 13278.5 1637.79   7
   5   0  16 13481.1 1578.73   1
  -5   0  16 12753.5 1701.27   3
   5   0  16 15304.5 1616.92   6
   5   0 -16 13195.7 1671.78   5
  -5   0  16 12220.4 1462.05   2
   5   0 -16 13144.5 1491.46   9
  -5   0 -17-190.169 1014.45   7
   5   0  17 1372.74 1015.79   1
  -5   0  17-615.579 1134.26   3
   5   0  17-816.993 987.018   6
   5   0 -17-1678.20 1113.88   5
  -5   0  17 1149.97 975.981   2
   5   0 -17-370.715 858.183   9
   5   0  18-391.494 1056.08   1
  -5   0 -18 380.297 978.983   7
  -5   0  18-1001.37 1140.16   3
   5   0  18 1001.18 924.164   6
   5   0 -18-728.139 1114.98   5
  -5   0  18-152.177 894.753   2
   5   0 -18-1531.10 1064.74   9
   5   0  19 12649.1 1668.19   1
  -5   0 -19 12660.7 1856.72   7
  -5   0  19 13245.3 1756.23   3
   5   0  19 13019.1 1563.02   6
   5   0 -19 11402.0 1774.91   5
  -5   0  19 10433.7 1507.62   2
   5   0 -19 15587.5 1792.91   9
   5   0  20 4384.61 1245.17   1
  -5   0 -20 5061.22 1483.03   7
  -5   0  20 3528.59 1275.60   3
   5   0  20 4263.70 987.641   6
   5   0 -20 4821.80 1314.81   5
  -5   0  20 3290.54 1097.95   2
   5   0 -20 6800.55 1348.25   9
   5   0  21 9069.06 1506.07   1
  -5   0 -21 12340.7 1882.23   7
  -5   0  21 11876.5 1791.75   3
   5   0 -21 8746.47 1532.96   5
  -5   0  21 7247.52 1357.75   2
   5   0 -21 10830.6 1625.58   9
   5   0  22 5788.27 1333.76   1
  -5   0 -22 2621.19 1356.69   7
  -5   0  22 8580.62 1536.48   3
   5   0 -22 3782.44 1240.86   5
  -5   0  22 6894.79 1374.04   2
   5   0 -22 8885.06 1587.70   9
   5   0  23 834.147 1045.09   1
  -5   0  23-11.1836 1058.24   3
   5   0 -23 1533.07 1066.49   5
  -5   0  23-496.776 1032.38   2
   5   0 -23 3017.15 1307.55   9
  -5   0  24 3294.77 1422.43   3
   5   0 -24 264.573 1135.07   5
  -5   0  24-1006.80 1067.13   2
   5   0 -24 1638.96 1338.75   9
   5   1 -24 596.937 1002.71   5
   5   1 -24 599.060 1111.71   9
   5  -1  23 2024.05 1296.18   1
  -5   1  23-1811.59 1338.09   3
   5   1 -23-1424.94 1166.95   5
   5   1 -23 1019.29 1198.72   9
  -5  -1 -22-1948.92 1219.07   7
   5  -1  22-21.7415 1174.70   1
  -5   1  22-360.784 931.704   3
   5   1 -22 1066.44 1044.64   5
  -5   1  22-144.277 986.181   2
  -5  -1 -21 1257.89 1264.94   7
   5  -1  21 3522.87 1297.60   1
  -5   1  21 463.305 1158.29   3
   5   1 -21 697.851 954.363   5
  -5   1  21-457.725 945.002   2
   5   1 -21-497.775 1169.70   9
  -5  -1 -20-1011.66 1197.05   7
   5  -1  20-1390.70 1132.63   1
  -5   1  20 256.684 858.502   3
   5  -1  20-111.795 889.103   6
   5   1 -20 1482.83 1123.09   5
  -5   1  20 31.8242 879.774   2
   5   1 -20-450.438 1148.64   9
  -5  -1 -19 4588.27 1293.91   7
  -5   1  19 4105.92 1337.56   3
   5  -1  19 4288.51 1124.26   1
   5  -1  19 4811.32 1124.15   6
   5   1 -19 3721.29 1356.94   5
  -5   1  19 4684.94 1082.72   2
   5   1 -19 7302.59 1368.09   9
  -5  -1 -18-727.285 1050.25   7
  -5   1  18 2058.41 1262.42   3
   5  -1  18 658.875 987.282   1
   5  -1  18-660.333 989.310   6
   5   1 -18 120.338 1155.16   5
  -5   1  18-936.989 943.582   2
   5   1 -18 1161.23 922.098   9
  -5  -1 -17 1362.93 1117.37   7
  -5   1  17 1273.26 1111.73   3
   5  -1  17 387.900 962.284   1
   5  -1  17 759.531 834.322   6
   5   1 -17-110.968 853.010   5
  -5   1  17 744.466 788.843   2
   5   1 -17-372.908 809.838   9
  -5  -1 -16 13344.6 1692.82   7
  -5   1  16 14149.3 1761.05   3
   5  -1  16 13759.3 1671.78   1
   5  -1  16 10953.0 1442.18   6
   5   1 -16 13103.3 1777.54   5
  -5   1  16 12314.2 1397.46   2
   5   1 -16 12383.6 1510.98   9
  -5  -1 -15 8151.92 1323.38   7
  -5   1  15 6838.02 1309.81   3
   5  -1  15 8473.93 1359.24   1
   5  -1  15 7641.89 1252.90   6
   5   1 -15 8090.80 1106.47   6
   5   1 -15 9151.75 1453.49   5
  -5   1  15 6934.00 1058.01   2
   5   1 -15 7269.67 1188.72   9
  -5  -1 -14 12336.6 1558.47   7
  -5   1  14 12566.7 1618.68   3
   5  -1  14 12165.3 1448.20   1
   5  -1  14 11744.3 1478.84   6
   5   1 -14 12591.5 1301.00   6
   5   1 -14 13608.1 1704.72   5
  -5   1  14 11114.4 1327.34   2
   5   1 -14 11386.5 1319.67   9
  -5   1  13 18913.4 1571.15   8
  -5  -1 -13 19978.5 1798.80   7
  -5   1  13 20487.6 2000.66   3
   5  -1  13 20510.9 1818.13   6
   5  -1  13 21869.2 1772.66   1
   5   1 -13 20919.3 1599.71   6
   5   1 -13 18968.0 1884.33   5
  -5   1  13 19858.2 1626.61   2
   5   1 -13 20095.7 1555.57   9
  -5   1  12 1425.90 807.252   8
  -5  -1 -12 1789.68 789.488   7
  -5   1  12 856.284 1006.17   3
   5  -1  12 1514.43 938.294   6
   5   1 -12 2402.49 825.238   6
   5  -1  12 2225.59 863.687   1
   5   1 -12 1742.80 946.709   5
  -5   1  12 2624.94 828.305   2
   5   1 -12 2330.00 732.128   9
  -5  -1 -11 26096.2 1922.23   7
  -5   1  11 18354.1 1856.21   3
   5  -1  11 25248.8 1954.15   6
   5   1 -11 22420.1 1700.90   6
   5  -1  11 25082.9 1733.75   1
   5   1 -11 27732.8 2127.58   5
  -5   1  11 23095.1 1704.46   2
   5   1 -11 24834.8 1598.42   9
  -5   1  11 23008.5 1736.24   8
  -5  -1 -10 16541.7 1556.32   7
  -5   1  10 20640.4 1946.13   3
   5   1 -10 19348.8 1584.60   6
   5  -1  10 23735.7 1918.70   6
   5  -1  10 17389.5 1444.71   1
   5   1 -10 19553.1 1804.78   5
   5  -1  10 16437.0 1104.67   5
  -5   1  10 20029.8 1555.47   2
   5   1 -10 20516.7 1417.70   9
  -5   1  10 18783.1 1585.65   8
  -5  -1  -9 24259.1 1815.23   7
  -5   1   9 24770.8 2067.14   3
   5   1  -9 22851.5 1766.11   6
   5  -1   9 25308.3 1969.63   6
   5  -1   9 24773.6 1648.66   1
   5   1  -9 25056.7 2009.06   5
   5  -1   9 22038.9 1344.72   5
  -5   1   9 22839.4 1634.54   2
   5   1  -9 23039.7 1407.64   9
  -5   1   9 21671.6 1704.60   8
  -5  -1  -8 46040.2 2373.72   7
  -5   1   8 45975.9 2731.94   3
   5   1  -8 46580.1 2452.29   6
   5  -1   8 52859.8 2775.09   6
   5  -1   8 44455.7 2146.78   1
   5   1  -8 45116.4 2649.33   5
   5  -1   8 42876.7 1941.54   5
  -5   1   8 48949.1 2350.69   2
   5   1  -8 44712.4 1638.18   4
   5   1  -8 47138.9 1944.35   9
  -5   1   8 46200.9 2437.43   8
  -5  -1  -7 12920.6 1351.28   7
  -5   1   7 11874.6 1445.57   3
   5   1  -7 12207.7 1384.99   6
   5  -1   7 13532.8 1555.81   6
   5  -1   7 11757.4 1087.72   1
   5   1  -7 11769.0 1496.07   5
   5  -1   7 11268.3 1044.27   5
   5   1  -7 11008.0 808.332   4
  -5   1   7 11575.1 1208.04   2
   5   1  -7 12011.8 947.520   9
  -5   1   7 11150.7 1290.57   8
  -5  -1  -6 25270.2 1723.72   7
  -5   1   6 23386.4 1964.44   3
   5  -1   6 26685.6 2022.59   6
   5  -1   6 25158.7 1452.87   1
   5  -1   6 26358.6 1596.29   5
   5   1  -6 25770.3 1968.92   5
  -5   1   6 25464.2 1697.82   2
   5   1  -6 27021.6 1260.47   4
   5   1  -6 26559.3 1286.88   9
  -5   1   6 27326.2 1941.69   8
  -5  -1  -5 36747.0 2014.40   7
  -5   1   5 39452.6 2414.08   3
   5  -1   5 39607.5 2371.37   6
   5  -1   5 36964.2 1717.94   1
   5  -1   5 35436.8 1896.23   5
   5   1  -5 40174.6 2424.20   5
   5   1  -5 36434.1 1503.55   4
   5   1  -5 38029.8 1452.43   9
  -5   1   5 40206.8 2244.92   8
  -5  -1  -4 22148.7 1560.71   7
  -5   1   4 22775.6 1861.66   3
   5  -1   4 23315.5 1876.07   6
   5  -1   4 25243.6 1337.99   1
   5  -1   4 21802.0 1534.90   5
   5   1  -4 27156.1 1978.90   5
  -5  -1  -4 22678.9 1211.10   1
   5   1  -4 24289.4 1211.57   4
   5   1  -4 22213.5 997.619   9
  -5   1   4 26180.2 1884.18   8
  -5   1   3 39252.9 1657.64   7
  -5  -1  -3 36519.2 1947.27   7
  -5   1   3 39740.7 2399.02   3
   5  -1   3 42918.3 2435.97   6
   5  -1   3 39344.8 1614.37   1
   5  -1   3 40306.6 2096.22   5
   5   1  -3 40892.7 2358.22   5
  -5  -1  -3 36475.2 1453.96   1
   5   1  -3 36350.3 1534.38   4
   5   1  -3 37085.4 1198.26   9
  -5   1   3 40763.3 2296.17   8
  -5   1   2 7139.54 732.906   7
  -5  -1  -2 9409.57 1089.01   7
  -5   1   2 6624.05 1090.08   3
   5  -1   2 7492.83 1196.05   6
   5  -1   2 7632.65 1057.01   5
   5   1  -2 6961.42 1145.39   5
   5  -1   2 8616.83 743.704   1
  -5  -1  -2 7632.18 597.188   1
   5   1  -2 7256.99 376.811   9
   5  -1   2 5955.33 596.749   9
   5   1  -2 7873.79 750.324   4
  -5   1   2 8490.40 1220.89   8
  -5   1   1 11532.2 940.173   7
  -5  -1  -1 10917.6 1060.11   7
  -5   1   1 9859.66 1269.73   3
   5  -1   1 12521.1 1419.73   6
   5  -1   1 11621.8 778.819   1
   5  -1   1 11405.4 1244.46   5
   5   1  -1 10429.0 1280.13   5
   5   1  -1 10923.5 916.152   4
   5  -1   1 11252.5 703.466   9
  -5  -1  -1 10983.4 549.317   1
   5  -1   1 11287.2 850.971   4
   5  -1   1 10431.8 762.418   9
  -5   1   1 11424.4 1289.66   8
  -5  -1   0 67093.6 2595.31   7
  -5   1   0 68353.0 2373.76   7
  -5   1   0 67298.6 3066.12   3
   5  -1   0 70619.7 3158.59   6
   5  -1   0 71849.7 2006.47   1
   5   1   0 70476.0 3015.27   5
   5   1   0 69229.5 2364.14   4
   5  -1   0 66077.7 1982.36   9
   5  -1   0 70036.0 2152.95   4
  -5   1   0 71274.9 3095.69   8
  -5  -1   1 11283.4 1121.61   7
  -5   1  -1 10926.4 973.008   7
   5  -1  -1 12394.0 1424.93   6
   5  -1  -1 11808.2 679.684   1
   5  -1  -1 11871.6 797.569   4
   5   1   1 12537.7 1340.93   5
   5  -1  -1 11437.2 777.169   9
   5   1   1 10806.6 944.563   4
  -5   1  -1 15083.3 1505.05   8
  -5   1  -2 14748.4 1100.73   7
  -5  -1   2 11779.8 1063.18   7
   5   1   2 11191.7 620.013   1
   5  -1  -2 12945.9 1475.16   6
   5  -1  -2 12116.0 620.734   1
   5   1   2 11090.0 1267.44   5
   5  -1  -2 11954.3 743.822   4
   5  -1  -2 11856.9 809.433   9
  -5  -1   2 10963.6 1202.03   2
   5   1   2 14052.0 1101.59   4
  -5   1  -2 10453.0 817.826   1
  -5   1  -2 11812.7 1382.41   8
  -5  -1   3 43571.8 2060.00   7
  -5   1  -3 44885.2 1979.44   7
   5   1   3 42749.6 1447.93   1
   5  -1  -3 45490.2 2484.32   6
   5  -1  -3 43861.9 1205.18   1
   5   1   3 44180.7 2298.47   5
  -5  -1   3 42996.8 2253.27   2
   5  -1  -3 44827.6 1383.65   4
   5  -1  -3 43792.7 1656.94   9
   5   1   3 48293.5 2022.27   4
  -5   1  -3 45625.7 2425.41   8
  -5   1  -4 18466.4 1281.83   7
   5   1   4 16018.5 913.005   1
   5  -1  -4 19718.7 1705.46   6
   5  -1  -4 15493.8 563.745   1
   5   1   4 17792.6 1462.59   5
  -5  -1   4 17493.6 1422.08   2
   5  -1  -4 16469.7 681.785   4
   5  -1  -4 17749.4 1069.68   9
   5   1   4 17326.2 1291.88   4
  -5   1  -4 16876.8 1562.08   8
  -5   1  -5 36212.4 1853.02   7
   5   1   5 34375.9 1449.78   1
   5  -1  -5 39290.9 2299.00   6
   5   1   5 35651.7 2024.36   5
  -5  -1   5 35515.2 2047.60   2
   5  -1  -5 30997.9 816.526   4
   5  -1  -5 39166.6 1631.14   9
   5   1   5 38423.6 1903.55   4
  -5   1  -5 35433.8 2169.82   8
  -5   1  -6 22030.3 1509.81   7
   5   1   6 21225.7 1188.71   1
   5  -1  -6 19826.3 1675.71   6
   5   1   6 22579.2 1606.71   5
  -5  -1   6 21551.7 1646.93   2
   5  -1  -6 21809.4 1269.30   9
   5   1   6 21871.5 1494.86   4
  -5   1  -6 21607.8 1716.03   8
   5   1   7 9454.51 1088.72   4
   5   1   7 10115.8 893.528   1
  -5   1  -7 10012.3 1169.68   7
   5  -1  -7 12534.3 1394.19   6
   5   1   7 12213.7 1186.80   5
  -5  -1   7 12771.3 1319.84   2
   5  -1  -7 12235.8 1055.68   9
  -5   1  -7 10823.9 1274.70   8
  -5   1  -8 45946.4 2294.44   7
   5   1   8 46721.7 1991.19   1
   5  -1  -8 47223.1 2497.65   6
   5   1   8 45844.5 2167.44   5
  -5  -1   8 46148.5 2425.48   2
   5  -1  -8 46068.2 2035.95   9
   5   1   8 44996.5 2270.01   4
  -5   1  -8 45751.5 2448.88   8
  -5  -1   9 22552.4 1918.96   3
  -5   1  -9 20624.5 1614.33   7
   5   1   9 22178.1 1405.54   1
   5  -1  -9 23657.3 1848.10   6
   5   1   9 20068.7 1405.65   5
  -5  -1   9 22168.1 1743.65   2
   5  -1  -9 20739.8 1422.68   9
   5   1   9 20882.0 1616.52   4
  -5   1  -9 21552.2 1722.49   8
  -5   1 -10 19829.2 1672.87   8
  -5   1 -10 21480.9 1705.16   7
  -5  -1  10 20383.1 1933.97   3
   5   1  10 16825.9 1336.99   1
   5  -1 -10 21452.2 1721.29   6
   5  -1 -10 16912.7 1354.57   9
   5   1  10 18269.3 1575.85   4
  -5  -1  10 15689.0 1525.26   2
  -5  -1  11 29003.4 2233.34   3
  -5   1 -11 24660.0 1819.09   7
   5   1  11 24404.7 1628.08   1
   5  -1 -11 23894.1 1864.24   6
  -5  -1  11 27938.9 1979.21   2
   5  -1 -11 24897.5 1643.80   9
   5   1  11 24822.5 1849.27   4
   5   1  12 2989.88 736.799   1
  -5   1 -12 3648.23 990.221   7
  -5  -1  12 3837.57 1050.09   3
   5  -1 -12 3603.95 962.004   6
  -5  -1  12 3233.80 1035.86   2
   5  -1 -12 3574.94 839.109   9
  -5   1 -13 18302.5 1734.12   7
  -5  -1  13 19324.6 1931.48   3
   5   1  13 17288.9 1501.92   1
   5  -1 -13 16743.0 1591.77   6
   5  -1 -13 17022.2 1510.50   9
  -5  -1  13 16809.2 1687.25   2
   5   1  14 10706.0 1272.56   1
  -5   1 -14 10258.2 1412.65   7
  -5  -1  14 11704.8 1509.75   3
   5  -1 -14 12459.6 1429.34   6
  -5  -1  14 11922.0 1564.47   2
   5  -1 -14 11308.9 1369.39   9
   5   1  15 5990.60 1170.54   1
  -5   1 -15 6788.87 1352.16   7
  -5  -1  15 7229.21 1354.83   3
   5  -1 -15 5245.11 1058.58   6
  -5  -1  15 3888.67 1111.14   2
   5  -1 -15 4949.12 1005.99   9
   5   1  16 14774.7 1529.99   1
  -5   1 -16 10031.9 1525.96   7
  -5  -1  16 15526.7 1807.38   3
   5  -1 -16 11685.6 1349.11   6
  -5  -1  16 10332.4 1429.36   2
   5  -1 -16 14039.6 1574.80   9
   5   1  17 1044.72 927.984   1
  -5   1 -17 1046.68 1049.39   7
  -5  -1  17 1743.84 1084.31   3
  -5  -1  17 2660.55 1192.13   2
   5  -1 -17 2297.04 1014.42   9
   5   1  18 817.009 928.644   1
  -5   1 -18 683.600 885.306   7
  -5  -1  18 505.423 1038.49   3
   5  -1 -18-394.769 1145.04   5
  -5  -1  18 2.97017 930.122   2
   5  -1 -18 328.005 1006.22   9
   5   1  19 6561.12 1356.02   1
  -5   1 -19 7257.75 1471.07   7
  -5  -1  19 6145.81 1344.18   3
   5   1  19 4576.99 1170.51   6
   5  -1 -19 3612.24 1357.07   5
  -5  -1  19 5091.31 1316.88   2
   5  -1 -19 4776.97 1140.87   9
   5   1  20-735.922 1052.64   1
  -5  -1  20-1666.72 1123.98   3
   5   1  20-2646.85 1137.19   6
   5  -1 -20 207.224 1150.71   5
  -5  -1  20-962.523 1122.31   2
   5  -1 -20-1464.24 1207.72   9
   5   1  21 2599.80 1138.93   1
  -5   1 -21-200.692 1268.70   7
  -5  -1  21 1295.18 1121.07   3
   5  -1 -21 485.987 1136.54   5
  -5  -1  21 475.297 888.714   2
   5  -1 -21-821.789 1068.83   9
   5   1  22 3042.68 1267.80   1
  -5   1 -22-625.895 1311.12   7
  -5  -1  22 1023.37 1011.32   3
   5  -1 -22 3.59568 1217.56   5
  -5  -1  22-1092.56 1094.96   2
   5  -1 -22 1762.45 1297.24   9
   5   1  23 567.324 1178.31   1
  -5  -1  23 2986.32 1339.02   3
   5  -1 -23-421.978 1214.68   5
  -5  -1  23 260.717 948.648   2
   5  -1 -23-933.682 1192.48   9
  -5  -1  24 1176.52 1062.06   3
  -5  -1  24 2151.12 1071.28   2
   5   2 -24 3245.78 1484.64   9
   5   2 -23 2359.52 1206.49   5
   5   2 -23 419.215 1216.00   9
  -5   2  22 3838.60 1480.15   3
   5  -2  22 2981.02 1501.65   1
   5   2 -22 2354.66 1275.73   5
   5   2 -22 1886.50 1059.63   9
  -5  -2 -21-1440.94 1297.57   7
  -5   2  21 124.754 1070.79   3
   5  -2  21 1300.96 1019.24   1
   5   2 -21 1120.47 1131.28   5
   5   2 -21 928.842 1150.20   9
  -5  -2 -20 202.286 1026.47   7
  -5   2  20-736.990 1281.23   3
   5  -2  20-703.115 1072.60   1
   5   2 -20-219.114 1179.12   5
   5   2 -20-383.429 1029.75   9
  -5  -2 -19 7986.35 1521.30   7
  -5   2  19 4009.96 1272.88   3
   5  -2  19 4447.52 1274.26   1
   5  -2  19 5589.62 1147.79   6
   5   2 -19 3617.85 1328.16   5
  -5   2  19 5738.48 1084.99   2
   5   2 -19 4637.42 1247.57   9
  -5  -2 -18 13631.2 1784.35   7
  -5   2  18 16112.3 2108.93   3
   5  -2  18 14489.8 1772.18   1
   5  -2  18 14923.8 1666.95   6
   5   2 -18 14190.6 1856.37   5
  -5   2  18 14916.0 1469.36   2
   5   2 -18 14215.6 1633.38   9
  -5   2  17 13197.3 1387.94   8
  -5  -2 -17 12597.5 1739.88   7
  -5   2  17 15371.2 1941.62   3
   5  -2  17 14380.6 1646.12   6
   5  -2  17 9651.11 1623.80   1
   5   2 -17 12747.0 1768.12   5
  -5   2  17 12413.6 1396.32   2
   5   2 -17 11354.6 1519.71   9
  -5   2  16 16109.6 1501.10   8
  -5  -2 -16 11019.0 1521.35   7
  -5   2  16 15015.3 1903.00   3
   5  -2  16 12124.9 1537.14   6
   5  -2  16 13026.7 1603.00   1
   5   2 -16 14426.8 1780.69   5
  -5   2  16 15559.2 1505.33   2
   5   2 -16 14045.0 1542.30   9
  -5  -2 -15 875.036 1045.09   7
  -5   2  15 1256.78 971.407   3
   5  -2  15 1629.08 935.030   6
   5  -2  15 1611.55 962.735   1
   5   2 -15 1970.51 1070.02   5
  -5   2  15 2628.26 887.319   2
   5   2 -15 1951.58 867.393   9
  -5   2  15 735.139 825.124   8
  -5  -2 -14 3077.82 1164.99   7
  -5   2  14 4640.12 1339.19   3
   5   2 -14 3982.13 873.181   6
   5  -2  14 2396.75 1003.59   6
   5  -2  14 1897.06 883.108   1
   5   2 -14 5693.22 1443.20   5
  -5   2  14 2332.56 815.044   2
   5   2 -14 4687.61 1019.42   9
  -5   2  14 2204.64 838.638   8
  -5  -2 -13 25596.8 2065.59   7
  -5   2  13 28875.9 2409.82   3
   5   2 -13 26201.3 1792.39   6
   5  -2  13 27745.4 2119.37   6
   5  -2  13 24687.0 1910.04   1
   5   2 -13 29703.0 2402.08   5
  -5   2  13 26108.4 1804.58   2
   5   2 -13 25921.2 1799.78   9
  -5   2  13 26234.6 1903.25   8
  -5  -2 -12 7351.89 1185.71   7
  -5   2  12 7261.02 1449.83   3
   5   2 -12 6633.76 1086.72   6
   5  -2  12 9595.55 1415.27   6
   5  -2  12 6874.11 1164.16   1
   5   2 -12 8503.42 1505.61   5
  -5   2  12 6853.23 1090.55   2
   5   2 -12 7184.11 1068.82   9
  -5   2  12 7342.09 1182.56   8
  -5  -2 -11 26031.9 2019.38   7
  -5   2  11 26695.6 2229.14   3
   5   2 -11 23588.9 1754.20   6
   5  -2  11 30684.6 2206.68   6
   5  -2  11 26902.6 1892.30   1
   5   2 -11 26275.4 2221.64   5
  -5   2  11 26017.4 1744.23   2
   5   2 -11 27270.8 1692.36   9
  -5   2  11 28145.6 1966.26   8
  -5  -2 -10 8245.21 1276.59   7
  -5   2  10 6890.89 1426.52   3
   5  -2  10 11453.7 1521.32   6
   5  -2  10 7653.10 788.950   5
   5   2 -10 10180.4 1515.19   5
   5  -2  10 8371.70 1157.16   1
  -5   2  10 10087.4 1173.57   2
   5   2 -10 7113.48 815.171   4
   5   2 -10 8084.64 960.313   9
  -5   2  10 10665.3 1365.35   8
  -5  -2  -9 10818.7 1338.22   7
  -5   2   9 10604.8 1498.23   3
   5  -2   9 10170.0 1317.77   6
   5  -2   9 8589.00 880.832   5
   5   2  -9 9974.21 1528.55   5
   5  -2   9 9635.86 1170.77   1
   5   2  -9 8951.17 894.059   4
   5   2  -9 9280.78 943.282   9
  -5   2   9 9790.20 1320.47   8
  -5  -2  -8 17914.2 1595.30   7
  -5   2   8 18241.6 1890.46   3
   5  -2   8 16654.6 1675.11   6
   5  -2   8 17079.9 1220.82   5
   5   2  -8 15960.1 1622.45   5
   5  -2   8 14400.2 1341.90   1
   5   2  -8 17043.1 1169.50   4
   5   2  -8 17009.4 1163.78   9
  -5   2   8 19267.6 1726.00   8
  -5  -2  -7 22618.1 1724.04   7
  -5   2   7 22081.0 1946.03   3
   5  -2   7 24150.1 2019.93   6
   5  -2   7 24380.5 1612.90   1
   5  -2   7 23411.5 1466.72   5
   5   2  -7 23401.5 2013.91   5
   5   2  -7 21995.2 1315.95   4
   5   2  -7 20552.0 1201.20   9
  -5   2   7 25995.6 1907.76   8
  -5  -2  -6 70562.8 2946.22   7
  -5   2   6 68856.4 3304.01   3
   5  -2   6 66920.4 3208.95   6
   5  -2   6 66188.5 2630.63   1
   5  -2   6 65748.2 2595.62   5
   5   2  -6 65894.3 3156.43   5
   5   2  -6 65974.3 2358.79   4
   5   2  -6 62834.7 2074.01   9
  -5   2   6 62548.8 2960.39   8
  -5  -2  -5 49494.7 2438.03   7
  -5   2   5 51643.0 2839.06   3
   5  -2   5 58613.1 2921.50   6
   5  -2   5 53786.2 2276.41   1
   5   2  -5 54729.9 2862.15   5
   5   2  -5 53051.1 2083.48   4
   5   2  -5 52571.4 1703.07   9
  -5   2   5 53593.5 2723.08   8
  -5   2   4 21598.0 1871.93   3
  -5  -2  -4 19026.3 1492.46   7
   5  -2   4 20186.1 1810.03   6
   5  -2   4 20882.5 1359.88   1
   5   2  -4 21321.6 1821.92   5
   5   2  -4 19976.4 1243.47   4
   5   2  -4 17991.5 794.420   9
  -5   2   4 18190.4 1652.18   8
  -5   2   3 17614.3 994.680   7
  -5  -2  -3 17713.6 1489.74   7
  -5   2   3 16535.0 1643.49   3
   5  -2   3 19406.2 1806.32   6
   5  -2   3 16749.1 1187.27   1
   5   2  -3 20726.6 1778.88   5
   5   2  -3 18835.5 1216.61   4
  -5   2   3 17149.7 1587.18   8
  -5   2   2 77349.1 2332.82   7
  -5  -2  -2 77063.5 3010.32   7
  -5   2   2 78378.8 3377.14   3
   5  -2   2 83964.7 3518.37   6
   5  -2   2 77673.2 2609.88   1
   5   2  -2 82252.6 3441.98   5
   5   2  -2 78941.6 2628.04   4
  -5   2   2 80867.0 3385.27   8
  -5  -2  -1 23418.5 1624.51   7
  -5   2   1 21522.2 1157.14   7
  -5   2   1 21895.0 1783.01   3
   5  -2   1 25334.9 1979.40   6
   5  -2   1 20039.2 1211.18   1
   5   2  -1 25807.8 1896.17   5
  -5  -2  -1 20878.8 796.678   1
   5   2  -1 23683.2 1403.47   4
  -5   2   1 22552.6 1794.09   8
  -5  -2   0 141906. 4273.03   7
  -5   2   0 139852. 3583.90   7
  -5   2   0 142008. 4664.33   3
   5  -2   0 141132. 4780.81   6
   5  -2   0 134637. 3605.03   1
   5   2   0 140156. 4637.42   5
  -5  -2   0 138337. 4330.52   2
   5   2   0 134248. 3861.92   4
  -5   2   0 140287. 4660.39   8
  -5  -2   1 18860.9 1455.24   7
  -5   2  -1 18024.2 1144.82   7
  -5   2  -1 18564.9 1608.33   3
   5  -2  -1 17385.9 1668.51   6
   5  -2  -1 17874.6 1075.07   1
   5   2   1 20253.9 1725.78   5
  -5  -2   1 18681.0 1513.40   2
   5   2   1 18909.9 1308.80   4
   5  -2  -1 17304.3 1094.36   9
   5  -2  -1 17827.8 925.947   4
  -5   2  -1 17854.0 1591.81   8
  -5  -2   2 69309.4 2844.14   7
  -5   2  -2 76543.4 2517.96   7
  -5   2  -2 79429.8 3215.72   3
   5  -2  -2 76892.5 3379.29   6
   5   2   2 72848.7 3131.89   5
   5  -2  -2 69995.4 2258.91   1
  -5  -2   2 76056.6 3057.02   2
   5  -2  -2 72905.6 2410.61   9
   5   2   2 75151.4 2713.46   4
   5  -2  -2 75729.0 1967.66   4
  -5   2  -2 81472.9 3349.46   8
  -5  -2   3 21315.7 1521.72   7
  -5   2  -3 20424.7 1276.32   7
   5  -2  -3 22156.1 1912.89   6
   5   2   3 22269.5 1748.55   5
   5  -2  -3 21621.9 1111.14   1
  -5  -2   3 22384.2 1686.46   2
   5  -2  -3 19852.6 1216.19   9
   5   2   3 21091.8 1408.56   4
   5  -2  -3 19488.3 764.376   4
  -5   2  -3 22025.9 1776.53   8
  -5   2  -4 17820.9 1259.55   7
   5  -2  -4 17259.0 1651.84   6
   5  -2  -4 17838.4 991.558   1
  -5  -2   4 17403.7 1542.40   2
   5   2   4 15448.2 1471.83   5
   5  -2  -4 17161.3 1175.28   9
   5   2   4 16029.6 1301.71   4
  -5   2  -4 17289.3 1648.11   8
  -5   2  -5 52922.9 2195.93   7
   5   2   5 48490.9 1738.95   1
   5  -2  -5 42386.9 2500.51   6
   5   2   5 51722.9 2550.35   5
  -5  -2   5 46870.6 2420.79   2
   5  -2  -5 49616.0 1708.64   1
   5  -2  -5 47325.0 2003.38   9
   5   2   5 47771.9 2281.21   4
  -5   2  -5 48486.6 2587.18   8
  -5   2  -6 72345.5 2778.03   7
   5   2   6 74085.7 2366.59   1
   5  -2  -6 77754.3 3396.79   6
   5   2   6 76495.7 3116.89   5
  -5  -2   6 73987.6 3145.56   2
   5  -2  -6 72354.6 2188.41   1
   5  -2  -6 78526.0 2686.98   9
   5   2   6 72340.2 2888.24   4
  -5   2  -6 78333.9 3331.54   8
  -5   2  -7 26563.7 1666.65   7
   5   2   7 25571.4 1378.12   1
   5  -2  -7 24422.4 1927.15   6
   5   2   7 26654.0 1806.28   5
  -5  -2   7 29490.6 1997.60   2
   5  -2  -7 26770.6 1211.43   1
   5  -2  -7 25061.6 1543.29   9
   5   2   7 25522.0 1749.23   4
  -5   2  -7 26245.4 1936.36   8
   5   2   8 16398.2 1460.18   4
   5   2   8 14953.3 1128.21   1
  -5   2  -8 14306.5 1333.26   7
   5  -2  -8 15665.7 1655.67   6
   5  -2  -8 13075.9 867.334   1
   5  -2  -8 15993.5 1279.85   9
  -5  -2   8 15214.4 1519.52   2
  -5   2  -8 13174.8 1456.38   8
   5   2   9 8292.56 1205.59   4
  -5   2  -9 8260.44 1144.00   7
   5  -2  -9 8204.79 1330.80   6
  -5  -2   9 5455.87 1074.46   2
   5  -2  -9 7351.62 998.221   9
   5   2   9 8233.44 920.113   1
  -5   2  -9 6715.88 1162.80   8
   5   2  10 8367.03 1158.09   4
  -5   2 -10 7873.58 1056.31   7
   5  -2 -10 8381.22 1312.27   6
  -5  -2  10 8800.53 1308.86   2
   5  -2 -10 8790.55 1114.13   9
   5   2  10 9537.56 1005.10   1
  -5   2 -10 7332.24 1164.51   8
  -5   2 -11 23317.7 1787.90   7
   5   2  11 23633.0 1570.84   1
   5  -2 -11 24496.9 1976.46   6
  -5  -2  11 28777.2 2148.98   2
   5  -2 -11 24268.1 1703.86   9
   5   2  11 24117.5 1835.01   4
  -5   2 -11 23477.8 1848.93   8
   5   2  12 8026.25 1257.39   4
  -5   2 -12 10134.3 1397.22   7
   5  -2 -12 8519.86 1338.70   6
  -5  -2  12 8361.56 1425.56   2
   5  -2 -12 8723.02 1180.50   9
   5   2  12 7972.49 1041.40   1
  -5   2 -12 9888.32 1323.62   8
  -5   2 -13 28249.8 2074.67   7
   5   2  13 25231.1 1759.08   1
   5  -2 -13 24005.1 1960.82   6
  -5  -2  13 26035.9 2083.00   2
   5  -2 -13 29623.9 2001.68   9
   5   2  13 27185.8 2058.44   4
  -5   2 -13 28335.4 1969.02   8
  -5   2 -14 3673.46 1022.01   8
   5   2  14 5359.55 1028.08   1
   5   2  14 2816.07 1026.98   4
  -5   2 -14 3502.78 971.539   7
   5  -2 -14 4394.52 1053.55   6
  -5  -2  14 3176.31 1173.57   2
   5  -2 -14 4958.42 1130.56   9
  -5   2 -15 1473.15 871.956   8
   5   2  15 2724.83 968.146   1
   5   2  15 995.698 934.799   4
  -5   2 -15 3806.34 1137.91   7
   5  -2 -15-157.539 854.816   6
  -5  -2  15 731.397 1045.29   2
   5  -2 -15 1353.18 934.098   9
   5   2  16 13098.6 1474.03   1
   5   2  16 13435.6 1675.68   4
  -5   2 -16 13299.1 1636.56   7
  -5  -2  16 12813.5 1588.01   2
   5  -2 -16 12692.4 1453.29   9
   5   2  17 9296.16 1331.86   1
   5   2  17 9710.11 1557.88   4
  -5   2 -17 12040.4 1694.68   7
  -5  -2  17 13029.3 1760.29   2
   5  -2 -17 11998.0 1531.48   9
   5   2  18 10860.9 1479.06   1
   5   2  18 14752.1 1867.79   4
  -5   2 -18 11977.5 1747.01   7
  -5  -2  18 11996.4 1643.47   2
   5  -2 -18 14502.2 1763.59   9
   5   2  19 6127.47 1472.76   4
  -5   2 -19 8025.52 1546.49   7
  -5  -2  19 6156.72 1438.17   2
   5  -2 -19 4372.50 1245.95   9
   5   2  19 3783.30 1196.30   1
   5   2  20-925.450 1192.08   4
  -5   2 -20-83.5514 1038.01   7
  -5  -2  20 1261.74 1317.05   2
   5  -2 -20 144.618 1045.30   9
   5   2  20 294.856 895.351   1
   5   2  21-130.378 1205.85   4
  -5   2 -21 167.604 1200.02   7
  -5  -2  21 4004.31 1339.20   2
   5  -2 -21 2690.04 1293.86   9
   5   2  21-625.851 1198.37   1
  -5   2 -22-203.445 1319.21   7
  -5  -2  22 2210.44 1162.92   2
   5  -2 -22 1792.02 1069.44   9
   5   2  22 3693.08 1190.61   1
   5  -2 -23-4285.68 1569.51   5
  -5  -2  23-414.582 1078.05   2
   5  -2 -23-243.461 1214.70   9
   5   2  23-4040.01 1541.80   1
   5   3 -23-356.537 1198.46   5
   5   3 -23 1746.77 1275.17   9
   5   3 -22 3431.82 1444.90   5
   5   3 -22 5359.72 1409.54   9
  -5  -3 -21 761.102 1053.55   7
  -5   3  21-1163.07 1154.01   3
   5  -3  21 199.002 1201.10   1
   5   3 -21-1269.09 1363.63   5
   5   3 -21 243.879 1096.28   9
  -5  -3 -20 2788.69 1371.82   7
  -5   3  20 633.890 1234.14   3
   5  -3  20 1410.63 1192.32   1
   5   3 -20-893.836 1049.99   5
   5   3 -20 684.702 1028.24   9
  -5  -3 -19 4269.67 1248.13   7
  -5   3  19 4329.85 1300.94   3
   5  -3  19 5062.83 1203.93   6
   5  -3  19 4887.39 1409.84   1
   5   3 -19 6522.88 1591.69   5
   5   3 -19 5118.12 1191.81   9
  -5  -3 -18 5246.23 1363.41   7
  -5   3  18 10544.6 1878.59   3
   5  -3  18 7601.86 1353.30   6
   5  -3  18 8230.75 1515.07   1
   5   3 -18 8664.49 1636.98   5
   5   3 -18 6219.09 1250.17   9
  -5  -3 -17 4347.27 1228.81   7
  -5   3  17 5436.12 1494.61   3
   5  -3  17 5552.96 1234.57   6
   5  -3  17 3443.81 1195.94   1
   5   3 -17 3299.41 1352.42   5
  -5   3  17 4557.98 886.536   2
   5   3 -17 2762.05 967.955   9
  -5   3  17 3383.70 935.065   8
  -5  -3 -16 1908.35 1030.08   7
  -5   3  16 1481.58 1037.50   3
   5  -3  16 1519.36 1031.38   6
   5  -3  16 547.476 1020.82   1
   5   3 -16-236.265 938.630   5
  -5   3  16 855.466 710.178   2
   5   3 -16 28.0666 850.112   9
  -5   3  16 580.645 849.832   8
  -5  -3 -15 1963.24 1064.96   7
  -5   3  15 2289.09 1161.64   3
   5  -3  15 1542.08 948.737   6
   5  -3  15 3783.30 1131.66   1
   5   3 -15 1655.41 1156.26   5
   5   3 -15 1177.28 853.117   9
  -5   3  15 3696.69 1041.34   8
  -5  -3 -14 4880.13 1328.91   7
  -5   3  14 3176.15 1101.19   3
   5   3 -14 3603.87 892.210   6
   5  -3  14 1825.25 909.391   6
   5   3 -14 1971.83 1132.82   5
   5  -3  14 3042.26 1114.87   1
   5   3 -14 2139.41 881.394   9
  -5   3  14 1861.54 866.372   8
  -5  -3 -13 29672.1 2223.47   7
  -5   3  13 30051.7 2474.73   3
   5  -3  13 29830.7 2258.86   6
   5  -3  13 28523.2 2238.84   1
   5   3 -13 32924.5 2530.46   5
   5   3 -13 28955.9 1886.08   9
  -5   3  13 28784.0 2081.14   8
  -5  -3 -12 17600.5 1732.86   7
  -5   3  12 15495.4 1780.55   3
   5  -3  12 19890.0 1898.30   6
   5   3 -12 18720.0 2039.28   5
   5  -3  12 17978.9 1758.43   1
   5   3 -12 14389.1 1342.42   9
  -5   3  12 18757.8 1700.79   8
  -5  -3 -11 29142.1 2153.26   7
  -5   3  11 29349.6 2447.23   3
   5  -3  11 29007.9 2196.45   6
   5  -3  11 33147.6 2232.12   1
   5   3 -11 29942.5 2399.12   5
   5   3 -11 28443.6 1738.43   4
   5   3 -11 27543.9 1755.68   9
  -5   3  11 30188.1 2077.85   8
  -5  -3 -10 4687.16 1139.27   7
  -5   3  10 4414.62 1281.63   3
   5  -3  10 4336.84 1150.10   6
   5   3 -10 2989.83 1191.29   5
   5  -3  10 4594.43 1026.53   1
   5   3 -10 4999.22 880.851   4
   5   3 -10 4418.35 802.535   9
  -5   3  10 4601.71 1074.57   8
  -5  -3  -9 3113.62 1054.05   7
  -5   3   9 3751.41 1098.93   3
   5  -3   9 5826.94 1231.04   6
   5  -3   9 3840.42 657.915   5
   5   3  -9 5722.83 1322.21   5
   5  -3   9 4589.18 1052.15   1
   5   3  -9 3305.64 726.094   4
   5   3  -9 3929.75 775.225   9
  -5   3   9 4104.42 1040.53   8
  -5  -3  -8 17406.3 1697.61   7
  -5   3   8 18269.5 1899.78   3
   5  -3   8 19431.1 1806.87   6
   5  -3   8 19155.5 1619.99   1
   5   3  -8 16042.9 1797.66   5
   5   3  -8 20376.5 1434.69   4
   5   3  -8 16281.4 1157.53   9
  -5   3   8 18828.3 1707.55   8
  -5  -3  -7 24512.4 1873.55   7
  -5   3   7 24277.8 2135.02   3
   5  -3   7 26549.3 2114.37   6
   5  -3   7 27194.0 1833.89   1
   5   3  -7 23035.2 2021.09   5
   5   3  -7 26828.1 1607.05   4
   5   3  -7 24352.7 1325.07   9
  -5   3   7 25674.8 1943.78   8
  -5  -3  -6 37585.8 2253.35   7
  -5   3   6 37456.1 2501.74   3
   5  -3   6 37969.4 2500.57   6
   5  -3   6 38425.4 2129.84   1
   5   3  -6 40479.4 2609.71   5
   5   3  -6 37829.9 1902.00   4
   5   3  -6 34366.9 1440.18   9
  -5   3   6 38599.3 2416.71   8
  -5  -3  -5 35956.0 2163.46   7
  -5   3   5 39434.5 2555.25   3
   5  -3   5 39005.7 2520.43   6
   5  -3   5 33633.0 1943.07   1
   5   3  -5 36952.5 2512.79   5
   5   3  -5 36760.6 1884.11   4
  -5   3   5 38330.2 2411.75   8
  -5  -3  -4 8397.66 1146.08   7
  -5   3   4 7975.06 1341.58   3
   5  -3   4 10467.4 1432.54   6
   5   3  -4 9816.13 1502.19   5
   5   3  -4 9273.02 1000.23   4
  -5   3   4 9272.81 1334.11   8
   5  -3   4 9057.43 1058.67   1
   5  -3   3 9853.70 1096.93   1
  -5  -3  -3 10207.0 1243.43   7
  -5   3   3 9640.85 1300.58   3
   5  -3   3 10375.6 1463.20   6
   5   3  -3 10101.2 1456.34   5
   5   3  -3 10804.8 1054.63   4
  -5   3   3 12390.7 1530.45   8
  -5   3   2 18522.8 897.473   7
  -5  -3  -2 17075.3 1534.63   7
  -5   3   2 19885.5 1773.88   3
   5  -3   2 18433.5 1809.45   6
   5  -3   2 17364.1 1330.74   1
   5   3  -2 18429.8 1829.31   5
   5   3  -2 17955.5 1314.73   4
  -5   3   2 18609.0 1741.38   8
  -5   3   1 9860.07 723.299   7
  -5  -3  -1 10247.2 1266.11   7
   5  -3   1 8841.70 968.553   1
  -5   3   1 10798.6 1344.44   3
   5  -3   1 8981.08 1406.42   6
   5   3  -1 10940.3 1412.28   5
  -5  -3  -1 9866.21 1175.99   2
   5   3  -1 10043.1 1054.74   4
  -5   3   1 10514.5 1418.08   8
  -5  -3   0 54660.0 2576.98   7
  -5   3   0 54174.6 1825.16   7
  -5   3   0 57371.8 2782.55   3
   5  -3   0 53128.8 2902.22   6
   5   3   0 58163.3 2982.35   5
  -5  -3   0 58671.6 2629.19   2
   5  -3   0 51352.8 2205.98   1
   5   3   0 58075.7 2409.52   4
  -5  -3   0 51270.3 1280.39   1
  -5   3   0 57192.3 2934.98   8
  -5   3  -1 9842.88 800.144   7
  -5  -3   1 9341.34 1169.36   7
  -5   3  -1 11001.3 1345.71   3
   5  -3  -1 8894.13 948.618   1
   5  -3  -1 10391.0 1552.96   6
   5   3   1 10070.0 1437.05   5
  -5  -3   1 8856.82 1142.95   2
   5   3   1 8414.79 1013.48   4
  -5   3  -1 9955.18 1400.08   8
  -5  -3   2 19587.6 1636.92   7
  -5   3  -2 17653.4 1103.23   7
  -5   3  -2 19022.4 1580.51   3
   5  -3  -2 19957.0 1919.64   6
  -5  -3   2 20476.8 1667.87   2
   5  -3  -2 17006.4 1233.26   1
   5   3   2 18974.0 1743.01   5
   5   3   2 19920.9 1470.14   4
  -5   3  -2 18098.1 1713.77   8
  -5  -3   3 9363.87 1166.79   7
  -5   3  -3 9549.00 882.746   7
  -5   3  -3 9110.49 1212.73   3
   5  -3  -3 11896.5 1598.13   6
   5  -3  -3 8596.38 917.761   1
   5   3   3 11291.2 1442.05   5
  -5  -3   3 9661.51 1204.05   2
   5  -3  -3 9851.18 1002.40   9
   5   3   3 10693.5 1159.42   4
  -5   3  -3 9462.13 1359.12   8
  -5   3  -4 12938.1 1080.19   7
  -5   3  -4 11317.3 1250.00   3
   5  -3  -4 9798.93 1413.89   6
   5   3   4 12377.0 1422.75   5
   5  -3  -4 11563.0 1017.41   1
  -5  -3   4 12054.2 1382.44   2
   5  -3  -4 12147.9 1106.46   9
  -5   3  -4 11304.8 1454.43   8
   5   3   4 11692.6 1205.14   4
  -5   3  -5 31493.5 1681.20   7
   5  -3  -5 34515.7 2374.00   6
   5   3   5 37021.8 2269.20   5
  -5  -3   5 36312.5 2205.00   2
   5  -3  -5 31898.4 1642.91   1
   5  -3  -5 33614.6 1805.13   9
   5   3   5 32181.4 1970.13   4
  -5   3  -5 35758.5 2345.90   8
  -5   3  -6 39555.1 1933.01   7
   5  -3  -6 38150.3 2469.77   6
  -5  -3   6 38369.2 2284.62   2
   5  -3  -6 38960.9 1837.03   1
   5  -3  -6 39884.8 2001.77   9
   5   3   6 36477.5 2087.41   4
  -5   3  -6 39632.6 2446.55   8
  -5   3  -7 25655.2 1611.21   7
   5  -3  -7 26863.5 2119.51   6
  -5  -3   7 27681.7 2059.44   2
   5  -3  -7 25397.0 1463.52   1
   5  -3  -7 26077.0 1650.06   9
   5   3   7 23825.8 1748.14   4
  -5   3  -7 24973.9 1953.60   8
   5   3   8 19571.8 1625.87   4
  -5   3  -8 18632.3 1450.86   7
   5  -3  -8 16718.5 1750.26   6
   5  -3  -8 16101.1 1181.81   1
  -5  -3   8 15710.0 1556.64   2
   5  -3  -8 17638.8 1429.80   9
  -5   3  -8 16802.4 1640.83   8
   5   3   9 3257.65 917.673   4
  -5   3  -9 3797.09 943.804   7
   5  -3  -9 3981.66 1095.93   6
   5  -3  -9 2315.31 614.276   1
   5  -3  -9 2492.27 807.740   9
  -5  -3   9 3038.43 1094.72   2
   5   3   9 3451.33 721.174   1
  -5   3  -9 2748.34 951.455   8
   5   3  10 1533.47 897.219   4
  -5   3 -10 2199.84 793.008   7
   5  -3 -10 2258.89 995.926   6
   5  -3 -10 1257.39 763.761   9
  -5  -3  10 2535.65 1014.10   2
   5   3  10 2220.92 677.559   1
   5  -3 -10 2330.33 611.936   1
  -5   3 -10 1629.88 914.325   8
  -5   3 -11 28372.3 2007.12   7
   5   3  11 28134.5 1745.82   1
   5  -3 -11 32285.7 2325.79   6
  -5  -3  11 32155.3 2258.42   2
   5  -3 -11 30183.1 1997.63   9
   5   3  11 29950.8 2130.47   4
  -5   3 -11 31791.2 2203.13   8
   5   3  12 14756.6 1660.86   4
  -5   3 -12 16216.1 1620.89   7
   5  -3 -12 14591.9 1712.03   6
   5  -3 -12 12886.9 1406.62   9
  -5  -3  12 15322.5 1696.45   2
   5   3  12 13084.1 1312.40   1
  -5   3 -12 13472.1 1529.07   8
  -5   3 -13 28701.5 2106.98   7
   5   3  13 28149.3 1867.87   1
   5  -3 -13 28459.5 2203.79   6
  -5  -3  13 30260.1 2298.23   2
   5  -3 -13 29629.9 2050.90   9
   5   3  13 30838.5 2239.73   4
  -5   3 -13 31352.6 2163.65   8
   5   3  14 2205.34 936.858   4
  -5   3 -14 2640.98 1083.83   7
   5  -3 -14 3635.78 1108.89   9
  -5  -3  14 1676.18 959.573   2
   5   3  14 3509.70 1002.68   1
  -5   3 -14 2185.38 896.587   8
   5   3  15 1669.31 1055.25   4
  -5   3 -15 3278.50 1125.16   7
   5  -3 -15 2862.24 1064.67   9
  -5  -3  15 1962.04 1229.93   2
   5   3  15 1720.18 851.810   1
  -5   3 -15 1186.00 866.358   8
   5   3  16-192.138 890.980   4
  -5   3 -16 663.441 1084.86   7
   5  -3 -16 2223.12 1174.88   9
  -5  -3  16 139.153 1093.05   2
   5   3  16-1077.65 923.830   1
  -5   3 -16 220.975 850.408   8
  -5   3 -17 1247.39 822.387   8
   5   3  17 2638.88 1264.09   4
  -5   3 -17 1797.52 1193.82   7
   5  -3 -17 2218.09 1085.13   9
  -5  -3  17 1352.61 1044.61   2
   5   3  17 790.907 927.494   1
   5   3  18 5413.60 1422.03   4
  -5   3 -18 4904.81 1337.96   7
   5  -3 -18 8277.59 1447.64   9
  -5  -3  18 4605.41 1295.07   2
   5   3  18 5898.71 1312.72   1
   5   3  19 4937.59 1244.97   4
  -5   3 -19 3518.52 1225.97   7
   5  -3 -19 6972.48 1400.23   9
  -5  -3  19 4869.30 1486.39   2
   5   3  19 5429.19 1294.06   1
   5   3  20 2945.36 1226.63   4
  -5   3 -20 729.081 1124.59   7
   5  -3 -20-46.5805 913.057   9
  -5  -3  20 2659.83 1397.84   2
   5   3  20-964.175 1141.83   1
   5   3  21 884.947 1113.32   4
  -5   3 -21 630.441 1299.09   7
   5  -3 -21 2752.80 1230.94   9
  -5  -3  21-419.629 1215.67   2
   5   3  21-159.667 947.174   1
   5  -3 -22 7469.96 1681.29   9
   5   3  22 8126.02 1561.59   1
   5   4 -21 5136.43 1390.96   5
  -5   4  20-165.104 1135.15   3
   5  -4  20 2154.35 1329.05   1
   5   4 -20 487.333 1290.46   5
   5   4 -20-870.722 1012.43   9
  -5  -4 -19 3374.62 1253.49   7
  -5   4  19 3179.80 1576.48   3
   5  -4  19 3891.11 1301.12   1
   5   4 -19 3459.11 1385.19   5
   5   4 -19 4142.00 1223.79   9
  -5  -4 -18 1276.27 1150.65   7
  -5   4  18 1406.67 1222.02   3
   5  -4  18 3010.04 1204.33   6
   5  -4  18 2261.54 1224.54   1
   5   4 -18 3342.49 1378.60   5
   5   4 -18 2748.96 979.750   9
  -5  -4 -17 8385.18 1399.49   7
  -5   4  17 5448.03 1437.46   3
   5  -4  17 7531.04 1382.73   6
   5  -4  17 8673.23 1676.07   1
   5   4 -17 7286.18 1479.30   5
   5   4 -17 8214.25 1405.01   9
  -5   4  17 8648.68 1301.27   8
  -5  -4 -16 5399.21 1284.40   7
  -5   4  16 5065.65 1543.65   3
   5  -4  16 6165.53 1294.28   6
   5   4 -16 6076.76 1494.13   5
   5  -4  16 4785.59 1287.15   1
   5   4 -16 6076.14 1205.67   9
  -5   4  16 6464.28 1252.32   8
  -5  -4 -15 7286.12 1441.05   7
  -5   4  15 4722.80 1413.90   3
   5  -4  15 4357.69 1176.47   6
   5   4 -15 3347.59 1383.16   5
   5  -4  15 3630.88 1144.00   1
   5   4 -15 5069.97 1113.46   9
  -5   4  15 5349.17 1141.63   8
  -5  -4 -14 9842.77 1493.74   7
  -5   4  14 10771.8 1824.91   3
   5  -4  14 7595.09 1405.19   6
   5   4 -14 8023.30 1599.01   5
   5  -4  14 7817.12 1404.41   1
   5   4 -14 9078.33 1312.75   9
  -5   4  14 9687.52 1348.01   8
  -5  -4 -13 12874.9 1658.02   7
  -5   4  13 14523.7 1992.95   3
   5  -4  13 13568.2 1658.10   6
   5   4 -13 13745.3 1890.88   5
   5  -4  13 16695.0 1838.23   1
   5   4 -13 12280.1 1346.26   9
  -5   4  13 12676.1 1549.29   8
  -5  -4 -12 5698.76 1124.56   7
  -5   4  12 6513.29 1559.82   3
   5  -4  12 5882.29 1391.84   6
   5   4 -12 8718.47 1604.33   5
   5  -4  12 5285.76 1298.46   1
   5   4 -12 6845.48 1058.00   4
   5   4 -12 6308.18 1012.99   9
  -5   4  12 6431.37 1268.25   8
  -5  -4 -11 7990.57 1384.70   7
  -5   4  11 8457.23 1621.39   3
   5  -4  11 6734.52 1395.44   6
   5   4 -11 8491.30 1498.41   5
   5  -4  11 6394.89 1273.60   1
   5   4 -11 8013.37 1164.66   4
   5   4 -11 9715.62 1111.35   9
  -5   4  11 8142.13 1355.28   8
  -5  -4 -10 4311.20 1031.53   7
  -5   4  10 3148.54 1192.57   3
   5  -4  10 8727.72 1540.14   6
   5   4 -10 6867.13 1404.95   5
   5  -4  10 2054.03 998.051   1
   5   4 -10 4905.79 1009.23   4
  -5   4  10 5770.07 1243.28   8
  -5  -4  -9 6054.91 1302.42   7
  -5   4   9 5245.73 1244.29   3
   5  -4   9 7817.44 1370.38   6
   5   4  -9 7761.06 1587.43   5
   5   4  -9 4303.55 908.653   4
   5  -4   9 5438.04 1149.24   1
  -5  -4  -8 10610.6 1410.45   7
  -5   4   8 8912.38 1493.33   3
   5  -4   8 10240.6 1524.27   6
   5   4  -8 8769.42 1476.02   5
   5   4  -8 10648.7 1266.13   4
   5  -4   8 10255.8 1385.21   1
  -5  -4  -7 13078.2 1462.94   7
  -5   4   7 13963.7 1740.44   3
   5  -4   7 14435.2 1735.63   6
   5   4  -7 14161.1 1761.55   5
   5   4  -7 14151.2 1351.26   4
   5  -4   7 14226.5 1511.34   1
  -5  -4  -6 28503.6 2020.52   7
  -5   4   6 24617.6 2126.39   3
   5  -4   6 30535.9 2344.36   6
   5  -4   6 27534.3 1969.37   1
   5   4  -6 27403.1 2268.05   5
   5   4  -6 27275.1 1791.92   4
  -5  -4  -5 28130.1 2048.76   7
  -5   4   5 28026.1 2214.87   3
   5  -4   5 29667.2 2259.36   6
   5   4  -5 30976.2 2321.61   5
   5  -4   5 30069.7 2001.73   1
   5   4  -5 28910.0 1864.09   4
  -5  -4  -4 9642.72 1328.25   7
   5  -4   4 9963.92 1229.76   1
  -5   4   4 11061.6 1419.94   3
   5  -4   4 10570.2 1528.15   6
   5   4  -4 9600.70 1487.35   5
   5   4  -4 10153.7 1164.62   4
  -5  -4  -3 40084.8 2325.03   7
  -5   4   3 40441.9 2537.97   3
   5  -4   3 38028.3 2552.31   6
   5   4  -3 36395.3 2505.86   5
   5  -4   3 38072.2 2176.87   1
   5   4  -3 37016.3 2074.62   4
  -5  -4  -2 13577.4 1497.51   7
  -5   4   2 15250.0 1637.92   3
   5  -4   2 14510.3 1335.13   1
   5  -4   2 15883.5 1826.86   6
   5   4  -2 17883.6 1872.88   5
  -5  -4  -2 17982.6 1514.48   2
   5   4  -2 15722.3 1371.31   4
  -5  -4  -1 25088.1 1873.72   7
  -5   4   1 26626.4 2020.68   3
   5  -4   1 24663.2 2078.14   6
   5   4  -1 27749.5 2222.28   5
  -5  -4  -1 26021.1 1796.63   2
   5  -4   1 24991.7 1720.21   1
   5   4  -1 25331.5 1717.82   4
  -5  -4   0 32914.2 2158.45   7
  -5   4   0 36033.3 1304.86   7
  -5   4   0 36647.4 2294.91   3
   5  -4   0 34774.6 2537.88   6
   5   4   0 35679.2 2476.86   5
  -5  -4   0 37935.0 2165.59   2
   5  -4   0 34320.8 1988.11   1
   5   4   0 36134.3 2034.10   4
  -5  -4   1 28447.6 2027.53   7
  -5   4  -1 26416.4 1196.23   7
  -5   4  -1 27883.1 1978.89   3
   5  -4  -1 28749.9 2298.63   6
   5   4   1 24491.8 2090.46   5
  -5  -4   1 26207.1 1858.13   2
   5  -4  -1 24594.6 1671.62   1
   5   4   1 26527.0 1775.84   4
  -5   4  -2 16862.5 1037.15   7
  -5   4  -2 20341.3 1663.87   3
  -5  -4   2 18148.0 1693.33   7
   5  -4  -2 20440.6 1973.26   6
   5  -4  -2 18705.4 1473.32   1
   5   4   2 19144.7 1923.74   5
   5   4   2 18589.2 1522.83   4
  -5  -4   2 17492.7 1604.54   2
  -5   4  -3 38868.6 1670.78   7
  -5   4  -3 37309.5 2188.05   3
   5  -4  -3 35738.8 2497.67   6
  -5  -4   3 34924.3 2179.67   2
   5  -4  -3 34580.8 1960.38   1
   5   4   3 37550.7 2154.04   4
  -5   4  -4 10180.0 927.544   7
  -5   4  -4 9726.82 1157.56   3
   5  -4  -4 7175.16 1293.84   6
  -5  -4   4 9033.52 1249.66   2
   5  -4  -4 9760.14 1070.08   1
   5   4   4 10074.4 1227.29   4
  -5   4  -5 27347.8 1787.61   3
  -5   4  -5 28346.4 1560.34   7
   5  -4  -5 25968.9 2212.33   6
  -5  -4   5 22670.0 1848.48   2
   5  -4  -5 26374.3 1729.04   1
   5   4   5 26841.2 1866.87   4
   5  -4  -5 26491.7 1713.06   9
  -5   4  -6 24228.0 1651.09   3
  -5   4  -6 20847.8 1432.75   7
   5  -4  -6 22668.9 2119.19   6
  -5  -4   6 24483.5 1946.43   2
   5  -4  -6 22751.8 1571.87   1
   5   4   6 21125.1 1727.53   4
   5  -4  -6 24354.6 1713.39   9
  -5   4  -7 9338.96 1058.58   7
   5  -4  -7 10192.8 1112.96   1
   5  -4  -7 10886.1 1544.98   6
   5  -4  -7 7417.42 1106.58   9
  -5  -4   7 8962.95 1371.91   2
   5   4   7 8965.67 1232.11   4
  -5   4  -8 11881.2 1212.73   7
   5  -4  -8 8981.70 1563.76   6
   5  -4  -8 10349.0 1121.83   1
   5  -4  -8 8210.47 1147.79   9
  -5  -4   8 10166.3 1354.01   2
  -5   4  -8 14237.2 1696.02   8
   5   4   8 11056.7 1321.15   4
  -5   4  -9 8649.94 1141.28   7
   5  -4  -9 8462.35 1546.64   6
   5  -4  -9 6537.89 983.543   1
   5  -4  -9 6666.69 1101.92   9
  -5  -4   9 7655.06 1362.72   2
  -5   4  -9 4936.30 1245.42   8
   5   4   9 7379.39 1290.47   4
   5  -4 -10 4654.57 847.031   1
  -5   4 -10 5332.01 1063.87   7
   5  -4 -10 4038.33 1303.17   6
   5  -4 -10 3772.08 1026.19   9
  -5  -4  10 7442.41 1462.55   2
  -5   4 -10 6474.41 1280.81   8
   5   4  10 4889.56 1073.29   4
  -5   4 -11 11159.7 1382.25   7
   5  -4 -11 7832.68 1045.74   1
   5  -4 -11 9865.65 1340.93   9
  -5  -4  11 11302.5 1637.00   2
  -5   4 -11 11274.7 1448.25   8
   5   4  11 10602.4 1359.83   4
  -5   4 -12 7636.93 1319.86   7
   5  -4 -12 4092.23 1059.14   9
  -5  -4  12 4532.89 1252.02   2
  -5   4 -12 4851.25 1221.23   8
   5   4  12 6196.02 1276.18   4
   5   4  13 12855.3 1605.20   4
  -5   4 -13 13077.6 1569.52   7
   5  -4 -13 11775.9 1495.84   9
  -5  -4  13 12341.6 1699.69   2
  -5   4 -13 11278.9 1466.65   8
   5   4  14 8582.82 1361.93   4
  -5   4 -14 6521.16 1269.89   7
   5  -4 -14 6794.38 1322.81   9
  -5  -4  14 7377.20 1554.02   2
  -5   4 -14 7780.36 1326.85   8
   5   4  15 9636.73 1604.87   4
  -5   4 -15 6057.24 1251.77   7
   5  -4 -15 6132.72 1285.34   9
  -5  -4  15 5887.50 1339.56   2
  -5   4 -15 7089.71 1312.22   8
   5   4  16 3822.30 1190.29   4
  -5   4 -16 5929.09 1392.28   7
   5  -4 -16 3838.92 1141.79   9
  -5  -4  16 5759.42 1465.58   2
  -5   4 -16 5001.12 1164.36   8
   5   4  17 8586.89 1535.41   4
  -5   4 -17 8760.91 1627.74   7
   5  -4 -17 7112.62 1325.57   9
  -5  -4  17 9356.13 1611.78   2
  -5   4 -17 8611.69 1300.64   8
   5   4  18 2977.57 1104.80   4
  -5   4 -18 4818.39 1447.08   7
   5  -4 -18 3024.15 1092.94   9
  -5  -4  18 1043.52 1207.65   2
   5   4  19 4711.54 1454.16   4
  -5   4 -19 8651.32 1748.36   7
   5  -4 -19 3674.57 1208.22   9
  -5  -4  19 4341.88 1364.80   2
  -5   4 -20-1128.16 1251.73   7
   5  -4 -20-757.379 1172.88   9
  -5  -4  20-1787.93 1145.64   2
  -5   4 -21 3170.25 1353.76   7
   5  -4 -21 4466.73 1433.99   9
   5   5 -20 1793.85 1359.41   5
   5  -5  19 2732.98 1368.35   1
   5   5 -19 2454.13 1340.84   5
  -5  -5 -18 236.016 1255.83   7
  -5   5  18 1818.91 1465.83   3
   5   5 -18 369.688 1160.37   5
   5  -5  18-1746.70 1446.97   1
  -5  -5 -17 3032.97 1193.99   7
  -5   5  17-389.127 1078.98   3
   5  -5  17-332.531 1071.40   6
   5   5 -17 2691.84 1495.13   5
   5  -5  17-788.321 1155.71   1
  -5   5  17 25.4349 872.627   8
  -5  -5 -16 10277.6 1609.20   7
  -5   5  16 10222.4 1894.22   3
   5  -5  16 8961.78 1633.01   6
   5   5 -16 12252.9 1978.65   5
   5  -5  16 9998.25 1722.61   1
  -5   5  16 9980.62 1441.94   8
  -5  -5 -15 3150.75 1322.65   7
  -5   5  15 3764.60 1611.54   3
   5  -5  15 3066.12 1210.80   6
   5   5 -15 5191.91 1434.77   5
   5  -5  15 3862.31 1244.53   1
  -5   5  15 3167.84 1111.69   8
  -5  -5 -14 2849.62 1146.33   7
  -5   5  14 6989.91 1750.74   3
   5  -5  14 5559.79 1331.84   6
   5   5 -14 4799.73 1405.79   5
   5  -5  14 3453.98 1186.87   1
  -5   5  14 3582.88 1233.31   8
  -5  -5 -13-1378.03 1079.74   7
  -5   5  13 2222.61 1319.41   3
   5  -5  13 490.536 1144.98   6
   5   5 -13 240.241 1107.73   5
   5  -5  13 519.490 1037.94   1
   5   5 -13 117.561 794.901   4
  -5  -5 -12 1378.13 953.805   7
  -5   5  12-321.995 1242.89   3
   5  -5  12-844.133 1068.40   6
   5   5 -12 136.008 1149.33   5
   5   5 -12-802.593 886.951   4
   5  -5  12 758.739 1002.59   1
  -5  -5 -11 3416.40 1232.59   7
  -5   5  11 3292.23 1422.30   3
   5  -5  11 1867.65 1131.50   6
   5   5 -11 1704.27 1321.73   5
   5   5 -11 1552.92 900.203   4
   5  -5  11 1991.67 988.084   1
  -5  -5 -10 15161.9 1716.40   7
  -5   5  10 16905.5 2079.44   3
   5  -5  10 16677.4 1953.64   6
   5   5 -10 15758.1 1936.82   5
   5   5 -10 15286.2 1639.30   4
   5  -5  10 13036.6 1620.55   1
  -5  -5  -9 14825.4 1727.07   7
  -5   5   9 12784.9 1772.05   3
   5  -5   9 14641.4 1854.41   6
   5   5  -9 13606.7 1806.47   5
   5   5  -9 11895.4 1368.08   4
   5  -5   9 13823.9 1604.20   1
  -5  -5  -8 26307.8 2108.66   7
  -5   5   8 29606.4 2551.06   3
   5  -5   8 24872.2 2246.44   6
   5  -5   8 28672.8 2187.30   1
   5   5  -8 27063.0 2427.19   5
   5   5  -8 27953.8 2052.97   4
   5  -5   7 4359.20 1111.89   1
  -5  -5  -7 3602.01 1091.70   7
  -5   5   7 4196.13 1171.43   3
   5  -5   7 4637.28 1235.06   6
   5   5  -7 5172.27 1463.40   5
   5   5  -7 2987.53 938.590   4
   5  -5   6 5366.24 1090.40   1
  -5  -5  -6 3670.73 1113.68   7
  -5   5   6 6328.58 1488.52   3
   5  -5   6 6858.87 1404.38   6
   5   5  -6 4495.83 1269.66   5
   5   5  -6 4053.93 1009.40   4
  -5  -5  -5 15597.8 1664.86   7
   5  -5   5 13429.3 1472.03   1
  -5   5   5 14812.4 1819.19   3
   5  -5   5 14285.9 1774.09   6
   5   5  -5 16638.4 1879.66   5
   5   5  -5 14110.0 1462.31   4
  -5  -5  -4 6331.56 1222.59   7
   5  -5   4 7904.77 1257.15   1
  -5   5   4 9021.72 1496.43   3
   5  -5   4 8347.33 1586.66   6
   5   5  -4 5055.37 1302.90   5
   5   5  -4 8094.28 1223.39   4
  -5  -5  -3 15607.5 1587.04   7
  -5   5   3 14568.5 1731.31   3
   5  -5   3 14571.1 1527.19   1
   5  -5   3 17003.3 1991.21   6
   5   5  -3 13528.8 1740.58   5
   5   5  -3 12492.6 1387.38   4
  -5  -5  -2 3816.50 1136.00   7
  -5   5   2 3691.93 1144.66   3
   5  -5   2 2586.41 953.812   1
   5  -5   2 1829.15 1200.98   6
   5   5  -2 4075.48 1265.98   5
  -5  -5  -2 3748.40 960.096   2
   5   5  -2 3561.77 924.433   4
  -5  -5  -1 1203.57 970.706   7
  -5   5   1 1849.50 929.703   3
   5  -5   1 1830.88 1074.22   6
   5  -5   1 2138.72 761.438   1
  -5  -5  -1 1204.66 903.318   2
   5   5  -1 1155.60 744.602   4
  -5  -5   0 12136.8 1559.21   7
  -5   5   0 11610.5 1412.67   3
   5  -5   0 10656.3 1731.59   6
   5  -5   0 13191.6 1432.88   1
  -5  -5   0 14552.2 1476.59   2
   5   5   0 13566.7 1424.08   4
  -5  -5   1 1328.47 891.465   7
  -5   5  -1 1570.05 838.678   3
   5  -5  -1 4630.10 1490.67   6
   5  -5  -1 1044.41 728.732   1
  -5  -5   1 1337.18 882.099   2
   5   5   1 1629.95 860.135   4
  -5   5  -2 7381.33 1147.25   3
   5  -5  -2 7241.87 1546.92   6
   5  -5  -2 7994.10 1169.62   1
  -5  -5   2 7965.71 1180.02   2
   5   5   2 6656.14 1166.37   4
  -5   5  -3 17232.6 1537.86   3
   5  -5  -3 16613.5 1880.45   6
  -5  -5   3 14901.8 1560.32   2
   5  -5  -3 16922.1 1538.11   1
   5   5   3 17797.7 1627.25   4
  -5   5  -4 9020.53 859.511   7
  -5   5  -4 9575.75 1209.53   3
   5  -5  -4 9398.59 1539.26   6
  -5  -5   4 13551.2 1527.51   2
   5   5   4 11269.0 1408.20   4
   5  -5  -4 9571.34 1256.25   1
  -5   5  -5 16391.3 1216.74   7
   5  -5  -5 15921.7 1501.44   1
  -5   5  -5 15654.4 1386.94   3
   5  -5  -5 14905.6 1821.33   6
  -5  -5   5 14308.8 1595.84   2
   5   5   5 14355.5 1553.06   4
  -5   5  -6 7125.53 905.337   7
  -5   5  -6 6724.12 991.315   3
   5  -5  -6 5962.68 1011.58   1
   5  -5  -6 7033.56 1479.21   6
   5  -5  -6 6679.89 1093.57   9
  -5  -5   6 6884.42 1195.02   2
   5   5   6 6830.12 1261.03   4
  -5   5  -7 2423.85 702.213   3
  -5   5  -7 1713.18 635.001   7
   5  -5  -7 3503.91 869.377   1
   5  -5  -7 1690.24 776.328   9
  -5  -5   7 1849.14 1100.49   2
   5   5   7 3310.34 1142.44   4
  -5   5  -8 28406.1 1804.11   7
  -5  -5   8 29269.9 2249.25   2
   5  -5  -8 29047.2 1983.70   1
   5   5   8 28291.4 2119.43   4
   5  -5  -8 27858.8 2036.58   9
  -5   5  -9 14158.1 1424.65   7
   5  -5  -9 11703.8 1409.25   9
  -5  -5   9 16393.1 1814.48   2
   5  -5  -9 16840.1 1515.60   1
   5   5   9 14810.8 1681.51   4
   5  -5 -10 17093.8 1585.01   1
  -5   5 -10 18394.9 1583.42   7
   5  -5 -10 16661.7 1721.33   9
  -5  -5  10 20629.0 1992.01   2
   5   5  10 17838.9 1787.27   4
  -5   5 -11 3161.08 967.204   7
   5  -5 -11 2111.23 784.708   1
   5  -5 -11 1314.12 817.072   9
  -5  -5  11 1154.45 1091.15   2
   5   5  11 1095.77 834.730   4
  -5   5 -12 20.7903 767.000   7
   5  -5 -12 1507.42 1054.46   9
  -5  -5  12-193.036 1069.52   2
  -5   5 -12 246.474 1042.31   8
   5   5  12 1283.84 968.446   4
  -5   5 -13 1186.31 961.075   7
   5  -5 -13 377.912 1027.47   9
  -5  -5  13 1433.16 1232.88   2
  -5   5 -13 1780.01 952.384   8
   5   5  13 1747.09 1056.15   4
  -5   5 -14 3139.44 1046.77   7
   5  -5 -14 2932.03 1055.33   9
  -5  -5  14 3278.48 1333.65   2
  -5   5 -14 3348.57 1185.33   8
   5   5  14 5793.22 1244.05   4
  -5   5 -15 3460.88 1289.00   7
   5  -5 -15 2120.25 1073.31   9
  -5  -5  15 1815.65 1105.08   2
  -5   5 -15 1667.65 1071.84   8
   5   5  15 3250.48 1224.86   4
  -5   5 -16 8713.97 1591.29   7
   5  -5 -16 10012.1 1630.55   9
  -5  -5  16 7983.71 1751.49   2
  -5   5 -16 6220.16 1351.07   8
   5   5  16 10797.7 1715.30   4
  -5   5 -17-1200.39 1163.37   7
   5  -5 -17 2254.38 1324.43   9
  -5  -5  17-358.730 962.955   2
   5   5  17-1682.56 1118.78   4
  -5   5 -18 379.251 1121.96   7
   5  -5 -18 1594.36 1258.31   9
  -5  -5  18 1393.62 1434.29   2
   5   5  18 3157.76 1366.44   4
  -5   5 -19 2734.93 1358.66   7
   5  -5 -19 5209.39 1549.23   9
  -5   5 -20-817.086 1413.49   7
   5   6 -17 3052.26 1368.82   5
   5  -6  17 204.737 1309.77   1
  -5  -6 -16 6606.08 1363.14   7
  -5   6  16 6044.19 1784.08   3
   5   6 -16 3896.85 1420.77   5
   5  -6  16 7426.00 1644.27   1
  -5  -6 -15-505.814 1055.26   7
  -5   6  15 554.948 1381.32   3
   5   6 -15 338.454 1384.15   5
   5  -6  15 1822.93 1187.48   1
  -5  -6 -14 5040.44 1311.31   7
  -5   6  14 4614.03 1524.73   3
   5   6 -14 4164.59 1576.22   5
   5   6 -14 7982.84 1467.84   4
   5  -6  14 4686.68 1312.18   1
  -5  -6 -13 3999.02 1159.08   7
  -5   6  13 4981.89 1461.98   3
   5   6 -13 5448.91 1628.63   5
   5   6 -13 6515.72 1320.70   4
   5  -6  13 6493.17 1389.78   1
  -5  -6 -12 1221.04 1140.23   7
  -5   6  12 1900.86 1148.83   3
   5   6 -12-172.294 1248.36   5
   5   6 -12 2840.53 1102.43   4
   5  -6  12 3209.00 1215.99   1
  -5  -6 -11 1766.80 1213.38   7
  -5   6  11 2801.55 1241.43   3
   5   6 -11-714.529 999.787   5
   5   6 -11 2443.85 1090.75   4
   5  -6  11 751.399 930.462   1
  -5  -6 -10 5923.40 1362.60   7
  -5   6  10 7975.97 1697.84   3
   5  -6  10 5657.30 1406.31   6
   5   6 -10 5278.98 1579.56   5
   5   6 -10 4782.45 1246.44   4
   5  -6  10 7652.02 1468.37   1
   5  -6   9 9142.97 1603.16   1
  -5  -6  -9 6713.60 1371.26   7
  -5   6   9 3707.35 1408.59   3
   5  -6   9 7794.81 1649.85   6
   5   6  -9 7283.43 1564.61   5
   5   6  -9 7171.63 1342.16   4
   5  -6   8 13574.5 1765.86   1
  -5  -6  -8 8513.72 1403.58   7
  -5   6   8 10032.9 1660.67   3
   5  -6   8 10165.5 1690.60   6
   5   6  -8 11773.1 1511.65   4
  -5  -6  -7-92.8309 1094.15   7
   5  -6   7 1404.78 1038.58   1
  -5   6   7-387.615 1240.99   3
   5  -6   7 321.937 1000.89   6
   5   6  -7-454.673 979.344   4
  -5  -6  -6 4385.33 1252.19   7
   5  -6   6 4922.69 1204.99   1
  -5   6   6 7037.03 1480.39   3
   5  -6   6 3520.11 1199.91   6
   5   6  -6 4790.65 1154.73   4
  -5  -6  -5 8644.24 1401.95   7
   5  -6   5 10486.5 1515.84   1
  -5   6   5 10990.3 1777.67   3
   5  -6   5 6738.29 1482.15   6
   5   6  -5 9507.72 1451.44   4
  -5  -6  -4 4015.21 1186.99   7
  -5   6   4 5429.92 1327.71   3
   5  -6   4 6847.63 1320.89   1
   5  -6   4 6003.57 1446.03   6
   5   6  -4 7583.20 1366.79   4
  -5  -6  -3 27359.5 2224.20   7
  -5   6   3 30035.7 2406.30   3
   5  -6   3 23060.6 2385.48   6
  -5  -6  -3 28035.8 1931.09   2
   5  -6   3 27547.3 2187.85   1
   5   6  -3 28344.4 2131.70   4
  -5   6   2 24922.1 2179.65   3
  -5  -6  -2 25092.8 2152.23   7
   5  -6   2 30816.3 2632.27   6
  -5  -6  -2 24575.2 1879.95   2
   5  -6   2 25328.6 2079.79   1
   5   6  -2 24743.1 1974.15   4
  -5  -6  -1 9659.86 1518.95   7
  -5   6   1 10333.0 1458.33   3
   5  -6   1 11735.2 1527.82   1
  -5  -6  -1 9937.87 1318.70   2
   5   6  -1 11411.3 1461.02   4
  -5   6   0 21798.9 1895.78   3
  -5  -6   0 21217.5 1749.16   2
   5  -6   0 18992.2 1796.17   1
   5   6   0 22418.6 1927.17   4
  -5   6  -1 13552.2 1541.43   3
   5  -6  -1 12203.4 1458.17   1
  -5  -6   1 11403.0 1468.75   2
   5   6   1 11870.8 1462.97   4
  -5   6  -2 23824.1 1882.43   3
  -5  -6   2 23635.4 1928.71   2
   5  -6  -2 21624.7 1866.87   1
   5   6   2 19657.3 1820.95   4
  -5   6  -3 21718.6 1764.16   3
  -5  -6   3 23097.2 1909.52   2
   5  -6  -3 23134.5 1908.82   1
   5   6   3 22973.1 1943.81   4
   5  -6  -4 6354.48 1234.85   1
  -5   6  -4 5906.83 1053.00   3
  -5  -6   4 6142.01 1188.48   2
   5   6   4 7876.87 1350.52   4
   5  -6  -5 8131.62 1311.38   1
  -5   6  -5 9337.64 1192.70   3
  -5  -6   5 10077.0 1417.49   2
   5   6   5 10491.8 1480.15   4
   5  -6  -6 2861.78 871.436   1
  -5  -6   6 5877.76 1296.35   2
   5   6   6 3889.76 1102.71   4
   5  -6  -7 284.641 807.364   1
   5  -6  -7 1448.75 1075.76   9
  -5  -6   7-2074.82 1066.15   2
   5   6   7 98.7893 943.556   4
   5  -6  -8 10417.9 1455.69   1
   5  -6  -8 9809.76 1373.96   9
  -5  -6   8 10089.0 1564.94   2
   5   6   8 11033.3 1525.91   4
   5  -6  -9 4309.00 1083.96   1
   5  -6  -9 6758.82 1333.58   9
  -5  -6   9 5266.94 1248.27   2
   5   6   9 3730.81 1124.68   4
  -5   6 -10 3460.41 948.185   7
   5  -6 -10 4920.80 1147.85   9
  -5  -6  10 4898.47 1206.77   2
   5   6  10 3976.45 1162.42   4
   5  -6 -10 3882.72 1099.16   1
   5  -6 -11-1683.40 1053.43   1
  -5   6 -11 619.599 826.416   7
   5  -6 -11 1884.37 1132.80   9
  -5  -6  11 1515.35 1035.76   2
   5   6  11 829.045 1080.97   4
  -5   6 -12 2119.93 1018.49   7
   5  -6 -12 744.476 1070.67   9
  -5  -6  12-14.1530 913.812   2
   5   6  12 3193.85 1270.34   4
  -5   6 -13 6186.29 1283.20   7
   5  -6 -13 6592.71 1406.09   9
  -5  -6  13 5594.86 1397.19   2
   5   6  13 5956.65 1500.66   4
  -5   6 -14 6233.33 1348.42   7
   5  -6 -14 7515.40 1458.30   9
  -5  -6  14 9283.32 1801.76   2
   5   6  14 5579.04 1407.27   4
  -5   6 -15-1660.07 1113.81   7
   5  -6 -15 2612.42 1390.16   9
  -5  -6  15 731.828 1200.80   2
  -5   6 -15 293.374 1059.06   8
   5   6  15 338.066 864.710   4
  -5   6 -16 4937.66 1365.89   7
   5  -6 -16 4236.14 1429.66   9
  -5  -6  16 5883.15 1609.14   2
   5   6  16 2425.82 1298.80   4
  -5   6 -16 5857.29 1306.73   8
  -5   6 -17-2475.84 1279.64   7
   5  -6 -17-208.290 1245.58   9
  -5   6 -18 1764.13 1279.98   7
  -5   6 -19 3165.64 1250.18   7
   5   7 -14 143.915 1030.65   4
   5  -7  14-182.362 1270.96   1
  -5  -7 -13 7454.72 1426.14   7
  -5   7  13 5753.19 1686.27   3
   5   7 -13 9027.73 1608.01   4
   5  -7  13 9054.97 1791.13   1
  -5  -7 -12 1838.49 1252.34   7
  -5   7  12 464.840 1427.65   3
   5   7 -12 496.993 996.692   4
   5  -7  12 2706.99 1348.42   1
  -5  -7 -11 11892.1 1795.61   7
  -5   7  11 14158.6 2281.89   3
   5   7 -11 13526.8 1813.48   4
   5  -7  11 13371.6 1933.54   1
   5  -7  10-903.375 1324.34   1
  -5  -7 -10-296.192 995.872   7
  -5   7  10 1064.54 1366.70   3
   5   7 -10 442.720 1002.20   4
   5  -7   9 6773.44 1445.15   1
  -5  -7  -9 6540.16 1407.50   7
  -5   7   9 7633.00 1621.02   3
   5   7  -9 7539.64 1557.79   4
  -5  -7  -8 4030.83 1289.26   7
   5  -7   8 2784.46 1272.61   1
  -5   7   8 2777.32 1334.73   3
   5   7  -8 3040.60 1249.69   4
  -5  -7  -7 8482.00 1545.46   7
   5  -7   7 8779.65 1500.54   1
  -5   7   7 10156.1 1797.03   3
   5   7  -7 9026.68 1594.26   4
  -5  -7  -6 8360.92 1495.72   7
   5  -7   6 10651.2 1605.08   1
  -5   7   6 9460.45 1641.58   3
   5   7  -6 9712.95 1549.96   4
  -5  -7  -5 7981.09 1484.55   7
  -5   7   5 9525.86 1657.47   3
   5  -7   5 9844.28 1517.30   1
   5   7  -5 7289.98 1407.38   4
  -5  -7  -4 3053.10 1315.98   7
  -5   7   4 2451.53 1286.18   3
   5  -7   4 3938.23 1266.29   1
   5   7  -4 1920.94 1150.94   4
  -5  -7  -3 5015.26 1276.01   7
  -5   7   3 5092.46 1367.39   3
   5  -7   3 4967.80 1249.84   1
  -5  -7  -3 7602.05 1164.36   2
   5   7  -3 7294.47 1380.11   4
  -5   7   2 3437.22 1142.70   3
   5  -7   2 4382.12 1312.99   1
  -5  -7  -2 1897.30 845.159   2
   5   7  -2 3855.76 1226.22   4
  -5   7   1 4735.42 1140.67   3
   5  -7   1 4519.97 1303.68   1
  -5  -7  -1 2040.96 945.014   2
   5   7  -1 2795.63 1060.96   4
  -5   7   0 12693.8 1661.24   3
   5  -7   0 8015.18 1369.87   1
  -5  -7   0 12823.2 1467.10   2
   5   7   0 14398.4 1770.43   4
  -5   7  -1 5124.55 1155.10   3
  -5  -7   1 6547.31 1220.71   2
   5  -7  -1 7214.33 1370.97   1
   5   7   1 5581.81 1362.65   4
  -5   7  -2 3003.83 934.030   3
  -5  -7   2 1680.37 888.398   2
   5  -7  -2 1597.69 1006.24   1
   5   7   2 404.123 1075.64   4
  -5  -7   3 8070.73 1328.25   2
   5   7   3 6807.48 1439.52   4
   5  -7  -3 6437.55 1340.04   1
   5  -7  -4 3189.27 1254.96   1
  -5  -7   4 3150.40 1022.44   2
   5   7   4 1100.19 1064.11   4
   5  -7  -5 9913.53 1534.77   1
  -5  -7   5 10594.7 1590.88   2
   5   7   5 14075.5 1834.77   4
   5  -7  -6 11695.4 1597.04   1
  -5  -7   6 8691.57 1532.03   2
   5   7   6 6796.32 1312.55   4
   5  -7  -7 8014.01 1492.69   1
   5  -7  -7 6839.33 1355.15   9
  -5  -7   7 6993.20 1337.10   2
   5   7   7 9491.19 1639.90   4
   5  -7  -8 2516.55 1169.37   1
   5  -7  -8 812.430 1082.39   9
  -5  -7   8 3912.96 1316.89   2
   5   7   8 3138.42 1128.14   4
   5  -7  -9 7389.85 1455.54   1
   5  -7  -9 7608.06 1366.55   9
  -5  -7   9 8524.79 1583.09   2
   5   7   9 7427.19 1509.56   4
   5  -7 -10 2865.30 1238.23   9
   5  -7 -10 2588.02 1093.76   1
  -5  -7  10 3609.32 1244.91   2
   5   7  10 171.359 1136.51   4
   5  -7 -11 14247.4 1892.54   9
  -5  -7  11 10761.4 1680.45   2
   5   7  11 11228.9 1643.49   4
   5  -7 -11 13779.8 1713.45   1
   5  -7 -12 1468.57 1233.74   9
  -5  -7  12 577.655 1090.19   2
   5   7  12 2610.36 1230.08   4
   5  -7 -13 7988.77 1550.16   9
  -5  -7  13 5206.91 1638.06   2
   5   7  13 8567.91 1587.12   4
   5  -7 -14-246.968 1112.53   9
   5   8 -13 463.198 1325.64   4
   5   8 -12 1628.37 1240.77   4
   5  -8  11 4561.27 1321.70   1
   5   8 -11 2444.49 1164.35   4
   5  -8  10 1160.58 1013.00   1
  -5   8  10 1660.43 1443.30   3
   5   8 -10 3660.92 1516.39   4
  -5  -8  -9 126.499 1000.08   7
   5  -8   9-1009.16 1090.95   1
  -5   8   9-2724.03 1493.88   3
   5   8  -9 301.782 1081.24   4
  -5  -8  -8 575.116 1236.14   7
   5  -8   8 2331.33 1096.10   1
  -5   8   8 1134.32 1114.66   3
   5   8  -8 1734.44 1143.68   4
  -5  -8  -7 6810.48 1445.29   7
   5  -8   7 4052.64 1276.01   1
  -5   8   7 5080.31 1642.28   3
   5   8  -7 5284.72 1414.70   4
  -5  -8  -6 13175.9 1924.45   7
   5  -8   6 9907.73 1548.80   1
  -5   8   6 10690.6 1816.78   3
   5   8  -6 10843.6 1744.88   4
  -5  -8  -5 4497.77 1248.58   7
  -5   8   5 5562.80 1571.15   3
   5  -8   5 4637.47 1218.42   1
   5   8  -5 5972.15 1299.77   4
  -5   8   4 4507.76 1478.59   3
   5  -8   4 5253.11 1315.98   1
   5   8  -4 6913.71 1586.15   4
  -5   8   3-820.913 1137.66   3
   5  -8   3-235.045 993.292   1
   5   8  -3 1973.19 1231.88   4
  -5   8   2 9749.65 1680.42   3
   5  -8   2 9545.94 1633.27   1
  -5  -8  -2 9711.42 1349.69   2
   5   8  -2 10211.7 1640.35   4
  -5   8   1 2648.15 1207.35   3
   5  -8   1 6353.40 1422.17   1
  -5  -8  -1 5221.48 1177.16   2
   5   8  -1 3955.64 1380.76   4
  -5   8   0 18457.9 1916.91   3
   5  -8   0 13976.2 1826.24   1
  -5  -8   0 16949.5 1682.21   2
   5   8   0 16844.1 2052.50   4
  -5  -8   1 5057.57 1166.43   2
   5  -8  -1 2544.97 1176.71   1
   5   8   1 3187.87 1401.01   4
  -5  -8   2 9792.05 1401.73   2
   5  -8  -2 10660.8 1629.59   1
   5   8   2 8082.31 1550.06   4
  -5  -8   3 2081.91 1073.21   2
   5   8   3-667.812 985.340   4
   5  -8  -3-314.116 959.084   1
   5  -8  -4 3602.49 1307.53   1
  -5  -8   4 2312.51 989.824   2
   5   8   4 3725.96 1196.83   4
   5  -8  -5 5070.53 1313.19   1
  -5  -8   5 4823.26 1253.72   2
   5   8   5 2451.28 1264.85   4
   5  -8  -6 7703.15 1500.23   1
  -5  -8   6 12964.7 1763.85   2
   5   8   6 10312.9 1664.86   4
   5  -8  -7 4957.69 1442.85   1
  -5  -8   7 5247.12 1339.44   2
   5   8   7 6463.49 1587.69   4
   5  -8  -8 630.444 954.468   1
   5  -8  -8 1123.71 1102.10   9
  -5  -8   8 831.692 1134.47   2
   5   8   8 601.052 912.011   4
   5  -8  -9 1483.27 1292.27   1
   5  -8  -9-233.491 985.078   9
  -5  -8   9 1815.05 1209.04   2
   5   8   9 1529.78 1199.69   4
   5  -8 -10 1007.99 1062.62   1
   5  -8 -10 3344.99 1336.58   9
  -5  -8  10 2363.79 1159.55   2
   5  -8 -11 5365.10 1406.96   1
  -5   9   7 1600.03 1171.79   3
  -5   9   6 2387.36 1443.96   3
  -5   9   5 208.061 1087.79   3
   5  -9   5-1694.18 1403.15   1
  -5   9   4 1506.84 1229.95   3
   5  -9   4 621.180 1182.58   1
  -5   9   3 4207.27 1396.61   3
   5  -9   3 1227.87 1003.70   1
   5  -9   2 1172.25 1067.78   1
   5  -9   1 1893.10 1125.38   1
   5  -9   0 6481.12 1556.22   1
   5  -9  -1 3067.30 1491.67   1
  -5  -9   2 1845.79 1010.82   2
   5  -9  -2 1421.89 1292.23   1
  -5  -9   3 2193.82 1066.18   2
   5  -9  -3 894.945 1087.51   1
  -5  -9   4 3368.69 1157.79   2
   5  -9  -4 4603.51 1429.16   1
   5  -9  -5 746.568 1266.33   1
  -5  -9   5 604.132 1025.93   2
   5  -9  -6 2971.89 1241.21   1
  -5  -9   6 1955.75 1169.25   2
   5  -9  -7-1299.48 1149.27   1
  -5  -9   7 359.917 940.458   2
   5  -9  -8 3099.06 1445.12   1
  -6   0   0 23170.6 1595.24   7
   6   0   0 24851.2 2089.17   6
   6   0   0 29947.1 2134.25   5
   6   0   0 25117.9 1369.41   4
  -6   0   1 70373.2 2797.89   7
  -6   0  -1 74907.2 2890.69   7
   6   0   1 75267.8 3618.67   6
   6   0  -1 78466.6 3624.85   6
   6   0  -1 72593.0 3397.84   5
   6   0   1 67029.9 3213.12   5
   6   0  -1 68466.1 2346.84   4
   6   0   1 70381.5 2509.89   4
  -6   0   2 15357.5 1286.13   7
  -6   0  -2 15035.6 1358.82   7
   6   0   2 18580.3 1844.64   6
   6   0  -2 17760.0 1904.98   6
   6   0  -2 15789.3 1744.69   5
   6   0   2 18148.6 1661.31   5
   6   0  -2 17124.4 1055.33   4
   6   0   2 17466.3 1260.49   4
   6   0   3 3704.14 739.370   4
  -6   0   3 2290.43 692.917   7
  -6   0  -3 4582.04 895.571   7
   6   0   3 3262.17 1229.16   6
   6   0  -3 1024.49 1025.16   6
   6   0  -3 2991.21 1203.14   5
   6   0   3 3014.22 972.432   5
   6   0   4-185.549 582.489   4
  -6   0  -4 384.809 708.546   7
   6   0   4 1275.14 1226.39   6
   6   0  -4 1445.71 1160.68   6
   6   0  -4 182.723 907.767   5
   6   0   4 359.265 771.317   5
  -6   0  -5 29114.2 1917.67   7
   6   0   5 35067.1 2528.29   6
   6   0  -5 37233.3 2528.36   6
   6   0  -5 33207.3 2450.55   5
   6   0   5 33660.8 2097.83   5
   6   0   5 34322.6 1893.36   4
  -6   0  -6 27846.5 1929.53   7
   6   0   6 28277.9 1471.98   1
   6   0   6 29044.1 2373.04   6
   6   0  -6 30548.3 2273.53   6
   6   0  -6 27061.8 2230.86   5
   6   0   6 29383.6 1964.31   5
  -6   0   6 30566.9 2094.33   2
   6   0   6 32352.7 1885.20   4
  -6   0  -7 28329.7 1964.82   7
  -6   0   7 28738.3 2407.29   3
   6   0   7 26578.4 1522.79   1
   6   0   7 29987.8 2371.20   6
   6   0  -7 30579.9 2254.01   6
   6   0  -7 27731.7 2305.07   5
   6   0   7 28782.3 1891.83   5
  -6   0   7 31156.6 2100.87   2
   6   0   7 27124.2 1820.66   4
   6   0   8 13309.0 1349.11   4
  -6   0  -8 11786.6 1415.63   7
   6   0   8 11436.1 1085.69   1
  -6   0   8 13536.4 1777.10   3
   6   0   8 13816.5 1775.83   6
   6   0  -8 12454.7 1536.64   6
   6   0  -8 13174.3 1725.32   5
   6   0   8 12136.7 1284.86   5
  -6   0   8 12856.5 1530.63   2
   6   0   9 524.671 723.196   4
  -6   0  -9-38.0699 856.676   7
   6   0   9 497.770 585.976   1
  -6   0   9 141.539 844.067   3
   6   0   9 859.906 1080.18   6
   6   0  -9 208.096 939.775   6
   6   0  -9 1759.68 945.015   5
   6   0   9-785.032 627.998   5
  -6   0   9-52.0057 751.427   2
   6   0  10-181.628 820.397   4
  -6   0 -10 868.958 888.987   7
   6   0  10 1254.03 726.310   1
  -6   0  10 952.820 1081.11   3
   6   0  10-574.010 918.048   6
   6   0 -10 16.4239 900.575   6
   6   0 -10-685.983 913.675   5
  -6   0  10 139.309 906.920   2
  -6   0 -11 7073.54 1304.62   7
   6   0  11 10842.1 1210.80   1
  -6   0  11 7006.01 1552.48   3
   6   0  11 9857.78 1634.46   6
   6   0 -11 8497.77 1411.33   6
   6   0 -11 9339.63 1496.79   5
  -6   0  11 8115.49 1372.98   2
   6   0  12 3770.18 869.743   1
  -6   0 -12 2853.57 950.380   7
  -6   0  12 2963.37 1156.39   3
   6   0  12 4929.66 1209.30   6
   6   0 -12 3087.66 1074.30   6
   6   0 -12 3549.11 1318.93   5
  -6   0  12 709.635 935.472   2
   6   0  13 4044.49 938.527   1
  -6   0 -13 5867.08 1205.33   7
  -6   0  13 6228.78 1444.11   3
   6   0  13 6332.56 1463.14   6
   6   0 -13 4449.10 1106.60   6
   6   0 -13 4290.11 1381.71   5
  -6   0  13 5326.40 1244.64   2
   6   0 -13 4128.48 963.310   9
   6   0  14 1478.25 847.160   1
  -6   0 -14-208.925 1050.80   7
  -6   0  14 2945.80 1464.16   3
   6   0  14 2576.77 1184.61   6
   6   0 -14 1503.44 967.530   6
   6   0 -14 2604.68 1297.04   5
  -6   0  14 1776.50 1078.20   2
   6   0 -14 873.986 842.892   9
   6   0  15 5838.06 1145.76   1
  -6   0 -15 5017.61 1211.09   7
  -6   0  15 5337.27 1405.52   3
   6   0  15 5224.88 1400.24   6
   6   0 -15 8156.26 1636.19   5
  -6   0  15 2766.09 1109.67   2
   6   0 -15 5251.94 1035.83   9
   6   0  16 3858.55 1066.76   1
  -6   0 -16 1160.45 944.163   7
  -6   0  16 3137.19 1274.23   3
   6   0  16 2944.99 1238.94   6
   6   0 -16 844.036 1247.13   5
  -6   0  16 1332.59 1016.69   2
   6   0 -16 1501.84 893.348   9
   6   0  17 10023.7 1471.87   1
  -6   0 -17 12835.6 1827.97   7
  -6   0  17 11422.5 1774.43   3
   6   0  17 14110.9 1853.23   6
   6   0 -17 11624.2 1865.86   5
  -6   0  17 12251.0 1668.85   2
   6   0 -17 12896.8 1583.11   9
   6   0  18 1798.96 971.831   1
  -6   0 -18 1169.35 978.543   7
  -6   0  18 2765.75 1203.11   3
   6   0  18 3576.94 1327.40   6
   6   0 -18 1255.53 1240.03   5
  -6   0  18 2958.46 1189.85   2
   6   0  19 872.988 880.670   1
  -6   0 -19-1226.98 1352.41   7
  -6   0  19 932.858 1261.16   3
   6   0  19 2542.62 1256.80   6
   6   0 -19-764.968 1434.27   5
  -6   0  19 4099.20 1389.66   2
   6   0  20 853.563 1080.54   1
  -6   0  20 24.7210 1250.85   3
   6   0  20 1071.40 949.553   6
  -6   0  20-495.458 983.423   2
   6   0  21 749.304 1118.84   1
  -6   0  21 295.963 1024.94   2
   6  -1  21 728.716 984.420   1
   6  -1  20 2756.96 1099.12   1
  -6   1  20 1424.62 1130.07   2
  -6  -1 -19 2535.32 1256.26   7
   6  -1  19 1468.78 987.977   1
  -6   1  19 2388.91 1372.97   3
   6  -1  19 700.373 1055.52   6
   6   1 -19 2787.39 1243.17   5
  -6   1  19 3680.97 1130.64   2
  -6  -1 -18 2721.66 1400.60   7
   6  -1  18 2486.71 1034.92   1
  -6   1  18 5363.77 1578.59   3
   6  -1  18 3364.12 1194.33   6
   6   1 -18 3460.92 1513.89   5
  -6   1  18 2022.69 1110.94   2
  -6  -1 -17 6468.96 1411.87   7
   6  -1  17 5774.60 1221.98   1
  -6   1  17 3895.64 1448.59   3
   6  -1  17 4965.21 1290.46   6
   6   1 -17 6791.20 1613.68   5
  -6   1  17 4741.51 1223.82   2
  -6  -1 -16 3520.20 1230.00   7
  -6   1  16 2728.37 1311.27   3
   6  -1  16 3523.75 1026.27   1
   6  -1  16 1991.11 1113.32   6
   6   1 -16 1906.02 1210.51   5
  -6   1  16 2661.28 1044.15   2
  -6  -1 -15 5747.31 1387.05   7
  -6   1  15 5313.81 1601.02   3
   6  -1  15 3615.13 1049.16   1
   6  -1  15 5089.14 1246.20   6
   6   1 -15 3227.49 1242.73   5
  -6   1  15 2393.37 955.005   2
  -6  -1 -14 9803.53 1537.36   7
  -6   1  14 10855.3 1789.07   3
   6  -1  14 9927.43 1353.10   1
   6  -1  14 9688.46 1517.68   6
   6   1 -14 10478.2 1412.36   6
   6   1 -14 10893.1 1748.72   5
  -6   1  14 9356.06 1379.00   2
  -6  -1 -13 5781.40 1356.84   7
  -6   1  13 6091.90 1496.55   3
   6  -1  13 6616.58 1150.18   1
   6  -1  13 4976.14 1267.19   6
   6   1 -13 4954.08 1144.73   6
   6   1 -13 6460.54 1524.15   5
  -6   1  13 6121.96 1172.43   2
  -6  -1 -12 22908.2 1996.16   7
  -6   1  12 17847.5 2035.68   3
   6  -1  12 23105.2 1821.27   1
   6  -1  12 24562.3 2178.48   6
   6   1 -12 21761.4 1889.58   6
  -6   1  12 19693.1 1771.74   2
   6   1 -12 24065.5 2327.36   5
  -6  -1 -11 18797.1 1821.94   7
  -6   1  11 23297.8 2361.48   3
   6  -1  11 20607.9 1651.77   1
   6  -1  11 21955.0 2114.96   6
   6   1 -11 19495.1 1844.62   6
  -6   1  11 22383.2 1888.37   2
   6   1 -11 20672.1 2145.89   5
  -6  -1 -10 11178.5 1482.08   7
  -6   1  10 10333.7 1619.92   3
   6  -1  10 11848.3 1266.58   1
   6   1 -10 7265.39 1279.70   6
   6  -1  10 12837.1 1674.29   6
   6   1 -10 11692.3 1657.17   5
  -6   1  10 10599.0 1393.73   2
  -6   1   9 20627.8 1927.68   8
  -6  -1  -9 20869.8 1881.34   7
  -6   1   9 20045.3 2176.74   3
   6  -1   9 19440.1 1487.50   1
   6   1  -9 19263.1 1883.70   6
   6  -1   9 18626.8 2003.27   6
   6   1  -9 19758.9 2092.87   5
  -6   1   9 17176.7 1644.41   2
  -6   1   8 20611.5 1885.25   8
  -6  -1  -8 17158.2 1624.61   7
  -6   1   8 19171.3 2090.86   3
   6  -1   8 18647.6 1442.23   1
   6   1  -8 18236.3 1804.20   6
   6  -1   8 19905.7 2051.46   6
   6  -1   8 18134.7 1441.40   5
   6   1  -8 17047.0 1919.16   5
  -6   1   7 10136.9 1391.29   8
  -6  -1  -7 7769.63 1167.96   7
  -6   1   7 10641.4 1695.00   3
   6  -1   7 10199.5 1050.94   1
   6   1  -7 8146.41 1449.23   6
   6  -1   7 8427.72 1414.11   6
   6   1  -7 10764.1 1503.97   5
   6  -1   7 9067.56 1109.47   5
  -6   1   6 20728.5 1977.99   8
  -6  -1  -6 20108.5 1708.02   7
  -6   1   6 19977.8 2066.11   3
   6  -1   6 19008.6 1318.70   1
   6   1  -6 15315.4 1694.51   6
   6  -1   6 21496.4 1984.79   6
   6  -1   6 18797.8 1582.55   5
   6   1  -6 21355.4 2080.58   5
  -6  -1  -5 18435.1 1640.22   7
  -6   1   5 18321.3 1975.19   3
   6  -1   5 16935.2 1200.16   1
   6   1  -5 19315.4 1882.78   6
   6  -1   5 18340.6 1849.80   6
   6  -1   5 17423.4 1557.35   5
   6   1  -5 20062.9 1907.13   5
   6  -1   5 19353.2 1404.94   4
  -6   1   5 22167.5 1889.89   8
  -6   1   4 15388.0 1673.18   8
  -6  -1  -4 17594.9 1532.16   7
  -6   1   4 16801.1 1814.38   3
   6   1  -4 16919.3 1767.35   6
   6  -1   4 15647.6 1831.39   6
   6  -1   4 18458.7 1607.78   5
   6   1  -4 15262.3 1791.35   5
   6  -1   4 18271.6 1323.42   4
  -6   1   3 8706.65 1459.00   8
   6  -1   3 8339.04 901.100   4
  -6   1   3 7686.02 901.377   7
  -6  -1  -3 8314.77 1137.12   7
  -6   1   3 10512.0 1542.15   3
   6  -1   3 9254.75 1520.91   6
   6  -1   3 7079.70 1157.03   5
   6   1  -3 8954.89 1454.07   5
   6   1  -3 7185.33 797.354   4
  -6   1   2 8413.20 1433.32   8
   6  -1   2 8787.84 897.060   4
  -6   1   2 6834.04 864.448   7
  -6  -1  -2 7574.83 1070.89   7
   6  -1   2 7653.65 1370.16   6
   6  -1   2 8744.08 1266.81   5
   6   1  -2 8181.19 1412.71   5
   6   1  -2 8422.35 852.480   4
  -6   1   1 10947.2 1480.27   8
   6  -1   1 10393.2 908.724   4
  -6   1   1 11612.8 1119.14   7
  -6  -1  -1 10582.9 1208.13   7
   6  -1   1 10895.9 1586.90   6
   6  -1   1 13031.3 1463.72   5
   6   1  -1 9872.69 1397.05   5
   6   1  -1 10427.5 990.403   4
  -6  -1   0 30454.1 1945.70   7
  -6   1   0 32365.5 1742.20   7
   6  -1   0 36029.8 2455.23   6
   6  -1   0 29732.6 2147.47   5
   6   1   0 32874.1 2278.85   5
   6   1   0 29132.5 1604.85   4
   6  -1   0 32768.6 1489.35   4
  -6   1   0 34209.7 2386.53   8
  -6   1  -1 16472.8 1788.78   8
  -6  -1   1 12888.1 1321.81   7
  -6   1  -1 13786.2 1205.84   7
   6  -1  -1 16571.5 1804.43   6
   6  -1  -1 15099.5 1641.86   5
   6   1   1 13788.7 1595.19   5
   6   1   1 13610.2 1115.56   4
  -6   1  -2 11543.5 1554.51   8
  -6  -1   2 10735.4 1227.47   7
  -6   1  -2 11200.7 1119.18   7
   6  -1  -2 14261.0 1704.36   6
   6  -1  -2 8936.42 1358.00   5
   6   1   2 13025.7 1524.74   5
   6   1   2 10569.6 1087.62   4
  -6   1  -3 6704.36 1214.66   8
  -6  -1   3 6727.74 1018.34   7
  -6   1  -3 5953.52 937.080   7
   6  -1  -3 5269.57 1371.94   6
   6  -1  -3 5131.79 1267.85   5
   6   1   3 4216.43 1000.79   5
   6   1   3 4389.26 807.163   4
  -6   1  -4 19932.7 1927.66   8
  -6   1  -4 23254.6 1625.79   7
   6  -1  -4 18446.8 1859.04   6
   6  -1  -4 22192.0 1948.44   5
   6   1   4 21814.8 1833.29   5
  -6  -1   4 22340.8 1850.02   2
   6   1   4 18515.8 1450.28   4
  -6   1  -5 19291.0 1849.25   8
  -6   1  -5 16974.0 1439.51   7
   6  -1  -5 19362.4 1896.49   6
   6  -1  -5 17937.7 1841.88   5
   6   1   5 17329.4 1643.82   5
  -6  -1   5 19749.0 1809.12   2
   6   1   5 17817.3 1455.80   4
  -6   1  -6 20883.9 1644.25   7
   6  -1  -6 26518.5 2162.77   6
   6   1   6 23407.2 1803.91   5
   6  -1  -6 22067.7 2046.29   5
  -6  -1   6 22926.6 1915.22   2
   6   1   6 21024.7 1592.62   4
   6  -1  -6 22738.1 1352.25   9
  -6   1  -6 24123.1 2037.03   8
  -6   1  -7 9202.27 1457.12   8
   6   1   7 9117.95 1169.56   4
  -6   1  -7 9087.50 1199.66   7
   6  -1  -7 8227.14 1352.04   6
   6  -1  -7 7370.34 1379.19   5
   6   1   7 8578.28 1213.59   5
  -6  -1   7 7803.83 1191.98   2
   6  -1  -7 9208.50 975.731   9
  -6   1  -8 19269.8 1649.44   7
   6   1   8 18210.0 1273.43   1
   6  -1  -8 18152.6 1822.18   6
   6   1   8 19629.4 1625.56   5
   6  -1  -8 18015.5 1870.56   5
   6  -1  -8 17805.9 1340.39   9
   6   1   8 21097.5 1719.22   4
  -6  -1   8 20250.9 1855.76   2
   6   1   9 16883.6 1604.69   4
  -6   1  -9 16383.0 1578.99   7
   6   1   9 15320.4 1253.11   1
   6  -1  -9 20172.6 1946.19   6
   6  -1  -9 17839.9 1873.75   5
   6   1   9 15528.4 1430.52   5
   6  -1  -9 17541.5 1386.74   9
  -6  -1   9 17070.6 1697.77   2
   6   1  10 11689.8 1425.43   4
   6   1  10 12650.5 1184.85   1
  -6   1 -10 9790.92 1321.08   7
   6  -1 -10 11448.5 1531.04   6
   6  -1 -10 13548.2 1689.09   5
  -6  -1  10 12788.1 1549.13   2
   6  -1 -10 12569.4 1228.30   9
   6   1  11 17567.1 1700.05   4
  -6   1 -11 18839.7 1824.75   7
   6   1  11 19755.8 1504.53   1
   6  -1 -11 16423.9 1746.61   6
   6  -1 -11 19803.1 2126.42   5
   6  -1 -11 17424.9 1485.24   9
  -6   1 -12 21761.1 1976.27   7
   6   1  12 23043.6 1701.35   1
   6  -1 -12 22309.6 2013.32   6
   6  -1 -12 25299.5 2352.87   5
   6  -1 -12 24744.5 1794.40   9
   6   1  12 21325.5 1893.62   4
  -6  -1  12 26092.7 2178.01   2
   6   1  13 8964.10 1414.13   4
   6   1  13 8540.98 1157.07   1
  -6   1 -13 6515.70 1270.22   7
   6  -1 -13 6994.76 1327.91   6
   6  -1 -13 9187.69 1635.67   5
  -6  -1  13 9875.20 1559.70   2
   6  -1 -13 6906.59 1081.96   9
   6   1  14 9536.75 1454.28   4
   6   1  14 7829.85 1128.28   1
  -6   1 -14 10037.7 1496.39   7
   6  -1 -14 8524.41 1347.42   6
   6  -1 -14 9367.69 1664.89   5
  -6  -1  14 11070.4 1644.01   2
   6  -1 -14 11794.8 1419.92   9
   6   1  15 3458.57 1199.94   4
   6   1  15 3928.27 969.738   1
  -6   1 -15 5747.11 1347.41   7
   6  -1 -15 2611.14 1050.89   6
   6  -1 -15 3861.34 1385.03   5
  -6  -1  15 3210.74 1206.01   2
   6  -1 -15 4319.19 1097.83   9
   6   1  16 144.152 935.684   4
   6   1  16 1430.96 872.115   1
   6   1  16 2309.33 1195.36   6
   6  -1 -16 1543.22 1299.39   5
  -6  -1  16 3674.87 1243.42   2
   6  -1 -16 1055.91 967.475   9
   6   1  17 2090.89 1223.37   4
   6   1  17 6312.64 1247.80   1
  -6   1 -17 5111.44 1257.20   7
   6   1  17 3323.72 1170.05   6
   6  -1 -17 2169.59 1141.94   5
  -6  -1  17 5913.54 1451.62   2
   6  -1 -17 4564.53 1155.66   9
   6   1  18 6248.52 1533.96   4
   6   1  18 2024.85 882.711   1
  -6   1 -18 4017.42 1402.55   7
   6   1  18 3266.48 1193.74   6
   6  -1 -18 2486.88 1452.53   5
  -6  -1  18 3081.06 1199.25   2
   6  -1 -18 3063.80 1026.09   9
   6   1  19 1657.97 1064.51   1
   6   1  19 4657.38 1471.16   4
  -6   1 -19 4446.94 1317.88   7
   6   1  19 4043.49 1328.11   6
   6  -1 -19 5637.65 1659.79   5
  -6  -1  19 2398.38 1292.33   2
   6  -1 -19 3208.94 1291.01   9
   6   1  20 1782.84 1137.61   1
   6   1  20 2053.96 1144.42   6
  -6  -1  20-281.809 1200.79   2
   6  -1 -20 344.906 1043.06   9
   6   1  21 1371.10 1068.57   1
   6  -1 -21 405.294 953.927   9
   6  -2  20 2221.64 1302.02   1
   6  -2  19 2451.34 1324.82   1
   6  -2  19 1172.93 1139.46   6
   6   2 -19 785.824 1385.86   5
  -6   2  18 970.393 1144.18   3
   6  -2  18 1107.26 1134.62   1
   6  -2  18 2475.10 1209.72   6
   6   2 -18 663.210 1118.39   5
  -6   2  18-608.030 871.400   2
  -6  -2 -17 5353.45 1420.46   7
  -6   2  17 2093.09 1139.71   3
   6  -2  17 3977.27 1211.87   1
   6  -2  17 4273.48 1263.58   6
   6   2 -17 2473.00 1439.19   5
  -6   2  17 2439.27 975.564   2
  -6  -2 -16 1269.07 999.834   7
  -6   2  16-68.9001 1016.30   3
   6  -2  16 1207.30 1014.57   1
   6  -2  16 1293.89 1199.77   6
   6   2 -16 671.434 1231.71   5
  -6   2  16 2469.34 863.568   2
  -6  -2 -15-957.034 1263.35   7
  -6   2  15-447.373 1025.81   3
   6  -2  15 2201.72 1076.22   1
   6  -2  15 2727.62 1298.28   6
   6   2 -15 1200.04 1093.79   5
  -6   2  15 1866.77 896.512   2
  -6   2  14 7251.75 1338.73   8
  -6  -2 -14 5529.53 1367.36   7
  -6   2  14 7580.44 1492.03   3
   6  -2  14 7033.06 1283.86   1
   6  -2  14 6309.23 1334.99   6
   6   2 -14 5396.93 1432.73   5
  -6   2  14 6677.79 1247.86   2
  -6   2  13 2566.69 1087.07   8
  -6  -2 -13 3396.08 1247.44   7
  -6   2  13 3944.08 1332.59   3
   6   2 -13 2631.23 984.050   6
   6  -2  13 2994.66 1187.11   6
   6  -2  13 1671.85 930.015   1
   6   2 -13 2126.72 1362.20   5
  -6   2  12 5444.01 1173.04   8
  -6  -2 -12 4329.02 1135.58   7
  -6   2  12 3475.26 1379.48   3
   6   2 -12 6034.26 1233.35   6
   6  -2  12 7610.77 1528.57   6
   6  -2  12 5334.63 1058.69   1
   6   2 -12 4847.67 1466.61   5
  -6  -2 -11 2094.69 1050.85   7
  -6   2  11 907.424 1026.72   3
   6   2 -11 3196.56 992.893   6
   6  -2  11 4990.09 1415.96   6
   6  -2  11 1325.29 830.768   1
   6   2 -11 5343.71 1587.11   5
  -6   2  11 2218.25 990.887   8
  -6  -2 -10 2173.70 995.713   7
  -6   2  10 3966.90 1371.92   3
   6   2 -10 2136.97 1051.45   6
   6  -2  10 1760.17 1067.54   6
   6  -2  10 882.837 735.569   1
   6   2 -10 821.090 1150.74   5
  -6   2  10 3921.13 1088.78   8
  -6  -2  -9 3568.47 1107.44   7
  -6   2   9 3330.28 1070.59   3
   6   2  -9 3309.73 1089.03   6
   6  -2   9 3350.33 1277.00   6
   6  -2   9 2002.74 841.397   1
   6   2  -9 2671.78 1148.20   5
  -6   2   9 1932.10 1110.80   8
  -6  -2  -8 3955.85 1049.62   7
  -6   2   8 5562.66 1446.94   3
   6  -2   8 3405.19 1240.96   6
   6  -2   8 4161.46 873.701   1
   6   2  -8 4262.70 1349.91   5
  -6   2   8 8647.45 1504.09   8
  -6  -2  -7 7328.71 1163.98   7
  -6   2   7 11183.0 1716.61   3
   6  -2   7 8340.10 1436.65   6
   6  -2   7 8980.19 1084.11   1
   6  -2   7 6705.53 1000.70   5
   6   2  -7 8596.71 1585.90   5
  -6   2   7 7892.31 1339.98   8
  -6  -2  -6 1413.96 784.640   7
  -6   2   6 2471.72 1275.96   3
   6  -2   6 1082.90 973.705   6
   6  -2   6 2369.37 749.650   5
   6  -2   6 1882.37 714.812   1
   6   2  -6 1252.07 1019.85   5
  -6   2   6 3452.67 1202.44   8
  -6  -2  -5 15818.6 1578.82   7
  -6   2   5 17140.9 1938.28   3
   6  -2   5 16752.8 1845.27   6
   6  -2   5 14979.7 1500.84   5
   6  -2   5 14159.7 1204.66   1
   6   2  -5 11266.0 1580.14   5
   6   2  -5 14328.3 1166.96   4
  -6   2   5 13767.3 1606.55   8
  -6  -2  -4 23920.1 1895.10   7
  -6   2   4 24162.8 2110.40   3
   6  -2   4 22590.5 1439.61   1
   6  -2   4 24809.6 2221.49   6
   6  -2   4 23177.7 1823.86   5
   6   2  -4 23833.5 2109.83   5
   6   2  -4 21478.5 1396.30   4
  -6   2   4 22783.1 2041.67   8
  -6  -2  -3 28591.0 1969.67   7
  -6   2   3 28624.8 2342.99   3
   6  -2   3 26394.3 1524.55   1
   6  -2   3 23484.7 2193.65   6
   6  -2   3 30771.9 2055.78   5
   6   2  -3 30717.7 2334.93   5
   6   2  -3 26385.9 1561.27   4
  -6   2   3 27264.1 2215.88   8
  -6   2   2 43132.6 1853.72   7
  -6  -2  -2 44606.9 2440.73   7
  -6   2   2 45368.1 2818.78   3
   6  -2   2 45643.5 2869.47   6
   6  -2   2 43601.3 2490.02   5
   6   2  -2 44466.4 2785.65   5
   6   2  -2 40040.3 1979.23   4
   6  -2   2 43159.3 1858.70   4
  -6   2   2 44570.9 2740.21   8
   6  -2   1 5028.64 673.351   4
  -6   2   1 5302.34 779.675   7
  -6  -2  -1 5256.33 1117.13   7
  -6   2   1 5316.89 1266.34   3
   6  -2   1 6585.83 1485.58   6
   6   2  -1 5266.85 1199.42   5
   6   2  -1 5291.04 824.956   4
  -6   2   1 4763.97 1214.39   8
  -6  -2   0 1157.65 863.348   7
  -6   2   0 841.542 522.156   7
  -6   2   0-182.153 946.205   3
   6  -2   0 1267.71 974.121   6
   6   2   0 3454.83 1203.88   5
   6   2   0 787.587 569.753   4
  -6   2   0 776.707 1022.06   8
  -6  -2   1 4039.80 981.581   7
  -6   2  -1 3739.66 715.836   7
   6  -2  -1 6075.68 1411.25   6
   6   2   1 4482.48 1115.65   5
   6  -2  -1 4050.68 641.548   9
   6   2   1 4080.50 792.939   4
  -6   2  -1 3191.53 1240.37   8
  -6  -2   2 45552.1 2453.08   7
  -6   2  -2 43425.1 2023.60   7
   6  -2  -2 48372.9 2948.63   6
   6   2   2 47441.7 2776.05   5
  -6  -2   2 43907.7 2536.55   2
   6   2   2 42500.2 2168.98   4
   6  -2  -2 44637.7 1865.81   9
  -6   2  -2 49925.5 2912.63   8
  -6   2  -3 22572.5 1498.27   7
   6  -2  -3 23903.7 2188.30   6
  -6  -2   3 22960.9 1935.98   2
   6   2   3 22536.3 1965.92   5
   6   2   3 22701.9 1615.00   4
   6  -2  -3 21713.0 1325.08   9
  -6   2  -3 23351.5 2059.03   8
  -6   2  -4 21195.3 1510.36   7
   6  -2  -4 24841.7 2190.59   6
   6   2   4 21127.5 1905.12   5
   6   2   4 21463.6 1621.59   4
   6  -2  -4 22113.4 1377.37   9
  -6  -2   4 21885.0 1855.20   2
  -6   2  -4 22648.6 2066.69   8
  -6   2  -5 15025.9 1325.20   7
   6  -2  -5 16169.4 1910.63   6
   6   2   5 10980.2 1400.44   5
   6  -2  -5 14501.8 1154.09   9
  -6  -2   5 12447.2 1486.58   2
   6   2   5 10272.2 1198.73   4
  -6   2  -5 13420.3 1679.26   8
  -6   2  -6 2237.96 716.048   7
   6  -2  -6 3139.35 1308.35   6
   6   2   6 2639.62 1023.98   5
  -6  -2   6 2246.47 1111.39   2
   6  -2  -6 2753.11 725.641   9
  -6   2  -6 4391.73 1291.95   8
   6   2   6 2562.07 827.941   4
   6   2   7 5531.99 1058.28   4
  -6   2  -7 5125.71 982.681   7
   6  -2  -7 5226.03 1293.87   6
   6   2   7 5539.60 1118.62   5
  -6  -2   7 5643.73 1253.45   2
   6  -2  -7 4863.46 857.041   9
  -6   2  -7 5585.61 1323.70   8
   6   2   8 6211.72 1174.85   4
  -6   2  -8 4194.53 971.018   7
   6  -2  -8 5194.54 1311.32   6
   6   2   8 4240.81 1054.77   5
  -6  -2   8 5148.86 1273.88   2
   6  -2  -8 3086.41 788.583   9
  -6   2  -8 3565.06 1133.78   8
   6   2   9 2242.22 927.923   4
  -6   2  -9 2198.98 949.709   7
   6  -2  -9 1492.38 1026.95   6
  -6  -2   9 494.472 817.644   2
   6  -2  -9 1433.47 701.852   9
  -6   2  -9 3586.46 1174.30   8
  -6   2 -10 4732.40 1342.53   8
   6   2  10 3962.09 1027.18   4
  -6   2 -10 3210.57 1014.48   7
   6  -2 -10 2675.77 1063.77   6
  -6  -2  10 5834.54 1295.02   2
   6  -2 -10 2919.69 799.065   9
  -6   2 -11 3169.08 1166.35   8
   6   2  11 3461.61 1056.20   4
  -6   2 -11 2103.32 941.282   7
   6  -2 -11 1043.74 1036.60   6
  -6  -2  11 3019.68 1185.54   2
   6  -2 -11 2414.14 848.054   9
   6   2  11 1583.31 634.510   1
  -6   2 -12 6290.74 1305.06   8
   6   2  12 3667.26 1029.07   4
  -6   2 -12 5478.58 1168.76   7
   6  -2 -12 7426.86 1489.46   6
  -6  -2  12 6558.79 1424.10   2
   6  -2 -12 4032.54 985.474   9
   6   2  12 3249.34 787.706   1
   6   2  13 611.606 849.639   4
  -6   2 -13 2320.23 1055.13   7
   6  -2 -13-154.252 918.282   6
  -6  -2  13 2257.43 1186.38   2
   6  -2 -13 1757.04 858.706   9
   6   2  13 224.802 695.251   1
   6   2  14 7047.76 1376.78   4
  -6   2 -14 4733.77 1301.43   7
   6  -2 -14 7021.68 1293.82   6
  -6  -2  14 5239.74 1385.07   2
   6  -2 -14 4976.75 1076.77   9
   6   2  14 5612.04 1092.42   1
   6   2  15-59.6423 1071.04   4
  -6   2 -15 1001.14 884.209   7
   6  -2 -15 797.215 1003.18   6
  -6  -2  15-149.806 1017.99   2
   6  -2 -15-729.846 942.981   9
   6   2  15-368.960 737.517   1
   6   2  16 1184.19 1121.72   4
  -6   2 -16 1193.43 1144.83   7
  -6  -2  16 1116.37 1033.08   2
   6  -2 -16 866.881 845.975   9
   6   2  16 1537.79 992.998   1
   6   2  17 3215.02 1129.00   4
  -6   2 -17 2783.12 1137.64   7
  -6  -2  17 6026.50 1584.41   2
   6  -2 -17 3723.51 1213.31   9
   6   2  17 2375.96 885.294   1
   6   2  18-193.281 1159.93   4
  -6   2 -18 604.567 1192.27   7
  -6  -2  18 555.174 1055.02   2
   6  -2 -18 852.969 931.666   9
   6   2  18 17.3930 845.766   1
  -6   2 -19 1224.47 1073.33   7
  -6  -2  19 2525.14 1324.53   2
   6  -2 -19 1841.09 1197.13   9
   6   2  19 4271.82 1179.77   1
   6  -2 -20 5885.71 1344.80   9
   6   2  20 3360.25 1234.06   1
   6  -2 -21 4578.03 1470.06   9
   6   2  21 442.686 1074.19   1
   6  -3  19 695.151 1158.71   1
   6  -3  18 385.960 1030.63   1
   6  -3  18 1178.64 1057.50   6
   6   3 -18-1510.44 1161.30   5
  -6  -3 -17 3294.63 1391.99   7
  -6   3  17 1280.74 1369.43   3
   6  -3  17 1046.70 1075.09   6
   6  -3  17 1056.87 1175.02   1
   6   3 -17 764.405 1344.21   5
  -6  -3 -16 4951.68 1316.05   7
  -6   3  16 3850.68 1417.92   3
   6  -3  16 4706.84 1475.53   6
   6  -3  16 4291.54 1255.32   1
   6   3 -16 2910.49 1374.64   5
  -6   3  16 3650.60 1046.18   8
  -6  -3 -15 6720.50 1432.50   7
  -6   3  15 8146.78 1676.63   3
   6  -3  15 7815.16 1531.08   6
   6  -3  15 7927.47 1406.54   1
   6   3 -15 6730.44 1470.93   5
  -6   3  15 5849.84 1243.04   8
  -6  -3 -14 8759.67 1487.36   7
  -6   3  14 8275.22 1708.82   3
   6  -3  14 6458.52 1410.49   6
   6  -3  14 7642.88 1369.77   1
   6   3 -14 8781.41 1707.09   5
  -6   3  14 11504.4 1530.27   8
  -6  -3 -13 7114.46 1364.58   7
  -6   3  13 6195.24 1659.09   3
   6   3 -13 6064.37 1240.94   6
   6  -3  13 5629.87 1463.95   6
   6  -3  13 6119.95 1243.03   1
   6   3 -13 8102.22 1703.55   5
  -6   3  13 8155.77 1485.83   8
  -6  -3 -12 6851.52 1352.18   7
  -6   3  12 3453.08 1456.65   3
   6   3 -12 5545.50 1230.44   6
   6  -3  12 4917.51 1353.06   6
   6  -3  12 2210.13 955.180   1
   6   3 -12 5029.49 1411.38   5
  -6   3  12 4705.99 1317.39   8
  -6  -3 -11 7689.96 1499.71   7
  -6   3  11 6798.05 1511.45   3
   6  -3  11 7226.77 1458.19   6
   6  -3  11 7077.38 1275.37   1
   6   3 -11 8444.28 1579.08   5
  -6   3  11 6629.20 1339.73   8
  -6  -3 -10 11228.8 1520.67   7
  -6   3  10 10798.6 1733.53   3
   6  -3  10 10466.9 1721.68   6
   6   3 -10 10140.4 1592.83   5
   6  -3  10 11279.5 1474.74   1
  -6   3  10 10728.1 1622.87   8
  -6  -3  -9 33538.0 2382.12   7
  -6   3   9 32905.1 2665.67   3
   6  -3   9 29328.5 2070.22   1
   6  -3   9 30083.4 2509.31   6
   6   3  -9 29628.3 2592.16   5
  -6   3   9 28675.0 2311.74   8
  -6  -3  -8 13700.9 1622.44   7
  -6   3   8 17413.1 2065.43   3
   6  -3   8 18210.5 2072.75   6
   6   3  -8 16681.4 1973.26   5
   6  -3   8 17615.4 1644.67   1
  -6   3   8 16815.5 1878.80   8
  -6  -3  -7 18579.0 1772.38   7
  -6   3   7 16989.3 2059.47   3
   6  -3   7 21262.9 2094.65   6
   6  -3   7 19109.6 1561.32   5
   6   3  -7 17095.5 2007.11   5
   6  -3   7 17361.9 1550.56   1
  -6   3   7 17237.5 1881.18   8
  -6  -3  -6 3297.80 1063.62   7
  -6   3   6 3588.58 1291.98   3
   6  -3   6 4084.59 1274.72   6
   6  -3   6 4092.30 914.768   5
   6   3  -6 4296.31 1210.42   5
   6  -3   6 3408.83 853.961   1
   6   3  -6 3067.78 811.927   4
  -6   3   6 4271.20 1244.49   8
  -6  -3  -5 2760.38 930.095   7
  -6   3   5 3767.82 1281.65   3
   6  -3   5 3208.40 1179.89   6
   6   3  -5 4443.66 1338.04   5
   6  -3   5 5704.01 944.683   1
   6   3  -5 4061.80 854.497   4
  -6   3   5 5309.56 1325.59   8
  -6  -3  -4 6909.82 1145.04   7
  -6   3   4 6915.11 1505.26   3
   6  -3   4 7502.09 1421.93   6
   6   3  -4 7334.54 1520.81   5
   6  -3   4 5975.33 927.195   1
   6   3  -4 6397.55 988.528   4
  -6   3   4 6316.24 1317.67   8
  -6  -3  -3 10250.8 1418.51   7
  -6   3   3 15531.8 1830.52   3
   6  -3   3 11807.8 1738.51   6
   6   3  -3 12758.3 1814.46   5
   6  -3   3 12868.7 1209.80   1
   6   3  -3 14185.1 1282.18   4
  -6   3   3 16122.3 1842.61   8
  -6  -3  -2 4926.15 1061.38   7
  -6   3   2 4426.05 1252.98   3
   6  -3   2 5077.99 1263.38   6
   6   3  -2 5149.22 1359.36   5
   6  -3   2 5192.09 852.979   1
   6   3  -2 6812.65 974.560   4
  -6   3   2 3348.71 1237.17   8
  -6  -3  -1 9131.59 1337.84   7
  -6   3   1 9973.63 1484.62   3
   6  -3   1 8490.74 1578.74   6
   6   3  -1 9304.58 1427.60   5
   6  -3   1 8245.90 958.987   1
   6   3  -1 10276.8 1186.15   4
  -6   3   1 12138.1 1752.58   8
  -6  -3   0-613.186 786.741   7
  -6   3   0-544.149 919.389   3
   6  -3   0-1077.11 1020.29   6
   6   3   0 2041.79 1134.50   5
   6   3   0 311.941 653.811   4
  -6   3   0-1143.62 1161.81   8
  -6  -3   1 7035.07 1193.75   7
  -6   3  -1 9920.77 1443.24   3
   6  -3  -1 10529.0 1621.89   6
   6   3   1 7956.36 1470.01   5
  -6  -3   1 10440.4 1359.92   2
   6  -3  -1 7606.87 918.698   9
   6   3   1 9522.68 1199.80   4
  -6   3  -1 11904.2 1660.94   8
  -6  -3   2 4068.78 1018.12   7
  -6   3  -2 2992.18 659.683   7
  -6   3  -2 6087.18 1162.46   3
   6  -3  -2 4674.91 1374.77   6
   6   3   2 3237.25 1198.44   5
  -6  -3   2 4927.18 1021.11   2
   6  -3  -2 4138.34 820.701   9
   6   3   2 3950.67 918.667   4
  -6   3  -2 3747.99 1060.57   8
  -6   3  -3 13956.0 1125.16   7
   6  -3  -3 14172.0 1810.97   6
   6   3   3 16515.1 1822.88   5
   6  -3  -3 15153.1 1235.53   9
  -6  -3   3 17796.3 1704.65   2
   6   3   3 12566.4 1344.77   4
  -6   3  -3 15777.1 1883.44   8
  -6   3  -4 6823.38 903.851   7
   6  -3  -4 6017.54 1373.41   6
   6   3   4 6048.34 1380.46   5
  -6  -3   4 7496.75 1294.85   2
   6  -3  -4 5636.65 887.398   9
   6   3   4 6034.30 1035.82   4
  -6   3  -4 5325.50 1284.25   8
  -6   3  -5 5651.89 899.066   7
   6  -3  -5 7757.37 1520.76   6
   6   3   5 6140.81 1363.36   5
  -6  -3   5 6248.02 1313.87   2
   6  -3  -5 5150.68 899.631   9
   6   3   5 3976.03 914.074   4
  -6   3  -5 6299.75 1480.38   8
  -6   3  -6 2553.16 732.550   7
   6  -3  -6 3995.15 1379.96   6
  -6  -3   6 2583.53 1063.09   2
   6  -3  -6 3774.22 854.839   9
   6   3   6 3262.76 849.193   4
  -6   3  -6 5198.41 1204.87   8
  -6   3  -7 22747.5 1652.77   7
   6  -3  -7 20965.4 2152.82   6
   6  -3  -7 19983.0 1559.83   9
  -6  -3   7 22456.9 1996.82   2
   6   3   7 16342.4 1597.86   4
  -6   3  -7 24425.9 2193.70   8
  -6   3  -8 16633.5 1472.81   7
   6  -3  -8 16358.1 1923.22   6
  -6  -3   8 14612.6 1685.40   2
   6  -3  -8 14876.7 1416.87   9
  -6   3  -8 18530.2 1944.09   8
   6   3   8 16776.6 1697.37   4
  -6   3  -9 30195.8 2016.36   7
   6  -3  -9 31253.2 2552.03   6
  -6  -3   9 29538.0 2340.58   2
   6   3   9 27300.2 2081.99   4
   6  -3  -9 31428.0 1999.32   9
  -6   3  -9 33388.1 2550.80   8
  -6   3 -10 9313.82 1317.56   7
   6  -3 -10 9550.55 1729.92   6
  -6  -3  10 11286.1 1616.20   2
   6  -3 -10 9253.24 1258.46   9
  -6   3 -10 12956.7 1732.74   8
   6   3  10 7658.84 1327.43   4
   6   3  11 7031.01 1304.40   4
  -6   3 -11 6934.06 1225.06   7
   6  -3 -11 6706.65 1407.89   6
  -6  -3  11 5695.58 1255.83   2
   6  -3 -11 7158.99 1158.86   9
  -6   3 -11 7227.87 1361.68   8
   6   3  12 2518.25 1148.21   4
  -6   3 -12 2810.22 955.645   7
   6  -3 -12 2862.47 1134.88   6
   6  -3 -12 2896.33 978.952   9
  -6   3 -12 3513.66 1170.20   8
   6   3  13 7158.64 1373.60   4
  -6   3 -13 6799.78 1306.27   7
   6  -3 -13 3360.41 1270.23   6
  -6  -3  13 5180.86 1394.49   2
   6  -3 -13 6745.15 1180.79   9
  -6   3 -13 10056.1 1620.94   8
  -6   3 -14 9921.96 1501.71   8
   6   3  14 10959.8 1623.69   4
  -6   3 -14 8806.00 1495.49   7
   6  -3 -14 11354.7 1666.01   6
  -6  -3  14 11388.1 1809.63   2
   6  -3 -14 10970.4 1484.09   9
   6   3  14 9301.05 1258.37   1
  -6   3 -15 7045.83 1327.25   8
   6   3  15 7991.39 1534.49   4
  -6   3 -15 6348.78 1422.37   7
  -6  -3  15 9182.38 1774.19   2
   6  -3 -15 6434.61 1320.54   9
   6   3  15 6529.31 1124.35   1
  -6   3 -16 2764.78 1038.30   8
   6   3  16 4811.63 1379.34   4
  -6  -3  16 4240.83 1241.23   2
   6  -3 -16 4899.81 1312.82   9
   6   3  16 3763.44 1011.50   1
   6   3  17 3293.31 1373.75   4
  -6   3 -17 21.2276 989.779   7
  -6  -3  17 2477.19 1473.29   2
   6  -3 -17 1093.67 973.857   9
   6   3  17 381.054 789.091   1
  -6   3 -18-597.915 1101.82   7
   6  -3 -18 1085.40 995.441   9
   6   3  18 576.973 867.984   1
  -6   3 -19-226.140 1223.95   7
   6  -3 -19 210.538 1116.96   9
   6   3  19-463.744 977.262   1
   6  -3 -20-452.934 1139.12   9
   6   3  20 2834.69 1124.14   1
   6  -4  18-25.8942 1089.51   6
   6  -4  18-651.601 1284.35   1
   6  -4  17 6990.18 1616.77   6
   6  -4  17 4871.90 1348.06   1
  -6  -4 -16 4563.27 1510.15   7
  -6   4  16 1604.70 1155.73   3
   6  -4  16 838.078 1153.78   6
   6  -4  16 1424.43 1180.41   1
   6   4 -16 2886.68 1532.45   5
  -6   4  16 1800.13 1094.75   8
  -6  -4 -15-250.499 1127.04   7
  -6   4  15-145.854 1170.44   3
   6  -4  15-18.2793 1130.95   6
   6  -4  15-743.994 1034.16   1
   6   4 -15 1296.70 1260.33   5
  -6   4  15 84.1695 988.246   8
  -6  -4 -14 3594.52 1312.05   7
  -6   4  14 2287.28 1249.68   3
   6  -4  14 2738.82 1168.16   6
   6  -4  14 1909.61 1161.70   1
   6   4 -14-515.992 1059.84   5
  -6   4  14 3592.93 1244.81   8
  -6  -4 -13-389.368 1087.42   7
  -6   4  13 875.680 1035.10   3
   6  -4  13-415.457 1120.56   6
   6   4 -13 269.299 1036.05   5
   6  -4  13 620.249 979.602   1
  -6   4  13 358.569 1085.33   8
  -6  -4 -12 3921.65 1363.95   7
  -6   4  12 3851.30 1365.00   3
   6  -4  12 244.406 1207.73   6
   6   4 -12 3680.81 1454.03   5
   6  -4  12 194.468 913.049   1
  -6   4  12 2774.62 1281.98   8
  -6  -4 -11 4388.05 1359.60   7
  -6   4  11 4988.48 1621.06   3
   6  -4  11 743.640 1034.95   6
   6   4 -11 4378.96 1499.85   5
   6  -4  11 2509.60 1037.34   1
  -6   4  11 4158.38 1314.19   8
  -6  -4 -10 2374.15 1008.07   7
  -6   4  10 4586.98 1432.28   3
   6  -4  10 4871.54 1424.08   6
   6   4 -10 1861.67 1359.37   5
   6  -4  10 3014.71 1111.13   1
  -6   4  10 2490.29 1244.53   8
  -6  -4  -9-47.7679 1033.13   7
  -6   4   9-734.855 1289.54   3
   6  -4   9 449.658 1282.59   6
   6   4  -9-1078.05 1119.46   5
   6  -4   9-686.082 842.235   1
  -6   4   9 445.589 1069.38   8
  -6  -4  -8 8200.06 1452.41   7
  -6   4   8 4547.55 1187.27   3
   6  -4   8 8684.64 1669.81   6
   6   4  -8 7437.59 1648.65   5
   6  -4   8 7602.01 1289.66   1
  -6   4   8 8044.63 1432.72   8
  -6  -4  -7 10365.6 1451.39   7
  -6   4   7 12254.5 1779.33   3
   6  -4   7 9498.14 1586.40   6
   6   4  -7 7820.25 1564.84   5
   6  -4   7 10925.2 1401.54   1
   6   4  -7 8357.06 1182.81   4
  -6   4   7 8269.02 1529.05   8
  -6  -4  -6 10655.9 1531.35   7
  -6   4   6 9843.76 1722.35   3
   6  -4   6 10871.0 1641.95   6
   6   4  -6 12225.6 1903.52   5
   6  -4   6 9989.01 1321.59   1
   6   4  -6 9716.31 1198.18   4
  -6   4   6 8265.68 1492.54   8
  -6  -4  -5 3717.25 1163.28   7
  -6   4   5 4201.41 1398.95   3
   6  -4   5 4645.14 1342.75   6
   6   4  -5 4909.14 1478.85   5
   6  -4   5 2500.90 801.533   1
   6   4  -5 4023.53 847.108   4
  -6   4   5 6434.25 1603.07   8
  -6  -4  -4 16449.3 1741.00   7
  -6   4   4 18224.7 2073.72   3
   6  -4   4 17513.3 2083.66   6
   6   4  -4 18552.1 2156.60   5
   6   4  -4 19643.1 1588.99   4
   6  -4   4 15068.5 1509.59   1
  -6   4   4 16799.7 1971.64   8
  -6  -4  -3 7224.10 1289.59   7
  -6   4   3 5341.99 1298.28   3
   6  -4   3 8115.89 1677.52   6
   6   4  -3 8354.70 1607.46   5
   6   4  -3 5996.92 1107.53   4
   6  -4   3 5312.64 1017.40   1
  -6   4   3 6618.32 1354.93   8
  -6  -4  -2 24832.6 2061.34   7
  -6   4   2 26319.2 2291.98   3
   6  -4   2 24832.4 2329.93   6
   6  -4   2 23373.8 1738.56   1
   6   4  -2 29178.3 2493.83   5
   6   4  -2 27591.8 1904.73   4
  -6   4   2 26350.2 2331.50   8
  -6  -4  -1 20969.9 1946.02   7
  -6   4   1 18205.8 1883.51   3
   6  -4   1 18667.8 2131.02   6
   6  -4   1 18618.9 1532.04   1
   6   4  -1 19202.5 2137.00   5
   6   4  -1 17025.1 1536.93   4
  -6   4   1 16267.2 1982.26   8
  -6  -4   0 20887.7 1892.78   7
  -6   4   0 20327.3 1975.04   3
   6  -4   0 17137.2 2079.31   6
   6  -4   0 19234.0 1556.65   1
   6   4   0 21613.8 2164.97   5
   6   4   0 19327.2 1662.95   4
  -6  -4   0 22732.3 1947.18   2
  -6   4   0 22336.5 2169.14   8
  -6  -4   1 17778.5 1843.94   7
  -6   4  -1 17881.9 1849.94   3
   6  -4  -1 19575.7 2169.68   6
   6   4   1 19242.8 2053.81   5
   6   4   1 17920.4 1636.32   4
  -6  -4   1 19349.7 1790.13   2
  -6   4  -1 18185.0 1944.40   8
  -6   4  -2 26048.1 2135.26   3
   6  -4  -2 24546.6 2342.71   6
  -6  -4   2 23850.7 2002.97   2
   6   4   2 22232.0 2172.42   5
   6   4   2 23338.3 1833.89   4
   6  -4  -2 23833.1 1666.56   9
  -6   4  -2 24637.4 2305.20   8
  -6   4  -3 8955.44 1316.22   3
   6  -4  -3 9093.76 1652.30   6
   6   4   3 5274.94 1365.58   5
  -6  -4   3 7209.50 1228.72   2
   6  -4  -3 8775.75 1097.10   9
   6   4   3 7817.83 1145.30   4
  -6   4  -3 7205.74 1589.05   8
  -6   4  -4 19795.4 1767.15   3
   6  -4  -4 16826.8 1946.11   6
  -6  -4   4 19212.8 1885.03   2
   6  -4  -4 14342.3 1385.96   9
   6   4   4 16935.1 1615.14   4
  -6   4  -4 18181.2 1915.41   8
   6  -4  -5 2105.27 1106.95   6
  -6  -4   5 1638.17 1020.51   2
   6  -4  -5 4389.42 973.893   9
   6   4   5 5240.39 1192.49   4
  -6   4  -5 5556.73 1493.80   8
   6  -4  -6 9713.78 1566.30   6
  -6  -4   6 11363.5 1568.65   2
   6  -4  -6 9321.61 1189.97   9
   6   4   6 8565.13 1325.70   4
  -6   4  -6 10022.7 1647.44   8
  -6   4  -7 9341.99 1132.64   7
   6  -4  -7 11318.5 1804.67   6
  -6  -4   7 14085.9 1715.95   2
   6  -4  -7 10583.8 1315.22   9
   6   4   7 12078.8 1503.73   4
  -6   4  -7 10542.3 1625.71   8
  -6   4  -8 5925.46 1020.75   7
   6  -4  -8 3963.65 1389.93   6
  -6  -4   8 4561.94 1197.48   2
   6  -4  -8 6124.47 1074.65   9
   6   4   8 5063.36 1083.25   4
  -6   4  -8 4677.92 1315.91   8
  -6   4  -9 2029.88 846.505   7
   6  -4  -9 1598.86 1038.64   6
  -6  -4   9-392.751 1056.96   2
   6  -4  -9 593.825 760.728   9
   6   4   9 261.915 957.580   4
  -6   4  -9 1258.00 1235.56   8
  -6   4 -10 2856.83 916.011   7
   6  -4 -10 1581.06 1236.69   6
  -6  -4  10 2224.29 1212.21   2
   6  -4 -10 842.658 911.613   9
   6   4  10 2141.80 1063.13   4
  -6   4 -10 2118.34 1233.92   8
  -6   4 -11 4420.60 1082.63   7
   6  -4 -11 2418.05 1198.90   6
  -6  -4  11 2594.76 1276.89   2
   6  -4 -11 5160.54 1200.70   9
  -6   4 -11 2767.18 1175.93   8
   6   4  11 4821.34 1195.57   4
  -6   4 -12 2642.79 1076.64   7
   6  -4 -12 924.848 1186.10   6
  -6  -4  12 3688.35 1404.98   2
   6  -4 -12 3467.20 1106.38   9
  -6   4 -12 177.460 965.623   8
   6   4  12 1285.17 946.136   4
  -6   4 -13 3070.23 1236.95   7
  -6  -4  13 209.630 1220.98   2
   6  -4 -13-249.818 905.065   9
  -6   4 -13-796.369 1210.80   8
   6   4  13 853.599 975.044   4
  -6   4 -14 3488.32 1178.96   7
  -6  -4  14 1637.00 1280.15   2
   6  -4 -14 4543.29 1152.29   9
  -6   4 -14 2945.97 1160.65   8
   6   4  14 3516.12 1318.78   4
  -6   4 -15-457.669 958.963   7
  -6  -4  15 564.807 1017.58   2
   6  -4 -15-66.9935 1027.59   9
  -6   4 -15 785.715 1093.84   8
   6   4  15 112.731 1134.15   4
  -6   4 -16 4253.79 1216.55   7
  -6  -4  16 415.667 1314.03   2
   6  -4 -16 1028.74 1077.02   9
  -6   4 -16 1770.59 1130.92   8
   6   4  16 1166.98 958.889   4
  -6   4 -17 4658.44 1286.55   7
   6  -4 -17 3131.35 1258.22   9
  -6   4 -18 890.692 1217.02   7
   6  -4 -18-262.469 1160.24   9
   6  -5  17 3736.29 1452.91   6
   6  -5  16-1331.46 1214.04   6
   6  -5  16-1245.63 1248.00   1
  -6   5  16 1279.62 1127.94   8
   6  -5  15 1319.93 1283.14   6
   6  -5  15 23.0894 1045.33   1
  -6   5  15 1553.54 1003.49   8
  -6  -5 -14 3832.13 1432.51   7
  -6   5  14 563.714 1356.85   3
   6  -5  14 2277.11 1242.90   6
   6   5 -14 2837.41 1359.60   5
   6  -5  14 2687.08 1187.69   1
  -6   5  14 3351.50 1339.81   8
  -6  -5 -13 8120.82 1688.30   7
  -6   5  13 4725.08 1562.60   3
   6  -5  13 5544.12 1506.69   6
   6   5 -13 7741.08 1684.61   5
   6  -5  13 7228.69 1517.56   1
  -6   5  13 4792.47 1368.87   8
  -6  -5 -12 17076.3 1998.67   7
  -6   5  12 19507.7 2446.15   3
   6  -5  12 17297.3 2145.09   6
   6   5 -12 16438.2 2173.39   5
   6  -5  12 12072.6 1665.05   1
  -6   5  12 15402.4 1979.05   8
  -6  -5 -11 11653.9 1670.71   7
  -6   5  11 13918.4 2133.82   3
   6  -5  11 11647.6 1833.10   6
   6   5 -11 14040.4 2185.42   5
   6  -5  11 13113.2 1742.74   1
  -6   5  11 12571.9 1806.40   8
  -6  -5 -10 3950.51 1328.35   7
  -6   5  10 4910.86 1342.05   3
   6  -5  10 5207.38 1626.95   6
   6   5 -10 5836.01 1585.97   5
   6  -5  10 4989.11 1326.83   1
  -6   5  10 6156.16 1563.12   8
  -6  -5  -9 1701.95 1102.86   7
  -6   5   9 5694.54 1708.07   3
   6  -5   9 3036.95 1276.67   6
   6   5  -9 6349.02 1651.13   5
   6  -5   9 4011.74 1238.89   1
  -6   5   9 3344.41 1321.22   8
  -6  -5  -8 1375.21 1154.22   7
  -6   5   8 2431.67 1048.06   3
   6  -5   8 4902.82 1455.96   6
   6   5  -8 2513.14 1557.62   5
   6   5  -8 3456.92 1059.02   4
   6  -5   8 2375.66 1020.50   1
  -6   5   8 3652.25 1295.55   8
  -6  -5  -7 8395.73 1381.61   7
  -6   5   7 10246.5 1860.84   3
   6  -5   7 10366.5 1795.31   6
   6   5  -7 10342.7 1786.69   5
   6   5  -7 8146.72 1273.76   4
   6  -5   7 8028.02 1385.38   1
  -6   5   7 6565.98 1563.88   8
  -6  -5  -6 13529.3 1723.32   7
  -6   5   6 9737.35 1779.06   3
   6  -5   6 14468.1 2026.73   6
   6   5  -6 16423.3 2107.43   5
   6   5  -6 12291.7 1480.07   4
   6  -5   6 13561.7 1615.05   1
  -6   5   6 14675.3 1916.68   8
  -6  -5  -5 14122.9 1796.71   7
  -6   5   5 14467.9 1937.57   3
   6  -5   5 10417.1 1753.86   6
   6   5  -5 14913.3 2086.96   5
   6   5  -5 10587.1 1393.44   4
  -6   5   5 15193.9 2002.95   8
   6  -5   5 11543.8 1465.00   1
   6  -5   4 14572.2 1606.33   1
  -6  -5  -4 16116.0 1839.99   7
  -6   5   4 14851.6 1949.33   3
   6  -5   4 14513.7 1950.19   6
   6   5  -4 10836.6 1898.84   5
   6   5  -4 13617.3 1492.43   4
  -6   5   4 14734.6 1904.80   8
   6  -5   3 1925.75 843.970   1
  -6  -5  -3 658.037 1079.23   7
  -6   5   3 521.240 1133.95   3
   6  -5   3 3259.16 1362.96   6
   6   5  -3 1961.93 1348.37   5
   6   5  -3 1545.45 891.320   4
  -6  -5  -2 1264.66 1132.30   7
   6  -5   2 559.952 815.653   1
  -6   5   2 1843.51 1012.64   3
   6  -5   2 1781.84 1434.72   6
   6   5  -2 3250.71 1487.23   5
   6   5  -2 2138.95 971.891   4
  -6  -5  -1 6974.84 1449.35   7
   6  -5   1 6261.38 1155.72   1
  -6   5   1 7678.30 1428.45   3
   6  -5   1 3767.99 1308.71   6
   6   5  -1 7446.89 1627.90   5
   6   5  -1 7304.52 1227.49   4
  -6  -5   0 18636.2 1822.63   7
  -6   5   0 19428.2 1962.59   3
   6  -5   0 16237.1 1599.30   1
   6  -5   0 20529.1 2321.43   6
  -6  -5   0 15122.0 1637.44   2
   6   5   0 17653.8 1707.78   4
  -6   5  -1 5300.19 1279.52   3
   6  -5  -1 3146.10 876.894   1
   6  -5  -1 3962.19 1261.68   6
  -6  -5   1 4164.80 1084.83   2
   6   5   1 3812.17 1125.32   4
  -6   5  -1 3846.25 1243.36   8
  -6   5  -2 1902.02 982.245   3
   6  -5  -2-903.138 1350.14   6
  -6  -5   2 1831.40 1033.98   2
   6   5   2 833.053 855.098   4
  -6   5  -2-163.607 1259.09   8
  -6   5  -3 1955.02 991.491   3
   6  -5  -3 3620.49 1513.35   6
  -6  -5   3 763.609 988.240   2
   6   5   3 1199.92 824.553   4
  -6   5  -3 4801.86 1540.86   8
  -6   5  -4 13059.4 1524.17   3
   6  -5  -4 17052.2 2223.92   6
  -6  -5   4 13342.2 1660.46   2
   6  -5  -4 14878.8 1491.27   9
   6   5   4 14339.0 1636.05   4
  -6   5  -4 15292.3 1902.20   8
   6  -5  -5 9822.01 1747.50   6
  -6  -5   5 13234.5 1648.04   2
   6  -5  -5 10732.4 1364.33   9
   6   5   5 12168.8 1546.96   4
  -6   5  -5 12204.4 1948.55   8
   6  -5  -6 13730.6 1998.97   6
  -6  -5   6 18805.5 1923.37   2
   6  -5  -6 14213.3 1554.38   9
   6   5   6 15482.9 1702.37   4
  -6   5  -6 13031.3 1829.94   8
   6  -5  -7 5660.67 1649.91   6
  -6  -5   7 8498.41 1488.59   2
   6  -5  -7 8034.18 1349.28   9
   6   5   7 7959.90 1336.89   4
  -6   5  -7 6403.45 1447.45   8
   6  -5  -8 3116.71 1508.74   6
  -6  -5   8 1170.75 1019.41   2
   6  -5  -8 2388.76 917.299   9
   6   5   8 1361.57 1096.31   4
  -6   5  -8 238.917 1266.73   8
  -6  -5   9 4311.95 1352.39   2
   6  -5  -9 5176.24 1215.15   9
   6   5   9 3914.97 1160.77   4
  -6   5  -9 5806.50 1508.46   8
  -6  -5  10 4785.95 1335.80   2
   6  -5 -10 5239.24 1212.97   9
   6   5  10 4615.36 1248.86   4
  -6   5 -10 5851.08 1606.51   8
  -6  -5  11 9862.45 1768.89   2
   6  -5 -11 12343.8 1622.76   9
   6   5  11 13151.2 1803.82   4
  -6   5 -11 14022.6 1978.21   8
  -6  -5  12 14327.2 1960.50   2
   6  -5 -12 13706.1 1648.29   9
   6   5  12 12758.2 1822.56   4
  -6   5 -12 13521.7 1888.52   8
  -6  -5  13 2961.93 1389.54   2
   6  -5 -13 3641.01 1140.07   9
   6   5  13 5261.68 1459.54   4
  -6   5 -13 4327.74 1270.92   8
  -6  -5  14 1262.14 1210.91   2
   6  -5 -14 3379.57 1181.73   9
   6   5  14 4681.89 1372.46   4
  -6   5 -14 601.821 1193.06   8
  -6   5 -15 1980.46 1023.74   7
   6  -5 -15-845.434 965.848   9
  -6   5 -15 1399.75 1175.51   8
  -6   5 -16 837.228 1114.01   7
   6  -5 -16 2239.09 1200.04   9
  -6   5 -17 3707.49 1261.91   7
   6  -5 -17 3105.24 1217.25   9
  -6   6  15 1605.02 1173.36   8
   6  -6  14 392.419 1043.59   1
  -6   6  14-22.3498 1003.48   8
   6  -6  13 1813.98 1467.30   6
   6  -6  13 3199.37 1313.19   1
  -6   6  13 2681.38 1212.75   8
   6  -6  12 1883.94 1201.66   6
   6  -6  12 1178.78 1252.22   1
  -6   6  12 1011.88 1273.32   8
  -6  -6 -11-261.164 1315.59   7
  -6   6  11 3139.28 1628.23   3
   6  -6  11 638.071 1315.69   6
   6   6 -11 1265.41 1506.48   5
   6  -6  11 3527.04 1337.17   1
  -6   6  11 1373.05 1031.46   8
  -6  -6 -10 440.442 1059.02   7
  -6   6  10-1052.68 1343.61   3
   6  -6  10-350.191 1252.01   6
   6   6 -10-382.400 1349.43   5
   6  -6  10 561.538 1139.72   1
  -6   6  10-301.805 1178.11   8
  -6  -6  -9 298.825 972.836   7
  -6   6   9 3377.99 1400.80   3
   6  -6   9-884.404 1450.68   6
   6   6  -9-985.860 1463.17   5
   6  -6   9 394.705 913.545   1
  -6  -6  -8 2951.20 1249.19   7
  -6   6   8 2770.28 1404.76   3
   6  -6   8 2712.19 1515.37   6
   6   6  -8 2305.67 1488.36   5
   6   6  -8 281.567 918.831   4
   6  -6   8 982.284 1133.88   1
  -6  -6  -7 7310.18 1474.23   7
  -6   6   7 11438.6 1866.24   3
   6  -6   7 7567.64 1761.92   6
   6   6  -7 9827.59 1567.78   4
   6  -6   7 10402.8 1570.21   1
   6  -6   6 4592.13 1237.79   1
  -6  -6  -6 3940.31 1343.29   7
  -6   6   6 5284.89 1477.67   3
   6  -6   6 2484.10 1361.73   6
   6   6  -6 3426.11 1146.22   4
   6  -6   5 10168.7 1513.63   1
  -6  -6  -5 11990.4 1820.95   7
  -6   6   5 12614.7 1931.95   3
   6  -6   5 11728.0 2015.83   6
   6   6  -5 11780.6 1582.15   4
  -6  -6  -4 538.179 1056.55   7
   6  -6   4-401.070 954.024   1
  -6   6   4-200.121 1115.66   3
   6  -6   4 225.966 1471.96   6
   6   6  -4-35.2504 959.473   4
   6  -6   3 4611.46 1236.56   1
  -6   6   3 7097.26 1491.79   3
   6  -6   3 8750.64 1908.63   6
   6   6  -3 6048.45 1200.13   4
  -6  -6  -2 519.939 923.848   7
   6  -6   2 844.615 862.838   1
  -6   6   2 2478.49 1078.76   3
   6  -6   2 810.290 1248.05   6
   6   6  -2 1529.36 998.124   4
  -6   6   1 17209.3 1954.22   3
   6  -6   1 14978.9 1685.77   1
   6  -6   1 15263.7 2111.43   6
  -6  -6  -1 16421.7 1772.22   2
   6   6  -1 15006.3 1762.70   4
  -6   6   0 1982.02 1066.80   3
   6  -6   0 2823.49 968.570   1
   6  -6   0 4017.50 1646.53   6
  -6  -6   0 3984.37 1177.61   2
   6   6   0 6107.19 1267.71   4
  -6   6  -1 18255.6 1905.68   3
   6  -6  -1 15330.7 1727.53   1
   6  -6  -1 17218.0 2223.52   6
  -6  -6   1 15553.1 1699.88   2
   6   6   1 19602.2 1912.27   4
  -6   6  -2 894.723 949.327   3
   6  -6  -2 2120.09 1451.26   6
  -6  -6   2 1594.24 931.779   2
   6   6   2 564.390 1065.42   4
  -6  -6   3 3994.68 1114.14   2
   6   6   3 5611.31 1375.18   4
  -6  -6   4 1101.78 1054.52   2
   6   6   4 1684.90 1175.48   4
  -6  -6   5 12686.0 1758.88   2
   6  -6  -5 12824.2 1605.12   9
   6   6   5 12472.1 1684.38   4
  -6  -6   6 4063.48 1222.39   2
   6  -6  -6 6912.53 1354.82   9
   6   6   6 4130.50 1255.10   4
  -6  -6   7 6536.71 1475.11   2
   6  -6  -7 9716.06 1437.97   9
   6   6   7 6668.70 1428.80   4
  -6  -6   8 650.685 1080.89   2
   6  -6  -8 1375.88 981.409   9
   6   6   8 3028.46 1247.00   4
  -6   6  -8 3742.05 1482.90   8
  -6  -6   9-578.265 922.222   2
   6  -6  -9-1377.69 1143.20   9
   6   6   9 1099.28 1130.38   4
  -6   6  -9-145.707 1109.49   8
  -6  -6  10-233.369 1072.02   2
   6  -6 -10 1319.79 1115.97   9
   6   6  10 181.030 852.120   4
  -6   6 -10-1191.24 1271.08   8
  -6  -6  11 3222.90 1310.73   2
   6  -6 -11 2640.37 1191.41   9
   6   6  11 3841.57 1324.97   4
  -6   6 -11 3458.57 1343.30   8
   6  -6 -12 886.387 1026.77   9
   6   6  12 433.139 1034.69   4
  -6   6 -12-791.145 1323.92   8
   6  -6 -13 37.0769 947.607   9
  -6   6 -13 2071.03 1326.92   8
   6  -6 -14 959.427 974.926   9
  -6   6 -14-556.424 1098.60   8
  -6   6 -15 3081.25 1467.75   8
   6  -7  11 706.863 1173.29   1
   6  -7  10 1384.07 1311.93   1
  -6   7   9 4824.98 1683.05   3
   6  -7   9 3832.81 1448.65   1
  -6   7   8 4301.80 1481.20   3
   6   7  -8 4646.01 1304.77   4
   6  -7   8 5582.70 1560.69   1
   6  -7   7 2979.53 1235.80   1
  -6   7   7 3411.17 1556.55   3
   6   7  -7 1076.72 1076.65   4
   6  -7   6 3482.84 1282.71   1
  -6  -7  -6 916.284 1225.39   7
  -6   7   6 2385.00 1367.77   3
   6   7  -6 5819.42 1350.10   4
  -6  -7  -5-713.375 1256.40   7
   6  -7   5 262.116 974.280   1
  -6   7   5 1036.01 1087.68   3
   6   7  -5 180.954 936.590   4
  -6  -7  -4 736.495 987.195   7
   6  -7   4 1965.63 1052.71   1
  -6   7   4 2329.40 1198.17   3
   6   7  -4 1740.58 1153.22   4
  -6  -7  -3 2233.03 1207.92   7
   6  -7   3 3415.22 1200.67   1
  -6   7   3 2841.97 1198.90   3
   6   7  -3 2905.88 1063.25   4
  -6   7   2 1450.87 1075.91   3
   6  -7   2 217.594 978.988   1
   6   7  -2 529.143 1103.49   4
  -6   7   1 1716.49 1147.95   3
   6  -7   1 1053.14 1069.41   1
  -6  -7  -1 1201.01 1014.99   2
   6   7  -1 1558.83 1071.68   4
  -6   7   0 4391.16 1224.62   3
   6  -7   0 1738.94 1050.87   1
  -6  -7   0 1816.29 977.779   2
   6   7   0 3100.67 1201.49   4
   6  -7  -1 2455.67 1176.58   1
  -6  -7   1 3092.10 1028.57   2
   6   7   1 2110.39 1223.04   4
  -6  -7   2 2768.49 1078.92   2
   6   7   2 3539.94 1238.21   4
  -6  -7   3 1247.30 879.528   2
   6   7   3 1156.60 1049.74   4
  -6  -7   4 4036.87 1386.52   2
   6   7   4 2034.35 1094.14   4
  -6  -7   5 1511.57 1210.48   2
   6  -7  -5-1196.74 998.092   9
   6   7   5 155.800 1010.62   4
  -6  -7   6 3313.87 1109.30   2
   6  -7  -6 3179.33 1110.34   9
   6   7   6 2922.50 1231.69   4
  -6  -7   7 3277.13 1297.08   2
   6  -7  -7 2121.64 1120.47   9
   6   7   7 3427.96 1104.02   4
  -6  -7   8 3981.08 1369.78   2
   6  -7  -8 7939.83 1565.38   9
   6   7   8 5076.08 1511.47   4
   6  -7  -9 2359.76 1186.95   9
   6  -7 -10 883.962 1131.29   9
   6  -7 -11 2431.92 1273.46   9
   6   8  -7 509.181 1173.81   4
   6  -8   6 291.807 1235.40   1
   6   8  -6 724.989 1052.43   4
   6  -8   5 1921.81 1377.18   1
  -6   8   5 187.064 1189.14   3
   6   8  -5 1583.82 1318.81   4
   6  -8   4 5206.05 1617.42   1
  -6   8   4 6523.32 1703.52   3
   6   8  -4 4100.76 1463.01   4
  -6   8   3 1735.58 1177.78   3
   6  -8   3 2504.92 1202.66   1
   6   8  -3-110.389 991.056   4
   6  -8   2 13393.7 1905.60   1
   6   8  -2 7372.00 1555.28   4
   6  -8   1 1132.65 1082.12   1
   6   8  -1-407.382 1224.03   4
   6  -8   0 7113.32 1630.15   1
  -6  -8   0 6101.89 1281.16   2
   6   8   0 3118.46 1334.22   4
  -6  -8   1-605.588 1086.29   2
  -6  -8   2 10113.6 1670.52   2
  -6  -8   3 1761.37 1201.67   2
  -6  -8   4 2865.28 1172.59   2
   6  -8  -5 1098.93 1182.31   9
  -7   0   0 153.804 726.108   7
   7   0   0 1736.29 1131.55   6
   7   0   0 725.847 1103.80   5
  -7   0   1 394.022 679.758   7
  -7   0  -1 1178.89 778.555   7
   7   0   1 3855.02 1480.32   6
   7   0  -1 333.652 1220.54   6
   7   0  -1 2125.86 1043.39   5
   7   0   1 2731.05 1199.64   5
  -7   0   2 22373.2 1663.12   7
  -7   0  -2 18251.2 1602.17   7
   7   0   2 24664.3 2323.01   6
   7   0  -2 23048.6 2299.65   6
   7   0  -2 18918.2 1990.72   5
   7   0   2 19465.8 1909.10   5
  -7   0  -3 12425.3 1429.00   7
   7   0   3 11246.7 1818.52   6
   7   0  -3 12696.9 1741.80   6
   7   0  -3 10723.7 1598.16   5
   7   0   3 12206.1 1599.62   5
  -7   0  -4 17668.6 1674.04   7
   7   0   4 20509.9 2279.79   6
   7   0  -4 16526.1 1931.26   6
   7   0  -4 14690.9 1861.62   5
   7   0   4 17004.0 1841.54   5
   7   0   5-521.231 726.585   4
  -7   0  -5-661.667 857.326   7
   7   0   5 1145.52 1327.15   6
   7   0  -5-416.246 981.526   6
   7   0  -5-437.481 1116.90   5
   7   0   5-711.089 1002.06   5
   7   0   6 2197.94 801.221   4
  -7   0  -6 1313.07 1009.95   7
   7   0   6 599.633 1269.10   6
   7   0  -6 1517.37 1235.99   6
   7   0  -6 1340.74 1220.84   5
   7   0   6 583.231 873.054   5
   7   0   7 10189.4 1290.23   4
  -7   0  -7 8739.95 1405.55   7
   7   0   7 11497.1 1846.15   6
   7   0  -7 9495.15 1662.17   6
   7   0  -7 10288.5 1681.10   5
   7   0   8 1165.04 803.379   4
  -7   0  -8 2298.96 1111.74   7
   7   0   8 932.985 1385.65   6
   7   0  -8 1284.90 1131.15   6
   7   0  -8 1613.83 1357.32   5
   7   0   9 5789.64 1145.23   4
  -7   0  -9 5495.92 1282.30   7
   7   0   9 6050.18 1595.59   6
   7   0  -9 7535.34 1570.27   6
   7   0  -9 4320.43 1593.56   5
   7   0  10 6377.73 1240.17   4
  -7   0 -10 5948.19 1289.63   7
   7   0  10 8187.81 1629.40   6
   7   0 -10 5698.03 1324.57   6
   7   0 -10 6832.36 1655.70   5
   7   0  11 300.104 924.646   4
  -7   0 -11-115.541 977.196   7
   7   0  11 2415.81 1450.76   6
   7   0 -11 2288.60 1219.35   6
   7   0 -11 1910.37 1444.35   5
  -7   0  11-1027.08 1008.53   2
   7   0  12-188.557 962.751   4
  -7   0 -12-573.502 1069.14   7
   7   0  12 345.449 1149.69   6
   7   0 -12-238.675 1073.62   6
   7   0 -12 1086.93 1376.66   5
  -7   0  12 787.732 942.646   2
   7   0  13 321.871 890.298   4
  -7   0 -13-309.625 927.758   7
   7   0  13-61.8972 1255.56   6
   7   0 -13 1068.86 1196.88   6
   7   0 -13 556.615 1434.33   5
  -7   0  13-1450.97 1166.90   2
   7   0  14 1156.51 1070.58   4
  -7   0 -14 2726.09 1070.28   7
   7   0  14 666.869 1038.65   6
   7   0 -14 1801.66 1228.12   5
  -7   0  14 3242.85 1318.79   2
   7   0  15 1005.09 951.295   4
  -7   0 -15 2485.15 1175.65   7
   7   0  15 2020.43 1261.32   6
  -7   0  15 2225.70 1332.43   2
   7   0  16 463.996 1164.20   4
   7   0  16 1406.38 1266.88   6
  -7   0  16 2647.88 1123.20   2
   7   0  17-2118.94 1395.49   6
   7  -1  17 5419.69 1647.38   6
  -7   1  17 716.294 1136.32   2
   7  -1  16 15.9153 1252.39   6
  -7   1  16-53.2186 1011.20   2
  -7  -1 -15 5435.80 1476.06   7
   7  -1  15 8715.81 1806.36   6
  -7   1  15 9399.45 1515.46   2
  -7  -1 -14 699.128 1028.62   7
   7  -1  14-1170.90 1246.02   6
   7  -1  13 3670.61 1152.09   4
  -7  -1 -13 2540.06 1130.75   7
  -7   1  13 3902.07 1571.69   3
   7  -1  13 4805.95 1514.32   6
   7   1 -13 2750.02 1340.13   5
   7  -1  12 6022.62 1245.98   4
  -7  -1 -12 7798.69 1540.86   7
  -7   1  12 8184.63 1719.48   3
   7  -1  12 10653.2 1902.23   6
   7   1 -12 9656.99 1590.19   6
   7   1 -12 8565.00 1776.78   5
   7  -1  11 3279.63 1098.80   4
  -7  -1 -11 1330.36 983.104   7
  -7   1  11-126.488 1404.07   3
   7  -1  11 1028.33 1119.07   6
   7   1 -11 586.519 947.962   6
   7   1 -11 1172.87 1250.62   5
   7  -1  10 8007.18 1319.08   4
  -7  -1 -10 6470.72 1304.64   7
  -7   1  10 5079.36 1423.64   3
   7  -1  10 6491.41 1504.65   6
   7   1 -10 8185.89 1510.50   6
   7   1 -10 5993.27 1552.62   5
   7  -1   9 11380.0 1438.63   4
  -7  -1  -9 11917.4 1535.33   7
  -7   1   9 14084.9 2053.15   3
   7   1  -9 13600.9 1859.63   6
   7  -1   9 11737.8 1869.15   6
   7   1  -9 10726.3 1723.00   5
   7  -1   8 1328.84 872.619   4
  -7  -1  -8-264.674 1033.28   7
  -7   1   8-1116.48 1345.18   3
   7   1  -8 590.439 949.502   6
   7  -1   8-676.607 1415.53   6
   7   1  -8 1704.23 1321.18   5
   7  -1   7 16474.5 1518.85   4
  -7  -1  -7 13691.2 1675.77   7
   7   1  -7 17344.3 1981.06   6
   7  -1   7 15469.8 2048.77   6
   7   1  -7 15820.0 2050.94   5
  -7  -1  -6 9684.53 1490.72   7
   7   1  -6 14387.6 1914.89   6
   7  -1   6 11561.2 1830.09   6
   7   1  -6 12164.6 1829.45   5
  -7  -1  -5 4008.71 1213.21   7
   7   1  -5 3499.72 1259.07   6
   7  -1   5 4125.62 1442.14   6
   7   1  -5 2095.66 1333.51   5
   7  -1   5 1838.77 960.247   5
  -7  -1  -4 8676.44 1326.70   7
   7   1  -4 7482.51 1560.21   6
   7  -1   4 10255.9 1799.70   6
   7  -1   4 8637.01 1362.47   5
   7   1  -4 9559.30 1650.45   5
  -7  -1  -3 15075.2 1648.57   7
   7   1  -3 10403.5 1800.28   6
   7  -1   3 13239.2 2024.90   6
   7  -1   3 13171.3 1604.30   5
   7   1  -3 14130.6 1829.95   5
  -7  -1  -2 4038.80 1040.97   7
   7   1  -2 3663.10 1359.30   6
   7  -1   2 3490.23 1200.58   6
   7  -1   2 3606.83 1226.24   5
   7   1  -2 2499.26 1107.89   5
  -7  -1  -1 3002.81 970.248   7
   7   1  -1 5229.42 1410.34   6
   7  -1   1 5216.91 1524.51   6
   7  -1   1 3995.71 1245.45   5
   7   1  -1 2640.84 1180.23   5
  -7  -1   0 4747.13 1073.65   7
   7   1   0 3458.21 1277.96   6
   7  -1   0 3413.20 1283.23   6
   7  -1   0 2504.34 1077.38   5
   7   1   0 3246.48 1238.94   5
  -7  -1   1 1149.59 833.059   7
  -7   1  -1 2348.09 725.799   7
   7   1   1 1872.45 1300.94   6
   7  -1  -1 3730.40 1402.49   6
   7  -1  -1 1732.12 1001.69   5
   7   1   1 2237.59 1095.04   5
  -7  -1   2 4218.90 1069.19   7
  -7   1  -2 3168.77 816.491   7
   7   1   2 5326.08 1562.21   6
   7  -1  -2 4676.34 1486.21   6
   7  -1  -2 3667.62 1206.31   5
   7   1   2 4753.86 1339.17   5
  -7   1  -3 9601.79 1210.10   7
   7   1   3 9920.74 1709.66   6
   7  -1  -3 8975.46 1552.44   6
   7  -1  -3 8874.82 1571.75   5
   7   1   3 10240.4 1540.11   5
   7   1   3 9186.54 1148.29   4
  -7   1  -4 5434.80 1056.44   7
   7   1   4 8207.63 1661.04   6
   7  -1  -4 7276.66 1487.13   6
   7  -1  -4 8458.25 1744.14   5
   7   1   4 4999.01 1162.53   5
   7   1   4 5557.60 1022.47   4
  -7   1  -5 2244.14 870.285   7
   7   1   5 3748.39 1429.79   6
   7  -1  -5 3123.99 1188.35   6
   7  -1  -5 1875.81 1087.19   5
   7   1   5-238.209 984.538   5
   7   1   5 2028.64 801.525   4
  -7   1  -6 12644.4 1498.22   7
   7   1   6 17301.6 2161.36   6
   7  -1  -6 11751.7 1773.31   6
   7  -1  -6 13378.5 1914.39   5
   7   1   6 11745.8 1540.13   5
   7   1   6 13276.6 1387.34   4
   7   1   7 14863.5 1570.22   4
  -7   1  -7 16103.9 1622.07   7
   7   1   7 15201.1 2037.01   6
   7  -1  -7 14410.0 1934.64   6
   7  -1  -7 18524.6 2189.72   5
   7   1   8-1818.91 942.512   4
  -7   1  -8 755.494 864.776   7
   7   1   8 807.720 1062.75   6
   7  -1  -8 729.559 1165.14   6
   7  -1  -8-949.252 1143.70   5
  -7  -1   8 1074.94 905.528   2
   7   1   9 11356.3 1471.24   4
  -7   1  -9 12588.9 1525.16   7
   7   1   9 15704.6 2072.54   6
   7  -1  -9 11033.7 1682.53   6
   7  -1  -9 11258.1 1767.22   5
  -7  -1   9 12041.5 1749.10   2
   7   1  10 4742.01 1121.03   4
  -7   1 -10 4773.97 1207.29   7
   7   1  10 5594.76 1610.26   6
   7  -1 -10 5859.27 1420.37   6
   7  -1 -10 6518.46 1525.69   5
  -7  -1  10 8871.30 1587.34   2
   7   1  11 1183.51 930.874   4
  -7   1 -11 2787.61 1183.78   7
   7   1  11 884.262 1147.67   6
   7  -1 -11 2233.27 1344.29   6
   7  -1 -11-422.758 1289.96   5
  -7  -1  11 1194.23 1180.74   2
   7   1  12 6247.99 1235.95   4
  -7   1 -12 6925.95 1429.63   7
   7   1  12 7353.75 1649.99   6
   7  -1 -12 8222.01 1561.57   6
   7  -1 -12 10468.8 1915.87   5
  -7  -1  12 7630.17 1645.32   2
   7   1  13 2116.30 1011.40   4
  -7   1 -13 4936.51 1328.02   7
   7   1  13 3019.48 1344.21   6
   7  -1 -13 5789.93 1388.24   6
   7  -1 -13 7886.42 1786.38   5
  -7  -1  13 3891.48 1346.69   2
   7   1  14 1433.72 1187.76   4
  -7   1 -14 1845.21 1040.27   7
   7   1  14 2603.78 1472.65   6
  -7  -1  14-21.3438 990.929   2
   7   1  15 9445.94 1583.31   4
  -7   1 -15 7842.74 1484.70   7
   7   1  15 8529.74 1807.14   6
  -7  -1  15 7317.63 1585.63   2
  -7   1 -16 125.089 1110.44   7
   7   1  16-818.316 1166.86   6
   7  -2  16-1884.33 1472.53   6
   7  -2  15 434.606 1264.48   6
  -7  -2 -14 373.540 1179.43   7
   7  -2  14-268.319 1154.32   6
  -7  -2 -13 2145.97 1267.35   7
  -7   2  13-915.917 1463.92   3
   7  -2  13 1603.52 1330.85   6
   7   2 -13 4265.71 1595.12   5
  -7  -2 -12 6443.09 1417.40   7
  -7   2  12 8972.09 1792.75   3
   7   2 -12 7267.24 1415.01   6
   7  -2  12 12018.8 1937.81   6
   7   2 -12 2537.73 1381.09   5
  -7  -2 -11 129.106 957.257   7
  -7   2  11 1696.60 1435.28   3
   7   2 -11 2917.92 1275.83   6
   7  -2  11 1243.47 1355.24   6
   7   2 -11-895.232 1415.84   5
  -7   2  10 2293.58 1226.27   8
  -7  -2 -10 3972.89 1320.60   7
  -7   2  10 3762.80 1320.05   3
   7   2 -10 1766.36 1081.86   6
   7  -2  10 4924.61 1533.08   6
   7   2 -10 2856.03 1457.55   5
  -7   2   9 1789.34 1212.56   8
  -7  -2  -9 1075.01 985.476   7
  -7   2   9 1590.19 1395.34   3
   7   2  -9 1910.87 1081.35   6
   7  -2   9 1651.99 1478.41   6
   7   2  -9 1650.11 1324.67   5
  -7   2   8 3661.05 1131.29   8
  -7  -2  -8 5613.40 1323.09   7
  -7   2   8 4237.39 1411.25   3
   7   2  -8 6817.64 1545.40   6
   7  -2   8 5738.56 1611.07   6
   7   2  -8 6412.80 1590.52   5
  -7   2   7 18650.7 2113.06   8
  -7  -2  -7 16232.2 1850.17   7
  -7   2   7 17751.4 2157.80   3
   7   2  -7 17632.8 2047.73   6
   7  -2   7 19054.4 2307.34   6
   7   2  -7 19877.7 2322.28   5
  -7   2   6 9417.36 1569.80   8
  -7  -2  -6 14222.7 1713.51   7
  -7   2   6 7232.74 1517.79   3
   7   2  -6 9457.91 1582.33   6
   7  -2   6 12965.2 1912.29   6
   7   2  -6 6224.76 1515.13   5
  -7   2   5 13009.4 1890.16   8
  -7  -2  -5 7617.34 1436.32   7
  -7   2   5 5628.56 1269.64   3
   7   2  -5 11033.7 1756.71   6
   7  -2   5 4179.41 1415.08   6
   7  -2   5 9733.07 1411.14   5
   7   2  -5 10644.7 1834.55   5
  -7   2   4 6257.67 1520.89   8
  -7  -2  -4 9414.19 1461.00   7
  -7   2   4 4131.66 1441.15   3
   7  -2   4 5119.27 1543.68   6
   7  -2   4 6734.70 1277.30   5
   7   2  -4 7376.47 1677.93   5
  -7   2   3 3143.14 1214.59   8
  -7  -2  -3 267.184 896.857   7
   7  -2   3 2067.66 1274.15   6
   7  -2   3 873.166 945.370   5
   7   2  -3-502.760 1157.45   5
  -7  -2  -2 4748.45 1269.30   7
   7  -2   2 6451.51 1475.15   6
   7  -2   2 4355.54 1244.94   5
   7   2  -2 5948.12 1583.32   5
  -7   2   2 5733.14 1462.65   8
  -7  -2  -1 20148.5 1845.77   7
   7  -2   1 25732.9 2487.31   6
   7  -2   1 21096.3 2075.33   5
   7   2  -1 22207.4 2254.15   5
  -7   2   1 25959.1 2405.90   8
  -7  -2   0 6284.43 1298.16   7
   7  -2   0 6540.79 1383.14   6
   7  -2   0 8007.62 1439.24   5
   7   2   0 9414.14 1596.05   5
  -7   2   0 7804.31 1586.62   8
  -7   2  -1 25723.4 2276.33   8
  -7  -2   1 24058.0 2019.65   7
   7  -2  -1 26993.0 2500.83   6
   7  -2  -1 21179.8 2093.45   5
   7   2   1 24567.2 2295.15   5
  -7   2  -2 8471.00 1634.18   8
   7  -2  -2 7023.13 1676.27   6
   7  -2  -2 6800.22 1442.00   5
   7   2   2 7619.33 1551.14   5
   7   2   2 6885.75 1096.23   4
  -7   2  -3 1090.11 1214.64   8
   7  -2  -3 2046.48 1262.11   6
   7  -2  -3-117.206 1023.55   5
   7   2   3 2211.05 1257.21   5
   7   2   3 1765.93 811.689   4
  -7   2  -4 8362.52 1576.56   8
   7  -2  -4 7808.12 1539.03   6
   7  -2  -4 7826.78 1598.24   5
   7   2   4 6034.66 1327.11   5
   7   2   4 7886.56 1166.87   4
  -7   2  -5 8756.02 1704.43   8
   7  -2  -5 9961.00 1609.54   6
   7  -2  -5 8902.91 1599.50   5
   7   2   5 11556.9 1686.76   5
   7   2   5 8957.26 1260.33   4
  -7   2  -6 10136.0 1627.56   8
  -7   2  -6 9067.17 1268.85   7
   7  -2  -6 10097.0 1736.88   6
   7  -2  -6 8279.38 1679.59   5
   7   2   6 9294.09 1529.52   5
  -7  -2   6 10170.5 1568.04   2
   7   2   6 10176.6 1363.99   4
  -7   2  -7 15856.8 1987.89   8
  -7   2  -7 18744.3 1630.72   7
   7  -2  -7 15880.5 2040.13   6
   7  -2  -7 18012.2 2170.79   5
   7   2   7 14368.9 1718.37   5
  -7  -2   7 18253.1 2022.28   2
   7   2   7 17193.8 1720.60   4
  -7   2  -8 5697.37 1464.58   8
  -7   2  -8 4752.92 1079.85   7
   7  -2  -8 2474.80 1331.57   6
   7  -2  -8 3152.06 1332.41   5
  -7  -2   8 3697.84 1252.16   2
   7   2   8 4116.53 1067.39   4
  -7   2  -9 2379.82 1050.83   7
   7  -2  -9 625.645 1053.18   6
   7  -2  -9 2727.59 1302.38   5
  -7  -2   9 2116.43 1050.88   2
   7   2   9 2864.71 1027.27   4
   7   2  10 3645.90 1089.01   4
  -7   2 -10 3781.31 990.111   7
   7  -2 -10 1581.93 1278.14   6
   7  -2 -10 3879.67 1423.25   5
  -7  -2  10 4789.51 1307.59   2
   7   2  11 1390.54 972.331   4
  -7   2 -11 1189.12 886.949   7
   7  -2 -11 1920.80 1257.49   6
   7  -2 -11 2056.34 1449.89   5
  -7  -2  11 342.269 1176.50   2
   7   2  12 6471.27 1319.89   4
  -7   2 -12 6035.78 1263.44   7
   7  -2 -12 6535.65 1491.92   6
   7  -2 -12 7010.21 1624.80   5
  -7  -2  12 10093.1 1731.43   2
   7   2  13 3311.78 1234.39   4
  -7   2 -13 2210.62 1121.33   7
   7  -2 -13 1720.17 1139.81   6
   7  -2 -13 3116.95 1359.60   5
  -7  -2  13 3193.79 1348.43   2
   7   2  14-392.593 1112.12   4
  -7   2 -14 745.157 1034.14   7
   7   2  15 793.537 1122.82   4
  -7   2 -15 1082.55 1134.39   7
  -7   2 -16 836.405 1218.66   7
  -7   3  15 794.109 1095.46   8
   7  -3  15-2717.57 1424.33   6
  -7   3  14 2273.08 1158.48   8
   7  -3  14 1397.02 1178.05   6
  -7   3  13 1827.37 1139.36   8
   7  -3  13 3448.91 1611.81   6
  -7   3  12 17861.4 2020.38   8
  -7  -3 -12 17710.7 2113.23   7
   7  -3  12 19287.0 2268.19   6
  -7  -3 -11 1030.79 1137.08   7
  -7   3  11-1408.10 1217.05   3
   7   3 -11 1118.84 1118.03   6
   7  -3  11 147.260 1364.17   6
   7   3 -11 174.896 1182.55   5
  -7   3  11 1179.92 1162.16   8
  -7  -3 -10 3461.06 1101.84   7
  -7   3  10 4453.56 1569.95   3
   7   3 -10 5481.46 1382.53   6
   7  -3  10 4165.71 1402.75   6
   7   3 -10 3239.52 1408.02   5
  -7   3  10 5413.98 1487.18   8
  -7  -3  -9-1069.77 1254.90   7
  -7   3   9 1454.05 1129.35   3
   7   3  -9-1461.35 1153.33   6
   7  -3   9-24.2762 1301.53   6
   7   3  -9 2474.51 1598.02   5
  -7   3   9 1511.68 1321.39   8
  -7  -3  -8 841.021 909.199   7
  -7   3   8 2599.44 1466.67   3
   7  -3   8 2602.85 1467.23   6
   7   3  -8 561.279 1034.69   5
  -7   3   8 2171.26 1152.97   8
  -7  -3  -7 4484.68 1223.29   7
  -7   3   7 2119.77 1451.47   3
   7  -3   7 2729.07 1459.19   6
   7   3  -7 4939.85 1652.83   5
  -7   3   7 2403.32 1318.19   8
  -7  -3  -6 15320.9 1858.98   7
  -7   3   6 19323.7 2359.60   3
   7  -3   6 14161.9 2103.77   6
   7   3  -6 14055.6 1956.70   5
  -7   3   6 16052.1 1925.37   8
  -7  -3  -5 4568.63 1354.57   7
  -7   3   5 3487.14 1488.66   3
   7  -3   5 3323.09 1588.81   6
   7   3  -5 3597.29 1472.65   5
  -7   3   5 2971.99 1440.04   8
  -7  -3  -4 12797.1 1723.03   7
  -7   3   4 12008.4 1921.24   3
   7  -3   4 10332.6 1751.85   6
   7  -3   4 8072.59 1337.88   5
   7   3  -4 9180.32 1831.25   5
  -7   3   4 9467.78 1694.76   8
  -7  -3  -3 168.914 1016.27   7
  -7   3   3-696.422 1246.98   3
   7  -3   3-483.362 1111.56   6
   7  -3   3-207.253 959.674   5
   7   3  -3-387.179 1291.86   5
  -7   3   3 1378.31 1154.14   8
  -7  -3  -2 1137.28 902.693   7
  -7   3   2 2508.48 1126.96   3
   7  -3   2 3012.41 1489.00   6
   7  -3   2 2863.40 1072.28   5
   7   3  -2 655.677 1221.33   5
  -7   3   2 2206.88 1135.75   8
  -7  -3  -1 10298.2 1612.28   7
  -7   3   1 12057.1 1843.55   3
   7  -3   1 12580.2 1996.64   6
   7  -3   1 9093.45 1435.61   5
   7   3  -1 9901.58 1807.19   5
  -7   3   1 9861.62 1656.12   8
  -7  -3   0 19929.0 1942.57   7
   7  -3   0 20262.9 2272.07   6
   7   3   0 16316.0 2001.76   5
  -7   3   0 20393.5 2141.21   8
  -7  -3   1 11306.1 1629.33   7
   7  -3  -1 14275.5 2045.07   6
   7   3   1 10299.7 1712.81   5
   7   3   1 10754.3 1294.05   4
  -7   3  -1 10341.3 1788.72   8
   7  -3  -2 843.416 1339.40   6
   7   3   2 2387.49 1196.64   5
   7   3   2 304.929 741.947   4
  -7   3  -2 1238.94 1261.46   8
   7  -3  -3-1759.97 1448.49   6
   7   3   3 130.158 1199.12   5
   7   3   3 349.138 748.483   4
  -7   3  -3 882.409 1237.70   8
   7  -3  -4 11892.9 1880.18   6
   7   3   4 11882.0 1768.83   5
  -7  -3   4 11796.1 1722.21   2
   7   3   4 11255.5 1363.73   4
  -7   3  -4 9211.52 1623.68   8
   7  -3  -5 1799.33 1063.72   6
   7   3   5 228.379 1111.28   5
  -7  -3   5 1237.10 1017.68   2
   7   3   5 1740.59 995.257   4
  -7   3  -5 378.203 1249.47   8
   7  -3  -6 16482.3 2077.06   6
  -7  -3   6 13401.8 1842.56   2
   7   3   6 12818.8 1561.50   4
  -7   3  -6 14980.8 1952.34   8
   7  -3  -7 2407.97 1400.83   6
  -7  -3   7 3813.78 1225.31   2
   7   3   7 2132.23 990.031   4
  -7   3  -7 3638.66 1360.33   8
   7  -3  -8 1898.53 1343.66   6
  -7  -3   8 1215.39 1134.78   2
   7   3   8-944.552 959.382   4
  -7   3  -8-138.758 1225.74   8
   7  -3  -9 786.844 1151.55   6
  -7  -3   9 1456.91 1171.00   2
   7   3   9-166.598 1032.52   4
  -7   3  -9-1143.98 1399.25   8
  -7   3 -10 6245.11 1653.11   8
   7  -3 -10 9770.55 1833.06   6
  -7  -3  10 8385.39 1692.03   2
   7   3  10 7274.03 1381.98   4
  -7   3 -11-65.8547 1198.98   8
   7  -3 -11-1656.43 1170.60   6
  -7  -3  11 140.569 1268.02   2
   7   3  11 2933.48 1137.14   4
  -7   3 -12 17362.2 2061.60   8
  -7   3 -12 16300.4 1808.26   7
   7  -3 -12 18363.2 2291.14   6
   7   3  12 17215.0 1890.17   4
  -7   3 -13-22.0801 1059.00   7
   7  -3 -13-892.917 1325.68   6
   7   3  13 684.768 1007.97   4
  -7   3 -14 2780.41 1167.12   7
   7  -3 -14 2691.89 1317.64   6
  -7   3 -15 461.920 1076.64   7
  -7   4  14-1716.89 1115.73   8
  -7   4  13-1438.56 1160.96   8
   7  -4  12 2198.66 1444.75   6
  -7   4  12 4239.96 1326.36   8
   7  -4  11 4284.20 1606.63   6
  -7   4  11 768.946 1084.10   8
  -7  -4 -10 1628.41 1137.40   7
  -7   4  10 2465.14 1530.50   3
   7  -4  10 201.644 1473.11   6
  -7   4  10 682.169 1123.54   8
  -7  -4  -9 4284.48 1153.48   7
  -7   4   9 6040.31 1563.52   3
   7  -4   9 5825.12 1539.17   6
   7   4  -9 3456.96 1722.03   5
  -7   4   9 6603.99 1651.10   8
  -7  -4  -8 461.376 1210.64   7
  -7   4   8 3696.76 1660.40   3
   7  -4   8 663.271 1247.98   6
   7   4  -8 3392.40 1612.35   5
  -7   4   8-1157.20 1362.53   8
  -7  -4  -7 9523.40 1577.96   7
  -7   4   7 9529.92 1955.13   3
   7  -4   7 11314.1 2036.20   6
   7   4  -7 10987.5 2030.33   5
  -7   4   7 7176.45 1574.57   8
  -7  -4  -6 755.186 988.682   7
  -7   4   6 4060.51 1392.87   3
   7   4  -6 2788.56 1300.64   5
  -7   4   6 1713.75 1229.79   8
  -7  -4  -5 8592.74 1617.63   7
  -7   4   5 4215.53 1397.37   3
   7  -4   5 7420.48 1760.64   6
   7   4  -5 6084.28 1653.35   5
  -7   4   5 7565.33 1758.48   8
  -7  -4  -4 5804.39 1440.96   7
  -7   4   4 5397.06 1352.96   3
   7  -4   4 8899.78 1680.88   6
   7   4  -4 8826.51 1824.80   5
  -7   4   4 6379.28 1456.89   8
  -7  -4  -3-751.404 1156.12   7
  -7   4   3 4013.76 1522.81   3
   7  -4   3 1524.70 1157.26   6
   7   4  -3 2004.86 1514.20   5
  -7   4   3 543.141 1161.13   8
  -7  -4  -2 10272.4 1616.10   7
  -7   4   2 7915.45 1651.97   3
   7  -4   2 8551.82 1895.50   6
   7   4  -2 8652.93 1863.64   5
  -7   4   2 9689.58 1823.70   8
  -7  -4  -1 6156.82 1294.86   7
  -7   4   1 6138.20 1503.48   3
   7  -4   1 7442.55 1706.20   6
   7   4  -1 5153.20 1591.53   5
  -7   4   1 8952.85 1788.76   8
  -7  -4   0-1024.74 917.230   7
  -7   4   0 208.893 942.653   3
   7  -4   0-166.558 1303.84   6
   7   4   0-177.530 1185.00   5
   7   4   0 108.683 828.469   4
  -7   4   0 302.592 1268.72   8
  -7   4  -1 5960.78 1361.39   3
   7  -4  -1 9506.60 1814.01   6
   7   4   1 6748.25 1606.20   5
   7   4   1 6380.14 1192.01   4
  -7   4  -1 5733.46 1524.96   8
   7  -4  -2 8924.31 1946.01   6
   7   4   2 6765.19 1597.26   5
   7   4   2 8451.29 1235.22   4
  -7   4  -2 4775.75 1327.99   8
   7  -4  -3 348.216 1363.00   6
  -7  -4   3 5167.11 1410.04   2
   7   4   3 1140.20 900.526   4
  -7   4  -3 3486.50 1565.05   8
   7  -4  -4 6022.04 1499.72   6
  -7  -4   4 6628.11 1384.44   2
   7   4   4 8551.31 1400.77   4
  -7   4  -4 6472.36 1594.85   8
   7  -4  -5 5898.03 1460.13   6
  -7  -4   5 6116.30 1390.48   2
   7   4   5 4883.14 1274.72   4
  -7   4  -5 4292.31 1525.72   8
   7  -4  -6 2285.09 1217.25   6
  -7  -4   6 4144.32 1430.49   2
   7   4   6 2684.96 1129.99   4
  -7   4  -6 2206.96 1325.79   8
   7  -4  -7 4420.29 1437.20   6
   7   4   7 8681.67 1457.03   4
  -7   4  -7 7624.19 1817.68   8
   7  -4  -8 320.946 1259.46   6
  -7  -4   8 1118.80 1044.62   2
   7   4   8 1923.14 970.974   4
  -7   4  -8 1671.86 1353.18   8
   7  -4  -9 4156.84 1592.82   6
  -7  -4   9 3695.47 1260.57   2
   7   4   9 5443.28 1371.99   4
  -7   4  -9 4331.48 1486.99   8
   7  -4 -10 3426.17 1442.22   6
   7   4  10 1820.33 1095.00   4
   7  -4 -11 1833.30 1370.43   6
   7   4  11 1539.44 948.896   4
  -7   4 -11 1314.29 1253.56   8
   7  -4 -12 1789.29 1257.80   6
   7   4  12 962.267 970.254   4
  -7   4 -12 4775.93 1507.58   8
  -7   4 -13 375.007 1313.99   8
  -7   4 -14-580.179 1275.32   8
  -7   5   8 876.733 1231.74   3
  -7   5   8-564.150 1057.99   8
  -7  -5  -7 5361.40 1456.94   7
  -7   5   7 6672.93 1721.70   3
   7  -5   7 8467.68 1954.13   6
  -7   5   7 8600.97 1890.03   8
  -7  -5  -6 3.59572 1125.25   7
  -7   5   6-936.306 1428.69   3
   7   5  -6-284.520 1480.22   5
  -7   5   6 599.273 1068.74   8
  -7  -5  -5-637.864 872.784   7
  -7   5   5-1920.03 1520.17   3
   7  -5   5 2369.38 1565.36   6
   7   5  -5-464.781 1446.48   5
  -7   5   5 942.409 1421.76   8
  -7  -5  -4 2486.15 1227.63   7
  -7   5   4 1758.67 1284.85   3
   7  -5   4 1320.22 1289.02   6
   7   5  -4 2465.53 1553.07   5
  -7   5   4 1187.52 1369.73   8
  -7  -5  -3 3971.34 1348.85   7
  -7   5   3 3373.73 1445.88   3
   7  -5   3 4889.85 1615.51   6
   7   5  -3 3294.97 1477.89   5
  -7   5   3 5622.58 1657.99   8
  -7  -5  -2 4339.48 1401.95   7
  -7   5   2 6278.47 1495.41   3
   7  -5   2 5703.37 1894.56   6
   7   5  -2 6836.10 1750.73   5
  -7   5   2 7329.20 1692.26   8
  -7  -5  -1-17.4802 1147.76   7
  -7   5   1 140.612 1143.06   3
   7  -5   1 285.059 1365.37   6
   7   5  -1 1208.27 869.718   4
  -7   5   1 16.6268 1197.18   8
  -7   5   0 3740.90 1266.15   3
   7  -5   0 384.984 1382.76   6
   7   5   0 3015.94 1106.81   4
  -7   5   0 2556.12 1273.89   8
  -7   5  -1 1377.18 930.344   3
   7  -5  -1 1946.29 1469.52   6
   7   5   1 1636.09 1006.07   4
  -7   5  -1 1125.77 1516.80   8
  -7   5  -2 3002.86 1196.60   3
   7  -5  -2 7099.61 1918.09   6
  -7  -5   2 5561.98 1292.14   2
   7   5   2 2749.27 996.233   4
  -7   5  -2 6857.00 1875.75   8
   7  -5  -3 5230.14 1580.87   6
  -7  -5   3 7062.31 1444.70   2
   7   5   3 7213.23 1317.80   4
  -7   5  -3 5194.06 1626.71   8
   7  -5  -4 2524.46 1343.35   6
  -7  -5   4 2107.61 1330.69   2
   7   5   4 3817.57 1125.56   4
  -7   5  -4 2582.29 1381.78   8
   7  -5  -5 1344.91 1337.66   6
  -7  -5   5 1382.73 1015.20   2
   7   5   5 270.171 898.070   4
  -7   5  -5 470.834 1458.62   8
   7  -5  -6 2652.47 1485.96   6
  -7  -5   6 1531.61 1346.69   2
   7   5   6-230.746 966.696   4
  -7   5  -6-1548.76 1304.07   8
   7  -5  -7 4457.44 1542.97   6
   7   5   7 5737.74 1424.65   4
  -7   5  -7 3201.08 1411.61   8
   7  -5  -8 1519.51 1240.24   6
   7   5   8-500.028 890.543   4
  -7   5  -8-1265.55 1459.92   8
   7   5   9 5529.74 1464.64   4
  -7   5  -9 7562.54 1807.01   8
  -7   6   5 892.153 1247.12   3
  -7   6   4 2010.60 1243.20   3
  -7   6   3 839.276 1226.44   3
  -7   6   2 6602.77 1516.40   3
  -7   6   1 954.902 1061.96   3
   7   6  -1 4315.27 1252.80   4
  -7   6   0 597.740 1054.58   3
   7   6   0 202.111 1073.51   4
   7   6   1 2019.24 1176.08   4
  -7  -6   2 4558.62 1405.21   2
   7   6   2 7144.53 1435.43   4
   7   6   3 2911.64 1110.50   4
   7   6   4 2511.33 1127.10   4
   7   6   5 2333.96 1285.04   4
   7   6   6 2016.40 1314.09   4
   8   0   0 352.385 1074.44   6
   8   0   0-906.050 1180.16   5
   8   0   1 13359.7 2151.63   6
   8   0  -1 12779.7 2149.95   6
   8   0  -1 12406.1 1855.79   5
   8   0   1 15633.2 2061.72   5
   8   0   2 1160.35 1426.78   6
   8   0  -2-1314.65 1381.71   6
   8   0  -2 661.913 1067.49   5
   8   0   2 1857.80 1286.30   5
   8   0   3 1553.04 1412.96   6
   8   0  -3 1179.41 1126.30   6
   8   0  -3 557.427 1071.62   5
   8   0   3 519.609 1064.21   5
   8   0  -4-1150.05 1327.57   6
   8   0  -4 858.485 1261.77   5
   8   0  -5 15240.4 2123.18   6
   8   0  -5 14826.4 2131.12   5
  -8   0  -6 459.554 850.410   7
   8   0  -6-241.069 1279.81   6
   8   0  -6 517.379 1088.98   5
  -8   0  -7 17232.9 1834.76   7
   8   0  -7 13560.6 1985.52   6
  -8   0  -8 2494.96 1063.59   7
   8   0  -8 1508.09 1217.01   6
  -8   0  -9 520.285 911.207   7
   8   0  -9-184.536 1303.73   6
  -8   0 -10-1493.89 1247.46   7
   8   0 -10 840.252 1132.83   6
  -8   0 -11 6112.81 1414.08   7
   8   0 -11 5960.66 1637.09   6
   8   1 -10 1524.09 1259.90   6
  -8  -1  -9 324.889 1087.46   7
   8   1  -9-660.955 1299.85   6
  -8  -1  -8 546.850 1077.19   7
   8   1  -8 1733.77 1270.51   6
  -8  -1  -7 629.419 890.451   7
   8   1  -7-395.133 1081.82   6
  -8  -1  -6 5520.72 1227.00   7
   8   1  -6 6416.07 1502.32   6
   8   1  -6 6037.14 1614.09   5
  -8  -1  -5 2406.43 1061.19   7
   8   1  -5 3460.37 1438.82   6
   8   1  -5 2861.68 1327.29   5
  -8  -1  -4 3854.38 1102.31   7
   8   1  -4 3485.60 1312.66   6
   8   1  -4 4817.08 1666.48   5
  -8  -1  -3 179.969 1004.59   7
   8   1  -3-253.145 1142.40   6
   8   1  -3 41.2539 1246.18   5
  -8  -1  -2 4013.06 1088.93   7
   8   1  -2 4670.41 1684.87   6
   8  -1   2-48.5452 1458.62   6
   8  -1   2 4588.80 1423.85   5
   8   1  -2 4623.69 1543.59   5
  -8  -1  -1 4133.73 1209.48   7
   8   1  -1 7022.41 1837.41   6
   8  -1   1 8436.40 1893.46   6
   8  -1   1 2834.29 1108.06   5
   8   1  -1 2954.39 1367.68   5
   8   1   0 7321.61 1633.15   6
   8  -1   0 7455.53 1833.58   6
   8  -1   0 7077.58 1475.44   5
   8   1   0 7810.61 1732.81   5
   8   1   1 5909.83 1782.99   6
   8  -1  -1 3988.39 1573.26   6
   8  -1  -1 6635.79 1626.60   5
   8   1   1 2991.32 1248.65   5
   8   1   2 5653.05 1752.68   6
   8  -1  -2 4103.36 1703.44   6
   8  -1  -2 6357.54 1601.75   5
   8   1   2 2557.47 1227.03   5
   8  -1  -3 3011.00 1420.51   6
   8  -1  -3 1898.22 1235.96   5
   8   1   3 2281.76 1169.95   5
   8  -1  -4 1383.34 1211.49   6
   8  -1  -4 3218.17 1351.17   5
   8  -1  -5 3486.26 1351.55   6
   8  -1  -5 566.192 1369.84   5
   8  -1  -6 6970.33 1553.02   6
   8  -1  -6 6841.82 1701.14   5
   8  -1  -7 3581.38 1444.45   6
   8  -1  -8 3212.92 1458.78   6
   8  -1  -9 1332.99 1328.83   6
   8  -1 -10-540.920 1075.99   6
   8  -1 -11 1595.53 1362.89   6
   8   2 -10 7782.95 1701.37   6
   8   2  -9 1502.40 1250.66   6
   8   2  -8 5918.91 1661.11   6
  -8  -2  -7 2677.60 1205.07   7
   8   2  -7 618.590 1173.00   6
  -8  -2  -6 864.486 1037.67   7
   8   2  -6 468.712 1218.13   6
  -8  -2  -5 438.258 877.240   7
   8   2  -5 822.563 1116.08   6
  -8  -2  -4 4691.62 1236.52   7
   8   2  -4 7566.55 1673.78   6
   8   2  -4 6487.73 1569.68   5
  -8  -2  -3-172.158 955.263   7
   8   2  -3-279.435 1335.47   6
   8   2  -3-774.155 1265.07   5
  -8  -2  -2 10370.5 1648.71   7
   8   2  -2 13473.5 2154.82   6
   8  -2   2 6907.32 1482.57   5
   8   2  -2 10116.4 1827.35   5
  -8  -2  -1 3555.16 1195.30   7
   8   2  -1 995.573 1104.27   6
   8  -2   1 2474.84 1250.87   5
   8   2  -1-1132.99 1343.57   5
  -8  -2   0-18.8959 985.662   7
   8  -2   0 478.385 1207.35   5
   8   2   0 766.134 1062.72   5
   8  -2  -1 3699.03 1385.28   5
   8   2   1-632.612 1259.89   5
   8  -2  -2 6461.53 1544.65   5
   8   2   2 6494.11 1495.42   5
   8  -2  -3-1512.57 1280.84   5
   8   2   3 1393.53 1267.96   5
   8  -2  -4 5132.00 1625.79   5
   8   2   4 5527.41 1393.36   5
   8  -2  -5 267.865 1017.22   5
  -8  -3  -4-304.791 1230.98   7
  -8  -3  -3 8605.50 1617.08   7
  -8  -3  -2 2596.21 1341.71   7
   8   3  -2 245.223 1129.36   5
  -8  -3  -1 1286.69 1110.99   7
   8  -3   1 1956.55 1221.36   5
   8   3  -1 1914.27 1354.11   5
   8  -3   0 1370.42 1106.80   5
   8   3   0 1938.05 1388.93   5
   8  -3  -1 1784.76 1204.00   5
   8   3   1 1176.36 1326.74   5
   8  -3  -2 273.466 1225.43   5
   8   3   2 824.804 1293.79   5
   8  -3  -3 5159.17 1505.55   5
   8   3   3 6778.93 1623.70   5
   8  -3  -4 1520.29 1081.56   5
   8   3   4 1652.24 1390.94   5
   8  -4   0-511.506 1165.66   5
   8  -4  -1 3702.69 1425.28   5
   8  -4  -2 7471.73 1695.96   5
   0   0   0    0.00    0.00   0
TITL V261_3 in P2(1)2(1)2(1)
REM P2(1)2(1)2(1) (#19 in standard setting)
CELL 0.71073   5.721516   7.900172  20.272862  90.0000  90.0000  90.0000
ZERR    4.00   0.000090   0.000171   0.000410   0.0000   0.0000   0.0000
LATT -1
SYMM -x+1/2,-y, z+1/2
SYMM -x, y+1/2,-z+1/2
SYMM  x+1/2,-y+1/2,-z
SFAC C H N O Cl Br
UNIT 24.00 24.00 8.00 8.00 4.00 4.00
TREF
HKLF 4
END
;
_shelx_hkl_checksum              25565
_shelx_res_file
;
TITL V261_3 in P212121 #19
    v261_3.res
    created by SHELXL-2018/3 at 13:24:44 on 21-May-2020
REM reset to P212121 #19
CELL 0.71073 5.721516 7.900171 20.272862 90 90 90
ZERR 4 0.00009 0.000171 0.00041 0 0 0
LATT -1
SYMM 0.5-X,-Y,0.5+Z
SYMM 0.5+X,0.5-Y,-Z
SYMM -X,0.5+Y,0.5-Z
SFAC C H N O Cl Br
UNIT 24 24 8 8 4 4
EQIV $1 -1+X,+Y,+Z
EQIV $2 -0.5+X,1.5-Y,1-Z
EQIV $3 -1+X,-1+Y,+Z
EQIV $4 1-X,0.5+Y,1.5-Z
L.S. 8
PLAN  1
TEMP 21.9(10)
CONF
HTAB N1 Br1
HTAB N1 Br1_$1
HTAB N1 Br1_$2
HTAB C3 Br1_$3
HTAB C5 O2_$4
BOND
MORE -1
BOND $H
fmap 2
acta
OMIT 0 60
REM <olex2.extras>
REM <HklSrc "%.\\V261_3.hkl">
REM </olex2.extras>
WGHT    0.032200
FVAR       7.43440
BR1   6    0.524430    0.844059    0.584614    11.00000    0.03208    0.03898 =
         0.05173    0.00111   -0.00074   -0.00640
CL1   5   -0.310357    0.355859    0.539638    11.00000    0.04275    0.04904 =
         0.05499    0.00172   -0.02013   -0.00997
O1    4    0.051603   -0.112565    0.689717    11.00000    0.06616    0.03716 =
         0.06309    0.00770    0.00105   -0.00651
O2    4    0.290606    0.010383    0.756119    11.00000    0.07332    0.06397 =
         0.06799    0.01913   -0.02805    0.00065
N1    3    0.021059    0.633918    0.576278    11.00000    0.03214    0.03377 =
         0.04698    0.00238   -0.00433   -0.00413
AFIX 137
H1A   2    0.139212    0.703405    0.585339    11.00000    0.05116
H1B   2   -0.112446    0.680764    0.589483    11.00000    0.06077
H1C   2    0.015304    0.615323    0.533010    11.00000    0.05849
AFIX   0
N2    3    0.157644    0.011677    0.708827    11.00000    0.04474    0.04238 =
         0.04328    0.00687    0.00236    0.00142
C1    1    0.055708    0.473473    0.610755    11.00000    0.02832    0.03203 =
         0.03420    0.00009    0.00328   -0.00216
C2    1   -0.089264    0.336089    0.597234    11.00000    0.02732    0.03364 =
         0.03389   -0.00504   -0.00192   -0.00161
C3    1   -0.056004    0.183791    0.629072    11.00000    0.03642    0.03004 =
         0.03949   -0.00368    0.00027   -0.00715
AFIX  43
H3    2   -0.150708    0.090853    0.620220    11.00000   -1.20000
AFIX   0
C4    1    0.122740    0.174295    0.674507    11.00000    0.03575    0.03099 =
         0.03397    0.00090    0.00198   -0.00020
C5    1    0.266510    0.306938    0.689178    11.00000    0.03683    0.04565 =
         0.04092    0.00498   -0.00979   -0.00328
AFIX  43
H5    2    0.385125    0.295483    0.720224    11.00000   -1.20000
AFIX   0
C6    1    0.231161    0.459693    0.656525    11.00000    0.03430    0.03834 =
         0.04243    0.00047   -0.00755   -0.01056
AFIX  43
H6    2    0.326256    0.552208    0.665712    11.00000   -1.20000
AFIX   0
HKLF 4
REM  V261_3 in P212121 #19
REM wR2 = 0.0623, GooF = S = 1.127, Restrained GooF = 1.127 for all data
REM R1 = 0.0278 for 2340 Fo > 4sig(Fo) and 0.0366 for all 2669 data
REM 113 parameters refined using 0 restraints
END
WGHT      0.0322      0.0000
REM Highest difference peak  0.331,  deepest hole -0.697,  1-sigma level  0.106
Q1    1   0.0275  0.3719  0.5102  11.00000  0.05    0.33
;
_shelx_res_checksum              24811
loop_
_space_group_symop_operation_xyz
'x, y, z'
'-x+1/2, -y, z+1/2'
'x+1/2, -y+1/2, -z'
'-x, y+1/2, -z+1/2'
loop_
_atom_site_type_symbol
_atom_site_label
_atom_site_fract_x
_atom_site_fract_y
_atom_site_fract_z
_atom_site_U_iso_or_equiv
_atom_site_adp_type
_atom_site_calc_flag
_atom_site_occupancy
_atom_site_disorder_assembly
_atom_site_disorder_group
Br Br1 0.52443(5) 0.84406(4) 0.58461(2) 0.04093(10) Uani d 1 . .
Cl Cl1 -0.31036(14) 0.35586(13) 0.53964(4) 0.0489(2) Uani d 1 . .
O O1 0.0516(5) -0.1126(3) 0.68972(13) 0.0555(7) Uani d 1 . .
O O2 0.2906(5) 0.0104(4) 0.75612(13) 0.0684(8) Uani d 1 . .
N N1 0.0211(4) 0.6339(3) 0.57628(13) 0.0376(6) Uani d 1 . .
H H1A 0.139212 0.703405 0.585339 0.051(11) Uiso calc 1 . .
H H1B -0.112446 0.680764 0.589483 0.061(12) Uiso calc 1 . .
H H1C 0.015304 0.615323 0.533010 0.058(12) Uiso calc 1 . .
N N2 0.1576(5) 0.0117(4) 0.70883(14) 0.0435(7) Uani d 1 . .
C C1 0.0557(5) 0.4735(4) 0.61076(14) 0.0315(6) Uani d 1 . .
C C2 -0.0893(5) 0.3361(4) 0.59723(13) 0.0316(6) Uani d 1 . .
C C3 -0.0560(5) 0.1838(4) 0.62907(14) 0.0353(6) Uani d 1 . .
H H3 -0.150708 0.090853 0.620220 0.042 Uiso calc 1 . .
C C4 0.1227(5) 0.1743(4) 0.67451(14) 0.0336(6) Uani d 1 . .
C C5 0.2665(6) 0.3069(5) 0.68918(16) 0.0411(8) Uani d 1 . .
H H5 0.385125 0.295483 0.720224 0.049 Uiso calc 1 . .
C C6 0.2312(6) 0.4597(4) 0.65653(15) 0.0384(7) Uani d 1 . .
H H6 0.326256 0.552208 0.665712 0.046 Uiso calc 1 . .
loop_
_atom_site_aniso_label
_atom_site_aniso_U_11
_atom_site_aniso_U_22
_atom_site_aniso_U_33
_atom_site_aniso_U_12
_atom_site_aniso_U_13
_atom_site_aniso_U_23
Br1 0.03208(15) 0.03898(17) 0.05173(17) -0.00640(13) -0.00074(12) 0.00111(15)
Cl1 0.0427(4) 0.0490(5) 0.0550(4) -0.0100(4) -0.0201(3) 0.0017(4)
O1 0.0662(17) 0.0372(14) 0.0631(15) -0.0065(13) 0.0010(13) 0.0077(11)
O2 0.073(2) 0.064(2) 0.0680(17) 0.0007(16) -0.0280(15) 0.0191(16)
N1 0.0321(12) 0.0338(13) 0.0470(14) -0.0041(11) -0.0043(11) 0.0024(11)
N2 0.0447(16) 0.0424(18) 0.0433(14) 0.0014(14) 0.0024(13) 0.0069(14)
C1 0.0283(14) 0.0320(15) 0.0342(13) -0.0022(12) 0.0033(11) 0.0001(12)
C2 0.0273(12) 0.0336(15) 0.0339(13) -0.0016(12) -0.0019(9) -0.0050(14)
C3 0.0364(14) 0.0300(16) 0.0395(14) -0.0072(12) 0.0003(12) -0.0037(13)
C4 0.0358(14) 0.0310(16) 0.0340(13) -0.0002(14) 0.0020(11) 0.0009(14)
C5 0.0368(16) 0.046(2) 0.0409(16) -0.0033(15) -0.0098(13) 0.0050(15)
C6 0.0343(16) 0.0383(18) 0.0424(15) -0.0106(14) -0.0076(13) 0.0005(15)
loop_
_atom_type_symbol
_atom_type_description
_atom_type_scat_dispersion_real
_atom_type_scat_dispersion_imag
_atom_type_scat_source
C C 0.0033 0.0016 'International Tables Vol C Tables 4.2.6.8 and 6.1.1.4'
H H 0.0000 0.0000 'International Tables Vol C Tables 4.2.6.8 and 6.1.1.4'
N N 0.0061 0.0033 'International Tables Vol C Tables 4.2.6.8 and 6.1.1.4'
O O 0.0106 0.0060 'International Tables Vol C Tables 4.2.6.8 and 6.1.1.4'
Cl Cl 0.1484 0.1585 'International Tables Vol C Tables 4.2.6.8 and 6.1.1.4'
Br Br -0.2901 2.4595 'International Tables Vol C Tables 4.2.6.8 and 6.1.1.4'
loop_
_exptl_crystal_face_index_h
_exptl_crystal_face_index_k
_exptl_crystal_face_index_l
_exptl_crystal_face_perp_dist
0 -4 5 0.1164
0 4 -5 0.1000
-5 0 3 0.1783
5 0 -3 0.1651
0 1 5 0.1121
0 -1 -5 0.1491
-4 1 5 0.1579
-4 -1 -5 0.1878
3 1 5 0.1447
1 -1 -5 0.1600
-1 -1 5 0.1364
1 -1 5 0.1426
0 -1 -1 0.1382
2 -4 -5 0.1656
0 -1 5 0.1218
0 5 -2 0.1016
4 5 -5 0.1392
0 2 -5 0.0939
0 0 1 0.1054
0 4 -27 0.1226
loop_
_geom_angle_atom_site_label_1
_geom_angle_atom_site_label_2
_geom_angle_atom_site_label_3
_geom_angle_site_symmetry_1
_geom_angle_site_symmetry_3
_geom_angle
_geom_angle_publ_flag
H1A N1 H1B . . 109.5 ?
H1A N1 H1C . . 109.5 ?
H1B N1 H1C . . 109.5 ?
C1 N1 H1A . . 109.5 ?
C1 N1 H1B . . 109.5 ?
C1 N1 H1C . . 109.5 ?
O1 N2 O2 . . 123.5(3) ?
O1 N2 C4 . . 119.0(3) ?
O2 N2 C4 . . 117.5(3) ?
C2 C1 N1 . . 120.1(3) ?
C6 C1 N1 . . 119.5(3) ?
C6 C1 C2 . . 120.5(3) ?
C1 C2 Cl1 . . 119.9(2) ?
C3 C2 Cl1 . . 119.7(2) ?
C3 C2 C1 . . 120.4(3) ?
C2 C3 H3 . . 121.2 ?
C4 C3 C2 . . 117.6(3) ?
C4 C3 H3 . . 121.2 ?
C3 C4 N2 . . 117.6(3) ?
C5 C4 N2 . . 119.0(3) ?
C5 C4 C3 . . 123.4(3) ?
C4 C5 H5 . . 120.8 ?
C4 C5 C6 . . 118.3(3) ?
C6 C5 H5 . . 120.8 ?
C1 C6 C5 . . 119.8(3) ?
C1 C6 H6 . . 120.1 ?
C5 C6 H6 . . 120.1 ?
loop_
_geom_bond_atom_site_label_1
_geom_bond_atom_site_label_2
_geom_bond_site_symmetry_2
_geom_bond_distance
_geom_bond_publ_flag
Cl1 C2 . 1.729(3) ?
O1 N2 . 1.217(4) ?
O2 N2 . 1.224(4) ?
N1 H1A . 0.8900 ?
N1 H1B . 0.8900 ?
N1 H1C . 0.8900 ?
N1 C1 . 1.461(4) ?
N2 C4 . 1.475(4) ?
C1 C2 . 1.393(4) ?
C1 C6 . 1.371(4) ?
C2 C3 . 1.379(4) ?
C3 H3 . 0.9300 ?
C3 C4 . 1.378(4) ?
C4 C5 . 1.365(5) ?
C5 H5 . 0.9300 ?
C5 C6 . 1.391(5) ?
C6 H6 . 0.9300 ?
loop_
_geom_hbond_atom_site_label_D
_geom_hbond_atom_site_label_H
_geom_hbond_atom_site_label_A
_geom_hbond_site_symmetry_A
_geom_hbond_distance_DH
_geom_hbond_distance_HA
_geom_hbond_distance_DA
_geom_hbond_angle_DHA
_geom_hbond_publ_flag
N1 H1A Br1 . 0.89 2.47 3.329(2) 162.7 yes
N1 H1B Br1 1_455 0.89 2.45 3.295(2) 159.3 yes
N1 H1C Br1 3_466 0.89 2.41 3.266(3) 162.5 yes
C3 H3 Br1 1_445 0.93 2.79 3.712(3) 172.0 yes
C5 H5 O2 4_656 0.93 2.56 3.199(4) 126.2 yes
loop_
_geom_torsion_atom_site_label_1
_geom_torsion_atom_site_label_2
_geom_torsion_atom_site_label_3
_geom_torsion_atom_site_label_4
_geom_torsion_site_symmetry_1
_geom_torsion_site_symmetry_2
_geom_torsion_site_symmetry_3
_geom_torsion_site_symmetry_4
_geom_torsion
_geom_torsion_publ_flag
Cl1 C2 C3 C4 . . . . 179.9(2) ?
O1 N2 C4 C3 . . . . 10.1(5) ?
O1 N2 C4 C5 . . . . -170.2(3) ?
O2 N2 C4 C3 . . . . -168.8(3) ?
O2 N2 C4 C5 . . . . 10.9(5) ?
N1 C1 C2 Cl1 . . . . -0.1(4) ?
N1 C1 C2 C3 . . . . 179.3(3) ?
N1 C1 C6 C5 . . . . -179.5(3) ?
N2 C4 C5 C6 . . . . -179.8(3) ?
C1 C2 C3 C4 . . . . 0.6(4) ?
C2 C1 C6 C5 . . . . 0.7(5) ?
C2 C3 C4 N2 . . . . 179.7(3) ?
C2 C3 C4 C5 . . . . -0.1(5) ?
C3 C4 C5 C6 . . . . -0.1(5) ?
C4 C5 C6 C1 . . . . -0.2(5) ?
C6 C1 C2 Cl1 . . . . 179.7(2) ?
C6 C1 C2 C3 . . . . -0.9(4) ?
