#------------------------------------------------------------------------------
#$Date: 2022-01-07 00:39:19 +0200 (Fri, 07 Jan 2022) $
#$Revision: 271884 $
#$URL: file:///home/coder/svn-repositories/cod/cif/2/02/25/2022510.cif $
#------------------------------------------------------------------------------
#
# This file is available in the Crystallography Open Database (COD),
# http://www.crystallography.net/. The original data for this entry
# were provided by IUCr Journals, http://journals.iucr.org/.
#
# The file may be used within the scientific community so long as
# proper attribution is given to the journal article from which the
# data were obtained.
#
data_2022510
loop_
_publ_author_name
'Liu, Yan'
'Zhang, Hong-Tao'
_publ_section_title
;
 A new two-dimensional folding sheet-like coordination polymer assembled
 from cadmium(II) and (<i>S</i>)-2-(benzylamino)succinic acid: synthesis,
 structure and properties
;
_journal_coeditor_code           YP3220
_journal_issue                   12
_journal_name_full               'Acta Crystallographica Section C'
_journal_page_first              770
_journal_page_last               776
_journal_paper_doi               10.1107/S2053229621011578
_journal_volume                  77
_journal_year                    2021
_chemical_absolute_configuration syn
_chemical_formula_iupac          '[Cd (C11 H11 N O4) (H2 O1)2], H2 O'
_chemical_formula_moiety         'C11 H15 Cd N O6, H2 O'
_chemical_formula_sum            'C11 H17 Cd N O7'
_chemical_formula_weight         387.65
_chemical_name_systematic
'Poly[[diaqua[\m~3~-(<i>S</i>)-2-(benzylamino)succinato-\k^4^<i>N</i>,<i>O</i>^1^:<i>O</i>^1'^:<i>O</i>^4^]cadmium(II)] monohydrate]'
_space_group_crystal_system      monoclinic
_space_group_IT_number           4
_space_group_name_Hall           'P 2yb'
_space_group_name_H-M_alt        'P 1 21 1'
_atom_sites_solution_hydrogens   geom
_atom_sites_solution_primary     direct
_atom_sites_solution_secondary   difmap
_audit_creation_method           SHELXL-2014/7
_cell_angle_alpha                90
_cell_angle_beta                 95.025(2)
_cell_angle_gamma                90
_cell_formula_units_Z            2
_cell_length_a                   5.8737(9)
_cell_length_b                   8.3842(13)
_cell_length_c                   13.788(2)
_cell_measurement_reflns_used    2906
_cell_measurement_temperature    298(2)
_cell_measurement_theta_max      27.40
_cell_measurement_theta_min      2.85
_cell_volume                     676.40(18)
_computing_cell_refinement
;
SAINT (Bruker, 2004)
;
_computing_data_collection
;
APEX2 (Bruker, 2004)
;
_computing_data_reduction
;
SAINT (Bruker, 2004)
;
_computing_molecular_graphics
;
DIAMOND (Brandenburg, 2008)
;
_computing_structure_refinement
;
SHELXL2014 (Sheldrick, 2015)
;
_computing_structure_solution
;
SHELXS97 (Sheldrick, 2008)
;
_diffrn_ambient_temperature      298(2)
_diffrn_measured_fraction_theta_full 1.000
_diffrn_measured_fraction_theta_max 0.992
_diffrn_measurement_device_type  'Bruker APEXII CCD area detector'
_diffrn_measurement_method       'phi and omega scans'
_diffrn_radiation_type           MoK\a
_diffrn_radiation_wavelength     0.71073
_diffrn_reflns_av_R_equivalents  0.0341
_diffrn_reflns_av_unetI/netI     0.0553
_diffrn_reflns_limit_h_max       7
_diffrn_reflns_limit_h_min       -7
_diffrn_reflns_limit_k_max       10
_diffrn_reflns_limit_k_min       -10
_diffrn_reflns_limit_l_max       17
_diffrn_reflns_limit_l_min       -17
_diffrn_reflns_number            5888
_diffrn_reflns_theta_full        25.242
_diffrn_reflns_theta_max         27.610
_diffrn_reflns_theta_min         1.483
_diffrn_source                   'fine-focus sealed tube'
_exptl_absorpt_coefficient_mu    1.645
_exptl_absorpt_correction_T_max  0.9077
_exptl_absorpt_correction_T_min  0.7649
_exptl_absorpt_correction_type   multi-scan
_exptl_absorpt_process_details
;
(SADABS; Bruker, 2004)
;
_exptl_crystal_colour            colorless
_exptl_crystal_density_diffrn    1.903
_exptl_crystal_description       stick
_exptl_crystal_F_000             388
_exptl_crystal_size_max          0.19
_exptl_crystal_size_mid          0.08
_exptl_crystal_size_min          0.06
_refine_diff_density_max         0.492
_refine_diff_density_min         -0.729
_refine_ls_abs_structure_details
;
Flack <i>x</i> determined using 1034 quotients [(I+)-(I-)]/[(I+)+(I-)]
(Parsons <i>et al.</i>,  2013)
;
_refine_ls_abs_structure_Flack   0.02(3)
_refine_ls_extinction_method     none
_refine_ls_goodness_of_fit_ref   0.941
_refine_ls_hydrogen_treatment    constr
_refine_ls_matrix_type           full
_refine_ls_number_parameters     181
_refine_ls_number_reflns         2952
_refine_ls_number_restraints     163
_refine_ls_restrained_S_all      0.942
_refine_ls_R_factor_all          0.0378
_refine_ls_R_factor_gt           0.0303
_refine_ls_shift/su_max          0.001
_refine_ls_shift/su_mean         0.000
_refine_ls_structure_factor_coef Fsqd
_refine_ls_weighting_details
'w=1/[\s^2^(Fo^2^)+(0.0280P)^2^+0.1306P] where P=(Fo^2^+2Fc^2^)/3'
_refine_ls_weighting_scheme      calc
_refine_ls_wR_factor_gt          0.0609
_refine_ls_wR_factor_ref         0.0642
_reflns_number_gt                2618
_reflns_number_total             2952
_reflns_threshold_expression     'I > 2\s(I)'
_cod_data_source_file            yp3220sup1.cif
_cod_data_source_block           I
_cod_original_cell_volume        676.39(18)
_cod_original_sg_symbol_H-M      'P 21'
_cod_database_code               2022510
_shelx_space_group_comment
;
The symmetry employed for this shelxl refinement is uniquely defined
by the following loop, which should always be used as a source of
symmetry information in preference to the above space-group names.
They are only intended as comments.
;
_shelx_estimated_absorpt_t_min   0.854
_shelx_estimated_absorpt_t_max   0.906
_shelx_hkl_file
;
  -1   0   0 4010.07  112.19
  -1   0   0 4145.96  111.18
  -1   0   0 3990.42  111.12
  -2   0   0 4092.24  116.22
  -2   0   0 4289.71  116.31
  -2   0   0 4128.79  119.61
  -3   0   0  555.69   22.29
  -3   0   0  512.42   21.88
  -3   0   0  531.44   25.96
  -4   0   0   25.92    8.87
  -4   0   0   19.25    6.68
   4   0   0   22.83    7.38
  -5   0   0   21.20   10.33
  -6   0   0   51.29   14.28
  -7   0   0   32.81   15.28
   0  -1   0   -5.99    1.65
   0  -1   0   -5.04    1.42
   0   1   0   -6.04    2.00
  -1  -1   0  362.77   14.52
   1  -1   0  339.30   14.09
  -1  -1   0  336.76   12.35
  -1  -1   0  330.01   14.32
  -2  -1   0 3142.15   91.52
  -2   1   0 3131.44   87.20
   2  -1   0 3322.13   91.81
  -2  -1   0 3179.68   93.40
  -2  -1   0 3158.04   88.74
  -2   1   0 2996.14   92.60
  -3   1   0  883.96   28.73
   3  -1   0  857.59   32.60
  -3  -1   0  861.81   35.38
  -3   1   0  800.50   34.46
  -3  -1   0  846.63   32.77
  -3  -1   0  869.41   29.95
   4  -1   0  508.99   25.31
  -4  -1   0  525.42   29.50
  -4  -1   0  558.49   23.85
  -4   1   0  527.39   29.42
  -5  -1   0  718.86   39.15
  -5   1   0  737.25   39.92
  -5  -1   0  759.26   35.14
  -6   1   0  457.36   33.60
  -6  -1   0  414.36   32.22
  -7  -1   0  229.51   27.41
  -7   1   0  193.65   27.79
   0  -2   0 4811.39  134.05
   0  -2   0 4922.69  133.23
   0   2   0 4772.04  135.43
  -1  -2   0 3426.64  100.03
   1  -2   0 3512.20  100.51
  -1  -2   0 3533.58   98.20
   1  -2   0 3478.76   96.17
  -1  -2   0 3537.35  100.74
  -2  -2   0 1724.79   57.36
  -2  -2   0 1783.34   53.53
  -2   2   0 1857.73   58.75
   2  -2   0 1798.09   57.45
  -3   2   0 1155.44   45.83
  -3  -2   0 1221.72   46.26
  -3  -2   0 1261.82   39.86
  -3  -2   0 1170.22   44.34
   3  -2   0 1253.72   44.28
   4  -2   0  298.99   20.54
  -4  -2   0  330.39   23.39
  -4  -2   0  324.22   21.76
  -4   2   0  365.35   24.04
   5  -2   0  375.98   23.90
  -5   2   0  331.10   26.05
  -5  -2   0  316.52   25.82
  -5  -2   0  325.89   23.51
  -6   2   0   46.27   14.70
  -6  -2   0   49.51   14.51
  -7   2   0   18.24   13.23
  -7  -2   0   10.32   12.47
   0  -3   0    3.21    3.62
   0   3   0    7.96    6.73
   0  -3   0   -3.66    3.72
  -1  -3   0  386.37   18.37
  -1  -3   0  303.59   15.69
   1  -3   0  380.91   14.23
   1  -3   0  404.96   18.88
  -2  -3   0  288.73   17.54
  -2   3   0  250.13   18.75
  -2  -3   0  314.59   15.31
   2  -3   0  310.77   18.10
  -2  -3   0  333.78   19.14
  -3  -3   0  540.52   22.25
  -3   3   0  544.56   28.81
   3  -3   0  514.40   26.12
  -3  -3   0  477.65   26.57
  -3  -3   0  487.32   26.50
  -4   3   0  788.29   38.77
  -4  -3   0  803.75   37.46
  -4  -3   0  761.27   38.09
   4  -3   0  736.96   35.63
  -5   3   0  578.20   35.44
   5  -3   0  568.15   31.85
  -5  -3   0  589.03   33.80
  -5  -3   0  640.79   36.84
  -6  -3   0  486.62   33.05
  -6  -3   0  571.50   37.97
  -6   3   0  533.58   37.36
  -7   3   0  185.70   28.30
  -7  -3   0  232.87   27.48
   0  -4   0 2695.37   80.36
   0  -4   0 2664.07   82.49
   1  -4   0 3644.38  110.79
   1   4   0 3722.90  112.16
   1  -4   0 3683.12  104.61
  -1  -4   0 3695.49  110.27
  -1  -4   0 3746.48  108.89
  -2  -4   0 1244.05   47.44
  -2  -4   0 1288.54   43.08
   2  -4   0 1195.11   46.01
  -2  -4   0 1186.35   46.35
   2  -4   0 1224.31   36.67
  -2   4   0 1231.42   48.60
  -3  -4   0  570.78   24.64
   3  -4   0  544.98   28.97
  -3   4   0  500.04   30.29
  -3  -4   0  542.89   29.16
  -3  -4   0  535.33   29.78
  -4   4   0  309.91   25.98
  -4  -4   0  336.50   25.38
   4  -4   0  343.51   23.67
  -4  -4   0  341.61   24.78
  -5   4   0  157.11   21.54
  -5  -4   0  159.22   21.34
   5  -4   0  141.47   19.01
  -5  -4   0  153.21   20.31
  -6   4   0    0.35   11.49
  -6  -4   0   17.59   11.44
  -6  -4   0    5.84   10.19
  -7  -4   0   18.99   12.81
  -7   4   0   24.48   15.39
   0  -5   0   -7.00    4.56
   0  -5   0   -3.57    4.05
   0   5   0    9.09    9.44
  -1  -5   0  127.47   12.79
   1  -5   0  111.95   13.58
  -1   5   0  147.33   18.49
  -1  -5   0  133.77   13.32
   1   5   0  122.06   16.06
   1  -5   0  134.75   10.57
  -2   5   0  413.75   27.94
  -2  -5   0  373.08   23.30
   2   5   0  440.30   26.84
  -2  -5   0  408.97   21.89
   2  -5   0  407.40   24.52
  -3  -5   0  409.76   26.73
  -3  -5   0  438.52   27.97
  -3   5   0  404.61   28.69
   3  -5   0  413.69   26.45
  -4  -5   0  433.41   29.06
   4  -5   0  365.61   25.88
  -4  -5   0  445.33   29.91
  -4   5   0  414.52   29.70
  -5  -5   0  351.84   29.28
  -5   5   0  405.11   31.31
   5  -5   0  353.79   26.33
  -5  -5   0  375.16   28.65
  -6   5   0  184.99   26.58
   6  -5   0  238.03   23.92
  -6  -5   0  232.87   26.33
  -6  -5   0  210.51   27.04
   0   6   0 1468.48   58.22
   0  -6   0 1395.10   53.75
   0  -6   0 1363.64   50.33
  -1  -6   0  711.58   33.12
   1  -6   0  703.90   29.07
   1  -6   0  638.69   33.66
   1   6   0  764.68   39.16
  -1  -6   0  684.30   32.55
  -1   6   0  685.74   38.86
  -2   6   0  704.62   39.96
   2   6   0  699.26   39.01
   2  -6   0  779.71   37.34
  -2  -6   0  725.87   35.81
  -3  -6   0  257.67   22.19
   3  -6   0  266.16   22.84
  -3   6   0  244.01   24.52
  -4  -6   0  176.20   20.42
  -4  -6   0  180.42   23.71
   4  -6   0  180.20   19.59
  -4   6   0  185.01   21.93
  -5  -6   0   33.00   12.94
   5  -6   0   61.89   14.80
  -5   6   0   69.16   17.02
  -5  -6   0   59.16   16.24
  -6  -6   0   33.01   14.93
  -6  -6   0   64.37   17.20
   6  -6   0   30.58   13.99
  -6   6   0   23.91   15.48
   0   7   0  -12.62   12.32
   0  -7   0    4.32    6.52
   0  -7   0    6.83    8.89
   1  -7   0  154.03   18.62
  -1  -7   0  152.13   16.52
  -1  -7   0  146.58   16.96
  -1   7   0  119.12   22.20
   1   7   0  121.76   20.55
  -2  -7   0  412.67   25.95
  -2   7   0  427.42   32.73
   2   7   0  406.17   31.50
   2  -7   0  392.31   27.49
  -2  -7   0  389.91   26.33
  -3   7   0  248.96   25.72
   3  -7   0  238.77   22.38
   3   7   0  232.50   24.53
  -3  -7   0  243.18   22.06
   4  -7   0  206.78   22.08
  -4   7   0  213.59   24.79
   4   7   0  242.99   25.88
  -4  -7   0  242.73   24.23
  -5  -7   0  162.82   24.20
  -5  -7   0  157.32   25.11
   5  -7   0  155.23   23.36
  -5   7   0  165.52   25.68
   0   8   0  504.64   37.95
   0  -8   0  626.36   35.05
   0  -8   0  608.64   31.60
  -1  -8   0  893.64   42.66
   1   8   0  851.78   47.64
  -1  -8   0  879.99   43.34
   1  -8   0  922.52   45.51
  -1   8   0  885.97   50.58
  -2  -8   0  310.65   24.91
   2  -8   0  362.14   27.95
   2   8   0  320.30   29.91
  -2   8   0  335.26   33.16
  -2  -8   0  349.56   26.73
  -3  -8   0  198.90   21.38
   3   8   0  196.19   26.39
   3  -8   0  161.46   22.82
  -3   8   0  175.23   25.75
   4  -8   0   72.00   16.93
   4   8   0   98.65   20.97
  -4  -8   0   55.15   15.16
  -4   8   0   54.90   18.24
  -5  -8   0   -2.00    9.74
   5   8   0   35.96   16.37
  -5   8   0   19.08   16.30
   5  -8   0   23.57   13.33
   0   9   0   23.37   17.14
   0  -9   0   -0.19    8.91
   1   9   0   -0.89   13.46
  -1  -9   0   15.19   11.48
  -1   9   0   19.94   17.11
   1  -9   0   24.30   12.11
  -1  -9   0   20.24    9.78
  -2   9   0  128.42   25.98
  -2  -9   0   90.34   16.83
   2  -9   0   82.54   18.14
   2   9   0   99.38   21.93
   3   9   0  138.78   25.52
   3  -9   0  157.39   23.55
  -3   9   0  144.53   25.26
  -3  -9   0  169.61   24.08
  -4  -9   0  117.28   21.80
   4   9   0  168.79   27.33
  -4   9   0   79.54   21.33
   4  -9   0  108.96   21.14
   0 -10   0  234.13   25.90
   0  10   0  120.14   27.39
  -1 -10   0  174.25   24.33
   1 -10   0  138.24   22.75
  -1  10   0  170.67   29.89
  -1 -10   0  186.00   21.45
   1  10   0  176.37   29.68
   2  10   0  139.36   27.63
   2 -10   0  134.36   23.76
  -2 -10   0  178.23   24.63
  -2  10   0  217.53   32.55
  -3 -10   0  138.30   23.17
   3  10   0  196.61   32.26
  -3  10   0  198.64   31.53
   3 -10   0  158.80   25.06
  -7   0   1   31.57   14.40
  -6   0   1  592.20   37.25
  -5   0   1  687.52   36.80
  -4   0   1  529.43   24.82
  -4   0   1  616.33   27.39
  -4   0   1  584.84   30.32
  -3   0   1 2153.79   70.65
  -3   0   1 2204.85   66.07
  -2   0   1  809.25   29.48
  -2   0   1  817.37   26.77
  -2   0   1  775.15   27.64
  -1   0   1 1422.80   40.91
  -1   0   1 1324.78   40.78
  -1   0   1 1412.24   40.13
   0   0  -1 4854.23  133.35
  -1   0  -1 2857.99   83.06
   1   0   1 3028.15   81.76
  -2   0  -1 1971.46   63.16
   2   0   1 2048.53   58.96
  -2   0  -1 2071.61   60.31
  -3   0  -1   53.58    9.69
   3   0   1   64.14    7.81
  -3   0  -1   54.28    7.70
  -4   0  -1   31.63    7.71
  -4   0  -1   45.14   10.44
   4   0   1   25.68    7.00
  -5   0  -1  288.92   24.55
  -6   0  -1  271.81   25.54
  -7   0  -1   42.47   15.68
  -7   1   1  139.70   23.76
  -7  -1   1  109.00   21.31
  -6  -1   1  173.45   20.86
  -6   1   1  175.92   23.71
   5  -1  -1  117.71   15.33
  -5   1   1   88.78   16.07
  -5  -1   1   81.44   15.51
  -5  -1   1   96.14   13.88
  -4  -1   1   82.46   10.82
  -4   1   1   73.43   12.48
  -4  -1   1   71.97   12.33
   4  -1  -1   76.50   11.86
  -3  -1   1  114.43   10.87
  -3  -1   1  125.54   10.14
  -3   1   1  127.51    8.33
  -3   1   1  132.11   12.39
  -3  -1   1   99.57   11.41
   3  -1  -1  135.04   12.38
  -2  -1   1  191.88   12.56
  -2   1   1  200.78   13.13
  -2   1   1  187.02    8.07
  -2  -1   1  174.51   10.28
  -2  -1   1  179.17   11.58
  -1  -1   1    6.15    3.48
  -1  -1   1    0.63    3.06
  -1   1   1    1.28    4.26
   1  -1  -1   -1.97    3.46
  -1  -1   1    4.55    3.09
   0  -1  -1 2082.84   59.75
   0   1   1 2178.12   60.20
   0  -1  -1 2150.78   59.83
   0  -1   1 2087.53   60.24
   0  -1   1 2119.04   59.82
   0   1  -1 2118.37   60.42
   1  -1   1 4917.74  135.41
  -1   1  -1 4945.62  134.69
  -1  -1  -1 5017.05  136.74
  -1   1  -1 4872.59  136.80
  -1  -1  -1 4856.75  136.00
   2  -1   1 3821.60  104.42
  -2   1  -1 3679.26  101.51
  -2   1  -1 3499.16  106.64
  -2  -1  -1 3592.04  100.68
  -2  -1  -1 3700.73  105.57
  -3   1  -1 3617.53  113.57
  -3  -1  -1 3782.75  105.63
  -3  -1  -1 3694.77  113.93
  -3   1  -1 3855.89  106.50
  -3  -1  -1 3726.15  110.98
   3  -1   1 3841.06  109.36
  -4  -1  -1  997.93   39.83
  -4  -1  -1 1021.60   44.23
   4  -1   1 1051.06   38.71
  -4   1  -1  971.73   43.84
  -5  -1  -1  817.81   37.92
  -5  -1  -1  786.12   42.21
  -5   1  -1  875.42   43.50
  -6   1  -1  413.05   31.68
  -6  -1  -1  398.19   31.71
  -7  -1  -1  209.50   29.04
  -7   1  -1  227.57   26.64
  -7   2   1   71.35   19.09
  -7  -2   1   75.87   18.05
  -6  -2   1  169.14   23.16
  -6   2   1  144.98   22.04
  -5   2   1  670.06   37.96
  -5  -2   1  722.25   38.74
  -5  -2   1  681.37   34.92
   5  -2  -1  697.40   34.52
  -4  -2   1 1084.83   39.36
   4  -2  -1  973.57   41.65
  -4  -2   1 1061.95   45.16
  -4  -2   1 1081.72   43.38
  -4   2   1 1098.16   45.83
  -3   2   1 1226.61   46.50
  -3  -2   1 1252.32   42.24
  -3  -2   1 1308.98   47.26
  -3  -2   1 1259.98   45.76
   3  -2  -1 1204.44   45.40
  -2  -2   1  890.31   33.50
  -2  -2   1  862.90   33.41
   2  -2  -1  854.63   33.32
  -2  -2   1  938.82   31.53
  -2   2   1  957.23   34.38
  -1  -2   1 2105.50   62.27
  -1  -2   1 2116.59   63.36
   1  -2  -1 2093.68   63.71
   1  -2  -1 2102.03   58.74
  -1   2   1 2043.10   64.60
  -1  -2   1 2143.14   63.63
   0   2  -1  249.11   15.77
   0  -2   1  286.20   13.11
   0  -2  -1  316.84   13.68
   0  -2   1  306.17   14.57
   0  -2  -1  292.68   13.09
  -1  -2  -1 1807.42   55.29
  -1  -2  -1 1836.70   55.52
  -1  -2  -1 1826.16   51.82
   1  -2   1 1789.92   51.18
  -1   2  -1 1696.19   56.67
   1  -2   1 1750.09   54.77
  -2   2  -1 1006.51   38.36
  -2  -2  -1 1034.65   37.62
  -2   2  -1 1054.83   30.82
   2  -2   1 1059.45   36.63
  -2  -2  -1  988.07   37.68
  -2  -2  -1 1026.07   31.80
  -3   2  -1  372.95   14.44
  -3  -2  -1  407.18   21.36
   3  -2   1  364.16   19.91
  -3   2  -1  339.20   22.01
  -3  -2  -1  360.28   21.54
  -3  -2  -1  379.92   15.31
  -4   2  -1   44.86   12.07
  -4  -2  -1   47.70   10.88
  -4  -2  -1   40.59   10.67
   4  -2   1   41.81    9.67
  -5  -2  -1   14.34    8.60
   5  -2   1   15.67    9.16
  -5  -2  -1   16.80    9.25
  -5   2  -1    4.41    9.06
  -6  -2  -1   68.57   16.57
  -6   2  -1   73.85   17.12
  -7  -2  -1   72.07   19.38
  -7   2  -1   61.10   18.00
  -7   3   1   86.29   21.40
  -7  -3   1  148.31   24.59
  -6   3   1  188.92   25.44
  -6  -3   1  211.93   23.60
  -6  -3   1  166.42   22.13
  -5  -3   1   38.36   11.98
  -5   3   1   34.96   12.23
  -5  -3   1   45.09   12.95
   5  -3  -1   46.35   11.99
  -4  -3   1  317.98   22.93
  -4  -3   1  318.32   22.65
  -4   3   1  336.24   24.87
   4  -3  -1  339.22   23.31
   3  -3  -1  216.86   16.81
  -3  -3   1  228.17   14.78
  -3  -3   1  214.10   17.11
  -3   3   1  211.60   18.50
  -3  -3   1  193.63   16.30
  -2  -3   1  412.58   18.53
  -2   3   1  344.72   21.25
  -2  -3   1  374.57   20.47
  -2  -3   1  407.88   20.79
   2  -3  -1  366.66   20.48
   1  -3  -1    5.64    4.79
  -1  -3   1   11.12    4.81
  -1   3   1   19.20    7.72
   1   3  -1    8.39    6.08
  -1  -3   1    9.13    4.56
   1  -3  -1    9.32    3.01
   0  -3  -1 2197.38   66.22
   0   3   1 2181.96   68.16
   0   3  -1 2123.41   68.22
   0  -3   1 2121.78   65.02
   0  -3   1 2253.40   67.44
   0  -3  -1 2219.11   65.34
   1  -3   1 3357.64  102.66
  -1  -3  -1 3512.01   99.67
   1  -3   1 3438.65   97.84
  -1  -3  -1 3545.46  102.88
  -1  -3  -1 3559.15  103.65
  -1   3  -1 3546.92  105.69
  -2  -3  -1 1976.98   66.88
  -2   3  -1 2092.77   69.00
  -2  -3  -1 2125.42   61.50
  -2  -3  -1 1969.43   67.11
  -2   3  -1 2121.59   58.95
   2  -3   1 2022.43   66.03
  -3  -3  -1 1282.98   50.02
  -3   3  -1 1311.69   51.02
  -3  -3  -1 1288.11   49.24
  -3  -3  -1 1366.22   41.98
   3  -3   1 1259.39   47.77
  -4   3  -1  754.62   38.49
  -4  -3  -1  743.28   37.75
  -4  -3  -1  754.62   36.44
   4  -3   1  776.67   35.26
  -5   3  -1  623.61   38.05
  -5  -3  -1  738.61   38.28
  -5  -3  -1  626.40   38.09
   5  -3   1  758.44   35.73
  -6   3  -1  455.76   34.66
  -6  -3  -1  472.15   32.01
  -6  -3  -1  404.34   32.40
  -7  -3  -1  251.63   28.98
  -7   3  -1  255.98   29.19
  -7   4   1   58.00   19.22
  -7  -4   1   90.83   19.92
  -6  -4   1  122.76   20.78
  -6  -4   1  119.09   20.19
   6  -4  -1  123.47   19.39
  -6   4   1  111.78   20.95
  -5   4   1  418.50   30.52
  -5  -4   1  352.17   27.69
  -5  -4   1  373.15   28.06
   5  -4  -1  426.58   28.60
   4  -4  -1  759.91   37.50
  -4  -4   1  745.80   38.69
  -4   4   1  749.79   38.83
  -4  -4   1  764.10   37.90
  -3  -4   1  936.74   41.70
   3  -4  -1  957.97   42.06
  -3  -4   1 1100.14   39.39
  -3  -4   1 1018.94   43.18
  -3   4   1  969.37   43.18
  -2  -4   1 2037.76   67.88
  -2  -4   1 2052.91   68.64
   2  -4  -1 2087.48   56.96
   2  -4  -1 1963.90   67.80
  -2   4   1 1863.40   68.48
  -1   4   1 2477.62   82.12
   1  -4  -1 2497.30   79.46
  -1  -4   1 2595.11   78.69
   1  -4  -1 2544.29   73.54
   1   4  -1 2537.92   80.65
  -1  -4   1 2460.30   78.44
   0  -4   1 1574.84   53.12
   0  -4   1 1589.15   50.82
   0  -4  -1 1552.77   52.00
   0   4  -1 1553.48   54.78
   0  -4  -1 1478.29   50.13
   0   4   1 1568.27   54.80
  -1  -4  -1 1755.92   58.77
  -1   4  -1 1747.31   62.87
   1  -4   1 1841.50   54.69
   1  -4   1 1748.23   59.57
   1   4   1 1756.02   60.65
  -2   4  -1  690.88   33.89
  -2  -4  -1  707.85   27.46
  -2  -4  -1  699.50   31.82
   2  -4   1  688.87   31.59
  -2  -4  -1  717.40   33.07
  -3  -4  -1   -2.95    5.44
   3  -4   1   -3.17    5.86
  -3  -4  -1   15.34    7.74
  -3   4  -1    8.60    9.15
  -4  -4  -1   33.54   11.15
   4  -4   1   19.51    9.76
  -4   4  -1   25.26   11.44
  -4  -4  -1   47.93   12.21
  -5   4  -1   34.82   13.17
  -5  -4  -1   13.04    9.92
  -5  -4  -1    6.97    8.44
   5  -4   1    7.23    8.98
  -6   4  -1  129.77   22.50
  -6  -4  -1  124.29   21.22
  -6  -4  -1  130.92   20.73
  -7  -4  -1   82.29   20.39
  -7   4  -1  113.91   24.34
  -6  -5   1   99.08   19.40
  -6   5   1   71.24   18.17
   6  -5  -1   86.90   17.88
  -6  -5   1  100.20   19.41
   5  -5  -1  115.93   17.97
  -5  -5   1  118.33   19.26
  -5  -5   1  127.63   20.03
  -5   5   1  163.78   23.15
  -4  -5   1   49.56   13.46
  -4   5   1   39.00   13.20
   4  -5  -1   35.14   11.74
  -4  -5   1   64.54   13.88
  -3  -5   1   15.85    9.43
  -3  -5   1   10.15    6.51
   3  -5  -1    4.07    7.29
  -3   5   1    8.61   11.48
  -3  -5   1   26.69    9.32
   2  -5  -1   14.66    7.80
  -2  -5   1    6.02    6.42
  -2   5   1   15.63   12.09
  -2  -5   1   24.27    7.50
   2   5  -1   10.52    9.49
  -1  -5   1  218.17   16.19
  -1   5   1  251.85   22.19
   1   5  -1  216.97   19.55
  -1  -5   1  248.22   17.07
   1  -5  -1  249.91   13.99
   1  -5  -1  249.12   17.84
   0   5  -1  544.49   29.95
   0  -5   1  506.74   26.21
   0  -5   1  510.00   23.78
   0  -5  -1  515.78   25.69
   0   5   1  468.48   28.02
   0  -5  -1  489.44   23.65
  -1   5  -1 1178.45   50.00
   1  -5   1 1193.57   41.30
  -1  -5  -1 1226.21   46.01
  -1  -5  -1 1225.18   44.30
   1  -5   1 1216.88   47.15
   1   5   1 1194.00   48.12
  -2   5  -1  995.52   46.61
  -2  -5  -1 1086.35   40.14
  -2  -5  -1 1048.16   43.91
   2  -5   1 1114.35   44.82
  -3  -5  -1  562.30   32.99
   3  -5   1  619.88   32.31
  -3  -5  -1  603.25   32.74
  -3   5  -1  576.98   34.54
  -4  -5  -1  939.42   46.38
  -4  -5  -1 1045.91   48.76
   4  -5   1  930.58   44.29
  -4   5  -1  961.52   48.28
   5  -5   1  279.02   23.99
  -5  -5  -1  272.09   24.56
  -5   5  -1  260.88   26.56
  -5  -5  -1  225.72   24.16
  -6   5  -1  217.92   29.41
  -6  -5  -1  248.63   25.78
  -6  -5  -1  235.43   26.30
   6  -6  -1  168.55   23.73
  -6  -6   1  226.61   26.86
  -6  -6   1  170.45   26.15
  -6   6   1  214.29   28.62
  -5   6   1  179.46   25.25
   5  -6  -1  200.40   22.25
  -5  -6   1  243.29   24.51
  -5  -6   1  209.48   24.01
  -4  -6   1  416.43   29.81
   4  -6  -1  442.50   29.55
  -4  -6   1  450.49   31.73
  -4   6   1  407.04   30.66
   3   6  -1  421.69   30.00
  -3   6   1  377.37   30.81
   3  -6  -1  460.74   29.28
  -3  -6   1  468.49   26.15
  -3  -6   1  453.73   28.78
   2  -6  -1  554.65   31.27
  -2  -6   1  598.11   29.81
  -2   6   1  550.06   36.19
   2   6  -1  541.97   32.98
  -2  -6   1  510.41   29.55
   1  -6  -1  672.07   27.75
  -1  -6   1  656.98   31.85
  -1   6   1  617.74   36.99
   1   6  -1  622.74   36.42
   1  -6  -1  632.17   32.63
  -1  -6   1  661.53   32.27
   0  -6  -1 1015.98   39.60
   0  -6   1  949.30   39.11
   0  -6   1 1060.38   43.37
   0   6  -1  944.26   46.44
   0  -6  -1 1039.30   42.45
   0   6   1  965.10   46.28
  -1   6  -1  492.93   33.96
   1  -6   1  501.13   23.87
  -1  -6  -1  485.75   26.84
  -1  -6  -1  492.49   26.35
   1   6   1  532.92   32.03
   1  -6   1  498.59   28.60
  -2   6  -1  538.24   34.90
   2  -6   1  580.16   32.15
  -2  -6  -1  560.82   27.71
  -2  -6  -1  543.12   30.84
   2   6   1  529.88   34.18
  -3  -6  -1   89.79   15.80
  -3   6  -1   86.08   17.54
   3  -6   1  113.31   16.92
   4  -6   1    3.38    8.20
  -4  -6  -1   10.53   10.89
  -4   6  -1    9.60   11.53
  -4  -6  -1   14.71    9.53
  -5  -6  -1   28.01   12.75
   5  -6   1   65.48   15.77
  -5   6  -1   13.90   13.50
  -5  -6  -1   21.87   11.92
  -6  -6  -1   54.66   17.68
  -6   6  -1   53.78   17.48
   6  -6   1   33.63   13.22
  -6  -6  -1   47.54   15.57
  -5  -7   1    6.35   12.06
  -5   7   1    3.35   11.89
   5  -7  -1    0.69    9.59
  -5  -7   1   19.44   11.78
   4   7  -1    8.35   12.92
  -4   7   1    4.41   11.46
  -4  -7   1   -5.03    7.82
   4  -7  -1    7.86    9.22
   3  -7  -1   12.85    9.91
  -3   7   1    9.22   12.80
  -3  -7   1   17.20    9.33
   3   7  -1    8.45   12.68
   2  -7  -1   21.58   10.27
  -2   7   1   26.98   14.30
  -2  -7   1   15.98    9.14
   2   7  -1   35.37   14.79
  -2  -7   1   12.13    8.10
  -1   7   1  112.31   20.68
   1  -7  -1   98.21   16.05
  -1  -7   1  112.23   15.47
   1   7  -1  137.71   21.77
  -1  -7   1  106.56   15.79
   0  -7  -1  138.45   17.96
   0   7   1  121.43   21.13
   0  -7  -1  135.56   14.39
   0   7  -1  146.13   22.66
   0  -7   1   95.30   15.33
   0  -7   1  120.80   14.30
   1   7   1  538.97   35.80
  -1  -7  -1  549.58   30.13
   1  -7   1  534.66   31.95
  -1   7  -1  550.60   37.19
  -1  -7  -1  538.25   29.72
  -2  -7  -1  782.52   39.55
  -2  -7  -1  824.77   37.26
   2  -7   1  753.72   40.51
  -2   7  -1  748.08   44.07
   2   7   1  869.04   44.34
   3  -7   1  624.34   36.45
   3   7   1  642.95   39.67
  -3  -7  -1  661.39   36.98
  -3   7  -1  538.30   37.65
   4  -7   1  352.12   27.97
  -4  -7  -1  362.06   28.96
  -4   7  -1  346.05   31.53
  -5  -7  -1  255.33   28.29
   5  -7   1  250.09   26.13
  -5   7  -1  296.11   31.03
  -5  -7  -1  259.72   26.36
  -5  -8   1  114.63   21.93
   5   8  -1   78.62   21.07
   5  -8  -1   90.12   19.79
  -5   8   1   99.44   22.83
  -4  -8   1  275.46   27.01
  -4   8   1  241.93   27.52
   4  -8  -1  250.06   25.52
   4   8  -1  246.50   27.44
  -3  -8   1  222.14   23.52
   3   8  -1  257.99   27.25
   3  -8  -1  255.88   24.60
  -3   8   1  270.91   29.11
   2  -8  -1  446.33   31.90
   2   8  -1  466.68   34.83
  -2   8   1  415.66   34.57
  -2  -8   1  501.96   31.15
  -2  -8   1  440.86   29.92
  -1   8   1  647.15   43.31
   1   8  -1  671.27   41.39
   1  -8  -1  645.41   37.60
  -1  -8   1  644.33   35.19
  -1  -8   1  664.15   37.10
   0  -8   1  545.51   30.72
   0  -8  -1  503.87   32.73
   0  -8   1  650.10   35.95
   0   8  -1  549.26   38.83
   0  -8  -1  560.35   30.50
   0   8   1  529.59   39.04
  -1   8  -1  423.06   34.48
   1   8   1  453.71   35.26
  -1  -8  -1  407.59   27.59
  -1  -8  -1  470.67   29.75
   1  -8   1  406.50   29.62
   2  -8   1   70.57   15.29
  -2   8  -1   45.01   17.33
   2   8   1   58.22   17.23
  -2  -8  -1   65.86   14.14
  -3  -8  -1   64.94   14.77
  -3   8  -1   24.42   15.74
   3  -8   1   48.93   13.90
   3   8   1   72.27   19.17
   4   8   1   -2.92   12.40
   4  -8   1   -5.55    8.48
  -4   8  -1   -1.64   11.90
  -4  -8  -1   13.13   10.41
   5  -8   1   47.40   16.31
  -5   8  -1   54.12   20.00
  -5  -8  -1   36.08   14.11
   5   8   1   30.92   16.11
   4   9  -1    3.12   14.18
   4  -9  -1   27.73   13.41
  -4  -9   1   15.36   12.90
  -4   9   1   20.37   15.68
   3  -9  -1   -1.99    9.67
  -3  -9   1    7.27    9.68
  -3   9   1   -0.73   13.45
   3   9  -1    8.11   14.02
  -2  -9   1   19.12   10.52
   2   9  -1    7.45   16.18
   2  -9  -1   12.38   11.15
  -2   9   1   18.50   16.38
  -1   9   1   78.44   21.80
  -1  -9   1   97.00   17.73
   1   9  -1  102.75   22.68
  -1  -9   1   73.34   15.22
   1  -9  -1   84.13   17.03
   0   9   1  167.87   27.06
   0  -9   1  179.73   21.93
   0   9  -1  142.16   26.71
   0  -9  -1  167.71   19.99
   1   9   1  171.41   26.86
  -1   9  -1  207.99   29.57
   1  -9   1  183.54   21.65
  -1  -9  -1  204.41   21.22
  -1  -9  -1  202.31   22.30
   2   9   1  310.03   32.41
  -2   9  -1  345.66   35.59
   2  -9   1  365.07   31.17
  -2  -9  -1  418.16   30.75
   3  -9   1  295.18   27.98
  -3   9  -1  290.64   31.40
   3   9   1  298.26   32.32
  -3  -9  -1  301.94   27.73
   4  -9   1  213.42   25.34
  -4   9  -1  155.42   27.23
  -4  -9  -1  173.38   25.93
   4   9   1  174.90   27.92
  -3  10   1  178.12   30.25
   3  10  -1  168.63   30.47
  -3 -10   1  218.97   26.25
   3 -10  -1  185.54   27.71
  -2  10   1  274.27   33.31
  -2 -10   1  238.07   26.18
   2 -10  -1  284.89   28.61
   2  10  -1  265.39   34.60
   1 -10  -1  160.19   24.11
  -1  10   1  161.35   29.34
  -1 -10   1  176.23   21.54
  -1 -10   1  181.20   24.69
   1  10  -1  168.39   29.99
   0  10   1   68.56   23.77
   0 -10   1   97.10   19.69
   0 -10  -1  124.24   21.56
   0  10  -1   90.61   25.60
   1  10   1   78.98   22.97
  -1  10  -1   81.28   23.44
  -1 -10  -1   95.69   17.64
   1 -10   1   96.23   19.28
  -2  10  -1   16.42   18.13
   2  10   1   39.67   20.44
   2 -10   1   15.28   12.63
  -2 -10  -1   24.38   13.12
  -3  10  -1   13.68   17.23
   3  10   1    8.83   16.67
  -7   0   2  227.27   29.79
  -6   0   2  868.89   46.21
  -5   0   2 1130.39   45.48
  -5   0   2 1054.48   48.11
  -4   0   2  560.28   29.70
  -4   0   2  648.06   27.11
  -4   0   2  613.16   28.59
  -3   0   2 2459.02   78.11
  -3   0   2 2517.48   74.66
  -3   0   2 2482.60   76.84
  -2   0   2   50.43    6.83
  -2   0   2   56.42    6.34
  -2   0   2   51.94    6.88
  -1   0   2 1000.12   30.11
   0   0   2  575.92   18.57
   0   0  -2  569.21   19.67
   1   0   2  601.87   18.33
  -1   0  -2  575.33   21.35
  -1   0  -2  561.59   21.15
  -2   0  -2  172.94   12.45
   2   0   2  163.43    8.41
   3   0   2  220.00   12.14
  -3   0  -2  239.90   17.47
  -3   0  -2  248.87   14.74
  -4   0  -2  578.33   31.50
  -4   0  -2  614.49   27.76
  -5   0  -2  619.66   35.85
  -6   0  -2  561.99   37.08
  -7   0  -2  196.60   28.15
  -7  -1   2   30.54   15.15
  -7   1   2   70.52   18.11
  -6  -1   2   40.09   13.27
  -6   1   2   46.96   13.42
  -5  -1   2   60.17   11.50
  -5  -1   2   36.45   10.76
  -5   1   2   48.12   12.57
   5  -1  -2   32.73   10.82
  -4  -1   2  410.30   24.61
  -4  -1   2  414.28   22.14
  -4   1   2  413.93   25.47
  -3   1   2  933.17   36.70
  -3  -1   2 1013.32   36.29
  -3  -1   2  927.04   37.15
  -3   1   2  985.26   31.46
  -3   1   2  933.74   36.77
  -2  -1   2  186.38   11.91
  -2   1   2  211.18   12.93
  -2  -1   2  223.77   12.73
  -2  -1   2  215.81   12.99
  -2   1   2  224.37    9.93
  -2   1   2  208.02   13.02
  -1  -1   2 1724.55   50.24
  -1  -1   2 1619.53   49.87
  -1   1   2 1588.46   50.13
   1  -1  -2 1645.32   47.88
  -1   1   2 1662.47   48.73
   0  -1   2 2077.85   62.44
   0   1  -2 2272.48   62.89
   0  -1   2 2147.97   62.88
   0   1   2 2280.83   62.09
   0  -1  -2 2131.76   62.63
  -1   1  -2  963.14   32.32
  -1   1  -2  964.96   31.28
   1  -1   2  977.54   30.89
  -1  -1  -2  907.78   31.62
  -2   1  -2 3232.06   90.48
  -2   1  -2 3115.59   94.67
  -2  -1  -2 3207.90   93.85
  -2  -1  -2 3225.42   95.19
   2  -1   2 3112.50   90.86
  -3  -1  -2 1653.32   58.42
  -3   1  -2 1609.00   58.17
   3  -1   2 1646.18   53.08
   3   1   2 1681.31   48.84
  -3  -1  -2 1681.76   56.29
  -3   1  -2 1747.03   52.81
   4  -1   2  820.57   31.61
  -4  -1  -2  684.11   35.82
  -4   1  -2  806.74   30.58
  -4   1  -2  710.97   36.58
  -4  -1  -2  742.98   33.61
  -5  -1  -2  424.03   29.57
  -5   1  -2  415.55   29.58
  -6  -1  -2  115.58   19.59
  -6   1  -2   88.97   17.80
  -7  -1  -2    6.29   10.93
  -7   1  -2   18.93   13.64
  -7  -2   2  232.00   26.27
  -7   2   2  210.69   28.81
  -6   2   2  404.51   30.98
  -6  -2   2  410.54   31.55
  -5  -2   2  412.38   26.42
   5  -2  -2  407.74   26.53
  -5   2   2  443.47   29.72
  -5  -2   2  435.87   28.77
  -4  -2   2  986.19   38.63
  -4  -2   2 1014.26   41.55
  -4   2   2  945.38   42.19
   4  -2  -2  971.19   41.35
  -4  -2   2  972.05   42.32
  -3   2   2 1122.06   43.09
  -3  -2   2 1186.65   43.67
  -3  -2   2 1094.36   40.10
   3  -2  -2 1134.76   43.33
  -3  -2   2 1143.32   42.83
   2  -2  -2 1359.57   45.68
  -2  -2   2 1235.01   44.07
  -2  -2   2 1321.20   43.46
   2  -2  -2 1316.18   37.17
  -2  -2   2 1275.41   43.69
  -2   2   2 1240.27   43.68
   1  -2  -2 1046.64   36.00
  -1  -2   2  991.72   34.20
   1  -2  -2 1048.36   31.32
  -1   2   2 1115.54   36.38
  -1  -2   2  978.84   34.94
  -1  -2   2  972.74   34.51
   0  -2  -2 1998.27   57.46
   0  -2   2 1922.62   58.50
   0  -2  -2 1936.37   57.26
   0   2  -2 1897.54   58.95
   0  -2   2 1983.87   57.74
   0   2   2 1801.22   57.67
   1  -2   2  582.31   22.75
  -1  -2  -2  572.94   23.27
  -1  -2  -2  566.65   22.78
  -1   2  -2  555.83   24.67
  -1   2  -2  565.79   21.13
  -1  -2  -2  549.64   18.75
  -2  -2  -2    9.06    4.96
   2  -2   2    2.04    4.15
  -2  -2  -2    5.34    4.36
  -2   2  -2    8.23    6.10
  -2  -2  -2    1.88    2.12
  -2   2  -2   -0.15    4.07
  -3  -2  -2   59.64    5.28
  -3   2  -2   66.43   11.29
  -3  -2  -2   46.89    9.31
   3  -2   2   64.74    9.36
  -3  -2  -2   71.33   11.41
  -3   2  -2   76.96    7.86
  -4  -2  -2  156.51   16.14
   4  -2   2  177.63   15.13
  -4   2  -2  176.48   19.27
  -4  -2  -2  129.60   17.75
  -5   2  -2  484.68   32.35
  -5  -2  -2  478.90   29.05
  -5  -2  -2  483.34   32.00
  -6  -2  -2  299.32   27.90
  -6   2  -2  297.91   28.74
  -7   2  -2  279.56   30.91
  -7  -2  -2  280.24   29.60
  -7   3   2   54.77   18.09
  -7  -3   2   70.63   18.78
   6  -3  -2   -2.49    8.29
  -6  -3   2    8.30    9.73
  -6   3   2   10.71   11.35
  -6  -3   2   18.25   10.91
  -5  -3   2   99.57   16.98
  -5  -3   2  103.74   16.50
  -5   3   2  116.50   18.04
   5  -3  -2  102.89   16.58
  -4  -3   2   37.91    8.91
   4  -3  -2   43.51   11.28
  -4   3   2   32.17   10.72
  -4  -3   2   20.53    9.39
  -4  -3   2   29.35    9.30
  -3  -3   2  272.97   18.97
  -3  -3   2  241.24   17.54
  -3   3   2  248.99   19.17
  -3  -3   2  238.04   15.97
   3  -3  -2  231.14   18.33
  -2  -3   2  508.32   22.47
   2  -3  -2  458.49   23.57
  -2  -3   2  446.02   22.98
  -2  -3   2  484.79   23.65
  -2   3   2  478.56   24.73
   2  -3  -2  467.24   14.86
  -1  -3   2  364.01   18.30
   1  -3  -2  346.84   14.26
  -1  -3   2  375.40   18.00
   1  -3  -2  330.03   18.53
   1   3  -2  336.25   19.11
  -1   3   2  329.64   19.54
   0  -3  -2 2999.96   87.91
   0   3   2 3033.48   89.76
   0  -3  -2 2934.84   87.16
   0  -3   2 2974.24   87.52
   0   3  -2 3015.02   90.35
   1  -3   2 1361.13   42.67
  -1  -3  -2 1290.42   46.01
  -1   3  -2 1480.80   49.74
  -1  -3  -2 1323.56   42.38
   1  -3   2 1336.44   46.37
  -1  -3  -2 1357.87   46.81
  -2  -3  -2 2821.96   88.45
  -2  -3  -2 2909.44   88.73
  -2   3  -2 2810.72   89.82
   2  -3   2 2716.24   86.78
  -2   3  -2 2868.97   81.40
  -2  -3  -2 2801.91   80.24
  -3   3  -2 1252.15   50.38
   3  -3   2 1256.04   46.58
  -3  -3  -2 1207.87   48.60
  -3  -3  -2 1320.96   50.27
  -4  -3  -2  540.67   31.40
  -4  -3  -2  493.11   29.59
  -4   3  -2  518.93   31.63
   4  -3   2  564.59   28.48
  -5   3  -2  363.38   28.24
  -5  -3  -2  358.64   26.30
  -5  -3  -2  368.89   28.68
   5  -3   2  349.31   23.62
  -6   3  -2   89.21   19.21
  -6  -3  -2   52.89   15.27
  -6  -3  -2  108.29   18.72
  -7  -3  -2   60.77   18.20
  -7   3  -2   42.54   17.04
  -7  -4   2  303.59   31.28
  -7   4   2  281.59   31.77
  -6  -4   2  339.52   29.55
   6  -4  -2  311.78   27.36
  -6  -4   2  304.99   27.78
  -6   4   2  386.96   31.12
  -5  -4   2  554.08   33.67
  -5  -4   2  548.64   34.06
  -5   4   2  527.11   33.77
   5  -4  -2  539.51   32.97
   4  -4  -2  569.34   33.19
  -4  -4   2  586.19   32.95
  -4   4   2  687.50   35.31
  -4  -4   2  575.46   32.92
  -3   4   2  485.83   27.75
  -3  -4   2  484.46   27.20
  -3  -4   2  480.76   24.40
   3  -4  -2  437.07   26.58
  -3  -4   2  462.13   26.58
  -2  -4   2 1385.61   49.23
  -2  -4   2 1394.04   51.00
   2  -4  -2 1409.50   51.61
   2  -4  -2 1341.29   40.35
  -2   4   2 1357.58   51.97
   1  -4  -2  851.04   29.87
   1   4  -2  863.25   35.92
   1  -4  -2  846.24   34.83
  -1   4   2  891.82   37.91
  -1  -4   2  830.09   33.91
  -1  -4   2  862.97   34.22
   0  -4  -2  192.15   12.84
   0  -4  -2  225.11   14.29
   0  -4   2  208.27   14.74
   0   4   2  202.02   16.93
   0   4  -2  198.07   17.27
   0  -4   2  197.26   13.92
  -1  -4  -2   61.13    8.22
   1  -4   2   76.31   10.94
  -1  -4  -2   89.10   11.27
   1  -4   2   49.37    7.62
  -1   4  -2   73.98   13.45
   1   4   2   49.32   10.08
  -2  -4  -2  163.97   14.76
  -2  -4  -2  186.01   16.79
  -2   4  -2  186.61   12.92
  -2  -4  -2  147.53   11.26
   2  -4   2  174.96   14.89
  -2   4  -2  168.36   17.48
  -3  -4  -2  490.81   27.93
  -3  -4  -2  491.90   28.77
   3  -4   2  474.81   26.48
  -3   4  -2  482.52   29.25
  -4  -4  -2  567.67   33.10
  -4  -4  -2  500.48   30.64
   4  -4   2  489.43   29.00
  -4   4  -2  540.74   33.37
  -5   4  -2  286.81   26.82
  -5  -4  -2  298.94   24.82
   5  -4   2  280.36   22.74
  -5  -4  -2  222.26   22.92
  -6  -4  -2  184.94   22.32
  -6  -4  -2  223.50   24.81
  -6   4  -2  229.07   26.47
  -6  -5   2   -1.82   10.04
  -6   5   2   -8.81   11.95
  -6  -5   2   14.84   11.48
   6  -5  -2   -6.48    9.58
  -5  -5   2    7.40    9.51
   5  -5  -2   20.59   11.37
  -5   5   2    7.01   11.18
  -5  -5   2    2.25    8.53
  -4  -5   2   40.36   11.74
  -4  -5   2   20.29   10.41
   4  -5  -2   70.53   14.24
  -4   5   2   81.76   15.86
  -3  -5   2  196.68   19.22
  -3  -5   2  172.73   17.76
  -3   5   2  199.56   22.05
   3  -5  -2  199.66   19.10
  -2   5   2  718.50   37.28
  -2  -5   2  668.91   32.73
   2   5  -2  626.60   34.18
   2  -5  -2  639.07   33.25
  -2  -5   2  736.79   32.25
  -1  -5   2  349.32   20.91
   1  -5  -2  377.39   17.96
  -1   5   2  357.01   25.33
   1  -5  -2  335.81   21.79
  -1  -5   2  399.98   22.45
   1   5  -2  329.93   24.41
   0  -5   2  780.07   32.29
   0   5   2  741.94   36.38
   0  -5  -2  752.38   31.32
   0  -5   2  754.99   33.73
   0  -5  -2  801.67   33.45
   0   5  -2  789.16   37.61
   1   5   2 1640.40   59.92
  -1  -5  -2 1581.12   56.78
   1  -5   2 1542.08   57.95
   1  -5   2 1635.94   53.10
  -1   5  -2 1615.42   61.80
   2  -5   2  842.83   38.63
  -2  -5  -2  897.10   33.84
  -2  -5  -2  867.38   38.71
  -2   5  -2  839.78   41.60
  -3  -5  -2  699.02   37.72
  -3   5  -2  748.64   40.20
   3  -5   2  773.85   37.29
  -3  -5  -2  727.73   37.37
  -4  -5  -2  851.60   43.17
   4  -5   2  721.85   37.95
  -4  -5  -2  717.29   39.84
  -4   5  -2  845.15   43.72
  -5  -5  -2  200.47   22.51
  -5   5  -2  180.64   24.50
  -5  -5  -2  119.76   20.03
   5  -5   2  173.40   20.16
  -6   5  -2  110.30   22.03
  -6  -5  -2   76.02   17.78
  -6  -5  -2  107.74   20.35
  -6  -6   2  257.97   27.25
  -6  -6   2  206.10   29.55
   6  -6  -2  197.47   23.42
  -6   6   2  191.02   28.22
  -5  -6   2  375.40   30.07
  -5  -6   2  330.44   29.42
   5  -6  -2  364.61   28.76
  -5   6   2  358.25   30.37
   4  -6  -2  281.06   24.06
  -4  -6   2  311.76   26.91
  -4  -6   2  240.94   23.04
  -4   6   2  211.26   24.16
   3  -6  -2  407.70   27.86
   3   6  -2  447.02   31.21
  -3  -6   2  427.09   28.22
  -3   6   2  420.13   30.39
  -2  -6   2  305.27   21.59
  -2  -6   2  298.55   22.44
  -2   6   2  237.76   24.93
   2   6  -2  245.12   23.42
   2  -6  -2  327.99   23.36
  -1  -6   2  349.04   22.89
   1   6  -2  342.23   27.35
  -1   6   2  386.56   29.04
   1  -6  -2  351.12   19.40
   1  -6  -2  388.13   24.99
  -1  -6   2  389.66   24.20
   0   6  -2   60.98   15.75
   0  -6   2   50.25   11.03
   0  -6  -2   59.39   11.00
   0   6   2   48.44   14.44
   0  -6  -2   50.61    9.52
   0  -6   2   66.00   11.43
  -1   6  -2   98.22   18.03
  -1  -6  -2  100.25   13.62
   1  -6   2  102.16   15.72
   1  -6   2  106.30   12.60
  -1  -6  -2  110.19   14.16
   1   6   2  104.82   18.58
   2  -6   2   57.90   12.64
  -2  -6  -2   33.71   10.16
   2   6   2   34.85   13.55
  -2  -6  -2   50.90    9.85
  -2   6  -2   38.26   15.95
   3  -6   2   46.82   12.57
  -3  -6  -2   30.42   12.00
  -3   6  -2   44.59   14.31
  -3  -6  -2   29.40   10.25
  -4   6  -2   76.44   17.56
  -4  -6  -2  122.56   19.06
  -4  -6  -2  121.55   20.15
   4  -6   2  115.42   17.83
  -5  -6  -2  153.24   22.54
   5  -6   2  182.89   21.56
  -5  -6  -2  185.56   25.31
  -5   6  -2  165.08   24.69
  -6  -6  -2  187.08   27.64
  -6   6  -2  278.34   29.87
  -6  -6  -2  222.25   25.72
   5  -7  -2   21.69   11.47
  -5   7   2    9.54   13.39
  -5  -7   2   21.39   12.07
  -4   7   2   78.88   19.29
   4   7  -2   75.53   18.22
   4  -7  -2  113.16   19.16
  -4  -7   2  107.56   18.61
   3  -7  -2  220.54   21.58
   3   7  -2  223.51   24.03
  -3   7   2  180.64   24.84
  -3  -7   2  246.09   21.02
  -3  -7   2  199.74   20.61
  -2  -7   2  197.10   19.55
  -2  -7   2  184.77   18.78
   2   7  -2  119.21   19.92
   2  -7  -2  181.94   19.37
  -2   7   2  128.59   22.29
  -1  -7   2  403.51   26.34
  -1   7   2  378.52   31.65
   1  -7  -2  431.48   28.25
   1   7  -2  406.95   31.02
  -1  -7   2  371.57   24.79
   0   7  -2  205.32   25.91
   0  -7  -2  244.35   18.40
   0   7   2  246.89   25.93
   0  -7   2  189.47   19.95
   0  -7   2  214.74   18.40
   0  -7  -2  186.44   19.12
  -1   7  -2  552.06   37.51
  -1  -7  -2  443.56   27.85
   1  -7   2  430.93   28.95
   1   7   2  483.52   33.47
  -1  -7  -2  473.66   27.68
  -2  -7  -2  446.24   29.69
   2   7   2  565.07   35.69
   2  -7   2  472.78   30.87
  -2   7  -2  556.20   36.93
  -3   7  -2  970.79   51.29
   3  -7   2  987.13   48.20
   3   7   2 1008.35   50.97
  -3  -7  -2  949.82   47.94
  -4  -7  -2  381.67   29.73
   4  -7   2  328.81   28.21
  -4   7  -2  352.00   30.64
  -5  -7  -2  166.45   24.66
  -5   7  -2  194.04   28.26
  -5  -7  -2  185.67   27.27
   5  -7   2  200.36   23.28
  -5  -8   2  237.09   27.19
   5   8  -2  239.39   28.70
  -5   8   2  166.13   27.87
   5  -8  -2  253.77   27.55
  -4  -8   2  195.57   23.52
  -4   8   2  153.74   25.11
   4   8  -2  203.32   27.76
   4  -8  -2  166.82   24.11
   3   8  -2  165.92   25.03
  -3  -8   2  169.22   22.42
  -3   8   2  136.82   23.76
   3  -8  -2  116.92   19.83
  -2  -8   2  286.91   24.47
   2   8  -2  255.47   27.61
   2  -8  -2  243.31   24.59
  -2   8   2  296.59   31.42
  -2  -8   2  284.46   24.29
  -1  -8   2   52.55   13.12
   1   8  -2   66.04   17.98
   1  -8  -2   54.60   13.94
  -1   8   2   94.12   20.48
  -1  -8   2   54.56   13.65
   0  -8  -2  251.12   22.29
   0   8   2  271.01   29.74
   0  -8   2  280.57   21.52
   0  -8   2  289.43   24.31
   0   8  -2  247.05   28.28
   0  -8  -2  250.19   20.52
   1  -8   2   56.40   13.76
  -1  -8  -2   76.88   14.57
  -1   8  -2   81.89   19.66
  -1  -8  -2   63.31   13.91
   1   8   2   53.94   19.26
  -2  -8  -2   71.21   14.67
   2   8   2  137.04   22.49
   2  -8   2   99.16   17.65
  -2   8  -2   67.57   19.58
  -3   8  -2   21.84   14.22
   3   8   2   39.79   15.92
   3  -8   2   37.17   12.60
  -3  -8  -2   28.83   11.48
  -4   8  -2  121.54   23.19
   4   8   2  167.26   25.16
   4  -8   2  125.46   21.38
  -4  -8  -2  123.72   20.40
   5   8   2  194.16   28.53
   5  -8   2  176.27   25.78
  -5   8  -2  138.03   25.09
  -5  -8  -2  177.45   26.19
  -4   9   2   28.23   17.59
   4   9  -2   48.11   18.72
   4  -9  -2   21.03   13.69
  -4  -9   2   36.60   14.85
   3  -9  -2  114.86   21.24
  -3   9   2   80.72   20.98
  -3  -9   2   96.45   18.74
   3   9  -2   82.42   21.49
  -2  -9   2  191.11   22.21
   2   9  -2  194.41   28.49
  -2  -9   2  185.73   22.31
  -2   9   2  206.31   30.46
   2  -9  -2  202.12   23.51
  -1  -9   2  215.99   23.53
  -1  -9   2  227.69   22.62
   1   9  -2  261.34   31.42
  -1   9   2  249.35   29.25
   1  -9  -2  203.58   23.74
   0   9  -2  346.75   36.01
   0  -9   2  349.27   28.61
   0   9   2  336.66   35.01
   0  -9  -2  383.91   29.68
  -1  -9  -2  278.69   24.26
   1   9   2  248.05   29.22
   1  -9   2  271.07   25.57
  -1   9  -2  243.83   32.84
  -1  -9  -2  256.85   24.49
   2   9   2  281.22   30.76
   2  -9   2  270.42   26.99
  -2  -9  -2  306.19   26.43
  -2   9  -2  280.35   30.81
  -3  -9  -2  252.66   25.60
  -3   9  -2  237.99   31.56
   3   9   2  247.64   29.68
   3  -9   2  230.28   25.53
   4   9   2  211.20   30.38
  -4  -9  -2  214.11   28.52
  -4   9  -2  166.41   27.29
   4  -9   2  162.76   25.64
   3  10  -2   50.95   22.99
  -3  10   2   63.14   22.76
  -3 -10   2   98.70   20.69
   3 -10  -2   93.30   20.75
   2 -10  -2  113.59   22.26
  -2 -10   2  209.14   23.75
  -2  10   2  215.99   32.64
   2  10  -2  186.14   30.76
  -1 -10   2  137.27   22.38
   1 -10  -2  148.47   24.22
  -1 -10   2  173.57   23.11
  -1  10   2  115.25   25.15
   1  10  -2   88.23   24.69
   0  10   2   61.16   22.54
   0  10  -2  101.02   24.66
   0 -10  -2   87.60   19.06
   0 -10   2   94.06   20.40
  -1  10  -2    5.71   18.41
   1 -10   2   15.90   12.09
   1  10   2   -7.14   16.60
  -2 -10  -2    4.26   10.89
   2  10   2   13.17   18.00
   2 -10   2    6.62   11.94
  -2  10  -2   18.65   17.16
  -7   0   3  418.73   34.56
  -6   0   3  766.07   43.17
  -5   0   3  752.01   37.98
  -5   0   3  714.03   35.75
  -4   0   3  285.51   20.21
  -4   0   3  272.28   17.49
  -4   0   3  317.50   20.63
  -3   0   3  476.78   23.32
  -3   0   3  484.09   21.36
  -3   0   3  466.37   22.71
  -2   0   3  542.27   22.47
  -2   0   3  551.42   20.53
  -2   0   3  442.91   19.45
  -1   0   3  567.01   17.78
  -1   0   3  562.93   21.24
  -1   0   3  538.64   21.28
   0   0   3 3117.51   86.89
   0   0  -3 3020.08   88.42
   0   0  -3 3113.24   85.77
   1   0   3    9.40    2.95
  -1   0  -3   14.10    4.54
  -1   0  -3   16.62    6.48
  -2   0  -3 1879.11   58.97
   2   0   3 1936.40   54.25
  -2   0  -3 1826.86   60.29
   3   0   3  212.93   11.09
  -3   0  -3  206.80   16.24
  -4   0  -3  521.71   30.18
  -4   0  -3  568.34   27.06
  -5   0  -3  837.20   43.70
  -6   0  -3  351.54   29.65
  -7   0  -3  189.27   27.94
  -7  -1   3   20.07   12.77
  -7   1   3    7.27   11.65
  -6   1   3   68.96   15.90
  -6  -1   3   73.33   16.30
  -5   1   3  281.85   23.12
   5  -1  -3  242.17   20.65
  -5  -1   3  251.19   22.03
  -5  -1   3  252.72   19.75
  -4   1   3 1094.66   45.38
  -4  -1   3 1203.22   46.66
  -4  -1   3 1182.27   44.72
  -4   1   3 1107.57   46.00
  -3  -1   3 2108.08   66.86
  -3  -1   3 2031.79   66.35
  -3   1   3 2001.66   67.38
  -3   1   3 2076.29   66.44
  -3   1   3 2041.71   61.14
  -3  -1   3 2060.06   66.18
  -2  -1   3 1668.06   52.08
  -2   1   3 1530.33   52.19
  -2  -1   3 1691.70   52.14
  -2   1   3 1517.10   49.52
  -1   1   3 2267.81   64.29
  -1  -1   3 2208.21   67.05
   1  -1  -3 2216.72   65.83
  -1   1   3 2302.21   67.48
  -1  -1   3 2255.84   64.44
   0  -1  -3 1812.38   51.66
   0   1   3 1745.68   52.61
   0   1  -3 1793.23   53.11
   0  -1   3 1801.45   54.19
   0  -1  -3 1842.15   54.93
  -1   1  -3 1151.67   38.61
  -1  -1  -3 1168.62   37.58
  -1   1  -3 1151.17   37.95
   1   1   3 1142.61   33.13
   1  -1   3 1131.51   36.54
  -2  -1  -3 2485.65   78.40
   2  -1   3 2530.75   74.54
  -2   1  -3 2534.54   78.35
  -2   1  -3 2635.61   75.85
  -2  -1  -3 2537.37   78.06
  -3  -1  -3 1179.79   44.53
   3  -1   3 1138.64   38.19
  -3   1  -3 1057.10   43.22
  -3   1  -3 1075.41   38.76
  -3  -1  -3 1109.62   42.07
  -4   1  -3  320.38   23.70
  -4  -1  -3  287.92   22.23
  -4  -1  -3  292.46   20.50
  -4   1  -3  336.70   18.97
  -5  -1  -3   17.57    8.05
  -5   1  -3   30.79   11.50
  -5  -1  -3   20.55   10.18
  -6  -1  -3   13.09   10.72
  -6   1  -3    0.92    9.90
  -7   1  -3   50.71   16.44
  -7  -1  -3   18.37   12.71
  -7   2   3  283.56   29.40
  -7  -2   3  234.52   27.29
  -6   2   3  515.99   35.23
   6  -2  -3  580.72   34.21
  -6  -2   3  562.84   36.62
  -5   2   3  365.21   26.45
   5  -2  -3  287.43   23.54
  -5  -2   3  300.84   23.31
  -5  -2   3  346.96   25.51
   4  -2  -3  494.84   27.40
  -4  -2   3  423.39   25.52
  -4  -2   3  484.81   26.93
  -4   2   3  440.75   26.37
  -3   2   3  421.62   22.12
   3  -2  -3  381.10   15.73
  -3  -2   3  425.68   22.62
  -3  -2   3  373.51   21.07
  -3  -2   3  379.86   20.59
   3  -2  -3  374.32   22.32
  -2  -2   3  476.38   22.94
  -2  -2   3  518.96   22.07
   2  -2  -3  485.66   18.10
  -2   2   3  488.14   21.77
  -2  -2   3  508.47   22.74
   1  -2  -3  706.48   24.20
  -1   2   3  664.21   25.81
  -1  -2   3  639.15   26.20
  -1  -2   3  689.30   26.98
   1   2  -3  696.31   25.70
   0  -2  -3  103.29    8.95
   0   2  -3  131.21   12.87
   0  -2   3   95.33    9.19
   0  -2   3  109.78    9.55
   0  -2  -3  109.62    9.83
  -1  -2  -3  275.46   14.72
  -1   2  -3  292.14   16.76
   1  -2   3  309.21   15.56
  -1  -2  -3  300.82   11.70
  -1  -2  -3  257.39   15.32
  -2   2  -3  490.88   20.88
  -2   2  -3  427.56   22.77
   2  -2   3  468.97   21.27
  -2  -2  -3  442.68   22.32
  -3   2  -3  902.62   32.21
  -3   2  -3  876.11   38.84
   3  -2   3  897.98   34.71
  -3  -2  -3  894.95   37.39
   4  -2   3  529.64   25.68
  -4   2  -3  492.81   30.26
  -4  -2  -3  489.49   29.79
  -4  -2  -3  505.63   28.36
  -5   2  -3  723.40   41.12
  -5  -2  -3  776.52   42.22
  -5  -2  -3  734.91   37.86
  -6  -2  -3  358.76   31.13
  -6   2  -3  397.89   32.30
  -7   2  -3  285.81   30.87
  -7  -2  -3  358.17   33.67
  -7   3   3   12.96   12.82
  -7  -3   3    8.41   12.35
  -6  -3   3  148.96   21.37
   6  -3  -3  143.53   20.44
  -6   3   3  126.10   21.72
  -6  -3   3  123.47   19.81
  -5  -3   3  417.92   27.72
   5  -3  -3  340.09   26.29
  -5  -3   3  413.50   27.75
  -5   3   3  386.52   27.57
  -4  -3   3  573.43   31.80
  -4   3   3  623.59   32.76
  -4  -3   3  665.14   30.45
  -4  -3   3  636.07   32.68
   4  -3  -3  597.48   32.60
   3  -3  -3 1290.27   51.33
  -3  -3   3 1374.32   51.44
  -3  -3   3 1379.68   50.37
  -3  -3   3 1385.02   49.64
  -3   3   3 1321.09   50.28
  -2  -3   3  867.19   34.40
   2  -3  -3  877.81   36.60
  -2   3   3  933.17   36.00
  -2  -3   3  815.67   35.09
  -2  -3   3  882.55   34.80
   2  -3  -3  886.88   27.72
  -1  -3   3 1723.20   55.27
  -1  -3   3 1651.98   55.20
   1   3  -3 1535.69   54.00
   1  -3  -3 1739.04   55.76
  -1   3   3 1642.66   55.16
   1  -3  -3 1675.07   50.83
   0  -3  -3 1584.44   50.59
   0  -3   3 1554.68   52.30
   0  -3   3 1503.26   50.32
   0  -3  -3 1690.39   51.17
   0   3   3 1543.08   51.45
   0   3  -3 1520.70   53.07
   1  -3   3 1824.88   60.13
  -1  -3  -3 1838.92   55.14
   1  -3   3 1825.46   57.03
  -1  -3  -3 1868.81   60.09
  -1   3  -3 1851.23   62.31
  -2   3  -3 1917.07   65.15
   2  -3   3 1762.34   61.99
  -2  -3  -3 1893.98   54.62
  -2   3  -3 2012.95   59.57
  -2  -3  -3 1861.45   63.57
  -2  -3  -3 1883.01   64.19
   3  -3   3  490.38   24.96
  -3  -3  -3  499.83   27.27
  -3   3  -3  450.60   27.14
  -3  -3  -3  440.52   26.10
  -4   3  -3  315.78   24.70
  -4  -3  -3  241.64   20.88
   4  -3   3  301.03   20.87
  -4  -3  -3  273.59   22.79
  -5   3  -3   16.49   10.36
  -5  -3  -3   27.85   11.00
  -5  -3  -3   26.99   11.17
  -6  -3  -3   81.89   18.15
  -6   3  -3   49.24   16.70
  -6  -3  -3   76.80   16.25
  -7   3  -3    3.69   12.01
  -7  -3  -3    1.03   11.15
  -7   4   3  409.89   36.70
  -7  -4   3  322.25   32.67
   6  -4  -3  397.80   30.90
  -6  -4   3  361.13   31.05
  -6   4   3  470.64   34.73
  -6  -4   3  474.39   34.39
   5  -4  -3  459.29   31.07
  -5   4   3  447.43   31.20
  -5  -4   3  542.59   33.61
  -5  -4   3  560.58   34.02
  -4  -4   3  435.32   28.44
  -4   4   3  457.87   29.55
   4  -4  -3  435.10   29.04
  -4  -4   3  464.61   26.23
  -4  -4   3  495.07   30.07
  -3   4   3    7.50    8.46
   3  -4  -3   12.98    9.16
  -3  -4   3    4.43    7.19
  -3  -4   3    5.79    7.11
  -3  -4   3   10.86    6.94
   2   4  -3   70.86   11.97
   2  -4  -3   53.78   10.67
  -2  -4   3   59.95    9.93
   2  -4  -3   62.45    6.25
  -2   4   3   60.01   12.35
  -2  -4   3   51.81   10.14
  -1  -4   3    9.88    5.60
   1   4  -3   -0.32    7.90
  -1  -4   3   12.34    6.07
   1  -4  -3    6.16    4.29
   1  -4  -3    8.65    6.53
  -1   4   3    2.55    8.03
   0  -4   3   28.77    7.77
   0  -4   3   45.06    8.25
   0  -4  -3   61.70    9.20
   0   4   3   66.12   11.68
   0   4  -3   58.24   11.94
   0  -4  -3   37.11    7.52
   1  -4   3  375.22   18.66
  -1   4  -3  393.25   25.29
  -1  -4  -3  366.41   21.06
  -1  -4  -3  357.72   17.85
   1   4   3  384.68   22.36
   1  -4   3  364.37   21.11
  -2   4  -3   30.53    8.67
   2  -4   3    5.91    6.36
  -2  -4  -3   12.86    6.71
  -2   4  -3   15.07    9.69
  -2  -4  -3   13.42    7.30
  -2  -4  -3   25.59    5.47
  -3  -4  -3  603.21   32.82
   3  -4   3  674.81   32.27
  -3  -4  -3  648.04   33.64
  -3   4  -3  625.97   34.90
  -4   4  -3  893.65   45.37
  -4  -4  -3  869.31   43.39
  -4  -4  -3  894.58   44.53
   4  -4   3  977.59   41.98
  -5  -4  -3  444.38   32.43
  -5  -4  -3  442.22   31.11
  -5   4  -3  435.14   32.28
  -6   4  -3  282.23   29.67
  -6  -4  -3  322.50   29.17
  -6  -4  -3  330.78   30.44
  -6  -5   3   56.55   16.75
   6  -5  -3   31.22   13.13
  -6   5   3   49.30   16.47
  -6  -5   3   93.38   19.33
  -5  -5   3  435.74   31.78
   5  -5  -3  369.15   29.76
  -5  -5   3  366.87   29.88
  -5   5   3  422.48   31.50
  -4  -5   3  333.77   25.70
  -4   5   3  339.18   26.19
  -4  -5   3  358.50   26.35
   4  -5  -3  327.53   26.17
  -3  -5   3  457.53   26.87
  -3   5   3  517.44   30.64
  -3  -5   3  439.26   27.89
   3  -5  -3  461.36   29.00
  -2   5   3 1549.05   60.02
   2  -5  -3 1562.93   58.76
  -2  -5   3 1479.61   57.14
   2   5  -3 1409.55   56.98
  -2  -5   3 1608.67   57.32
   1  -5  -3 1544.15   48.95
   1   5  -3 1375.01   55.30
   1  -5  -3 1437.83   53.66
  -1  -5   3 1441.31   53.70
  -1  -5   3 1397.70   52.99
  -1   5   3 1433.84   56.10
   0  -5  -3  729.18   32.25
   0  -5   3  778.69   32.83
   0   5   3  757.09   36.10
   0   5  -3  771.62   38.17
   0  -5   3  801.19   35.25
   0  -5  -3  778.57   32.35
   1  -5   3 1613.52   59.78
  -1  -5  -3 1619.81   58.57
   1   5   3 1571.63   60.23
  -1   5  -3 1597.75   63.09
   1  -5   3 1706.70   55.47
  -1  -5  -3 1729.19   55.99
  -2  -5  -3  541.96   29.73
  -2   5  -3  534.50   32.56
   2  -5   3  569.89   30.09
  -2  -5  -3  552.35   31.16
   3  -5   3   81.54   14.18
  -3  -5  -3  107.08   16.54
  -3  -5  -3   95.36   15.46
  -3   5  -3  128.17   19.59
  -4   5  -3   83.26   16.81
  -4  -5  -3   73.57   14.81
  -4  -5  -3   99.15   17.25
   4  -5   3   69.41   13.78
  -5   5  -3    8.13   11.90
  -5  -5  -3   10.50   10.60
  -5  -5  -3   11.32   10.66
   5  -5   3   -0.86    9.02
  -6  -5  -3    5.58   10.70
  -6   5  -3   -6.54   11.03
  -6  -5  -3    3.09   11.20
  -6  -6   3  214.03   29.49
   6  -6  -3  177.05   25.00
  -6  -6   3  140.69   23.99
  -6   6   3  188.95   26.94
   5  -6  -3  315.95   28.36
  -5  -6   3  347.51   29.45
  -5   6   3  314.31   29.71
  -5  -6   3  327.02   28.98
  -4  -6   3  255.63   24.66
  -4   6   3  308.46   26.82
   4  -6  -3  283.92   25.39
  -3  -6   3  211.21   20.86
  -3  -6   3  267.64   21.04
   3  -6  -3  201.65   20.67
   3   6  -3  236.12   23.00
  -3   6   3  222.11   24.05
   2  -6  -3    4.57    8.77
  -2   6   3   21.92   14.21
  -2  -6   3    1.89    7.07
  -2  -6   3   -2.05    7.60
   2   6  -3    1.35   11.83
  -1  -6   3   44.38   10.47
   1   6  -3   38.62   14.48
   1  -6  -3   55.39   12.26
  -1   6   3   14.65   13.41
   1  -6  -3   44.83    8.57
  -1  -6   3   25.93    9.11
   0  -6  -3   57.05   11.62
   0   6   3   43.50   14.48
   0  -6  -3   42.63    9.24
   0   6  -3   42.18   15.21
   0  -6   3   37.97   10.88
   0  -6   3   40.81    9.71
   1   6   3   41.32   15.02
   1  -6   3   46.46   10.45
   1  -6   3   55.45   11.77
  -1   6  -3   40.10   16.01
  -1  -6  -3   40.84   10.34
   2   6   3   64.43   15.88
  -2  -6  -3  102.00   15.60
  -2   6  -3  115.16   19.76
   2  -6   3   77.84   14.33
  -3  -6  -3  280.04   23.11
  -3   6  -3  248.26   25.06
   3  -6   3  257.57   21.96
  -3  -6  -3  266.77   24.70
   4  -6   3  427.24   29.15
  -4   6  -3  352.07   31.17
  -4  -6  -3  376.65   29.39
  -4  -6  -3  436.10   32.56
  -5   6  -3  218.62   27.13
  -5  -6  -3  318.02   30.16
  -5  -6  -3  240.55   26.30
   5  -6   3  321.42   27.06
  -6  -6  -3  369.21   32.39
  -6  -6  -3  307.13   32.79
  -6   6  -3  281.11   30.88
  -5  -7   3   59.57   16.74
   5   7  -3  118.02   21.37
  -5   7   3   48.23   17.77
   5  -7  -3  112.20   19.78
   4   7  -3  416.66   31.77
   4  -7  -3  392.88   30.60
  -4   7   3  381.41   32.02
  -4  -7   3  356.76   29.26
   3   7  -3  422.32   30.64
   3  -7  -3  309.16   26.74
  -3  -7   3  404.96   27.27
  -3  -7   3  363.68   27.73
  -3   7   3  289.73   27.35
  -2   7   3  542.04   37.37
  -2  -7   3  561.59   33.20
   2   7  -3  557.35   36.46
   2  -7  -3  572.24   34.00
  -2  -7   3  566.38   32.42
  -1   7   3  694.37   41.88
   1   7  -3  690.88   40.75
   1  -7  -3  624.50   35.39
  -1  -7   3  687.12   36.27
  -1  -7   3  645.73   34.44
   0  -7   3  687.81   37.05
   0  -7  -3  719.37   35.90
   0  -7   3  760.42   35.61
   0  -7  -3  694.40   33.58
   0   7  -3  632.82   40.64
   0   7   3  704.63   40.53
   1  -7   3  533.10   32.03
  -1  -7  -3  557.80   30.58
  -1  -7  -3  572.62   30.08
   1   7   3  485.52   33.84
  -1   7  -3  452.51   36.00
   2   7   3  223.86   23.88
  -2  -7  -3  269.32   22.71
   2  -7   3  200.11   20.50
  -2   7  -3  264.27   26.85
   3  -7   3  220.69   21.98
  -3   7  -3  194.16   25.85
  -3  -7  -3  198.33   21.74
   3   7   3  197.17   23.55
  -4  -7  -3   63.37   15.41
  -4  -7  -3   63.91   17.11
   4  -7   3   78.09   17.09
  -4   7  -3   58.67   17.41
  -5   7  -3   12.66   13.53
  -5  -7  -3   12.77   12.19
  -5  -7  -3    4.79   13.13
   5  -7   3   10.40   11.38
  -5  -8   3  210.98   29.28
  -5   8   3  211.46   29.69
   5  -8  -3  180.48   26.37
   5   8  -3  256.41   28.92
  -4  -8   3  114.45   20.74
   4   8  -3   85.64   19.58
  -4   8   3   73.28   18.44
   4  -8  -3  125.59   21.05
   3  -8  -3   67.08   15.69
   3   8  -3   66.71   18.24
  -3  -8   3   47.37   14.43
  -3   8   3   33.86   15.57
   2  -8  -3  -22.46    8.29
  -2  -8   3    5.30    9.83
  -2  -8   3   14.82   10.40
   2   8  -3   16.80   14.63
  -2   8   3   -3.64   14.24
   1  -8  -3  141.27   19.74
  -1  -8   3  137.32   18.40
  -1  -8   3  140.06   19.45
  -1   8   3  122.03   23.19
   1   8  -3   99.81   20.58
   0  -8   3    0.45    7.93
   0  -8  -3    4.74    7.48
   0  -8  -3    6.63    9.04
   0   8  -3   -2.75   14.54
   0  -8   3    4.06    8.16
   0   8   3    9.53   13.87
  -1  -8  -3   56.87   13.04
  -1  -8  -3   51.81   12.99
   1  -8   3   52.79   13.85
   1   8   3   88.84   19.76
  -1   8  -3   51.00   18.91
   2  -8   3   44.29   12.93
  -2  -8  -3   55.42   13.59
   2   8   3   36.25   16.53
  -2   8  -3   29.13   16.05
   3  -8   3  121.28   20.29
  -3   8  -3  116.14   22.03
  -3  -8  -3  125.73   20.14
   3   8   3  122.77   22.73
  -4   8  -3  280.83   29.62
   4  -8   3  236.47   26.13
  -4  -8  -3  258.75   26.35
   4   8   3  231.21   28.42
  -4  -9   3  148.39   23.92
   4  -9  -3  103.53   21.16
   4   9  -3  151.29   27.01
  -4   9   3   85.07   21.92
  -3  -9   3  175.95   24.75
  -3   9   3  179.22   27.87
   3  -9  -3  165.49   24.57
   3   9  -3  138.47   25.15
  -2  -9   3  268.95   26.45
   2   9  -3  328.74   31.73
  -2   9   3  249.42   29.59
  -2  -9   3  299.81   26.91
   2  -9  -3  278.76   26.47
   1   9  -3  367.45   34.62
  -1   9   3  364.86   34.54
  -1  -9   3  366.54   27.76
  -1  -9   3  401.38   31.18
   1  -9  -3  387.41   30.18
   0   9  -3  406.48   35.87
   0  -9   3  290.94   27.41
   0   9   3  425.15   36.01
   0  -9  -3  377.67   28.94
   1   9   3  312.33   31.38
  -1   9  -3  269.23   34.12
   1  -9   3  245.52   25.03
  -1  -9  -3  277.56   24.49
  -2  -9  -3  166.55   22.82
  -2   9  -3  169.38   28.16
   2   9   3  199.35   28.21
   2  -9   3  170.66   23.62
  -3  -9  -3   80.20   17.16
  -3   9  -3   56.66   19.29
   3   9   3   79.38   20.77
   3  -9   3   85.06   18.76
   4  -9   3    0.84   11.86
   4   9   3   36.21   17.69
  -4   9  -3    2.14   14.29
  -4  -9  -3   32.64   13.47
  -2 -10   3    5.93   11.12
   2  10  -3   17.05   19.26
   2 -10  -3    4.90   12.30
  -2  10   3   -9.17   15.43
  -2 -10   3    0.26   11.66
   1  10  -3    4.31   17.54
   1 -10  -3   15.97   12.88
  -1  10   3   -2.37   15.14
  -1 -10   3   -2.55   10.61
  -1 -10   3    8.86   12.84
   0  10  -3   -2.60   15.96
   0 -10   3   11.84   11.50
   0 -10  -3   -0.20   11.25
   0  10   3   13.47   18.52
   1 -10   3   32.24   13.87
   1  10   3   38.35   20.25
  -1  10  -3   28.36   18.80
   2  10   3   42.25   20.06
   2 -10   3   45.82   15.58
  -2 -10  -3   55.25   16.57
  -2  10  -3    8.32   19.12
  -7   0   4  287.45   29.11
  -6   0   4  159.51   22.20
  -5   0   4    0.39    7.45
  -5   0   4    1.48    7.49
  -4   0   4   38.61    8.74
  -4   0   4   41.28    8.94
  -4   0   4   34.93   10.16
  -3   0   4  637.68   26.74
  -3   0   4  659.44   29.31
  -2   0   4  689.49   26.66
  -2   0   4  717.06   24.98
   1   0  -4 1847.12   56.89
  -1   0   4 1814.20   56.73
  -1   0   4 1826.17   51.54
   0   0  -4 1813.52   50.40
   0   0  -4 1774.26   56.40
   0   0   4 1749.80   53.53
  -1   0  -4  195.57   11.31
  -1   0  -4  156.25   12.90
   1   0   4  191.92    9.45
  -2   0  -4 2685.49   82.59
   2   0   4 2710.54   75.90
  -2   0  -4 2659.46   81.89
  -3   0  -4  638.10   28.48
   3   0   4  637.03   22.17
  -3   0  -4  623.08   30.57
  -4   0  -4  569.70   30.80
  -4   0  -4  414.57   24.44
  -5   0  -4  805.29   42.75
  -6   0  -4  159.21   23.28
  -7   0  -4   52.36   17.03
  -7   1   4  155.34   23.84
  -7  -1   4  130.95   22.02
  -6  -1   4  399.14   30.07
  -6   1   4  363.78   28.42
   6  -1  -4  384.87   28.20
  -5   1   4  844.76   41.71
  -5  -1   4  917.34   40.10
  -5  -1   4  894.41   41.14
  -5   1   4  860.46   41.88
  -5  -1   4  889.51   42.45
  -4   1   4 1595.35   60.12
  -4   1   4 1650.27   59.11
  -4  -1   4 1575.53   57.30
  -4  -1   4 1627.95   58.82
  -4  -1   4 1664.48   59.31
  -3   1   4 2567.70   83.77
  -3   1   4 2596.47   77.50
  -3  -1   4 2733.80   83.74
  -3  -1   4 2569.31   81.72
  -2  -1   4 2415.29   74.23
  -2   1   4 2357.43   75.32
  -2   1   4 2405.09   70.94
  -2  -1   4 2374.20   74.84
   2  -1  -4 2507.71   72.07
  -2  -1   4 2432.51   71.54
  -1  -1   4 2386.55   73.69
   1  -1  -4 2415.89   73.20
  -1   1   4 2484.67   73.89
  -1   1   4 2544.07   69.15
   1   1  -4 2506.76   69.69
  -1  -1   4 2363.32   74.00
   0   1  -4 1512.63   43.58
   0  -1  -4 1447.25   47.07
   0  -1   4 1409.19   45.43
   0   1  -4 1393.06   47.04
   0  -1  -4 1419.44   41.98
   0   1   4 1426.71   44.11
  -1   1  -4  341.08   16.06
  -1   1  -4  352.87   18.78
  -1  -1  -4  305.36   14.98
   1   1   4  323.12   11.91
  -1  -1  -4  291.64   17.40
   1  -1   4  291.61   14.57
  -2   1  -4  373.64   20.01
  -2  -1  -4  386.40   20.06
   2  -1   4  350.61   16.56
  -2  -1  -4  390.76   20.37
  -3   1  -4  105.07   11.51
  -3   1  -4  101.52   13.44
  -3  -1  -4   92.84   12.85
   3  -1   4  109.41    9.75
  -3  -1  -4   90.96   12.46
  -4  -1  -4    4.36    8.02
  -4   1  -4    7.11    6.68
  -4   1  -4    4.40    8.00
  -4  -1  -4   10.60    7.54
  -5  -1  -4   61.01   14.59
  -5  -1  -4   84.71   14.61
  -5   1  -4   81.28   16.38
  -6   1  -4   57.94   16.43
  -6  -1  -4   54.29   15.84
  -7   1  -4  182.37   28.05
  -7  -1  -4  198.44   29.38
  -7   2   4  134.49   23.04
  -7  -2   4   99.09   20.30
  -6  -2   4  123.02   19.53
  -6   2   4   88.67   17.91
   6  -2  -4  100.46   17.78
  -5   2   4   60.46   13.74
   5  -2  -4   44.40   12.43
  -5  -2   4   53.85   12.52
  -5  -2   4   59.85   12.77
  -5  -2   4   68.96   13.04
  -4  -2   4   20.34    8.42
  -4  -2   4   47.70   10.90
  -4   2   4   33.94    9.96
  -4  -2   4   17.27    8.48
  -3   2   4   73.98   11.56
  -3   2   4   47.08    8.41
   3  -2  -4   68.82    8.09
  -3  -2   4   42.99    8.48
  -3  -2   4   54.97    9.51
  -3  -2   4   55.84    9.96
   2  -2  -4   59.79    8.01
  -2   2   4   78.72    9.01
  -2  -2   4   54.62    9.15
  -2  -2   4   49.28    8.71
  -2   2   4   77.99   10.79
  -1  -2   4  631.71   26.24
  -1   2   4  616.56   25.69
  -1  -2   4  642.74   26.42
   1   2  -4  578.31   23.79
  -1   2   4  611.18   24.03
   1  -2  -4  644.63   24.46
   0  -2   4 1553.58   51.83
   0   2  -4 1719.42   52.24
   0  -2  -4 1630.49   52.08
   0   2   4 1605.09   49.65
   0   2   4 1602.64   50.18
   0  -2   4 1578.24   52.13
   1  -2   4 1921.67   61.18
  -1  -2  -4 1949.93   60.51
  -1   2  -4 1900.29   61.56
  -1   2  -4 1895.95   61.61
  -1  -2  -4 2043.01   56.62
  -2   2  -4 1901.45   60.25
  -2   2  -4 1826.71   62.45
   2  -2   4 1839.34   59.91
  -2  -2  -4 1923.06   62.54
   3  -2   4 1780.27   57.89
  -3  -2  -4 1715.17   62.35
  -3   2  -4 1682.83   62.26
  -3  -2  -4 1663.31   61.17
  -3   2  -4 1781.18   56.48
  -4  -2  -4  947.73   45.59
  -4  -2  -4 1012.38   44.74
  -4   2  -4 1119.08   48.06
   4  -2   4 1023.60   40.29
  -5  -2  -4  420.61   28.30
  -5  -2  -4  396.23   30.22
  -5   2  -4  411.27   31.19
  -6   2  -4  213.44   24.81
  -6  -2  -4  183.94   25.75
  -7  -2  -4  155.29   26.46
  -7   2  -4  150.22   25.57
  -7   3   4  122.04   22.12
  -7  -3   4   78.54   18.97
  -6   3   4  506.16   35.02
  -6  -3   4  415.31   31.31
  -6  -3   4  460.08   33.11
   6  -3  -4  451.55   32.32
  -5  -3   4  600.26   35.09
   5  -3  -4  622.25   36.25
  -5  -3   4  686.16   37.15
  -5   3   4  653.45   35.84
  -4  -3   4 1134.12   49.71
   4  -3  -4 1182.01   50.98
  -4   3   4 1259.59   49.34
  -4  -3   4 1112.01   47.02
  -4  -3   4 1243.56   49.35
  -3  -3   4 2120.66   71.26
  -3  -3   4 1945.37   68.83
  -3   3   4 2069.51   68.54
  -3  -3   4 2009.03   68.30
   3  -3  -4 2003.07   71.46
   2  -3  -4 1470.40   43.93
  -2  -3   4 1373.84   50.29
   2  -3  -4 1382.38   51.51
  -2  -3   4 1381.26   48.62
  -2  -3   4 1392.32   51.17
  -1  -3   4 1277.76   46.23
   1   3  -4 1257.34   44.64
   1  -3  -4 1334.12   42.85
   1  -3  -4 1339.29   46.66
  -1  -3   4 1248.69   46.04
   0  -3   4  280.52   16.07
   0  -3   4  281.76   16.66
   0  -3  -4  271.94   16.09
   0   3   4  214.50   15.39
   0  -3  -4  277.03   15.09
   0   3  -4  225.54   17.68
  -1  -3  -4  727.43   30.28
  -1   3  -4  727.48   32.45
   1  -3   4  730.78   30.92
  -1  -3  -4  762.54   26.40
   2  -3   4  274.76   17.34
  -2   3  -4  241.31   19.31
  -2  -3  -4  264.26   18.38
  -2   3  -4  255.61   17.90
  -2  -3  -4  263.63   17.55
  -2  -3  -4  254.51   10.48
  -3  -3  -4   43.55   10.79
  -3  -3  -4   38.42    9.94
  -3   3  -4   28.77   10.53
   3  -3   4   40.74    9.52
  -4  -3  -4  100.30   15.63
  -4   3  -4  106.09   17.01
   4  -3   4  100.33   13.99
  -4  -3  -4  123.95   18.05
  -5  -3  -4   34.48   12.42
  -5   3  -4   40.81   13.79
  -5  -3  -4   36.68   13.00
  -6   3  -4  148.25   24.41
  -6  -3  -4  164.38   22.83
  -6  -3  -4  147.00   23.75
  -7   4   4  132.02   25.27
  -7  -4   4  162.37   25.73
  -6   4   4  110.69   19.68
  -6  -4   4  108.86   19.89
  -6  -4   4   98.09   18.52
   6  -4  -4   90.57   18.22
  -5  -4   4   30.83   11.78
   5  -4  -4   57.64   14.83
  -5   4   4   18.52   11.64
  -5  -4   4   67.39   14.56
  -4   4   4   -9.20    8.29
   4  -4  -4  -10.14    7.50
  -4  -4   4    5.88    8.31
  -4  -4   4   -1.32    7.23
  -4  -4   4    0.45    7.16
  -3  -4   4  283.77   21.91
  -3  -4   4  319.19   21.41
   3  -4  -4  311.98   23.37
  -3   4   4  289.43   21.96
  -3  -4   4  270.04   20.27
   2   4  -4  865.40   37.09
   2  -4  -4  814.98   37.29
   2  -4  -4  882.25   29.76
  -2  -4   4  829.70   36.17
  -2  -4   4  861.93   37.67
  -2   4   4  835.91   37.24
  -1  -4   4  746.04   32.37
   1   4  -4  700.85   32.76
   1  -4  -4  758.40   28.65
   1  -4  -4  721.09   31.92
  -1   4   4  687.50   32.77
  -1  -4   4  694.91   31.67
   0   4   4 1204.57   44.93
   0  -4  -4 1207.87   43.44
   0   4  -4 1253.79   47.44
   0  -4   4 1146.09   43.73
   0  -4   4 1183.01   45.51
   0  -4  -4 1223.96   43.76
  -1  -4  -4 1024.03   35.27
  -1  -4  -4 1009.47   39.95
   1   4   4  934.06   39.39
  -1   4  -4  931.05   41.56
   1  -4   4 1039.87   37.72
   1  -4   4  971.51   39.93
  -2   4  -4  782.62   32.83
  -2   4  -4  754.01   37.28
  -2  -4  -4  811.51   36.33
  -2  -4  -4  818.31   36.65
   2  -4   4  777.03   35.19
  -3  -4  -4  723.15   36.99
  -3   4  -4  723.37   37.90
  -3  -4  -4  723.36   36.40
   3  -4   4  744.19   35.07
  -4   4  -4  610.81   36.71
  -4  -4  -4  649.99   36.42
  -4  -4  -4  619.15   35.76
   4  -4   4  620.65   32.95
  -5   4  -4  347.19   29.39
  -5  -4  -4  372.83   28.24
  -5  -4  -4  334.24   28.24
  -6   4  -4  230.96   27.52
  -6  -4  -4  295.89   27.67
  -6  -4  -4  256.35   28.07
   6  -5  -4  110.33   20.76
  -6  -5   4  160.02   24.23
  -6  -5   4  147.93   23.83
  -6   5   4  192.41   25.97
  -5  -5   4  759.54   43.31
   5  -5  -4  672.92   40.81
  -5  -5   4  724.89   42.04
  -5   5   4  720.44   41.43
  -4  -5   4  723.12   36.43
   4  -5  -4  638.22   37.00
  -4  -5   4  638.91   36.31
  -4  -5   4  667.36   38.27
  -4   5   4  629.05   35.97
  -3  -5   4  796.10   38.67
   3  -5  -4  861.03   41.46
  -3  -5   4  786.03   40.63
   3   5  -4  851.75   40.75
  -3   5   4  792.49   40.19
   2  -5  -4 1013.56   44.77
   2   5  -4 1013.18   44.62
  -2  -5   4 1017.18   44.34
  -2  -5   4 1025.80   43.84
  -2   5   4 1077.51   46.79
   1  -5  -4  722.59   34.11
   1   5  -4  745.49   35.92
  -1  -5   4  696.28   33.46
   1  -5  -4  730.12   29.97
  -1  -5   4  711.89   33.98
  -1   5   4  756.13   37.36
   0  -5  -4  407.76   23.02
   0  -5   4  405.72   24.51
   0  -5  -4  435.83   22.97
   0  -5   4  407.44   22.85
   0   5   4  437.16   27.45
   0   5  -4  464.11   29.79
  -1   5  -4  302.10   25.05
   1  -5   4  302.46   21.77
   1  -5   4  347.19   20.32
  -1  -5  -4  302.41   20.70
  -1  -5  -4  309.58   18.22
   1   5   4  310.46   24.00
  -2   5  -4   84.93   16.24
   2  -5   4  102.10   15.22
  -2  -5  -4   83.85   14.26
  -2  -5  -4   75.84   13.79
  -3  -5  -4  154.07   18.45
  -3   5  -4  200.74   22.79
  -3  -5  -4  160.35   18.82
   3  -5   4  170.20   18.42
  -4   5  -4    3.97    9.88
  -4  -5  -4   12.66    9.42
   4  -5   4   13.63    9.32
  -4  -5  -4   20.28   10.48
  -5  -5  -4   25.59   12.41
  -5  -5  -4    2.69    9.85
  -5   5  -4    4.81   11.58
  -6  -5  -4   58.66   17.31
  -6   5  -4   55.24   17.72
  -6  -5  -4   72.88   18.60
  -6  -6   4   35.25   16.55
   6  -6  -4   19.99   13.51
  -6  -6   4   37.95   15.77
  -6   6   4   26.57   15.22
  -5   6   4   22.08   13.60
   5  -6  -4   45.73   14.44
  -5  -6   4    9.59   11.51
  -5  -6   4   49.21   14.64
  -4   6   4    4.95   11.08
   4  -6  -4    4.71    8.99
   4   6  -4    6.71   10.28
  -4  -6   4    5.10    8.47
  -3  -6   4    2.74    7.78
  -3   6   4    4.73   11.06
   3   6  -4    6.95   11.10
  -3  -6   4   -6.22    6.94
   3  -6  -4    5.51    8.88
  -2  -6   4   54.32   12.52
   2  -6  -4   59.64   13.54
  -2   6   4   54.06   15.33
  -2  -6   4   45.66   11.77
   2   6  -4   68.07   17.02
  -1  -6   4  224.58   19.80
   1   6  -4  277.49   25.87
   1  -6  -4  218.94   20.36
  -1   6   4  222.84   23.79
   1  -6  -4  219.03   16.05
  -1  -6   4  235.08   20.20
   0  -6  -4  766.43   35.36
   0  -6   4  740.72   35.00
   0  -6   4  752.09   37.75
   0  -6  -4  773.98   35.01
   0   6  -4  851.14   42.66
   0   6   4  791.59   40.76
   1  -6   4  745.08   37.26
   1  -6   4  725.24   32.98
  -1  -6  -4  726.65   35.34
  -1   6  -4  651.65   39.27
   1   6   4  742.15   38.92
  -1  -6  -4  716.45   32.61
   2   6   4 1143.75   51.34
  -2  -6  -4 1135.56   49.67
  -2   6  -4 1141.88   52.86
   2  -6   4 1047.94   48.43
  -3  -6  -4  651.86   36.57
  -3  -6  -4  608.34   37.08
   3  -6   4  534.14   33.41
  -3   6  -4  658.94   38.69
  -4  -6  -4  300.57   28.65
   4  -6   4  365.60   27.65
  -4  -6  -4  419.39   30.32
  -4   6  -4  360.99   30.66
  -5  -6  -4  207.34   25.48
   5  -6   4  269.26   24.95
  -5   6  -4  294.03   30.27
  -5  -6  -4  325.20   29.40
  -6  -6  -4   85.69   20.97
  -5  -7   4  178.27   26.27
   5   7  -4  246.41   27.72
   5  -7  -4  217.04   25.38
  -5   7   4  216.72   28.66
   4   7  -4  559.07   37.70
  -4   7   4  503.07   36.10
  -4  -7   4  590.84   37.97
   4  -7  -4  525.85   35.74
  -3  -7   4  524.29   33.42
   3   7  -4  579.08   37.48
  -3  -7   4  554.96   35.22
  -3   7   4  589.68   37.68
   3  -7  -4  555.88   35.70
  -2  -7   4  573.12   34.66
  -2  -7   4  656.19   36.15
   2  -7  -4  653.35   36.30
   2   7  -4  547.35   36.22
  -2   7   4  628.35   39.68
  -1  -7   4   99.98   16.78
  -1   7   4   93.63   20.34
  -1  -7   4  108.62   16.52
   1  -7  -4  102.66   16.74
   1   7  -4   89.02   18.20
   0  -7   4  466.21   27.35
   0   7  -4  454.66   35.28
   0   7   4  489.51   33.41
   0  -7  -4  496.83   27.56
   0  -7   4  458.88   30.34
   0  -7  -4  461.25   28.55
   1  -7   4   98.92   16.42
   1   7   4   90.49   18.62
  -1   7  -4   86.80   20.25
  -1  -7  -4  118.48   16.66
   2   7   4   71.64   16.58
  -2   7  -4   90.87   18.96
  -2  -7  -4   69.63   14.16
   2  -7   4   80.16   15.35
  -3  -7  -4   49.20   13.82
   3  -7   4   39.02   12.59
   3   7   4   65.63   17.10
  -3   7  -4   48.36   16.65
  -4  -7  -4   52.64   14.25
   4  -7   4    8.16   10.74
  -4  -7  -4   36.55   15.24
  -4   7  -4   22.43   13.80
  -5  -7  -4   30.90   14.05
  -5   7  -4   21.74   15.19
  -5  -7  -4   39.03   16.38
   5  -7   4   22.04   13.43
   5  -8  -4   50.65   16.77
   5   8  -4   46.71   18.93
  -5  -8   4   53.20   17.05
  -5   8   4   45.92   19.71
  -4   8   4    7.79   14.53
  -4  -8   4   15.91   12.48
   4   8  -4   21.68   15.07
   4  -8  -4   13.43   11.04
   3  -8  -4    4.78    9.82
   3   8  -4   21.15   14.45
  -3   8   4    2.68   13.36
  -3  -8   4   10.11   10.54
  -3  -8   4   27.12   12.22
  -2   8   4   96.72   21.08
  -2  -8   4  143.37   20.52
  -2  -8   4   99.17   17.49
   2   8  -4  112.31   21.24
   2  -8  -4  116.00   19.11
   1  -8  -4  438.13   30.83
   1   8  -4  420.08   33.89
  -1  -8   4  446.31   30.03
  -1   8   4  403.16   34.75
  -1  -8   4  427.94   30.55
   0  -8   4  298.53   23.14
   0  -8  -4  234.67   22.27
   0   8   4  302.32   29.00
   0  -8   4  262.62   24.66
   0   8  -4  309.14   31.52
   0  -8  -4  318.94   23.15
   1   8   4  374.73   31.94
  -1  -8  -4  325.91   25.02
   1  -8   4  344.17   27.79
  -1   8  -4  352.05   32.03
  -2   8  -4  226.23   29.58
  -2  -8  -4  206.75   21.88
   2  -8   4  180.47   20.92
   2   8   4  154.46   24.97
   3  -8   4  225.63   23.69
  -3  -8  -4  190.59   22.45
  -3   8  -4  236.76   27.72
   3   8   4  229.82   29.43
  -4   8  -4  178.10   27.39
   4  -8   4  142.17   22.64
  -4  -8  -4  166.75   24.75
   4   8   4  133.53   23.63
   4   9  -4  247.44   32.80
  -4  -9   4  291.82   30.10
  -4   9   4  263.97   31.41
   4  -9  -4  222.51   26.42
   3   9  -4  326.42   34.24
   3  -9  -4  294.59   29.85
  -3   9   4  318.84   33.17
  -3  -9   4  369.24   31.14
  -2  -9   4  229.36   24.14
   2   9  -4  242.03   31.08
  -2   9   4  201.68   29.57
  -2  -9   4  223.00   24.21
   2  -9  -4  162.63   23.74
   1   9  -4  189.57   28.82
  -1   9   4  180.63   27.94
   1  -9  -4  200.42   22.75
  -1  -9   4  188.08   22.35
  -1  -9   4  217.05   22.55
   0  -9   4   96.73   18.25
   0  -9  -4  109.05   18.42
   0   9  -4  104.92   24.40
   0   9   4  132.36   24.79
   1   9   4   33.04   17.03
   1  -9   4   56.55   15.75
  -1  -9  -4   51.33   13.48
  -1   9  -4   35.52   17.70
  -2   9  -4   55.47   20.37
  -2  -9  -4   38.75   14.05
   2   9   4   36.19   17.27
   2  -9   4   24.06   12.11
  -3  -9  -4   19.91   12.33
   3  -9   4   22.59   12.83
   3   9   4    6.91   14.54
  -3   9  -4    2.91   14.07
   2  10  -4   30.48   21.02
  -2 -10   4   43.54   15.80
   2 -10  -4   20.99   13.91
  -2 -10   4   21.89   13.39
  -2  10   4   21.28   19.52
  -1 -10   4   84.91   18.44
   1 -10  -4   85.10   19.01
  -1  10   4   55.12   22.48
   1  10  -4   70.94   24.19
  -1 -10   4   91.71   20.04
   0  10   4   88.01   24.66
   0  10  -4   50.08   22.44
   0 -10   4   89.13   19.97
   1  10   4  190.31   30.59
  -1  10  -4  236.29   34.38
   1 -10   4  194.69   27.73
  -2 -10  -4  123.15   21.50
   2 -10   4  149.37   24.62
   2  10   4  223.21   32.56
  -2  10  -4  160.83   29.20
  -6   0   5   64.57   15.48
  -6   0   5   65.11   14.91
  -5   0   5   37.48   10.99
  -5   0   5   36.74   11.68
  -4   0   5  397.00   24.61
  -4   0   5  397.96   22.65
  -3   0   5 2199.51   71.88
  -3   0   5 1887.94   66.76
  -3   0   5 2324.83   67.85
  -2   0   5 2527.98   69.18
  -2   0   5 2312.23   72.87
  -2   0   5 2257.18   74.74
   1   0  -5 9998.96  270.75
  -1   0   5 9679.99  270.26
   0   0  -5  570.14   18.62
   0   0  -5  606.63   26.49
   0   0   5  586.43   22.97
  -1   0  -5  374.57   20.42
   1   0   5  378.42   15.67
  -1   0  -5  366.42   16.83
  -2   0  -5 1752.32   58.44
  -2   0  -5 1722.08   59.42
   2   0   5 1814.87   52.32
  -3   0  -5  512.18   26.33
  -3   0  -5  519.54   27.84
  -4   0  -5  615.01   30.46
  -4   0  -5  565.03   32.52
  -5   0  -5  494.66   33.23
  -6   0  -5   63.83   17.08
  -7   0  -5   24.99   15.01
  -6  -1   5  489.74   33.30
  -6   1   5  551.15   34.50
  -5   1   5  197.46   21.28
  -5   1   5  251.99   21.34
  -5  -1   5  288.71   22.34
  -5  -1   5  286.17   21.61
  -5  -1   5  252.98   21.91
  -4  -1   5  880.43   39.60
  -4  -1   5  885.34   37.85
  -4  -1   5  888.16   37.38
  -4   1   5  830.85   39.84
  -3   1   5  698.16   34.49
  -3  -1   5  850.45   34.61
  -3  -1   5  903.99   36.27
  -3   1   5  815.74   31.95
   3  -1  -5  825.57   31.89
  -3  -1   5  838.68   32.33
  -2  -1   5  479.00   23.11
  -2   1   5  485.24   18.58
  -2  -1   5  441.98   22.74
   2  -1  -5  429.70   21.69
  -2  -1   5  476.12   18.70
   1  -1  -5 1094.82   40.46
  -1  -1   5 1153.18   41.01
   1   1  -5 1207.07   35.40
  -1  -1   5 1116.02   40.68
  -1   1   5 1159.79   40.28
  -1   1   5 1184.35   33.86
   0   1  -5  104.50   12.24
   0  -1  -5  102.43   12.66
   0   1  -5  102.66    8.30
   0  -1   5   92.28    9.38
   0   1   5   85.53    8.26
   0  -1  -5   80.00    6.30
  -1  -1  -5  861.88   34.26
  -1   1  -5  827.62   30.39
   1   1   5  833.17   27.35
   1  -1   5  846.58   30.31
  -1  -1  -5  853.64   30.22
  -1   1  -5  868.21   34.38
  -2  -1  -5  724.34   30.81
   2  -1   5  793.51   28.01
  -2  -1  -5  696.52   31.76
  -2   1  -5  749.86   31.72
  -2   1  -5  738.42   31.00
  -3   1  -5  393.82   23.25
   3  -1   5  349.01   17.67
  -3  -1  -5  313.20   21.41
  -3  -1  -5  348.62   22.06
  -4   1  -5  438.29   29.42
  -4  -1  -5  426.33   28.51
  -4  -1  -5  445.30   27.19
  -4   1  -5  459.45   25.42
  -5  -1  -5  301.33   24.37
  -5   1  -5  295.90   26.61
  -5  -1  -5  264.72   24.51
  -6   1  -5  185.75   26.48
  -6  -1  -5  164.22   24.38
  -7   1  -5  173.66   28.07
  -7  -1  -5  169.00   27.47
   6  -2  -5   11.41   10.04
  -6   2   5    0.61    9.23
  -6  -2   5    4.66    9.55
  -5  -2   5    5.86    8.49
  -5  -2   5   13.34    9.26
   5  -2  -5    1.11    9.10
  -5  -2   5    9.94    7.88
  -5   2   5   21.83   10.19
  -4  -2   5  343.06   21.82
  -4   2   5  313.67   23.61
  -4  -2   5  314.58   23.13
  -4  -2   5  324.81   22.78
  -3  -2   5  641.98   30.92
  -3   2   5  686.98   32.93
  -3   2   5  678.46   28.75
  -3  -2   5  638.97   31.37
   3  -2  -5  664.48   27.17
  -2  -2   5 2093.97   70.38
  -2   2   5 2197.21   65.58
  -2  -2   5 2150.79   71.02
  -2  -2   5 2115.17   66.07
   2  -2  -5 2217.54   66.88
  -1  -2   5 2230.92   72.47
   1   2  -5 2384.12   68.75
  -1   2   5 2326.14   67.82
  -1  -2   5 2277.70   72.43
   1  -2  -5 2201.67   70.25
  -1   2   5 2267.21   71.61
   0   2   5 2577.81   78.15
   0  -2  -5 2593.66   80.93
   0  -2   5 2665.47   81.08
   0   2   5 2630.25   76.86
   0   2  -5 2700.41   79.16
  -1   2  -5 2651.15   79.24
  -1  -2  -5 2493.29   77.43
  -1   2  -5 2604.90   80.69
  -1  -2  -5 2510.21   81.17
   1  -2   5 2613.18   79.30
  -2  -2  -5 2403.01   77.89
   2  -2   5 2522.50   76.50
  -2   2  -5 2447.17   78.66
  -2  -2  -5 2400.37   79.62
  -3   2  -5  937.05   37.36
   3  -2   5  969.85   36.46
  -3  -2  -5  927.90   40.41
  -3   2  -5  881.30   40.02
  -3  -2  -5  917.14   40.27
  -4   2  -5  941.75   44.56
  -4  -2  -5  861.89   43.50
  -4  -2  -5  948.26   43.07
  -5  -2  -5  184.62   21.18
  -5  -2  -5  208.47   21.20
  -5   2  -5  222.35   23.97
  -6   2  -5   60.28   17.90
  -6  -2  -5   14.24   12.06
  -7   2  -5    7.15   13.57
  -7  -2  -5   -3.64   10.79
  -6  -3   5  425.76   31.10
  -6  -3   5  440.75   31.94
  -6   3   5  358.58   30.12
   6  -3  -5  411.89   31.17
  -5  -3   5  422.39   28.17
   5  -3  -5  384.51   29.10
  -5  -3   5  365.16   27.34
  -5   3   5  358.18   26.68
  -5  -3   5  434.50   28.22
  -4  -3   5  636.68   32.28
  -4  -3   5  683.88   34.13
  -4   3   5  653.02   32.66
  -4  -3   5  596.35   34.13
   4  -3  -5  589.28   34.30
  -3   3   5  520.45   26.39
  -3  -3   5  616.00   30.33
   3  -3  -5  567.06   31.07
  -3  -3   5  525.10   26.92
  -3  -3   5  525.45   29.27
   2  -3  -5  616.60   30.35
  -2  -3   5  582.51   29.15
   2   3  -5  654.44   28.09
  -2   3   5  653.58   28.11
  -2  -3   5  599.48   30.00
   2  -3  -5  630.62   25.32
  -1   3   5  701.43   29.82
  -1  -3   5  722.97   31.64
   1  -3  -5  691.94   30.81
   1   3  -5  723.57   30.48
   1  -3  -5  753.01   29.12
  -1  -3   5  713.32   31.36
   0  -3  -5  441.07   22.11
   0   3   5  473.01   21.24
   0   3  -5  439.67   23.81
   0  -3   5  457.18   23.15
   0  -3  -5  362.71   19.91
   0  -3   5  463.88   22.89
  -1  -3  -5   14.81    5.33
  -1  -3  -5   21.79    7.02
   1  -3   5    0.65    5.00
  -1   3  -5   11.45    8.12
  -1  -3  -5   11.23    6.17
  -1   3  -5   22.25    8.79
  -2  -3  -5  260.80   18.18
  -2  -3  -5  237.34   18.32
  -2   3  -5  257.53   19.16
   2  -3   5  244.02   16.99
  -2   3  -5  266.03   20.12
  -3  -3  -5  563.93   31.22
  -3  -3  -5  603.71   32.22
  -3   3  -5  631.62   33.34
   3  -3   5  622.97   29.63
  -3   3  -5  609.32   28.69
  -4  -3  -5  264.60   23.01
   4  -3   5  311.00   21.19
  -4  -3  -5  271.76   23.76
  -4   3  -5  238.03   22.43
  -5  -3  -5  280.31   25.73
  -5  -3  -5  290.48   25.40
  -5   3  -5  270.10   26.06
  -6  -3  -5  191.07   23.02
  -6  -3  -5  161.41   24.27
  -6   3  -5  174.53   27.33
  -6  -4   5    1.80   10.80
   6  -4  -5   25.27   13.34
  -6  -4   5   26.39   12.42
  -5  -4   5   49.28   14.14
  -5   4   5   67.12   14.77
   5  -4  -5   71.94   16.26
  -5  -4   5   49.01   13.07
  -4   4   5  230.77   21.12
  -4  -4   5  229.27   20.85
  -4  -4   5  244.31   21.05
   4  -4  -5  243.05   22.46
  -4  -4   5  243.15   22.51
  -3  -4   5  824.96   40.14
   3  -4  -5  782.10   40.05
  -3   4   5  953.02   39.30
  -3  -4   5  871.32   39.56
   2   4  -5 1875.01   64.11
   2  -4  -5 1935.45   58.53
  -2  -4   5 1839.82   66.44
   2  -4  -5 1791.81   66.63
  -2  -4   5 1825.55   65.68
   1   4  -5 1344.85   49.73
  -1  -4   5 1332.04   50.19
   1  -4  -5 1289.12   49.50
  -1  -4   5 1295.09   50.32
   1  -4  -5 1401.95   46.89
   0  -4   5 1047.17   42.67
   0  -4  -5 1050.69   40.69
   0  -4  -5 1098.36   40.56
   0   4   5 1039.45   41.34
   0   4  -5 1053.21   43.95
   0  -4   5 1055.89   41.45
  -1  -4  -5  742.82   34.31
   1  -4   5  777.69   34.92
  -1  -4  -5  775.59   29.79
  -1   4  -5  826.16   37.71
  -2   4  -5  335.21   25.11
  -2   4  -5  383.70   23.80
   2  -4   5  331.42   22.10
  -2  -4  -5  328.89   22.19
  -2  -4  -5  337.51   22.81
  -3  -4  -5  451.80   28.98
  -3   4  -5  497.67   31.92
  -3  -4  -5  493.95   30.54
   3  -4   5  535.84   28.64
   4  -4   5  526.03   30.51
  -4  -4  -5  553.31   33.68
  -4  -4  -5  528.57   33.56
  -4   4  -5  595.40   36.29
  -5  -4  -5  150.07   21.52
  -5  -4  -5  142.06   21.49
  -5   4  -5  216.71   24.25
  -6   4  -5   85.89   20.84
  -6  -4  -5   95.32   19.40
  -6  -4  -5  104.15   21.27
  -6  -5   5  227.47   25.43
  -6  -5   5  289.28   28.86
   6  -5  -5  145.02   23.61
  -5  -5   5  531.10   34.60
  -5   5   5  478.41   33.68
  -5  -5   5  545.25   36.02
   5  -5  -5  534.52   35.48
  -4  -5   5  403.57   29.44
  -4  -5   5  462.00   30.06
  -4  -5   5  390.19   27.64
  -4   5   5  418.55   28.90
   4  -5  -5  410.05   29.38
  -3  -5   5  454.07   28.42
  -3  -5   5  440.18   29.06
   3   5  -5  439.41   28.43
   3  -5  -5  488.33   30.46
  -3   5   5  427.49   28.55
  -2  -5   5  283.47   20.97
  -2   5   5  224.76   23.05
  -2  -5   5  224.60   20.07
   2   5  -5  271.84   23.49
   2  -5  -5  253.04   21.30
  -1  -5   5  192.86   18.12
   1  -5  -5  201.64   15.59
   1  -5  -5  193.44   17.75
   1   5  -5  178.33   20.82
  -1  -5   5  196.52   17.44
  -1   5   5  191.36   21.29
   0  -5  -5   78.39   12.29
   0  -5  -5   51.28    9.84
   0   5   5   83.88   14.70
   0  -5   5   72.44   12.42
   0   5  -5   84.76   16.69
   0  -5   5   74.86   12.52
   1  -5   5   86.34   12.66
   1  -5   5   70.66   12.60
  -1  -5  -5   47.17   10.77
   1   5   5   40.32   12.79
  -1  -5  -5   58.22    9.79
  -1   5  -5   76.04   15.72
  -2   5  -5  264.06   22.11
  -2  -5  -5  205.97   20.17
   2  -5   5  182.91   17.86
  -2  -5  -5  190.96   18.51
  -2   5  -5  193.97   22.12
   3  -5   5  230.28   20.07
  -3  -5  -5  220.98   21.08
  -3   5  -5  205.11   21.83
  -3  -5  -5  171.86   19.26
   4  -5   5  242.46   22.41
  -4   5  -5  258.36   26.35
  -4  -5  -5  274.77   25.31
  -4  -5  -5  269.23   24.37
  -5   5  -5  221.28   26.40
  -5  -5  -5  184.83   25.23
  -5  -5  -5  178.55   24.49
  -6  -5  -5  332.38   30.84
  -6  -5  -5  277.61   30.14
  -6   5  -5  377.59   34.84
   6  -6  -5    5.90   12.70
  -6  -6   5   13.93   11.97
  -6  -6   5   14.46   15.67
  -5   6   5   34.71   15.13
  -5  -6   5   31.96   13.20
   5  -6  -5   15.65   11.97
   4  -6  -5   63.15   15.22
  -4  -6   5   33.34   12.62
   4   6  -5   53.71   15.61
  -4  -6   5   61.85   14.62
  -4   6   5   49.73   14.80
  -3   6   5  264.43   25.24
  -3  -6   5  370.37   26.66
   3  -6  -5  341.19   26.62
  -3  -6   5  311.31   25.96
   3   6  -5  329.83   26.52
  -2  -6   5  384.79   25.98
  -2   6   5  305.12   26.54
   2  -6  -5  313.95   25.16
  -2  -6   5  292.08   24.48
   2   6  -5  340.29   27.72
  -1  -6   5  918.59   43.33
   1  -6  -5  956.16   38.95
  -1   6   5  980.68   47.35
  -1  -6   5 1004.46   45.12
   1   6  -5  940.78   46.18
   1  -6  -5 1016.89   44.88
   0  -6  -5  723.16   34.27
   0  -6   5  724.45   37.22
   0  -6   5  758.67   35.51
   0   6  -5  706.38   40.19
   0   6   5  712.45   39.30
   0  -6  -5  746.82   34.86
  -1  -6  -5 1119.49   43.30
  -1   6  -5 1038.52   51.88
   1   6   5 1056.71   49.11
  -1  -6  -5 1100.37   47.30
   1  -6   5 1147.77   45.52
   1  -6   5 1081.84   48.87
  -2   6  -5  544.33   34.74
   2  -6   5  507.29   31.15
   2   6   5  495.03   32.32
  -2  -6  -5  501.97   31.30
  -3   6  -5  568.08   36.63
   3  -6   5  502.35   31.66
  -3  -6  -5  490.41   33.09
  -3  -6  -5  491.98   33.31
  -4   6  -5  216.58   25.88
   4  -6   5  154.24   21.13
  -4  -6  -5  155.78   22.26
  -4  -6  -5  215.54   24.78
  -5  -6  -5   84.30   19.21
  -5   6  -5   83.16   19.73
  -5  -6  -5  167.82   24.11
   5   7  -5  312.44   30.22
  -5  -7   5  318.39   29.88
  -5   7   5  273.71   29.37
   5  -7  -5  238.09   26.84
   4  -7  -5  324.68   28.49
   4   7  -5  343.72   29.79
  -4  -7   5  287.25   27.57
  -4   7   5  349.15   29.97
   3   7  -5  355.15   30.41
  -3  -7   5  382.85   28.30
  -3   7   5  347.56   29.56
  -3  -7   5  362.27   28.92
   3  -7  -5  322.76   27.75
  -2  -7   5  233.42   22.51
  -2  -7   5  259.28   24.00
   2  -7  -5  265.51   24.57
   2   7  -5  304.31   27.79
  -2   7   5  287.22   28.06
  -1  -7   5   24.05   10.55
   1  -7  -5   15.91    9.75
   1   7  -5   18.52   14.68
  -1   7   5   22.99   13.49
  -1  -7   5    7.86    9.06
   0  -7   5    7.46    8.40
   0  -7  -5   22.23    9.13
   0  -7  -5   16.15    9.67
   0   7   5   30.09   14.15
   0  -7   5   16.43    9.57
   0   7  -5   29.93   15.87
   1  -7   5   51.66   12.80
  -1  -7  -5   49.36   11.92
   1   7   5   52.72   15.69
  -1   7  -5   69.40   18.01
   2  -7   5   39.61   13.07
   2   7   5   64.17   16.06
  -2   7  -5   80.38   18.53
  -2  -7  -5   43.46   12.62
   3   7   5  153.21   23.34
  -3  -7  -5  161.41   22.23
   3  -7   5  131.34   19.89
  -3   7  -5  184.99   25.39
   4  -7   5  130.16   21.22
  -4  -7  -5   82.97   19.34
  -4  -7  -5  118.28   20.40
  -4   7  -5   97.08   21.73
  -5  -7  -5  158.01   26.20
  -5  -7  -5   95.26   20.22
   5  -7   5  128.08   22.23
  -5   7  -5  101.90   23.59
   4  -8  -5   48.20   16.01
   4   8  -5   99.66   21.03
  -4  -8   5  128.95   21.21
  -4   8   5  118.47   21.89
  -3   8   5  138.70   23.68
  -3  -8   5  112.60   19.45
  -3  -8   5  140.58   21.96
   3  -8  -5  145.02   21.96
   3   8  -5  137.67   24.32
  -2  -8   5  480.70   32.90
   2   8  -5  450.56   35.62
  -2  -8   5  512.69   34.57
  -2   8   5  462.53   35.83
   2  -8  -5  442.22   32.61
  -1  -8   5  325.37   27.59
   1  -8  -5  424.41   29.42
   1   8  -5  357.31   32.79
  -1   8   5  308.51   31.61
  -1  -8   5  332.67   26.69
   0  -8  -5  482.33   29.76
   0   8  -5  524.71   38.23
   0  -8  -5  538.52   32.61
   0   8   5  542.46   38.42
   0  -8   5  470.12   33.01
   0  -8   5  474.26   30.72
   1  -8   5  269.54   25.75
  -1  -8  -5  371.04   27.08
  -1   8  -5  344.15   33.64
   1   8   5  359.52   31.50
   2   8   5  119.19   22.24
  -2   8  -5   98.90   22.02
   2  -8   5  153.42   22.45
  -2  -8  -5  204.02   21.96
   3  -8   5  165.72   23.51
   3   8   5  150.68   24.89
  -3  -8  -5  161.67   23.37
  -3   8  -5  135.41   23.95
   4  -8   5   35.03   14.75
  -4   8  -5   94.06   22.01
  -4  -8  -5   48.06   14.91
   4   8   5   67.67   19.74
  -3  -9   5  196.02   26.67
   3  -9  -5  190.67   26.48
   3   9  -5  181.62   29.44
  -3  -9   5  254.24   27.77
  -3   9   5  182.61   27.82
   2   9  -5   59.35   20.05
  -2  -9   5  112.75   20.08
   2  -9  -5   64.68   16.72
  -2  -9   5   96.79   20.00
  -2   9   5   68.98   21.91
  -1  -9   5   40.58   13.18
  -1  -9   5   52.71   15.92
   1  -9  -5   35.41   14.10
  -1   9   5   25.97   17.63
   1   9  -5   65.30   19.85
   0   9   5   -5.99   14.51
   0  -9  -5    6.89   11.11
   0   9  -5    2.05   16.28
   0  -9   5    5.57    9.93
   1  -9   5   27.27   12.53
  -1  -9  -5   13.52   10.02
  -1   9  -5   25.86   18.00
   1   9   5   15.01   15.87
  -2  -9  -5   17.79   12.07
  -2   9  -5   32.49   17.09
   2  -9   5   35.25   13.41
   2   9   5   49.40   18.93
   3  -9   5   66.03   18.09
  -3  -9  -5   77.30   18.89
   3   9   5   53.87   19.80
  -3   9  -5   39.54   18.60
   2 -10  -5  154.92   25.03
  -2  10   5  105.54   26.41
   2  10  -5  124.04   27.86
  -2 -10   5  145.36   23.25
  -2 -10   5  132.98   24.22
   1 -10  -5  203.12   27.90
   1  10  -5  220.48   32.48
  -1 -10   5  252.08   26.38
  -1 -10   5  202.80   27.92
  -1  10   5  170.31   30.26
   0  10  -5  348.11   36.66
   0  10   5  231.20   33.96
   0 -10   5  280.39   29.56
   1  10   5  238.73   32.90
  -1  10  -5  261.33   36.41
   1 -10   5  231.42   26.77
   2 -10   5  264.62   28.98
   2  10   5  220.29   33.39
  -2 -10  -5  299.58   29.69
  -2  10  -5  248.24   35.47
  -6   0   6  187.13   22.49
  -5   0   6  126.11   18.33
  -4   0   6  276.70   19.76
  -4   0   6  338.84   23.44
  -4   0   6  326.07   21.85
  -3   0   6 1423.70   49.82
  -3   0   6 1437.77   46.83
  -3   0   6 1303.57   51.87
   2   0  -6  210.60   17.25
  -2   0   6  225.48   10.65
  -2   0   6  214.65   15.81
  -1   0   6 6429.24  184.30
   1   0  -6 6627.57  185.68
   0   0  -6 1119.54   32.84
   0   0  -6 1103.33   42.26
   0   0   6 1075.08   37.95
   1   0   6  873.64   30.91
  -1   0  -6  879.00   36.78
  -1   0  -6  924.06   31.78
   2   0   6   47.33    6.13
  -2   0  -6   45.54    8.89
  -2   0  -6   34.45    9.27
  -3   0  -6   13.31    7.67
  -3   0  -6    3.66    6.49
  -4   0  -6   -3.74    7.36
  -4   0  -6    6.61    8.65
  -5   0  -6  -12.22    6.77
  -6   0  -6    4.90   10.25
  -6  -1   6  336.92   27.85
  -6   1   6  281.30   27.12
  -5  -1   6  328.96   23.44
  -5   1   6  424.28   29.18
  -5  -1   6  408.15   27.33
  -4  -1   6  345.08   21.31
  -4   1   6  307.11   24.23
  -4  -1   6  314.93   22.97
  -4   1   6  346.60   21.31
  -4  -1   6  312.41   22.34
  -3  -1   6  219.41   18.23
  -3  -1   6  269.54   19.21
   3  -1  -6  221.72   17.93
  -3   1   6  219.82   18.18
  -3   1   6  248.85   15.05
  -3  -1   6  249.78   15.02
  -2  -1   6   24.66    8.06
  -2  -1   6   19.32    4.77
   2  -1  -6   23.65    8.61
  -2  -1   6   18.88    6.78
  -2   1   6   19.38    7.01
  -2   1   6   20.16    4.50
   1  -1  -6  687.97   31.10
  -1  -1   6  701.13   29.80
   1   1  -6  682.45   30.63
  -1   1   6  710.25   29.32
   1   1  -6  742.42   23.78
   0   1   6  485.09   20.87
   0   1  -6  470.79   17.92
   0  -1  -6  490.54   17.08
   0  -1  -6  474.94   25.02
   0  -1   6  471.26   21.97
  -1   1  -6  711.17   27.69
  -1  -1  -6  780.55   33.51
   1   1   6  701.65   25.56
  -1  -1  -6  793.48   28.12
   1  -1   6  743.53   28.49
  -1   1  -6  703.32   32.80
   2   1   6 1415.18   41.11
  -2   1  -6 1426.68   49.87
  -2  -1  -6 1434.12   49.92
   2  -1   6 1394.78   46.06
  -2  -1  -6 1306.17   51.24
  -2   1  -6 1409.87   51.39
  -3  -1  -6  690.21   34.17
  -3   1  -6  743.67   34.88
  -3   1  -6  776.54   34.09
  -3  -1  -6  686.48   33.77
  -4  -1  -6  882.93   43.20
  -4   1  -6  925.22   44.33
  -4  -1  -6  896.62   42.08
  -4   1  -6  917.85   40.29
  -5   1  -6  680.56   41.15
  -5  -1  -6  692.17   41.18
  -5  -1  -6  751.67   38.95
  -6  -1  -6  303.39   29.32
  -6   1  -6  348.24   30.98
   6  -2  -6  276.00   26.44
  -5   2   6  256.73   23.39
  -5  -2   6  264.63   23.12
  -5  -2   6  241.06   22.43
  -5  -2   6  306.24   23.04
  -4   2   6  343.32   26.28
  -4   2   6  334.11   22.14
  -4  -2   6  399.74   26.16
  -4  -2   6  422.35   26.73
  -4  -2   6  369.23   22.41
  -3  -2   6  628.29   31.88
  -3  -2   6  664.33   32.19
   3  -2  -6  654.59   28.99
  -3  -2   6  677.86   28.49
  -3   2   6  681.45   28.22
   2  -2  -6 1493.32   51.95
   2   2  -6 1479.47   48.90
  -2  -2   6 1510.96   55.21
  -2   2   6 1599.25   48.34
  -2  -2   6 1516.17   54.63
  -1   2   6 1784.58   60.66
  -1  -2   6 1829.74   62.23
  -1   2   6 1894.94   55.76
   1   2  -6 1829.27   56.74
   1  -2  -6 1848.86   61.15
  -1  -2   6 1845.57   62.26
   0   2  -6 3196.37   99.11
   0  -2  -6 3282.48   98.67
   0   2   6 3112.27   91.95
   0  -2   6 3133.94   97.20
   0   2   6 3211.08   94.73
   0   2  -6 3293.34   94.45
  -1  -2  -6 1380.64   50.25
  -1   2  -6 1352.53   50.13
   1   2   6 1395.73   42.90
  -1   2  -6 1349.44   46.64
   1  -2   6 1319.95   47.18
  -1  -2  -6 1330.82   45.33
  -2  -2  -6  556.87   26.79
  -2   2  -6  579.15   29.05
  -2   2  -6  519.22   27.10
   2  -2   6  562.97   25.59
  -3  -2  -6   11.91    8.42
  -3   2  -6   38.20   10.96
  -3  -2  -6   23.38    8.25
  -3   2  -6   23.61    9.82
   3  -2   6   28.66    8.36
  -4  -2  -6    4.74    8.88
  -4   2  -6   -3.85    7.92
  -4  -2  -6  -11.80    6.18
  -5   2  -6   17.97   12.35
  -5  -2  -6   24.82   11.55
  -5  -2  -6   29.98   11.66
  -6  -2  -6   25.03   12.86
  -6   2  -6   17.47   14.25
   7  -3  -6  217.24   25.95
   6  -3  -6  218.12   24.15
  -5  -3   6  397.66   28.66
  -5  -3   6  404.72   27.38
  -5  -3   6  437.30   29.73
   5  -3  -6  393.60   29.52
  -4  -3   6  382.46   24.18
  -4  -3   6  315.55   24.61
   4  -3  -6  388.07   28.33
  -4   3   6  485.35   26.23
  -4  -3   6  368.17   26.24
  -3  -3   6   47.75   11.12
  -3  -3   6   47.33    9.44
  -3  -3   6   32.09   10.19
  -3   3   6   40.02    9.43
  -2   3   6   66.79   11.59
  -2   3   6   76.22   10.57
  -2  -3   6   87.56   12.61
  -2  -3   6   57.26   11.28
   2   3  -6   54.65   10.11
   2  -3  -6   83.59   11.05
   1   3  -6  239.58   17.36
  -1   3   6  239.24   16.44
  -1  -3   6  203.92   16.16
  -1  -3   6  215.27   16.93
  -1   3   6  225.01   16.33
   1  -3  -6  210.70   15.98
   0  -3  -6  873.68   36.18
   0   3   6  893.19   33.59
   0  -3   6  860.92   36.15
   0  -3   6  820.82   36.06
   0   3  -6  921.32   36.21
  -1  -3  -6  396.00   17.91
  -1  -3  -6  324.24   19.55
  -1   3  -6  337.24   23.09
  -1   3  -6  378.75   22.63
   1  -3   6  338.20   20.46
  -1  -3  -6  338.97   21.56
  -2  -3  -6  837.61   35.98
  -2   3  -6  781.88   36.88
  -2  -3  -6  802.79   37.94
   2  -3   6  882.56   36.40
   3  -3   6  734.96   34.18
  -3  -3  -6  754.79   37.98
  -3  -3  -6  745.28   36.44
  -3   3  -6  772.68   38.09
  -3   3  -6  754.54   34.90
  -4   3  -6  640.95   36.83
  -4  -3  -6  614.71   35.84
  -4  -3  -6  640.98   36.40
  -5  -3  -6  545.05   36.99
  -5   3  -6  576.83   38.02
  -5  -3  -6  568.60   35.78
  -6   3  -6  215.80   29.64
  -6  -3  -6  220.85   26.89
  -6  -3  -6  189.28   25.53
  -6  -4   6  127.52   22.01
   6  -4  -6  118.68   21.35
  -5  -4   6  290.13   24.39
  -5  -4   6  292.46   25.85
  -5  -4   6  289.48   24.73
   5  -4  -6  298.11   27.49
   4  -4  -6  309.20   25.83
  -4  -4   6  350.77   24.57
  -4  -4   6  335.43   24.77
  -4  -4   6  337.81   26.07
  -3  -4   6  851.04   40.44
   3   4  -6  822.16   37.87
  -3  -4   6  800.04   40.33
  -3   4   6  834.18   37.04
   3  -4  -6  896.81   42.54
   2   4  -6 1664.19   58.79
  -2  -4   6 1618.21   61.65
   2  -4  -6 1682.11   54.68
   2  -4  -6 1682.77   62.52
  -2  -4   6 1627.40   61.27
  -2   4   6 1566.46   57.72
   1  -4  -6  931.21   39.46
  -1  -4   6  951.62   39.92
   1  -4  -6  956.11   36.94
  -1  -4   6  838.64   38.87
   1   4  -6  910.28   38.67
  -1   4   6  869.43   37.72
   0  -4   6 1434.52   54.96
   0  -4  -6 1487.70   53.86
   0  -4  -6 1551.14   52.85
   0   4  -6 1477.85   55.44
   0  -4   6 1409.10   53.74
   1  -4   6  443.40   25.40
  -1  -4  -6  446.53   26.36
  -1   4  -6  426.03   27.38
  -1   4  -6  446.14   26.09
  -1  -4  -6  477.77   22.07
  -2   4  -6  130.73   17.09
   2  -4   6   93.79   13.81
  -2   4  -6  108.78   16.17
  -2  -4  -6   77.87   14.05
  -2  -4  -6   97.18   13.90
  -3  -4  -6  271.70   22.63
  -3   4  -6  243.30   23.78
  -3  -4  -6  292.81   22.52
   3  -4   6  228.48   20.10
  -4  -4  -6   15.65    9.51
   4  -4   6   40.33   11.17
  -4   4  -6   20.59   12.42
  -4  -4  -6   17.35   10.49
  -5  -4  -6    9.18    9.86
  -5   4  -6   -2.90   11.66
  -5  -4  -6   21.36   12.04
  -6   4  -6    9.03   14.51
  -6  -4  -6   -0.32   12.08
  -6  -4  -6    8.20   11.94
  -6  -5   6  264.67   28.81
   6  -5  -6  252.36   27.46
   5  -5  -6  130.97   20.95
  -5  -5   6  156.35   22.98
  -5  -5   6  111.98   19.34
  -4  -5   6  163.32   19.51
  -4   5   6  120.31   18.41
  -4  -5   6  142.28   20.78
   4  -5  -6  121.27   19.01
   4   5  -6  165.98   20.81
  -3  -5   6   36.26   12.02
   3   5  -6   25.07   12.14
  -3  -5   6   46.10   11.77
   3  -5  -6   32.75   11.81
  -3   5   6   44.72   12.60
  -2   5   6    5.77    6.64
  -2  -5   6   -5.24    7.49
  -2  -5   6    1.31    7.32
   2   5  -6   21.02   11.90
   2  -5  -6    2.32    8.88
   1  -5  -6  130.95   16.88
   1  -5  -6  118.13   13.96
  -1   5   6  107.06   16.87
  -1  -5   6  126.20   15.21
  -1  -5   6  141.47   17.80
   1   5  -6  139.15   18.47
   0   5  -6  301.78   24.55
   0  -5  -6  289.88   20.91
   0  -5  -6  317.44   21.14
   0   5   6  272.40   23.57
   0  -5   6  282.11   21.73
   0  -5   6  263.94   20.84
   1  -5   6  411.01   26.47
  -1   5  -6  398.58   28.44
  -1  -5  -6  413.96   22.01
   1   5   6  430.17   27.07
  -1  -5  -6  433.28   26.96
  -2  -5  -6  379.67   26.92
  -2   5  -6  418.67   29.42
  -2  -5  -6  351.00   25.76
  -2   5  -6  423.10   28.47
   2  -5   6  442.17   27.84
  -3  -5  -6  550.34   33.84
  -3   5  -6  537.83   34.11
   3  -5   6  549.09   32.28
  -3  -5  -6  501.45   32.31
  -4   5  -6  348.80   29.51
  -4  -5  -6  302.83   26.70
  -4  -5  -6  311.24   26.88
   4  -5   6  384.28   27.11
  -5  -5  -6  183.49   25.26
  -5   5  -6  230.64   26.03
  -5  -5  -6  180.66   25.10
  -6   5  -6  337.64   34.35
  -6  -5  -6  298.54   32.34
  -6  -5  -6  365.14   32.61
   6  -6  -6   64.78   18.76
  -6  -6   6   63.25   18.37
  -5  -6   6  179.72   25.08
   5   6  -6  235.66   25.39
   5  -6  -6  223.05   25.15
  -4  -6   6  252.10   25.43
   4   6  -6  234.50   24.81
  -4  -6   6  256.27   24.55
   4  -6  -6  210.47   23.49
  -4   6   6  280.97   25.53
   3  -6  -6  570.87   35.75
  -3   6   6  615.82   35.71
  -3  -6   6  636.57   36.04
  -3  -6   6  573.88   35.43
   3   6  -6  519.33   34.06
   2   6  -6  713.62   38.47
  -2  -6   6  719.17   38.91
  -2  -6   6  679.71   37.94
   2  -6  -6  751.51   39.34
  -2   6   6  745.25   40.05
  -1  -6   6 1193.92   50.92
   1   6  -6 1082.78   51.04
  -1  -6   6 1169.03   51.33
  -1   6   6 1175.19   52.70
   1  -6  -6 1198.89   46.46
   1  -6  -6 1226.30   51.59
   0  -6  -6  741.17   36.13
   0   6  -6  798.75   42.15
   0  -6   6  753.42   37.58
   0  -6  -6  792.33   36.88
   0   6   6  776.96   40.83
   0  -6   6  765.26   39.55
  -1  -6  -6  673.09   35.41
   1  -6   6  676.40   33.72
   1  -6   6  541.87   33.32
  -1   6  -6  590.17   36.96
   1   6   6  658.40   37.16
  -2   6  -6  238.98   24.85
  -2  -6  -6  267.08   23.62
   2   6   6  265.55   23.81
   2  -6   6  275.73   23.55
  -3   6  -6   88.37   18.89
  -3  -6  -6   51.85   13.90
   3  -6   6   76.02   15.80
  -3  -6  -6  110.63   18.41
  -4  -6  -6   17.77   12.41
  -4  -6  -6   20.69   10.88
   4  -6   6   15.98   11.44
  -4   6  -6   11.30   12.57
  -5  -6  -6    3.58   10.75
  -5   6  -6   11.40   14.26
  -5  -6  -6    0.97   11.35
  -5  -7   6   79.17   19.02
   5   7  -6  101.04   20.94
   5  -7  -6   98.33   21.17
   4  -7  -6   41.09   14.71
  -4  -7   6   55.34   15.59
  -4  -7   6   67.13   16.45
   4   7  -6   49.33   16.23
   3  -7  -6  112.13   19.43
   3   7  -6  142.05   22.03
  -3  -7   6  130.05   20.36
  -3  -7   6  120.60   19.80
  -3   7   6  123.05   20.70
   2   7  -6    7.37   12.46
  -2  -7   6   21.37   10.46
  -2  -7   6    0.52    7.69
  -2   7   6   12.45   13.22
   2  -7  -6   -4.70    8.47
  -1  -7   6   10.71    9.08
   1   7  -6    4.17   13.95
  -1   7   6    8.50   13.62
  -1  -7   6   19.57   10.03
   1  -7  -6   28.05   11.93
   0  -7   6  212.94   20.49
   0   7  -6  234.58   25.65
   0  -7  -6  246.23   20.79
   0   7   6  244.52   25.76
   0  -7   6  214.26   21.69
   0  -7  -6  198.15   19.87
  -1   7  -6  461.03   34.92
   1   7   6  516.60   34.48
  -1  -7  -6  553.48   32.37
   1  -7   6  508.55   33.33
  -2  -7  -6  374.74   28.83
   2   7   6  359.32   29.67
   2  -7   6  367.74   28.87
  -2   7  -6  406.35   32.46
   3   7   6  242.29   27.50
  -3   7  -6  257.92   28.57
  -3  -7  -6  269.71   26.30
   3  -7   6  241.11   24.88
   4  -7   6  197.15   23.75
  -4  -7  -6  191.81   23.43
  -4  -7  -6  251.75   27.54
  -4   7  -6  215.13   29.53
  -5  -7  -6  125.03   23.30
  -5  -7  -6  135.91   25.28
  -5   7  -6  143.98   27.00
  -4  -8   6  206.51   27.94
   4  -8  -6  150.50   24.40
   4   8  -6  199.39   28.27
  -3   8   6  259.55   26.91
  -3  -8   6  223.36   25.24
  -3  -8   6  247.76   26.34
   3   8  -6  288.69   30.20
   3  -8  -6  231.00   25.96
  -2  -8   6  539.46   35.53
   2  -8  -6  528.42   35.20
  -2   8   6  463.82   37.84
   2   8  -6  509.06   36.60
  -2  -8   6  527.90   36.20
   1   8  -6  272.34   30.98
  -1  -8   6  336.09   28.37
  -1   8   6  300.26   30.98
  -1  -8   6  301.24   26.28
   1  -8  -6  314.18   26.78
   0   8   6  407.59   34.45
   0  -8   6  461.15   30.42
   0  -8   6  405.46   31.65
   0  -8  -6  445.77   30.33
   0   8  -6  404.47   34.31
   0  -8  -6  439.24   28.76
   1  -8   6   89.25   17.40
   1   8   6  159.73   24.27
  -1   8  -6  108.19   23.03
  -1  -8  -6  138.31   20.16
  -2  -8  -6  113.30   19.86
  -2   8  -6  124.67   22.91
   2   8   6  115.14   22.11
   2  -8   6  128.37   20.68
  -3   8  -6   16.47   15.61
   3   8   6   30.70   15.44
   3  -8   6   33.13   13.39
  -3  -8  -6   45.25   14.76
   4  -8   6    3.37   11.58
  -4  -8  -6   -1.34    9.94
  -4   8  -6   20.16   15.43
  -3  -9   6   47.96   16.14
   3   9  -6   13.18   16.80
  -3  -9   6   32.77   14.97
   3  -9  -6   16.31   13.32
   2  -9  -6    8.74   11.84
  -2  -9   6    9.56   11.14
  -2   9   6  -13.73   14.73
   2   9  -6    6.25   16.68
  -2  -9   6    8.84   11.15
  -1  -9   6   18.22   11.44
   1   9  -6   27.44   19.63
   1  -9  -6    5.57   11.92
  -1  -9   6   41.20   13.99
  -1   9   6   -5.17   15.64
   0  -9   6   19.01   11.94
   0   9  -6   66.09   21.40
   0   9   6   29.67   17.19
  -1  -9  -6  129.96   20.71
  -1   9  -6  150.82   27.70
   1   9   6  138.23   25.64
   1  -9   6   86.95   18.65
  -2  -9  -6  202.14   24.32
  -2   9  -6  171.62   28.99
   2  -9   6  194.98   26.75
   2   9   6  194.05   29.05
  -3  -9  -6  175.26   25.89
   3   9   6  196.94   29.51
  -3   9  -6  150.22   27.72
   3  -9   6  210.88   28.55
  -1 -10   6  177.74   25.09
   1 -10  -6  163.01   25.59
  -1 -10   6  196.83   27.60
  -1  10   6  153.21   29.33
   1  10  -6  167.93   31.38
   0 -10   6  204.27   28.51
   0  10  -6  202.38   32.80
   0  10   6  196.80   31.75
   1  10   6   98.28   25.93
  -1  10  -6   88.49   26.13
   1 -10   6  100.53   21.52
  -6   0   7  564.15   37.32
  -5   0   7  258.89   24.03
  -4   0   7 1147.40   50.54
  -4   0   7 1229.20   48.02
  -3   0   7  355.58   17.34
  -3   0   7  349.31   23.12
   2   0  -7 1164.39   44.48
  -2   0   7 1158.02   34.19
  -2   0   7 1104.92   44.32
  -1   0   7 1604.98   54.43
   1   0  -7 1551.58   56.24
   0   0  -7  818.15   25.50
   0   0  -7  814.98   36.34
   0   0   7  795.62   31.35
  -1   0  -7  848.95   37.49
  -1   0  -7  875.77   30.91
   1   0   7  816.75   30.97
   2   0   7   26.57    5.38
  -2   0  -7   24.91   10.18
  -2   0  -7   26.46    7.57
  -3   0  -7   44.70   11.68
  -3   0  -7   67.19   11.70
  -4   0  -7   65.09   13.19
  -4   0  -7   86.04   15.30
  -5   0  -7  185.55   21.27
  -6   0  -7  120.06   22.77
  -6  -1   7   19.63   12.11
  -6   1   7    4.87   10.95
  -5   1   7   68.67   14.79
  -5  -1   7   51.41   14.01
  -4  -1   7   -0.55    8.08
  -4  -1   7   12.69    9.58
  -4   1   7    0.96    8.63
  -3  -1   7   56.53   11.39
  -3   1   7   71.60   12.96
  -3  -1   7   60.96    8.43
   3  -1  -7   61.24   12.55
  -3  -1   7   53.35   11.25
  -2   1   7  180.02   15.79
  -2   1   7  171.60    9.04
   2  -1  -7  186.84   17.35
   2   1  -7  172.81   10.80
  -2  -1   7  213.88   16.59
  -2  -1   7  222.64   17.05
   1   1  -7  702.03   32.27
  -1  -1   7  610.82   29.29
   1   1  -7  716.50   22.55
   1  -1  -7  687.38   31.93
  -1   1   7  671.06   29.46
   0  -1  -7 1116.73   33.21
   0   1   7 1073.73   38.42
   0   1  -7 1083.76   34.00
   0  -1  -7 1049.20   42.78
   0  -1   7 1013.55   39.15
   0   1  -7 1073.14   43.65
   1  -1   7 2094.53   66.49
  -1   1  -7 2100.76   64.87
   1   1   7 2089.42   63.57
  -1   1  -7 2066.76   72.10
  -1  -1  -7 2047.50   71.51
  -1  -1  -7 2177.47   65.02
  -2  -1  -7 1648.63   59.92
   2  -1   7 1635.98   53.22
  -2   1  -7 1560.35   59.34
  -2  -1  -7 1606.85   56.05
  -2   1  -7 1624.56   56.23
  -3   1  -7  582.90   31.47
  -3   1  -7  564.88   30.89
  -3  -1  -7  573.59   31.66
  -3  -1  -7  665.09   32.52
  -4  -1  -7  519.60   31.83
  -4   1  -7  542.62   32.59
  -4  -1  -7  497.57   30.60
  -5   1  -7  113.86   19.83
  -5  -1  -7  109.00   18.93
  -5  -1  -7  127.45   19.35
  -6  -1  -7  100.76   20.39
  -6   1  -7   73.38   18.19
   7  -2  -7  204.06   28.74
  -6  -2   7  385.83   30.80
   6  -2  -7  358.58   30.79
  -5  -2   7  835.82   42.89
  -5   2   7  776.61   43.05
  -5  -2   7  775.57   40.97
  -4  -2   7 1162.28   51.04
  -4  -2   7 1238.73   51.33
  -4   2   7 1144.26   51.88
  -3  -2   7  863.76   40.12
   3  -2  -7  859.49   37.27
  -3   2   7  929.76   41.65
  -3  -2   7  909.52   34.82
  -3  -2   7  906.40   40.43
  -2  -2   7 1105.19   45.13
  -2   2   7 1146.51   36.67
  -2   2   7 1142.87   45.30
  -2  -2   7 1078.71   45.00
   2  -2  -7 1078.47   42.97
   2   2  -7 1173.41   38.63
  -1   2   7 1041.71   39.42
  -1  -2   7  920.00   39.69
   1   2  -7 1041.21   35.29
  -1   2   7  967.95   32.36
  -1  -2   7  944.29   39.41
   1  -2  -7 1010.11   40.01
   0   2  -7  312.79   22.21
   0   2   7  377.88   18.97
   0   2   7  309.18   16.10
   0   2  -7  354.04   18.43
   0  -2   7  378.88   20.47
   0  -2  -7  356.35   22.73
  -1   2  -7  243.72   16.08
   1  -2   7  213.25   15.79
  -1  -2  -7  256.05   14.99
   1   2   7  213.59   12.93
  -1  -2  -7  239.53   18.83
  -1   2  -7  246.80   20.40
  -2  -2  -7   71.09   10.96
  -2   2  -7   91.24   15.40
  -2   2  -7   93.29   13.09
  -2  -2  -7   72.87   12.96
   2  -2   7   87.75   11.35
  -3  -2  -7   23.42   10.23
  -3   2  -7   30.95   10.57
   3  -2   7   40.90    8.98
  -3  -2  -7   14.63    8.09
  -4  -2  -7  146.00   17.81
  -4   2  -7  160.47   19.06
  -4  -2  -7  148.42   17.94
  -5  -2  -7  192.91   21.20
  -5   2  -7  168.96   23.81
  -5  -2  -7  184.09   22.46
  -6  -2  -7  158.18   24.36
  -6   2  -7  173.18   26.96
   6  -3  -7   59.99   17.39
  -5  -3   7   65.01   15.89
   5  -3  -7   43.88   13.72
  -5  -3   7   45.99   13.24
  -4  -3   7    8.24   10.06
  -4  -3   7   12.79    9.60
  -4  -3   7   13.53    8.37
  -3   3   7   88.34   14.74
  -3  -3   7   80.00   14.64
  -3  -3   7   98.69   15.64
   2   3  -7  159.42   15.77
  -2   3   7  173.44   14.47
  -2  -3   7  148.38   15.35
  -2  -3   7  145.29   17.46
  -2   3   7  170.48   16.58
   2  -3  -7  199.27   17.21
  -1   3   7  935.91   35.73
  -1  -3   7  959.39   40.73
  -1  -3   7  928.27   40.56
  -1   3   7  953.31   39.31
   1  -3  -7  957.11   39.08
   1   3  -7  988.48   37.83
   0   3  -7 1125.31   45.91
   0   3   7 1074.92   40.62
   0   3  -7 1160.15   42.73
   0  -3  -7 1054.75   43.40
   0   3   7 1100.85   39.55
   0  -3   7 1065.30   43.61
  -1   3  -7 1630.11   61.68
  -1  -3  -7 1653.86   57.35
  -1  -3  -7 1863.93   55.90
  -1  -3  -7 1683.46   62.32
   1  -3   7 1647.45   59.95
  -1   3  -7 1703.93   59.47
  -2  -3  -7 1036.54   46.47
  -2   3  -7 1134.79   45.39
  -2   3  -7 1053.44   46.43
   2  -3   7 1082.88   43.53
  -2  -3  -7 1028.87   42.66
  -3   3  -7  432.01   28.13
   3  -3   7  474.10   26.55
  -3  -3  -7  463.45   28.22
  -3   3  -7  422.63   28.76
  -3  -3  -7  444.04   29.23
  -4  -3  -7  401.71   28.90
  -4  -3  -7  429.06   29.75
  -4   3  -7  403.77   29.45
  -5   3  -7  180.61   25.14
  -5  -3  -7  142.77   21.95
  -5  -3  -7  155.19   22.51
  -6   3  -7  166.92   28.13
  -6  -3  -7  118.40   22.69
  -6  -3  -7  135.38   23.07
   6  -4  -7  304.15   29.86
  -6  -4   7  307.74   28.66
   5  -4  -7  382.80   30.60
  -5  -4   7  388.64   29.83
  -5  -4   7  350.88   28.53
  -4  -4   7  494.39   32.38
   4  -4  -7  462.91   32.00
  -4  -4   7  490.17   31.54
  -3  -4   7  799.65   40.29
   3  -4  -7  821.42   41.69
   3   4  -7  793.51   36.92
  -3  -4   7  796.22   40.82
  -2  -4   7  601.64   34.18
  -2  -4   7  663.42   35.38
  -2   4   7  723.22   32.35
   2   4  -7  739.00   33.67
   2  -4  -7  769.46   31.81
   2  -4  -7  666.50   36.14
  -1  -4   7  542.81   29.82
   1   4  -7  552.56   30.21
  -1  -4   7  551.21   30.86
  -1   4   7  553.60   28.87
   1  -4  -7  572.72   28.19
   1  -4  -7  524.45   29.52
   0   4  -7  185.47   19.83
   0  -4   7  196.03   18.14
   0  -4   7  203.86   17.97
   0  -4  -7  186.93   16.95
   0   4   7  202.85   17.99
  -1   4  -7  193.42   18.98
  -1  -4  -7  192.62   15.15
   1  -4   7  182.56   17.59
  -1  -4  -7  189.46   18.17
  -1   4  -7  238.55   22.81
  -2  -4  -7   11.36    8.43
  -2   4  -7    3.22    9.79
   2  -4   7    3.43    7.70
  -2   4  -7   -3.18    4.30
  -2  -4  -7   -1.62    7.20
  -3  -4  -7   72.07   13.84
   3  -4   7   61.00   12.30
  -3  -4  -7   42.32   12.39
  -3   4  -7   54.56   14.17
  -4  -4  -7   23.37   10.60
  -4  -4  -7   10.99   10.76
  -4   4  -7   16.47   10.98
  -5  -4  -7   58.16   15.85
  -5   4  -7   95.42   20.09
  -5  -4  -7   85.14   18.25
  -6  -4  -7  175.11   26.47
  -6  -4  -7  156.24   25.80
  -6   4  -7  141.05   25.88
  -6  -5   7   15.38   14.55
   6  -5  -7   37.36   15.84
  -5  -5   7   10.84   11.23
  -5  -5   7   11.22   11.26
   5  -5  -7   -0.03   11.23
   4   5  -7   11.95   11.07
   4  -5  -7    9.50   10.05
  -4  -5   7    8.52   10.42
  -4  -5   7    2.14    8.28
  -3  -5   7   12.16    9.28
  -3  -5   7   25.55   10.82
   3   5  -7    3.32   10.34
   3  -5  -7   38.73   12.45
   2   5  -7   98.94   16.90
  -2   5   7   89.83   16.28
  -2  -5   7  111.48   17.37
  -2  -5   7   88.71   15.42
   2  -5  -7  109.48   17.07
   1   5  -7  337.56   26.91
  -1  -5   7  337.92   24.61
  -1   5   7  325.20   26.13
   1  -5  -7  392.90   23.67
  -1  -5   7  327.74   24.61
   1  -5  -7  362.40   25.28
   0   5  -7  817.72   40.93
   0  -5   7  770.07   39.00
   0  -5  -7  823.32   37.80
   0  -5  -7  806.51   36.75
   0  -5   7  801.17   38.89
  -1   5  -7  926.64   44.89
  -1   5  -7  983.25   44.51
   1   5   7  961.49   43.43
  -1  -5  -7  901.65   42.89
   1  -5   7  922.11   43.44
  -2   5  -7  473.37   30.48
  -2  -5  -7  431.32   28.16
  -2  -5  -7  476.82   30.56
   2  -5   7  504.57   30.42
  -2   5  -7  454.98   31.60
   3  -5   7  841.94   41.49
  -3  -5  -7  792.08   42.38
  -3  -5  -7  778.49   42.66
  -3   5  -7  796.50   43.68
  -4   5  -7  207.87   25.37
  -4  -5  -7  191.24   22.88
   4  -5   7  217.92   22.23
  -4  -5  -7  287.50   26.14
  -5   5  -7  174.22   26.36
  -5  -5  -7  148.23   23.42
  -5  -5  -7  162.11   24.30
   5  -6  -7  252.14   27.11
  -5  -6   7  297.73   28.70
   4  -6  -7  401.13   32.20
   4   6  -7  372.52   29.54
  -4  -6   7  397.92   31.35
  -4  -6   7  392.70   30.90
   3   6  -7  476.85   32.04
  -3  -6   7  531.65   33.76
   3  -6  -7  413.85   31.23
  -3  -6   7  475.87   32.26
   2  -6  -7  316.95   26.05
  -2  -6   7  330.89   26.29
   2   6  -7  312.34   26.76
  -2  -6   7  378.21   27.11
   1  -6  -7  439.44   28.77
  -1  -6   7  397.66   28.06
   1  -6  -7  389.94   24.60
  -1  -6   7  376.34   28.10
  -1   6   7  393.73   29.67
   1   6  -7  417.45   31.26
   0   6  -7  176.93   23.56
   0  -6   7  214.41   20.37
   0   6   7  260.25   24.65
   0  -6  -7  244.10   20.70
   0  -6  -7  188.27   18.81
   0  -6   7  219.20   20.38
  -1  -6  -7   60.60   13.37
   1   6   7   76.87   16.57
   1  -6   7   68.19   13.92
  -1   6  -7   76.92   17.65
   2  -6   7    5.58    8.84
  -2   6  -7   13.19   11.96
   2   6   7    2.41   11.21
  -2  -6  -7   -8.99    7.34
  -3  -6  -7   27.65   13.53
  -3  -6  -7   47.42   13.65
   3  -6   7   16.55   10.79
  -3   6  -7   23.98   13.41
  -4  -6  -7   72.75   17.25
  -4   6  -7  103.71   20.90
   4  -6   7  131.48   20.86
  -4  -6  -7   50.65   14.98
  -5   6  -7  127.76   24.66
  -5  -6  -7  141.68   24.04
  -5  -6  -7  124.78   23.66
   5  -7  -7    6.05   12.96
  -5  -7   7    3.24   11.47
   4   7  -7   30.41   15.78
  -4  -7   7    9.80   11.54
   4  -7  -7   17.81   12.94
  -4  -7   7   18.13   11.86
  -3  -7   7   10.92   10.90
  -3  -7   7   11.91    9.98
   3   7  -7  -19.33   11.32
   3  -7  -7    4.95   10.31
  -2   7   7  135.52   21.83
   2  -7  -7  137.61   21.35
  -2  -7   7  159.00   21.64
  -2  -7   7  132.36   20.17
   2   7  -7  156.52   23.01
   1   7  -7  114.23   21.44
   1  -7  -7  115.85   18.54
  -1   7   7  120.81   21.21
  -1  -7   7  129.72   20.07
  -1  -7   7   98.44   16.99
   0  -7   7  447.31   30.28
   0  -7  -7  476.81   29.77
   0   7  -7  431.57   33.10
   0  -7   7  419.96   30.45
   0   7   7  467.23   33.45
   0  -7  -7  459.02   28.96
   1  -7   7  552.78   35.60
   1  -7   7  567.51   33.80
   1   7   7  594.07   37.75
  -1   7  -7  597.85   39.48
  -1  -7  -7  565.78   34.93
  -2  -7  -7  718.81   42.29
  -2   7  -7  815.73   46.92
   2  -7   7  770.99   43.44
   2   7   7  777.61   44.17
   3   7   7  325.65   29.55
  -3   7  -7  278.08   30.06
   3  -7   7  382.01   30.72
  -3  -7  -7  375.59   30.95
  -4   7  -7  163.37   26.09
  -4  -7  -7  166.72   26.23
  -4  -7  -7  110.72   21.21
   4  -7   7  143.00   22.86
  -4  -8   7  177.07   25.98
   4   8  -7  141.81   24.99
  -4  -8   7  134.86   23.43
   4  -8  -7  120.66   23.03
  -3  -8   7  254.98   27.60
   3  -8  -7  210.48   26.10
   3   8  -7  263.88   28.94
  -3  -8   7  283.27   27.94
   2  -8  -7  186.07   24.93
   2   8  -7  186.00   26.79
  -2  -8   7  166.44   23.56
  -2  -8   7  156.51   23.52
   1  -8  -7  244.56   24.39
  -1  -8   7  209.77   23.19
   1   8  -7  263.40   30.19
  -1   8   7  249.08   28.97
  -1  -8   7  234.83   23.44
   0   8   7  145.19   23.77
   0   8  -7  142.28   25.66
   0  -8  -7  172.96   19.88
   0  -8   7  178.78   24.16
   0  -8   7  167.71   22.48
   1   8   7   -7.27   13.65
  -1   8  -7    5.59   14.96
  -1  -8  -7    4.33    9.22
   1  -8   7    7.18    9.78
   2  -8   7   24.70   11.80
   2   8   7   30.64   15.41
  -2   8  -7   25.99   16.63
  -2  -8  -7   12.86   10.85
  -3   8  -7   -5.15   14.57
  -3  -8  -7    7.90   11.75
   3  -8   7   23.54   13.44
   3   8   7   12.44   14.39
   4   8   7   55.32   18.39
  -4   8  -7   42.76   19.97
   3   9  -7   25.16   18.32
   3  -9  -7   54.64   16.24
  -3  -9   7   44.99   16.42
  -3  -9   7   28.60   14.56
   2   9  -7   80.62   22.53
  -2  -9   7   54.93   17.11
  -2  -9   7   34.55   14.02
   2  -9  -7   56.58   16.64
  -1  -9   7  136.11   21.69
  -1  -9   7  130.12   22.09
   1   9  -7   96.32   24.29
   1  -9  -7  127.95   21.80
  -1   9   7  187.72   28.80
   0   9  -7  110.74   24.83
   0   9   7  117.01   24.25
   0  -9   7  135.32   22.45
   1   9   7  262.90   31.77
  -1   9  -7  197.60   29.81
   1  -9   7  232.43   26.75
  -1  -9  -7  209.53   22.98
   2  -9   7  233.04   26.45
  -2   9  -7  269.92   34.62
   2   9   7  232.52   31.63
  -2  -9  -7  262.33   27.55
   1  10  -7   83.26   26.15
  -1 -10   7   65.36   19.31
  -1 -10   7   67.60   18.20
   0  10  -7   50.91   22.53
   0 -10   7   34.47   15.93
   0  10   7   36.02   23.27
  -6   0   8  443.17   34.29
  -5   0   8  196.84   21.81
   4   0  -8  520.42   30.34
  -4   0   8  424.65   29.03
   3   0  -8   20.80   11.72
  -3   0   8   27.47    9.71
   2   0  -8  363.86   24.24
  -2   0   8  358.53   22.50
   1   0  -8  -11.43    8.07
  -1   0   8    1.06    4.66
   0   0  -8  197.57    9.46
   0   0  -8  196.26   19.27
   0   0   8  189.39   14.12
   1   0   8    2.12    4.31
  -1   0  -8    4.32    9.11
  -1   0  -8   -3.18    3.62
  -2   0  -8  145.30   13.90
  -2   0  -8  161.94   18.34
   2   0   8  180.68   12.21
  -3   0  -8  319.69   22.69
  -3   0  -8  321.57   24.19
  -4   0  -8  710.59   38.01
  -4   0  -8  718.44   38.34
  -5   0  -8  490.80   34.76
  -6   0  -8  131.37   23.52
  -6  -1   8   69.75   17.88
  -6   1   8   73.49   18.07
  -5  -1   8  245.18   23.88
  -5   1   8  212.06   22.46
  -4  -1   8  611.62   35.52
  -4  -1   8  662.68   35.22
  -4   1   8  650.32   36.41
  -3  -1   8  494.39   29.20
  -3   1   8  529.20   29.99
   3  -1  -8  532.74   29.24
  -3  -1   8  485.57   29.11
   2  -1  -8  673.05   33.39
  -2   1   8  727.75   33.94
  -2  -1   8  666.80   32.78
   2   1  -8  756.39   36.02
   1  -1  -8 1391.91   53.97
   1   1  -8 1389.02   54.18
  -1   1   8 1469.83   51.86
  -1  -1   8 1400.71   52.07
   0   1  -8 1207.46   37.61
   0  -1  -8 1232.62   36.90
   0   1  -8 1217.06   49.23
   0  -1   8 1183.72   44.87
   0  -1  -8 1136.10   47.86
   0   1   8 1235.21   43.52
   1  -1   8 1708.92   58.55
  -1   1  -8 1761.78   56.44
   1   1   8 1712.03   55.94
  -1   1  -8 1878.30   66.64
  -1  -1  -8 1805.36   65.43
  -1  -1  -8 1716.74   55.91
  -2   1  -8 1321.41   48.69
  -2   1  -8 1273.24   53.33
   2  -1   8 1265.11   45.44
  -2  -1  -8 1354.87   48.59
  -2  -1  -8 1334.37   53.55
  -3   1  -8  590.11   33.98
  -3   1  -8  623.70   32.72
  -3  -1  -8  691.07   33.78
  -3  -1  -8  567.34   33.96
  -4   1  -8  225.58   22.12
  -4  -1  -8  203.29   20.91
  -4  -1  -8  207.76   21.50
  -4   1  -8  235.28   21.73
  -5  -1  -8  107.96   19.86
  -5  -1  -8  107.78   18.98
  -5   1  -8  130.01   21.23
  -6   1  -8    1.72   12.16
  -6  -1  -8   10.79   12.96
  -6  -2   8  239.30   25.97
  -5  -2   8  564.71   36.18
  -5  -2   8  561.86   35.17
  -5   2   8  578.43   37.61
  -4  -2   8  410.15   29.06
  -4  -2   8  439.75   29.56
  -4   2   8  483.68   31.10
   3  -2  -8  538.46   29.66
  -3  -2   8  534.02   30.69
  -3  -2   8  548.47   31.31
  -3   2   8  548.05   31.81
  -2  -2   8  283.00   20.97
   2  -2  -8  262.98   21.32
  -2  -2   8  239.94   20.54
  -2   2   8  284.94   20.73
   1   2  -8  179.39   13.63
  -1   2   8  148.44   14.22
   1  -2  -8  169.36   18.25
  -1  -2   8  156.82   15.35
   1   2  -8  158.67   19.45
   0   2  -8    7.80    5.99
   0  -2   8   28.06    7.81
   0   2   8   19.72    7.02
   0   2  -8   28.19   12.35
   0  -2  -8   15.76    9.17
   0   2   8   27.45    6.59
  -1  -2  -8  121.71   11.49
   1  -2   8  112.33   12.51
  -1   2  -8  135.22   18.90
  -1   2  -8  123.49   12.43
   1   2   8  122.30   10.79
  -1  -2  -8  138.15   17.67
   2  -2   8  426.23   22.88
  -2  -2  -8  409.70   23.14
  -2   2  -8  412.77   23.86
  -2  -2  -8  333.69   25.65
  -2   2  -8  381.24   26.94
  -3  -2  -8  280.00   23.70
  -3   2  -8  310.35   24.88
  -3  -2  -8  263.67   21.52
  -3   2  -8  301.01   23.34
  -4   2  -8  519.41   33.71
  -4  -2  -8  549.57   32.93
  -4  -2  -8  476.08   32.07
  -5  -2  -8  290.90   26.35
  -5   2  -8  291.62   27.79
  -5  -2  -8  328.25   28.52
  -6   2  -8  207.36   29.22
  -6  -2  -8  249.81   27.75
   6  -3  -8  113.12   21.11
  -6  -3   8  120.64   21.70
   5  -3  -8  112.77   20.00
  -5  -3   8  106.58   19.29
  -5  -3   8  118.07   19.36
  -4   3   8  294.56   26.08
  -4  -3   8  322.98   26.16
  -4  -3   8  295.98   24.92
  -3  -3   8  468.17   30.09
  -3  -3   8  554.03   32.18
  -3   3   8  530.55   32.00
  -2  -3   8  748.20   36.81
   2  -3  -8  700.98   33.27
  -2   3   8  705.58   35.46
   2   3  -8  643.88   30.30
  -2  -3   8  780.87   37.45
   1   3  -8 1601.82   54.56
  -1  -3   8 1556.87   59.37
  -1  -3   8 1521.05   58.73
   1  -3  -8 1573.23   57.85
  -1   3   8 1537.24   57.24
   0   3   8 1519.26   53.64
   0   3  -8 1573.22   53.59
   0  -3  -8 1433.13   56.57
   0   3   8 1579.38   51.28
   0   3  -8 1516.82   58.98
   0  -3   8 1451.15   56.04
  -1   3  -8 1515.93   59.94
  -1  -3  -8 1725.13   53.18
  -1  -3  -8 1526.77   53.64
  -1   3  -8 1547.87   55.59
   1  -3   8 1457.11   56.59
  -1  -3  -8 1490.73   59.72
   2  -3   8  774.90   34.99
  -2  -3  -8  712.85   33.95
  -2  -3  -8  751.30   39.08
  -2   3  -8  792.00   40.36
  -2   3  -8  719.51   35.64
   3  -3   8  297.45   21.44
  -3   3  -8  292.41   23.27
  -3  -3  -8  285.52   21.72
  -3  -3  -8  211.19   21.80
  -4   3  -8  136.89   20.53
  -4  -3  -8  160.39   19.48
  -4  -3  -8  149.98   21.21
  -5  -3  -8   15.99   11.54
  -5  -3  -8    7.60   10.70
  -5   3  -8    0.52   10.98
  -6   3  -8   87.98   22.34
  -6  -3  -8   43.01   16.42
  -6  -3  -8   52.30   16.79
  -6  -4   8  177.10   26.47
   6  -4  -8  196.35   28.02
  -5  -4   8  223.79   24.12
   5  -4  -8  208.87   24.13
  -5  -4   8  227.76   25.25
  -4  -4   8   73.82   16.21
   4  -4  -8   48.17   14.18
  -4  -4   8   67.44   14.96
   3  -4  -8  260.20   23.52
  -3  -4   8  242.08   22.73
  -3  -4   8  227.51   21.63
  -2  -4   8  525.98   31.48
   2  -4  -8  501.39   30.78
   2  -4  -8  551.06   27.82
  -2  -4   8  452.83   29.85
   2   4  -8  524.95   29.10
   1   4  -8  218.37   20.49
   1  -4  -8  224.71   19.16
  -1  -4   8  238.84   22.10
   1  -4  -8  207.71   19.72
  -1  -4   8  216.76   19.60
   0   4  -8   47.25   13.21
   0   4  -8   40.36   13.58
   0  -4  -8   32.08   10.92
   0  -4   8   35.35   10.03
   0   4   8   51.71   12.42
   1  -4   8  111.63   15.79
   1   4   8   85.46   13.57
  -1   4  -8  104.20   18.52
  -1  -4  -8   93.33   15.16
  -1   4  -8   77.25   14.80
   2  -4   8  285.16   22.23
  -2   4  -8  297.84   24.13
  -2  -4  -8  258.95   21.27
  -2   4  -8  305.61   28.29
  -2  -4  -8  277.37   24.04
  -3   4  -8  456.53   31.04
  -3  -4  -8  516.39   31.21
  -3  -4  -8  452.76   31.61
   3  -4   8  514.64   30.18
  -4   4  -8  255.49   24.96
  -4  -4  -8  254.14   25.51
  -4  -4  -8  210.61   22.81
  -5   4  -8  202.74   27.97
  -5  -4  -8  189.87   23.00
  -5  -4  -8  146.34   23.01
  -6  -5   8   30.08   15.70
   6  -5  -8   46.61   16.90
   5  -5  -8  108.93   20.55
  -5  -5   8  160.75   23.50
  -5  -5   8  198.40   26.59
  -4  -5   8  182.53   24.73
  -4  -5   8  197.69   21.62
   4  -5  -8  201.65   23.36
  -3  -5   8  780.98   41.90
   3  -5  -8  798.01   43.40
  -3  -5   8  766.33   42.27
  -2  -5   8  513.78   32.43
   2  -5  -8  489.37   32.69
   2   5  -8  515.09   31.62
  -2  -5   8  597.22   34.19
   1  -5  -8  377.16   26.61
  -1  -5   8  379.00   27.83
   1  -5  -8  404.39   25.17
  -1  -5   8  334.93   25.50
   1   5  -8  350.18   27.73
   0  -5   8  988.43   46.69
   0  -5  -8 1032.14   45.51
   0   5   8 1024.56   44.62
   0   5  -8  990.81   46.85
   0  -5   8 1047.46   46.38
  -1   5  -8  576.20   35.77
  -1  -5  -8  607.50   34.84
  -1   5  -8  610.19   35.35
   1   5   8  631.41   34.17
   1  -5   8  599.51   33.97
  -2  -5  -8  369.01   25.72
   2  -5   8  366.82   26.11
  -2  -5  -8  390.09   28.26
  -2   5  -8  326.97   26.39
  -3   5  -8  419.92   31.73
   3  -5   8  448.47   30.00
  -3  -5  -8  481.94   32.09
  -3  -5  -8  399.05   30.59
  -4  -5  -8  141.47   21.48
  -4  -5  -8   90.32   17.80
  -4   5  -8   91.50   19.43
  -5   5  -8   43.32   17.55
  -5  -5  -8   17.35   12.83
  -5  -5  -8   30.34   14.07
   5  -6  -8  182.26   26.62
  -5  -6   8  251.22   26.81
  -5  -6   8  193.31   27.91
  -4  -6   8  210.48   25.00
   4  -6  -8  168.40   24.92
  -4  -6   8  203.96   22.98
  -3  -6   8   57.91   15.88
  -3  -6   8   25.20   12.01
   3  -6  -8   28.12   12.57
   2   6  -8  184.00   22.37
  -2  -6   8  168.56   20.01
   2  -6  -8  208.85   22.63
  -2  -6   8  232.19   22.42
   1   6  -8   -5.27   12.41
  -1  -6   8   -0.71    8.35
   1  -6  -8    1.48    7.69
  -1  -6   8   -2.09    7.06
   1  -6  -8    3.98    9.83
   0   6   8   22.04   12.08
   0  -6   8   13.67    8.97
   0  -6   8    0.67    9.16
   0  -6  -8   15.49    9.73
   0  -6  -8   12.48    8.85
   0   6  -8   12.03   13.20
   1   6   8   23.44   12.80
  -1  -6  -8   34.61   11.53
  -1   6  -8   20.45   13.92
   1  -6   8   10.76    9.25
  -1   6  -8   30.31   13.08
   2   6   8  123.63   19.48
  -2  -6  -8  104.45   18.23
   2  -6   8  131.52   19.14
  -2   6  -8  131.19   21.09
  -3   6  -8  196.69   23.98
   3  -6   8  285.21   25.45
  -3  -6  -8  238.68   24.44
  -3  -6  -8  225.05   24.71
  -4  -6  -8  172.14   25.07
  -4   6  -8  185.17   26.30
  -4  -6  -8  134.10   22.68
  -5  -6  -8  226.06   30.72
  -5   6  -8  255.08   33.21
  -5  -6  -8  227.98   27.58
   5  -7  -8  131.64   23.96
  -5  -7   8  121.10   23.45
  -4  -7   8  189.47   26.07
   4  -7  -8  181.43   25.95
  -4  -7   8  203.85   24.80
  -3  -7   8  322.57   29.07
  -3  -7   8  348.23   29.63
   3  -7  -8  305.15   28.35
   2   7  -8  432.77   33.00
  -2  -7   8  365.74   29.65
  -2  -7   8  439.19   32.22
   2  -7  -8  380.69   30.37
   1   7  -8  364.36   31.80
   1  -7  -8  349.27   27.21
  -1  -7   8  326.58   28.37
  -1  -7   8  303.92   26.13
   0  -7   8  438.37   31.27
   0  -7   8  425.62   29.99
   0   7   8  390.53   31.75
   0  -7  -8  420.54   28.65
   0   7  -8  423.53   34.07
  -1   7  -8  290.03   27.03
  -1   7  -8  314.64   28.56
  -1  -7  -8  242.76   23.25
   1  -7   8  235.94   24.64
   1   7   8  291.36   27.92
  -2   7  -8  413.33   34.37
  -2  -7  -8  388.81   31.65
   2  -7   8  407.16   31.61
   2   7   8  458.59   33.64
   3  -7   8  214.66   23.82
   3   7   8  241.29   27.13
  -3  -7  -8  241.03   25.71
  -3   7  -8  266.05   28.04
   4  -7   8   81.43   19.07
  -4  -7  -8   84.42   20.12
  -4   7  -8   56.10   19.33
  -4  -8   8   34.02   15.52
   4  -8  -8   49.92   17.77
  -4  -8   8   39.64   16.35
  -3  -8   8   76.36   19.10
   3  -8  -8   78.64   19.79
  -3  -8   8   79.97   19.04
  -2  -8   8   10.08   11.30
   2   8  -8   -2.84   15.29
  -2  -8   8   31.19   14.05
   2  -8  -8   20.12   13.27
  -1  -8   8  124.14   21.07
   1  -8  -8  112.10   19.96
  -1  -8   8  111.79   19.71
   1   8  -8   98.27   22.93
   0  -8  -8   18.46   11.08
   0   8  -8   54.37   18.53
   0  -8   8   17.36   11.23
   0   8   8   23.68   15.49
   0  -8   8   24.36   13.85
  -1  -8  -8   15.22   10.32
   1  -8   8   27.67   13.01
  -1   8  -8   31.03   16.87
   1   8   8    3.35   14.76
  -2   8  -8   72.49   19.44
  -2  -8  -8   55.52   15.84
   2  -8   8   64.17   16.48
   2   8   8   84.30   20.26
   3  -8   8  131.93   22.72
  -3   8  -8  132.83   24.98
  -3  -8  -8  107.52   21.40
   3   8   8  108.55   22.87
  -2  -9   8  267.46   29.10
   2  -9  -8  288.47   29.83
   2   9  -8  218.24   32.50
  -2  -9   8  199.77   27.56
  -1  -9   8  236.18   27.96
   1   9  -8  226.18   32.75
  -1  -9   8  246.05   25.97
   1  -9  -8  248.66   26.19
   0  -9   8  172.17   25.88
   0   9  -8  189.92   30.02
  -1   9  -8  187.55   29.18
   1  -9   8  168.23   25.67
   1   9   8  171.98   28.62
  -1  -9  -8  176.17   25.25
  -2  -9  -8  166.59   25.77
   2  -9   8  154.53   25.07
   2   9   8  166.68   28.40
  -2   9  -8  174.31   29.50
  -6   0   9   89.30   19.76
  -5   0   9   77.91   16.72
  -4   0   9    7.04    8.84
   4   0  -9   18.89   12.20
   3   0  -9   71.05   16.02
  -3   0   9  105.63   16.05
  -2   0   9    0.12    6.48
   2   0  -9    4.31   10.34
   1   0  -9  465.45   29.75
  -1   0   9  406.03   23.97
   0   0   9    9.42    5.83
   0   0  -9   31.98   12.70
  -1   0  -9 1266.96   41.64
  -1   0  -9 1126.95   50.71
   1   0   9 1202.55   43.53
  -2   0  -9  433.80   23.27
  -2   0  -9  398.87   28.44
  -3   0  -9  447.16   30.29
  -3   0  -9  443.44   27.02
  -4   0  -9  725.20   39.33
  -4   0  -9  721.31   40.17
  -5   0  -9  490.78   35.41
  -6   0  -9  211.95   29.42
  -6  -1   9  226.76   25.43
  -6   1   9  177.80   25.49
  -5   1   9  478.48   34.26
  -5  -1   9  445.40   32.16
  -4  -1   9  849.91   44.42
  -4  -1   9  892.05   42.88
  -4   1   9  874.07   44.45
   3   1  -9 1041.91   46.95
   3  -1  -9  987.21   44.84
  -3   1   9 1037.14   46.67
  -3  -1   9  978.61   45.57
  -2  -1   9 1025.64   45.63
  -2   1   9 1137.38   46.68
   2   1  -9 1146.80   48.57
   2  -1  -9 1129.68   48.16
  -1  -1   9  910.11   39.19
  -1   1   9  905.86   38.61
   1   1  -9  927.91   42.62
   1  -1  -9  884.77   41.79
   0  -1  -9  430.31   28.25
   0  -1   9  429.79   24.04
   0   1  -9  433.40   28.82
   0   1   9  436.78   22.92
  -1   1  -9  527.84   32.18
  -1  -1  -9  462.20   30.65
   1   1   9  490.08   23.18
  -1  -1  -9  491.28   22.25
   1  -1   9  507.28   25.09
  -1   1  -9  528.55   23.35
  -2  -1  -9  381.70   28.29
  -2   1  -9  382.69   27.90
  -2  -1  -9  378.70   21.81
  -2   1  -9  328.21   21.45
   2  -1   9  352.61   20.29
  -3  -1  -9   96.52   14.79
  -3  -1  -9   95.97   17.79
  -3   1  -9   73.29   13.71
  -3   1  -9   69.66   16.18
  -4   1  -9   -0.32   10.12
  -4  -1  -9   18.14   10.49
  -4  -1  -9   -3.26    8.91
  -4   1  -9    1.40    8.66
  -5  -1  -9   19.77   10.86
  -5  -1  -9    3.79   11.26
  -5   1  -9    6.46   11.17
  -6  -1  -9   35.68   15.84
  -6   1  -9   35.34   15.46
  -6  -2   9  110.31   20.58
  -6   2   9  146.26   23.62
  -5  -2   9   93.35   18.74
  -5  -2   9   86.93   17.52
  -5   2   9   79.00   17.33
  -4   2   9   11.49   10.29
  -4  -2   9   -3.38    9.15
  -4  -2   9   16.06    9.83
  -3  -2   9    2.31   10.26
  -3   2   9    9.36    8.64
  -3  -2   9   24.22   10.06
   3  -2  -9   28.99   13.22
  -2   2   9  271.17   21.16
   2  -2  -9  276.08   23.54
  -2  -2   9  280.68   21.49
   1  -2  -9  509.24   29.60
   1   2  -9  464.53   30.07
  -1  -2   9  502.76   28.00
  -1   2   9  488.02   26.83
   0  -2  -9  603.56   33.61
   0   2   9  648.92   29.38
   0   2  -9  674.22   35.94
   0  -2   9  620.76   31.19
  -1   2  -9  854.30   33.38
  -1  -2  -9  750.71   38.98
   1   2   9  783.42   31.46
  -1   2  -9  804.67   42.43
   1  -2   9  795.86   35.44
  -1  -2  -9  781.72   31.47
  -2  -2  -9  791.44   34.30
  -2   2  -9  723.72   34.33
  -2   2  -9  755.38   40.70
   2  -2   9  759.98   33.85
  -2  -2  -9  732.25   39.42
  -3  -2  -9  563.19   31.56
  -3  -2  -9  595.56   35.73
  -3   2  -9  571.96   34.73
  -3   2  -9  554.66   32.15
  -4  -2  -9  415.33   29.75
  -4  -2  -9  430.72   31.03
  -4   2  -9  393.51   30.47
  -5  -2  -9  263.43   27.12
  -5   2  -9  232.11   26.85
  -5  -2  -9  264.17   26.91
  -6  -2  -9  273.57   29.88
  -6   2  -9  313.73   33.19
   6  -3  -9  296.26   29.67
  -6  -3   9  319.67   30.63
  -5  -3   9  338.45   29.55
  -5  -3   9  343.00   29.84
  -4  -3   9  636.82   38.20
  -4   3   9  646.90   39.54
  -4  -3   9  706.39   40.02
  -3   3   9  409.83   28.40
  -3  -3   9  370.27   28.72
  -3  -3   9  359.20   27.17
   2  -3  -9  572.50   30.97
  -2  -3   9  537.54   31.84
  -2   3   9  529.85   31.48
  -2  -3   9  570.19   33.38
   1  -3  -9  576.93   32.10
  -1  -3   9  578.28   31.32
   1   3  -9  544.52   33.40
  -1   3   9  567.97   30.23
   0   3   9  739.42   33.37
   0   3  -9  777.53   33.00
   0  -3   9  734.78   35.77
   0   3  -9  755.54   40.82
   0  -3  -9  701.56   36.75
   1  -3   9  915.56   40.76
  -1  -3  -9  817.44   42.20
  -1  -3  -9  931.02   37.01
  -1   3  -9  960.55   39.21
  -1   3  -9  919.74   45.92
   2  -3   9  176.03   17.20
  -2  -3  -9  179.11   20.18
  -2  -3  -9  216.39   18.38
  -2   3  -9  192.16   19.06
  -2   3  -9  218.07   23.79
  -3   3  -9  116.02   17.67
  -3  -3  -9  106.36   18.33
  -3  -3  -9  135.98   17.96
  -3   3  -9  153.67   20.95
  -4  -3  -9   -7.30    8.57
  -4  -3  -9    6.09    9.75
  -4   3  -9    2.82    9.01
  -5  -3  -9  157.49   23.86
  -5  -3  -9  129.19   22.06
  -5   3  -9  146.54   24.77
   6  -4  -9   97.01   22.04
  -6  -4   9   77.03   20.52
   5  -4  -9   19.44   12.37
  -5  -4   9   24.11   13.22
  -5  -4   9   43.37   14.51
  -4  -4   9   12.28   10.55
  -4  -4   9   13.63   10.79
   4  -4  -9   20.30   12.31
  -3  -4   9   46.20   12.01
   3  -4  -9   39.56   13.23
  -3  -4   9   68.08   15.20
  -2  -4   9   39.57   13.18
   2  -4  -9   36.74   12.73
  -2  -4   9   21.79    9.88
   2  -4  -9   34.34   11.19
  -1  -4   9   23.21    9.21
  -1  -4   9   17.14   11.04
   1  -4  -9   11.78    9.42
   1  -4  -9   12.68   10.30
   0  -4  -9  219.23   21.67
   0  -4   9  238.38   20.46
   0   4  -9  230.14   24.23
   0   4  -9  245.79   21.92
  -1   4  -9  284.31   24.00
   1   4   9  287.29   22.61
  -1   4  -9  328.61   28.60
  -1  -4  -9  282.47   24.47
   1  -4   9  307.95   23.34
  -2  -4  -9  615.98   36.71
  -2   4  -9  588.59   37.69
  -2  -4  -9  651.94   33.53
  -2   4  -9  638.78   34.78
   2  -4   9  555.83   32.39
  -3  -4  -9  865.01   46.40
  -3  -4  -9  878.54   43.40
   3  -4   9  920.11   43.07
  -3   4  -9  848.40   43.89
  -4   4  -9  559.44   38.04
  -4  -4  -9  606.50   39.76
  -4  -4  -9  553.15   35.91
  -5  -4  -9  268.47   28.44
  -5   4  -9  279.73   29.67
  -5  -4  -9  373.43   31.75
   5  -5  -9  221.50   26.05
  -5  -5   9  238.53   26.47
  -5  -5   9  231.41   27.38
  -4  -5   9  421.77   31.91
  -4  -5   9  352.88   30.15
   4  -5  -9  348.75   30.25
   3  -5  -9  392.06   30.34
  -3  -5   9  380.73   29.43
  -3  -5   9  389.66   29.90
  -2  -5   9  565.09   34.99
   2  -5  -9  592.88   36.06
  -2  -5   9  608.42   36.38
  -1  -5   9  357.14   26.56
  -1  -5   9  341.17   27.70
   1  -5  -9  392.41   27.50
   1  -5  -9  406.07   26.26
   0   5  -9  507.28   33.34
   0  -5  -9  496.49   30.69
   0  -5   9  527.67   32.43
   0   5  -9  525.60   31.94
   1  -5   9  439.12   29.17
  -1   5  -9  427.03   29.81
  -1   5  -9  410.32   31.55
   1   5   9  378.83   25.67
  -1  -5  -9  431.00   29.29
  -2   5  -9  162.86   23.19
  -2  -5  -9  199.95   22.18
   2  -5   9  179.41   19.99
  -2   5  -9  217.98   22.54
  -2  -5  -9  203.93   20.51
   3  -5   9   22.63   10.44
  -3  -5  -9   12.70   10.70
  -3   5  -9   32.98   14.56
  -3  -5  -9   20.76   11.95
  -4  -5  -9    4.94   10.72
  -4   5  -9  -13.03   11.12
  -4  -5  -9   -1.08    8.93
  -5   5  -9   -4.34   11.90
  -5  -5  -9   29.92   15.16
  -5  -5  -9   21.93   13.50
  -5  -6   9   80.57   18.79
  -5  -6   9   41.70   16.91
   5  -6  -9   38.95   16.12
  -4  -6   9   57.88   16.46
   4  -6  -9   44.87   15.75
  -4  -6   9   34.47   14.78
   3  -6  -9   40.95   14.43
  -3  -6   9   11.44   10.87
  -3  -6   9   25.04   12.12
  -2  -6   9  196.92   22.75
  -2  -6   9  149.98   21.50
   2  -6  -9  180.96   21.97
   1   6  -9  330.64   28.59
   1  -6  -9  373.03   25.86
  -1  -6   9  315.48   26.51
   1  -6  -9  378.84   28.01
  -1  -6   9  307.39   27.65
   0   6  -9  304.30   27.67
   0  -6   9  292.52   25.89
   0  -6  -9  364.81   26.73
  -1  -6  -9  353.71   28.74
  -1   6  -9  412.78   31.09
   1  -6   9  365.32   28.23
  -1   6  -9  461.28   32.33
   2   6   9  183.02   23.84
  -2   6  -9  216.93   24.66
   2  -6   9  240.62   23.88
  -2  -6  -9  218.82   23.30
   3  -6   9  281.52   26.31
  -3  -6  -9  257.73   25.52
  -3  -6  -9  267.07   26.72
  -3   6  -9  236.16   25.97
  -4  -6  -9  218.82   26.27
  -4  -6  -9  280.90   29.39
  -4   6  -9  319.49   32.18
  -4  -7   9  203.86   28.47
  -4  -7   9  251.37   29.03
   4  -7  -9  288.42   29.80
  -3  -7   9  312.90   29.26
  -3  -7   9  346.13   30.30
   3  -7  -9  314.69   30.85
   2  -7  -9  190.47   25.64
  -2  -7   9  167.44   23.83
  -2  -7   9  188.65   22.56
   1   7  -9  469.86   35.85
  -1  -7   9  484.95   33.91
  -1  -7   9  471.94   34.42
   1  -7  -9  487.40   33.52
   0  -7  -9  187.65   21.05
   0   7  -9  222.34   25.45
   0  -7   9  183.48   21.56
   0  -7   9  228.64   23.80
   1  -7   9  150.95   22.07
  -1   7  -9  153.99   23.69
  -1  -7  -9  136.55   20.49
  -1   7  -9  166.93   23.97
  -2  -7  -9   75.11   17.72
   2   7   9   78.49   18.85
  -2   7  -9  114.57   21.16
   2  -7   9   82.95   17.88
  -3   7  -9    6.64   14.58
   3  -7   9   -1.83    9.97
   3   7   9   40.64   14.78
  -3  -7  -9   19.03   11.71
  -4  -7  -9    1.96   11.36
  -4   7  -9   -9.60   14.37
  -3  -8   9   -4.26   10.92
   3  -8  -9   10.55   13.88
  -3  -8   9    5.65   12.59
  -2  -8   9  120.38   21.41
   2  -8  -9   75.35   19.27
  -2  -8   9  155.90   23.51
  -1  -8   9   22.15   13.17
  -1  -8   9   29.11   13.65
   1  -8  -9   32.09   14.56
   0  -8   9   75.43   17.95
   0  -8   9   65.40   17.87
   0   8  -9   60.34   19.74
  -1  -8  -9   95.01   18.84
  -1   8  -9   83.06   21.53
   1  -8   9   93.59   19.81
  -2   8  -9  154.64   25.21
  -2  -8  -9  202.44   24.16
   2  -8   9  148.58   24.14
  -3  -8  -9  224.09   30.10
   3  -8   9  283.60   30.14
  -3   8  -9  247.28   29.70
   3   8   9  275.44   31.27
  -2  -9   9  204.26   28.61
   2  -9  -9  213.26   29.08
  -2  -9   9  194.42   28.13
  -1  -9   9  203.67   28.86
  -1  -9   9  197.46   27.83
   0   9  -9  169.42   28.11
   0  -9   9  137.03   24.38
  -1  -9  -9  153.37   23.86
  -1   9  -9  121.71   26.08
   1  -9   9   82.71   20.08
  -6   0  10   10.29   13.07
  -5   0  10    4.57   10.25
  -4   0  10  122.88   19.48
   4   0 -10  105.91   18.34
  -3   0  10   75.30   15.06
   3   0 -10   84.13   17.10
  -2   0  10  714.84   35.75
   2   0 -10  652.95   36.73
   1   0 -10  392.08   29.12
  -1   0  10  419.07   24.73
   0   0  10  620.82   29.17
   0   0 -10  577.93   35.23
  -1   0 -10 1545.89   63.44
   1   0  10 1573.67   54.60
  -2   0 -10  938.83   47.02
  -2   0 -10  993.92   39.79
  -3   0 -10  455.85   31.63
  -3   0 -10  442.04   27.29
  -4   0 -10  439.76   32.46
  -4   0 -10  454.05   30.57
  -5   0 -10   97.08   19.16
  -6   1  10  113.88   22.14
  -6  -1  10  150.12   24.94
  -5   1  10  430.66   33.10
  -5  -1  10  430.06   33.33
   4   1 -10  556.96   34.81
  -4  -1  10  525.23   35.15
  -4   1  10  579.12   35.62
  -3  -1  10  331.18   25.50
   3   1 -10  369.98   29.24
   3  -1 -10  385.62   28.64
  -3   1  10  351.16   25.91
  -2   1  10  406.05   27.14
   2   1 -10  447.84   31.95
   2  -1 -10  501.65   32.32
  -2  -1  10  414.13   27.14
  -1  -1  10  161.63   16.52
  -1   1  10  146.47   16.02
   1   1 -10  174.85   22.36
   1  -1 -10  160.24   21.14
   0   1 -10   12.88   14.00
   0  -1  10   17.43    7.84
   0   1  10   21.51    7.66
   0  -1 -10   36.41   14.34
  -1  -1 -10   33.05   14.01
   1   1  10   13.85    6.69
  -1   1 -10   37.92   14.22
   1  -1  10   19.49    7.81
  -2   1 -10   36.63   15.03
  -2  -1 -10   28.06   13.03
  -2   1 -10   48.97   10.50
  -3   1 -10   52.81   15.61
  -3   1 -10   48.04   12.20
  -3  -1 -10   57.92   12.94
  -3  -1 -10   62.58   15.19
  -4  -1 -10  123.06   20.63
  -4  -1 -10  121.04   19.15
  -4   1 -10  123.75   18.73
  -4   1 -10  102.02   19.30
  -5  -1 -10  109.47   20.28
  -5  -1 -10   91.51   19.59
  -5   1 -10  148.33   23.05
  -6   2  10   15.19   14.04
  -6  -2  10   15.38   12.75
  -5  -2  10    2.04   12.21
  -5   2  10   10.92   11.44
  -5  -2  10   -0.59    8.85
  -4   2  10  136.21   20.89
  -4  -2  10  145.47   21.67
  -4  -2  10  127.51   19.44
   3  -2 -10  393.85   28.07
  -3  -2  10  348.55   26.33
  -3   2  10  385.39   27.97
   2  -2 -10  539.34   32.63
  -2  -2  10  519.52   30.69
   2   2 -10  491.05   33.99
  -2   2  10  479.73   30.13
  -1   2  10  774.80   36.95
   1   2 -10  783.25   41.88
  -1  -2  10  833.08   39.13
   1  -2 -10  810.52   40.24
   0   2 -10  967.07   47.94
   0  -2 -10 1045.18   47.50
   0   2  10  956.79   40.43
   0  -2  10 1087.34   44.61
   1  -2  10  771.64   36.10
  -1   2 -10  735.67   43.56
  -1  -2 -10  815.35   41.63
  -2   2 -10  527.42   28.52
   2  -2  10  569.35   29.10
  -2   2 -10  532.83   35.59
  -2  -2 -10  488.73   32.78
  -3  -2 -10  554.95   35.45
  -3   2 -10  559.07   36.02
  -3  -2 -10  521.23   31.09
  -3   2 -10  570.78   32.90
  -4  -2 -10  169.59   20.54
  -4   2 -10  220.78   22.94
  -4  -2 -10  162.29   22.97
  -5   2 -10  106.73   20.37
  -5  -2 -10   44.13   15.36
  -5  -2 -10   55.09   17.27
  -6  -3  10  330.43   31.39
   6  -3 -10  326.04   32.91
  -5   3  10  504.53   36.97
  -5  -3  10  454.56   34.69
  -5  -3  10  512.96   36.27
  -4  -3  10  493.50   33.43
  -4  -3  10  509.33   35.25
  -4   3  10  476.73   33.94
  -3   3  10  321.65   26.20
  -3  -3  10  324.04   25.78
  -3  -3  10  377.09   29.48
  -2  -3  10  275.06   22.88
   2  -3 -10  263.70   23.04
  -2   3  10  260.46   22.82
   1   3 -10   23.92   14.27
  -1   3  10   49.86   11.93
   1  -3 -10   15.18   12.00
  -1  -3  10   63.19   12.97
   0   3 -10   57.77   17.13
   0  -3 -10   49.69   14.48
   0   3  10   44.61   10.25
   0  -3  10   29.48    9.66
   1  -3  10   54.75   11.99
  -1   3 -10   65.16   17.84
  -1  -3 -10   39.53   13.83
  -2   3 -10   33.97   14.80
   2  -3  10   34.55   10.24
  -2   3 -10   40.29   11.33
  -2  -3 -10   16.53   10.45
  -3   3 -10    9.61   10.01
  -3  -3 -10   34.70   12.71
  -3   3 -10   -6.21   12.27
  -3  -3 -10   34.42   10.97
  -4   3 -10   98.82   19.61
  -4  -3 -10  100.17   19.80
  -4  -3 -10   94.82   17.14
  -5  -3 -10  208.22   25.26
  -5   3 -10  199.23   27.99
  -5  -3 -10  170.46   26.18
   6  -4 -10    5.63   13.46
  -6  -4  10    0.08   14.76
  -6  -4  10    5.94   13.01
   5  -4 -10   30.93   15.49
  -5  -4  10   20.66   13.97
  -5  -4  10   20.56   12.29
   4  -4 -10   85.97   18.76
  -4  -4  10  113.28   20.21
  -4  -4  10   93.65   18.45
  -3  -4  10  357.56   29.16
  -3  -4  10  330.61   27.66
  -2  -4  10  177.92   23.07
   2  -4 -10  168.81   19.79
  -2  -4  10  173.28   19.32
   1   4 -10  252.16   25.51
  -1  -4  10  351.26   25.58
   1  -4 -10  275.51   22.73
   0  -4  10  297.52   23.67
   0   4 -10  308.02   29.23
   0  -4 -10  288.72   25.24
   0  -4 -10  360.02   23.47
  -1  -4 -10  421.46   29.89
  -1   4 -10  436.70   33.34
   1  -4  10  373.23   26.89
   2  -4  10  637.30   35.47
  -2  -4 -10  636.35   38.27
  -2   4 -10  580.62   38.04
  -2   4 -10  645.01   35.22
  -3  -4 -10  699.59   42.05
  -3   4 -10  633.96   38.42
  -3  -4 -10  656.34   37.13
  -4  -4 -10  252.73   28.06
  -4  -4 -10  308.26   27.33
  -4   4 -10  257.99   27.55
  -5   4 -10  202.47   28.94
  -5  -4 -10  202.23   24.73
  -5  -4 -10  163.94   26.30
  -5  -5  10  384.95   33.03
   5  -5 -10  262.76   29.42
  -5  -5  10  359.72   33.81
   4  -5 -10  299.18   29.02
  -4  -5  10  270.08   26.52
  -4  -5  10  276.73   28.18
   3  -5 -10  353.73   29.78
  -3  -5  10  343.32   29.43
  -3  -5  10  379.55   30.70
   2  -5 -10  217.84   23.59
  -2  -5  10  206.75   22.03
  -2  -5  10  207.16   23.04
  -1  -5  10   54.30   13.63
   1  -5 -10   66.71   14.13
   1  -5 -10   66.04   15.09
  -1  -5  10   34.92   13.86
   0  -5  10   39.25   11.60
   0   5 -10   49.49   16.48
   0  -5 -10   64.13   14.73
  -1   5 -10  135.50   22.35
   1  -5  10  141.35   19.94
  -1  -5 -10  120.63   18.76
  -1   5 -10  155.25   20.30
  -2   5 -10   21.28   12.93
   2  -5  10   15.68   10.05
  -2  -5 -10    2.60    9.70
  -2   5 -10   -8.49   13.63
  -3  -5 -10   73.16   17.91
  -3   5 -10   56.45   16.67
  -3  -5 -10   58.34   15.42
   3  -5  10   60.56   15.03
  -4   5 -10   74.43   19.06
  -4  -5 -10   34.84   14.43
  -4  -5 -10   68.50   18.07
   5  -6 -10    4.51   12.38
  -5  -6  10    8.84   13.26
  -5  -6  10    5.08   13.58
  -4  -6  10   44.70   15.99
  -4  -6  10   45.15   16.29
   4  -6 -10   48.58   17.50
  -3  -6  10  122.01   20.68
   3  -6 -10   69.25   17.53
  -3  -6  10   60.83   17.23
   2  -6 -10  248.47   25.53
  -2  -6  10  205.06   22.91
  -2  -6  10  187.98   24.95
  -1  -6  10  469.69   32.79
  -1  -6  10  407.71   32.86
   1  -6 -10  483.28   32.28
   1  -6 -10  474.89   30.59
   0   6 -10  468.80   35.11
   0  -6 -10  484.67   32.16
   0  -6  10  438.90   32.46
  -1   6 -10  453.14   35.03
  -1  -6 -10  401.15   30.96
   1  -6  10  402.34   31.05
  -1   6 -10  403.31   31.39
  -2   6 -10  299.94   28.40
   2  -6  10  319.21   27.24
  -2  -6 -10  345.01   30.33
   3  -6  10  129.50   21.09
  -3  -6 -10  143.00   23.15
  -3   6 -10  111.23   20.23
  -4   6 -10   72.04   20.64
  -4  -6 -10   84.04   20.64
  -4  -6 -10   79.92   20.53
  -4  -7  10  184.07   27.58
  -4  -7  10  175.73   28.16
   4  -7 -10  210.96   29.25
  -3  -7  10  309.49   30.23
  -3  -7  10  348.77   32.30
   3  -7 -10  303.45   30.67
  -2  -7  10   40.12   14.17
  -2  -7  10   60.63   17.83
   2  -7 -10   80.27   19.00
  -1  -7  10   61.67   17.11
   1  -7 -10   93.28   19.11
  -1  -7  10   38.27   13.12
   0  -7  10   16.08   11.39
   0   7 -10   14.58   15.55
   0  -7 -10   10.45   10.22
  -1  -7 -10  -11.62    8.05
   1  -7  10   10.64    9.79
  -1   7 -10   -8.83   13.21
  -1   7 -10   12.21   14.72
  -2   7 -10   18.68   15.43
   2  -7  10   13.70   11.35
  -2  -7 -10   36.23   14.73
   3  -7  10   11.78   11.59
  -3   7 -10   20.71   17.08
  -3  -7 -10   11.87   12.71
   3  -8 -10   93.63   21.82
  -3  -8  10   82.74   20.46
  -3  -8  10   82.98   20.68
  -2  -8  10   91.04   20.06
  -2  -8  10  110.70   21.61
   2  -8 -10   93.24   21.47
  -1  -8  10  208.53   24.39
  -1  -8  10  168.77   26.27
   0  -8  10  237.98   26.35
   1  -8  10  150.76   23.99
  -1  -8 -10  186.41   25.40
  -2  -8 -10  268.68   29.13
   2  -8  10  213.22   28.82
  -2   8 -10  247.18   32.00
  -1  -9  10   57.70   18.07
  -1  -9  10   10.30   16.62
   0  -9  10   34.06   15.58
  -6   0  11   19.73   14.83
  -5   0  11   88.95   18.64
  -4   0  11  660.89   39.81
   4   0 -11  646.70   38.94
  -3   0  11  204.59   20.90
   3   0 -11  249.87   25.31
  -2   0  11 1442.77   58.56
   2   0 -11 1388.37   59.98
   1   0 -11  486.68   34.20
  -1   0  11  543.04   30.05
   0   0 -11   96.78   19.28
   0   0  11  104.11   14.01
   1   0  11  357.62   20.95
  -1   0 -11  264.33   26.97
  -2   0 -11  341.36   28.69
  -3   0 -11  192.32   23.38
  -4   0 -11   23.16   13.92
  -4   0 -11   55.52   14.84
  -5   0 -11    9.08   11.92
  -6  -1  11  198.56   28.63
  -6   1  11  231.18   28.26
  -5  -1  11  210.94   25.12
  -5   1  11  206.38   25.24
  -4  -1  11  161.29   22.26
  -4   1  11  152.88   21.56
   4   1 -11  156.96   22.49
   3  -1 -11  168.22   22.24
   3   1 -11  153.04   22.42
  -3   1  11  106.27   17.91
  -3  -1  11  141.16   20.14
  -2  -1  11   42.64   11.62
   2  -1 -11   41.63   16.46
   2   1 -11   32.23   14.41
  -2   1  11   30.38   10.45
  -1   1  11   90.23   14.51
  -1  -1  11   52.94   12.23
   1   1 -11   91.79   18.90
   1  -1 -11   74.13   17.70
   0   1  11    5.97    6.88
   0   1 -11    2.09   13.78
   0  -1 -11    2.15   11.98
   0  -1  11   10.54    7.44
  -1  -1 -11  488.92   33.98
   1  -1  11  559.11   28.73
  -1   1 -11  513.75   36.54
  -2   1 -11  294.58   26.97
  -2  -1 -11  267.02   26.64
  -3  -1 -11  446.85   33.51
  -3   1 -11  451.24   32.68
  -4   1 -11  391.45   31.95
  -4  -1 -11  375.36   30.98
  -4   1 -11  359.91   29.06
  -5  -1 -11  170.62   25.06
  -5  -1 -11  141.51   24.01
  -5   1 -11  173.05   24.97
  -6  -2  11   10.55   13.49
  -6   2  11   14.34   14.20
  -5  -2  11  119.01   21.24
  -5   2  11  102.97   20.25
  -4   2  11  372.46   29.58
   4   2 -11  376.59   31.11
  -4  -2  11  326.36   28.21
   3  -2 -11  782.69   41.40
  -3  -2  11  806.29   42.75
  -3   2  11  822.15   43.34
   3   2 -11  835.04   44.93
   2   2 -11  853.62   44.99
   2  -2 -11  872.09   43.42
  -2   2  11  784.88   40.43
  -2  -2  11  803.23   41.42
  -1   2  11  922.10   41.85
   1  -2 -11  989.16   46.73
  -1  -2  11  945.13   43.88
   1   2 -11  858.57   47.16
   0   2  11  303.74   20.98
   0   2 -11  301.10   28.35
   0  -2 -11  279.66   25.92
   0  -2  11  272.07   21.95
   1  -2  11  465.40   26.89
  -1  -2 -11  420.30   30.78
  -1   2 -11  350.45   32.77
  -2  -2 -11   45.60   13.73
  -2   2 -11   44.26   16.18
  -3  -2 -11  102.01   19.04
  -3   2 -11   91.50   18.97
  -4  -2 -11   49.46   16.29
  -4   2 -11   39.07   14.22
  -5  -2 -11    7.37   13.89
  -5   2 -11   -6.09   11.03
  -5  -2 -11   28.04   15.22
  -6  -3  11  268.12   29.23
   6  -3 -11  226.24   31.96
  -5  -3  11  261.88   28.31
  -5   3  11  292.10   29.25
  -5  -3  11  256.89   27.07
  -4  -3  11  136.62   22.53
  -4  -3  11   97.55   18.87
  -4   3  11  131.85   21.87
  -3  -3  11  135.19   19.32
  -3   3  11  137.48   20.09
   2  -3 -11  106.44   17.51
  -2  -3  11   82.21   15.19
   2   3 -11   55.75   16.22
  -2   3  11  106.58   16.44
  -1  -3  11   45.58   12.49
   1  -3 -11   56.91   14.45
  -1   3  11   44.79   11.52
   1   3 -11   33.43   15.30
   0   3  11   87.20   13.91
   0  -3 -11   76.35   17.13
   0   3 -11   67.80   17.72
   0  -3  11   82.94   14.44
  -1   3 -11  234.06   27.83
  -1  -3 -11  190.60   21.48
   1  -3  11  164.49   17.57
  -2  -3 -11  180.93   21.82
  -2   3 -11  233.47   25.56
   2  -3  11  257.43   21.31
  -3  -3 -11  199.05   23.29
  -3   3 -11  174.62   24.75
  -4  -3 -11  251.10   26.96
  -4   3 -11  250.90   26.66
  -5   3 -11  138.51   24.83
  -5  -3 -11   89.15   21.74
  -5  -4  11   67.01   18.21
  -5  -4  11  127.86   23.70
   5  -4 -11   65.24   19.25
  -4  -4  11  365.94   30.09
   4  -4 -11  299.07   29.69
  -4  -4  11  321.58   29.90
  -3  -4  11  664.25   40.15
  -3  -4  11  625.69   40.19
  -2   4  11  777.09   41.63
   2  -4 -11  780.97   40.17
  -2  -4  11  732.50   42.08
   1   4 -11  564.24   37.56
   1  -4 -11  645.70   36.31
  -1  -4  11  623.37   36.22
   0   4 -11  377.15   31.56
   0  -4 -11  392.90   29.50
   0  -4  11  390.37   28.43
   1  -4  11  158.99   18.65
  -1  -4 -11  133.35   20.23
  -1   4 -11  186.61   25.36
  -2   4 -11  231.68   27.66
  -2  -4 -11  191.37   25.18
   2  -4  11  215.68   21.44
  -3  -4 -11  228.98   25.19
  -4   4 -11   74.96   19.02
  -4  -4 -11   82.76   20.85
  -5  -5  11  102.98   21.57
   5  -5 -11  196.68   28.49
  -5  -5  11  146.43   25.41
  -4  -5  11  156.69   25.30
  -4  -5  11  167.49   24.76
   4  -5 -11  149.17   23.88
  -3  -5  11   35.11   13.33
  -3  -5  11   62.15   16.58
   3  -5 -11   39.63   14.58
  -2  -5  11    6.63   11.69
   2  -5 -11   -4.59    9.60
  -2  -5  11    5.85    9.19
   1   5 -11   16.38   15.04
   1  -5 -11   81.98   16.57
  -1  -5  11   43.77   13.18
   1  -5 -11   35.32   12.72
   0  -5 -11   58.46   15.14
   0   5 -11   65.08   18.42
   0  -5  11   61.70   14.16
  -1   5 -11  105.66   21.77
  -1  -5 -11  101.71   19.04
   1  -5  11  132.19   19.40
  -2  -5 -11  180.63   24.59
  -2   5 -11  176.65   26.78
   2  -5  11  188.16   21.88
  -3  -5 -11  150.20   23.80
  -4   5 -11  112.07   22.99
  -4  -5 -11  117.51   23.21
  -4  -6  11  271.66   31.16
   4  -6 -11  266.16   28.72
  -4  -6  11  255.14   28.82
  -3  -6  11  166.48   25.62
  -3  -6  11  170.07   24.32
   3  -6 -11  161.66   25.20
   2  -6 -11  511.26   35.02
  -2  -6  11  475.15   36.54
  -2  -6  11  442.85   33.80
  -1  -6  11  333.71   29.33
   1  -6 -11  403.96   29.51
   1  -6 -11  404.69   30.44
   0  -6 -11  486.23   33.55
   0  -6  11  426.20   32.12
   0   6 -11  435.45   34.43
  -1  -6 -11  235.22   24.57
   1  -6  11  208.04   23.23
  -1   6 -11  243.65   28.68
   2  -6  11  160.76   22.89
  -2  -6 -11  125.54   22.55
  -3  -6 -11   13.51   12.88
  -3  -7  11   10.29   13.95
  -3  -7  11   31.54   15.07
   3  -7 -11    3.48   13.07
  -2  -7  11   -2.01   10.30
  -2  -7  11    0.05   11.77
   2  -7 -11    2.95   12.46
  -1  -7  11    2.51   10.20
   0  -7  11   71.04   17.01
   0  -7 -11  111.37   19.35
   0   7 -11  105.71   22.58
  -1   7 -11   40.67   18.17
  -1  -7 -11   43.84   14.85
   1  -7  11   29.96   13.38
  -2  -7 -11   87.56   20.31
   2  -7  11   62.73   17.84
   3  -7  11  186.57   26.93
  -3  -7 -11  213.12   30.29
   2  -8 -11  171.83   26.88
  -2  -8  11  182.32   26.86
  -2  -8  11  170.30   27.39
  -1  -8  11  273.07   30.57
  -1  -8  11  195.93   28.18
   0   8 -11  204.92   29.84
   0  -8  11  180.53   26.73
  -1  -8 -11  181.98   26.44
   1  -8  11  192.05   28.11
  -6   0  12  143.70   25.65
  -5   0  12  384.41   32.50
   4   0 -12  511.60   35.43
  -4   0  12  454.06   33.52
  -3   0  12  442.01   30.64
   3   0 -12  393.75   32.30
   2   0 -12 1047.89   51.82
  -2   0  12 1082.91   49.42
  -1   0  12  477.21   29.11
   1   0 -12  457.50   34.55
   0   0 -12  890.49   47.79
   0   0  12  936.03   41.35
  -1   0 -12   90.08   18.58
  -2   0 -12   33.30   15.44
  -3   0 -12    8.21   12.84
  -4   0 -12   18.92   14.60
  -6  -1  12   69.04   19.76
  -6   1  12   57.10   19.07
  -5   1  12   37.12   14.80
  -5  -1  12   48.74   15.94
  -4  -1  12   30.09   13.12
  -4   1  12   11.53   10.84
   4   1 -12   17.43   15.50
  -3   1  12   71.52   15.06
   3  -1 -12   81.91   18.57
  -3  -1  12   81.30   16.04
   3   1 -12   50.88   16.75
  -2  -1  12  205.21   20.24
   2   1 -12  231.39   26.70
  -2   1  12  205.77   20.66
   2  -1 -12  225.19   25.86
  -1  -1  12  419.14   27.68
   1   1 -12  419.98   34.03
   1  -1 -12  414.30   31.60
  -1   1  12  434.16   27.20
   0   1 -12  479.22   35.26
   0  -1  12  440.09   27.10
   0  -1 -12  478.23   33.74
   0   1  12  423.44   26.64
  -1  -1 -12  316.78   28.15
  -1   1 -12  372.84   31.70
   1  -1  12  275.31   21.34
  -2   1 -12  336.19   30.59
  -2  -1 -12  297.75   28.82
  -3   1 -12  326.51   30.81
  -3  -1 -12  375.54   32.07
  -4   1 -12  283.19   28.18
  -4  -1 -12  213.55   28.66
  -5  -1 -12  191.18   28.30
  -5   2  12  340.50   31.62
   5   2 -12  274.36   30.26
  -5  -2  12  300.99   29.60
   4   2 -12  131.29   22.97
  -4  -2  12  171.14   24.27
  -4   2  12  174.76   24.43
   3  -2 -12  534.00   34.50
   3   2 -12  500.61   36.28
  -3  -2  12  496.28   33.64
  -3   2  12  460.93   32.39
  -2  -2  12  543.94   33.40
   2  -2 -12  544.97   35.73
  -2   2  12  577.81   34.33
   2   2 -12  536.48   36.79
  -1   2  12  554.14   31.10
   1  -2 -12  492.89   33.41
  -1  -2  12  464.27   30.70
   1   2 -12  461.78   34.12
   0   2  12  575.42   30.35
   0   2 -12  542.71   37.74
   0  -2  12  539.03   31.82
   0  -2 -12  548.05   35.87
  -1   2 -12  203.92   26.38
  -1  -2 -12  178.15   23.73
   1  -2  12  193.47   18.82
  -2   2 -12   -6.56   13.11
  -2  -2 -12   -2.48   10.42
  -3  -2 -12   11.88   12.48
  -3   2 -12   -8.12   12.67
  -4  -2 -12   19.57   14.45
  -5  -2 -12   -3.10   13.35
  -5  -3  12   80.18   19.16
  -5   3  12   93.25   21.58
   4   3 -12    4.08   12.94
  -4   3  12    8.25    9.94
  -4  -3  12   26.40   12.28
  -3   3  12   20.20   11.29
  -3  -3  12    9.51    9.37
   3   3 -12   12.80   13.45
   2   3 -12  108.17   20.72
   2  -3 -12   99.56   18.71
  -2   3  12   97.67   16.90
  -2  -3  12   99.60   17.31
  -1  -3  12  445.45   30.11
  -1   3  12  426.19   28.00
   1   3 -12  397.61   32.86
   1  -3 -12  412.45   30.92
   0   3 -12  435.36   34.16
   0  -3 -12  407.76   31.01
   0  -3  12  445.71   29.57
   1  -3  12  440.01   28.43
  -1  -3 -12  407.41   30.95
  -1   3 -12  387.20   33.84
  -2  -3 -12  282.70   27.04
  -2   3 -12  231.43   26.78
  -3  -3 -12  237.88   26.23
  -3   3 -12  213.37   25.66
  -4  -3 -12  145.01   24.42
  -5  -4  12  237.01   27.43
   5  -4 -12  220.90   30.27
  -5  -4  12  258.34   33.93
  -4  -4  12  270.47   29.27
  -4  -4  12  301.02   28.87
  -3  -4  12  588.97   38.55
  -3   4  12  603.97   39.43
   2   4 -12  492.06   36.62
  -2  -4  12  463.11   33.56
  -2   4  12  525.56   34.19
   2  -4 -12  566.55   34.54
  -1  -4  12  501.80   33.58
  -1   4  12  542.20   32.73
   1   4 -12  408.20   34.14
   1  -4 -12  494.73   33.34
   0   4 -12  323.81   30.92
   0  -4  12  297.65   25.16
   0  -4 -12  263.12   26.07
  -1  -4 -12   60.83   15.91
  -1   4 -12   57.45   18.51
   1  -4  12   69.38   15.00
  -2   4 -12   22.22   16.53
   2  -4  12   -5.64    8.20
  -2  -4 -12  -13.49    8.51
  -3  -4 -12   -3.49   10.24
  -4  -4 -12   42.41   17.19
  -4  -5  12    0.13   12.92
   4  -5 -12   22.10   14.98
  -4  -5  12   -1.63   10.07
  -3  -5  12    2.42   13.60
   3  -5 -12   -9.29    9.85
  -3  -5  12    1.79    9.28
  -2  -5  12  101.20   19.29
   2  -5 -12  109.51   20.50
   2   5 -12  114.35   21.97
   1   5 -12  180.73   27.48
   1  -5 -12  201.05   23.41
  -1  -5  12  229.86   23.46
   1  -5 -12  198.70   22.52
   0   5 -12  322.19   31.40
   0  -5 -12  352.00   29.40
   0  -5  12  327.61   27.82
   1  -5  12  236.45   24.27
  -1   5 -12  204.30   29.09
  -1  -5 -12  227.14   25.07
  -2   5 -12  447.87   37.86
   2  -5  12  421.44   31.84
  -2  -5 -12  366.10   32.17
  -3  -5 -12  227.17   30.33
  -4  -5 -12  116.51   23.64
  -4  -6  12  251.80   30.73
  -4  -6  12  243.17   29.18
   4  -6 -12  258.67   30.41
  -3  -6  12  179.71   27.53
  -3  -6  12  195.22   27.38
   3  -6 -12  255.21   28.62
   2  -6 -12  261.94   26.84
  -2  -6  12  231.44   25.59
  -1  -6  12  145.00   23.12
   1   6 -12  153.75   26.13
   0  -6  12   87.82   18.84
   0  -6 -12   76.81   18.00
   0   6 -12   91.03   22.78
   1  -6  12   35.12   14.34
  -1   6 -12   22.14   18.12
  -1  -6 -12   21.92   13.32
   2  -6  12   22.59   12.72
  -2  -6 -12   14.57   13.01
  -3  -6 -12  -12.67   10.25
   3  -7 -12   62.74   19.75
  -3  -7  12   57.79   18.73
  -3  -7  12   39.76   18.72
  -2  -7  12   11.74   13.25
   2  -7 -12   37.47   16.79
  -2  -7  12   46.81   19.11
   1   7 -12  129.52   25.29
  -1  -7  12  146.70   24.10
   0  -7  12  182.69   25.78
   0  -7 -12  207.20   26.98
   0   7 -12  180.65   28.42
   1  -7  12  283.07   28.42
  -1  -7 -12  194.47   27.53
   2  -7  12   81.85   18.85
  -2  -7 -12  126.94   23.65
   1   8 -12  194.77   30.07
  -1  -8  12  154.46   26.50
   0  -8  12   54.12   17.26
   0   8 -12   10.68   18.46
  -5   0  13  382.25   33.43
   4   0 -13  247.23   27.97
  -4   0  13  240.51   26.03
   3   0 -13  422.08   34.18
  -3   0  13  421.12   31.59
   2   0 -13  137.57   22.83
  -2   0  13  117.75   18.64
  -1   0  13   87.44   15.41
   1   0 -13  108.41   21.09
   0   0 -13   -1.71   12.01
   0   0  13    4.33    7.60
  -1   0 -13   79.93   18.61
  -2   0 -13  124.07   23.30
  -3   0 -13  176.87   26.30
  -4   0 -13  195.66   27.95
  -5   1  13   62.01   17.84
  -5  -1  13   45.03   16.21
  -4   1  13  113.20   19.74
   4   1 -13   95.37   20.63
  -4  -1  13   84.09   18.60
  -3   1  13  126.75   19.94
  -3  -1  13  161.78   22.24
   3  -1 -13  121.34   22.83
   3   1 -13  185.13   25.83
  -2   1  13  527.35   33.17
   2   1 -13  488.07   37.00
  -2  -1  13  511.08   32.97
   2  -1 -13  567.31   38.09
  -1  -1  13  482.37   30.72
   1  -1 -13  462.64   34.23
   1   1 -13  463.75   36.26
  -1   1  13  474.52   30.03
   0   1 -13  544.26   39.73
   0  -1  13  668.69   34.80
   0  -1 -13  584.25   39.24
   0   1  13  714.70   35.19
  -1   1 -13  734.21   45.90
  -1  -1 -13  775.03   45.29
  -2  -1 -13  349.78   31.10
  -2   1 -13  326.41   30.86
  -3  -1 -13  266.57   29.39
  -3   1 -13  333.89   31.07
  -4  -1 -13  127.41   24.65
  -4   1 -13  156.90   26.08
  -5  -2  13  187.51   27.45
  -5   2  13  180.69   28.57
   4   2 -13  261.99   29.45
  -4   2  13  194.16   23.32
  -4  -2  13  125.29   21.92
  -3   2  13   51.46   13.95
   3  -2 -13   51.20   17.14
   3   2 -13   92.08   21.80
  -3  -2  13   93.14   17.41
  -2   2  13   80.45   15.75
   2   2 -13   74.38   18.26
   2  -2 -13   82.91   18.18
  -2  -2  13   74.86   15.37
  -1  -2  13   61.73   13.74
  -1   2  13   91.97   15.65
   1   2 -13   71.47   19.73
   1  -2 -13   68.61   17.75
   0  -2 -13    9.90   12.18
   0   2 -13  -13.31   11.65
   0  -2  13    0.93    7.62
  -1  -2 -13   -4.59   11.25
   1  -2  13   34.85   10.62
  -1   2 -13   19.32   15.07
  -2  -2 -13   25.76   13.33
  -2   2 -13   31.06   16.40
  -3  -2 -13  169.17   25.84
  -3   2 -13  126.99   23.37
  -4  -2 -13  151.90   25.48
  -5   3  13   44.30   18.25
   5   3 -13   34.98   18.68
  -5  -3  13   39.11   16.76
  -4  -3  13  100.13   19.90
   4   3 -13  104.90   22.81
  -4   3  13  116.97   22.37
  -3   3  13  112.69   20.24
   3   3 -13   93.52   22.25
  -3  -3  13  139.17   20.85
  -2   3  13  381.63   29.74
   2  -3 -13  392.81   31.20
   2   3 -13  369.19   33.07
  -2  -3  13  429.47   31.05
  -1   3  13  585.57   34.07
   1  -3 -13  534.59   35.45
   1   3 -13  494.97   37.29
  -1  -3  13  502.53   33.76
   0  -3 -13  566.62   38.07
   0   3 -13  545.53   40.90
   0  -3  13  577.67   35.19
   1  -3  13  686.13   38.58
  -1   3 -13  712.58   46.94
  -1  -3 -13  695.09   43.29
  -2   3 -13  311.74   32.24
  -2  -3 -13  287.99   28.52
  -3   3 -13  316.72   32.23
  -3  -3 -13  231.21   26.88
  -4  -3 -13   32.18   16.91
  -4  -4  13  293.75   29.18
   4   4 -13  247.17   29.16
  -3  -4  13  259.70   26.44
  -3   4  13  276.61   27.94
   3   4 -13  276.09   29.80
   2  -4 -13  145.98   22.19
   2   4 -13  169.74   25.92
  -2  -4  13  172.99   23.68
  -2   4  13  116.57   19.54
   1  -4 -13   77.04   16.80
   1   4 -13   29.78   16.79
  -1  -4  13   40.86   13.70
  -1   4  13   56.44   13.96
   0  -4  13   35.39   12.80
   0   4 -13   12.36   14.86
   0  -4 -13   35.26   13.43
  -1  -4 -13   80.20   18.20
   1  -4  13   51.94   14.72
  -1   4 -13  118.21   23.73
  -2   4 -13   84.70   22.10
  -2  -4 -13   61.44   17.85
  -3  -4 -13   81.00   20.41
  -4  -5  13  115.90   21.60
   4  -5 -13  122.84   23.99
  -3  -5  13   87.06   19.34
   3  -5 -13   89.65   20.06
   3   5 -13  105.54   22.34
   2  -5 -13  159.97   23.70
   2   5 -13  149.32   25.46
  -2  -5  13  144.64   23.05
   1  -5 -13  498.70   34.88
  -1  -5  13  435.62   34.09
   1   5 -13  457.71   38.69
   0  -5 -13  550.32   37.63
   0   5 -13  527.15   40.47
   0  -5  13  468.74   35.36
  -1   5 -13  264.41   30.73
   1  -5  13  267.64   26.92
  -1  -5 -13  247.93   26.76
  -2   5 -13  390.09   37.76
   2  -5  13  433.49   33.18
  -2  -5 -13  425.62   35.91
  -3  -5 -13   92.43   21.43
   3  -6 -13  106.77   22.37
  -3  -6  13  106.37   22.33
   2   6 -13   61.81   19.87
   2  -6 -13   63.76   18.38
  -2  -6  13   27.36   14.21
  -1  -6  13   21.73   12.39
   1   6 -13   13.87   16.03
   0  -6  13   -3.45    8.69
   0  -6 -13    5.50   11.17
   0   6 -13  -12.63   13.85
  -1   6 -13   -8.79   16.14
   1  -6  13    7.02   11.59
  -1  -6 -13    0.36   10.71
   2  -6  13   11.22   13.40
  -2  -6 -13    4.33   12.16
   2  -7 -13  145.58   25.49
  -2  -7  13  155.60   25.29
   2   7 -13  143.76   27.06
  -1  -7  13  276.64   29.41
   1   7 -13  248.78   32.93
   0  -7 -13  231.71   26.66
   0  -7  13  174.82   27.69
   0   7 -13  188.20   30.96
   1  -7  13  346.44   32.02
  -1  -7 -13  278.44   31.34
  -5   0  14  108.49   22.43
  -4   0  14    9.87   11.26
   4   0 -14   28.54   17.61
   3   0 -14   85.85   20.89
  -3   0  14   59.02   15.48
  -2   0  14    9.23   10.44
   2   0 -14   -0.13   14.22
   1   0 -14   36.73   16.11
  -1   0  14   30.77   11.34
   0   0  14  181.92   19.01
   0   0 -14  159.20   25.68
  -1   0 -14  228.68   27.31
  -2   0 -14  231.44   27.67
  -3   0 -14  358.63   33.06
  -4   0 -14  270.91   31.78
  -5  -1  14  173.76   26.81
  -5   1  14  184.22   27.90
   4   1 -14  175.64   27.70
  -4   1  14  246.71   26.44
  -4  -1  14  223.39   25.66
   3  -1 -14  253.59   29.88
  -3  -1  14  307.29   28.70
   3   1 -14  321.76   32.34
  -3   1  14  305.51   27.77
   2   1 -14  296.19   30.72
   2  -1 -14  317.58   30.19
  -2   1  14  368.30   28.65
  -2  -1  14  360.38   28.15
   1  -1 -14  355.50   31.97
  -1   1  14  347.65   26.42
  -1  -1  14  415.68   29.35
   1   1 -14  320.98   33.72
   0  -1 -14  534.13   38.46
   0   1 -14  455.10   36.98
   0  -1  14  450.83   29.58
  -1   1 -14  279.83   31.04
  -1  -1 -14  228.45   28.00
  -2   1 -14   75.16   20.44
  -2  -1 -14   69.88   19.68
  -3  -1 -14    2.81   13.76
  -3   1 -14   20.58   15.06
  -4   1 -14  -11.70   14.54
  -4  -1 -14   -4.41   12.59
  -5  -2  14    4.80   12.58
   5   2 -14   20.21   19.06
  -5   2  14   22.81   15.77
  -4  -2  14   73.53   17.76
   4   2 -14   40.26   18.67
  -4   2  14   26.85   14.31
  -3  -2  14   25.82   12.10
   3   2 -14   38.92   17.60
   3  -2 -14   24.40   15.62
  -3   2  14    7.01   10.65
   2   2 -14    7.97   14.87
  -2   2  14   11.13    9.98
  -2  -2  14   12.71   10.10
   2  -2 -14   -2.33   12.54
  -1  -2  14   25.49   11.06
  -1   2  14   66.14   14.38
   1   2 -14   43.11   17.64
   1  -2 -14   47.65   16.17
   0  -2 -14   37.16   16.10
   0   2 -14   17.61   16.06
   0  -2  14   23.06   10.96
  -1  -2 -14  206.78   27.91
  -1   2 -14  162.05   27.12
  -2  -2 -14  156.03   24.81
  -2   2 -14  103.97   22.48
  -3   2 -14  277.82   31.91
  -3  -2 -14  264.22   29.67
  -4  -2 -14  200.65   30.39
  -4   3  14  174.85   26.62
   4   3 -14  142.08   26.58
  -4  -3  14  199.23   27.70
  -3   3  14  203.42   24.14
   3   3 -14  248.17   29.28
  -3  -3  14  250.65   26.47
   2  -3 -14  281.35   29.17
  -2  -3  14  315.07   28.52
   2   3 -14  310.63   33.03
  -2   3  14  339.62   28.27
  -1   3  14  380.95   28.59
   1  -3 -14  301.64   29.90
  -1  -3  14  355.98   28.98
   1   3 -14  352.60   33.45
   0  -3  14  365.00   28.56
   0  -3 -14  379.52   32.02
   0   3 -14  364.40   36.02
   1  -3  14  136.31   20.77
  -1  -3 -14  144.17   22.86
  -1   3 -14  153.92   27.16
  -2   3 -14   46.22   19.65
  -2  -3 -14   71.87   18.77
  -3  -3 -14   41.62   16.91
  -3   3 -14   46.49   20.09
   4   4 -14   21.63   17.49
  -4  -4  14    4.57   12.31
   3   4 -14   35.35   17.40
  -3  -4  14   11.68   11.45
  -3   4  14   10.84   11.75
   2   4 -14    2.02   14.58
  -2   4  14   -4.50   10.34
  -2  -4  14    3.04    9.36
   1   4 -14   50.03   18.19
  -1  -4  14   51.17   14.83
   1  -4 -14   31.82   15.02
   0  -4  14  130.74   20.88
   0   4 -14  106.29   23.68
   0  -4 -14  157.35   24.05
  -1   4 -14  214.09   31.80
   1  -4  14  180.78   21.73
  -1  -4 -14  246.32   28.10
  -2   4 -14  461.23   39.91
  -2  -4 -14  444.14   36.75
  -3  -4 -14  292.61   32.59
  -3  -5  14  254.97   29.31
   3   5 -14  270.87   32.09
   3  -5 -14  217.86   29.59
  -2  -5  14  160.92   24.87
   2  -5 -14  198.42   27.45
   2   5 -14  135.39   26.81
  -1  -5  14  178.99   25.05
   1   5 -14  143.07   27.87
   1  -5 -14  211.17   25.20
   0  -5  14  214.71   25.09
   0  -5 -14  229.21   26.82
   0   5 -14  193.66   29.33
  -1   5 -14  120.22   25.63
  -1  -5 -14   84.73   19.90
   1  -5  14  133.02   22.60
  -2  -5 -14   51.31   17.30
  -2   5 -14   62.74   23.02
   2  -6 -14    4.96   14.18
  -2  -6  14    4.78   12.16
   2   6 -14   14.05   16.78
  -1  -6  14    3.39   11.72
   1   6 -14   46.95   20.58
   0  -6  14   32.17   15.52
   0  -6 -14   40.83   16.37
   0   6 -14   41.01   19.64
  -1  -6 -14   54.03   18.64
   1  -6  14   74.02   19.66
  -1   6 -14   40.22   22.47
  -4   0  15   16.80   12.53
   4   0 -15   20.97   17.60
   3   0 -15   -2.97   16.44
  -3   0  15   16.78   11.02
  -2   0  15  168.86   23.54
   2   0 -15  220.89   30.44
   1   0 -15  106.81   22.46
  -1   0  15   83.70   16.74
   0   0 -15  560.97   42.13
  -1   0 -15  383.91   36.06
  -2   0 -15  158.27   27.46
  -3   0 -15  208.86   30.79
  -4  -1  15  235.21   26.64
  -4   1  15  180.40   27.07
   4   1 -15  209.56   31.01
  -3  -1  15  197.19   26.61
  -3   1  15  179.42   24.93
   3  -1 -15  170.46   27.17
   3   1 -15  174.45   27.37
   2  -1 -15  154.10   25.12
  -2  -1  15  112.91   20.02
   2   1 -15   97.39   22.69
  -2   1  15  146.14   22.11
  -1   1  15   71.76   15.59
  -1  -1  15   81.17   16.87
   1  -1 -15   80.19   20.11
   1   1 -15   66.27   19.98
   0  -1  15    9.83    9.80
   0  -1 -15   21.24   15.33
   0   1 -15    4.03   14.24
  -1   1 -15   52.39   19.32
  -1  -1 -15   29.75   16.28
  -2   1 -15  -12.46   13.22
  -2  -1 -15  -14.20   11.62
  -3   1 -15   30.64   18.99
  -3  -1 -15   18.56   15.58
  -4  -2  15   -3.75   11.41
   4   2 -15   -5.83   16.50
  -4   2  15    0.73   11.58
  -3   2  15   28.63   13.33
   3   2 -15    1.96   15.15
  -3  -2  15   35.97   13.24
   2  -2 -15  148.07   24.69
  -2   2  15  156.05   22.73
  -2  -2  15  110.42   19.65
   2   2 -15   93.58   22.30
   1  -2 -15  155.76   24.59
  -1  -2  15  163.75   23.04
   1   2 -15  158.86   27.05
  -1   2  15  179.28   21.28
   0   2 -15  102.13   23.31
   0  -2  15  196.96   20.73
   0  -2 -15  134.02   23.81
  -1   2 -15  175.20   28.30
  -1  -2 -15  182.95   28.04
  -2   2 -15  235.04   33.08
  -2  -2 -15  227.36   27.86
  -3  -2 -15  120.28   24.61
  -3   2 -15  176.84   29.62
   4   3 -15  144.29   28.30
  -4   3  15  134.82   25.45
  -4  -3  15  155.80   25.77
  -3  -3  15   97.41   20.21
  -3   3  15  129.26   21.78
   3   3 -15  120.89   26.26
   2  -3 -15   79.82   20.31
  -2   3  15   74.15   17.78
   2   3 -15   22.89   17.36
  -2  -3  15   83.36   17.89
   1  -3 -15  131.65   23.28
  -1  -3  15  134.95   21.09
   1   3 -15   94.44   23.48
   0  -3 -15  141.42   24.25
   0  -3  15  125.22   20.75
   0   3 -15  148.25   28.14
  -1   3 -15   15.99   18.38
  -1  -3 -15   14.60   13.18
  -2   3 -15  -15.19   15.85
  -2  -3 -15    3.08   14.09
  -3  -3 -15    9.00   14.88
  -3   3 -15   13.51   18.17
   3   4 -15   11.68   17.73
  -3   4  15   32.15   15.06
  -3  -4  15   11.77   11.80
   2   4 -15   66.60   20.57
  -2  -4  15   92.57   19.91
  -2   4  15   40.55   15.34
   1  -4 -15  137.78   22.57
   1   4 -15  112.82   25.34
  -1  -4  15  145.50   23.62
   0  -4  15  198.22   23.66
   0  -4 -15  204.12   28.00
   0   4 -15  161.74   28.41
  -1   4 -15  218.12   32.69
   1  -4  15  249.12   25.62
  -1  -4 -15  248.15   28.69
  -2   4 -15  224.81   33.29
  -2  -4 -15  214.90   31.04
   2  -5 -15   92.60   21.15
  -2  -5  15   95.39   21.34
   2   5 -15   76.38   23.27
   1   5 -15   77.13   22.61
  -1  -5  15  129.63   23.30
   1  -5 -15  114.83   23.22
   0   5 -15   56.13   22.00
   0  -5  15   41.32   15.69
   0  -5 -15   30.28   16.19
  -1  -5 -15   45.42   17.63
   1  -5  15   18.03   14.47
  -1   5 -15   49.50   22.54
  -4   0  16   49.01   17.64
  -3   0  16  258.27   27.40
   3   0 -16  296.15   34.66
   2   0 -16  126.73   24.86
  -2   0  16  170.06   24.41
  -1   0  16  103.14   18.66
   1   0 -16  135.48   25.13
   0   0 -16  302.35   32.54
  -1   0 -16  307.34   33.28
  -2   0 -16   84.30   23.65
  -3  -1  16  121.55   22.66
   3  -1 -16  115.84   24.27
   3   1 -16   83.34   24.23
  -3   1  16   93.92   20.24
  -2  -1  16   58.91   16.93
  -2   1  16   55.76   16.68
   2   1 -16   71.04   22.18
   2  -1 -16   38.12   18.70
   1   1 -16   -5.62   14.95
  -1  -1  16   -0.89    8.78
  -1   1  16    6.70    9.53
   1  -1 -16   21.17   16.90
   0   1 -16   18.65   17.60
   0  -1 -16   17.53   16.96
  -1   1 -16   -3.23   16.48
  -1  -1 -16  -18.60   12.04
  -2  -1 -16   60.16   20.97
  -2   1 -16   22.44   19.07
  -3   2  16  184.67   26.70
  -3  -2  16  136.79   23.92
   3   2 -16  162.48   28.87
   2  -2 -16  188.88   28.65
  -2   2  16  153.77   23.56
   2   2 -16  163.65   29.23
  -2  -2  16  190.92   25.97
  -1  -2  16  208.98   23.33
   1   2 -16  155.28   28.53
   1  -2 -16  158.03   27.21
   0   2 -16  284.89   36.37
   0  -2  16  248.74   25.24
   0  -2 -16  251.19   29.28
  -1  -2 -16  152.97   26.56
  -1   2 -16  126.38   26.98
  -2   2 -16  193.36   31.38
  -2  -2 -16  187.16   29.21
  -3  -3  16   53.70   17.26
   3   3 -16   91.46   24.68
  -3   3  16   85.27   19.87
  -2  -3  16   14.33   12.13
   2  -3 -16  -19.22   13.44
   2   3 -16   -2.92   15.77
  -2   3  16   14.77   13.30
  -1  -3  16   -7.22    8.94
   1  -3 -16   14.47   15.39
   1   3 -16   -5.65   14.33
   0  -3  16   14.31   11.65
   0  -3 -16  -11.65   11.80
   0   3 -16  -18.68   16.01
  -1   3 -16   24.19   19.52
  -1  -3 -16   18.40   15.53
  -2   3 -16    3.93   19.31
  -2  -3 -16    4.56   14.47
  -2  -4  16  107.06   21.83
  -2   4  16  144.54   24.71
   2   4 -16  150.45   27.97
  -1  -4  16  156.97   25.39
   1   4 -16  158.43   29.81
   1  -4 -16  143.54   24.84
   0   4 -16  151.30   29.28
   0  -4 -16   83.54   21.50
  -1  -4 -16  204.23   30.71
  -1   4 -16  118.02   28.31
  -3   0  17  299.34   31.61
   3   0 -17  279.25   36.80
   2   0 -17  234.06   32.57
  -2   0  17  193.94   26.86
   1   0 -17  163.91   28.79
  -1   0  17  181.81   25.41
   0   0 -17   27.98   17.65
  -1   0 -17  102.81   25.92
  -3   1  17   16.87   13.92
   2   1 -17   21.19   19.59
   2  -1 -17    6.69   18.00
  -2   1  17   39.82   15.39
  -2  -1  17   48.29   15.43
   1   1 -17   11.33   16.77
   1  -1 -17    2.94   17.62
  -1  -1  17   40.07   14.81
   0   1 -17  111.31   26.17
   0  -1 -17  119.61   25.93
  -1  -1 -17  220.02   32.63
  -1   1 -17  133.59   28.24
  -2  -2  17  385.23   34.02
  -2   2  17  387.68   33.38
   2   2 -17  299.57   36.13
   2  -2 -17  369.99   36.97
   1  -2 -17  154.71   26.95
  -1  -2  17  217.78   25.89
   1   2 -17  165.28   30.12
   0   2 -17   82.01   24.05
   0  -2 -17  104.18   23.68
  -1   2 -17   -7.38   18.33
  -1  -2 -17   36.41   19.67
   1  -3 -17   63.76   21.49
   1   3 -17   19.17   20.28
  -1  -3  17   66.96   17.91
   0   3 -17   42.52   21.25
   0  -3 -17   52.55   20.43
   0   0   0    0.00    0.00
;
_shelx_hkl_checksum              34844
_shelx_res_file
;
    140530_0m.res created by SHELXL-2014/7
TITL 140530_0m in P2(1)
CELL 0.71073 5.8737 8.3842 13.7878 90 95.025 90
ZERR 2 0.0009 0.0013 0.0021 0 0.002 0
LATT -1
SYMM -X,0.5+Y,-Z
SFAC C  H  N  O  Cd
UNIT 22  34  2  14  2
L.S. 18
ACTA
BOND $H
FMAP 2
PLAN 50
CONF
HTAB C5 O6_$1
HTAB C2 O4_$1
HTAB C2 O7_$4
HTAB O7 O4_$7
HTAB O7 O1_$7
HTAB O7 O5_$1
HTAB O6 O2_$3
HTAB O6 O1_$6
HTAB O6 O7_$8
HTAB O5 O4_$5
HTAB O5 O3_$2
HTAB N1 O3
EQIV $8 x,y,z
EQIV $7 x,-1+y,z
EQIV $6 1+x,-1+y,z
EQIV $5 2-x,-1/2+y,2-z
EQIV $4 x,1+y,z
EQIV $3 1-x,-1/2+y,2-z
EQIV $2 1+x,y,z
EQIV $1 -1+x,y,z
eqiv $9 2-x, y-1/2, 2-z
RTAB BOND Cd1 Cd1_$1
RTAB BOND Cd1 Cd1_$9
SIMU 0.01 0.01 3.4 $C
TEMP 20
WGHT    0.028000    0.130638
FVAR       0.68412
C1    1    0.130022    1.107932    0.903129    11.00000    0.01578    0.02890 =
         0.02129   -0.00053    0.00235    0.00188
C2    1    0.135571    1.091593    0.794193    11.00000    0.01987    0.02169 =
         0.02091    0.00070    0.00109   -0.00013
AFIX  23
H2A   2    0.194547    1.189821    0.768913    11.00000   -1.20000
H2B   2   -0.019704    1.078222    0.765134    11.00000   -1.20000
AFIX   0
C3    1    0.280618    0.952167    0.762365    11.00000    0.01862    0.02155 =
         0.01524   -0.00038   -0.00029   -0.00312
AFIX  13
H3    2    0.311479    0.972536    0.694763    11.00000   -1.20000
AFIX   0
C4    1    0.513834    0.942107    0.822690    11.00000    0.01391    0.03079 =
         0.01865   -0.00160    0.00528   -0.00118
C5    1    0.010647    0.771810    0.671815    11.00000    0.02305    0.03366 =
         0.01791   -0.00198   -0.00181   -0.00523
AFIX  23
H5A   2   -0.095566    0.860168    0.662292    11.00000   -1.20000
H5B   2   -0.078685    0.675953    0.679188    11.00000   -1.20000
AFIX   0
C6    1    0.136787    0.754537    0.580617    11.00000    0.03580    0.03713 =
         0.02025   -0.00477   -0.00056   -0.00941
C7    1    0.335626    0.671324    0.579310    11.00000    0.04739    0.04958 =
         0.03023   -0.00470    0.00838    0.00254
AFIX  43
H7    2    0.397381    0.622764    0.636303    11.00000   -1.20000
AFIX   0
C8    1    0.449015    0.656743    0.495503    11.00000    0.05507    0.06022 =
         0.04212   -0.00890    0.01114    0.00330
AFIX  43
H8    2    0.584289    0.598998    0.495952    11.00000   -1.20000
AFIX   0
C9    1    0.355863    0.730214    0.411291    11.00000    0.07496    0.05822 =
         0.03508   -0.00381    0.01952   -0.00104
AFIX  43
H9    2    0.427252    0.719093    0.354071    11.00000   -1.20000
AFIX   0
C10   1    0.160707    0.818783    0.410973    11.00000    0.07104    0.05466 =
         0.03172    0.00581    0.00270   -0.00445
AFIX  43
H10   2    0.102027    0.869482    0.354203    11.00000   -1.20000
AFIX   0
C11   1    0.049838    0.833103    0.495554    11.00000    0.05056    0.04177 =
         0.02667    0.00212   -0.00228    0.00227
AFIX  43
H11   2   -0.081803    0.894699    0.495724    11.00000   -1.20000
AFIX   0
CD1   5    0.964151    0.747116    0.904601    11.00000    0.01802    0.02181 =
         0.02179    0.00030    0.00304   -0.00037
N1    3    0.155956    0.798862    0.763365    11.00000    0.01579    0.01832 =
         0.01755   -0.00126    0.00248   -0.00131
AFIX  13
H1    2    0.274962    0.716874    0.763822    11.00000   -1.20000
AFIX   0
O1    4    0.126693    1.244766    0.938982    11.00000    0.03768    0.02078 =
         0.02427    0.00205    0.00808   -0.00691
O2    4    0.128851    0.984306    0.953968    11.00000    0.03626    0.02547 =
         0.01831    0.00021    0.00479   -0.00502
O3    4    0.596078    0.805731    0.841252    11.00000    0.01773    0.03216 =
         0.03788    0.00254    0.00163    0.00536
O4    4    0.607826    1.071400    0.848481    11.00000    0.01854    0.03099 =
         0.03663   -0.00449   -0.00234   -0.00380
O5    4    1.319899    0.623084    0.957505    11.00000    0.02679    0.03392 =
         0.03054    0.01396    0.00217    0.00292
AFIX   3
H5C   2    1.426214    0.690603    0.952368    11.00000   -1.20000
H5D   2    1.311741    0.584862    1.013577    11.00000   -1.20000
AFIX   0
O6    4    0.924055    0.504046    0.827914    11.00000    0.03349    0.02481 =
         0.02794    0.00185    0.00232   -0.00491
AFIX   3
H6A   2    0.780979    0.479334    0.821617    11.00000   -1.20000
H6B   2    0.932868    0.430516    0.870523    11.00000   -1.20000
AFIX   0
O7    4    0.495897    0.400939    0.816442    11.00000    0.03379    0.04032 =
         0.05737    0.00519    0.01297   -0.00933
AFIX   3
H7A   2    0.406419    0.480387    0.818045    11.00000   -1.20000
H7B   2    0.477480    0.339027    0.863945    11.00000   -1.20000
AFIX   0
HKLF 4
REM  140530_0m in P2(1)
REM R1 =  0.0303 for    2618 Fo > 4sig(Fo)  and  0.0378 for all    2952 data
REM    181 parameters refined using    163 restraints
END
WGHT      0.0172      0.0000
REM Highest difference peak  0.492,  deepest hole -0.729,  1-sigma level  0.092
Q1    1   0.8126  0.7421  0.9248  11.00000  0.05    0.49
Q2    1   0.9669  0.6709  0.9444  11.00000  0.05    0.47
Q3    1   0.9590  0.8242  0.9462  11.00000  0.05    0.42
Q4    1   1.0974  0.7519  0.8790  11.00000  0.05    0.42
Q5    1   0.2349  0.7410  0.4151  11.00000  0.05    0.41
Q6    1  -0.0783  0.7446  0.5420  11.00000  0.05    0.37
Q7    1   0.4426  1.0431  0.8793  11.00000  0.05    0.37
Q8    1  -0.0805  1.0012  0.7574  11.00000  0.05    0.36
Q9    1   0.4283  0.4496  0.8789  11.00000  0.05    0.35
Q10   1   0.2583  0.7411  0.3392  11.00000  0.05    0.35
Q11   1   0.6461  0.8254  0.3791  11.00000  0.05    0.33
Q12   1   0.9535  0.6638  0.8479  11.00000  0.05    0.33
Q13   1   0.2073  0.8939  0.9056  11.00000  0.05    0.33
Q14   1   0.4114  0.5395  0.5461  11.00000  0.05    0.32
Q15   1   0.3945  0.7403  0.6035  11.00000  0.05    0.32
Q16   1   0.4253  0.6340  0.5398  11.00000  0.05    0.32
Q17   1  -0.0910  1.1669  0.7629  11.00000  0.05    0.31
Q18   1   0.6191  0.2548  0.7639  11.00000  0.05    0.31
Q19   1  -0.0768  0.9431  0.5061  11.00000  0.05    0.31
Q20   1   0.9365  0.8233  0.8524  11.00000  0.05    0.30
Q21   1   0.7298  0.7361  0.5131  11.00000  0.05    0.30
Q22   1   0.4509  0.7549  0.4460  11.00000  0.05    0.30
Q23   1   0.4262  0.7463  0.5172  11.00000  0.05    0.29
Q24   1   0.2621  0.8191  0.7596  11.00000  0.05    0.29
Q25   1   0.0800  1.2023  0.9020  11.00000  0.05    0.29
Q26   1   0.2399  1.2592  0.9355  11.00000  0.05    0.29
Q27   1   0.1100  0.7458  0.8192  11.00000  0.05    0.29
Q28   1   0.6120  0.7434  0.7434  11.00000  0.05    0.28
Q29   1   1.5976  0.7384  0.9208  11.00000  0.05    0.28
Q30   1   0.1069  0.8255  0.2358  11.00000  0.05    0.28
Q31   1   0.4165  0.8450  0.5426  11.00000  0.05    0.28
Q32   1   0.3966  0.9025  0.4736  11.00000  0.05    0.27
Q33   1  -0.0014  0.8319  0.5031  11.00000  0.05    0.27
Q34   1   0.5849  0.5270  0.4953  11.00000  0.05    0.27
Q35   1   0.6184  0.7456  0.5788  11.00000  0.05    0.27
Q36   1  -0.1163  1.0712  0.4575  11.00000  0.05    0.27
Q37   1   1.0830  0.4113  0.8429  11.00000  0.05    0.27
Q38   1   0.5374  0.7976  0.8000  11.00000  0.05    0.27
Q39   1   0.0070  1.0439  0.5220  11.00000  0.05    0.27
Q40   1   0.4426  0.4202  0.8032  11.00000  0.05    0.27
Q41   1   0.0831  1.0975  0.8469  11.00000  0.05    0.26
Q42   1   1.2138  0.6046  0.9023  11.00000  0.05    0.26
Q43   1   0.6049  0.2412  0.8291  11.00000  0.05    0.26
Q44   1   0.3916  0.6617  0.4608  11.00000  0.05    0.26
Q45   1   0.0680  0.8074  0.4250  11.00000  0.05    0.26
Q46   1   0.4228  0.6926  0.4551  11.00000  0.05    0.26
Q47   1   0.5092  0.8306  0.8762  11.00000  0.05    0.26
Q48   1   0.7609  0.6367  0.8409  11.00000  0.05    0.26
Q49   1   0.6863  0.7085  0.8144  11.00000  0.05    0.25
Q50   1   0.4282  1.0000  0.6208  11.00000  0.05    0.25
;
_shelx_res_checksum              25780
loop_
_space_group_symop_operation_xyz
'x, y, z'
'-x, y+1/2, -z'
loop_
_atom_site_type_symbol
_atom_site_label
_atom_site_fract_x
_atom_site_fract_y
_atom_site_fract_z
_atom_site_U_iso_or_equiv
_atom_site_adp_type
_atom_site_calc_flag
_atom_site_occupancy
_atom_site_disorder_assembly
_atom_site_disorder_group
C C1 0.1300(10) 1.1079(7) 0.9031(5) 0.0219(13) Uani d 1 . .
C C2 0.1356(10) 1.0916(7) 0.7942(4) 0.0209(12) Uani d 1 . .
H H2A 0.1945 1.1898 0.7689 0.025 Uiso calc 1 . .
H H2B -0.0197 1.0782 0.7651 0.025 Uiso calc 1 . .
C C3 0.2806(10) 0.9522(7) 0.7624(4) 0.0186(11) Uani d 1 . .
H H3 0.3115 0.9725 0.6948 0.022 Uiso calc 1 . .
C C4 0.5138(10) 0.9421(8) 0.8227(4) 0.0209(12) Uani d 1 . .
C C5 0.0106(10) 0.7718(9) 0.6718(4) 0.0251(16) Uani d 1 . .
H H5A -0.0956 0.8602 0.6623 0.030 Uiso calc 1 . .
H H5B -0.0787 0.6760 0.6792 0.030 Uiso calc 1 . .
C C6 0.1368(10) 0.7545(16) 0.5806(4) 0.0312(12) Uani d 1 . .
C C7 0.3356(14) 0.6713(10) 0.5793(6) 0.0421(16) Uani d 1 . .
H H7 0.3974 0.6228 0.6363 0.051 Uiso calc 1 . .
C C8 0.4490(16) 0.6567(11) 0.4955(6) 0.0521(19) Uani d 1 . .
H H8 0.5843 0.5990 0.4960 0.062 Uiso calc 1 . .
C C9 0.3559(15) 0.7302(16) 0.4113(5) 0.0552(19) Uani d 1 . .
H H9 0.4273 0.7191 0.3541 0.066 Uiso calc 1 . .
C C10 0.1607(17) 0.8188(10) 0.4110(6) 0.0526(19) Uani d 1 . .
H H10 0.1020 0.8695 0.3542 0.063 Uiso calc 1 . .
C C11 0.0498(14) 0.8331(9) 0.4956(5) 0.0400(16) Uani d 1 . .
H H11 -0.0818 0.8947 0.4957 0.048 Uiso calc 1 . .
Cd Cd1 0.96415(6) 0.74712(6) 0.90460(3) 0.02046(11) Uani d 1 . .
N N1 0.1560(8) 0.7989(5) 0.7634(3) 0.0172(10) Uani d 1 . .
H H1 0.2750 0.7169 0.7638 0.021 Uiso calc 1 . .
O O1 0.1267(6) 1.2448(10) 0.9390(2) 0.0273(8) Uani d 1 . .
O O2 0.1289(8) 0.9843(5) 0.9540(3) 0.0265(10) Uani d 1 . .
O O3 0.5961(7) 0.8057(5) 0.8413(3) 0.0293(11) Uani d 1 . .
O O4 0.6078(8) 1.0714(6) 0.8485(4) 0.0290(11) Uani d 1 . .
O O5 1.3199(8) 0.6231(5) 0.9575(3) 0.0304(11) Uani d 1 . .
H H5C 1.4262 0.6906 0.9524 0.037 Uiso d 1 . .
H H5D 1.3117 0.5849 1.0136 0.037 Uiso d 1 . .
O O6 0.9241(8) 0.5040(5) 0.8279(3) 0.0288(10) Uani d 1 . .
H H6A 0.7810 0.4793 0.8216 0.035 Uiso d 1 . .
H H6B 0.9329 0.4305 0.8705 0.035 Uiso d 1 . .
O O7 0.4959(10) 0.4009(7) 0.8164(4) 0.0433(14) Uani d 1 . .
H H7A 0.4064 0.4804 0.8180 0.052 Uiso d 1 . .
H H7B 0.4775 0.3390 0.8639 0.052 Uiso d 1 . .
loop_
_atom_site_aniso_label
_atom_site_aniso_U_11
_atom_site_aniso_U_22
_atom_site_aniso_U_33
_atom_site_aniso_U_12
_atom_site_aniso_U_13
_atom_site_aniso_U_23
C1 0.016(3) 0.029(3) 0.021(3) 0.002(2) 0.002(2) -0.001(3)
C2 0.020(3) 0.022(3) 0.021(3) 0.000(2) 0.001(2) 0.001(2)
C3 0.019(3) 0.022(3) 0.015(3) -0.003(2) 0.000(2) 0.000(2)
C4 0.014(3) 0.031(3) 0.019(3) -0.001(2) 0.005(2) -0.002(2)
C5 0.023(3) 0.034(4) 0.018(3) -0.005(3) -0.002(2) -0.002(3)
C6 0.036(3) 0.037(3) 0.020(2) -0.009(4) -0.001(2) -0.005(4)
C7 0.047(4) 0.050(3) 0.030(3) 0.003(3) 0.008(3) -0.005(3)
C8 0.055(4) 0.060(4) 0.042(4) 0.003(4) 0.011(4) -0.009(3)
C9 0.075(4) 0.058(5) 0.035(3) -0.001(5) 0.020(3) -0.004(4)
C10 0.071(5) 0.055(4) 0.032(4) -0.004(4) 0.003(4) 0.006(3)
C11 0.051(4) 0.042(3) 0.027(3) 0.002(3) -0.002(3) 0.002(3)
Cd1 0.01802(18) 0.02181(17) 0.02179(19) -0.0004(3) 0.00304(13) 0.0003(3)
N1 0.016(2) 0.018(2) 0.018(2) -0.0013(17) 0.0025(19) -0.0013(17)
O1 0.038(2) 0.0208(16) 0.0243(19) -0.007(5) 0.0081(16) 0.002(4)
O2 0.036(3) 0.025(2) 0.018(2) -0.0050(19) 0.005(2) 0.0002(18)
O3 0.018(2) 0.032(2) 0.038(3) 0.0054(17) 0.002(2) 0.0025(19)
O4 0.019(3) 0.031(3) 0.037(3) -0.004(2) -0.002(2) -0.004(2)
O5 0.027(3) 0.034(3) 0.031(3) 0.003(2) 0.002(2) 0.014(2)
O6 0.033(3) 0.025(2) 0.028(3) -0.005(2) 0.002(2) 0.0018(19)
O7 0.034(3) 0.040(3) 0.057(4) -0.009(3) 0.013(3) 0.005(3)
loop_
_atom_type_symbol
_atom_type_description
_atom_type_scat_dispersion_real
_atom_type_scat_dispersion_imag
_atom_type_scat_source
C C 0.0033 0.0016 'International Tables Vol C Tables 4.2.6.8 and 6.1.1.4'
H H 0.0000 0.0000 'International Tables Vol C Tables 4.2.6.8 and 6.1.1.4'
N N 0.0061 0.0033 'International Tables Vol C Tables 4.2.6.8 and 6.1.1.4'
O O 0.0106 0.0060 'International Tables Vol C Tables 4.2.6.8 and 6.1.1.4'
Cd Cd -0.8075 1.2024 'International Tables Vol C Tables 4.2.6.8 and 6.1.1.4'
loop_
_geom_angle_atom_site_label_1
_geom_angle_atom_site_label_2
_geom_angle_atom_site_label_3
_geom_angle_site_symmetry_1
_geom_angle_site_symmetry_3
_geom_angle
_geom_angle_publ_flag
O1 C1 O2 . . 122.5(6) ?
O1 C1 C2 . . 118.6(5) ?
O2 C1 C2 . . 118.9(5) ?
C1 C2 C3 . . 114.5(5) ?
C1 C2 H2A . . 108.6 ?
C3 C2 H2A . . 108.6 ?
C1 C2 H2B . . 108.6 ?
C3 C2 H2B . . 108.6 ?
H2A C2 H2B . . 107.6 ?
N1 C3 C2 . . 111.8(5) ?
N1 C3 C4 . . 111.4(5) ?
C2 C3 C4 . . 112.2(5) ?
N1 C3 H3 . . 107.0 ?
C2 C3 H3 . . 107.0 ?
C4 C3 H3 . . 107.0 ?
O4 C4 O3 . . 125.2(6) ?
O4 C4 C3 . . 117.0(6) ?
O3 C4 C3 . . 117.8(5) ?
N1 C5 C6 . . 115.7(5) ?
N1 C5 H5A . . 108.4 ?
C6 C5 H5A . . 108.4 ?
N1 C5 H5B . . 108.4 ?
C6 C5 H5B . . 108.4 ?
H5A C5 H5B . . 107.4 ?
C7 C6 C11 . . 118.7(6) ?
C7 C6 C5 . . 122.7(7) ?
C11 C6 C5 . . 118.6(7) ?
C6 C7 C8 . . 122.0(7) ?
C6 C7 H7 . . 119.0 ?
C8 C7 H7 . . 119.0 ?
C9 C8 C7 . . 118.4(8) ?
C9 C8 H8 . . 120.8 ?
C7 C8 H8 . . 120.8 ?
C10 C9 C8 . . 121.0(8) ?
C10 C9 H9 . . 119.5 ?
C8 C9 H9 . . 119.5 ?
C9 C10 C11 . . 119.9(8) ?
C9 C10 H10 . . 120.0 ?
C11 C10 H10 . . 120.0 ?
C10 C11 C6 . . 119.9(8) ?
C10 C11 H11 . . 120.1 ?
C6 C11 H11 . . 120.1 ?
O1 Cd1 O2 2_647 1_655 81.6(2) y
O1 Cd1 O6 2_647 . 114.0(2) ?
O2 Cd1 O6 1_655 . 158.56(15) ?
O1 Cd1 O3 2_647 . 94.07(15) y
O2 Cd1 O3 1_655 . 106.53(16) ?
O6 Cd1 O3 . . 87.70(16) ?
O1 Cd1 N1 2_647 1_655 161.88(18) ?
O2 Cd1 N1 1_655 1_655 82.33(15) y
O6 Cd1 N1 . 1_655 79.72(16) y
O3 Cd1 N1 . 1_655 98.42(16) y
O1 Cd1 O5 2_647 . 88.75(16) ?
O2 Cd1 O5 1_655 . 87.24(16) ?
O6 Cd1 O5 . . 78.83(16) y
O3 Cd1 O5 . . 166.20(16) ?
N1 Cd1 O5 1_655 . 82.23(16) y
C5 N1 C3 . . 112.0(5) ?
C5 N1 Cd1 . 1_455 113.1(3) ?
C3 N1 Cd1 . 1_455 115.9(3) ?
C5 N1 H1 . . 104.8 ?
C3 N1 H1 . . 104.8 ?
Cd1 N1 H1 1_455 . 104.8 ?
C1 O1 Cd1 . 2_657 113.4(5) ?
C1 O2 Cd1 . 1_455 125.2(4) ?
C4 O3 Cd1 . . 126.8(4) ?
Cd1 O5 H5C . . 108.3 ?
Cd1 O5 H5D . . 109.1 ?
H5C O5 H5D . . 115.5 ?
Cd1 O6 H6A . . 108.6 ?
Cd1 O6 H6B . . 109.1 ?
H6A O6 H6B . . 84.0 ?
O7 O7 H7A 1 . 0.0 ?
O7 O7 H7B 1 . 0.0 ?
H7A O7 H7B . . 109.7 ?
loop_
_geom_bond_atom_site_label_1
_geom_bond_atom_site_label_2
_geom_bond_site_symmetry_2
_geom_bond_distance
_geom_bond_publ_flag
C1 O1 . 1.250(9) ?
C1 O2 . 1.252(7) ?
C1 C2 . 1.511(8) ?
C2 C3 . 1.533(8) ?
C2 H2A . 0.9700 ?
C2 H2B . 0.9700 ?
C3 N1 . 1.480(7) ?
C3 C4 . 1.541(8) ?
C3 H3 . 0.9800 ?
C4 O4 . 1.254(8) ?
C4 O3 . 1.259(7) ?
C5 N1 . 1.478(7) ?
C5 C6 . 1.521(8) ?
C5 H5A . 0.9700 ?
C5 H5B . 0.9700 ?
C6 C7 . 1.362(11) ?
C6 C11 . 1.402(10) ?
C7 C8 . 1.389(11) ?
C7 H7 . 0.9300 ?
C8 C9 . 1.384(12) ?
C8 H8 . 0.9300 ?
C9 C10 . 1.365(13) ?
C9 H9 . 0.9300 ?
C10 C11 . 1.390(11) ?
C10 H10 . 0.9300 ?
C11 H11 . 0.9300 ?
Cd1 O1 2_647 2.267(3) ?
Cd1 O2 1_655 2.289(4) ?
Cd1 O6 . 2.298(4) y
Cd1 O3 . 2.312(4) y
Cd1 N1 1_655 2.374(5) y
Cd1 O5 . 2.390(4) ?
N1 Cd1 1_455 2.374(5) ?
N1 H1 . 0.9800 ?
O1 Cd1 2_657 2.267(3) y
O2 Cd1 1_455 2.289(4) y
O5 H5C . 0.8504 ?
O5 H5D . 0.8421 ?
O6 H6A . 0.8625 ?
O6 H6B . 0.8500 ?
O7 O7 1 0.000(18) ?
O7 H7A . 0.8500 ?
O7 H7B . 0.8500 ?
loop_
_geom_hbond_atom_site_label_D
_geom_hbond_atom_site_label_H
_geom_hbond_atom_site_label_A
_geom_hbond_site_symmetry_A
_geom_hbond_distance_DH
_geom_hbond_distance_HA
_geom_hbond_distance_DA
_geom_hbond_angle_DHA
C5 H5B O6 1_455 0.97 2.51 3.182(8) 126.7
C2 H2B O4 1_455 0.97 2.56 3.256(8) 128.8
C2 H2A O7 1_565 0.97 2.55 3.345(8) 139.4
O7 H7B O4 1_545 0.85 2.39 2.865(7) 116.2
O7 H7B O1 1_545 0.85 2.51 3.149(7) 132.3
O7 H7A O5 1_455 0.85 2.36 2.945(7) 126.6
O6 H6B O2 2_647 0.85 2.52 3.055(6) 121.9
O6 H6B O1 1_645 0.85 2.10 2.858(8) 147.7
O6 H6A O7 1 0.86 1.79 2.651(7) 171.7
O5 H5D O4 2_747 0.84 1.92 2.706(7) 154.4
O5 H5C O3 1_655 0.85 2.13 2.829(6) 139.0
N1 H1 O3 . 0.98 2.21 2.712(6) 110.1
loop_
_geom_torsion_atom_site_label_1
_geom_torsion_atom_site_label_2
_geom_torsion_atom_site_label_3
_geom_torsion_atom_site_label_4
_geom_torsion_site_symmetry_1
_geom_torsion_site_symmetry_2
_geom_torsion_site_symmetry_3
_geom_torsion_site_symmetry_4
_geom_torsion
_geom_torsion_publ_flag
O1 C1 C2 C3 . . . . 143.6(5) y
O2 C1 C2 C3 . . . . -36.5(8) y
C1 C2 C3 N1 . . . . 80.6(6) y
C1 C2 C3 C4 . . . . -45.4(7) y
N1 C3 C4 O4 . . . . -161.9(5) ?
C2 C3 C4 O4 . . . . -35.7(7) ?
N1 C3 C4 O3 . . . . 18.9(7) y
C2 C3 C4 O3 . . . . 145.0(6) ?
N1 C5 C6 C7 . . . . 40.6(13) ?
N1 C5 C6 C11 . . . . -136.7(8) ?
C11 C6 C7 C8 . . . . -2.7(14) ?
C5 C6 C7 C8 . . . . -179.9(8) ?
C6 C7 C8 C9 . . . . 0.3(14) ?
C7 C8 C9 C10 . . . . 1.8(16) ?
C8 C9 C10 C11 . . . . -1.5(16) ?
C9 C10 C11 C6 . . . . -1.0(14) ?
C7 C6 C11 C10 . . . . 3.0(14) ?
C5 C6 C11 C10 . . . . -179.6(8) ?
C6 C5 N1 C3 . . . . 64.1(9) ?
C6 C5 N1 Cd1 . . . 1_455 -162.6(6) ?
C2 C3 N1 C5 . . . . 85.2(6) y
C4 C3 N1 C5 . . . . -148.4(5) y
C2 C3 N1 Cd1 . . . 1_455 -46.6(6) ?
C4 C3 N1 Cd1 . . . 1_455 79.8(5) ?
O2 C1 O1 Cd1 . . . 2_657 -13.5(7) y
C2 C1 O1 Cd1 . . . 2_657 166.5(4) ?
O1 C1 O2 Cd1 . . . 1_455 148.0(4) y
C2 C1 O2 Cd1 . . . 1_455 -32.0(8) ?
O4 C4 O3 Cd1 . . . . -10.9(9) ?
C3 C4 O3 Cd1 . . . . 168.2(4) ?

_cod_database_fobs_code 2022510
