#------------------------------------------------------------------------------
#$Date: 2021-09-11 04:56:19 +0300 (Sat, 11 Sep 2021) $
#$Revision: 269097 $
#$URL: file:///home/coder/svn-repositories/cod/cif/2/02/24/2022444.cif $
#------------------------------------------------------------------------------
#
# This file is available in the Crystallography Open Database (COD),
# http://www.crystallography.net/. The original data for this entry
# were provided by IUCr Journals, http://journals.iucr.org/.
#
# The file may be used within the scientific community so long as
# proper attribution is given to the journal article from which the
# data were obtained.
#
data_2022444
loop_
_publ_author_name
'Peloquin, Andrew J.'
'Ragusa, Arianna C.'
'McMillen, Colin D.'
'Pennington, William T.'
_publ_section_title
;
 The reaction of thiourea and 1,3-dimethylthiourea towards organoiodines:
 oxidative bond formation and halogen bonding
;
_journal_coeditor_code           VP3021
_journal_issue                   10
_journal_name_full               'Acta Crystallographica Section C'
_journal_page_first
;
;
_journal_paper_doi               10.1107/S205322962100869X
_journal_volume                  77
_journal_year                    2021
_chemical_formula_iupac          'C6 F3 I3, C3 H8 N2 S'
_chemical_formula_moiety         'C6 F3 I3, C3 H8 N2 S'
_chemical_formula_sum            'C9 H8 F3 I3 N2 S'
_chemical_formula_weight         613.93
_chemical_name_systematic
;
1,3-Dimethylthiourea--1,3,5-trifluoro-2,4,6-triiodobenzene (1/1)
;
_space_group_crystal_system      triclinic
_space_group_IT_number           2
_space_group_name_Hall           '-P 1'
_space_group_name_H-M_alt        'P -1'
_atom_sites_solution_hydrogens   mixed
_atom_sites_solution_primary     dual
_atom_sites_solution_secondary   difmap
_audit_creation_method
;
Olex2 1.3
(compiled 2020.11.12 svn.r5f609507 for OlexSys, GUI svn.r6272)
;
_cell_angle_alpha                79.871(3)
_cell_angle_beta                 83.011(3)
_cell_angle_gamma                74.410(3)
_cell_formula_units_Z            2
_cell_length_a                   7.5014(6)
_cell_length_b                   9.1065(8)
_cell_length_c                   11.8534(10)
_cell_measurement_reflns_used    9841
_cell_measurement_temperature    100(2)
_cell_measurement_theta_max      26.43
_cell_measurement_theta_min      2.35
_cell_volume                     765.41(11)
_computing_cell_refinement
;
SAINT (Bruker, 2017)
;
_computing_data_collection
;
APEX3 (Bruker, 2017)
;
_computing_data_reduction
;
SAINT (Bruker, 2017)
;
_computing_molecular_graphics
;
Mercury (Macrae <i>et al.</i>, 2020)
;
_computing_publication_material
;
publCIF (Westrip, 2010) and OLEX2 (Dolomanov <i>et al.</i>,
2009)
;
_computing_structure_refinement
;
SHELXL2018 (Sheldrick, 2015<i>b</i>)
;
_computing_structure_solution
;
SHELXT2018 (Sheldrick, 2015<i>a</i>)
;
_diffrn_ambient_temperature      99.99
_diffrn_measured_fraction_theta_full 0.991
_diffrn_measured_fraction_theta_max 0.992
_diffrn_measurement_device_type  'Bruker D8 Venture Photon 2'
_diffrn_measurement_method       '\f and \w scans'
_diffrn_radiation_type           MoK\a
_diffrn_radiation_wavelength     0.71073
_diffrn_reflns_av_R_equivalents  0.0235
_diffrn_reflns_av_unetI/netI     0.0148
_diffrn_reflns_limit_h_max       9
_diffrn_reflns_limit_h_min       -9
_diffrn_reflns_limit_k_max       11
_diffrn_reflns_limit_k_min       -11
_diffrn_reflns_limit_l_max       14
_diffrn_reflns_limit_l_min       -14
_diffrn_reflns_number            19222
_diffrn_reflns_theta_full        25.242
_diffrn_reflns_theta_max         26.433
_diffrn_reflns_theta_min         2.348
_diffrn_source                   'Incoatec I\mS'
_diffrn_source_current           1.0
_diffrn_source_power             0.05
_diffrn_source_voltage           50.0
_diffrn_standards_number         0
_exptl_absorpt_coefficient_mu    6.277
_exptl_absorpt_correction_T_max  0.7454
_exptl_absorpt_correction_T_min  0.6598
_exptl_absorpt_correction_type   multi-scan
_exptl_absorpt_process_details
;
(SADABS; Bruker, 2017)
;
_exptl_crystal_colour            colourless
_exptl_crystal_density_diffrn    2.664
_exptl_crystal_density_method    'not measured'
_exptl_crystal_description       block
_exptl_crystal_F_000             556
_exptl_crystal_size_max          0.155
_exptl_crystal_size_mid          0.155
_exptl_crystal_size_min          0.112
_refine_diff_density_max         0.312
_refine_diff_density_min         -0.258
_refine_ls_extinction_method     none
_refine_ls_goodness_of_fit_ref   1.103
_refine_ls_hydrogen_treatment    mixed
_refine_ls_matrix_type           full
_refine_ls_number_parameters     173
_refine_ls_number_reflns         3136
_refine_ls_number_restraints     0
_refine_ls_restrained_S_all      1.103
_refine_ls_R_factor_all          0.0108
_refine_ls_R_factor_gt           0.0105
_refine_ls_shift/su_max          0.003
_refine_ls_shift/su_mean         0.000
_refine_ls_structure_factor_coef Fsqd
_refine_ls_weighting_details
'w=1/[\s^2^(Fo^2^)+(0.0027P)^2^+0.5036P] where P=(Fo^2^+2Fc^2^)/3'
_refine_ls_weighting_scheme      calc
_refine_ls_wR_factor_gt          0.0242
_refine_ls_wR_factor_ref         0.0244
_reflns_number_gt                3075
_reflns_number_total             3136
_reflns_threshold_expression     'I > 2\s(I)'
_cod_data_source_file            vp3021sup1.cif
_cod_data_source_block           7
_cod_database_code               2022444
_shelx_space_group_comment
;
The symmetry employed for this shelxl refinement is uniquely defined
by the following loop, which should always be used as a source of
symmetry information in preference to the above space-group names.
They are only intended as comments.
;
_shelx_estimated_absorpt_t_min   0.443
_shelx_estimated_absorpt_t_max   0.540
_shelx_hkl_file
;
  -1   0   0    2.10    0.60
  -1   0   0    2.50    0.50
  -1   0   0    3.80    0.80
  -1   0   0    2.50    0.60
   1   0   0    2.60    0.60
   1   0   0    2.20    0.40
   1   0   0    2.30    0.70
   1   0   0    2.90    0.70
   1   0   0    2.30    0.70
   1   0   0    2.10    0.30
  -3   0   0  733.23   25.20
  -3   0   0  793.82   24.60
  -3   0   0  768.92   21.10
  -3   0   0  806.42   22.60
   3   0   0  837.62   25.90
   3   0   0  819.92   24.30
   3   0   0  768.92   21.10
   3   0   0  787.62   24.30
   4   0   0 9999.00  244.38
  -5   0   0  479.15   15.30
  -5   0   0  490.85   17.40
  -5   0   0  477.75   20.00
  -5   0   0  491.85   21.80
   5   0   0  464.85   14.30
   5   0   0  498.85   14.80
   5   0   0  431.96   18.70
   5   0   0  511.35   15.60
  -6   0   0 2613.94   76.79
  -6   0   0 2472.75   73.19
  -6   0   0 2589.44   68.49
   6   0   0 2520.85   65.39
   6   0   0 2518.95   63.79
   6   0   0 2549.34   63.69
   6   0   0 2535.65   71.99
  -7   0   0   85.29   10.00
  -7   0   0   82.99    8.80
   7   0   0   82.29    4.60
   7   0   0   81.29    8.10
   7   0   0   87.79    4.40
   7   0   0   80.79    5.50
  -8   0   0  309.97   21.30
  -8   0   0  302.67   19.00
   8   0   0  252.57   16.40
   8   0   0  278.87   14.70
   8   0   0  292.07    9.90
   8   0   0  285.27   12.40
  -9   0   0   11.70    4.50
  -9   0   0   12.40    5.60
   9   0   0   14.90    3.80
   9   0   0   12.20    2.70
   9   0   0   10.30    4.00
   8  -1   0 1549.94   52.79
   8  -1   0 1506.85   41.40
   8  -1   0 1533.95   42.20
   8  -1   0 1527.85   44.30
  -8   1   0 1588.74   55.19
  -8   1   0 1501.95   57.09
   7  -1   0  670.13   21.20
   7  -1   0  720.93   29.30
   7  -1   0  692.13   23.00
  -7   1   0  677.83   22.70
  -7   1   0  707.63   32.30
   6  -1   0 2395.26   62.29
   6  -1   0 2377.56   68.99
  -6   1   0 2315.57   61.89
  -6   1   0 2267.17   69.19
  -6   1   0 2441.56   72.69
   5  -1   0  629.74   20.00
   5  -1   0  620.54   24.30
  -5   1   0  630.84   24.80
  -5   1   0  628.04   19.90
  -5   1   0  678.63   26.70
   4  -1   0 3585.64   88.59
   4  -1   0 3587.34   93.49
   4  -1   0 3510.55   85.29
   4  -1   0 3517.45   92.99
  -4   1   0 3589.34   88.59
  -4   1   0 3659.03   95.19
  -4   1   0 3467.45   93.29
   3  -1   0 1027.50   31.00
   3  -1   0  995.90   27.50
   3  -1   0 1006.10   30.40
  -3   1   0 1101.59   32.10
  -3   1   0  999.50   27.50
  -3   1   0  987.40   30.50
   2  -1   0 2854.11   70.69
   2  -1   0 3053.89   71.09
   2  -1   0 2713.83   72.59
  -2   1   0 2969.20   70.99
  -2   1   0 2917.31   73.39
  -2   1   0 2849.42   70.59
  -2   1   0 2807.22   72.79
  -1   1   0 2494.85   60.99
   0  -1   0    9.50    0.80
   0   1   0    7.30    0.90
   0   1   0    9.50    1.10
  -1  -1   0 1898.81   44.50
   1   1   0 1764.32   44.40
  -2  -1   0   76.99    2.40
  -2  -1   0   69.59    3.80
  -2  -1   0   74.29    4.70
  -2  -1   0   69.89    3.70
  -2  -1   0   70.19    3.70
   2   1   0   67.39    2.30
   2   1   0   67.29    4.50
   2   1   0   67.99    3.60
   2   1   0   67.79    4.10
   2   1   0   68.79    2.60
   2   1   0   68.39    3.60
   2   1   0   71.49    3.70
   2   1   0   73.49    4.10
  -3  -1   0 4602.54  115.69
  -3  -1   0 4804.22  114.49
  -3  -1   0 4573.84  117.79
   3   1   0 5006.00  118.19
   3   1   0 4426.06  115.99
   3   1   0 4587.64  114.79
  -4  -1   0  608.04   22.00
  -4  -1   0  597.34   23.40
  -4  -1   0  651.13   20.20
   4   1   0  658.43   21.10
   4   1   0  636.84   17.50
   4   1   0  647.84   16.50
  -5  -1   0 4098.29   99.99
  -5  -1   0 3877.61  103.29
  -5  -1   0 3926.91  106.19
   5   1   0 3992.20  101.49
   5   1   0 3765.42   94.19
   5   1   0 3885.11   96.09
  -6  -1   0  211.78   10.90
  -6  -1   0  192.58   12.50
  -6  -1   0  190.98   13.90
   6   1   0  210.58    9.30
   6   1   0  205.88   11.90
   6   1   0  218.98    8.50
   6   1   0  212.68   10.80
  -7  -1   0 2421.16   71.39
  -7  -1   0 2296.07   74.39
  -7  -1   0 2448.35   66.09
   7   1   0 2293.77   61.69
   7   1   0 2312.57   65.49
   7   1   0 2440.86   68.49
   7   1   0 2288.87   60.79
  -8  -1   0    1.70    1.70
  -8  -1   0    6.20    3.30
   8   1   0    1.90    1.20
   8   1   0    1.90    1.10
   8   1   0    0.80    1.60
   8   1   0    4.10    1.60
  -9  -1   0 1113.59   49.10
   9   1   0 1156.08   39.10
   9   1   0 1136.39   33.30
   9   1   0 1120.19   32.30
   9   1   0 1146.89   42.10
   8  -2   0  312.67   13.20
   8  -2   0  325.97   14.30
   8  -2   0  331.97   20.40
   8  -2   0  332.77   15.10
  -8   2   0  340.27   22.80
  -8   2   0  346.47   21.30
   7  -2   0  182.58    9.70
   7  -2   0  162.38   12.80
  -7   2   0  165.58    9.40
  -7   2   0  175.48   14.60
  -7   2   0  171.98   13.60
   6  -2   0 1122.09   40.30
   6  -2   0 1072.99   33.00
  -6   2   0 1100.69   39.50
  -6   2   0 1124.79   41.10
  -6   2   0 1073.29   33.00
   5  -2   0 1272.07   36.60
   5  -2   0 1314.07   42.30
  -5   2   0 1296.97   43.10
  -5   2   0 1304.77   42.30
  -5   2   0 1240.48   36.50
   4  -2   0 3275.77   81.59
   4  -2   0 3244.98   86.89
  -4   2   0 3233.78   81.49
  -4   2   0 3065.89   86.59
  -4   2   0 3243.08   86.49
   3  -2   0 2598.34   72.09
   3  -2   0 2697.73   68.09
  -3   2   0 2722.63   71.69
  -3   2   0 2693.23   68.59
  -3   2   0 2698.33   68.09
  -3   2   0 2710.73   71.79
   2  -2   0 4510.55  109.99
  -2   2   0 4321.07  111.49
  -2   2   0 4598.74  110.69
  -2   2   0 4570.14  112.59
  -1   2   0 4539.95  110.89
   0   2   0 3384.06   82.99
  -2  -2   0 3064.79   75.49
  -2  -2   0 2901.11   75.29
  -2  -2   0 3149.28   76.79
  -2  -2   0 3097.29   76.49
   2   2   0 3103.29   78.19
   2   2   0 3206.68   75.49
   2   2   0 3097.39   76.59
  -3  -2   0 1451.95   41.00
  -3  -2   0 1458.05   37.60
  -3  -2   0 1348.77   38.00
  -3  -2   0 1484.95   38.20
  -3  -2   0 1444.26   34.80
   3   2   0 1425.86   37.30
   3   2   0 1359.66   40.60
   3   2   0 1323.07   39.20
  -4  -2   0  529.85   18.60
  -4  -2   0  556.24   21.20
  -4  -2   0  505.15   17.70
  -4  -2   0  526.35   17.70
   4   2   0  517.85   19.50
   4   2   0  523.85   14.40
   4   2   0  510.25   17.40
  -5  -2   0  366.76   14.70
  -5  -2   0  363.36   18.10
   5   2   0  357.96   14.40
   5   2   0  373.66   14.70
   5   2   0  356.66   11.00
  -6  -2   0  258.87   12.70
  -6  -2   0  260.87   16.50
   6   2   0  275.17   12.80
   6   2   0  270.67    9.40
   6   2   0  268.37   13.10
  -7  -2   0    2.50    1.60
  -7  -2   0    3.30    2.40
   7   2   0    3.40    1.60
   7   2   0    7.50    1.60
  -8  -2   0  255.17   14.10
  -8  -2   0  229.38   18.00
   8   2   0  228.38   11.30
   8   2   0  236.18    9.50
   8   2   0  226.58   12.90
   8   2   0  189.68   15.90
  -9  -2   0   86.19   12.00
  -9  -2   0   84.59    8.40
   9   2   0   85.09    8.90
   9   2   0   88.39    8.50
   9   2   0   88.59    6.60
   9   2   0   91.89    5.60
   8  -3   0  280.27   14.40
   8  -3   0  304.67   14.80
   8  -3   0  314.47   28.70
  -8   3   0  289.87   14.70
  -8   3   0  312.17   20.70
   7  -3   0  174.08   10.20
   7  -3   0  165.28   13.80
  -7   3   0  175.68   14.50
  -7   3   0  158.68   13.70
   6  -3   0  475.65   23.70
   6  -3   0  483.95   18.80
  -6   3   0  518.45   24.30
  -6   3   0  494.05   24.30
  -6   3   0  471.35   18.60
   5  -3   0    5.70    2.10
   5  -3   0    2.60    1.40
  -5   3   0    4.80    1.70
  -5   3   0    6.60    2.90
  -5   3   0    3.10    2.30
   4  -3   0  378.56   14.40
   4  -3   0  356.86   17.50
  -4   3   0  339.87   16.80
  -4   3   0  406.06   17.90
  -4   3   0  382.36   14.50
  -4   3   0  381.26   14.80
   3  -3   0  427.46   15.60
   3  -3   0  426.26   15.10
  -3   3   0  440.06   17.90
  -3   3   0  416.56   15.00
  -3   3   0  435.56   15.70
  -3   3   0  425.96   17.00
   2  -3   0 1035.00   29.40
   2  -3   0 1047.20   30.00
  -2   3   0 1002.90   29.30
  -2   3   0 1051.09   26.20
  -2   3   0 1068.39   30.50
  -2   3   0 1059.79   30.20
   1  -3   0 3072.49   76.39
   1  -3   0 3003.10   77.09
  -1   3   0 3207.68   77.79
  -1   3   0 3059.99   77.19
  -1   3   0 2948.91   76.19
   0  -3   0 2601.84   65.19
   0  -3   0 2571.24   63.99
   0   3   0 2521.85   63.89
   0   3   0 2571.14   65.29
  -2  -3   0 2700.63   67.09
  -2  -3   0 2719.53   65.69
  -2  -3   0 2661.63   66.29
  -2  -3   0 2852.01   69.29
  -2  -3   0 2604.84   68.09
   2   3   0 2673.33   66.29
   2   3   0 2734.83   68.89
   2   3   0 2631.74   65.49
   2   3   0 2590.74   68.89
  -3  -3   0 3531.55   86.89
  -3  -3   0 3474.45   89.79
  -3  -3   0 3655.73   88.19
  -3  -3   0 3470.95   87.89
  -3  -3   0 3582.34   89.59
  -3  -3   0 3775.02   92.59
   3   3   0 3510.35   87.69
   3   3   0 3487.05   91.89
   3   3   0 3570.04   85.79
   3   3   0 3524.05   89.69
  -4  -3   0 3627.84   88.49
  -4  -3   0 3283.77   87.19
  -4  -3   0 3330.27   92.39
  -4  -3   0 3418.16   88.89
  -4  -3   0 3436.36   83.89
   4   3   0 3540.95   88.69
   4   3   0 3430.56   90.69
   4   3   0 3669.13   87.19
  -5  -3   0 1997.60   59.99
  -5  -3   0 1868.51   53.89
  -5  -3   0 1995.00   55.49
  -5  -3   0 2111.29   55.29
   5   3   0 1946.21   49.00
   5   3   0 1962.40   54.49
   5   3   0 1992.40   53.39
  -6  -3   0 1753.92   58.49
  -6  -3   0 1852.81   52.79
   6   3   0 1866.11   46.20
   6   3   0 1850.51   52.49
   6   3   0 1847.32   51.69
  -7  -3   0  384.46   22.30
  -7  -3   0  392.56   17.90
   7   3   0  406.66   17.80
   7   3   0  397.46   12.40
   7   3   0  386.76   17.20
  -8  -3   0  713.33   28.10
  -8  -3   0  743.13   35.40
   8   3   0  720.53   27.80
   8   3   0  765.02   26.50
   8   3   0  757.62   28.30
  -9  -3   0   13.80    4.40
  -9  -3   0   13.10    5.90
   9   3   0    8.20    3.20
   9   3   0    9.60    2.00
   9   3   0    8.80    2.80
   9   3   0    8.30    2.50
   7  -4   0 1857.61   55.99
   7  -4   0 1836.32   62.79
   7  -4   0 1817.92   54.19
  -7   4   0 1878.01   63.09
  -7   4   0 1880.11   63.19
  -7   4   0 1770.72   54.19
   6  -4   0   83.29    6.90
   6  -4   0   70.09    8.40
   6  -4   0   73.29    7.00
  -6   4   0   84.19    9.30
  -6   4   0   73.69    8.70
   5  -4   0 3366.46   89.19
   5  -4   0 3420.86   90.49
   5  -4   0 3442.56   96.79
  -5   4   0 3200.58   94.09
  -5   4   0 3434.06   89.59
  -5   4   0 3424.66   90.19
  -5   4   0 3526.85   96.39
   4  -4   0  793.12   26.50
   4  -4   0  788.82   25.70
   4  -4   0  754.42   29.90
  -4   4   0  783.42   29.70
  -4   4   0  776.82   28.60
  -4   4   0  791.92   25.90
  -4   4   0  808.52   26.60
   3  -4   0 5367.56  132.89
   3  -4   0 5277.37  133.59
  -3   4   0 5357.66  132.99
  -3   4   0 5396.56  137.39
  -3   4   0 5382.16  134.39
  -3   4   0 5193.78  134.59
   2  -4   0 1595.54   43.30
   2  -4   0 1564.64   44.20
  -2   4   0 1612.24   39.90
  -2   4   0 1566.04   43.40
  -2   4   0 1577.14   44.70
   1  -4   0 3243.28   82.29
   1  -4   0 3241.98   83.59
  -1   4   0 3257.87   82.29
  -1   4   0 3194.28   83.89
  -1   4   0 3364.26   83.69
   0  -4   0 2450.35   64.59
   0  -4   0 2444.56   62.89
   0   4   0 2421.96   64.79
   0   4   0 2494.65   62.99
   0   4   0 2554.54   64.89
  -1  -4   0  552.54   18.50
  -1  -4   0  540.75   16.70
   1   4   0  555.84   16.80
   1   4   0  573.74   17.20
   1   4   0  545.45   18.30
   1   4   0  563.14   18.60
  -2  -4   0 1701.53   46.70
  -2  -4   0 1849.21   44.90
   2   4   0 1760.72   45.70
   2   4   0 1838.92   48.80
   2   4   0 1827.02   48.80
   2   4   0 1837.32   48.30
  -3  -4   0   84.39    4.90
  -3  -4   0   80.49    4.30
  -3  -4   0   83.49    4.70
  -3  -4   0   96.09    6.70
  -3  -4   0   81.49    5.60
   3   4   0   83.99    6.30
   3   4   0   88.79    4.70
   3   4   0   86.89    5.80
   3   4   0   83.79    4.00
  -4  -4   0   80.79    4.40
  -4  -4   0   85.49    5.20
  -4  -4   0   90.79    5.40
  -4  -4   0   90.29    7.40
  -4  -4   0   88.59    6.50
   4   4   0   92.29    5.20
  -5  -4   0   24.00    3.10
  -5  -4   0   22.30    3.30
  -5  -4   0   17.30    3.80
  -5  -4   0   19.00    3.30
  -5  -4   0   22.90    1.90
   5   4   0   31.60    3.90
   5   4   0   24.80    3.10
  -6  -4   0   22.30    3.40
  -6  -4   0   20.10    3.80
  -6  -4   0   23.40    4.80
   6   4   0   27.30    2.00
   6   4   0   22.50    3.10
   6   4   0   21.60    3.50
  -7  -4   0    1.80    2.10
  -7  -4   0   -0.90    1.10
   7   4   0   -0.10    1.00
   7   4   0    1.30    0.50
   7   4   0    0.10    0.80
  -8  -4   0  164.18   11.80
  -8  -4   0  156.08   14.50
   8   4   0  164.68   11.40
   8   4   0  174.88    6.20
   8   4   0  182.28   11.20
  -9  -4   0   15.40    5.50
  -9  -4   0   20.20    4.70
   9   4   0   12.20    3.50
   9   4   0   12.80    3.80
   9   4   0    5.70    2.80
   7  -5   0   71.39    7.90
   7  -5   0   85.49    9.90
   7  -5   0   60.69    6.80
  -7   5   0   85.99   10.10
  -7   5   0   57.09    6.70
  -7   5   0   63.29    9.20
   6  -5   0   79.59    7.10
   6  -5   0   81.99    9.70
   6  -5   0   68.59    7.40
  -6   5   0   69.69    8.90
  -6   5   0   80.49    7.20
  -6   5   0   74.69    8.80
   5  -5   0    7.10    2.30
   5  -5   0    5.60    2.60
   5  -5   0    3.30    1.80
  -5   5   0    1.80    1.70
  -5   5   0   13.10    3.80
  -5   5   0    8.60    3.20
   4  -5   0  773.12   27.20
   4  -5   0  787.62   31.30
   4  -5   0  736.73   26.00
  -4   5   0  739.13   30.20
  -4   5   0  767.22   28.30
  -4   5   0  802.52   27.80
  -4   5   0  759.22   26.30
   3  -5   0  142.99    8.40
   3  -5   0  139.49    8.90
  -3   5   0  140.49    9.30
  -3   5   0  150.18   12.40
  -3   5   0  134.69    8.70
  -3   5   0  141.59    5.20
   2  -5   0 1954.70   53.59
   2  -5   0 1948.41   54.89
  -2   5   0 1933.11   53.19
  -2   5   0 2018.00   50.09
  -2   5   0 1971.10   53.89
  -2   5   0 1994.00   55.79
   1  -5   0   76.09    6.00
   1  -5   0   79.19    5.50
  -1   5   0   90.09    6.70
  -1   5   0   83.09    5.60
  -1   5   0   87.59    6.30
   0  -5   0 5052.79  127.69
   0  -5   0 5006.40  125.59
   0   5   0 5060.19  127.99
   0   5   0 5105.69  125.79
   0   5   0 5175.38  128.49
  -1  -5   0   24.00    2.70
  -1  -5   0   22.80    3.20
   1   5   0   17.20    2.20
   1   5   0   17.60    2.30
   1   5   0   17.50    2.70
   1   5   0   18.70    3.00
  -2  -5   0 6944.31  166.08
  -2  -5   0 6731.73  165.08
  -2  -5   0 6693.73  168.48
   2   5   0 6723.63  167.58
   2   5   0 6941.31  168.58
   2   5   0 6864.01  169.08
  -3  -5   0  281.57   12.70
  -3  -5   0  282.87   11.70
  -3  -5   0  309.27   11.00
  -3  -5   0  285.77    9.60
   3   5   0  273.17   12.60
   3   5   0  277.27   12.20
   3   5   0  295.47   10.10
   3   5   0  280.87   13.10
  -4  -5   0 3748.43   95.49
  -4  -5   0 3825.92  101.49
  -4  -5   0 3726.03   98.69
  -4  -5   0 3879.31   95.29
  -4  -5   0 3749.12   95.59
  -4  -5   0 4032.50  100.19
   4   5   0 3894.31   95.39
   4   5   0 3809.62   99.19
   4   5   0 3731.63   93.39
  -5  -5   0  921.51   34.50
  -5  -5   0  965.10   31.50
  -5  -5   0  978.30   29.20
  -5  -5   0 1008.30   27.40
  -5  -5   0  998.70   29.90
   5   5   0  961.20   28.70
   5   5   0  963.90   25.90
   5   5   0  999.20   32.10
  -6  -5   0 1672.13   47.70
  -6  -5   0 1675.53   50.99
  -6  -5   0 1675.93   55.29
  -6  -5   0 1561.54   42.30
   6   5   0 1718.53   42.10
   6   5   0 1707.03   50.29
   6   5   0 1703.83   46.90
   6   5   0 1727.63   42.40
  -7  -5   0  636.74   23.60
  -7  -5   0  599.94   25.10
  -7  -5   0  678.83   30.70
   7   5   0  620.34   24.80
   7   5   0  589.34   22.00
  -8  -5   0  280.17   16.30
  -8  -5   0  284.87   20.20
   8   5   0  251.97   14.90
   8   5   0  257.07   13.40
  -9  -5   0  271.57   16.70
  -9  -5   0  255.27   20.50
   9   5   0  254.77   15.00
   9   5   0  287.17   19.20
   9   5   0  239.88   15.50
   6  -6   0 1324.47   42.70
   6  -6   0 1292.07   49.50
   6  -6   0 1309.67   43.90
  -6   6   0 1293.17   43.60
  -6   6   0 1250.27   42.50
  -6   6   0 1337.57   46.80
  -6   6   0 1324.77   50.09
   5  -6   0  462.25   20.70
   5  -6   0  426.36   19.20
   5  -6   0  460.05   24.40
  -5   6   0  454.55   24.10
  -5   6   0  460.25   20.10
  -5   6   0  460.05   21.10
  -5   6   0  477.15   21.90
   4  -6   0 1787.22   58.99
   4  -6   0 1838.02   54.49
   4  -6   0 1848.02   53.09
  -4   6   0 1838.42   58.99
  -4   6   0 1818.32   55.19
  -4   6   0 1780.82   54.09
   3  -6   0  245.98   12.10
   3  -6   0  219.88   12.50
  -3   6   0  216.78   11.80
  -3   6   0  233.48   11.90
  -3   6   0  225.48   13.00
  -3   6   0  230.18    8.10
   2  -6   0 2244.68   62.59
   2  -6   0 2182.38   60.79
  -2   6   0 2193.28   56.89
  -2   6   0 2195.48   60.99
  -2   6   0 2320.37   59.59
  -2   6   0 2191.28   63.39
   1  -6   0  283.77   13.50
   1  -6   0  268.57   12.10
  -1   6   0  263.07   13.10
  -1   6   0  283.07   14.10
   0  -6   0  955.60   31.30
   0  -6   0  988.30   29.60
   0   6   0  965.70   31.70
   0   6   0  965.10   29.50
   0   6   0  999.90   32.30
  -1  -6   0  261.07   12.70
  -1  -6   0  270.37   11.10
   1   6   0  275.37   13.20
   1   6   0  236.18   12.40
   1   6   0  278.27   11.30
   1   6   0  252.27   10.40
  -2  -6   0  122.59    8.20
  -2  -6   0  121.19    6.50
  -2  -6   0  118.59    6.90
   2   6   0  118.59    8.20
   2   6   0  119.99    8.10
   2   6   0  122.19    7.50
   2   6   0  136.89    6.90
  -3  -6   0  449.95   17.90
  -3  -6   0  435.06   13.00
  -3  -6   0  417.66   15.00
  -3  -6   0  459.95   17.10
   3   6   0  421.26   14.40
   3   6   0  401.36   17.40
   3   6   0  417.26   17.40
   3   6   0  417.46   17.20
  -4  -6   0    4.00    1.60
  -4  -6   0    1.30    1.10
  -4  -6   0    2.00    1.00
  -4  -6   0    0.80    1.00
   4   6   0    8.70    2.70
   4   6   0    1.40    0.90
   4   6   0    2.50    1.40
  -5  -6   0 1080.29   31.10
  -5  -6   0 1052.79   35.80
  -5  -6   0 1041.60   31.20
  -5  -6   0 1118.19   31.60
  -5  -6   0 1038.60   37.40
  -5  -6   0 1033.40   34.60
   5   6   0 1062.49   28.90
   5   6   0 1086.79   34.00
   5   6   0 1060.99   35.30
  -6  -6   0   64.79    8.00
  -6  -6   0   71.79    4.50
  -6  -6   0   70.79    7.30
  -6  -6   0   70.19    5.60
   6   6   0   66.49    5.30
   6   6   0   71.89    3.80
   6   6   0   76.39    7.40
  -7  -6   0  831.42   32.60
  -7  -6   0  861.91   29.20
  -7  -6   0  909.81   37.40
   7   6   0  890.41   28.40
   7   6   0  887.21   32.40
  -8  -6   0    9.00    3.60
  -8  -6   0   10.10    4.50
   8   6   0   14.40    4.00
   8   6   0    9.10    2.90
   5  -7   0  280.37   15.20
   5  -7   0  291.77   16.40
   5  -7   0  285.37   19.60
  -5   7   0  260.57   18.70
  -5   7   0  305.47   16.70
  -5   7   0  265.57   15.30
  -5   7   0  308.17   17.40
   4  -7   0 1140.49   39.20
   4  -7   0 1244.78   44.70
   4  -7   0 1110.29   37.60
  -4   7   0 1146.49   37.70
  -4   7   0 1110.99   38.10
  -4   7   0 1120.89   40.20
  -4   7   0 1181.58   44.00
   3  -7   0 1266.07   41.30
   3  -7   0 1231.38   39.50
  -3   7   0 1264.87   42.60
  -3   7   0 1293.07   38.60
  -3   7   0 1235.78   33.50
   2  -7   0 2148.19   60.69
   2  -7   0 2221.08   62.49
  -2   7   0 2145.69   63.49
  -2   7   0 2087.19   57.39
  -2   7   0 2143.59   56.19
   1  -7   0 2331.77   71.59
   1  -7   0 2222.48   62.89
  -1   7   0 2308.47   63.39
  -1   7   0 2259.67   66.59
  -1   7   0 2373.26   65.79
   0  -7   0 1614.64   47.90
   0  -7   0 1560.44   45.40
   0   7   0 1609.44   48.40
   0   7   0 1577.74   48.90
   0   7   0 1590.84   45.80
  -1  -7   0 3651.03   96.99
  -1  -7   0 3597.24   93.29
   1   7   0 3734.23   97.59
   1   7   0 3616.74   93.49
   1   7   0 3545.65   97.39
   1   7   0 3686.73   92.09
  -2  -7   0  773.22   25.10
  -2  -7   0  761.22   24.10
  -2  -7   0  773.02   27.40
   2   7   0  759.72   27.70
   2   7   0  762.52   24.20
   2   7   0  794.32   28.00
   2   7   0  729.53   24.80
  -3  -7   0 3166.48   84.19
  -3  -7   0 3128.59   83.29
  -3  -7   0 3044.00   79.89
   3   7   0 3081.19   79.19
   3   7   0 3131.39   84.49
   3   7   0 3013.60   83.79
  -4  -7   0  219.58    8.30
  -4  -7   0  216.78   10.00
  -4  -7   0  221.98   11.50
  -4  -7   0  219.68   12.50
   4   7   0  241.38   13.40
   4   7   0  212.28   12.30
   4   7   0  228.18    9.50
  -5  -7   0 1219.38   41.30
  -5  -7   0 1269.87   37.20
  -5  -7   0 1203.98   40.30
  -5  -7   0 1282.07   35.00
  -5  -7   0 1248.48   35.90
   5   7   0 1235.58   39.80
   5   7   0 1256.57   41.30
   5   7   0 1244.98   34.10
  -6  -7   0    1.10    1.10
  -6  -7   0    1.90    1.10
  -6  -7   0    3.30    2.20
   6   7   0    1.90    1.90
   6   7   0    4.10    2.20
   6   7   0    3.80    1.20
  -7  -7   0  340.97   19.10
  -7  -7   0  357.66   12.30
  -7  -7   0  344.17   15.00
   7   7   0  363.36   17.40
   7   7   0  323.77   14.10
   7   7   0  352.66   10.70
   7   7   0  329.47   18.20
   7   7   0  359.76   10.60
  -8  -7   0   -0.40    2.10
   8   7   0    3.40    1.90
   8   7   0   -2.30    0.90
   8   7   0    1.70    0.80
   4  -8   0  268.57   15.90
   4  -8   0  262.07   18.40
   4  -8   0  279.17   15.20
  -4   8   0  277.47   14.00
  -4   8   0  270.17   15.50
  -4   8   0  251.37   18.30
  -4   8   0  294.27   17.60
   3  -8   0   31.30    5.40
   3  -8   0   21.50    4.10
  -3   8   0   26.30    2.90
  -3   8   0   30.50    4.80
  -3   8   0   25.40    3.80
  -3   8   0   29.70    5.40
  -3   8   0   30.00    3.20
   2  -8   0   84.59    7.90
   2  -8   0   70.09    6.70
  -2   8   0   69.69    5.20
  -2   8   0   71.39    5.30
  -2   8   0   78.69    8.30
   1  -8   0   13.80    3.30
   1  -8   0    9.20    2.70
  -1   8   0   12.80    3.10
  -1   8   0   13.60    4.00
  -1   8   0   34.00    5.40
   0  -8   0  136.59    9.90
   0  -8   0  135.19    8.70
   0   8   0  143.09    9.10
   0   8   0  129.49   10.00
   0   8   0  137.89   10.70
   0   8   0  133.89    6.60
  -1  -8   0  680.63   25.60
  -1  -8   0  640.24   22.50
   1   8   0  615.74   22.30
   1   8   0  602.64   20.10
   1   8   0  630.24   25.80
   1   8   0  619.54   25.30
  -2  -8   0  232.38   13.70
  -2  -8   0  226.88   11.70
  -2  -8   0  221.18   13.10
  -2  -8   0  241.38   11.20
   2   8   0  234.38   13.90
   2   8   0  241.18   14.10
   2   8   0  232.78   11.20
   2   8   0  229.28   11.20
  -3  -8   0 1357.06   42.30
  -3  -8   0 1320.17   38.90
   3   8   0 1298.07   43.00
   3   8   0 1295.27   38.10
  -4  -8   0  481.85   19.70
  -4  -8   0  435.86   16.80
   4   8   0  451.95   20.80
   4   8   0  441.26   16.20
   4   8   0  464.95   20.70
  -5  -8   0 1090.99   33.00
  -5  -8   0 1149.29   39.80
  -5  -8   0 1102.99   35.20
   5   8   0 1114.69   38.90
   5   8   0 1121.59   31.90
   5   8   0 1099.39   38.10
  -6  -8   0  712.33   24.40
  -6  -8   0  684.83   28.40
  -6  -8   0  700.03   23.40
  -6  -8   0  715.83   29.90
   6   8   0  703.33   21.30
   6   8   0  741.03   28.40
   6   8   0  728.73   29.30
  -7  -8   0  648.34   21.70
  -7  -8   0  669.03   29.60
  -7  -8   0  663.43   22.90
   7   8   0  670.63   19.00
   7   8   0  642.24   26.80
   7   8   0  704.63   29.10
  -8  -8   0  451.75   23.70
   8   8   0  393.36   20.20
   3  -9   0 1618.24   50.99
   3  -9   0 1593.44   52.79
  -3   9   0 1559.34   43.10
  -3   9   0 1632.74   44.00
  -3   9   0 1608.64   51.19
  -3   9   0 1596.74   44.30
  -3   9   0 1642.94   55.39
   2  -9   0  343.67   18.30
   2  -9   0  319.17   16.60
  -2   9   0  333.77   13.70
  -2   9   0  323.97   18.90
  -2   9   0  360.96   17.70
   1  -9   0 2175.88   66.19
   1  -9   0 2271.67   64.19
  -1   9   0 2163.18   64.09
  -1   9   0 2185.78   68.99
  -1   9   0 2309.27   67.59
   0  -9   0  524.25   23.60
   0  -9   0  538.15   21.60
   0   9   0  540.85   25.20
   0   9   0  574.44   24.60
   0   9   0  546.65   21.90
  -1  -9   0 1240.28   38.10
  -1  -9   0 1261.77   41.80
   1   9   0 1209.78   43.60
   1   9   0 1122.79   33.80
   1   9   0 1252.07   42.40
   1   9   0 1235.68   38.40
  -2  -9   0  702.23   26.00
  -2  -9   0  717.43   28.60
  -2  -9   0  753.52   29.50
  -2  -9   0  752.72   25.50
   2   9   0  709.03   24.20
   2   9   0  737.43   29.50
   2   9   0  737.53   25.50
  -3  -9   0  358.66   15.60
  -3  -9   0  344.17   17.70
  -3  -9   0  349.07   18.10
   3   9   0  352.96   18.60
   3   9   0  332.87   14.60
  -4  -9   0  327.07   16.70
  -4  -9   0  310.97   13.80
   4   9   0  342.07   13.90
   4   9   0  328.77   18.10
   4   9   0  322.77   17.90
  -5  -9   0    5.20    2.20
  -5  -9   0    6.10    2.60
  -5  -9   0    5.20    2.90
  -5  -9   0    7.00    2.40
   5   9   0    3.40    2.50
   5   9   0    6.20    3.10
   5   9   0   11.20    2.40
  -6  -9   0   24.20    5.20
  -6  -9   0   20.00    3.50
  -6  -9   0   13.80    3.30
  -6  -9   0   10.60    4.10
   6   9   0   13.10    4.20
   6   9   0   16.70    4.70
   6   9   0   20.20    2.70
  -7  -9   0   88.99    6.90
  -7  -9   0   83.99    6.40
  -7  -9   0  105.29   10.70
   7   9   0   89.19    9.10
   7   9   0  108.39   12.80
   7   9   0   80.39    4.80
   2 -10   0   69.79    8.30
   1 -10   0   11.80    4.90
   1 -10   0   15.70    4.00
  -1  10   0   20.80    5.10
  -1  10   0   10.40    2.80
  -1  10   0    9.70    4.00
   0 -10   0  291.57   18.10
   0 -10   0  264.47   16.20
   0 -10   0  263.07   14.40
   0  10   0  268.07   15.00
   0  10   0  274.47   16.60
   0  10   0  261.07   17.40
  -1 -10   0    5.90    2.70
  -1 -10   0    9.70    3.00
  -1 -10   0   10.40    3.00
   1  10   0   17.10    3.50
   1  10   0   21.60    4.70
   1  10   0   14.70    4.20
  -2 -10   0  743.73   27.10
  -2 -10   0  787.02   28.80
  -2 -10   0  804.42   32.30
  -2 -10   0  787.22   31.60
   2  10   0  760.92   32.40
   2  10   0  766.92   27.70
   2  10   0  789.92   28.90
   2  10   0  773.92   32.00
  -3 -10   0    6.70    2.60
  -3 -10   0    4.20    2.10
  -3 -10   0    5.60    2.60
   3  10   0    7.10    2.80
   3  10   0    7.00    2.90
   3  10   0    3.70    2.20
  -4 -10   0  738.23   29.30
  -4 -10   0  708.43   30.20
  -4 -10   0  711.73   25.20
   4  10   0  708.23   30.70
   4  10   0  746.73   25.20
   4  10   0  688.83   30.50
  -5 -10   0   15.20    3.10
  -5 -10   0   13.70    4.30
  -5 -10   0   16.20    3.90
  -5 -10   0   16.80    4.20
   5  10   0   17.20    5.00
   5  10   0   18.10    4.20
   5  10   0   17.00    3.20
  -6 -10   0  364.46   17.50
  -6 -10   0  343.57   14.20
  -6 -10   0  328.87   20.30
   6  10   0  360.76   20.30
   6  10   0  351.26   13.90
   6  10   0  344.57   20.30
  -1 -11   0   16.70    4.40
  -1 -11   0   10.20    3.30
  -1 -11   0   11.00    3.50
   1  11   0    4.90    3.20
   1  11   0    7.30    3.00
   1  11   0    7.90    3.60
  -2 -11   0  156.48   13.00
  -2 -11   0  201.18   20.00
   2  11   0  165.58   11.90
   2  11   0  162.68   14.00
   2  11   0  213.58   15.10
  -3 -11   0   42.00    6.50
  -3 -11   0   41.80    5.70
  -3 -11   0   40.70    6.80
   3  11   0   35.70    5.20
   3  11   0   33.00    6.30
   3  11   0   32.10    6.90
  -4 -11   0    9.90    3.60
  -4 -11   0   10.20    2.80
   4  11   0    6.00    2.40
   4  11   0   11.20    4.30
   4  11   0    7.90    4.10
   3  11  -1  176.08   17.10
   3  11  -1  178.58   11.10
   3  11  -1  190.78   15.20
  -3 -11   1  202.48   21.20
  -3 -11   1  216.88   15.10
   2  11  -1   -0.40    1.70
   2  11  -1    0.80    1.90
  -2 -11   1    9.90    3.50
  -2 -11   1    5.50    2.80
  -2 -11   1    4.20    3.10
   5  10  -1   11.50    4.50
   5  10  -1    7.40    3.10
  -5 -10   1    3.30    2.40
  -5 -10   1    7.30    3.00
  -5 -10   1   19.50    3.50
   4  10  -1 2194.78   68.99
   4  10  -1 2220.08   68.89
   4  10  -1 2185.88   60.49
  -4 -10   1 2081.69   62.09
  -4 -10   1 2198.48   67.69
  -4 -10   1 2276.57   66.59
   3  10  -1   53.19    5.70
   3  10  -1   52.59    7.80
   3  10  -1   70.19    8.20
  -3 -10   1   55.99    6.20
  -3 -10   1   51.29    7.10
  -3 -10   1   68.49   11.70
   2  10  -1 1829.72   58.09
   2  10  -1 1790.82   52.49
   2  10  -1 1768.42   58.69
  -2 -10   1 1792.02   57.29
  -2 -10   1 1693.73   51.49
  -2 -10   1 1827.22   58.09
  -2 -10   1 1748.53   54.39
   1  10  -1  150.88   10.20
   1  10  -1  137.69   11.50
   1  10  -1  147.99   12.60
  -1 -10   1  132.89   11.10
  -1 -10   1  148.39    9.90
   0  10  -1  863.61   33.30
   0  10  -1  874.61   35.50
   0  10  -1  806.72   34.20
   0 -10   1  764.42   29.10
   0 -10   1  756.32   31.60
  -1  10  -1  155.78   13.50
  -1  10  -1  160.88   11.30
  -1  10  -1  175.08   13.40
   1 -10   1  147.49   12.20
   1 -10   1  151.98   11.10
   7   9  -1  189.48   13.70
   7   9  -1  189.28   14.70
  -7  -9   1  176.48   10.30
  -7  -9   1  170.38   10.30
  -7  -9   1  211.38   15.70
   6   9  -1   62.49    7.90
   6   9  -1   44.80    6.50
   6   9  -1   47.30    3.80
  -6  -9   1   41.60    5.00
  -6  -9   1   46.00    6.90
  -6  -9   1   43.70    5.20
  -6  -9   1   30.20    5.90
   5   9  -1  360.56   20.00
   5   9  -1  387.66   20.10
   5   9  -1  389.26   14.40
  -5  -9   1  377.16   16.20
  -5  -9   1  371.66   17.50
  -5  -9   1  391.06   20.10
   4   9  -1   65.69    5.40
   4   9  -1   52.69    6.90
   4   9  -1   51.79    6.90
  -4  -9   1   70.79    6.30
  -4  -9   1   78.99    8.10
  -4  -9   1   62.09    6.80
   3   9  -1  663.43   27.90
   3   9  -1  657.53   22.60
   3   9  -1  593.14   24.00
   3   9  -1  641.64   27.20
  -3  -9   1  639.64   24.10
  -3  -9   1  671.93   26.70
  -3  -9   1  627.34   26.50
   2   9  -1  322.27   14.70
   2   9  -1  322.57   18.10
   2   9  -1  341.07   18.00
   2   9  -1  314.97   12.30
  -2  -9   1  335.57   14.70
  -2  -9   1  332.97   16.20
  -2  -9   1  334.07   17.50
   1   9  -1 1055.09   34.30
   1   9  -1 1041.00   38.60
   1   9  -1 1047.50   37.80
  -1  -9   1 1050.29   33.90
  -1  -9   1 1063.69   37.30
   0   9  -1  456.95   22.50
   0   9  -1  421.06   20.70
   0   9  -1  439.96   19.00
   0  -9   1  445.96   20.80
   0  -9   1  438.56   18.80
  -1   9  -1 1119.59   35.30
  -1   9  -1 1139.39   37.70
  -1   9  -1 1119.29   41.50
  -1   9  -1 1146.69   40.00
   1  -9   1 1120.09   39.30
   1  -9   1 1124.49   37.20
  -2   9  -1  212.28   13.10
  -2   9  -1  211.58   15.00
  -2   9  -1  220.38   11.00
   2  -9   1  208.48   13.60
   2  -9   1  234.08   13.60
  -3   9  -1  811.02   34.60
  -3   9  -1  904.81   38.50
  -3   9  -1  821.92   25.80
   3  -9   1  807.52   32.30
   3  -9   1  975.20   41.10
   7   8  -1 1062.09   37.50
   7   8  -1 1061.99   39.00
  -7  -8   1 1037.70   29.90
  -7  -8   1  972.50   39.00
  -7  -8   1  970.40   33.00
   6   8  -1 1589.94   50.89
   6   8  -1 1583.84   41.20
   6   8  -1 1576.14   51.69
  -6  -8   1 1656.33   46.70
  -6  -8   1 1552.34   51.09
  -6  -8   1 1618.44   45.60
  -6  -8   1 1506.55   51.99
   5   8  -1 1582.94   50.29
   5   8  -1 1654.33   42.90
   5   8  -1 1626.74   51.29
  -5  -8   1 1674.63   47.30
  -5  -8   1 1529.65   51.39
  -5  -8   1 1462.35   45.50
   4   8  -1 1028.50   36.60
   4   8  -1 1081.79   37.60
   4   8  -1 1049.99   30.80
  -4  -8   1  990.30   32.80
  -4  -8   1 1122.19   35.30
   3   8  -1 1909.41   51.29
   3   8  -1 1745.23   54.39
   3   8  -1 1934.51   57.19
   3   8  -1 1828.22   56.59
  -3  -8   1 1885.61   53.29
  -3  -8   1 1894.51   55.79
  -3  -8   1 1884.61   56.39
   2   8  -1  409.46   16.10
   2   8  -1  404.86   19.10
   2   8  -1  405.86   19.50
   2   8  -1  393.16   15.00
  -2  -8   1  396.96   18.60
  -2  -8   1  411.56   15.90
  -2  -8   1  407.16   17.50
   1   8  -1  974.10   30.80
   1   8  -1  923.91   34.30
   1   8  -1  971.20   34.10
  -1  -8   1  964.50   30.60
  -1  -8   1  950.00   33.40
   0   8  -1   28.20    4.70
   0   8  -1   34.10    5.10
   0   8  -1   32.20    4.10
   0  -8   1   35.20    5.00
   0  -8   1   26.00    3.80
  -1   8  -1  152.68   10.00
  -1   8  -1  158.78   11.80
  -1   8  -1  154.18   10.90
   1  -8   1  176.58   10.40
   1  -8   1  150.48   10.70
  -2   8  -1   12.10    3.20
  -2   8  -1    2.80    1.40
  -2   8  -1    5.40    2.90
   2  -8   1    3.20    1.50
   2  -8   1    5.10    2.20
  -3   8  -1   24.00    3.00
  -3   8  -1   12.20    3.20
  -3   8  -1   14.10    2.60
  -3   8  -1   19.40    5.20
   3  -8   1   16.70    4.10
   3  -8   1   17.60    4.10
  -4   8  -1   18.80    6.00
  -4   8  -1   11.20    4.00
  -4   8  -1   12.20    3.50
  -4   8  -1   19.60    4.30
   4  -8   1   19.80    4.50
   4  -8   1   15.30    3.80
   8   7  -1  227.58   15.40
   8   7  -1  222.48   12.20
  -8  -7   1  238.48   15.60
  -8  -7   1  225.88   15.50
  -8  -7   1  209.78   17.20
   7   7  -1   48.40    5.10
   7   7  -1   49.99    6.90
  -7  -7   1   49.30    7.70
  -7  -7   1   44.20    5.10
  -7  -7   1   48.80    3.30
  -7  -7   1   59.69    7.40
   6   7  -1  104.09    4.50
   6   7  -1  111.69    9.10
   6   7  -1  102.39    8.50
  -6  -7   1   97.69    9.10
  -6  -7   1  104.59    6.40
  -6  -7   1  114.39   10.60
  -6  -7   1  103.09    7.40
   5   7  -1  434.76   13.50
   5   7  -1  388.26   18.30
   5   7  -1  411.56   19.20
  -5  -7   1  405.06   16.40
  -5  -7   1  439.56   16.50
  -5  -7   1  388.86   19.30
   4   7  -1   96.99    7.90
   4   7  -1   98.79    8.10
   4   7  -1   88.09    5.30
  -4  -7   1   89.99    6.50
  -4  -7   1   99.49    7.20
   3   7  -1 1320.47   41.70
   3   7  -1 1423.96   43.90
   3   7  -1 1435.86   39.00
   3   7  -1 1417.76   44.20
  -3  -7   1 1421.16   41.10
  -3  -7   1 1419.26   43.70
   2   7  -1   94.39    6.10
   2   7  -1   91.79    7.80
   2   7  -1  105.69    6.40
   2   7  -1  103.49    8.10
  -2  -7   1   95.89    6.10
  -2  -7   1  105.89   12.00
  -2  -7   1   93.39    6.90
   1   7  -1 1739.13   45.70
   1   7  -1 1799.12   52.69
   1   7  -1 1764.92   49.10
   1   7  -1 1764.12   52.79
  -1  -7   1 1805.32   49.10
  -1  -7   1 1735.23   51.79
   0   7  -1  224.98   13.00
   0   7  -1  224.78   12.50
   0   7  -1  210.48   11.30
   0  -7   1  213.58   12.00
   0  -7   1  216.78   10.80
  -1   7  -1 1150.48   35.80
  -1   7  -1 1231.18   37.90
  -1   7  -1 1088.69   38.00
   1  -7   1 1128.99   35.30
   1  -7   1 1128.59   36.90
  -2   7  -1  273.67   11.10
  -2   7  -1  271.97   15.30
  -2   7  -1  260.77    9.70
   2  -7   1  250.37   12.90
   2  -7   1  270.67   14.20
  -3   7  -1  229.48   13.90
  -3   7  -1  237.68   10.70
  -3   7  -1  232.98    9.30
   3  -7   1  228.28   13.10
   3  -7   1  226.38   12.40
  -4   7  -1  210.08   13.00
  -4   7  -1  195.18   12.30
  -4   7  -1  186.08   12.90
  -4   7  -1  217.18   16.10
   4  -7   1  196.98   12.10
   4  -7   1  194.08   12.40
  -5   7  -1    3.20    2.40
  -5   7  -1   -0.40    1.60
  -5   7  -1   -1.00    1.90
  -5   7  -1   -0.20    2.30
   5  -7   1    0.60    1.90
   5  -7   1    2.90    2.40
   5  -7   1   -0.40    2.20
   8   6  -1   71.49    6.90
   8   6  -1   75.69    8.30
  -8  -6   1   67.29    8.00
  -8  -6   1   84.99   14.60
  -8  -6   1   64.19    7.10
   7   6  -1 1446.86   47.30
   7   6  -1 1428.16   43.50
  -7  -6   1 1493.05   48.10
  -7  -6   1 1454.95   52.29
  -7  -6   1 1439.26   44.40
   6   6  -1  180.08    9.70
   6   6  -1  163.08   11.20
  -6  -6   1  168.68   11.60
  -6  -6   1  164.18   12.90
  -6  -6   1  158.18    9.50
  -6  -6   1  169.88    7.20
   5   6  -1 1243.28   39.80
   5   6  -1 1227.08   36.30
   5   6  -1 1198.08   31.90
  -5  -6   1 1218.08   39.20
  -5  -6   1 1143.49   39.50
  -5  -6   1 1245.88   41.70
  -5  -6   1 1354.86   37.30
  -5  -6   1 1227.78   34.80
   4   6  -1  207.38   11.20
   4   6  -1  199.88   11.60
   4   6  -1  201.18    8.00
  -4  -6   1  209.88   12.10
  -4  -6   1  211.58   16.30
  -4  -6   1  232.38   10.50
  -4  -6   1  216.18   10.30
   3   6  -1  302.77   14.10
   3   6  -1  300.77   14.20
   3   6  -1  346.67   11.80
   3   6  -1  330.27   14.90
  -3  -6   1  314.47   13.10
  -3  -6   1  309.07   14.40
   2   6  -1  192.18   10.70
   2   6  -1  197.28    9.30
   2   6  -1  194.58    8.60
   2   6  -1  199.38   10.90
  -2  -6   1  194.58    9.80
  -2  -6   1  195.68   10.70
  -2  -6   1  194.08    8.60
   1   6  -1    8.60    2.80
   1   6  -1    8.30    2.10
   1   6  -1    4.70    1.80
   1   6  -1    8.00    1.50
  -1  -6   1    4.30    1.10
  -1  -6   1    2.90    1.20
  -1  -6   1    8.90    2.60
   0   6  -1   41.20    4.80
   0   6  -1   38.40    3.90
   0   6  -1   32.90    4.30
   0  -6   1   35.00    4.20
   0  -6   1   43.90    4.10
  -1   6  -1  358.76   14.60
  -1   6  -1  332.37   15.10
  -1   6  -1  359.66   16.30
   1  -6   1  357.96   14.40
   1  -6   1  335.97   15.10
  -2   6  -1   10.50    2.80
  -2   6  -1    3.60    1.30
  -2   6  -1    7.20    1.60
  -2   6  -1   13.00    4.10
   2  -6   1    6.40    2.20
   2  -6   1    3.60    1.60
  -3   6  -1  451.35   16.90
  -3   6  -1  439.86   14.20
  -3   6  -1  434.86   19.40
   3  -6   1  458.75   19.00
   3  -6   1  465.35   24.80
  -4   6  -1   96.39    7.60
  -4   6  -1   99.09    8.30
  -4   6  -1  101.59   10.20
   4  -6   1   93.59    7.90
   4  -6   1   78.09    7.00
  -5   6  -1  286.87   15.50
  -5   6  -1  293.67   19.00
  -5   6  -1  293.67   15.20
  -5   6  -1  277.47   15.40
   5  -6   1  297.47   19.20
   5  -6   1  252.87   14.10
   5  -6   1  278.17   14.80
  -6   6  -1   75.69    9.90
  -6   6  -1   81.49    9.00
  -6   6  -1   87.59   10.70
  -6   6  -1   69.79    7.60
   6  -6   1   70.19    7.60
   6  -6   1   71.19    7.70
   6  -6   1   74.79   10.40
   9   5  -1   28.40    5.20
  -9  -5   1   26.10    5.00
   8   5  -1  430.56   21.00
   8   5  -1  430.26   18.90
  -8  -5   1  431.66   25.50
  -8  -5   1  410.56   20.30
   7   5  -1    2.80    1.90
   7   5  -1    0.70    1.00
  -7  -5   1    1.80    2.50
  -7  -5   1    0.40    1.40
  -7  -5   1    0.80    1.20
   6   5  -1 1060.99   35.80
   6   5  -1 1086.69   33.50
  -6  -5   1 1079.09   40.10
  -6  -5   1 1037.60   35.90
  -6  -5   1 1131.39   34.50
   5   5  -1   12.30    2.50
   5   5  -1    5.60    1.70
   5   5  -1    4.90    0.90
  -5  -5   1    0.80    1.40
  -5  -5   1    1.40    1.20
  -5  -5   1    2.20    1.00
   4   5  -1 1839.12   48.70
   4   5  -1 1787.42   51.09
   4   5  -1 1803.02   45.00
  -4  -5   1 1816.82   47.60
  -4  -5   1 1798.12   50.89
  -4  -5   1 1643.84   48.30
  -4  -5   1 1828.62   52.89
   3   5  -1   44.20    3.00
   3   5  -1   39.30    4.40
   3   5  -1   40.10    4.40
  -3  -5   1   37.80    4.20
  -3  -5   1   44.60    4.40
  -3  -5   1   50.99    4.20
   2   5  -1 1850.11   51.09
   2   5  -1 1842.82   47.60
   2   5  -1 1777.02   50.69
   2   5  -1 1850.11   49.60
  -2  -5   1 1775.22   47.40
  -2  -5   1 1851.91   50.89
  -2  -5   1 1918.81   49.90
   1   5  -1  317.17   11.40
   1   5  -1  306.47   13.10
   1   5  -1  295.77   10.40
   1   5  -1  293.17   13.00
  -1  -5   1  307.67   13.00
  -1  -5   1  312.07   11.30
   0   5  -1  888.81   28.40
   0   5  -1  873.91   27.90
   0   5  -1  892.21   26.40
   0  -5   1  883.61   27.70
   0  -5   1  885.11   26.20
  -1   5  -1  686.53   22.70
  -1   5  -1  741.53   19.60
  -1   5  -1  706.63   24.50
  -1   5  -1  726.33   23.90
   1  -5   1  703.83   22.60
   1  -5   1  699.63   23.60
  -2   5  -1  172.88    7.80
  -2   5  -1  164.88    7.00
  -2   5  -1  172.18   10.00
  -2   5  -1  155.38    8.70
   2  -5   1  148.79    8.90
   2  -5   1  156.78    8.60
  -3   5  -1  712.33   23.30
  -3   5  -1  681.13   19.10
  -3   5  -1  646.84   24.10
  -3   5  -1  689.03   23.70
   3  -5   1  660.33   23.20
   3  -5   1  698.93   24.00
  -4   5  -1   50.99    6.80
  -4   5  -1   62.69    6.10
  -4   5  -1   65.79    6.20
  -4   5  -1   61.49    5.80
   4  -5   1   64.79    5.90
   4  -5   1   56.99    5.60
  -5   5  -1  435.06   20.50
  -5   5  -1  456.45   28.20
  -5   5  -1  447.86   19.30
   5  -5   1  472.95   23.00
   5  -5   1  454.65   23.40
   5  -5   1  413.66   18.20
  -6   5  -1  284.77   14.90
  -6   5  -1  283.77   14.80
  -6   5  -1  278.77   18.80
  -6   5  -1  303.87   17.70
   6  -5   1  284.17   14.60
   6  -5   1  298.47   19.40
   6  -5   1  262.87   14.40
   9   4  -1  160.18   11.90
   9   4  -1  149.99   10.80
   9   4  -1  151.78   11.90
  -9  -4   1  157.78   12.10
  -9  -4   1  159.28   15.80
   8   4  -1 1086.79   37.10
   8   4  -1  993.00   35.40
  -8  -4   1 1087.79   37.10
  -8  -4   1  974.30   42.90
   7   4  -1   44.30    5.30
   7   4  -1   35.80    4.90
  -7  -4   1   33.40    4.90
  -7  -4   1   40.50    5.40
  -7  -4   1   37.40    6.80
   6   4  -1  895.71   29.30
   6   4  -1  889.21   30.70
  -6  -4   1  889.01   30.00
  -6  -4   1  916.01   35.70
  -6  -4   1  934.51   30.90
   5   4  -1    2.20    1.20
   5   4  -1    5.80    1.80
  -5  -4   1    6.80    2.40
  -5  -4   1    1.50    1.40
  -5  -4   1    2.70    1.20
  -5  -4   1    3.20    0.70
   4   4  -1  196.18   10.10
   4   4  -1  193.98    6.10
   4   4  -1  181.18    8.80
  -4  -4   1  206.98   10.40
  -4  -4   1  195.28    7.40
  -4  -4   1  192.98    9.10
  -4  -4   1  174.48   11.00
   3   4  -1   38.90    2.40
   3   4  -1   37.40    4.20
   3   4  -1   39.00    3.40
  -3  -4   1   39.00    4.20
  -3  -4   1   43.80    4.00
  -3  -4   1   41.30    3.50
   2   4  -1  116.59    6.90
   2   4  -1  117.39    5.10
   2   4  -1  117.49    6.60
  -2  -4   1  126.49    6.40
  -2  -4   1  124.79    6.60
  -2  -4   1  111.49    6.60
  -2  -4   1  110.89    5.00
   1   4  -1    9.40    1.90
   1   4  -1   10.60    1.40
   1   4  -1    8.80    2.00
   1   4  -1    5.80    1.40
  -1  -4   1   11.70    2.00
  -1  -4   1   18.20    2.00
   0   4  -1  689.63   21.00
   0   4  -1  707.73   22.50
   0   4  -1  774.22   24.20
   0  -4   1  700.53   20.30
   0  -4   1  717.43   21.10
   0  -4   1  688.53   22.10
  -1   4  -1   43.30    4.00
  -1   4  -1   38.20    3.90
  -1   4  -1   39.40    2.50
  -1   4  -1   44.80    3.70
   1  -4   1   39.60    3.70
   1  -4   1   39.30    3.50
  -2   4  -1  798.72   21.80
  -2   4  -1  746.53   24.20
  -2   4  -1  781.82   25.60
  -2   4  -1  814.52   23.60
   2  -4   1  785.22   24.80
   2  -4   1  805.62   24.40
  -3   4  -1  105.79    6.80
  -3   4  -1   94.29    6.70
  -3   4  -1  112.19    7.20
  -3   4  -1  107.09    4.40
   3  -4   1  110.99    6.90
   3  -4   1  104.09    6.80
  -4   4  -1  244.58   14.60
  -4   4  -1  230.58   11.50
  -4   4  -1  246.88   12.80
   4  -4   1  221.78   11.00
   4  -4   1  227.68   11.30
  -5   4  -1  172.98    9.70
  -5   4  -1  137.19    8.90
  -5   4  -1  150.58   11.00
  -5   4  -1  148.19   11.90
   5  -4   1  144.99    9.10
   5  -4   1  149.19   12.00
   5  -4   1  148.19    8.90
  -6   4  -1   29.70    5.50
  -6   4  -1   34.10    6.20
   6  -4   1   29.80    4.30
   6  -4   1   25.80    4.10
   6  -4   1   24.00    5.60
  -7   4  -1   12.90    3.60
  -7   4  -1    8.50    3.90
  -7   4  -1   13.10    4.50
   7  -4   1   13.50    5.20
   7  -4   1   12.20    3.40
   7  -4   1   14.40    3.20
   9   3  -1  224.58   12.40
   9   3  -1  213.68   14.00
   9   3  -1  219.18   14.30
  -9  -3   1  230.48   19.50
  -9  -3   1  237.78   14.50
   8   3  -1 1117.29   38.00
   8   3  -1 1139.89   50.59
  -8  -3   1 1075.29   37.40
  -8  -3   1 1117.69   46.20
   7   3  -1  866.61   36.30
   7   3  -1  688.33   26.20
  -7  -3   1  670.63   26.00
  -7  -3   1  721.93   32.60
   6   3  -1 1988.10   58.49
   6   3  -1 2103.79   59.59
  -6  -3   1 2185.38   60.59
  -6  -3   1 2132.79   66.09
  -6  -3   1 2189.08   59.69
   5   3  -1 1592.04   45.80
   5   3  -1 1629.94   45.20
  -5  -3   1 1584.84   45.60
  -5  -3   1 1623.74   45.90
  -5  -3   1 1561.74   50.19
   4   3  -1 2447.35   65.69
   4   3  -1 2314.37   63.39
   4   3  -1 2458.75   62.69
  -4  -3   1 2287.67   63.19
  -4  -3   1 2462.15   62.99
  -4  -3   1 2378.96   66.99
   3   3  -1 3039.00   73.39
   3   3  -1 3050.99   78.09
   3   3  -1 3010.50   80.19
   3   3  -1 3112.99   75.39
   3   3  -1 3154.38   77.09
  -3  -3   1 3084.09   80.19
  -3  -3   1 3054.09   77.19
  -3  -3   1 2966.00   77.79
  -3  -3   1 3024.80   74.89
   2   3  -1 1154.08   31.20
   2   3  -1 1130.79   32.50
   2   3  -1 1137.59   32.00
   2   3  -1 1112.89   29.00
  -2  -3   1 1164.78   32.50
  -2  -3   1 1152.88   31.20
  -2  -3   1 1158.98   29.00
  -2  -3   1 1176.88   28.80
   1   3  -1 3629.54   90.49
   1   3  -1 3529.75   90.29
   1   3  -1 3720.13   89.09
  -1  -3   1 3704.53   90.59
  -1  -3   1 3724.13   88.99
  -1  -3   1 3703.63   90.29
  -1  -3   1 3477.95   88.39
   0   3  -1    2.80    1.00
   0   3  -1    9.80    1.40
   0   3  -1    8.70    1.60
   0  -3   1    3.50    0.90
   0  -3   1    5.40    1.20
   0  -3   1    4.50    1.20
  -1   3  -1 2044.60   48.00
  -1   3  -1 1867.21   49.90
  -1   3  -1 1911.31   49.70
  -1   3  -1 1919.11   50.59
   1  -3   1 1909.31   49.50
   1  -3   1 1889.51   49.99
  -2   3  -1  545.85   17.40
  -2   3  -1  520.75   15.00
  -2   3  -1  567.74   17.50
  -2   3  -1  547.95   18.10
   2  -3   1  551.84   17.60
   2  -3   1  523.65   17.20
  -3   3  -1  289.87   14.20
  -3   3  -1  305.67   13.10
  -3   3  -1  306.57    8.80
  -3   3  -1  309.97   12.30
  -3   3  -1  306.07   12.00
   3  -3   1  291.57   11.70
   3  -3   1  307.07   12.00
  -4   3  -1  784.02   29.10
  -4   3  -1  778.32   25.00
  -4   3  -1  788.82   24.90
  -4   3  -1  801.82   27.90
   4  -3   1  811.32   25.10
   4  -3   1  775.32   25.00
  -5   3  -1   50.39    6.40
  -5   3  -1   70.59    7.60
  -5   3  -1   66.39    5.20
  -5   3  -1   65.39    7.10
   5  -3   1   60.69    7.10
   5  -3   1   68.69    5.50
   5  -3   1   55.09    5.20
  -6   3  -1  644.04   28.30
  -6   3  -1  651.23   23.40
  -6   3  -1  638.74   28.50
   6  -3   1  681.93   29.10
   6  -3   1  641.94   23.10
  -7   3  -1  229.78   16.60
  -7   3  -1  206.58   15.80
   7  -3   1  218.88   11.90
   7  -3   1  201.38   15.30
   7  -3   1  205.38   11.90
  -8   3  -1  192.98   16.20
  -8   3  -1  209.68   17.30
  -8   3  -1  190.98   11.80
   8  -3   1  208.08   12.10
   8  -3   1  200.28   18.80
   8  -3   1  199.98   12.70
   9   2  -1   68.79    6.00
   9   2  -1   69.29    7.60
   9   2  -1   63.99    4.10
   9   2  -1   69.19    8.30
  -9  -2   1   68.49   10.70
  -9  -2   1   66.39    7.30
   8   2  -1  377.56   17.80
   8   2  -1  312.87   14.60
   8   2  -1  351.66   14.90
   8   2  -1  341.57   18.10
  -8  -2   1  356.46   17.10
  -8  -2   1  368.36   23.10
   7   2  -1   38.40    5.20
   7   2  -1   33.20    4.60
   7   2  -1   35.70    2.80
  -7  -2   1   37.40    6.50
  -7  -2   1   38.50    4.80
   6   2  -1  121.89    5.00
   6   2  -1  117.69    8.20
   6   2  -1  122.39    8.50
  -6  -2   1  121.19    8.00
  -6  -2   1  125.59    9.20
  -6  -2   1  137.19   11.50
   5   2  -1    4.00    0.80
   5   2  -1    3.70    1.60
   5   2  -1    0.10    0.70
  -5  -2   1    1.70    1.30
  -5  -2   1    0.00    1.20
  -5  -2   1    3.50    1.40
   4   2  -1   11.50    2.10
   4   2  -1   11.60    2.10
   4   2  -1    9.90    2.40
   4   2  -1   12.40    1.00
  -4  -2   1   13.40    2.40
  -4  -2   1   13.20    3.00
  -4  -2   1   16.70    2.40
   3   2  -1  209.18   10.20
   3   2  -1  196.48    8.50
   3   2  -1  184.48    9.10
   3   2  -1  194.18    8.30
  -3  -2   1  179.38    8.20
  -3  -2   1  200.38   10.20
  -3  -2   1  207.78    8.50
   2   2  -1   19.50    1.00
   2   2  -1   20.60    2.10
   2   2  -1   17.80    2.10
   2   2  -1   15.70    2.30
  -2  -2   1   17.40    2.00
  -2  -2   1   17.50    2.40
   1   2  -1 1016.60   25.30
   1   2  -1  929.81   23.70
   1   2  -1  971.40   25.40
   1   2  -1  897.11   25.20
  -1  -2   1  986.10   25.20
  -1  -2   1  909.51   23.70
  -1  -2   1  907.81   25.90
  -1  -2   1  924.91   25.30
   0   2  -1    1.70    0.60
   0   2  -1    2.40    0.80
   0   2  -1    3.60    1.10
   0  -2   1    5.30    1.00
   0  -2   1    2.10    0.60
   0  -2   1    1.60    0.70
  -1   2  -1 1867.01   46.40
  -1   2  -1 2053.19   46.80
  -1   2  -1 1840.82   47.50
  -1   2  -1 1910.51   48.10
  -1   2  -1 1843.92   47.50
   1  -2   1 1804.02   48.00
   1  -2   1 1898.71   47.50
   1  -2   1 1842.22   47.50
  -2   2  -1   44.80    2.20
  -2   2  -1   40.90    3.10
  -2   2  -1   43.50    3.50
  -2   2  -1   44.30    3.20
   2  -2   1   44.30    3.10
   2  -2   1   43.90    3.20
  -3   2  -1 1137.79   34.20
  -3   2  -1 1192.48   31.80
  -3   2  -1 1062.29   34.70
  -3   2  -1 1159.38   32.00
  -3   2  -1 1164.08   28.60
   3  -2   1 1172.98   31.90
  -4   2  -1   80.89    7.10
  -4   2  -1   75.99    6.70
  -4   2  -1   84.49    5.40
  -4   2  -1   79.59    5.00
   4  -2   1   75.99    5.10
  -5   2  -1  164.88   11.40
  -5   2  -1  172.68   11.50
  -5   2  -1  161.58    8.50
   5  -2   1  152.08   11.00
   5  -2   1  167.18    8.60
  -6   2  -1   77.59    8.70
  -6   2  -1   94.99    9.30
   6  -2   1   81.39    8.30
   6  -2   1   88.39    6.40
  -7   2  -1   -0.60    1.60
  -7   2  -1    2.10    2.40
  -7   2  -1    1.10    1.10
   7  -2   1    5.80    2.10
   7  -2   1   -0.70    1.50
  -8   2  -1    1.30    2.40
  -8   2  -1    4.60    3.80
   8  -2   1    1.30    1.30
   8  -2   1   -1.10    1.20
   8  -2   1    1.40    2.30
   9   1  -1  621.24   19.90
   9   1  -1  620.14   26.30
   9   1  -1  645.34   28.90
   9   1  -1  614.14   19.40
   9   1  -1  639.84   20.20
  -9  -1   1  608.84   34.10
   8   1  -1   11.30    3.70
   8   1  -1    5.00    1.70
   8   1  -1    7.40    1.80
   8   1  -1   15.30    3.40
  -8  -1   1    9.70    4.60
  -8  -1   1    3.50    2.70
   7   1  -1 1064.89   29.60
   7   1  -1 1049.99   31.00
   7   1  -1  998.20   36.30
   7   1  -1 1148.99   35.60
  -7  -1   1 1082.79   34.60
  -7  -1   1 1021.00   41.70
   6   1  -1  120.89    8.90
  -6  -1   1  107.59    7.20
  -6  -1   1  103.19   10.00
  -6  -1   1   91.19    8.40
   5   1  -1 1284.67   33.60
   5   1  -1 1227.18   38.90
  -5  -1   1 1325.47   43.40
  -5  -1   1 1297.07   40.00
  -5  -1   1 1331.77   37.20
  -5  -1   1 1326.47   40.90
   4   1  -1  303.27   12.70
   4   1  -1  291.77   13.40
   4   1  -1  306.57    9.20
  -4  -1   1  293.07   12.80
  -4  -1   1  297.57   11.30
  -4  -1   1  316.37   13.70
   3   1  -1  680.33   17.40
   3   1  -1  680.23   21.70
   3   1  -1  734.93   21.30
  -3  -1   1  690.43   21.20
  -3  -1   1  645.24   19.60
  -3  -1   1  656.53   23.10
   2   1  -1  359.76   11.50
   2   1  -1  370.86   11.90
   2   1  -1  361.36   12.40
  -2  -1   1  369.56   13.30
   1   1  -1  142.99    3.70
   1   1  -1  143.49    5.20
   1   1  -1  141.29    5.30
  -1  -1   1  129.29    5.20
  -1  -1   1  139.19    5.60
  -1  -1   1  140.99    3.70
   0   1  -1    5.50    0.80
   0   1  -1    6.30    0.80
   0   1  -1    6.70    0.60
   0   1  -1    5.80    0.70
   0  -1   1    6.60    0.70
   0  -1   1    5.00    0.50
  -1   1  -1  547.45   14.00
  -1   1  -1  520.05   16.50
  -1   1  -1  546.65   14.70
  -1   1  -1  564.24   14.90
  -1   1  -1  523.85   14.50
   1  -1   1  516.65   14.70
   1  -1   1  524.75   14.20
   1  -1   1  552.64   14.70
   1  -1   1  544.75   13.90
   1  -1   1  503.55   15.20
  -2   1  -1   13.10    1.10
  -2   1  -1   13.20    1.40
  -2   1  -1   12.20    2.00
  -2   1  -1   13.90    2.00
  -2   1  -1   11.00    1.80
  -2   1  -1   12.90    1.50
   2  -1   1   13.20    1.60
   2  -1   1   14.60    1.10
   2  -1   1   13.30    1.80
  -3   1  -1 1422.86   41.70
  -3   1  -1 1543.25   42.40
  -3   1  -1 1461.35   38.60
  -3   1  -1 1435.36   37.90
  -3   1  -1 1414.46   41.70
   3  -1   1 1483.65   36.40
   3  -1   1 1499.25   38.70
   3  -1   1 1527.05   44.00
  -4   1  -1  162.88    9.90
  -4   1  -1  176.18   10.70
  -4   1  -1  174.28    7.70
   4  -1   1  180.28    5.90
   4  -1   1  166.48    9.80
   4  -1   1  179.88    7.70
   4  -1   1  160.28    9.80
  -5   1  -1 1460.35   46.00
  -5   1  -1 1485.65   47.20
  -5   1  -1 1428.26   40.20
   5  -1   1 1460.85   40.30
   5  -1   1 1485.85   37.00
   5  -1   1 1491.15   45.60
  -6   1  -1  350.46   19.50
  -6   1  -1  372.86   19.10
  -6   1  -1  361.56   14.00
   6  -1   1  361.66   18.20
   6  -1   1  368.66   14.10
   6  -1   1  352.96   10.60
  -7   1  -1 1052.29   45.90
  -7   1  -1  996.80   40.60
   7  -1   1 1023.40   30.20
   7  -1   1 1039.20   31.50
   7  -1   1  976.00   37.10
  -8   1  -1  146.29   13.30
  -8   1  -1  165.48   15.20
   8  -1   1  155.08    9.40
   8  -1   1  142.69   12.40
   8  -1   1  148.79    7.80
   8   0  -1   18.20    2.90
   8   0  -1   15.40    1.80
   8   0  -1   20.70    4.60
   8   0  -1   15.00    2.00
  -8   0   1   22.30    7.60
  -8   0   1   12.20    4.40
   7   0  -1   10.00    3.30
   7   0  -1   12.90    1.70
   7   0  -1    8.90    1.80
   7   0  -1   16.30    2.60
  -7   0   1   20.80    5.30
  -7   0   1   22.40    4.90
   6   0  -1  180.78   11.60
   6   0  -1  175.48    7.20
   6   0  -1  182.58    7.90
   6   0  -1  176.68    6.20
   6   0  -1  162.78    6.30
  -6   0   1  166.68    9.10
  -6   0   1  173.28    7.60
  -6   0   1  164.18   11.70
  -6   0   1  156.88   12.80
   5   0  -1  256.27    8.50
   5   0  -1  247.28   12.90
   5   0  -1  269.67    9.60
  -5   0   1  249.58   13.40
  -5   0   1  279.17   11.20
  -5   0   1  241.08    9.10
  -5   0   1  228.38   14.30
   4   0  -1  866.81   23.40
   4   0  -1  871.51   27.80
   4   0  -1  808.32   27.30
  -4   0   1  909.71   28.50
  -4   0   1  857.61   23.20
  -4   0   1  847.52   24.80
  -4   0   1  836.62   29.90
   3   0  -1  501.05   16.80
   3   0  -1  495.95   16.90
   3   0  -1  481.95   13.70
  -3   0   1  478.85   18.30
  -3   0   1  474.95   13.50
  -3   0   1  464.25   16.80
  -3   0   1  477.85   14.60
  -3   0   1  492.55   17.00
   2   0  -1 2427.16   59.99
   2   0  -1 2629.24   63.39
   2   0  -1 2488.25   60.39
   2   0  -1 2395.46   60.99
   2   0  -1 2631.94   63.19
  -2   0   1 2552.54   60.39
  -2   0   1 2344.67   62.89
  -2   0   1 2502.75   60.99
   1   0  -1  608.64   14.00
   1   0  -1  532.45   15.10
   1   0  -1  532.55   13.90
   1   0  -1  532.95   14.80
   1   0  -1  527.45   13.60
  -1   0   1  528.75   15.10
  -1   0   1  542.15   13.80
  -1   0   1  529.45   13.60
  -1   0   1  560.34   14.90
  -1   0   1  529.55   13.60
  -1   0  -1    1.90    0.80
  -1   0  -1    2.50    0.60
  -1   0  -1    3.50    1.00
  -1   0  -1    2.60    0.30
  -1   0  -1    1.90    0.60
   1   0   1    1.50    0.50
   1   0   1    1.60    0.40
   1   0   1    1.40    0.40
   1   0   1    2.70    0.80
   1   0   1    3.10    0.80
  -2   0  -1 1221.78   33.40
  -2   0  -1 1225.98   32.90
  -2   0  -1 1200.88   31.80
  -2   0  -1 1185.78   30.80
  -2   0  -1 1336.47   33.10
   2   0   1 1183.98   32.70
   2   0   1 1173.88   30.70
   2   0   1 1170.58   30.40
   2   0   1 1214.68   33.20
  -3   0  -1   27.30    2.20
  -3   0  -1   29.10    2.80
  -3   0  -1   23.60    3.30
  -3   0  -1   40.50    3.60
   3   0   1   28.70    3.20
   3   0   1   27.80    2.00
   3   0   1   25.90    3.00
   3   0   1   31.20    2.30
  -4   0  -1    6.50    2.70
  -4   0  -1    3.30    1.60
  -4   0  -1    5.00    1.70
  -4   0  -1    1.90    1.00
  -4   0  -1    3.90    1.80
   4   0   1    2.40    0.90
   4   0   1    2.10    1.20
   4   0   1    3.10    0.90
   4   0   1    2.80    1.30
  -5   0  -1  141.99    9.70
  -5   0  -1  136.19   10.30
  -5   0  -1  142.69    8.10
   5   0   1  150.08    6.90
   5   0   1  141.79    6.10
   5   0   1  131.89    8.90
   5   0   1  137.59    6.30
  -6   0  -1  412.46   21.70
  -6   0  -1  423.46   20.20
   6   0   1  442.16   15.40
   6   0   1  441.26   14.00
   6   0   1  449.16   14.60
   6   0   1  457.35   19.80
  -7   0  -1  156.48   12.40
  -7   0  -1  140.99   12.90
   7   0   1  141.29   10.80
   7   0   1  156.98    8.70
   7   0   1  148.49    8.00
   7   0   1  142.89    6.90
  -8   0  -1  635.84   29.60
  -8   0  -1  535.85   30.10
   8   0   1  611.54   27.20
   8   0   1  656.43   21.80
   8   0   1  610.14   24.50
   8   0   1  689.73   19.90
   8   0   1  585.44   18.70
  -9   0  -1    8.80    3.60
  -9   0  -1   19.30    5.50
   9   0   1   11.50    3.40
   9   0   1    9.00    3.50
   8  -1  -1 1382.76   47.70
   8  -1  -1 1266.27   34.10
   8  -1  -1 1297.17   34.50
   8  -1  -1 1275.27   38.00
  -8   1   1 1179.68   50.99
  -8   1   1 1323.07   48.40
   7  -1  -1   11.80    2.60
   7  -1  -1    6.10    1.70
   7  -1  -1    7.80    2.80
  -7   1   1    7.90    4.70
  -7   1   1    9.40    4.40
  -7   1   1   12.80    2.80
   6  -1  -1 2081.79   54.29
   6  -1  -1 2082.29   53.49
   6  -1  -1 2038.50   61.29
  -6   1   1 1995.50   53.89
  -6   1   1 2023.40   61.79
  -6   1   1 1988.20   64.29
   5  -1  -1  153.98   10.30
   5  -1  -1  158.68    7.50
  -5   1   1  146.29   11.20
  -5   1   1  160.68    7.40
  -5   1   1  157.88   10.50
   4  -1  -1 2334.27   62.29
   4  -1  -1 2228.68   61.19
   4  -1  -1 2197.48   53.79
   4  -1  -1 2220.48   53.89
   4  -1  -1 2299.17   57.09
  -4   1   1 2088.39   61.19
  -4   1   1 2264.37   56.79
  -4   1   1 2178.48   63.69
   3  -1  -1 1034.70   27.60
   3  -1  -1 1033.80   31.10
   3  -1  -1 1002.80   30.30
  -3   1   1  978.20   30.40
  -3   1   1 1079.19   32.40
  -3   1   1 1019.40   27.40
   2  -1  -1 1292.47   34.80
   2  -1  -1 1294.57   32.50
   2  -1  -1 1262.07   32.90
  -2   1   1 1248.28   33.70
  -2   1   1 1297.97   34.90
  -2   1   1 1312.27   33.30
   1  -1  -1 2429.56   57.69
   1  -1  -1 2434.36   59.69
  -1   1   1 2492.85   59.69
  -1   1   1 2348.76   58.89
  -1   1   1 2393.96   57.69
   0  -1  -1  150.58    4.90
   0  -1  -1  154.98    5.30
   0  -1  -1  151.78    4.90
   0   1   1  151.18    4.90
   0   1   1  172.08    5.30
   0   1   1  151.38    4.90
   0   1   1  159.08    5.00
   0   1   1  161.38    5.30
   0   1   1  157.58    5.30
  -1  -1  -1 1564.54   39.40
  -1  -1  -1 1647.64   39.60
  -1  -1  -1 1532.85   39.10
   1   1   1 1467.65   39.30
   1   1   1 1580.94   39.60
   1   1   1 1598.24   40.60
   1   1   1 1763.92   39.70
   1   1   1 1555.64   38.60
  -2  -1  -1 1090.99   27.90
  -2  -1  -1 1042.70   28.60
  -2  -1  -1  991.80   26.30
  -2  -1  -1 1054.69   29.70
  -2  -1  -1  956.20   27.90
   2   1   1 1051.19   27.00
   2   1   1 1031.60   29.50
   2   1   1  970.90   27.80
   2   1   1 1152.38   28.90
   2   1   1 1055.99   27.20
   2   1   1 1098.89   26.50
  -3  -1  -1 1202.48   33.80
  -3  -1  -1 1189.98   33.20
  -3  -1  -1 1177.58   32.30
   3   1   1 1108.69   31.90
   3   1   1 1146.29   31.20
   3   1   1 1157.98   30.10
   3   1   1 1221.38   29.90
   3   1   1 1210.08   33.70
   3   1   1 1155.78   31.30
  -4  -1  -1 1357.06   36.70
  -4  -1  -1 1348.27   40.70
  -4  -1  -1 1337.97   38.30
  -4  -1  -1 1222.88   38.20
   4   1   1 1259.77   34.90
   4   1   1 1366.96   33.40
   4   1   1 1200.38   36.40
   4   1   1 1284.67   33.80
   4   1   1 1293.37   35.40
  -5  -1  -1  270.17   15.20
  -5  -1  -1  283.87   12.30
  -5  -1  -1  246.58   13.50
  -5  -1  -1  269.67   13.70
   5   1   1  279.27    9.90
   5   1   1  298.67    9.40
   5   1   1  266.07   12.50
   5   1   1  280.87   11.50
   5   1   1  278.47   10.70
  -6  -1  -1  754.82   26.70
  -6  -1  -1  777.52   32.10
  -6  -1  -1  769.62   29.70
   6   1   1  803.32   24.10
   6   1   1  765.72   21.90
   6   1   1  864.31   28.60
   6   1   1  832.32   26.10
   6   1   1  793.42   23.50
  -7  -1  -1   79.29    9.70
  -7  -1  -1   97.29    7.90
  -7  -1  -1   84.89    8.80
   7   1   1   88.99    4.50
   7   1   1   93.59    5.80
   7   1   1   96.19    7.20
   7   1   1  101.19    6.10
   7   1   1   97.89    8.30
  -8  -1  -1  275.87   18.10
  -8  -1  -1  289.87   20.60
  -8  -1  -1  286.37   15.50
   8   1   1  305.07   12.00
   8   1   1  300.07   12.30
   8   1   1  279.27   14.90
   8   1   1  303.27   16.80
  -9  -1  -1  132.39   14.40
   9   1   1  135.99   11.60
   9   1   1  125.79    7.80
   9   1   1  133.19    7.20
   9   1   1  137.89   10.10
   8  -2  -1    1.00    1.30
   8  -2  -1    4.70    2.10
   8  -2  -1   -1.60    1.00
   8  -2  -1    0.20    2.00
  -8   2   1   -0.40    1.00
  -8   2   1    1.40    2.10
  -8   2   1    2.60    2.60
   7  -2  -1  122.69    7.50
   7  -2  -1   99.79   10.10
   7  -2  -1  124.59    7.80
  -7   2   1  127.19   11.50
  -7   2   1  119.39    7.60
  -7   2   1  120.49   12.20
   6  -2  -1   72.69    5.70
  -6   2   1   97.39   10.00
  -6   2   1   81.79    8.40
  -6   2   1  100.29    6.40
   5  -2  -1  318.27   16.20
   5  -2  -1  293.27   12.00
  -5   2   1  290.47   16.70
  -5   2   1  274.57   11.60
  -5   2   1  305.47   15.70
   4  -2  -1  234.68    9.80
   4  -2  -1  228.28   12.70
  -4   2   1  246.38   12.60
  -4   2   1  232.88   13.20
  -4   2   1  242.68    9.80
   3  -2  -1  768.12   22.30
   3  -2  -1  732.53   25.50
  -3   2   1  820.02   26.30
  -3   2   1  717.63   24.60
  -3   2   1  740.63   22.90
  -3   2   1  773.32   22.30
   2  -2  -1  167.78    6.70
  -2   2   1  143.89    6.30
  -2   2   1  155.58    7.60
  -2   2   1  145.99    6.90
   1  -2  -1 1120.09   30.20
   1  -2  -1 1184.08   31.20
  -1   2   1 1148.79   31.10
  -1   2   1 1127.39   30.20
  -1   2   1 1199.58   28.80
   0  -2  -1   10.80    1.40
   0  -2  -1   12.80    1.70
   0   2   1   13.70    1.50
   0   2   1   11.60    1.60
  -1  -2  -1  324.27   10.30
  -1  -2  -1  325.47   10.50
   1   2   1  323.77   10.20
   1   2   1  319.07   10.50
   1   2   1  344.47   10.40
   1   2   1  323.67    9.50
  -2  -2  -1 1260.97   32.40
  -2  -2  -1 1328.67   36.30
  -2  -2  -1 1263.77   34.00
  -2  -2  -1 1342.47   33.30
  -2  -2  -1 1280.57   34.60
  -2  -2  -1 1286.97   33.90
   2   2   1 1356.56   32.30
   2   2   1 1295.07   34.20
   2   2   1 1337.77   35.10
   2   2   1 1305.97   33.80
   2   2   1 1267.87   36.10
   2   2   1 1323.87   33.30
  -3  -2  -1   47.50    3.40
  -3  -2  -1   48.40    2.60
  -3  -2  -1   43.10    3.10
  -3  -2  -1   49.40    3.70
  -3  -2  -1   41.50    4.30
  -3  -2  -1   49.00    3.70
   3   2   1   44.20    4.30
   3   2   1   43.20    3.30
   3   2   1   42.60    3.80
   3   2   1   49.40    2.70
   3   2   1   48.80    3.10
  -4  -2  -1 1762.72   49.30
  -4  -2  -1 1854.71   48.90
  -4  -2  -1 1858.61   52.99
   4   2   1 1797.92   47.70
   4   2   1 1646.94   47.10
   4   2   1 1821.02   45.30
   4   2   1 1842.62   45.00
  -5  -2  -1  305.77   14.70
  -5  -2  -1  315.87   16.50
  -5  -2  -1  284.27   12.90
  -5  -2  -1  302.17   14.10
   5   2   1  302.27    9.40
   5   2   1  277.77   12.20
   5   2   1  285.47   12.10
   5   2   1  299.67   10.10
  -6  -2  -1 1797.42   70.29
  -6  -2  -1 2025.60   58.59
  -6  -2  -1 2029.40   64.89
   6   2   1 2237.88   57.19
   6   2   1 2214.18   52.09
   6   2   1 2151.78   57.79
   6   2   1 2177.28   53.79
   6   2   1 2081.09   58.29
  -7  -2  -1  617.74   24.10
  -7  -2  -1  664.33   30.40
   7   2   1  640.94   24.30
   7   2   1  639.74   21.80
   7   2   1  603.34   19.40
   7   2   1  624.84   23.10
  -8  -2  -1 1452.15   47.60
  -8  -2  -1 1552.14   56.79
   8   2   1 1576.54   48.60
   8   2   1 1520.45   41.50
   8   2   1 1489.85   43.60
  -9  -2  -1  502.85   29.50
  -9  -2  -1  483.65   22.70
   9   2   1  473.15   22.70
   9   2   1  509.95   18.70
   9   2   1  511.65   21.90
   9   2   1  504.35   17.40
   8  -3  -1  169.58   17.30
   8  -3  -1  189.48   11.30
   8  -3  -1  171.88   10.30
  -8   3   1  180.78   10.80
  -8   3   1  182.28   15.30
  -8   3   1  167.78   15.80
   7  -3  -1  169.38   14.00
   7  -3  -1  177.18   12.00
   7  -3  -1  189.88   10.60
  -7   3   1  193.78   14.80
  -7   3   1  161.48   14.10
   6  -3  -1   30.10    3.80
   6  -3  -1   36.70    6.20
  -6   3   1   30.50    3.80
  -6   3   1   42.90    6.40
  -6   3   1   36.50    6.30
   5  -3  -1  104.79    9.30
   5  -3  -1  105.89    6.90
  -5   3   1  110.69    7.00
  -5   3   1  106.19    9.20
  -5   3   1  106.19    9.80
   4  -3  -1   49.90    4.30
   4  -3  -1   35.00    5.00
  -4   3   1   52.09    5.70
  -4   3   1   45.00    4.10
  -4   3   1   51.29    4.60
  -4   3   1   45.40    5.60
   3  -3  -1   16.70    3.10
   3  -3  -1   14.30    2.10
  -3   3   1   15.40    2.50
  -3   3   1   16.60    3.00
  -3   3   1   19.50    2.50
  -3   3   1   19.30    3.30
   2  -3  -1  600.24   21.60
   2  -3  -1  632.64   19.20
   2  -3  -1  636.84   20.10
  -2   3   1  613.04   20.80
  -2   3   1  604.54   20.00
  -2   3   1  641.24   15.80
  -2   3   1  570.64   18.70
   1  -3  -1  384.26   13.60
   1  -3  -1  366.06   12.70
  -1   3   1  397.86   13.80
  -1   3   1  376.86   12.60
   0  -3  -1 1551.84   41.60
   0  -3  -1 1526.65   40.20
   0   3   1 1555.24   41.70
   0   3   1 1586.34   41.60
   0   3   1 1564.24   40.30
  -1  -3  -1  673.73   18.60
  -1  -3  -1  683.43   20.00
  -1  -3  -1  659.13   19.90
   1   3   1  672.63   18.60
   1   3   1  657.23   19.70
   1   3   1  641.04   19.90
  -2  -3  -1 1101.99   28.30
  -2  -3  -1 1066.29   29.60
  -2  -3  -1 1072.79   28.80
  -2  -3  -1 1058.59   26.70
  -2  -3  -1  969.50   29.40
   2   3   1 1023.90   30.70
   2   3   1 1056.79   28.90
   2   3   1 1091.89   27.60
   2   3   1 1089.89   29.70
  -3  -3  -1  875.01   22.80
  -3  -3  -1  854.41   23.20
  -3  -3  -1  851.61   24.80
  -3  -3  -1  836.92   24.20
  -3  -3  -1  799.12   25.20
  -3  -3  -1  841.32   27.30
   3   3   1  817.22   22.40
   3   3   1  864.31   23.40
   3   3   1  851.41   25.00
   3   3   1  824.62   27.20
   3   3   1  845.52   26.00
  -4  -3  -1  748.23   24.40
  -4  -3  -1  724.93   20.80
  -4  -3  -1  739.43   22.60
  -4  -3  -1  810.52   24.40
  -4  -3  -1  741.23   27.10
   4   3   1  764.02   21.30
   4   3   1  854.21   22.50
   4   3   1  785.82   25.90
   4   3   1  743.63   23.80
  -5  -3  -1   82.99    6.40
  -5  -3  -1   83.69    3.80
  -5  -3  -1   68.79    7.20
  -5  -3  -1   78.79    6.30
   5   3   1   84.39    4.10
   5   3   1   90.29    5.60
   5   3   1   80.39    4.10
   5   3   1   81.09    5.90
  -6  -3  -1  116.59    9.00
  -6  -3  -1  117.09    8.60
  -6  -3  -1  122.79   10.80
   6   3   1  124.89    7.70
   6   3   1  135.89    6.40
   6   3   1  117.99    7.90
  -7  -3  -1    5.40    3.00
  -7  -3  -1   10.90    3.90
   7   3   1    8.90    2.60
   7   3   1   16.70    3.30
   7   3   1    9.90    1.70
   7   3   1    5.10    2.10
  -8  -3  -1   26.50    4.80
  -8  -3  -1   20.40    7.00
   8   3   1   23.70    3.80
   8   3   1   32.50    4.70
   8   3   1   21.80    2.60
   8   3   1   14.40    3.20
  -9  -3  -1  113.69   10.10
  -9  -3  -1  115.19   13.50
   9   3   1  110.49    6.30
   9   3   1  106.39    8.00
   9   3   1  102.59    9.20
   9   3   1  122.49    9.80
   7  -4  -1  581.64   23.20
   7  -4  -1  562.44   24.50
   7  -4  -1  595.34   22.80
   7  -4  -1  567.14   28.30
  -7   4   1  564.94   29.10
  -7   4   1  551.94   22.20
  -7   4   1  563.04   28.60
   6  -4  -1    2.60    1.20
   6  -4  -1   -1.20    1.50
   6  -4  -1    1.60    1.60
  -6   4   1   -1.80    0.90
  -6   4   1    2.00    1.90
   5  -4  -1  952.90   30.60
   5  -4  -1  917.41   35.90
   5  -4  -1  988.00   32.60
  -5   4   1  968.00   35.80
  -5   4   1  949.40   36.00
  -5   4   1  956.20   30.70
  -5   4   1  967.80   32.00
   4  -4  -1   45.40    6.10
   4  -4  -1   50.29    5.30
   4  -4  -1   48.90    4.70
  -4   4   1   52.79    6.10
  -4   4   1   50.79    4.70
  -4   4   1   51.79    5.20
  -4   4   1   49.60    5.90
   3  -4  -1  582.94   21.00
   3  -4  -1  605.94   20.20
   3  -4  -1  607.44   23.80
  -3   4   1  592.14   22.90
  -3   4   1  582.94   20.10
  -3   4   1  595.24   21.40
  -3   4   1  592.04   22.80
   2  -4  -1  463.55   17.20
   2  -4  -1  458.95   16.10
  -2   4   1  439.86   17.20
  -2   4   1  469.85   13.40
  -2   4   1  483.45   16.40
   1  -4  -1   41.70    3.60
   1  -4  -1   43.50    4.20
  -1   4   1   52.39    4.50
  -1   4   1   45.10    3.70
  -1   4   1   45.00    4.20
   0  -4  -1  840.12   24.00
   0  -4  -1  835.52   25.50
   0   4   1  843.32   25.60
   0   4   1  829.32   24.00
   0   4   1  793.12   25.40
  -1  -4  -1  426.96   15.20
  -1  -4  -1  406.36   14.90
   1   4   1  423.66   13.50
   1   4   1  395.26   14.70
  -2  -4  -1  549.54   17.50
  -2  -4  -1  501.25   14.90
  -2  -4  -1  512.15   17.70
   2   4   1  552.54   18.50
   2   4   1  559.54   16.00
   2   4   1  516.35   17.40
   2   4   1  505.65   17.80
  -3  -4  -1 2562.84   63.79
  -3  -4  -1 2456.35   65.69
  -3  -4  -1 2270.77   61.29
  -3  -4  -1 2526.35   65.29
  -3  -4  -1 2557.34   63.29
   3   4   1 2561.44   62.09
   3   4   1 2526.65   64.39
   3   4   1 2398.26   67.19
   3   4   1 2557.34   65.59
  -4  -4  -1  290.97   10.40
  -4  -4  -1  283.77   13.00
  -4  -4  -1  297.57   12.50
  -4  -4  -1  307.57   10.60
  -4  -4  -1  289.57   14.60
  -4  -4  -1  284.17   11.60
   4   4   1  295.47   10.10
   4   4   1  299.67   12.70
   4   4   1  277.97   13.30
  -5  -4  -1 2556.34   67.49
  -5  -4  -1 2579.34   73.09
  -5  -4  -1 2404.36   62.59
  -5  -4  -1 2588.64   65.39
  -5  -4  -1 2542.85   68.59
   5   4   1 2431.36   67.39
   5   4   1 2455.05   64.39
  -6  -4  -1    4.30    2.80
  -6  -4  -1    1.00    1.10
  -6  -4  -1    2.90    1.90
   6   4   1    0.70    0.80
   6   4   1    2.40    0.80
   6   4   1   -0.50    0.80
  -7  -4  -1 2045.40   59.69
  -7  -4  -1 1944.41   65.59
   7   4   1 2046.60   51.29
   7   4   1 2028.70   55.99
   7   4   1 1960.70   58.09
  -8  -4  -1   31.00    6.60
  -8  -4  -1   30.00    5.00
   8   4   1   31.70    2.80
   8   4   1   25.90    4.70
   8   4   1   30.50    4.10
   8   4   1   27.90    4.50
  -9  -4  -1  985.80   45.00
  -9  -4  -1 1035.10   38.50
   9   4   1 1027.40   28.60
   9   4   1 1058.49   47.40
   9   4   1 1044.10   37.30
   9   4   1 1062.59   35.60
   7  -5  -1    3.50    2.30
   7  -5  -1    0.50    2.20
  -7   5   1    3.80    1.80
   6  -5  -1  137.79    9.80
   6  -5  -1  126.39   12.60
   6  -5  -1  163.38   11.20
  -6   5   1  169.48   13.60
  -6   5   1  136.79    9.90
  -6   5   1  150.58   13.10
   5  -5  -1  333.27   15.40
   5  -5  -1  333.97   16.40
   5  -5  -1  353.86   19.70
  -5   5   1  319.77   18.30
  -5   5   1  359.96   19.50
  -5   5   1  306.77   15.90
   4  -5  -1  184.98   13.10
   4  -5  -1  171.58   10.10
  -4   5   1  184.78   10.40
  -4   5   1  192.18   12.20
  -4   5   1  202.88   13.20
  -4   5   1  169.48   10.90
   3  -5  -1 1273.47   38.50
   3  -5  -1 1279.97   40.00
   3  -5  -1 1302.07   43.00
  -3   5   1 1284.17   40.50
  -3   5   1 1316.47   39.10
  -3   5   1 1369.06   41.10
  -3   5   1 1325.77   42.40
   2  -5  -1   52.09    5.10
   2  -5  -1   54.19    4.70
  -2   5   1   56.19    5.60
  -2   5   1   53.29    4.70
   1  -5  -1 2841.62   72.89
   1  -5  -1 2686.33   70.49
  -1   5   1 2643.24   72.19
  -1   5   1 2739.23   70.59
  -1   5   1 2630.54   72.79
   0  -5  -1   41.70    4.30
   0  -5  -1   54.09    4.20
   0   5   1   40.70    4.30
   0   5   1   43.80    3.80
   0   5   1   38.00    4.20
  -1  -5  -1 2467.05   66.49
  -1  -5  -1 2523.75   66.99
  -1  -5  -1 2486.35   64.09
   1   5   1 2447.06   64.09
   1   5   1 2562.84   67.19
   1   5   1 2518.55   66.89
  -2  -5  -1   77.59    5.70
  -2  -5  -1   74.29    5.80
  -2  -5  -1   78.49    4.40
   2   5   1   77.19    5.70
   2   5   1   69.89    5.70
   2   5   1   74.89    4.60
  -3  -5  -1  828.82   23.50
  -3  -5  -1  815.22   22.50
  -3  -5  -1  821.92   25.20
  -3  -5  -1  813.52   26.30
   3   5   1  816.72   26.60
   3   5   1  810.02   25.70
   3   5   1  794.42   27.40
   3   5   1  808.92   23.20
  -4  -5  -1   58.69    5.60
  -4  -5  -1   67.89    4.80
  -4  -5  -1   59.59    3.90
  -4  -5  -1   71.89    5.80
  -4  -5  -1   63.69    4.60
   4   5   1   79.49    6.20
   4   5   1   72.09    5.40
   4   5   1   69.69    4.00
  -5  -5  -1  219.08   11.20
  -5  -5  -1  205.78    8.60
  -5  -5  -1  208.88   13.30
  -5  -5  -1  212.38   10.30
  -5  -5  -1  197.98    8.80
   5   5   1  205.58    7.80
   5   5   1  201.08   10.00
   5   5   1  184.08   10.60
   5   5   1  208.18    8.60
  -6  -5  -1  441.36   19.60
  -6  -5  -1  456.25   14.30
  -6  -5  -1  436.76   18.40
  -6  -5  -1  418.36   22.00
   6   5   1  461.25   14.00
   6   5   1  446.36   18.90
   6   5   1  478.35   16.20
  -7  -5  -1    1.20    1.60
  -7  -5  -1   -0.50    1.30
  -7  -5  -1    1.80    2.30
   7   5   1    0.10    1.30
   7   5   1    1.20    1.10
  -8  -5  -1  556.64   24.90
  -8  -5  -1  533.55   28.90
   8   5   1  531.65   20.70
   8   5   1  535.15   23.20
   8   5   1  555.74   23.40
  -9  -5  -1   11.40    4.60
  -9  -5  -1   13.60    5.60
   9   5   1    7.20    3.10
   9   5   1    9.10    1.50
   9   5   1   14.40    3.70
   9   5   1   10.30    2.80
   9   5   1   10.30    1.80
   6  -6  -1   63.59    6.90
   6  -6  -1   68.19    9.40
   6  -6  -1   58.09    7.10
   6  -6  -1   62.19    7.40
  -6   6   1   56.29    7.70
  -6   6   1   69.29    9.20
  -6   6   1   56.69    7.00
  -6   6   1   49.40    6.60
   5  -6  -1    7.30    2.80
   5  -6  -1   12.20    3.10
   5  -6  -1    9.00    3.70
  -5   6   1    8.50    3.50
  -5   6   1    2.20    2.10
  -5   6   1    7.10    3.50
  -5   6   1    1.50    1.50
   4  -6  -1   26.40    5.50
   4  -6  -1   27.40    4.60
   4  -6  -1   33.10    4.50
  -4   6   1   27.30    4.70
  -4   6   1   26.80    5.40
  -4   6   1   28.50    4.90
   3  -6  -1  126.89    8.50
   3  -6  -1  133.69   10.80
   3  -6  -1  135.79    9.60
  -3   6   1  118.09    9.90
  -3   6   1  107.79    8.00
  -3   6   1  151.38    9.70
  -3   6   1  126.59    5.10
  -3   6   1  132.89    5.00
  -3   6   1  131.09    9.70
   2  -6  -1  113.49    7.60
   2  -6  -1  106.59    8.20
  -2   6   1  106.49    7.30
  -2   6   1  119.79    8.90
   1  -6  -1 1146.29   34.10
   1  -6  -1 1128.49   35.90
  -1   6   1 1117.49   36.70
  -1   6   1 1146.39   36.20
  -1   6   1 1122.59   34.10
   0  -6  -1  814.12   27.70
   0  -6  -1  783.92   25.50
   0   6   1  809.92   25.70
   0   6   1  804.82   28.10
   0   6   1  853.51   28.10
  -1  -6  -1 2133.39   59.99
  -1  -6  -1 2189.38   57.29
  -1  -6  -1 2191.18   60.69
   1   6   1 2111.49   60.29
   1   6   1 2160.48   60.49
   1   6   1 2178.38   57.49
  -2  -6  -1 2110.99   54.79
  -2  -6  -1 2115.59   58.29
  -2  -6  -1 2086.99   58.39
   2   6   1 2026.60   57.29
   2   6   1 2150.88   58.59
   2   6   1 2140.89   55.19
   2   6   1 2018.60   58.49
  -3  -6  -1 1917.51   51.39
  -3  -6  -1 1995.80   51.69
  -3  -6  -1 2045.50   55.39
  -3  -6  -1 1984.50   56.39
   3   6   1 1980.40   56.69
   3   6   1 2014.10   52.39
   3   6   1 2059.29   56.09
  -4  -6  -1 3199.18   86.09
  -4  -6  -1 3205.18   80.59
  -4  -6  -1 3296.77   81.99
  -4  -6  -1 3244.68   90.79
  -4  -6  -1 3186.68   83.79
   4   6   1 3190.28   86.29
   4   6   1 3256.37   81.19
   4   6   1 3281.77   85.49
  -5  -6  -1 1457.35   40.60
  -5  -6  -1 1460.15   38.60
  -5  -6  -1 1367.06   44.30
  -5  -6  -1 1365.06   43.10
  -5  -6  -1 1434.76   40.00
   5   6   1 1423.86   43.80
   5   6   1 1412.16   42.20
   5   6   1 1425.86   38.00
  -6  -6  -1 2077.19   53.79
  -6  -6  -1 2062.09   57.49
  -6  -6  -1 1872.91   60.19
  -6  -6  -1 2109.89   54.89
   6   6   1 1998.40   52.39
   6   6   1 2095.89   57.89
   6   6   1 2060.69   53.89
   6   6   1 2065.59   60.19
  -7  -6  -1  371.06   12.30
  -7  -6  -1  359.76   20.30
  -7  -6  -1  389.86   22.40
  -7  -6  -1  367.16   19.00
   7   6   1  370.76   14.50
   7   6   1  378.46   12.30
   7   6   1  364.56   18.10
   7   6   1  380.56   16.50
   7   6   1  374.56   12.60
  -8  -6  -1 1250.67   42.60
  -8  -6  -1 1101.59   47.00
   8   6   1 1182.48   37.40
   8   6   1 1158.98   35.50
   8   6   1 1148.69   30.70
   8   6   1 1158.58   30.60
   8   6   1 1155.08   40.40
   5  -7  -1  209.68   13.80
   5  -7  -1  196.18   13.90
   5  -7  -1  160.58   14.50
   5  -7  -1  206.28   12.90
  -5   7   1  176.18   12.00
  -5   7   1  202.88   13.70
  -5   7   1  211.58   14.10
  -5   7   1  189.48   15.00
   4  -7  -1  174.98   11.90
   4  -7  -1  172.68   11.00
   4  -7  -1  170.28   13.90
  -4   7   1  179.98   12.00
  -4   7   1  165.48   11.00
  -4   7   1  160.98   16.00
   3  -7  -1  314.67   16.40
   3  -7  -1  291.07   14.70
   3  -7  -1  330.07   18.50
  -3   7   1  282.17   16.30
  -3   7   1  298.97   14.80
  -3   7   1  315.07   10.50
  -3   7   1  307.17   10.10
   2  -7  -1  132.59    9.90
   2  -7  -1  161.68   11.90
  -2   7   1  163.58   11.30
   1  -7  -1  158.28    9.50
   1  -7  -1  156.98   10.50
  -1   7   1  154.38    9.30
  -1   7   1  154.18   10.90
  -1   7   1  180.28   11.30
   0  -7  -1   64.49    5.50
   0  -7  -1   64.49    6.40
   0   7   1   63.89    6.40
   0   7   1   65.49    5.90
   0   7   1   69.89    6.90
  -1  -7  -1  143.29   10.00
  -1  -7  -1  161.18   10.20
  -1  -7  -1  155.28    8.50
   1   7   1  136.19    9.80
   1   7   1  151.08   10.10
   1   7   1  157.68    8.60
  -2  -7  -1   51.89    5.70
  -2  -7  -1   47.90    5.30
   2   7   1   61.49    4.80
   2   7   1   45.30    4.80
   2   7   1   45.20    5.60
   2   7   1   46.20    5.40
  -3  -7  -1  173.08   10.90
  -3  -7  -1  162.88    7.40
  -3  -7  -1  173.78   10.70
  -3  -7  -1  162.58    7.80
   3   7   1  159.88   10.40
   3   7   1  165.08   10.60
   3   7   1  161.48    8.20
  -4  -7  -1  522.25   20.30
  -4  -7  -1  571.94   22.40
  -4  -7  -1  538.15   17.30
  -4  -7  -1  515.05   22.10
  -4  -7  -1  573.84   17.90
   4   7   1  529.85   21.50
   4   7   1  567.04   18.30
   4   7   1  556.14   22.60
  -5  -7  -1  196.18    8.30
  -5  -7  -1  177.98    9.70
  -5  -7  -1  185.18    9.00
  -5  -7  -1  170.08   11.70
  -5  -7  -1  170.18   11.00
   5   7   1  174.28    8.10
   5   7   1  190.58   11.30
   5   7   1  178.68   11.80
  -6  -7  -1  696.63   21.70
  -6  -7  -1  710.13   22.90
  -6  -7  -1  706.63   28.50
  -6  -7  -1  659.63   23.50
   6   7   1  694.63   20.90
   6   7   1  643.54   25.30
   6   7   1  721.23   27.60
  -7  -7  -1  558.54   25.20
  -7  -7  -1  539.95   21.80
  -7  -7  -1  540.15   17.80
   7   7   1  522.85   23.60
   7   7   1  532.55   16.70
   7   7   1  568.24   22.60
  -8  -7  -1  819.52   34.20
   8   7   1  833.82   30.50
   8   7   1  848.72   23.10
   8   7   1  830.02   26.70
   8   7   1  849.02   23.10
   8   7   1  870.61   33.60
   4  -8  -1  148.09   11.60
   4  -8  -1  142.29   13.10
   4  -8  -1  157.28   12.60
   4  -8  -1  150.18   11.20
  -4   8   1  160.08   13.80
  -4   8   1  159.68   11.20
  -4   8   1  145.39   10.60
  -4   8   1  125.39   11.40
   3  -8  -1  157.18   11.80
   3  -8  -1  165.18   11.00
   3  -8  -1  172.28   13.60
  -3   8   1  161.98   10.40
  -3   8   1  158.38    6.80
  -3   8   1  151.48   10.80
  -3   8   1  153.28   12.20
  -3   8   1  167.28   10.00
   2  -8  -1  699.73   26.60
   2  -8  -1  738.83   28.80
  -2   8   1  763.32   24.00
  -2   8   1  750.92   32.10
   1  -8  -1   17.50    3.70
   1  -8  -1   14.40    3.60
  -1   8   1   19.40    5.30
  -1   8   1   11.60    3.30
  -1   8   1   12.70    4.40
   0  -8  -1 2030.00   60.59
   0  -8  -1 1962.00   58.89
   0  -8  -1 1965.50   55.99
   0   8   1 1998.00   59.39
   0   8   1 1955.20   55.99
   0   8   1 1938.21   60.09
  -1  -8  -1   12.20    2.90
  -1  -8  -1    7.60    2.90
  -1  -8  -1    6.50    2.80
   1   8   1    6.30    2.60
   1   8   1    5.70    2.30
   1   8   1    7.90    3.60
   1   8   1   10.80    2.70
  -2  -8  -1 2207.48   64.59
  -2  -8  -1 2292.37   64.89
  -2  -8  -1 2246.78   60.59
   2   8   1 2127.59   61.79
   2   8   1 2239.58   65.29
   2   8   1 2205.28   64.99
   2   8   1 2209.58   60.89
  -3  -8  -1  114.89    6.00
  -3  -8  -1  109.49    6.80
  -3  -8  -1   97.39    8.30
   3   8   1  121.29    7.40
   3   8   1  115.39    9.20
   3   8   1  127.99   10.90
  -4  -8  -1 1587.84   48.40
  -4  -8  -1 1580.74   43.00
  -4  -8  -1 1640.04   43.80
   4   8   1 1639.84   50.39
   4   8   1 1579.94   50.49
   4   8   1 1641.34   45.00
  -5  -8  -1  161.28   10.20
  -5  -8  -1  173.38   12.30
  -5  -8  -1  174.28    8.30
  -5  -8  -1  161.08    7.80
   5   8   1  186.98   11.90
   5   8   1  168.98   11.90
   5   8   1  179.78    8.70
  -6  -8  -1 1109.39   39.70
  -6  -8  -1  925.61   35.90
  -6  -8  -1 1085.79   37.90
  -6  -8  -1 1076.39   32.60
  -6  -8  -1 1053.29   30.30
   6   8   1 1079.79   30.80
   6   8   1 1069.79   38.30
   6   8   1 1130.79   37.50
  -7  -8  -1   13.50    4.70
  -7  -8  -1   16.60    2.90
   7   8   1   13.60    2.50
   7   8   1   17.40    4.80
   7   8   1   14.00    4.20
  -8  -8  -1  341.97   20.40
  -8  -8  -1  346.67   12.50
   8   8   1  356.36   11.40
   8   8   1  355.86   18.20
   8   8   1  327.27   19.20
   3  -9  -1  111.89   12.30
   3  -9  -1  126.49   11.70
   3  -9  -1  101.09   11.20
   3  -9  -1  117.79   10.10
  -3   9   1  120.69    6.10
  -3   9   1  123.19   10.00
  -3   9   1  140.19    9.20
  -3   9   1  123.59    6.40
  -3   9   1  113.69   11.20
   2  -9  -1    2.30    1.90
   2  -9  -1    1.00    1.60
   2  -9  -1    0.40    1.90
   2  -9  -1   -1.00    1.70
  -2   9   1    5.40    2.20
  -2   9   1    4.30    2.40
  -2   9   1    0.40    1.20
  -2   9   1    2.20    1.40
  -2   9   1    3.10    2.00
   1  -9  -1    6.10    2.80
   1  -9  -1    3.90    1.50
   1  -9  -1    4.60    2.40
  -1   9   1    2.00    1.50
  -1   9   1    6.80    3.80
   0  -9  -1   99.49    8.00
   0  -9  -1  117.09   10.50
   0  -9  -1  107.49    9.40
   0   9   1  118.59   10.00
   0   9   1  107.49    8.30
   0   9   1  108.89   10.30
   0   9   1  129.19    9.60
  -1  -9  -1   66.89    7.80
  -1  -9  -1   78.39    6.60
  -1  -9  -1   64.79    7.30
   1   9   1   66.09    5.70
   1   9   1   91.79    8.70
   1   9   1   77.29    6.80
  -2  -9  -1  165.48   11.90
  -2  -9  -1  141.29    9.10
  -2  -9  -1  154.98   11.40
   2   9   1  157.88   11.80
   2   9   1  155.48    9.50
   2   9   1  143.39   11.30
  -3  -9  -1  750.42   24.60
  -3  -9  -1  761.12   29.00
  -3  -9  -1  720.13   21.80
   3   9   1  714.13   29.40
   3   9   1  702.13   29.20
   3   9   1  713.03   24.90
  -4  -9  -1  124.49    7.30
  -4  -9  -1  124.59    9.80
  -4  -9  -1  125.49    6.20
   4   9   1  138.99   10.00
   4   9   1  119.79   10.30
   4   9   1  124.19   10.50
  -5  -9  -1 1499.65   40.20
  -5  -9  -1 1458.65   40.70
  -5  -9  -1 1538.95   46.70
  -5  -9  -1 1482.55   50.09
   5   9   1 1544.35   42.60
   5   9   1 1471.45   49.50
   5   9   1 1407.26   52.79
  -6  -9  -1   52.89    7.40
  -6  -9  -1   54.99    5.90
  -6  -9  -1   45.10    4.30
  -6  -9  -1   50.49    4.00
  -6  -9  -1   48.50    8.90
   6   9   1   44.90    4.20
   6   9   1   43.70    6.80
   6   9   1   60.49    7.00
  -7  -9  -1 1376.86   47.40
  -7  -9  -1 1380.36   41.10
  -7  -9  -1 1298.87   48.80
   7   9   1 1363.06   48.20
   7   9   1 1388.56   46.40
   7   9   1 1356.16   37.70
   2 -10  -1  256.47   15.30
   2 -10  -1  229.48   16.70
   2 -10  -1  233.28   16.80
   2 -10  -1  218.08   15.30
  -2  10   1  249.97   11.70
  -2  10   1  238.98   17.00
  -2  10   1  246.78   12.10
  -2  10   1  249.48   11.00
   1 -10  -1  787.12   40.80
   1 -10  -1  808.52   30.20
   1 -10  -1  792.22   34.80
  -1  10   1  804.92   30.40
  -1  10   1  786.92   34.10
   0 -10  -1   87.29    9.60
   0 -10  -1   68.89    7.10
   0 -10  -1   68.79    7.80
   0  10   1   65.09    8.40
   0  10   1   65.49    5.50
   0  10   1   70.29    7.40
   0  10   1   83.39    9.50
  -1 -10  -1 1381.76   42.50
  -1 -10  -1 1344.17   47.00
  -1 -10  -1 1332.67   45.90
   1  10   1 1297.17   47.20
   1  10   1 1363.76   42.70
   1  10   1 1372.46   46.80
   1  10   1 1252.77   38.60
  -2 -10  -1   19.30    3.80
  -2 -10  -1   28.10    5.50
  -2 -10  -1   21.80    5.00
   2  10   1   25.10    5.50
   2  10   1   18.80    3.90
   2  10   1   23.20    6.20
  -3 -10  -1  908.31   30.50
  -3 -10  -1  917.61   26.70
  -3 -10  -1  948.31   36.10
  -3 -10  -1  976.70   36.00
   3  10   1  949.31   36.70
   3  10   1  949.60   31.40
   3  10   1  972.70   37.30
  -4 -10  -1    2.00    1.80
  -4 -10  -1    3.10    1.90
  -4 -10  -1    3.90    1.70
   4  10   1    6.00    2.30
   4  10   1    3.30    3.00
   4  10   1    1.30    2.30
  -5 -10  -1  441.56   20.80
  -5 -10  -1  432.06   22.10
  -5 -10  -1  439.56   15.60
  -5 -10  -1  434.26   23.00
   5  10   1  436.66   22.40
   5  10   1  422.66   17.10
   5  10   1  456.55   23.40
  -6 -10  -1    1.10    1.10
  -6 -10  -1    4.00    2.10
  -6 -10  -1    1.40    2.20
  -6 -10  -1    1.10    2.00
   6  10   1   -2.10    1.00
   6  10   1    4.90    2.60
   6  10   1   -2.00    2.20
  -1 -11  -1  193.08   14.50
  -1 -11  -1  231.38   13.50
  -1 -11  -1  252.87   16.90
   1  11   1  242.58   14.00
   1  11   1  212.28   16.20
   1  11   1  205.38   10.00
   1  11   1  238.58   16.30
  -2 -11  -1  331.57   19.30
  -2 -11  -1  297.27   15.90
  -2 -11  -1  318.07   20.30
   2  11   1  329.57   19.80
   2  11   1  375.66   22.80
   2  11   1  332.57   20.40
  -3 -11  -1  340.57   19.50
  -3 -11  -1  337.57   19.90
  -3 -11  -1  352.56   16.10
   3  11   1  334.07   16.30
   3  11   1  349.17   20.90
   3  11   1  359.26   21.10
  -4 -11  -1 1005.50   37.00
  -4 -11  -1  907.11   29.70
   4  11   1  874.11   40.90
   4  11   1  939.11   31.50
   4  11   1  932.81   38.10
   5  10  -2  363.46   20.70
   5  10  -2  354.96   14.00
   5  10  -2  361.76   30.50
  -5 -10   2  367.96   17.30
  -5 -10   2  333.17   17.60
  -5 -10   2  326.97   21.60
   4  10  -2    3.10    2.20
   4  10  -2    4.00    1.70
   4  10  -2    3.00    3.50
  -4 -10   2    5.80    3.10
  -4 -10   2   10.40    3.50
  -4 -10   2    9.00    3.20
   3  10  -2   88.29    9.70
   3  10  -2   88.59    9.90
   3  10  -2   95.39    7.20
  -3 -10   2   88.09    9.10
  -3 -10   2   81.79    8.90
  -3 -10   2   88.09    8.10
   2  10  -2   27.10    5.60
   2  10  -2   28.50    6.10
   2  10  -2   35.50    4.80
  -2 -10   2   24.50    4.30
  -2 -10   2   33.50    5.80
   1  10  -2    6.90    2.60
   1  10  -2    4.80    2.30
  -1 -10   2    4.50    3.10
  -1 -10   2   -1.70    1.90
  -1 -10   2   -0.60    1.60
   0  10  -2  100.39   10.90
   0  10  -2  122.69    9.80
   0  10  -2  118.69   10.90
   0  10  -2  114.69   11.30
   0 -10   2  128.69   10.70
   0 -10   2  126.99    9.60
  -1  10  -2   22.70    6.90
  -1  10  -2   30.10    5.80
  -1  10  -2   43.10    7.10
  -1  10  -2   30.20    5.40
   1 -10   2   28.30    4.80
   1 -10   2   33.00    6.00
   6   9  -2  176.28   13.40
   6   9  -2  191.68    7.60
   6   9  -2  190.28   13.90
  -6  -9   2  205.98   15.10
  -6  -9   2  184.48   10.80
   5   9  -2 1199.58   43.70
   5   9  -2 1256.47   44.40
   5   9  -2 1205.08   35.00
  -5  -9   2 1266.17   46.20
  -5  -9   2 1293.57   40.30
  -5  -9   2 1295.97   40.80
   4   9  -2  593.84   26.40
   4   9  -2  614.14   26.50
   4   9  -2  566.74   19.90
  -4  -9   2  553.04   25.10
  -4  -9   2  617.44   24.80
  -4  -9   2  585.54   23.30
   3   9  -2 1080.99   40.10
   3   9  -2 1109.79   34.20
   3   9  -2 1162.08   40.40
  -3  -9   2 1093.89   33.90
  -3  -9   2 1131.79   38.70
  -3  -9   2 1173.68   40.00
   2   9  -2 1323.77   45.70
   2   9  -2 1344.97   45.30
   2   9  -2 1322.67   40.10
  -2  -9   2 1298.07   44.00
  -2  -9   2 1324.37   43.30
  -2  -9   2 1351.06   40.10
   1   9  -2  749.73   31.60
   1   9  -2  799.32   27.70
   1   9  -2  820.12   31.40
  -1  -9   2  818.82   30.80
  -1  -9   2  787.62   30.50
  -1  -9   2  789.32   27.40
   0   9  -2 1618.34   52.89
   0   9  -2 1544.75   47.50
   0   9  -2 1582.74   47.90
   0   9  -2 1559.94   50.69
   0  -9   2 1633.44   50.59
   0  -9   2 1539.15   47.40
  -1   9  -2  470.35   18.80
  -1   9  -2  439.66   21.20
  -1   9  -2  459.05   23.10
  -1   9  -2  464.75   20.40
   1  -9   2  464.25   21.30
   1  -9   2  432.36   19.30
  -2   9  -2  902.41   35.50
  -2   9  -2  794.42   32.20
  -2   9  -2  843.12   31.60
   2  -9   2  884.21   31.40
   2  -9   2  824.02   31.90
  -3   9  -2  120.49   11.10
  -3   9  -2  116.69    7.30
   3  -9   2  112.29    9.90
   3  -9   2  112.69   10.00
   7   8  -2    4.40    2.50
   7   8  -2   11.60    3.80
  -7  -8   2   11.40    4.70
  -7  -8   2    5.80    1.60
  -7  -8   2    6.70    2.40
   6   8  -2    2.10    1.40
   6   8  -2    6.70    1.80
   6   8  -2    4.80    2.20
  -6  -8   2   11.20    3.90
  -6  -8   2   10.90    2.80
   5   8  -2    8.60    3.40
   5   8  -2   11.50    1.80
   5   8  -2    6.80    2.90
  -5  -8   2   10.70    2.70
  -5  -8   2   10.00    2.90
   4   8  -2   29.70    5.00
   4   8  -2   20.70    4.30
   4   8  -2   31.30    3.30
  -4  -8   2   30.60    4.60
  -4  -8   2   31.60    5.00
  -4  -8   2   29.20    4.20
   3   8  -2   27.10    3.20
   3   8  -2   24.10    4.30
   3   8  -2   19.00    5.00
  -3  -8   2   23.20    3.90
  -3  -8   2   14.80    3.20
   2   8  -2  576.34   28.50
   2   8  -2  582.14   24.90
   2   8  -2  622.24   21.30
  -2  -8   2  600.34   23.70
  -2  -8   2  629.44   24.60
  -2  -8   2  605.54   21.00
   1   8  -2  158.18    9.30
   1   8  -2  148.09   10.60
   1   8  -2  155.88   11.40
  -1  -8   2  146.69   10.40
  -1  -8   2  156.68    9.10
  -1  -8   2  149.88   13.60
   0   8  -2 1383.86   46.50
   0   8  -2 1402.46   45.30
   0   8  -2 1389.86   42.60
   0  -8   2 1400.26   44.80
   0  -8   2 1540.65   48.80
  -1   8  -2  521.55   22.30
  -1   8  -2  506.05   19.60
  -1   8  -2  555.14   21.50
  -1   8  -2  525.85   23.70
   1  -8   2  515.65   20.70
   1  -8   2  526.95   22.20
  -2   8  -2 1477.85   55.29
  -2   8  -2 1447.76   41.60
  -2   8  -2 1431.86   45.10
   2  -8   2 1393.56   45.30
   2  -8   2 1438.56   44.50
  -3   8  -2  958.20   36.50
  -3   8  -2  986.50   29.40
  -3   8  -2 1018.80   37.00
   3  -8   2  964.10   34.30
   3  -8   2  960.00   33.90
  -4   8  -2 1159.28   46.80
  -4   8  -2 1167.08   31.60
  -4   8  -2 1154.18   42.20
  -4   8  -2 1151.18   40.60
   4  -8   2 1182.28   40.10
   4  -8   2 1174.28   40.50
   8   7  -2  335.27   16.70
  -8  -7   2  376.26   23.30
  -8  -7   2  347.87   19.70
  -8  -7   2  342.97   17.70
   7   7  -2   42.30    6.30
   7   7  -2   46.10    5.30
  -7  -7   2   51.69    7.80
  -7  -7   2   42.50    6.40
  -7  -7   2   34.80    6.30
   6   7  -2  964.80   34.90
  -6  -7   2  927.11   34.90
  -6  -7   2  913.41   31.50
  -6  -7   2  927.71   36.40
  -6  -7   2  972.10   28.10
   5   7  -2   53.29    3.20
   5   7  -2   51.79    6.00
   5   7  -2   57.99    6.50
  -5  -7   2   51.89    5.00
  -5  -7   2   47.90    6.20
  -5  -7   2   41.20    4.90
   4   7  -2 2071.49   66.59
   4   7  -2 2041.00   53.49
   4   7  -2 2079.99   60.79
  -4  -7   2 2068.49   58.19
  -4  -7   2 2124.39   64.39
  -4  -7   2 2069.99   58.29
   3   7  -2  122.09    9.30
   3   7  -2  140.39    7.10
   3   7  -2  134.29    9.70
  -3  -7   2  136.99    7.10
  -3  -7   2  135.79    8.70
  -3  -7   2  146.99    9.70
   2   7  -2 1516.55   46.80
   2   7  -2 1519.95   42.80
   2   7  -2 1563.74   47.60
  -2  -7   2 1536.55   46.00
  -2  -7   2 1569.04   47.00
  -2  -7   2 1544.15   42.80
   1   7  -2  272.37   14.70
   1   7  -2  311.77   15.10
   1   7  -2  288.97   12.60
  -1  -7   2  304.27   12.70
  -1  -7   2  299.57   14.60
   0   7  -2  888.21   34.80
   0   7  -2  912.71   31.10
   0   7  -2  907.61   32.00
   0  -7   2  914.01   28.80
   0  -7   2  869.91   30.30
  -1   7  -2   57.29    6.40
  -1   7  -2   58.69    5.50
  -1   7  -2   49.60    5.50
  -1   7  -2   62.99    5.20
   1  -7   2   53.99    5.80
   1  -7   2   58.89    5.60
  -2   7  -2  361.06   18.00
  -2   7  -2  369.16   16.70
  -2   7  -2  359.66   14.10
   2  -7   2  360.16   18.70
   2  -7   2  359.16   16.00
  -3   7  -2   92.39    5.70
  -3   7  -2   96.69    8.70
   3  -7   2   85.49    7.80
   3  -7   2   83.29    7.10
  -4   7  -2   83.19    4.50
  -4   7  -2   72.69    7.50
  -4   7  -2   63.49    5.40
  -4   7  -2   65.99    9.10
  -4   7  -2   74.69    8.00
   4  -7   2   77.79    6.80
   4  -7   2   80.49    7.50
  -5   7  -2  281.37   14.10
  -5   7  -2  297.37   16.70
  -5   7  -2  290.47   20.10
  -5   7  -2  267.37   15.60
   5  -7   2  263.87   14.80
   5  -7   2  280.37   15.40
   8   6  -2    1.20    1.70
   8   6  -2    4.90    2.10
  -8  -6   2    1.90    2.30
  -8  -6   2    1.00    2.90
  -8  -6   2    2.70    1.90
   7   6  -2    3.20    2.00
   7   6  -2    2.90    1.60
  -7  -6   2    0.90    2.30
  -7  -6   2    9.40    3.80
   6   6  -2   33.50    4.40
   6   6  -2   32.10    5.10
  -6  -6   2   37.00    2.90
  -6  -6   2   34.50    5.40
  -6  -6   2   35.50    6.00
  -6  -6   2   43.80    5.30
   5   6  -2  268.07   14.30
   5   6  -2  234.28    7.40
   5   6  -2  262.47   12.40
  -5  -6   2  254.37   14.10
  -5  -6   2  255.47   12.50
  -5  -6   2  239.38   14.40
  -5  -6   2  232.38   10.30
   4   6  -2  326.27   15.80
   4   6  -2  344.77   11.20
  -4  -6   2  350.76   14.90
  -4  -6   2  348.97   16.30
  -4  -6   2  335.07   15.70
  -4  -6   2  359.26   14.20
   3   6  -2 1233.58   37.70
   3   6  -2 1291.47   38.90
   3   6  -2 1250.67   33.70
   3   6  -2 1203.38   38.10
  -3  -6   2 1249.77   37.30
  -3  -6   2 1222.78   33.50
  -3  -6   2 1233.48   38.40
   2   6  -2  230.58    9.50
   2   6  -2  221.28   11.60
   2   6  -2  223.48   11.80
  -2  -6   2  218.88   11.40
  -2  -6   2  204.28    9.00
  -2  -6   2  225.88   11.40
   1   6  -2 4278.87  111.29
   1   6  -2 4303.27  111.99
   1   6  -2 4350.36  108.29
  -1  -6   2 4344.77  111.09
  -1  -6   2 4308.87  108.09
   0   6  -2  119.29    7.30
   0   6  -2  140.49    8.70
   0   6  -2  127.59    8.70
   0  -6   2  126.09    7.30
   0  -6   2  113.29    7.80
  -1   6  -2 5253.07  135.29
  -1   6  -2 5214.48  132.39
  -1   6  -2 5278.67  130.99
  -1   6  -2 5405.96  134.09
   1  -6   2 5105.19  131.99
   1  -6   2 5349.16  133.59
  -2   6  -2    3.40    1.40
  -2   6  -2   11.20    3.50
   2  -6   2    1.00    1.10
   2  -6   2    5.30    2.20
  -3   6  -2 3648.93   92.89
  -3   6  -2 3752.22   99.89
  -3   6  -2 3814.72   93.99
   3  -6   2 3695.63   97.79
   3  -6   2 3735.83   98.09
  -4   6  -2  130.19    8.40
  -4   6  -2  118.79    9.40
  -4   6  -2  128.49    5.60
  -4   6  -2  116.99   13.80
   4  -6   2  127.99    9.10
   4  -6   2  136.39    9.00
  -5   6  -2 1954.60   57.99
  -5   6  -2 1908.71   57.99
  -5   6  -2 1983.80   57.59
  -5   6  -2 1874.91   64.39
   5  -6   2 1973.60   57.49
   5  -6   2 1925.11   56.89
  -6   6  -2   91.09    8.90
  -6   6  -2  113.69    9.80
  -6   6  -2   90.49   11.30
  -6   6  -2   95.09    8.60
   6  -6   2   93.29    8.70
   6  -6   2   96.99    8.60
   8   5  -2  227.38   14.90
  -8  -5   2  252.47   24.60
  -8  -5   2  263.77   15.60
   7   5  -2 1292.87   42.00
   7   5  -2 1411.36   45.00
  -7  -5   2 1248.58   47.00
  -7  -5   2 1409.06   50.59
  -7  -5   2 1403.66   44.40
   6   5  -2  195.98   12.20
   6   5  -2  190.28   10.80
  -6  -5   2  209.38   12.40
  -6  -5   2  205.48   14.60
  -6  -5   2  183.98   11.10
   5   5  -2 2510.85   67.99
   5   5  -2 2479.25   69.79
  -5  -5   2 2434.56   68.09
  -5  -5   2 2525.75   70.29
  -5  -5   2 2579.44   63.29
  -5  -5   2 2537.45   73.29
   4   5  -2   45.50    2.50
   4   5  -2   46.40    4.50
  -4  -5   2   44.90    4.80
  -4  -5   2   56.89    5.00
  -4  -5   2   42.80    5.30
  -4  -5   2   48.30    3.90
   3   5  -2 3627.54   89.19
   3   5  -2 3571.34   94.79
   3   5  -2 3629.44   94.79
  -3  -5   2 3585.94   94.39
  -3  -5   2 3598.34   89.19
  -3  -5   2 3740.03   93.79
  -3  -5   2 3762.72   94.69
   2   5  -2  127.59    7.10
   2   5  -2  138.19    8.20
   2   5  -2  133.99    6.20
   2   5  -2  137.79    8.10
  -2  -5   2  139.59    6.30
  -2  -5   2  133.29    7.80
  -2  -5   2  138.59    7.10
  -2  -5   2  133.19    7.90
   1   5  -2 1747.43   49.30
   1   5  -2 1781.32   49.20
   1   5  -2 1746.53   46.50
  -1  -5   2 1733.33   49.30
  -1  -5   2 1763.92   46.40
  -1  -5   2 1792.32   48.90
   0   5  -2  109.89    7.20
   0   5  -2  109.99    6.30
   0   5  -2  107.09    7.20
   0  -5   2  109.69    7.00
   0  -5   2  105.79    5.90
   0  -5   2  109.79    6.20
  -1   5  -2  490.15   18.90
  -1   5  -2  517.85   16.60
  -1   5  -2  494.25   17.30
  -1   5  -2  483.45   18.00
   1  -5   2  462.65   16.90
   1  -5   2  475.45   17.60
  -2   5  -2  507.55   18.50
  -2   5  -2  505.45   19.50
  -2   5  -2  499.85   16.20
  -2   5  -2  512.65   15.10
   2  -5   2  492.45   18.00
   2  -5   2  491.25   18.30
  -3   5  -2   16.20    2.60
  -3   5  -2   13.30    2.80
  -3   5  -2   21.50    2.30
   3  -5   2   14.10    2.80
   3  -5   2   11.20    2.80
  -4   5  -2  965.40   32.20
  -4   5  -2 1023.20   33.10
  -4   5  -2  996.20   37.50
  -4   5  -2  974.80   32.10
   4  -5   2  988.30   36.40
   4  -5   2  976.20   31.80
  -5   5  -2   57.59    6.50
  -5   5  -2   51.49    7.60
  -5   5  -2   52.59    5.70
  -5   5  -2   49.40    5.60
   5  -5   2   52.29    5.60
   5  -5   2   55.39    5.70
  -6   5  -2  896.71   38.40
  -6   5  -2  878.21   32.00
  -6   5  -2  935.01   31.40
  -6   5  -2  937.01   35.20
   6  -5   2  899.81   31.40
   6  -5   2  898.61   31.70
   6  -5   2  869.41   37.70
  -9  -4   2   20.50    5.50
   8   4  -2   62.09    7.20
   8   4  -2   67.89    7.30
  -8  -4   2   62.49    9.30
  -8  -4   2   58.29    6.70
   7   4  -2  267.97   14.90
   7   4  -2  276.47   14.30
  -7  -4   2  264.27   14.80
  -7  -4   2  260.97   18.10
  -7  -4   2  260.27   14.10
   6   4  -2  630.34   23.90
   6   4  -2  589.74   22.40
  -6  -4   2  608.84   23.30
  -6  -4   2  603.94   27.30
  -6  -4   2  589.94   23.00
   5   4  -2 1340.57   41.10
   5   4  -2 1352.16   40.10
  -5  -4   2 1376.56   44.80
  -5  -4   2 1304.57   40.60
  -5  -4   2 1397.46   40.70
   4   4  -2 2804.22   72.99
   4   4  -2 2771.12   73.89
  -4  -4   2 2761.82   73.19
  -4  -4   2 2745.63   69.19
  -4  -4   2 2805.62   76.59
   3   4  -2 3644.74   89.29
   3   4  -2 3732.03   96.29
   3   4  -2 3807.72   95.19
   3   4  -2 3751.62   94.09
   3   4  -2 3809.32   89.39
  -3  -4   2 3698.63   94.69
  -3  -4   2 3439.66   93.69
  -3  -4   2 3744.53   95.79
   2   4  -2 5102.49  125.09
   2   4  -2 5274.97  128.99
  -2  -4   2 5106.29  128.49
  -2  -4   2 5338.27  128.19
  -2  -4   2 5125.59  125.09
  -2  -4   2 5122.89  128.59
   1   4  -2 3504.85   87.29
   1   4  -2 3594.24   89.89
   1   4  -2 3517.75   89.59
  -1  -4   2 3502.85   90.09
  -1  -4   2 3496.85   87.29
  -1  -4   2 3617.84   89.69
   0  -4   2 7826.82  187.68
  -1   4  -2 2766.92   70.99
  -1   4  -2 2788.12   71.89
  -1   4  -2 2731.83   69.39
  -1   4  -2 2687.43   70.19
   1  -4   2 2716.83   70.19
   1  -4   2 2781.02   70.79
  -2   4  -2 5350.96  132.19
  -2   4  -2 5333.07  128.59
  -2   4  -2 5165.88  130.89
  -2   4  -2 5239.78  128.39
   2  -4   2 5362.86  130.89
   2  -4   2 5187.58  130.79
  -3   4  -2  932.61   25.60
  -3   4  -2  951.50   29.50
  -3   4  -2  981.10   29.00
  -3   4  -2  912.21   29.10
   3  -4   2  961.80   28.90
   3  -4   2  917.01   28.80
  -4   4  -2 2295.17   68.69
  -4   4  -2 2327.67   57.29
  -4   4  -2 2364.26   63.09
  -4   4  -2 2322.87   63.29
  -4   4  -2 2198.48   65.09
   4  -4   2 2372.36   62.99
   4  -4   2 2332.97   62.59
  -5   4  -2  168.88    9.80
  -5   4  -2  192.68   12.40
  -5   4  -2  206.08   14.30
  -5   4  -2  201.68   11.00
   5  -4   2  193.88   10.50
  -6   4  -2  702.83   26.70
  -6   4  -2  796.22   26.30
  -6   4  -2  796.22   33.80
  -6   4  -2  792.82   31.60
   6  -4   2  717.23   26.60
   6  -4   2  758.92   26.60
   6  -4   2  716.73   32.20
  -7   4  -2   55.89    6.30
  -7   4  -2   48.70    8.20
  -7   4  -2   66.69    8.60
   7  -4   2   51.19    5.90
   7  -4   2   50.09    5.90
   7  -4   2   59.09    8.30
   9   3  -2  806.02   32.60
   9   3  -2  802.22   32.90
  -9  -3   2  923.61   32.50
  -9  -3   2  827.02   40.90
   8   3  -2  331.87   17.50
   8   3  -2  323.77   17.20
  -8  -3   2  316.07   16.20
  -8  -3   2  331.47   22.20
   7   3  -2 1587.34   49.70
   7   3  -2 1634.44   49.90
  -7  -3   2 1643.54   48.70
  -7  -3   2 1611.44   56.69
  -7  -3   2 1632.34   51.19
   6   3  -2  398.36   17.10
   6   3  -2  380.26   17.00
  -6  -3   2  390.46   17.60
  -6  -3   2  380.06   16.20
  -6  -3   2  389.66   20.80
   5   3  -2 1675.13   49.10
   5   3  -2 1693.43   48.90
  -5  -3   2 1745.43   48.60
  -5  -3   2 1754.62   53.89
  -5  -3   2 1713.63   49.40
   4   3  -2  125.89    8.30
   4   3  -2  131.29    7.80
   4   3  -2  128.19    7.50
  -4  -3   2  143.09    8.00
  -4  -3   2  112.69    8.60
  -4  -3   2  144.79    7.90
   3   3  -2 1345.27   36.80
   3   3  -2 1334.77   34.00
   3   3  -2 1277.77   36.90
  -3  -3   2 1348.57   38.90
  -3  -3   2 1220.48   36.40
   2   3  -2   26.60    2.80
   2   3  -2   21.70    2.70
  -2  -3   2   20.80    2.50
  -2  -3   2   26.50    1.70
  -2  -3   2   23.20    2.70
  -2  -3   2   20.00    2.60
   1   3  -2 2150.38   55.79
   1   3  -2 2127.59   53.79
  -1  -3   2 2208.68   55.79
  -1  -3   2 2163.58   53.89
  -1  -3   2 2213.38   54.29
  -1  -3   2 2146.99   56.49
   0   3  -2 2059.19   53.19
   0   3  -2 2073.39   54.09
   0   3  -2 2134.69   55.29
   0  -3   2 2211.98   53.39
   0  -3   2 2114.69   53.29
   0  -3   2 2064.89   53.99
  -1   3  -2 1568.14   42.50
  -1   3  -2 1639.74   42.80
  -1   3  -2 1661.93   43.60
  -1   3  -2 1638.54   41.90
   1  -3   2 1630.34   42.60
   1  -3   2 1577.94   42.40
  -2   3  -2 2836.02   71.39
  -2   3  -2 2782.12   70.19
  -2   3  -2 2827.42   71.59
  -2   3  -2 2782.52   69.09
   2  -3   2 2774.62   70.99
   2  -3   2 2734.93   70.69
  -3   3  -2 2218.28   62.49
  -3   3  -2 2163.58   58.79
  -3   3  -2 2192.28   57.79
   3  -3   2 2171.88   57.29
   3  -3   2 2225.88   57.89
  -4   3  -2 2481.65   66.89
  -4   3  -2 2289.17   60.09
  -4   3  -2 2042.50   67.49
  -4   3  -2 2278.77   60.89
  -4   3  -2 2289.07   55.99
   4  -3   2 2252.77   59.89
   4  -3   2 2228.38   60.39
  -5   3  -2 2038.90   61.49
  -5   3  -2 2037.80   57.19
  -5   3  -2 1992.70   62.89
  -5   3  -2 2152.58   55.99
   5  -3   2 2036.70   56.29
   5  -3   2 2164.38   57.29
  -6   3  -2 1195.38   42.60
  -6   3  -2 1202.68   46.70
   6  -3   2 1188.98   36.30
   6  -3   2 1201.68   43.10
   6  -3   2 1124.19   39.30
  -7   3  -2 1304.77   48.20
  -7   3  -2 1310.87   48.80
  -7   3  -2 1295.47   40.90
   7  -3   2 1293.97   40.50
   7  -3   2 1323.67   48.10
   7  -3   2 1305.67   40.50
   8  -3   2  295.37   15.20
   8  -3   2  299.37   15.40
   8  -3   2  326.57   24.10
   8  -3   2  283.97   14.70
   9   2  -2   43.70    7.30
   9   2  -2   51.39    6.60
   9   2  -2   49.90    5.40
   9   2  -2   43.60    4.50
  -9  -2   2   44.90    6.00
  -9  -2   2   55.69    9.80
   8   2  -2  756.22   30.50
   8   2  -2  805.62   30.00
  -8  -2   2  758.22   36.50
  -8  -2   2  772.52   28.10
   7   2  -2  148.19   10.20
   7   2  -2  145.79   10.60
  -7  -2   2  144.79   13.30
   6   2  -2 2598.94   75.39
   6   2  -2 2895.11   75.79
  -6  -2   2 2754.62   77.09
  -6  -2   2 2879.61   82.59
  -6  -2   2 2694.33   73.39
   5   2  -2   11.30    2.60
   5   2  -2   13.80    2.70
  -5  -2   2   10.80    2.20
  -5  -2   2   22.30    3.50
  -5  -2   2   15.80    3.60
   4   2  -2 7204.98  183.78
  -4  -2   2 7620.74  181.18
   3   2  -2  186.58    8.80
   3   2  -2  209.18    9.30
  -3  -2   2  204.38    5.90
  -3  -2   2  207.88   10.70
  -3  -2   2  215.88    9.40
   1   2  -2  540.95   16.70
   1   2  -2  548.95   14.40
  -1  -2   2  552.74   15.90
  -1  -2   2  521.35   16.60
  -1  -2   2  525.95   15.90
  -1  -2   2  555.54   14.40
  -1   2  -2 1663.93   44.90
  -1   2  -2 1735.73   44.20
  -1   2  -2 1761.02   44.90
   1  -2   2 1734.93   44.90
   1  -2   2 1845.32   43.20
   1  -2   2 1769.82   44.60
   1  -2   2 1729.83   44.10
  -2   2  -2 4792.02  120.99
  -2   2  -2 4866.81  122.69
  -2   2  -2 4871.21  120.69
  -2   2  -2 5128.79  119.39
   2  -2   2 4870.31  120.09
   2  -2   2 5147.08  120.99
  -3   2  -2  497.25   18.70
  -3   2  -2  513.45   18.10
  -3   2  -2  498.35   16.50
  -3   2  -2  508.85   14.40
  -3   2  -2  494.05   15.80
  -3   2  -2  484.45   19.20
   3  -2   2  509.45   15.70
   3  -2   2  504.65   14.10
   3  -2   2  505.15   16.40
   3  -2   2  471.95   17.20
  -4   2  -2 1300.87   33.40
  -4   2  -2 1311.47   35.50
  -4   2  -2 1251.97   40.60
  -4   2  -2 1277.37   36.70
  -4   2  -2 1314.17   45.20
   4  -2   2 1298.67   36.50
   4  -2   2 1312.37   32.90
  -5   2  -2   32.50    4.90
  -5   2  -2   32.80    3.70
  -5   2  -2   28.80    4.70
   5  -2   2   24.40    3.20
   5  -2   2   26.70    1.80
  -6   2  -2  292.77   13.20
  -6   2  -2  278.07   17.10
  -6   2  -2  285.77   17.10
   6  -2   2  298.17   13.10
   6  -2   2  307.07   17.30
  -7   2  -2   66.89    8.80
  -7   2  -2   57.89    7.90
   7  -2   2   47.40    5.00
   7  -2   2   62.09    7.40
  -8   2  -2  109.89   12.20
  -8   2  -2   93.39   10.80
   8  -2   2  104.69   11.10
   8  -2   2  117.29    8.40
   8  -2   2  101.59    7.40
   8   1  -2  302.47   17.50
   8   1  -2  280.97   11.30
   8   1  -2  293.17   15.80
   8   1  -2  280.37   12.00
   8   1  -2  299.37   10.70
  -8  -1   2  310.67   22.20
  -8  -1   2  286.37   14.30
   7   1  -2   16.50    4.00
  -7  -1   2   15.00    3.10
  -7  -1   2   20.10    4.90
   6   1  -2  320.67   10.70
   6   1  -2  334.87   16.40
  -6  -1   2  329.47   16.80
  -6  -1   2  320.47   13.70
  -6  -1   2  363.16   19.90
   5   1  -2  387.76   16.60
   5   1  -2  359.26   11.20
  -5  -1   2  388.86   14.30
  -5  -1   2  371.36   19.00
  -5  -1   2  386.66   16.90
   4   1  -2    4.90    1.90
   4   1  -2    1.20    1.00
  -4  -1   2    3.70    1.90
  -4  -1   2    3.10    1.30
  -4  -1   2    2.20    1.10
   3   1  -2 1806.22   47.30
   3   1  -2 1678.03   47.30
  -3  -1   2 1672.23   49.30
  -3  -1   2 1852.71   47.70
  -3  -1   2 1711.43   45.00
   2   1  -2  486.55   15.50
  -2  -1   2  485.05   15.60
  -2  -1   2  493.45   16.80
  -2  -1   2  463.55   12.50
   0   1  -2  381.46   10.70
   0   1  -2  371.56   10.70
   0   1  -2  380.36   11.40
   0   1  -2  400.66   10.70
   0  -1   2  401.56   10.80
   0  -1   2  390.96   10.70
   0  -1   2  377.86   12.10
   0  -1   2  388.36   11.30
  -2   1  -2  449.16   13.30
  -2   1  -2  454.25   14.20
  -2   1  -2  461.85   13.40
  -2   1  -2  461.35   15.30
  -2   1  -2  468.25   15.60
  -2   1  -2  523.55   19.30
   2  -1   2  466.75   14.20
   2  -1   2  476.35   13.30
   2  -1   2  480.65   15.20
  -3   1  -2 7229.78  171.68
   3  -1   2 7098.09  175.98
  -4   1  -2    0.20    0.70
  -4   1  -2    0.40    1.10
  -4   1  -2    1.30    1.10
   4  -1   2    1.80    0.90
   4  -1   2    1.80    0.80
  -5   1  -2 4427.66  109.89
  -5   1  -2 4378.36  116.09
  -5   1  -2 4380.86  117.09
   5  -1   2 4248.67  106.29
   5  -1   2 4532.75  109.89
   5  -1   2 4316.77  115.09
  -6   1  -2   83.09    8.40
  -6   1  -2   97.89    9.50
   6  -1   2   88.09    6.00
   6  -1   2   84.29    5.80
   6  -1   2   88.19    4.30
   6  -1   2   84.19    8.10
  -7   1  -2 1754.52   58.69
  -7   1  -2 1792.52   60.89
   7  -1   2 1790.42   50.69
   7  -1   2 1924.21   58.49
   7  -1   2 1793.12   50.09
   7  -1   2 1808.72   45.60
  -8   1  -2  123.79   12.80
  -8   1  -2  121.59   12.20
   8  -1   2  123.99    8.20
   8  -1   2  109.49    7.20
   8  -1   2  124.89   11.30
   8   0  -2  389.26   12.10
   8   0  -2  390.36   20.90
   8   0  -2  379.26   14.20
   8   0  -2  384.06   12.40
   7   0  -2 1423.46   48.30
   7   0  -2 1494.85   40.30
   7   0  -2 1512.55   39.40
   7   0  -2 1522.55   38.70
  -7   0   2 1484.95   49.90
  -7   0   2 1396.66   52.89
   6   0  -2  975.90   26.80
   6   0  -2  920.71   33.40
   6   0  -2  931.21   25.80
  -6   0   2  940.31   37.20
  -6   0   2  936.71   34.10
  -6   0   2  932.31   28.90
  -6   0   2  955.50   26.40
   5   0  -2 2874.31   70.29
   5   0  -2 2938.51   77.39
   5   0  -2 2761.22   69.69
  -5   0   2 2571.34   79.99
  -5   0   2 2779.42   72.09
  -5   0   2 2867.21   77.89
  -5   0   2 2894.51   77.59
  -5   0   2 2796.22   69.79
   4   0  -2  586.54   21.10
   4   0  -2  605.24   17.00
   4   0  -2  603.94   15.90
   4   0  -2  607.64   21.60
  -4   0   2  584.14   21.30
  -4   0   2  586.64   21.70
  -4   0   2  612.14   18.20
  -4   0   2  587.24   16.70
  -4   0   2  600.64   23.70
   3   0  -2 4863.41  118.49
   3   0  -2 5061.59  122.79
   3   0  -2 4746.43  122.89
   3   0  -2 5190.68  119.79
  -3   0   2 4953.70  118.29
  -3   0   2 5109.39  119.49
  -3   0   2 4568.24  124.79
   2   0  -2  145.59    4.80
   2   0  -2  145.49    4.80
   2   0  -2  147.09    6.50
   2   0  -2  150.48    5.30
   2   0  -2  142.89    6.90
  -2   0   2  145.69    4.90
  -2   0   2  141.09    4.80
  -2   0   2  151.08    5.10
  -2   0   2  146.49    7.00
  -2   0   2  147.49    6.60
   0   0  -2   25.30    1.70
   0   0  -2   25.10    1.90
   0   0   2   24.50    1.70
   0   0   2   25.70    1.90
   0   0   2   23.60    1.70
  -1   0  -2 1008.60   26.10
  -1   0  -2 1030.70   26.70
   1   0   2  955.30   26.60
   1   0   2 1042.80   26.20
   1   0   2 1067.39   26.60
   1   0   2  995.40   26.60
  -2   0  -2   15.70    2.10
  -2   0  -2   12.70    1.50
  -2   0  -2   13.10    0.80
  -2   0  -2   15.70    2.20
  -2   0  -2   13.20    1.70
   2   0   2   19.10    1.70
   2   0   2   13.50    1.90
   2   0   2   16.60    1.60
   2   0   2   18.90    2.30
   2   0   2   14.10    1.60
  -3   0  -2  347.27   14.20
  -3   0  -2  344.27   11.30
  -3   0  -2  330.37   13.20
  -3   0  -2  343.67   13.50
  -3   0  -2  322.57   12.30
   3   0   2  369.46   11.60
   3   0   2  333.57   11.20
   3   0   2  366.26   11.00
   3   0   2  327.87   13.20
  -4   0  -2  246.78   10.80
  -4   0  -2  224.08   11.50
  -4   0  -2  229.48   11.90
  -4   0  -2  256.97   14.70
   4   0   2  240.88    9.30
   4   0   2  250.87    8.90
   4   0   2  263.57   12.30
   4   0   2  253.17    9.50
  -5   0  -2    2.60    1.60
  -5   0  -2    1.80    1.90
  -5   0  -2    1.80    1.70
   5   0   2    3.00    1.10
   5   0   2    1.00    0.70
   5   0   2    1.00    0.80
   5   0   2    1.40    1.00
  -6   0  -2  436.06   20.70
  -6   0  -2  408.16   21.60
   6   0   2  485.45   15.80
   6   0   2  434.16   15.90
   6   0   2  460.65   20.00
   6   0   2  463.35   15.80
  -7   0  -2   28.80    5.90
  -7   0  -2   30.60    5.60
   7   0   2   25.00    4.90
   7   0   2   33.50    4.10
   7   0   2   30.70    3.20
   7   0   2   32.00    3.70
   7   0   2   28.10    2.70
  -8   0  -2  514.75   28.20
  -8   0  -2  511.15   26.30
   8   0   2  508.65   24.10
   8   0   2  513.15   17.40
   8   0   2  494.75   20.00
   8   0   2  515.55   19.10
   8   0   2  516.35   16.20
  -9   0  -2   15.90    5.90
  -9   0  -2   16.20    7.10
   9   0   2    9.30    3.60
   9   0   2   15.00    3.60
   9   0   2   14.40    3.50
   9   0   2   15.10    3.00
   8  -1  -2   10.70    3.70
   8  -1  -2   20.70    3.10
  -8   1   2   21.00    5.40
  -8   1   2   19.00    6.70
   7  -1  -2    5.30    1.70
   7  -1  -2    6.50    1.50
   7  -1  -2    3.90    2.80
  -7   1   2    8.80    4.10
  -7   1   2    7.20    1.80
  -7   1   2    8.30    3.60
   6  -1  -2   18.90    3.80
   6  -1  -2   20.10    2.30
   6  -1  -2   19.70    2.60
  -6   1   2   11.50    4.10
  -6   1   2   14.50    2.20
  -6   1   2   21.40    4.30
   5  -1  -2  234.48    9.70
   5  -1  -2  239.08   13.40
   5  -1  -2  246.98    9.30
   5  -1  -2  246.88    7.50
  -5   1   2  263.77   13.90
  -5   1   2  240.08    9.50
  -5   1   2  237.38   15.10
   4  -1  -2  533.75   16.50
   4  -1  -2  566.64   20.20
   4  -1  -2  542.55   16.30
   4  -1  -2  539.55   14.40
   4  -1  -2  546.35   20.80
  -4   1   2  530.35   20.10
  -4   1   2  542.05   16.30
  -4   1   2  475.15   21.40
   3  -1  -2 2081.79   51.99
   3  -1  -2 2073.89   51.99
   3  -1  -2 1997.50   51.19
   3  -1  -2 2079.79   50.09
   3  -1  -2 2097.49   56.29
   3  -1  -2 1899.51   54.39
  -3   1   2 2134.89   56.49
  -3   1   2 2067.39   51.79
  -3   1   2 2062.09   55.09
   2  -1  -2 2206.68   51.39
   2  -1  -2 2102.99   52.79
   2  -1  -2 2135.29   51.39
   2  -1  -2 2217.98   54.29
   2  -1  -2 2049.70   52.49
  -2   1   2 2004.10   52.69
  -2   1   2 2075.49   54.29
  -2   1   2 2097.99   55.49
  -1   1   2 4168.58  101.49
  -1  -1  -2 2070.99   52.69
  -1  -1  -2 2090.89   51.89
  -1  -1  -2 2151.38   52.59
   1   1   2 2139.69   52.09
   1   1   2 2130.79   51.99
   1   1   2 2084.09   51.49
   1   1   2 2217.08   51.39
  -3  -1  -2  828.32   25.30
  -3  -1  -2  874.01   24.80
  -3  -1  -2  816.12   25.40
  -3  -1  -2  865.21   27.20
   3   1   2  839.62   22.90
   3   1   2  844.12   22.90
   3   1   2  861.71   23.70
   3   1   2  824.52   25.40
   3   1   2  846.02   22.80
   3   1   2  796.52   26.40
  -4  -1  -2 5488.75  139.89
  -4  -1  -2 5749.32  144.29
  -4  -1  -2 5621.24  141.89
   4   1   2 5537.75  139.79
   4   1   2 5705.63  137.69
   4   1   2 5715.63  137.99
   4   1   2 5729.53  137.09
  -5  -1  -2   59.59    5.30
  -5  -1  -2   57.49    6.60
  -5  -1  -2   57.89    5.80
  -5  -1  -2   53.09    5.70
   5   1   2   60.49    3.80
   5   1   2   56.09    4.30
   5   1   2   57.49    5.20
   5   1   2   50.59    3.80
   5   1   2   58.89    4.20
  -6  -1  -2 2396.56   72.99
  -6  -1  -2 2328.87   66.59
  -6  -1  -2 2387.06   70.09
  -6  -1  -2 2467.95   70.49
   6   1   2 2382.76   62.89
   6   1   2 2367.06   62.49
   6   1   2 2567.44   64.79
   6   1   2 2516.05   67.79
   6   1   2 2385.76   61.69
  -7  -1  -2    4.70    3.00
  -7  -1  -2   -0.20    1.20
  -7  -1  -2    0.90    1.50
   7   1   2    2.60    0.90
   7   1   2    0.90    1.10
   7   1   2    1.80    1.10
   7   1   2    0.60    0.90
   7   1   2    4.10    2.00
  -8  -1  -2  537.65   26.40
  -8  -1  -2  554.64   29.10
   8   1   2  532.25   18.20
   8   1   2  508.75   16.60
   8   1   2  501.05   20.60
   8   1   2  551.34   23.90
   8   1   2  552.74   19.10
  -9  -1  -2    9.10    4.10
  -9  -1  -2   14.20    5.80
   9   1   2   12.80    2.60
   9   1   2   15.90    3.50
   9   1   2   11.00    2.50
   9   1   2   12.80    3.70
   8  -2  -2  125.09    8.30
   8  -2  -2  121.59   12.20
   8  -2  -2  129.79    7.00
  -8   2   2  146.09   13.40
  -8   2   2  133.49   14.00
  -8   2   2  107.49    7.60
   7  -2  -2 1941.01   52.69
   7  -2  -2 1908.41   51.19
   7  -2  -2 1914.01   61.59
  -7   2   2 1701.73   63.19
  -7   2   2 1892.01   61.29
  -7   2   2 1941.41   52.79
   6  -2  -2  799.32   24.90
   6  -2  -2  791.42   31.50
   6  -2  -2  790.02   25.30
  -6   2   2  813.12   31.30
  -6   2   2  771.62   33.60
  -6   2   2  772.02   24.80
   5  -2  -2 3089.29   87.09
   5  -2  -2 3088.49   80.29
   5  -2  -2 3161.48   80.49
  -5   2   2 3357.06   90.69
  -5   2   2 3173.78   80.19
  -5   2   2 2942.51   85.49
   4  -2  -2 1221.58   40.40
   4  -2  -2 1341.67   36.20
   4  -2  -2 1296.07   36.50
  -4   2   2 1380.46   42.80
  -4   2   2 1304.07   35.90
  -4   2   2 1279.67   39.70
   3  -2  -2 2124.59   55.39
   3  -2  -2 2208.48   56.29
   3  -2  -2 2094.19   59.39
  -3   2   2 2151.98   58.19
  -3   2   2 2185.48   55.39
   2  -2  -2 2213.28   55.39
   2  -2  -2 2204.48   58.29
   2  -2  -2 2158.88   56.19
   2  -2  -2 2112.39   53.49
   2  -2  -2 2206.78   52.69
  -2   2   2 2132.39   55.19
  -2   2   2 2258.47   56.69
  -2   2   2 2156.78   52.49
  -2   2   2 2181.78   56.69
   1  -2  -2 1594.24   41.60
   1  -2  -2 1621.04   43.20
   1  -2  -2 1549.74   42.40
   1  -2  -2 1630.74   40.40
  -1   2   2 1640.44   40.30
  -1   2   2 1696.93   43.40
  -1   2   2 1683.23   41.90
  -1   2   2 1573.94   41.50
  -1   2   2 1666.23   42.80
   0  -2  -2  876.81   24.40
   0  -2  -2  955.00   23.80
   0  -2  -2  866.51   23.40
   0  -2  -2  833.12   24.20
   0   2   2  894.61   24.40
   0   2   2  876.01   24.30
   0   2   2  844.62   23.30
   0   2   2  887.51   23.40
   0   2   2  900.31   24.30
   0   2   2  895.61   23.60
  -1  -2  -2 1031.80   26.80
  -1  -2  -2  974.60   26.50
  -1  -2  -2 1023.70   24.10
   1   2   2  962.40   26.60
   1   2   2  931.81   25.90
   1   2   2 1004.80   26.50
   1   2   2 1023.90   24.20
   1   2   2  982.20   26.10
   1   2   2  955.70   26.60
  -2  -2  -2  113.79    5.50
  -2  -2  -2  102.29    4.80
  -2  -2  -2  109.69    5.40
   2   2   2  103.49    4.90
   2   2   2  118.99    3.60
   2   2   2  108.29    6.40
   2   2   2  112.49    5.60
   2   2   2  117.59    5.10
   2   2   2  108.19    4.40
   2   2   2  107.29    5.40
  -3  -2  -2  467.15   13.70
  -3  -2  -2  440.46   14.00
  -3  -2  -2  477.65   17.70
  -3  -2  -2  442.06   15.40
  -3  -2  -2  456.75   15.30
  -3  -2  -2  476.15   16.00
   3   2   2  404.46   15.40
   3   2   2  417.36   13.20
   3   2   2  455.75   13.70
   3   2   2  448.96   17.20
   3   2   2  467.15   15.20
   3   2   2  431.46   14.10
  -4  -2  -2  631.34   24.30
  -4  -2  -2  636.04   21.90
  -4  -2  -2  648.64   21.60
  -4  -2  -2  646.64   22.50
  -4  -2  -2  638.44   18.70
   4   2   2  678.73   20.10
   4   2   2  681.23   18.90
   4   2   2  678.73   21.00
   4   2   2  682.53   20.20
   4   2   2  604.74   24.00
  -5  -2  -2  747.33   29.00
  -5  -2  -2  719.83   26.60
  -5  -2  -2  765.62   26.50
  -5  -2  -2  713.83   25.00
   5   2   2  768.52   24.00
   5   2   2  781.82   23.80
   5   2   2  752.22   21.90
   5   2   2  795.62   24.30
   5   2   2  769.52   21.60
  -6  -2  -2  921.51   30.70
  -6  -2  -2  920.31   33.00
  -6  -2  -2  908.81   32.40
  -6  -2  -2  975.50   36.00
   6   2   2  874.01   28.30
   6   2   2  906.01   25.40
   6   2   2  944.31   26.50
   6   2   2  854.61   29.10
   6   2   2  921.11   28.50
  -7  -2  -2  700.43   28.60
  -7  -2  -2  670.53   30.80
  -7  -2  -2  639.84   27.70
  -7  -2  -2  648.14   25.40
   7   2   2  653.83   23.50
   7   2   2  654.13   24.70
   7   2   2  684.63   21.10
   7   2   2  687.93   22.90
   7   2   2  665.83   19.50
  -8  -2  -2  400.56   24.40
  -8  -2  -2  391.36   19.30
   8   2   2  414.06   17.90
   8   2   2  405.76   15.10
   8   2   2  442.26   16.70
   8   2   2  400.86   12.70
   8   2   2  406.86   19.00
  -9  -2  -2  478.35   28.90
  -9  -2  -2  485.65   22.70
   9   2   2  460.45   17.80
   9   2   2  501.95   22.70
   9   2   2  468.85   20.40
   9   2   2  451.45   17.10
   7  -3  -2    7.10    2.30
   7  -3  -2    1.10    2.50
   7  -3  -2   -3.80    2.80
  -7   3   2    1.90    3.10
  -7   3   2    2.60    2.00
  -7   3   2    0.50    1.00
   6  -3  -2 1406.96   50.29
   6  -3  -2 1462.65   43.60
   6  -3  -2 1548.55   44.30
  -6   3   2 1611.14   54.19
  -6   3   2 1519.55   43.60
  -6   3   2 1498.75   50.09
   5  -3  -2    9.80    2.50
   5  -3  -2    7.30    2.10
   5  -3  -2    3.10    1.70
  -5   3   2    6.30    2.00
  -5   3   2    8.30    2.80
   4  -3  -2 4112.19  104.19
   4  -3  -2 4101.89  108.79
   4  -3  -2 4027.00  102.79
  -4   3   2 4216.88  109.69
  -4   3   2 4143.39  104.89
  -4   3   2 4035.40  106.99
  -4   3   2 3872.51  102.39
   3  -3  -2  155.38    9.90
   3  -3  -2  155.68    7.70
   3  -3  -2  164.28    8.70
  -3   3   2  163.18    9.30
  -3   3   2  160.88    8.60
  -3   3   2  166.48    7.90
   1  -3  -2  717.03   22.30
   1  -3  -2  730.93   22.70
   1  -3  -2  691.13   20.90
   1  -3  -2  727.93   22.20
  -1   3   2  740.13   22.50
  -1   3   2  690.93   20.90
  -1   3   2  730.93   19.60
  -1  -3  -2 2370.06   59.59
  -1  -3  -2 2409.46   62.49
  -1  -3  -2 2454.15   62.39
   1   3   2 2463.75   62.09
   1   3   2 2538.15   62.49
   1   3   2 2455.25   60.99
   1   3   2 2425.56   62.59
  -3  -3  -2 3064.59   77.39
  -3  -3  -2 3073.79   76.39
  -3  -3  -2 2967.40   78.29
  -3  -3  -2 3044.80   77.69
   3   3   2 3103.99   76.19
   3   3   2 3082.29   76.49
   3   3   2 3051.09   81.19
   3   3   2 3033.60   78.79
   3   3   2 3040.20   77.69
   3   3   2 3198.28   74.09
  -4  -3  -2 4198.48  106.19
  -4  -3  -2 4017.70  102.79
  -4  -3  -2 4100.09  104.59
  -4  -3  -2 4181.48  106.49
  -4  -3  -2 4106.19  110.09
   4   3   2 4418.16  102.79
   4   3   2 4150.48  104.99
   4   3   2 4133.49  102.99
   4   3   2 4470.95  111.69
  -5  -3  -2 1501.55   43.40
  -5  -3  -2 1400.76   42.60
  -5  -3  -2 1480.35   38.30
  -5  -3  -2 1483.45   47.20
   5   3   2 1418.56   41.20
   5   3   2 1452.95   39.80
   5   3   2 1465.25   38.40
   5   3   2 1470.35   42.20
  -6  -3  -2  897.71   31.90
  -6  -3  -2  848.82   34.30
  -6  -3  -2  889.91   31.10
   6   3   2  885.61   25.30
   6   3   2  905.31   24.70
   6   3   2  879.31   28.30
   6   3   2  869.61   28.70
   6   3   2  874.81   27.50
  -7  -3  -2  384.36   19.80
  -7  -3  -2  423.16   19.00
  -7  -3  -2  381.56   22.40
   7   3   2  410.16   13.00
   7   3   2  404.36   17.10
   7   3   2  440.16   17.50
   7   3   2  419.26   14.30
   7   3   2  431.66   17.30
  -8  -3  -2  120.69    9.90
  -8  -3  -2  125.99   13.10
   8   3   2  126.19    8.90
   8   3   2  113.69    6.50
   8   3   2  111.29    8.50
   8   3   2  112.59    8.10
  -9  -3  -2   13.80    5.70
  -9  -3  -2   30.60    5.70
   9   3   2   15.50    2.70
   9   3   2   16.20    4.00
   9   3   2   19.20    3.70
   9   3   2   24.70    4.10
   7  -4  -2   64.19    7.60
   7  -4  -2   65.29    6.30
   7  -4  -2   59.49    6.30
   7  -4  -2   46.10    7.80
  -7   4   2   57.99    8.40
  -7   4   2   61.19    6.20
  -7   4   2   62.99    9.30
   6  -4  -2 1058.69   34.50
   6  -4  -2 1118.49   41.90
   6  -4  -2 1116.59   35.70
  -6   4   2 1091.79   42.70
  -6   4   2 1042.30   40.70
   5  -4  -2   33.20    4.00
   5  -4  -2   31.90    4.70
   5  -4  -2   31.30    4.40
   5  -4  -2   34.20    5.50
  -5   4   2   39.60    6.10
  -5   4   2   23.60    3.50
  -5   4   2   40.50    5.80
   4  -4  -2 1285.27   40.20
   4  -4  -2 1274.97   38.40
   4  -4  -2 1328.77   43.90
   4  -4  -2 1313.57   40.70
  -4   4   2 1322.77   40.50
  -4   4   2 1365.36   43.90
  -4   4   2 1350.86   42.60
  -4   4   2 1326.07   38.70
   3  -4  -2  254.67   12.30
   3  -4  -2  242.18   13.50
   3  -4  -2  234.38   10.90
  -3   4   2  259.77   11.30
  -3   4   2  266.07   12.60
  -3   4   2  258.57   13.00
   2  -4  -2  626.34   20.20
   2  -4  -2  614.54   22.70
   2  -4  -2  588.34   21.10
   2  -4  -2  605.34   21.60
  -2   4   2  620.34   16.90
  -2   4   2  621.44   20.10
  -2   4   2  607.84   21.50
  -2   4   2  630.04   21.70
   1  -4  -2  838.22   26.30
   1  -4  -2  832.02   26.50
   1  -4  -2  808.02   24.70
   1  -4  -2  851.91   26.60
  -1   4   2  844.42   26.40
  -1   4   2  824.82   23.20
  -1   4   2  812.82   24.60
   0  -4  -2  335.87   13.50
   0   4   2  349.67   13.70
   0   4   2  344.57   13.70
   0   4   2  349.07   12.30
  -1  -4  -2 3134.29   81.99
  -1  -4  -2 3200.68   82.29
   1   4   2 3237.58   81.99
   1   4   2 3287.77   82.59
   1   4   2 3195.88   80.09
  -2  -4  -2  120.99    7.10
  -2  -4  -2  142.79    7.30
  -2  -4  -2  132.09    4.50
  -2  -4  -2  129.89    7.00
   2   4   2  140.99    7.10
   2   4   2  131.79    6.00
   2   4   2  144.89    7.60
  -3  -4  -2 4883.71  122.99
  -3  -4  -2 4864.81  121.19
  -3  -4  -2 5171.48  121.59
  -3  -4  -2 4900.51  122.39
   3   4   2 4868.91  122.49
   3   4   2 4900.41  121.29
   3   4   2 4759.82  125.29
   3   4   2 4938.81  121.39
  -4  -4  -2   47.60    4.70
  -4  -4  -2   49.99    4.40
  -4  -4  -2   47.40    3.60
  -4  -4  -2   50.39    4.40
   4   4   2   45.80    2.70
   4   4   2   39.80    3.50
   4   4   2   40.80    3.60
   4   4   2   52.09    4.60
   4   4   2   46.40    4.70
  -5  -4  -2 3588.94   96.99
  -5  -4  -2 3584.44   97.69
  -5  -4  -2 3569.84  102.09
  -5  -4  -2 3795.42   96.19
  -5  -4  -2 3931.51   93.09
   5   4   2 3724.23   96.59
   5   4   2 3785.52   93.49
   5   4   2 3787.22   93.99
   5   4   2 3935.51   92.99
  -6  -4  -2  105.39    8.20
  -6  -4  -2   92.89    4.90
  -6  -4  -2   82.09    8.90
  -6  -4  -2   96.09    7.80
   6   4   2   93.89    7.60
   6   4   2   88.49    5.00
   6   4   2   95.99    5.30
   6   4   2   86.19    5.60
   6   4   2  101.69    7.30
  -7  -4  -2 2162.98   63.49
  -7  -4  -2 2027.10   67.99
  -7  -4  -2 2043.50   62.19
   7   4   2 2123.79   54.69
   7   4   2 2121.79   60.29
   7   4   2 2172.28   57.89
   7   4   2 2111.69   60.59
  -8  -4  -2  123.79   10.20
  -8  -4  -2  105.19   10.10
  -8  -4  -2  134.29   13.50
   8   4   2  116.59    8.80
   8   4   2  125.99    8.60
   8   4   2  107.09    8.80
   8   4   2  125.09    6.50
  -9  -4  -2  646.84   28.60
  -9  -4  -2  669.33   35.10
   9   4   2  637.34   25.20
   9   4   2  652.33   25.50
   9   4   2  679.13   21.00
   9   4   2  681.83   27.10
   6  -5  -2  701.33   31.40
   6  -5  -2  635.74   26.70
   6  -5  -2  623.24   24.40
   6  -5  -2  666.03   26.10
  -6   5   2  670.23   30.10
  -6   5   2  650.63   30.70
  -6   5   2  633.34   24.60
   5  -5  -2 1880.71   56.79
   5  -5  -2 1859.11   57.09
   5  -5  -2 1978.40   62.29
   5  -5  -2 1865.21   54.89
  -5   5   2 2047.00   62.39
  -5   5   2 1844.62   59.99
  -5   5   2 1919.01   57.39
   4  -5  -2 1086.79   34.00
   4  -5  -2 1116.19   36.30
   4  -5  -2 1126.09   36.20
   4  -5  -2 1089.79   39.20
  -4   5   2 1102.39   34.10
  -4   5   2  988.20   37.00
  -4   5   2 1051.59   35.80
  -4   5   2 1062.59   37.30
   3  -5  -2 4005.10  102.29
   3  -5  -2 3840.22  104.79
   3  -5  -2 3884.11  102.59
   3  -5  -2 3711.23   99.69
  -3   5   2 3904.71  100.09
  -3   5   2 3856.11  102.49
  -3   5   2 3975.10  103.79
   2  -5  -2  792.52   25.30
   2  -5  -2  758.62   27.10
   2  -5  -2  776.22   26.80
   2  -5  -2  792.22   28.20
  -2   5   2  779.42   27.30
  -2   5   2  802.82   21.90
  -2   5   2  780.12   25.20
   1  -5  -2 5849.11  145.99
   1  -5  -2 6005.20  148.69
   1  -5  -2 5849.21  148.09
   1  -5  -2 5939.91  148.89
  -1   5   2 5676.73  145.79
  -1   5   2 5954.70  144.19
  -1   5   2 6014.90  148.59
   0  -5  -2  540.15   19.50
   0  -5  -2  545.15   17.80
   0  -5  -2  499.15   19.30
   0   5   2  539.25   19.50
   0   5   2  509.95   19.40
   0   5   2  505.25   17.40
  -1  -5  -2 3779.52   94.89
  -1  -5  -2 3711.53   97.39
  -1  -5  -2 3721.63   97.39
   1   5   2 3781.72   97.69
   1   5   2 3927.61   97.59
   1   5   2 3813.62   94.89
  -2  -5  -2  180.38    9.40
  -2  -5  -2  192.88    9.90
   2   5   2  178.78    9.30
   2   5   2  192.88   10.00
   2   5   2  186.58   10.00
   2   5   2  189.58    8.20
  -3  -5  -2 1110.09   32.70
  -3  -5  -2 1111.29   31.60
  -3  -5  -2 1099.49   33.60
  -3  -5  -2 1148.59   34.10
   3   5   2 1104.39   30.70
   3   5   2 1124.89   33.00
   3   5   2 1085.09   33.80
  -4  -5  -2  109.59    7.20
  -4  -5  -2  105.99    4.40
  -4  -5  -2  113.39    6.70
  -4  -5  -2  109.29    7.70
  -4  -5  -2  104.89    6.30
   4   5   2   97.69    7.00
   4   5   2  101.09    5.40
   4   5   2  108.39    6.70
  -5  -5  -2   57.99    5.30
  -5  -5  -2   66.49    4.70
  -5  -5  -2   62.49    5.50
   5   5   2   67.99    5.30
   5   5   2   87.29    6.80
   5   5   2   61.49    3.70
  -6  -5  -2  112.79    8.50
  -6  -5  -2  110.69    8.90
  -6  -5  -2  116.19    6.10
   6   5   2  119.99    8.50
   6   5   2  114.79    6.10
   6   5   2  123.09    7.40
  -7  -5  -2   57.49    6.70
  -7  -5  -2   61.09    6.70
  -7  -5  -2   55.29    8.00
   7   5   2   62.39    4.20
   7   5   2   51.09    5.90
   7   5   2   63.19    5.30
   7   5   2   63.59    6.70
   7   5   2   54.99    4.70
  -8  -5  -2  116.79   10.50
  -8  -5  -2  125.79   13.20
  -8  -5  -2  107.49   10.00
   8   5   2  107.49    9.20
   8   5   2  115.89    7.50
   8   5   2  108.49    9.10
   8   5   2  119.09    6.10
   8   5   2  107.59    7.50
  -9  -5  -2  143.69   12.00
   9   5   2  131.69    8.80
   9   5   2  117.29    8.00
   9   5   2  125.99   10.20
   9   5   2  115.69   10.10
   9   5   2  115.89    6.30
   6  -6  -2  141.39   11.00
   6  -6  -2  135.89   10.00
   6  -6  -2  129.29   11.10
   6  -6  -2  128.39   13.00
  -6   6   2  114.59    9.30
  -6   6   2  125.39   12.30
  -6   6   2  114.19   11.70
   5  -6  -2   11.20    3.00
   5  -6  -2   10.80    4.00
   5  -6  -2    6.80    2.50
   5  -6  -2    6.90    3.10
  -5   6   2   15.60    6.20
  -5   6   2   17.60    3.50
  -5   6   2   15.20    6.60
  -5   6   2   15.80    4.90
   4  -6  -2  158.08   10.00
   4  -6  -2  157.88   11.30
   4  -6  -2  162.18   12.50
   4  -6  -2  160.28   11.00
  -4   6   2  155.28   11.30
  -4   6   2  142.09   11.20
  -4   6   2  154.28   11.90
   3  -6  -2  167.18   10.00
   3  -6  -2  173.78   11.60
   3  -6  -2  168.38   11.10
   3  -6  -2  181.18   12.50
  -3   6   2  184.18   10.40
  -3   6   2  156.98   11.30
  -3   6   2  176.98   11.60
   2  -6  -2  572.04   20.90
   2  -6  -2  568.44   23.40
   2  -6  -2  551.64   22.90
   2  -6  -2  553.64   22.30
  -2   6   2  581.14   23.30
  -2   6   2  583.04   21.00
  -2   6   2  581.64   17.80
   1  -6  -2 1567.64   46.60
   1  -6  -2 1565.34   47.30
   1  -6  -2 1472.35   43.90
  -1   6   2 1554.44   44.30
  -1   6   2 1549.34   42.50
  -1   6   2 1591.74   47.10
   0  -6  -2 1314.47   45.30
   0  -6  -2 1367.96   41.10
   0  -6  -2 1369.76   38.80
   0   6   2 1359.96   38.80
   0   6   2 1293.67   41.20
   0   6   2 1357.36   41.20
  -1  -6  -2 2510.05   66.39
  -1  -6  -2 2523.95   69.29
  -1  -6  -2 2543.55   69.59
   1   6   2 2548.65   69.49
   1   6   2 2566.54   69.79
   1   6   2 2546.45   66.59
  -2  -6  -2 2744.03   72.69
  -2  -6  -2 2664.73   72.79
   2   6   2 2765.12   73.59
   2   6   2 2514.95   72.29
   2   6   2 2717.03   72.79
   2   6   2 2742.33   69.59
  -3  -6  -2 2016.70   57.19
  -3  -6  -2 2118.99   54.09
  -3  -6  -2 2047.30   56.49
  -3  -6  -2 1942.51   56.99
  -3  -6  -2 2135.39   51.19
   3   6   2 2061.49   56.89
   3   6   2 2016.80   57.59
   3   6   2 1974.50   53.59
  -4  -6  -2 2575.84   69.49
  -4  -6  -2 2631.04   70.69
  -4  -6  -2 2690.83   72.69
  -4  -6  -2 2596.24   73.59
   4   6   2 2750.22   71.89
   4   6   2 2722.33   68.39
   4   6   2 2713.43   73.29
  -5  -6  -2  677.63   22.60
  -5  -6  -2  701.63   29.90
  -5  -6  -2  701.23   23.60
  -5  -6  -2  631.94   25.60
   5   6   2  709.03   24.20
   5   6   2  724.33   25.70
   5   6   2  684.53   20.90
  -6  -6  -2 1533.65   46.00
  -6  -6  -2 1537.45   42.50
  -6  -6  -2 1543.65   46.70
  -6  -6  -2 1527.95   48.70
   6   6   2 1575.94   45.20
   6   6   2 1540.45   41.20
   6   6   2 1526.35   47.20
   6   6   2 1534.15   40.30
  -7  -6  -2   61.09    6.60
  -7  -6  -2   65.69    4.50
  -7  -6  -2   64.29    7.50
   7   6   2   63.39    4.30
   7   6   2   66.89    4.70
   7   6   2   71.29    7.30
   7   6   2   69.69    6.20
  -8  -6  -2  501.85   23.00
  -8  -6  -2  460.35   23.00
   8   6   2  467.85   19.00
   8   6   2  458.75   15.30
   8   6   2  454.95   21.80
   8   6   2  466.75   21.70
   8   6   2  474.45   17.10
   8   6   2  469.45   15.30
  -9  -6  -2    6.40    3.30
   9   6   2    4.20    2.40
   9   6   2    3.20    2.20
   9   6   2    3.60    1.20
   9   6   2   -0.40    2.60
   9   6   2    1.20    1.40
   9   6   2    6.50    2.00
   5  -7  -2 1477.45   49.40
   5  -7  -2 1497.45   46.90
   5  -7  -2 1499.65   53.39
   5  -7  -2 1447.56   48.90
  -5   7   2 1485.45   52.29
  -5   7   2 1379.96   46.00
  -5   7   2 1441.26   49.10
  -5   7   2 1449.15   50.59
   4  -7  -2 1023.70   34.80
   4  -7  -2 1004.70   39.50
   4  -7  -2 1008.20   37.30
   4  -7  -2 1017.70   36.80
  -4   7   2  994.90   34.70
  -4   7   2 1114.99   40.00
  -4   7   2  975.00   37.10
  -4   7   2 1030.80   37.40
   3  -7  -2 1804.52   55.49
   3  -7  -2 1788.22   52.09
   3  -7  -2 1783.22   56.89
   3  -7  -2 1721.13   53.99
  -3   7   2 1759.12   44.40
  -3   7   2 1716.33   55.09
  -3   7   2 1701.13   55.49
   2  -7  -2 1619.34   50.19
   2  -7  -2 1659.03   51.79
   2  -7  -2 1601.24   51.29
   2  -7  -2 1606.44   50.39
  -2   7   2 1660.33   51.69
  -2   7   2 1633.94   44.10
   1  -7  -2  984.00   34.90
   1  -7  -2  993.90   34.20
   1  -7  -2 1015.10   32.10
  -1   7   2  995.20   34.80
  -1   7   2 1007.10   32.10
  -1   7   2  993.50   30.20
   0  -7  -2 1653.43   46.90
   0  -7  -2 1599.14   50.19
   0   7   2 1604.44   50.49
   0   7   2 1715.53   50.29
  -1  -7  -2  318.27   15.30
  -1  -7  -2  310.27   13.20
  -1  -7  -2  286.37   14.80
   1   7   2  314.07   13.20
   1   7   2  288.57   15.00
   1   7   2  304.07   15.30
  -2  -7  -2  511.85   20.70
  -2  -7  -2  499.35   20.70
   2   7   2  500.65   20.70
   2   7   2  514.55   18.20
   2   7   2  508.35   21.00
  -3  -7  -2    6.10    1.40
  -3  -7  -2    0.60    1.50
   3   7   2    5.60    1.60
   3   7   2    3.20    1.70
   3   7   2    5.10    2.30
  -4  -7  -2    3.00    0.90
  -4  -7  -2    4.10    1.70
  -4  -7  -2    2.00    1.60
  -4  -7  -2    6.70    2.30
  -4  -7  -2    4.60    2.20
   4   7   2    1.10    1.70
   4   7   2    2.30    1.60
   4   7   2    1.60    0.90
  -5  -7  -2   33.10    3.90
  -5  -7  -2   27.00    4.10
  -5  -7  -2   29.20    4.90
  -5  -7  -2   27.30    3.70
   5   7   2   30.30    4.30
   5   7   2   29.00    3.10
   5   7   2   31.40    4.60
  -6  -7  -2  199.98   13.50
  -6  -7  -2  206.08   11.30
  -6  -7  -2  215.68   10.60
   6   7   2  231.08   12.40
   6   7   2  205.58   12.80
   6   7   2  211.78    9.20
  -7  -7  -2   13.20    3.10
  -7  -7  -2   13.40    2.30
  -7  -7  -2   11.50    3.90
   7   7   2    9.60    3.30
   7   7   2   13.50    2.40
   7   7   2   13.00    3.70
  -8  -7  -2  289.37   11.10
  -8  -7  -2  313.27   17.10
  -8  -7  -2  318.17   18.90
   8   7   2  310.47   11.40
   8   7   2  329.27   12.00
   8   7   2  300.87   17.30
   8   7   2  288.17   17.60
   8   7   2  305.37   11.30
   8   7   2  315.77   15.50
   4  -8  -2  432.26   22.30
   4  -8  -2  411.96   21.40
   4  -8  -2  472.45   20.90
   4  -8  -2  425.06   23.70
  -4   8   2  444.06   22.70
  -4   8   2  422.76   20.10
  -4   8   2  414.16   20.80
  -4   8   2  420.96   23.20
   3  -8  -2   15.50    4.20
   3  -8  -2   11.30    3.30
   3  -8  -2   19.70    5.60
   3  -8  -2   12.40    3.60
  -3   8   2   17.60    2.10
  -3   8   2   21.50    5.00
  -3   8   2   14.50    3.70
  -3   8   2   21.50    4.10
  -3   8   2   19.60    2.20
  -3   8   2   16.70    5.20
   2  -8  -2 1426.16   47.90
   2  -8  -2 1393.76   46.50
   2  -8  -2 1463.95   44.40
   2  -8  -2 1441.16   48.00
  -2   8   2 1412.06   39.90
  -2   8   2 1355.66   57.19
   1  -8  -2   63.69    6.10
   1  -8  -2   67.89    7.30
   1  -8  -2   61.69    7.30
   1  -8  -2   64.19    7.20
  -1   8   2   53.89    5.30
  -1   8   2   74.09    8.00
   0  -8  -2 2673.83   73.89
   0  -8  -2 2672.03   76.49
   0  -8  -2 2748.72   77.79
   0   8   2 2724.73   73.49
   0   8   2 2754.82   78.79
   0   8   2 2593.34   77.59
  -1  -8  -2  176.88    9.90
  -1  -8  -2  173.58   11.80
  -1  -8  -2  175.78   11.50
   1   8   2  167.98   11.70
   1   8   2  172.08   11.80
   1   8   2  185.38   10.20
  -2  -8  -2 2474.35   71.69
   2   8   2 2520.15   68.59
   2   8   2 2532.85   72.29
   2   8   2 2535.55   72.49
  -3  -8  -2  506.15   20.90
  -3  -8  -2  451.65   15.80
   3   8   2  482.85   21.10
   3   8   2  470.45   17.70
   3   8   2  469.95   21.50
  -4  -8  -2 1267.67   34.70
  -4  -8  -2 1250.77   41.90
  -4  -8  -2 1309.57   37.10
  -4  -8  -2 1273.07   42.60
  -4  -8  -2 1291.87   41.00
   4   8   2 1314.57   37.70
   4   8   2 1342.87   43.20
   4   8   2 1275.87   41.90
  -5  -8  -2  543.65   21.80
  -5  -8  -2  562.54   24.70
  -5  -8  -2  579.24   20.10
   5   8   2  568.54   23.40
   5   8   2  578.64   24.40
   5   8   2  559.14   19.30
  -6  -8  -2  235.18   15.20
  -6  -8  -2  244.58   12.00
  -6  -8  -2  230.08   12.00
  -6  -8  -2  234.88   14.30
   6   8   2  230.98   10.20
   6   8   2  214.28   14.20
   6   8   2  211.78   13.00
  -7  -8  -2  438.46   17.10
  -7  -8  -2  449.56   22.80
  -7  -8  -2  424.96   18.60
  -7  -8  -2  420.16   20.70
   7   8   2  451.65   22.10
   7   8   2  425.96   15.30
   7   8   2  427.16   19.80
  -8  -8  -2    5.80    3.20
  -8  -8  -2    2.90    2.90
  -8  -8  -2   -0.40    1.00
   8   8   2   -6.00    2.10
   8   8   2    0.40    1.00
   8   8   2   -4.30    1.70
   8   8   2   -0.40    1.90
   3  -9  -2    4.20    3.40
   3  -9  -2   -0.20    1.30
   3  -9  -2    4.80    2.30
   3  -9  -2    2.80    2.20
  -3   9   2    2.90    2.10
  -3   9   2    4.60    2.50
  -3   9   2    3.20    2.50
  -3   9   2    0.90    2.50
  -3   9   2    2.70    1.20
   2  -9  -2  765.22   32.20
   2  -9  -2  746.73   28.70
   2  -9  -2  741.63   30.60
   2  -9  -2  788.82   32.20
  -2   9   2  778.42   25.00
  -2   9   2  713.03   31.80
  -2   9   2  792.82   31.40
   1  -9  -2    2.90    1.50
   1  -9  -2    0.30    2.40
   1  -9  -2    0.20    1.30
   1  -9  -2    3.80    2.10
  -1   9   2    1.30    2.00
  -1   9   2    1.90    1.80
  -1   9   2    6.20    3.00
   0  -9  -2  246.88   15.40
   0  -9  -2  239.38   14.90
   0  -9  -2  248.68   13.20
   0   9   2  232.38   15.40
   0   9   2  240.88   13.20
   0   9   2  264.07   15.60
  -1  -9  -2   18.00    4.20
  -1  -9  -2   27.50    5.00
  -1  -9  -2   25.60    3.80
   1   9   2   26.10    4.00
   1   9   2   41.20    7.60
   1   9   2   26.80    5.00
  -2  -9  -2   35.40    5.50
   2   9   2   42.50    6.10
   2   9   2   29.80    5.20
   2   9   2   33.80    4.20
  -3  -9  -2  190.88   12.50
  -3  -9  -2  155.78    8.40
   3   9   2  168.28    9.80
   3   9   2  184.98   12.60
   3   9   2  175.38   12.50
  -4  -9  -2    6.30    3.00
  -4  -9  -2   -0.40    2.30
  -4  -9  -2    1.50    1.40
  -4  -9  -2    0.20    0.70
  -4  -9  -2    3.80    1.90
   4   9   2    2.20    1.90
   4   9   2   -1.10    1.10
   4   9   2    1.60    1.70
  -5  -9  -2  290.77   12.50
  -5  -9  -2  294.27   16.70
  -5  -9  -2  289.27   17.20
  -5  -9  -2  311.57   15.70
   5   9   2  282.27   16.30
   5   9   2  307.87   15.90
   5   9   2  290.47   17.10
  -6  -9  -2    1.90    1.60
  -6  -9  -2    1.80    1.90
  -6  -9  -2   -0.10    1.30
  -6  -9  -2    5.70    3.20
   6   9   2    4.30    1.50
   6   9   2   -0.30    1.70
  -7  -9  -2  312.47   18.20
  -7  -9  -2  311.77   14.90
  -7  -9  -2  317.87   19.60
  -7  -9  -2  321.87   15.00
   7   9   2  332.97   17.90
   7   9   2  342.37   19.40
   7   9   2  315.47   12.80
   2 -10  -2  315.97   19.90
   2 -10  -2  361.26   21.20
   2 -10  -2  329.17   17.70
   2 -10  -2  357.06   20.30
  -2  10   2  351.66   16.00
  -2  10   2  358.26   14.10
  -2  10   2  342.67   21.40
  -2  10   2  368.66   15.00
   1 -10  -2 1637.74   51.89
   1 -10  -2 1617.74   54.79
   1 -10  -2 1753.42   55.59
   1 -10  -2 1680.33   62.09
  -1  10   2 1697.23   49.60
  -1  10   2 1654.03   52.19
  -1  10   2 1671.03   56.99
   0 -10  -2  136.39   10.40
   0 -10  -2  145.39   12.00
   0 -10  -2  163.38   13.00
   0  10   2  143.69   12.40
   0  10   2  155.08   12.80
   0  10   2  163.18   11.20
   0  10   2  153.58   13.00
  -1 -10  -2 1995.70   62.39
  -1 -10  -2 2000.50   63.29
   1  10   2 1990.80   62.69
   1  10   2 1897.01   63.39
   1  10   2 2005.20   58.39
  -2 -10  -2    0.90    2.10
  -2 -10  -2   10.60    3.50
   2  10   2    8.80    3.20
   2  10   2    8.30    3.00
  -3 -10  -2 1313.97   44.90
  -3 -10  -2 1223.48   37.40
  -3 -10  -2 1298.47   44.30
   3  10   2 1261.17   39.60
   3  10   2 1259.17   45.00
   3  10   2 1268.67   45.00
  -4 -10  -2   54.29    6.60
  -4 -10  -2   51.79    4.40
  -4 -10  -2   48.90    6.80
  -4 -10  -2   45.50    4.10
   4  10   2   52.29    7.50
   4  10   2   50.19    5.40
   4  10   2   54.59    7.50
  -5 -10  -2  404.86   15.20
  -5 -10  -2  456.45   20.90
  -5 -10  -2  407.56   22.10
  -5 -10  -2  412.56   21.70
   5  10   2  413.56   17.10
   5  10   2  422.76   22.30
   5  10   2  436.06   22.10
  -6 -10  -2   94.49   10.20
  -6 -10  -2   79.29    7.80
  -6 -10  -2   73.59    5.80
  -6 -10  -2   70.09    8.90
   6  10   2   58.69    8.10
   6  10   2   79.39    6.50
   6  10   2   72.39    8.40
  -1 -11  -2  282.47   17.90
  -1 -11  -2  321.17   19.30
  -1 -11  -2  252.57   22.30
   1  11   2  289.57   15.90
   1  11   2  280.37   19.10
   1  11   2  309.87   19.00
  -2 -11  -2   74.09    8.60
  -2 -11  -2   83.99    9.90
   2  11   2   75.29    9.00
   2  11   2   82.39    9.50
   2  11   2   76.49    9.40
  -3 -11  -2  538.95   25.90
  -3 -11  -2  526.65   18.30
  -3 -11  -2  561.34   20.40
  -3 -11  -2  520.65   25.30
   3  11   2  486.25   25.80
   3  11   2  503.55   21.50
   3  11   2  527.05   26.30
  -4 -11  -2  236.88   16.30
  -4 -11  -2  209.68   10.10
  -4 -11  -2  214.98    9.40
  -4 -11  -2  246.08   21.20
  -4 -11  -2  231.28   15.40
   4  11   2  245.08   16.70
   4  11   2  223.68   21.00
   4  11   2  239.58   12.90
   4  10  -3   13.40    2.90
   4  10  -3   11.50    3.60
   4  10  -3   17.90    5.00
  -4 -10   3   14.50    3.90
  -4 -10   3    7.50    3.10
   3  10  -3  219.78   11.70
   3  10  -3  200.68   14.80
   3  10  -3  228.28   16.10
  -3 -10   3  218.98   11.50
  -3 -10   3  236.78   15.20
   2  10  -3    0.40    2.10
   2  10  -3   -1.90    1.30
   2  10  -3    2.70    2.00
  -2 -10   3    7.30    3.40
  -2 -10   3   -0.20    1.60
   1  10  -3    7.30    3.20
   1  10  -3    7.40    2.90
   1  10  -3    2.30    2.50
   1  10  -3    2.80    2.20
  -1 -10   3   -0.50    2.50
  -1 -10   3   16.90    3.80
  -1 -10   3    5.50    2.30
   0  10  -3   -0.10    2.20
   0  10  -3   -0.80    1.30
   0  10  -3   -0.60    1.50
   0  10  -3   -2.20    1.70
   0 -10   3   -1.50    1.80
   0 -10   3   -0.50    1.50
   6   9  -3  222.18   15.40
  -6  -9   3  211.48   13.20
  -6  -9   3  206.58   15.50
  -6  -9   3  229.58   12.20
   5   9  -3  541.95   17.60
   5   9  -3  526.05   25.30
   5   9  -3  543.85   25.60
  -5  -9   3  543.25   25.20
  -5  -9   3  581.94   22.80
  -5  -9   3  515.05   22.50
   4   9  -3  605.24   26.70
   4   9  -3  606.14   27.00
   4   9  -3  595.34   20.20
  -4  -9   3  584.04   24.30
  -4  -9   3  578.94   25.80
   3   9  -3  684.23   23.30
   3   9  -3  661.03   28.80
   3   9  -3  696.03   28.60
  -3  -9   3  660.83   26.60
  -3  -9   3  712.33   28.50
  -3  -9   3  666.83   23.00
   2   9  -3  906.21   29.50
   2   9  -3  920.81   34.10
   2   9  -3  862.61   34.40
  -2  -9   3  903.61   33.30
  -2  -9   3  933.61   29.40
  -2  -9   3  789.92   32.10
   1   9  -3  366.96   16.50
   1   9  -3  370.16   20.10
   1   9  -3  386.16   19.30
  -1  -9   3  356.66   18.20
  -1  -9   3  375.56   16.40
   0   9  -3  910.41   35.80
   0   9  -3  943.21   32.10
   0   9  -3  931.31   34.40
   0  -9   3  888.01   31.10
   0  -9   3  932.81   33.80
  -1   9  -3   32.10    5.40
  -1   9  -3   32.80    6.20
  -1   9  -3   17.50    3.90
  -1   9  -3   32.60    5.00
   1  -9   3   35.40    4.90
   1  -9   3   30.50    5.30
  -2   9  -3  592.04   22.30
  -2   9  -3  588.34   25.10
  -2   9  -3  640.34   28.60
   2  -9   3  594.74   25.20
   2  -9   3  613.54   24.90
   7   8  -3  571.04   25.90
   7   8  -3  496.85   29.70
  -7  -8   3  548.45   27.60
  -7  -8   3  549.85   17.40
  -7  -8   3  551.54   26.40
   6   8  -3  485.35   22.50
   6   8  -3  437.96   22.10
  -6  -8   3  392.06   21.50
  -6  -8   3  418.36   22.00
  -6  -8   3  454.65   17.20
  -6  -8   3  450.95   20.00
   5   8  -3  307.97   17.20
   5   8  -3  288.57   16.70
   5   8  -3  294.27   10.50
  -5  -8   3  297.27   14.30
  -5  -8   3  312.37   15.60
  -5  -8   3  306.07   16.80
   4   8  -3  210.38   13.40
   4   8  -3  199.58    8.80
   4   8  -3  166.98   12.30
  -4  -8   3  197.08   12.80
   3   8  -3   35.60    3.70
   3   8  -3   31.60    4.90
   3   8  -3   28.40    4.80
  -3  -8   3   29.00    3.30
  -3  -8   3   39.60    5.30
   2   8  -3   16.90    3.00
   2   8  -3   20.10    3.90
   2   8  -3   21.60    4.30
  -2  -8   3   22.80    4.10
  -2  -8   3   18.80    4.00
  -2  -8   3   24.60    3.30
   1   8  -3    2.50    1.90
   1   8  -3    0.60    1.00
   1   8  -3   -1.70    1.00
  -1  -8   3    0.30    1.10
  -1  -8   3   -0.20    1.00
  -1  -8   3    4.10    2.00
   0   8  -3   85.19    7.00
   0   8  -3   65.49    6.10
   0   8  -3   54.49    6.50
   0   8  -3   67.79    7.60
   0  -8   3   72.89    6.50
   0  -8   3   57.89    6.40
  -1   8  -3    3.90    2.10
  -1   8  -3    3.10    1.60
  -1   8  -3    2.10    1.80
   1  -8   3    4.60    2.40
   1  -8   3    2.70    2.20
  -2   8  -3  304.27   13.50
  -2   8  -3  287.27   20.30
  -2   8  -3  286.17   15.30
   2  -8   3  278.57   14.70
   2  -8   3  319.97   16.00
  -3   8  -3    2.90    1.60
  -3   8  -3    1.60    2.00
  -3   8  -3    3.30    2.10
   3  -8   3    5.80    2.80
   3  -8   3    3.30    2.20
  -4   8  -3  173.68    8.30
  -4   8  -3  184.18   16.30
  -4   8  -3  185.98   13.50
   4  -8   3  174.08   11.50
   4  -8   3  183.68   12.50
   7   7  -3   48.70    7.20
   7   7  -3   44.70    5.80
  -7  -7   3   59.49    8.40
  -7  -7   3   56.59    7.50
  -7  -7   3   55.09    6.40
   6   7  -3 1720.63   54.79
  -6  -7   3 1780.02   52.79
  -6  -7   3 1679.63   54.89
  -6  -7   3 1688.93   56.49
  -6  -7   3 1759.32   46.80
   5   7  -3  237.48    9.00
   5   7  -3  230.48   14.00
  -5  -7   3  224.08   13.90
  -5  -7   3  238.68   11.30
  -5  -7   3  227.08   12.70
   4   7  -3 1938.11   57.69
   4   7  -3 1946.01   57.79
   4   7  -3 1921.91   49.90
  -4  -7   3 1979.60   56.49
  -4  -7   3 1883.31   55.99
  -4  -7   3 1910.91   57.29
   3   7  -3  866.51   30.80
   3   7  -3  865.81   25.70
   3   7  -3  872.81   31.20
  -3  -7   3  860.11   30.00
  -3  -7   3  845.22   25.50
  -3  -7   3  890.21   30.60
   2   7  -3 1524.35   42.70
   2   7  -3 1543.35   47.60
   2   7  -3 1542.95   47.10
  -2  -7   3 1548.65   47.20
  -2  -7   3 1524.75   42.60
  -2  -7   3 1525.25   46.50
   1   7  -3 1209.88   35.80
   1   7  -3 1218.68   39.70
   1   7  -3 1202.88   38.70
  -1  -7   3 1203.88   38.80
  -1  -7   3 1221.98   35.60
  -1  -7   3 1179.28   39.20
   0   7  -3  426.46   17.20
   0   7  -3  413.26   18.40
   0   7  -3  446.46   19.90
   0   7  -3  462.95   17.90
   0  -7   3  424.76   18.10
   0  -7   3  440.76   17.10
  -1   7  -3 1036.70   33.60
  -1   7  -3 1120.39   37.00
  -1   7  -3 1024.80   34.50
  -1   7  -3 1064.69   32.70
   1  -7   3 1039.20   34.20
   1  -7   3 1033.40   33.10
  -2   7  -3    3.00    1.40
  -2   7  -3    7.80    2.00
  -2   7  -3    8.40    3.30
   2  -7   3    4.70    2.00
   2  -7   3    2.10    1.50
  -3   7  -3  599.34   19.90
  -3   7  -3  564.04   24.50
   3  -7   3  576.54   23.40
   3  -7   3  611.34   23.40
  -4   7  -3   56.69    6.40
  -4   7  -3   49.99    6.50
  -4   7  -3   46.50    4.00
  -4   7  -3   48.00    7.80
   4  -7   3   52.39    6.10
   4  -7   3   40.60    5.20
  -5   7  -3   82.89   11.00
  -5   7  -3   80.79    8.40
   5  -7   3   88.09    8.00
   8   6  -3  446.76   20.70
   8   6  -3  419.56   22.00
  -8  -6   3  423.86   25.60
  -8  -6   3  415.66   21.30
   7   6  -3   19.90    4.30
   7   6  -3   13.20    3.40
  -7  -6   3   17.00    4.90
  -7  -6   3   18.10    5.00
  -7  -6   3   14.80    4.00
   6   6  -3  198.88   11.70
   6   6  -3  171.98   12.00
  -6  -6   3  207.78   14.80
  -6  -6   3  197.18    7.50
  -6  -6   3  199.28   12.80
  -6  -6   3  192.88   14.10
   5   6  -3   39.60    4.80
   5   6  -3   45.00    5.40
  -5  -6   3   34.70    4.50
  -5  -6   3   48.40    6.20
  -5  -6   3   35.60    3.60
   4   6  -3   29.90    2.30
   4   6  -3   35.40    4.80
  -4  -6   3   21.80    3.80
  -4  -6   3   33.20    4.60
  -4  -6   3   35.20    4.50
   3   6  -3  417.16   13.80
   3   6  -3  403.06   17.70
  -3  -6   3  430.06   19.30
  -3  -6   3  451.15   17.00
  -3  -6   3  431.76   17.70
  -3  -6   3  406.86   13.70
   2   6  -3   32.50    4.30
   2   6  -3   39.20    4.40
   2   6  -3   39.80    3.50
  -2  -6   3   31.50    3.10
  -2  -6   3   38.90    4.50
  -2  -6   3   37.60    4.60
   1   6  -3  895.71   29.80
   1   6  -3  901.11   30.50
   1   6  -3  929.81   27.60
  -1  -6   3  886.41   30.70
  -1  -6   3  923.41   27.40
  -1  -6   3  930.11   29.70
   0   6  -3   17.10    2.60
   0   6  -3   14.90    2.60
   0   6  -3   12.60    3.50
   0   6  -3   15.40    3.00
   0  -6   3   13.40    2.80
   0  -6   3   14.00    2.50
  -1   6  -3 1494.55   44.40
  -1   6  -3 1447.76   42.70
  -1   6  -3 1449.15   44.70
  -1   6  -3 1341.87   40.40
   1  -6   3 1449.26   42.30
   1  -6   3 1404.66   41.20
  -2   6  -3   11.70    3.40
  -2   6  -3    5.00    1.50
  -2   6  -3    8.40    2.10
  -2   6  -3    5.00    1.80
   2  -6   3    7.30    2.30
   2  -6   3    4.70    1.90
  -3   6  -3 1075.39   31.60
  -3   6  -3 1126.69   37.10
   3  -6   3 1087.29   34.50
   3  -6   3 1112.69   35.10
  -4   6  -3   35.80    3.30
  -4   6  -3   31.60    6.00
  -4   6  -3   31.50    4.80
   4  -6   3   38.00    4.70
   4  -6   3   44.20    5.30
  -5   6  -3  213.38   16.60
  -5   6  -3  239.28   20.70
  -5   6  -3  213.58   12.90
   5  -6   3  209.58   12.70
   5  -6   3  211.78   12.40
  -6   6  -3  140.59   14.20
  -6   6  -3  136.89   10.20
  -6   6  -3  152.48   14.60
   6  -6   3  162.48   14.80
   6  -6   3  156.58    9.90
   8   5  -3  452.65   22.30
   8   5  -3  434.76   20.70
  -8  -5   3  477.85   21.90
  -8  -5   3  456.15   26.70
   7   5  -3 1564.64   48.90
   7   5  -3 1516.25   50.19
  -7  -5   3 1647.94   50.59
  -7  -5   3 1605.34   49.99
  -7  -5   3 1576.64   55.99
   6   5  -3  470.65   19.90
  -6  -5   3  478.15   20.40
  -6  -5   3  486.85   20.80
  -6  -5   3  479.95   23.80
   5   5  -3 2822.32   76.69
   5   5  -3 2683.03   77.59
  -5  -5   3 2797.02   70.79
  -5  -5   3 2838.92   77.79
  -5  -5   3 2862.61   80.89
  -5  -5   3 2953.00   77.39
   4   5  -3  244.38   12.80
   4   5  -3  253.87    7.40
   4   5  -3  246.68   12.20
  -4  -5   3  258.37   13.60
  -4  -5   3  261.67   12.60
   3   5  -3 2761.62   72.99
   3   5  -3 2709.83   66.99
  -3  -5   3 2741.63   72.79
  -3  -5   3 2649.73   72.19
  -3  -5   3 2671.63   66.99
  -3  -5   3 2705.03   72.59
   2   5  -3    2.90    1.10
   2   5  -3    4.40    1.70
  -2  -5   3    4.90    1.60
  -2  -5   3    2.90    1.20
  -2  -5   3    2.10    0.80
  -2  -5   3    4.40    1.50
   1   5  -3 1664.13   46.60
   1   5  -3 1632.34   47.10
   1   5  -3 1589.84   43.90
  -1  -5   3 1661.63   47.90
  -1  -5   3 1730.33   44.20
  -1  -5   3 1640.64   46.20
   0   5  -3   72.89    5.50
   0   5  -3   88.09    6.60
   0   5  -3   84.69    5.50
   0   5  -3   80.59    6.10
   0  -5   3   81.39    5.30
   0  -5   3   82.49    5.90
   0  -5   3   84.29    4.40
  -1   5  -3   96.09    6.70
  -1   5  -3   94.59    7.00
  -1   5  -3  100.79    6.50
  -1   5  -3  104.49    6.30
   1  -5   3  103.69    6.60
   1  -5   3  104.89    6.40
  -2   5  -3  197.78   10.20
  -2   5  -3  218.98    9.20
  -2   5  -3  182.18   10.40
  -2   5  -3  183.58    9.60
   2  -5   3  185.88    9.70
   2  -5   3  197.58    9.80
  -3   5  -3  209.48   11.10
  -3   5  -3  203.28    8.80
  -3   5  -3  206.38   11.40
   3  -5   3  200.18   10.60
   3  -5   3  204.88   10.20
  -4   5  -3  122.79    8.00
  -4   5  -3  132.89   11.50
  -4   5  -3  125.19    6.20
  -4   5  -3  123.99    8.80
   4  -5   3  129.79    8.10
   4  -5   3  128.59    8.50
  -5   5  -3  407.86   17.50
  -5   5  -3  442.36   23.30
  -5   5  -3  391.06   18.00
  -5   5  -3  378.76   17.80
   5  -5   3  399.26   17.80
   5  -5   3  390.36   16.70
  -6   5  -3    2.70    2.30
  -6   5  -3    1.90    2.50
  -6   5  -3    0.00    2.00
  -6   5  -3    6.00    2.50
   6  -5   3    0.40    1.90
   6  -5   3    3.00    2.20
   8   4  -3   95.89    9.10
   8   4  -3   88.09    8.80
  -8  -4   3   90.59    8.40
  -8  -4   3   86.29   12.10
   7   4  -3   26.40    4.80
   7   4  -3   23.40    4.30
  -7  -4   3   22.50    4.40
  -7  -4   3   24.10    4.30
  -7  -4   3   30.80    6.10
   6   4  -3   73.69    6.80
   6   4  -3   74.59    7.10
  -6  -4   3   68.09    6.80
  -6  -4   3   70.89    6.50
  -6  -4   3   75.99    8.60
   5   4  -3  296.37   14.60
   5   4  -3  317.17   14.50
  -5  -4   3  316.37   14.70
  -5  -4   3  322.67   17.10
  -5  -4   3  319.97   14.50
   4   4  -3   95.19    6.90
   4   4  -3   92.99    6.80
  -4  -4   3  103.69    8.20
  -4  -4   3  112.79    7.60
   3   4  -3  677.13   23.60
   3   4  -3  716.33   18.60
   3   4  -3  736.43   18.50
   3   4  -3  748.03   24.00
  -3  -4   3  700.63   18.60
  -3  -4   3  702.63   24.20
  -3  -4   3  695.73   23.80
   2   4  -3  467.65   13.60
   2   4  -3  434.66   16.30
  -2  -4   3  457.25   17.00
  -2  -4   3  462.05   15.80
  -2  -4   3  456.55   13.50
  -2  -4   3  435.96   16.20
   1   4  -3 1329.77   37.20
   1   4  -3 1334.27   35.10
  -1  -4   3 1302.27   36.90
  -1  -4   3 1369.56   35.30
  -1  -4   3 1300.97   34.20
  -1  -4   3 1285.17   38.40
   0   4  -3  420.06   14.80
   0   4  -3  410.06   14.80
   0   4  -3  424.86   15.50
   0   4  -3  419.36   14.10
   0  -4   3  388.06   13.70
   0  -4   3  421.66   12.60
   0  -4   3  421.06   14.70
  -1   4  -3  500.35   16.50
  -1   4  -3  494.05   17.80
  -1   4  -3  477.25   16.80
  -1   4  -3  504.75   17.00
   1  -4   3  506.85   16.80
   1  -4   3  501.55   16.70
  -2   4  -3  502.95   18.00
  -2   4  -3  469.45   15.70
  -2   4  -3  479.05   17.20
  -2   4  -3  482.05   16.50
   2  -4   3  474.45   16.40
   2  -4   3  500.95   17.20
  -3   4  -3   26.50    3.20
  -3   4  -3   28.30    2.80
  -3   4  -3   25.60    3.40
  -3   4  -3   23.80    3.30
   3  -4   3   26.30    3.40
   3  -4   3   28.70    3.20
  -4   4  -3  212.58   14.10
  -4   4  -3  210.08   11.30
  -4   4  -3  208.28   11.00
  -4   4  -3  212.98    8.30
  -4   4  -3  231.98   11.10
   4  -4   3  222.88   11.00
   4  -4   3  193.28    9.90
  -5   4  -3   53.59    7.50
  -5   4  -3   58.29    6.50
  -5   4  -3   54.59    5.10
   5  -4   3   53.69    5.00
   5  -4   3   54.29    5.50
  -6   4  -3   -0.70    1.20
  -6   4  -3    1.30    1.20
  -6   4  -3    1.60    2.20
  -6   4  -3    1.60    2.10
   6  -4   3    2.60    1.20
   6  -4   3   -0.10    1.60
  -7   4  -3  302.07   20.40
  -7   4  -3  301.77   15.80
  -7   4  -3  298.87   18.50
   7  -4   3  296.27   15.40
   7  -4   3  314.87   14.90
   7  -4   3  280.47   19.60
   8   3  -3  343.67   18.40
   8   3  -3  355.16   18.80
  -8  -3   3  381.76   32.60
  -8  -3   3  340.97   19.50
  -8  -3   3  359.66   17.10
   7   3  -3  506.85   21.90
   7   3  -3  516.05   22.30
  -7  -3   3  482.15   22.50
  -7  -3   3  480.35   26.10
  -7  -3   3  529.15   20.50
   6   3  -3  813.62   28.50
   6   3  -3  789.22   28.50
  -6  -3   3  743.23   28.50
  -6  -3   3  787.52   32.70
  -6  -3   3  815.82   27.10
   5   3  -3  250.07   12.80
   5   3  -3  240.68   12.60
  -5  -3   3  274.77   13.40
  -5  -3   3  286.27   12.60
  -5  -3   3  276.27   15.70
   4   3  -3  828.92   27.10
   4   3  -3  852.41   27.40
  -4  -3   3  901.61   28.00
  -4  -3   3  864.81   26.70
  -4  -3   3  809.52   21.50
  -4  -3   3  787.92   29.30
   3   3  -3    7.00    2.00
   3   3  -3   12.60    1.60
   3   3  -3    4.90    1.70
  -3  -3   3   13.20    2.70
  -3  -3   3    6.60    1.90
   2   3  -3  133.69    4.50
   2   3  -3  139.29    7.50
   2   3  -3  133.09    4.70
   2   3  -3  131.29    7.00
  -2  -3   3  122.59    7.10
  -2  -3   3  123.99    7.00
  -2  -3   3  133.49    4.80
   1   3  -3  667.53   20.90
   1   3  -3  582.54   16.90
  -1  -3   3  588.04   17.50
  -1  -3   3  582.04   19.90
  -1  -3   3  590.74   18.40
  -1  -3   3  598.94   16.90
   0   3  -3    6.20    1.20
   0   3  -3    4.40    1.30
   0   3  -3    9.20    1.30
   0   3  -3    3.90    1.10
   0  -3   3    8.40    1.40
  -1   3  -3  799.92   23.50
  -1   3  -3  754.12   22.80
  -1   3  -3  760.62   22.40
  -1   3  -3  781.62   22.60
  -1   3  -3  794.32   22.90
   1  -3   3  744.53   22.50
   1  -3   3  805.42   22.30
  -2   3  -3  621.34   20.60
  -2   3  -3  595.14   19.40
  -2   3  -3  585.94   19.30
  -2   3  -3  613.74   18.20
   2  -3   3  588.64   18.20
   2  -3   3  615.24   19.30
  -3   3  -3  911.21   27.60
  -3   3  -3  963.40   30.50
  -3   3  -3  947.81   25.80
  -3   3  -3  905.81   28.00
   3  -3   3  921.51   26.60
   3  -3   3  885.41   27.60
  -4   3  -3  705.53   24.70
  -4   3  -3  776.92   26.70
  -4   3  -3  804.42   29.80
  -4   3  -3  767.82   21.80
   4  -3   3  770.42   23.60
   4  -3   3  772.72   24.90
  -5   3  -3  550.44   23.30
  -5   3  -3  571.54   21.10
  -5   3  -3  572.64   16.80
  -5   3  -3  579.84   19.40
  -5   3  -3  577.34   25.50
   5  -3   3  590.54   20.90
   5  -3   3  579.44   19.70
  -6   3  -3  293.27   17.30
  -6   3  -3  315.87   18.80
   6  -3   3  301.67   13.20
   6  -3   3  279.07   13.70
  -7   3  -3  127.09   12.20
  -7   3  -3  136.79   12.90
   7  -3   3  144.29    9.10
   7  -3   3  132.19    9.40
   7  -3   3  131.39   12.50
   8   2  -3  173.68   12.60
   8   2  -3  179.18    9.40
   8   2  -3  162.18   12.10
  -8  -2   3  185.88   18.50
  -8  -2   3  173.88   10.80
   7   2  -3   16.90    3.80
   7   2  -3   14.70    2.80
  -7  -2   3   19.90    3.50
  -7  -2   3   18.70    6.30
   6   2  -3  905.21   32.30
   6   2  -3 1000.50   32.60
  -6  -2   3  967.10   40.20
  -6  -2   3  943.41   29.80
  -6  -2   3  944.41   37.30
   5   2  -3   14.70    2.90
   5   2  -3   11.40    2.70
  -5  -2   3   18.00    4.00
  -5  -2   3   18.00    3.50
  -5  -2   3   12.50    2.30
   4   2  -3 2173.58   57.09
   4   2  -3 1955.60   57.59
   4   2  -3 2124.79   57.49
  -4  -2   3 2023.50   60.49
  -4  -2   3 2055.19   57.49
  -4  -2   3 2160.78   55.19
   3   2  -3  118.29    6.70
   3   2  -3  111.39    6.90
  -3  -2   3  122.89    7.20
  -3  -2   3  116.79    4.40
  -3  -2   3  111.49    7.70
   2   2  -3 2073.29   53.29
   2   2  -3 1970.40   53.89
  -2  -2   3 2007.10   54.49
  -2  -2   3 2084.69   49.20
  -2  -2   3 2065.19   54.19
   1   2  -3  936.31   24.40
   1   2  -3  952.50   26.20
   1   2  -3  930.31   26.50
  -1  -2   3  965.40   24.40
  -1  -2   3  949.40   27.60
   0   2  -3 1239.58   31.80
   0   2  -3 1198.38   31.60
   0   2  -3 1201.28   32.60
   0   2  -3 1239.78   31.20
   0  -2   3 1245.08   34.30
   0  -2   3 1193.58   31.50
   0  -2   3 1198.28   31.80
  -1   2  -3  649.93   19.00
  -1   2  -3  663.23   19.30
  -1   2  -3  637.24   18.10
  -1   2  -3  674.23   19.10
  -1   2  -3  618.44   18.90
   1  -2   3  661.43   17.80
   1  -2   3  660.53   20.20
   1  -2   3  625.24   18.70
   1  -2   3  682.33   17.80
  -2   2  -3  161.08    6.80
  -2   2  -3  155.68    7.10
  -2   2  -3  148.89    7.70
  -2   2  -3  162.18    6.60
   2  -2   3  156.58    6.40
   2  -2   3  153.08    6.80
   2  -2   3  148.79    5.90
   2  -2   3  142.09    6.80
  -3   2  -3  804.42   22.70
  -3   2  -3  801.02   24.50
  -3   2  -3  832.92   26.70
  -3   2  -3  892.71   28.40
  -3   2  -3  789.62   23.10
  -3   2  -3  810.62   25.70
   3  -2   3  787.02   24.20
   3  -2   3  835.72   25.30
   3  -2   3  803.32   23.00
   3  -2   3  774.82   22.40
  -4   2  -3 1144.49   38.30
  -4   2  -3 1233.38   33.20
  -4   2  -3 1219.68   35.30
  -4   2  -3 1152.38   39.10
  -4   2  -3 1239.08   32.60
  -4   2  -3 1195.18   38.90
   4  -2   3 1259.67   33.40
   4  -2   3 1229.08   35.10
   4  -2   3 1254.77   32.20
   4  -2   3 1242.88   39.90
  -5   2  -3  279.37   10.60
  -5   2  -3  302.07   15.70
  -5   2  -3  280.77   12.60
  -5   2  -3  298.27   16.30
   5  -2   3  281.57   12.40
   5  -2   3  290.27    9.70
   5  -2   3  287.27   11.50
  -6   2  -3 1569.74   45.80
  -6   2  -3 1547.15   52.29
  -6   2  -3 1632.14   52.49
   6  -2   3 1494.15   57.89
   6  -2   3 1591.44   45.70
   6  -2   3 1614.14   40.30
  -7   2  -3    4.80    2.40
  -7   2  -3   15.30    4.40
   7  -2   3    6.80    2.40
   7  -2   3    6.90    2.30
   7  -2   3    7.00    2.20
  -8   2  -3 1475.05   54.59
  -8   2  -3 1448.46   54.59
   8  -2   3 1507.55   53.19
   8  -2   3 1495.05   45.40
   8  -2   3 1443.16   44.70
   8  -2   3 1481.15   44.50
   8   1  -3 1110.69   31.70
   8   1  -3 1087.59   38.50
   8   1  -3 1141.49   41.10
  -8  -1   3 1072.19   34.90
  -8  -1   3 1068.89   46.30
   7   1  -3   34.70    5.50
   7   1  -3   34.80    3.50
  -7  -1   3   27.90    5.90
  -7  -1   3   39.20    4.40
   6   1  -3  641.24   20.30
   6   1  -3  594.44   24.90
  -6  -1   3  658.33   29.50
  -6  -1   3  665.73   26.30
  -6  -1   3  665.83   21.90
   5   1  -3  349.96   16.40
   5   1  -3  389.56   13.50
  -5  -1   3  384.26   17.30
  -5  -1   3  402.26   20.10
  -5  -1   3  361.06   13.60
   4   1  -3   86.39    6.60
   4   1  -3   78.39    6.20
   4   1  -3   84.19    5.00
  -4  -1   3   89.99    6.80
  -4  -1   3   83.39    7.60
  -4  -1   3   85.99    4.90
   3   1  -3  673.33   20.40
   3   1  -3  714.53   22.60
   3   1  -3  676.63   22.50
  -3  -1   3  715.23   20.20
  -3  -1   3  706.53   18.00
  -3  -1   3  697.83   24.70
   2   1  -3  375.06   12.20
   2   1  -3  356.06   15.40
  -2  -1   3  377.96   10.80
   1   1  -3  527.25   16.70
  -1  -1   3  517.25   14.90
   0   1  -3 3233.78   79.59
  -1   1  -3  667.83   17.10
  -1   1  -3  690.33   19.50
  -1   1  -3  660.23   19.00
   1  -1   3  684.43   20.30
   1  -1   3  681.63   17.00
   1  -1   3  663.63   18.90
  -2   1  -3 1760.82   44.20
  -2   1  -3 1811.62   47.30
  -2   1  -3 1756.62   45.70
  -2   1  -3 1688.33   45.00
   2  -1   3 1743.63   43.10
   2  -1   3 1797.52   46.70
   2  -1   3 1768.52   45.60
   2  -1   3 1815.02   45.10
  -3   1  -3    4.50    1.70
  -3   1  -3    7.40    1.40
  -3   1  -3    2.80    1.10
  -3   1  -3    6.60    2.30
  -3   1  -3    3.30    1.50
  -3   1  -3    5.40    1.10
   3  -1   3    1.40    0.80
   3  -1   3    4.80    2.00
   3  -1   3    4.10    1.10
  -4   1  -3  790.92   21.70
  -4   1  -3  798.62   23.00
  -4   1  -3  855.41   28.10
  -4   1  -3  830.52   24.60
  -4   1  -3  746.73   27.60
   4  -1   3  810.92   22.60
   4  -1   3  809.32   24.30
  -5   1  -3    1.90    1.50
  -5   1  -3    4.00    2.30
  -5   1  -3   10.90    4.00
   5  -1   3    4.10    1.20
   5  -1   3    8.20    2.20
  -6   1  -3   82.99    8.80
  -6   1  -3   84.99    8.60
   6  -1   3   92.19    8.60
   6  -1   3   91.79    5.10
   6  -1   3   97.59    6.70
   6  -1   3  101.49    6.70
  -7   1  -3   20.70    4.80
  -7   1  -3   21.40    5.30
   7  -1   3   21.60    3.50
   7  -1   3   31.70    3.00
   7  -1   3   24.10    5.10
   7  -1   3   33.50    4.00
  -8   1  -3   20.20    5.40
  -8   1  -3   19.10    6.10
   8  -1   3   13.00    2.80
   8  -1   3   17.70    2.00
   8  -1   3   12.30    3.20
   8  -1   3   14.90    4.50
   8  -1   3   13.00    2.80
   8   0  -3  290.47   10.20
   8   0  -3  288.97   11.30
   8   0  -3  313.67   18.60
  -8   0   3  295.67   21.50
   7   0  -3  521.45   16.30
   7   0  -3  524.65   16.80
   7   0  -3  529.65   24.50
  -7   0   3  540.95   28.20
   6   0  -3  407.36   19.60
   6   0  -3  434.56   13.80
   6   0  -3  426.36   13.70
  -6   0   3  413.46   22.70
  -6   0   3  403.86   20.00
  -6   0   3  408.76   15.30
  -6   0   3  418.66   13.30
   5   0  -3 1464.85   38.60
   5   0  -3 1550.04   46.20
   5   0  -3 1498.25   39.00
  -5   0   3 1487.45   46.20
  -5   0   3 1466.15   38.20
  -5   0   3 1451.25   49.20
  -5   0   3 1474.15   40.20
   4   0  -3  608.04   17.00
   4   0  -3  595.64   21.40
   4   0  -3  593.64   22.10
   4   0  -3  621.84   17.80
   4   0  -3  614.24   16.20
  -4   0   3  601.64   16.80
  -4   0   3  634.14   24.70
  -4   0   3  608.54   18.00
  -4   0   3  575.94   22.10
   3   0  -3 1794.12   43.80
   3   0  -3 1775.62   48.90
   3   0  -3 1809.72   45.10
   3   0  -3 1748.13   47.80
  -3   0   3 1725.13   43.80
  -3   0   3 1737.63   48.90
   2   0  -3  135.09    6.30
   2   0  -3  126.09    5.40
   2   0  -3  127.79    4.90
  -2   0   3  131.99    6.90
  -2   0   3  130.79    5.00
  -2   0   3  129.99    4.70
  -2   0   3  128.79    4.60
   1   0  -3 1486.15   38.70
   1   0  -3 1321.47   37.20
   1   0  -3 1497.35   36.90
  -1   0   3 1436.46   37.00
  -1   0   3 1458.05   38.50
  -1   0   3 1496.35   36.80
   0   0  -3  480.85   14.70
   0   0  -3  407.16   12.70
   0   0   3  430.16   13.40
   0   0   3  415.46   12.70
   0   0   3  406.66   12.70
  -1   0  -3 1218.78   30.90
  -1   0  -3 1083.19   30.50
   1   0   3 1152.48   30.50
   1   0   3 1154.18   30.20
  -2   0  -3  770.22   22.40
  -2   0  -3  725.33   20.80
  -2   0  -3  781.02   22.40
   2   0   3  695.93   22.40
   2   0   3  723.73   21.30
   2   0   3  764.82   21.00
   2   0   3  745.23   20.80
  -3   0  -3  127.59    6.00
  -3   0  -3  141.39    8.20
  -3   0  -3  123.09    7.30
  -3   0  -3  116.49    7.10
   3   0   3  129.29    6.30
   3   0   3  129.49    5.90
   3   0   3  131.39    4.70
   3   0   3  130.89    6.10
   3   0   3  133.99    7.70
  -4   0  -3 1848.02   52.49
  -4   0  -3 1810.52   47.10
  -4   0  -3 1750.72   51.09
  -4   0  -3 1757.62   50.89
   4   0   3 1831.52   45.70
   4   0   3 1847.22   46.60
   4   0   3 1778.72   47.20
   4   0   3 1701.53   50.69
   4   0   3 1783.02   47.60
  -5   0  -3  543.15   22.80
  -5   0  -3  581.84   23.10
  -5   0  -3  603.44   24.70
   5   0   3  591.74   19.20
   5   0   3  605.84   18.30
   5   0   3  599.84   18.30
  -6   0  -3  805.02   33.70
  -6   0  -3  875.01   33.10
  -6   0  -3  851.41   32.90
   6   0   3  921.91   26.90
   6   0   3  915.91   27.30
   6   0   3  877.71   27.20
   6   0   3  906.41   31.80
   6   0   3  927.71   26.00
  -7   0  -3  762.62   33.40
  -7   0  -3  779.12   34.50
   7   0   3  761.62   29.60
   7   0   3  761.02   24.90
   7   0   3  742.33   22.70
   7   0   3  773.92   24.90
   7   0   3  693.83   23.90
  -8   0  -3  247.58   17.30
  -8   0  -3  241.88   18.30
   8   0   3  236.38   11.80
   8   0   3  238.78   11.00
   8   0   3  232.38    9.80
   8   0   3  232.98   13.50
   8   0   3  239.78   15.40
   8  -1  -3   67.19    5.30
   8  -1  -3   55.09    8.30
  -8   1   3   53.59    9.10
   7  -1  -3   29.20    3.50
   7  -1  -3   33.70    5.60
  -7   1   3   25.40    6.40
  -7   1   3   23.40    5.60
  -7   1   3   24.80    3.00
   6  -1  -3   26.00    2.40
   6  -1  -3   28.60    2.50
   6  -1  -3   26.10    2.90
   6  -1  -3   28.90    6.80
  -6   1   3   21.50    4.90
  -6   1   3   27.30    5.00
  -6   1   3   25.50    2.90
   5  -1  -3  116.89    6.10
   5  -1  -3  119.29    5.70
   5  -1  -3  117.89    9.10
  -5   1   3  126.99    9.20
  -5   1   3  121.49   10.70
  -5   1   3  117.79    6.00
   4  -1  -3   41.70    3.00
   4  -1  -3   44.20    4.50
   4  -1  -3   45.70    3.80
   4  -1  -3   47.60    3.30
   4  -1  -3   43.80    5.00
  -4   1   3   46.50    5.90
  -4   1   3   42.00    4.60
  -4   1   3   46.60    3.20
  -4   1   3   47.80    5.30
   3  -1  -3  428.06   15.60
   3  -1  -3  436.46   13.40
   3  -1  -3  429.96   13.50
   3  -1  -3  443.06   17.00
   3  -1  -3  427.56   12.60
  -3   1   3  438.76   16.90
  -3   1   3  438.16   12.30
  -3   1   3  416.56   15.70
  -3   1   3  444.36   13.40
   2  -1  -3   30.50    2.10
   2  -1  -3   26.50    2.60
   2  -1  -3   25.50    3.00
   2  -1  -3   27.50    2.30
  -2   1   3   36.60    2.30
  -2   1   3   26.50    2.30
  -2   1   3   26.00    2.60
  -2   1   3   30.90    2.30
   1  -1  -3 1209.58   31.10
   1  -1  -3 1186.98   30.10
   1  -1  -3 1160.48   30.40
   1  -1  -3 1220.28   32.50
  -1   1   3 1131.29   30.40
  -1   1   3 1184.28   31.00
   0  -1  -3   14.30    1.60
   0  -1  -3   15.30    1.70
   0  -1  -3   15.10    1.70
   0   1   3   14.20    1.70
   0   1   3   16.90    1.70
   0   1   3   15.10    1.70
  -1  -1  -3 1517.35   38.80
  -1  -1  -3 1615.94   38.90
  -1  -1  -3 1633.14   40.10
  -1  -1  -3 1525.55   40.10
  -1  -1  -3 1561.94   40.20
   1   1   3 1546.95   38.80
   1   1   3 1595.04   39.40
   1   1   3 1571.44   40.10
   1   1   3 1449.26   40.00
   1   1   3 1551.34   39.70
   1   1   3 1600.44   39.00
  -2  -1  -3  166.78    5.50
  -2  -1  -3  170.88    7.60
  -2  -1  -3  168.38    7.30
  -2  -1  -3  158.08    6.70
  -2  -1  -3  175.48    7.20
   2   1   3  166.88    5.70
   2   1   3  171.18    7.00
   2   1   3  162.08    7.00
   2   1   3  168.18    6.80
  -3  -1  -3   57.99    4.50
  -3  -1  -3   52.59    4.10
  -3  -1  -3   45.10    4.10
  -3  -1  -3   49.90    3.70
   3   1   3   51.49    3.50
   3   1   3   43.60    2.70
   3   1   3   45.90    3.50
   3   1   3   49.40    4.70
   3   1   3   51.79    4.20
  -4  -1  -3   17.50    3.00
  -4  -1  -3   17.70    3.40
  -4  -1  -3   14.30    2.70
  -4  -1  -3   16.30    2.80
   4   1   3   13.50    2.60
   4   1   3   21.30    2.50
   4   1   3   21.20    2.30
   4   1   3   12.40    1.90
   4   1   3   16.70    1.90
  -5  -1  -3    5.90    2.00
  -5  -1  -3   12.60    3.30
  -5  -1  -3    7.80    2.50
  -5  -1  -3   13.70    2.70
   5   1   3   11.80    2.10
   5   1   3    6.40    2.00
   5   1   3   11.00    1.90
   5   1   3   11.10    2.00
   5   1   3   13.40    1.90
  -6  -1  -3   10.60    4.40
  -6  -1  -3    9.70    3.20
  -6  -1  -3    8.90    3.00
  -6  -1  -3    4.70    2.20
   6   1   3    8.10    2.10
   6   1   3    8.80    1.80
   6   1   3    9.40    2.20
   6   1   3    9.80    3.00
   6   1   3   11.30    2.20
  -7  -1  -3  290.47   17.10
  -7  -1  -3  271.17   18.10
  -7  -1  -3  271.47   16.70
  -7  -1  -3  275.87   14.80
   7   1   3  280.87   12.00
   7   1   3  273.87   14.80
   7   1   3  277.77   12.40
   7   1   3  259.77   11.20
   7   1   3  275.77   11.60
  -8  -1  -3   62.49    9.30
  -8  -1  -3   55.29    8.00
   8   1   3   66.99    6.80
   8   1   3   67.19    4.90
   8   1   3   69.89    5.50
   8   1   3   58.59    5.60
   8   1   3   58.59    4.90
  -9  -1  -3  465.15   28.10
  -9  -1  -3  442.16   25.10
   9   1   3  394.86   21.20
   9   1   3  415.06   15.20
   9   1   3  452.95   17.60
   9   1   3  454.55   16.10
   9   1   3  414.06   21.40
   8  -2  -3   12.60    2.20
   8  -2  -3    6.90    3.20
   8  -2  -3   13.80    2.90
  -8   2   3    9.10    2.40
  -8   2   3   20.00    5.20
  -8   2   3    7.60    4.00
   7  -2  -3  580.84   18.70
   7  -2  -3  535.95   26.30
   7  -2  -3  553.14   20.00
  -7   2   3  570.84   20.30
  -7   2   3  577.54   26.70
  -7   2   3  566.44   29.80
   6  -2  -3   77.59    5.60
   6  -2  -3   49.90    6.70
   6  -2  -3   65.59    4.90
  -6   2   3   69.39    5.10
  -6   2   3   64.59    8.80
  -6   2   3   62.49    7.20
   5  -2  -3  174.68   11.80
   5  -2  -3  170.28    8.40
   5  -2  -3  167.68    8.30
  -5   2   3  173.38    8.20
  -5   2   3  170.08   13.00
  -5   2   3  165.68   11.00
   4  -2  -3  391.26   14.10
   4  -2  -3  360.46   15.80
   4  -2  -3  391.56   13.90
   4  -2  -3  403.46   17.80
  -4   2   3  390.36   13.70
  -4   2   3  396.86   16.60
   3  -2  -3    9.60    1.90
   3  -2  -3   12.70    1.30
   3  -2  -3   11.40    1.80
   3  -2  -3    9.70    2.40
   3  -2  -3   15.90    2.20
   3  -2  -3   10.50    1.10
  -3   2   3   21.40    3.00
  -3   2   3   12.00    1.80
  -3   2   3   10.40    2.50
   2  -2  -3  161.28    7.30
   2  -2  -3  160.28    5.80
   2  -2  -3  165.38    7.50
   2  -2  -3  176.18    8.90
  -2   2   3  172.98    7.10
  -2   2   3  166.98    5.80
  -2   2   3  168.58    8.80
  -2   2   3  165.28    8.00
  -2   2   3  181.28    7.80
   1  -2  -3 2056.79   53.39
   1  -2  -3 2056.59   51.59
   1  -2  -3 2088.89   54.19
  -1   2   3 2065.29   53.59
  -1   2   3 2109.19   54.19
  -1   2   3 2079.69   51.79
  -1   2   3 2057.29   52.39
  -1   2   3 2081.39   51.59
  -1   2   3 2076.69   53.39
   0  -2  -3   61.59    3.90
   0  -2  -3   64.89    3.60
   0  -2  -3   65.69    4.10
   0  -2  -3   65.59    3.70
   0  -2  -3   65.29    2.90
   0   2   3   65.19    3.60
   0   2   3   63.89    4.00
   0   2   3   68.89    3.90
   1   2   3 5532.15  133.49
  -2  -2  -3    8.70    1.60
  -2  -2  -3    6.10    1.20
  -2  -2  -3    3.30    0.90
  -2  -2  -3    2.70    1.10
  -2  -2  -3    6.40    1.40
  -2  -2  -3    6.30    1.30
   2   2   3    6.90    1.30
   2   2   3    6.00    1.30
   2   2   3    6.80    0.80
   2   2   3    4.60    1.00
   2   2   3    6.70    1.30
  -3  -2  -3 4187.88   99.69
  -3  -2  -3 4005.00   97.39
  -3  -2  -3 3887.61   98.99
  -3  -2  -3 3856.11   98.89
  -3  -2  -3 3857.71   96.49
   3   2   3 4032.10   97.39
   3   2   3 3952.50   96.89
   3   2   3 3925.01  101.69
   3   2   3 4040.10   99.19
   3   2   3 3810.82   94.89
   3   2   3 3817.02   98.29
  -4  -2  -3  496.05   18.00
  -4  -2  -3  498.45   15.90
  -4  -2  -3  483.05   18.40
  -4  -2  -3  488.65   18.30
   4   2   3  517.25   16.00
   4   2   3  481.55   20.10
   4   2   3  485.35   13.60
   4   2   3  469.85   15.90
   4   2   3  541.55   16.10
   4   2   3  486.25   16.90
  -5  -2  -3 2922.31   79.59
  -5  -2  -3 3040.20   80.39
  -5  -2  -3 2857.91   78.29
  -5  -2  -3 2903.81   82.99
   5   2   3 2963.60   75.29
   5   2   3 2928.61   76.29
   5   2   3 2973.00   74.59
   5   2   3 2973.80   76.39
   5   2   3 2936.41   74.49
  -6  -2  -3  385.66   18.40
  -6  -2  -3  378.06   17.20
  -6  -2  -3  406.56   21.00
  -6  -2  -3  352.26   18.00
   6   2   3  414.66   15.50
   6   2   3  386.26   13.70
   6   2   3  409.96   16.30
   6   2   3  388.36   14.90
   6   2   3  396.56   14.20
  -7  -2  -3 1022.10   35.60
  -7  -2  -3  997.30   37.70
  -7  -2  -3  960.00   37.30
  -7  -2  -3 1021.20   41.00
   7   2   3 1068.49   32.60
   7   2   3 1056.39   30.00
   7   2   3 1067.69   30.90
   7   2   3 1108.59   32.60
   7   2   3 1079.69   34.60
  -8  -2  -3  266.27   17.50
  -8  -2  -3  253.07   15.10
  -8  -2  -3  260.47   19.20
  -8  -2  -3  258.57   17.10
   8   2   3  281.17   14.90
   8   2   3  253.17   11.50
   8   2   3  268.07   13.20
   8   2   3  257.17   12.20
   8   2   3  257.37   10.40
  -9  -2  -3  336.17   23.70
   9   2   3  336.17   14.40
   9   2   3  319.67   13.90
   9   2   3  321.07   15.80
   9   2   3  310.97   11.40
   9   2   3  341.57   17.80
   7  -3  -3  146.09    8.70
   7  -3  -3  151.08    9.20
   7  -3  -3  145.19   12.80
  -7   3   3  148.79   12.60
  -7   3   3  133.49   13.70
  -7   3   3  130.79    8.50
   6  -3  -3    4.40    2.80
   6  -3  -3    0.70    1.00
   6  -3  -3    3.10    1.70
  -6   3   3    1.40    1.10
  -6   3   3    1.20    2.00
  -6   3   3    1.30    2.30
   5  -3  -3  465.35   17.60
   5  -3  -3  447.86   17.10
   5  -3  -3  472.95   22.00
  -5   3   3  463.05   17.00
  -5   3   3  450.35   20.70
  -5   3   3  492.05   23.70
   4  -3  -3  153.58    8.10
   4  -3  -3  147.79    8.50
   4  -3  -3  152.48   10.70
  -4   3   3  159.48   10.00
  -4   3   3  148.89    7.80
   3  -3  -3 1106.69   36.20
   3  -3  -3 1106.39   29.70
   3  -3  -3 1130.49   33.60
   3  -3  -3 1176.68   32.70
  -3   3   3 1154.98   34.50
  -3   3   3 1159.98   32.50
  -3   3   3 1128.79   34.30
   2  -3  -3  148.89    7.20
   2  -3  -3  146.59    8.70
   2  -3  -3  153.88    8.00
  -2   3   3  146.69    5.30
  -2   3   3  138.29    7.90
  -2   3   3  147.99    7.20
   1  -3  -3  453.25   14.80
   1  -3  -3  448.66   16.00
   1  -3  -3  438.46   15.80
  -1   3   3  456.35   14.80
  -1   3   3  468.55   16.10
  -1   3   3  458.25   13.70
  -1   3   3  469.45   14.60
   0  -3  -3  361.96   13.00
   0  -3  -3  332.07   11.70
   0  -3  -3  339.47   12.70
   0   3   3  347.77   11.80
   0   3   3  355.96   12.90
   0   3   3  356.76   11.80
   0   3   3  351.66   12.80
  -1  -3  -3   86.19    5.20
  -1  -3  -3   86.99    4.60
  -1  -3  -3   80.19    3.50
   1   3   3   80.29    4.70
   1   3   3   83.89    5.00
   1   3   3   82.99    5.10
  -2  -3  -3   49.80    3.80
  -2  -3  -3   44.10    3.50
  -2  -3  -3   45.00    3.60
   2   3   3   52.29    4.10
   2   3   3   48.00    3.60
   2   3   3   52.69    3.60
   2   3   3   48.40    3.80
   2   3   3   51.99    3.40
  -3  -3  -3    7.10    1.70
  -3  -3  -3   11.10    2.00
  -3  -3  -3    8.70    1.60
  -3  -3  -3    6.20    1.40
   3   3   3    5.20    1.40
   3   3   3    8.30    2.10
   3   3   3    6.50    1.40
   3   3   3    6.30    1.30
   3   3   3    5.90    1.70
   3   3   3    6.00    1.70
  -4  -3  -3  627.04   21.20
  -4  -3  -3  605.04   21.00
  -4  -3  -3  606.94   18.70
  -4  -3  -3  584.34   19.00
   4   3   3  607.74   19.60
   4   3   3  598.74   17.20
   4   3   3  588.24   18.60
   4   3   3  604.94   17.60
   4   3   3  613.34   20.70
  -5  -3  -3   41.60    4.80
  -5  -3  -3   47.70    3.70
  -5  -3  -3   44.40    4.90
   5   3   3   51.79    3.80
   5   3   3   50.19    3.80
   5   3   3   44.10    4.50
   5   3   3   52.59    4.40
   5   3   3   48.50    3.20
  -6  -3  -3 1083.19   36.20
  -6  -3  -3 1129.09   37.40
  -6  -3  -3 1108.19   41.10
   6   3   3 1130.39   31.50
   6   3   3 1137.59   31.80
   6   3   3 1139.69   33.90
   6   3   3 1089.69   34.60
   6   3   3 1127.89   33.10
  -7  -3  -3   16.70    5.10
  -7  -3  -3   10.50    4.90
  -7  -3  -3   10.60    3.70
   7   3   3   14.50    2.00
   7   3   3   11.60    2.90
   7   3   3    9.10    2.60
   7   3   3   13.40    2.90
   7   3   3   11.10    2.30
  -8  -3  -3 1525.35   57.09
  -8  -3  -3 1569.44   52.99
  -8  -3  -3 1612.64   50.69
   8   3   3 1593.34   47.20
   8   3   3 1512.45   42.90
   8   3   3 1553.04   46.10
   8   3   3 1509.05   46.40
   8   3   3 1486.75   41.00
  -9  -3  -3   68.59   10.40
  -9  -3  -3   76.29    8.80
   9   3   3   61.09    6.50
   9   3   3   62.89    5.10
   9   3   3   56.29    6.30
   9   3   3   56.29    4.20
   7  -4  -3   42.60    5.20
   7  -4  -3   38.80    7.50
   7  -4  -3   34.20    4.70
  -7   4   3   30.10    4.80
  -7   4   3   37.00    6.60
  -7   4   3   39.10    7.60
   6  -4  -3  249.48   17.10
   6  -4  -3  271.27   13.70
   6  -4  -3  262.97   14.70
  -6   4   3  273.67   18.80
  -6   4   3  277.37   16.90
   5  -4  -3  270.17   16.70
   5  -4  -3  279.57   13.00
   5  -4  -3  264.37   15.60
  -5   4   3  295.17   17.80
  -5   4   3  280.07   15.80
  -5   4   3  283.47   13.00
   4  -4  -3   19.00    3.10
   4  -4  -3    5.40    2.30
   4  -4  -3    6.00    2.10
  -4   4   3    9.20    2.90
  -4   4   3    8.70    3.20
  -4   4   3    9.30    2.50
   3  -4  -3 1215.68   37.50
   3  -4  -3 1257.37   38.20
   3  -4  -3 1262.77   40.20
   3  -4  -3 1224.18   36.00
  -3   4   3 1208.68   37.80
  -3   4   3 1227.88   35.80
  -3   4   3 1258.27   38.20
   2  -4  -3  165.98    9.90
   2  -4  -3  172.98    8.60
   2  -4  -3  167.68    9.40
   2  -4  -3  175.78    9.60
  -2   4   3  166.68    6.30
  -2   4   3  179.08    8.60
  -2   4   3  158.88    9.40
  -2   4   3  176.98    9.10
   1  -4  -3 1405.46   39.10
   1  -4  -3 1379.26   40.70
   1  -4  -3 1433.56   40.80
   1  -4  -3 1380.96   40.80
  -1   4   3 1484.35   41.20
  -1   4   3 1434.46   37.50
  -1   4   3 1439.46   39.20
   0  -4  -3 2388.96   60.89
   0  -4  -3 2335.87   62.49
   0  -4  -3 2382.66   62.69
   0   4   3 2372.66   60.49
   0   4   3 2292.07   62.09
   0   4   3 2265.27   62.29
   0   4   3 2412.56   60.69
  -1  -4  -3 1714.33   46.70
  -1  -4  -3 1792.72   45.30
  -1  -4  -3 1673.33   46.60
  -1  -4  -3 1667.13   43.30
   1   4   3 1648.64   46.40
   1   4   3 1687.63   44.70
   1   4   3 1701.23   46.90
   1   4   3 1699.23   46.00
   1   4   3 1738.73   46.60
  -2  -4  -3 4467.65  110.79
  -2  -4  -3 4505.65  111.29
   2   4   3 4439.46  110.89
   2   4   3 4410.36  111.59
   2   4   3 4374.76  111.49
   2   4   3 4435.46  110.49
  -3  -4  -3  869.21   25.60
  -3  -4  -3  805.32   25.90
  -3  -4  -3  824.52   25.20
  -3  -4  -3  847.02   25.00
   3   4   3  804.82   25.50
   3   4   3  806.72   24.80
   3   4   3  790.42   24.20
   3   4   3  800.22   26.20
   3   4   3  836.72   25.60
  -4  -4  -3 3247.28   83.89
  -4  -4  -3 3233.38   84.99
  -4  -4  -3 3378.66   83.19
  -4  -4  -3 3262.47   85.79
   4   4   3 3105.39   85.69
   4   4   3 3338.47   84.59
   4   4   3 3343.67   86.09
   4   4   3 3256.47   82.49
   4   4   3 3330.67   83.29
  -5  -4  -3   75.09    6.30
  -5  -4  -3   79.19    5.70
  -5  -4  -3   74.69    6.50
  -5  -4  -3   83.29    5.10
   5   4   3   75.59    6.30
   5   4   3   72.09    4.70
   5   4   3   75.79    4.10
   5   4   3   68.09    5.70
   5   4   3   81.19    5.20
  -6  -4  -3 2060.19   60.59
  -6  -4  -3 2090.99   54.59
  -6  -4  -3 2049.49   67.39
   6   4   3 2160.98   59.59
   6   4   3 2107.19   54.69
   6   4   3 2035.90   57.69
   6   4   3 2097.59   54.99
  -7  -4  -3   87.59    8.30
  -7  -4  -3   84.49    8.40
   7   4   3  100.99    5.90
   7   4   3   90.19    5.60
   7   4   3   93.29    6.40
   7   4   3   92.09    7.30
   7   4   3   88.09    5.50
   7   4   3   85.39    7.60
  -8  -4  -3  557.64   24.80
  -8  -4  -3  542.45   25.60
   8   4   3  554.04   18.40
   8   4   3  523.45   21.80
   8   4   3  556.64   22.20
   8   4   3  525.55   18.20
   8   4   3  519.05   17.00
   8   4   3  541.95   20.60
  -9  -4  -3   88.99    9.50
   9   4   3   83.09    7.60
   9   4   3   96.89    7.80
   9   4   3   97.59    6.10
   9   4   3   74.29    7.60
   9   4   3  100.39    6.00
   6  -5  -3  155.38   11.70
   6  -5  -3  159.38   10.90
   6  -5  -3  149.29   13.30
   6  -5  -3  144.19   10.00
  -6   5   3  141.19    9.90
  -6   5   3  162.78   13.30
  -6   5   3  159.08   14.10
   5  -5  -3   12.10    3.40
   5  -5  -3   10.00    2.90
   5  -5  -3    8.90    3.00
   5  -5  -3    6.60    2.70
  -5   5   3   15.50    4.10
  -5   5   3   14.70    4.20
   4  -5  -3  117.89    8.00
   4  -5  -3  119.39    9.10
   4  -5  -3  105.89    8.50
  -4   5   3  116.29    9.30
  -4   5   3  117.49    7.90
  -4   5   3  135.99    9.80
   3  -5  -3  123.69    8.80
   3  -5  -3  104.09    8.90
   3  -5  -3  103.79    7.30
   3  -5  -3   93.89   10.90
  -3   5   3  114.89    7.90
  -3   5   3  111.49    8.40
  -3   5   3   98.49    8.30
   2  -5  -3   53.59    5.50
   2  -5  -3   52.79    4.80
   2  -5  -3   51.49    5.40
   2  -5  -3   55.59    5.90
  -2   5   3   49.10    5.40
  -2   5   3   51.19    4.70
  -2   5   3   59.19    3.60
  -2   5   3   50.19    5.10
   1  -5  -3    5.60    1.90
   1  -5  -3   12.30    2.70
   1  -5  -3   11.70    2.50
   1  -5  -3    6.30    1.70
  -1   5   3    9.10    2.20
  -1   5   3    7.70    1.80
  -1   5   3   11.80    3.30
   0  -5  -3  259.47   11.10
   0  -5  -3  256.07   12.30
   0  -5  -3  237.98   11.90
   0  -5  -3  243.68   10.60
   0   5   3  237.08   11.70
   0   5   3  249.68   10.50
   0   5   3  248.28   10.60
   0   5   3  268.57   12.40
  -1  -5  -3    3.30    1.10
  -1  -5  -3    0.30    0.60
  -1  -5  -3    1.40    1.00
   1   5   3    0.40    0.70
   1   5   3    0.90    0.90
   1   5   3    1.90    0.90
   1   5   3    0.80    0.80
  -2  -5  -3  984.70   30.50
  -2  -5  -3  977.10   25.50
  -2  -5  -3  967.50   29.90
  -2  -5  -3  972.00   30.50
   2   5   3  992.10   30.20
   2   5   3 1010.30   31.10
   2   5   3 1004.60   30.80
   2   5   3 1014.10   28.50
  -3  -5  -3  238.08   10.90
  -3  -5  -3  220.58   11.00
  -3  -5  -3  221.98   10.90
   3   5   3  249.68   10.90
   3   5   3  217.58   10.50
   3   5   3  223.48   11.10
   3   5   3  226.38    9.30
  -4  -5  -3 1440.86   43.10
  -4  -5  -3 1555.04   43.90
  -4  -5  -3 1539.85   42.70
  -4  -5  -3 1471.45   44.90
   4   5   3 1490.55   44.70
   4   5   3 1560.24   44.40
   4   5   3 1545.45   42.70
   4   5   3 1508.15   42.80
   4   5   3 1613.34   45.70
  -5  -5  -3 1306.67   36.10
  -5  -5  -3 1290.77   38.60
  -5  -5  -3 1171.88   39.30
  -5  -5  -3 1318.27   38.10
   5   5   3 1279.57   36.30
   5   5   3 1219.78   38.00
   5   5   3 1249.18   36.30
   5   5   3 1230.38   39.50
  -6  -5  -3 1848.12   55.39
  -6  -5  -3 1783.82   49.40
  -6  -5  -3 1772.32   53.89
   6   5   3 1972.20   47.70
   6   5   3 1819.02   50.29
   6   5   3 1824.92   53.19
   6   5   3 1866.71   54.79
   6   5   3 1843.42   52.39
  -7  -5  -3 1464.85   39.60
  -7  -5  -3 1468.75   46.90
  -7  -5  -3 1406.56   47.10
   7   5   3 1374.16   39.60
   7   5   3 1456.85   41.10
   7   5   3 1478.35   40.00
   7   5   3 1474.15   45.10
   7   5   3 1448.16   45.80
  -8  -5  -3  831.92   33.80
  -8  -5  -3  871.61   34.50
   8   5   3  851.01   31.40
   8   5   3  898.51   32.50
   8   5   3  905.31   26.60
   8   5   3  887.31   27.60
   8   5   3  892.01   27.90
  -9  -5  -3 1419.06   51.09
  -9  -5  -3 1450.85   50.29
   9   5   3 1447.06   46.90
   9   5   3 1499.05   43.40
   9   5   3 1399.46   46.20
   9   5   3 1375.56   40.90
   9   5   3 1426.26   40.00
   6  -6  -3   33.10    9.50
   6  -6  -3   32.50    5.70
   6  -6  -3   31.80    4.90
   6  -6  -3   38.70    5.30
  -6   6   3   32.80    6.80
  -6   6   3   32.20    6.50
  -6   6   3   30.30    5.40
   5  -6  -3   72.59    8.00
   5  -6  -3   65.29    8.70
   5  -6  -3   59.69    7.00
   5  -6  -3   58.39    6.20
  -5   6   3   56.89    7.90
  -5   6   3   60.69    7.70
  -5   6   3   76.19    7.90
  -5   6   3   71.09    6.80
   4  -6  -3  306.27   16.40
   4  -6  -3  301.47   17.90
   4  -6  -3  296.17   14.60
   4  -6  -3  302.97   16.30
  -4   6   3  291.97   16.70
  -4   6   3  306.27   16.60
  -4   6   3  319.47   18.30
   3  -6  -3   30.50    5.20
   3  -6  -3   27.00    3.90
   3  -6  -3   20.20    4.10
   3  -6  -3   24.50    4.40
  -3   6   3   19.10    3.40
  -3   6   3   31.60    5.00
  -3   6   3   23.60    4.50
   2  -6  -3  972.20   33.80
   2  -6  -3  951.70   31.10
   2  -6  -3  975.00   33.60
   2  -6  -3  994.80   33.40
  -2   6   3  968.30   33.80
  -2   6   3  984.70   27.50
  -2   6   3  995.90   31.30
   1  -6  -3  230.08   12.40
   1  -6  -3  227.98   11.10
   1  -6  -3  219.48   12.60
   1  -6  -3  232.28   12.30
  -1   6   3  237.58   12.90
  -1   6   3  218.28    9.90
  -1   6   3  234.18   11.30
   0  -6  -3  841.42   29.70
   0  -6  -3  839.12   27.20
   0  -6  -3  827.72   26.50
   0  -6  -3  843.92   28.80
   0   6   3  841.42   28.80
   0   6   3  820.72   26.20
   0   6   3  816.82   28.70
   0   6   3  859.71   26.60
  -1  -6  -3 1097.89   31.20
  -1  -6  -3 1038.30   34.20
   1   6   3 1078.49   34.40
   1   6   3 1093.79   31.90
   1   6   3 1049.00   32.80
   1   6   3 1076.49   34.60
  -2  -6  -3  976.70   29.80
  -2  -6  -3  898.51   30.10
  -2  -6  -3  907.91   30.10
  -2  -6  -3  930.11   25.50
   2   6   3  905.01   27.60
   2   6   3  908.81   30.00
   2   6   3  924.51   30.70
  -3  -6  -3 1022.20   33.90
  -3  -6  -3 1083.59   34.40
  -3  -6  -3 1109.09   34.00
   3   6   3 1115.89   35.00
   3   6   3 1110.29   31.50
   3   6   3 1080.99   33.80
  -4  -6  -3  730.83   23.60
  -4  -6  -3  610.64   25.10
  -4  -6  -3  690.03   24.60
  -4  -6  -3  712.63   23.90
   4   6   3  722.03   21.80
   4   6   3  690.63   23.90
   4   6   3  689.93   25.00
  -5  -6  -3  369.36   16.30
  -5  -6  -3  349.27   15.70
  -5  -6  -3  363.16   17.50
  -5  -6  -3  394.26   15.30
   5   6   3  381.86   17.00
   5   6   3  398.46   13.80
   5   6   3  379.16   15.70
   5   6   3  375.16   17.60
  -6  -6  -3  356.96   16.30
  -6  -6  -3  336.27   15.90
  -6  -6  -3  368.36   17.90
  -6  -6  -3  360.66   14.00
   6   6   3  348.67   17.90
   6   6   3  331.07   14.60
   6   6   3  337.57   16.20
  -7  -6  -3   95.39    9.00
  -7  -6  -3   88.29    5.80
  -7  -6  -3   96.29    8.50
   7   6   3   88.69    8.00
   7   6   3   88.89    8.50
   7   6   3   92.49    4.80
   7   6   3   76.19    6.30
  -8  -6  -3  385.96   21.20
  -8  -6  -3  387.36   20.40
   8   6   3  415.86   14.60
   8   6   3  396.56   20.00
   8   6   3  429.76   15.00
   8   6   3  402.46   16.80
   8   6   3  432.56   20.10
  -9  -6  -3   18.10    5.50
   9   6   3   17.40    5.10
   9   6   3   19.50    3.60
   9   6   3   19.70    2.90
   9   6   3   15.70    4.00
   9   6   3   26.40    3.40
   5  -7  -3  353.96   19.20
   5  -7  -3  345.97   21.60
   5  -7  -3  343.17   17.50
   5  -7  -3  361.26   23.40
  -5   7   3  361.56   19.80
  -5   7   3  357.16   17.90
  -5   7   3  357.06   20.90
  -5   7   3  357.26   20.80
   4  -7  -3    8.10    2.40
   4  -7  -3   14.20    4.20
   4  -7  -3    3.10    2.20
   4  -7  -3   15.30    4.20
  -4   7   3   12.10    4.20
  -4   7   3   11.10    3.80
  -4   7   3    8.00    2.90
  -4   7   3   18.70    4.30
   3  -7  -3  161.18   11.80
   3  -7  -3  185.78   13.10
   3  -7  -3  171.98   10.80
   3  -7  -3  182.58   12.60
  -3   7   3  180.38    6.60
  -3   7   3  179.08   12.90
  -3   7   3  189.98   12.90
   2  -7  -3   88.99    7.90
   2  -7  -3   92.69    7.40
   2  -7  -3   88.29    8.50
   2  -7  -3   92.59    8.40
  -2   7   3   88.49    5.50
  -2   7   3   90.39    8.50
   1  -7  -3    8.70    2.90
   1  -7  -3    6.20    2.40
   1  -7  -3    5.70    2.40
   1  -7  -3    8.80    2.90
  -1   7   3   12.50    2.90
  -1   7   3   15.50    4.30
  -1   7   3    9.40    2.40
   0  -7  -3    8.60    2.70
   0  -7  -3    5.30    1.80
   0  -7  -3   12.90    3.10
   0  -7  -3    4.00    1.90
   0   7   3    8.60    3.20
   0   7   3    2.00    1.70
   0   7   3    3.60    1.50
   0   7   3   12.90    2.70
  -1  -7  -3  702.13   29.30
  -1  -7  -3  620.14   21.40
  -1  -7  -3  593.94   24.10
   1   7   3  617.44   21.70
   1   7   3  621.44   22.70
   1   7   3  643.04   24.80
   1   7   3  628.44   24.40
  -2  -7  -3   17.10    3.60
  -2  -7  -3   15.70    3.50
  -2  -7  -3   17.70    2.30
   2   7   3   12.60    2.40
   2   7   3   19.10    3.50
   2   7   3   14.20    3.60
  -3  -7  -3 1649.13   40.70
  -3  -7  -3 1633.94   40.50
  -3  -7  -3 1347.07   57.99
  -3  -7  -3 1606.04   47.90
   3   7   3 1650.63   48.30
   3   7   3 1619.24   49.20
   3   7   3 1641.64   44.90
  -4  -7  -3  263.57   13.90
  -4  -7  -3  265.57   12.10
  -4  -7  -3  248.68   13.90
  -4  -7  -3  257.27   13.30
   4   7   3  241.68   13.00
   4   7   3  274.97   11.50
   4   7   3  262.07   14.00
  -5  -7  -3 1871.91   54.99
  -5  -7  -3 1995.70   54.39
  -5  -7  -3 1926.51   56.39
  -5  -7  -3 1862.01   57.59
   5   7   3 1918.51   56.99
   5   7   3 1878.31   55.09
   5   7   3 1926.11   51.59
  -6  -7  -3  618.34   23.30
  -6  -7  -3  566.04   25.20
  -6  -7  -3  636.84   21.90
   6   7   3  619.24   23.20
   6   7   3  586.24   25.40
   6   7   3  591.64   24.60
   6   7   3  594.54   19.80
  -7  -7  -3 1487.45   50.99
  -7  -7  -3 1526.75   43.60
  -7  -7  -3 1530.45   48.10
   7   7   3 1588.14   46.60
   7   7   3 1547.65   50.59
   7   7   3 1520.55   49.20
   7   7   3 1538.05   42.30
  -8  -7  -3  423.76   22.20
  -8  -7  -3  384.06   14.60
  -8  -7  -3  396.06   20.00
   8   7   3  389.86   14.20
   8   7   3  359.56   20.00
   8   7   3  396.46   17.40
   8   7   3  381.86   14.30
   8   7   3  373.06   19.40
   4  -8  -3    0.70    1.50
   4  -8  -3   -0.70    1.20
   4  -8  -3    2.50    1.90
   4  -8  -3    4.40    2.50
  -4   8   3    0.20    1.90
  -4   8   3    0.70    2.00
  -4   8   3   -0.80    1.40
  -4   8   3    2.60    2.70
   3  -8  -3  840.62   33.30
   3  -8  -3  845.62   34.10
   3  -8  -3  846.62   33.10
   3  -8  -3  817.52   30.10
  -3   8   3  863.91   33.60
  -3   8   3  808.22   30.10
  -3   8   3  816.82   33.50
  -3   8   3  803.62   22.70
  -3   8   3  801.82   22.50
   2  -8  -3   65.79    7.80
   2  -8  -3   67.79    7.80
   2  -8  -3   75.89    7.90
   2  -8  -3   72.79    6.80
  -2   8   3   72.19    8.10
  -2   8   3   72.19    5.30
   1  -8  -3 1540.55   49.99
   1  -8  -3 1538.85   48.60
   1  -8  -3 1540.45   49.10
   1  -8  -3 1495.45   46.00
  -1   8   3 1519.55   50.19
  -1   8   3 1530.95   44.00
   0  -8  -3   93.59    8.80
   0  -8  -3   93.59    9.50
   0  -8  -3  105.19    9.00
   0  -8  -3  103.89    8.20
   0   8   3   86.49    7.00
   0   8   3   95.09    7.20
   0   8   3   94.19    9.60
   0   8   3   93.49    8.90
  -1  -8  -3 1003.40   35.70
  -1  -8  -3 1024.20   32.20
   1   8   3 1014.30   33.30
   1   8   3  978.20   35.90
   1   8   3 1009.40   32.30
   1   8   3 1016.30   35.70
  -2  -8  -3  169.78   11.50
  -2  -8  -3  192.68    9.20
   2   8   3  187.68   12.10
   2   8   3  172.88   11.60
   2   8   3  167.38    9.70
  -3  -8  -3  619.04   18.20
  -3  -8  -3  629.04   18.50
  -3  -8  -3  618.94   24.40
  -3  -8  -3  582.74   24.00
  -3  -8  -3  597.14   24.60
   3   8   3  597.14   25.00
   3   8   3  603.94   24.50
  -4  -8  -3    7.90    3.50
  -4  -8  -3    2.70    1.90
  -4  -8  -3    6.80    2.20
  -4  -8  -3    3.30    1.80
   4   8   3    0.30    1.60
   4   8   3    5.40    2.00
   4   8   3    4.20    1.70
  -5  -8  -3  164.78    9.60
  -5  -8  -3  162.98   12.00
  -5  -8  -3  179.58   10.90
   5   8   3  182.68    9.30
   5   8   3  155.88   11.50
   5   8   3  181.18   11.60
  -6  -8  -3  170.58   10.20
  -6  -8  -3  166.48   10.30
  -6  -8  -3  185.88   12.30
  -6  -8  -3  171.18   12.80
   6   8   3  157.78   12.20
   6   8   3  165.48    8.70
   6   8   3  150.78   11.20
   6   8   3  171.78   11.20
  -7  -8  -3   14.60    4.40
  -7  -8  -3   16.50    3.40
  -7  -8  -3   19.80    4.60
  -7  -8  -3   11.70    4.20
   7   8   3   18.60    3.80
   7   8   3    9.20    3.00
   7   8   3   13.60    4.10
   7   8   3   18.00    3.10
  -8  -8  -3  351.16   18.20
  -8  -8  -3  367.36   14.80
  -8  -8  -3  364.66   21.30
   8   8   3  357.46   13.80
   8   8   3  350.06   17.40
   8   8   3  368.36   19.80
   8   8   3  327.57   19.90
   3  -9  -3   79.59    7.70
   3  -9  -3   78.19    8.70
   3  -9  -3   78.89    9.60
   3  -9  -3   94.39   10.10
  -3   9   3   88.59    8.60
  -3   9   3   71.19    9.00
  -3   9   3   79.19    4.60
  -3   9   3   74.19    9.10
   2  -9  -3  183.78   13.40
   2  -9  -3  157.48   12.60
   2  -9  -3  164.58   12.90
   2  -9  -3  164.28   11.30
  -2   9   3  149.88   12.80
  -2   9   3  164.18    8.80
  -2   9   3  168.18   11.50
   1  -9  -3  333.17   18.60
   1  -9  -3  303.67   19.40
   1  -9  -3  311.67   15.70
   1  -9  -3  300.47   17.30
  -1   9   3  280.87   15.00
  -1   9   3  292.47   17.90
  -1   9   3  300.47   13.90
   0  -9  -3  789.02   31.80
   0  -9  -3  810.92   28.50
   0  -9  -3  787.72   29.20
   0  -9  -3  751.52   30.60
   0   9   3  785.62   31.50
   0   9   3  763.72   31.60
   0   9   3  824.92   28.70
   0   9   3  763.62   27.60
  -1  -9  -3  283.67   14.00
  -1  -9  -3  282.77   16.40
   1   9   3  265.57   14.40
   1   9   3  310.17   26.40
   1   9   3  281.77   14.00
   1   9   3  259.17   15.70
  -2  -9  -3 2503.15   72.49
  -2  -9  -3 2450.35   65.89
   2   9   3 2442.76   72.79
   2   9   3 2403.36   72.59
   2   9   3 2441.96   67.59
  -3  -9  -3  291.77   11.30
  -3  -9  -3  282.07   15.90
  -3  -9  -3  289.27   11.40
  -3  -9  -3  278.37   15.80
   3   9   3  304.27   16.90
   3   9   3  301.07   13.80
   3   9   3  291.87   16.80
  -4  -9  -3 2990.30   82.09
  -4  -9  -3 2889.61   82.99
  -4  -9  -3 2840.32   76.59
   4   9   3 2871.81   83.59
   4   9   3 2822.62   82.29
   4   9   3 2931.71   77.29
  -5  -9  -3   79.79    8.50
  -5  -9  -3   89.79    8.20
  -5  -9  -3   78.79    6.50
  -5  -9  -3   96.19    9.50
   5   9   3   81.19    6.50
   5   9   3   96.09    8.90
   5   9   3   77.69    8.80
  -6  -9  -3 2403.16   66.09
  -6  -9  -3 2360.96   71.09
  -6  -9  -3 2255.87   72.49
  -6  -9  -3 2342.57   67.59
   6   9   3 2476.75   72.69
   6   9   3 2423.86   70.59
   6   9   3 2362.86   72.79
   6   9   3 2381.66   64.19
  -7  -9  -3    5.60    2.20
  -7  -9  -3    4.40    2.70
  -7  -9  -3    1.30    1.80
  -7  -9  -3    3.80    3.10
   7   9   3   -0.60    1.60
   7   9   3    5.90    3.40
   7   9   3   -1.30    1.70
   2 -10  -3  345.07   20.60
   2 -10  -3  331.67   19.80
   2 -10  -3  335.37   17.80
   2 -10  -3  324.27   19.30
  -2  10   3  362.36   21.50
  -2  10   3  318.57   13.90
   1 -10  -3   84.79   10.50
   1 -10  -3   92.29    9.80
   1 -10  -3   67.19    7.40
   1 -10  -3   74.09    8.50
  -1  10   3   66.89    9.00
  -1  10   3   64.89    7.40
  -1  10   3   63.09    6.50
   0 -10  -3  243.18   14.40
   0 -10  -3  225.78   15.70
   0 -10  -3  224.38   20.40
   0  10   3  217.58   12.80
   0  10   3  222.48   15.90
   0  10   3  250.87   21.50
  -1 -10  -3  183.28   11.50
  -1 -10  -3  168.38   12.90
  -1 -10  -3  195.88   14.30
   1  10   3  195.58   14.20
   1  10   3  187.68   13.90
   1  10   3  182.88   11.70
   1  10   3  186.78   12.10
  -2 -10  -3    0.40    1.30
  -2 -10  -3    7.00    2.30
  -2 -10  -3   -0.40    1.40
   2  10   3    0.20    1.50
   2  10   3    3.30    2.30
   2  10   3    0.00    1.80
   2  10   3    1.60    1.90
  -3 -10  -3  239.28   15.40
  -3 -10  -3  254.37   11.10
  -3 -10  -3  240.88   10.80
  -3 -10  -3  269.07   15.90
  -3 -10  -3  223.18   14.90
   3  10   3  241.48   12.90
   3  10   3  230.28   15.60
   3  10   3  253.47   16.20
  -4 -10  -3   80.39    8.80
  -4 -10  -3   63.69    7.70
  -4 -10  -3   78.99   11.90
  -4 -10  -3   66.79    5.80
   4  10   3   70.99    8.40
   4  10   3   75.09    6.50
   4  10   3   75.19    8.40
  -5 -10  -3  582.24   21.20
  -5 -10  -3  591.44   26.70
  -5 -10  -3  585.94   25.40
  -5 -10  -3  548.65   26.60
   5  10   3  607.64   26.80
   5  10   3  606.24   27.90
   5  10   3  576.54   21.70
  -6 -10  -3  277.97   15.50
  -6 -10  -3  270.77   13.00
  -6 -10  -3  276.77   17.10
  -6 -10  -3  251.97   17.40
   6  10   3  277.77   16.80
   6  10   3  263.77   18.10
   6  10   3  260.17   12.60
   6  10   3  266.47   17.30
  -1 -11  -3  217.28   15.70
  -1 -11  -3  194.88   14.80
  -1 -11  -3  201.78   12.70
   1  11   3  201.18   12.90
   1  11   3  202.38   17.30
   1  11   3  216.38   13.80
   1  11   3  205.88   15.60
  -2 -11  -3 1378.76   57.69
  -2 -11  -3 1331.57   40.80
  -2 -11  -3 1302.27   40.90
  -2 -11  -3 1267.37   46.60
   2  11   3 1256.07   48.30
   2  11   3 1330.87   48.00
   2  11   3 1349.56   45.60
   2  11   3 1322.37   42.80
  -3 -11  -3  464.85   23.20
  -3 -11  -3  463.45   23.50
  -3 -11  -3  448.76   17.00
  -3 -11  -3  426.06   22.90
  -3 -11  -3  445.16   17.10
   3  11   3  462.15   23.10
   3  11   3  471.05   24.50
   3  11   3  457.45   20.10
   3  11   3  480.05   24.80
  -4 -11  -3 1046.20   33.20
  -4 -11  -3 1125.99   50.39
  -4 -11  -3 1097.49   40.80
  -4 -11  -3 1096.79   41.40
   4  11   3 1078.99   41.10
   4  11   3 1089.99   36.00
   4  11   3 1175.98   57.89
   4  11   3 1076.79   41.80
   3  10  -4   17.30    4.80
   3  10  -4   24.60    3.90
   3  10  -4   30.20    6.10
   3  10  -4   33.30    6.90
  -3 -10   4   18.60    3.80
  -3 -10   4   25.90    5.80
  -3 -10   4   10.10    3.80
   2  10  -4  703.73   28.50
   2  10  -4  677.13   31.00
   2  10  -4  676.53   29.60
   2  10  -4  662.13   25.10
  -2 -10   4  680.13   28.70
  -2 -10   4  711.23   30.10
  -2 -10   4  671.63   24.80
   1  10  -4  303.07   19.00
   1  10  -4  277.97   17.40
   1  10  -4  261.77   14.50
   1  10  -4  273.87   21.70
  -1 -10   4  297.37   18.30
  -1 -10   4  318.37   21.40
  -1 -10   4  297.97   15.00
   0  10  -4  685.53   27.60
   0 -10   4  725.23   31.90
   0 -10   4  719.73   29.30
   5   9  -4  246.38   16.30
   5   9  -4  273.17   17.20
   5   9  -4  244.08    9.70
  -5  -9   4  249.88   13.90
   4   9  -4  239.08   15.70
   4   9  -4  240.38   15.80
   4   9  -4  231.48   10.50
  -4  -9   4  203.98   16.00
   3   9  -4  325.87   14.00
   3   9  -4  336.67   18.30
   3   9  -4  298.97   18.20
  -3  -9   4  335.67   13.90
  -3  -9   4  324.87   17.70
   2   9  -4  196.38   14.00
   2   9  -4  203.28   13.60
   2   9  -4  170.98   12.00
   2   9  -4  174.78   10.20
  -2  -9   4  177.78   12.70
  -2  -9   4  201.98   13.00
   1   9  -4   52.69    5.70
   1   9  -4   46.40    6.50
   1   9  -4   67.99    8.20
   1   9  -4   53.99    6.70
  -1  -9   4   71.49    7.50
  -1  -9   4   69.29    6.30
  -1  -9   4   53.79    7.20
   0   9  -4   79.19    8.30
   0   9  -4   82.19    8.90
   0   9  -4   87.39    7.50
   0   9  -4   82.49    8.00
   0  -9   4   80.89    7.10
   0  -9   4   73.19    7.70
   0  -9   4   67.99    8.60
  -1   9  -4   19.50    6.00
  -1   9  -4   27.40    5.00
  -1   9  -4   25.80    5.60
   1  -9   4   27.90    4.80
   1  -9   4   29.40    5.00
  -2   9  -4   62.09    8.00
  -2   9  -4   63.09    7.20
   2  -9   4   50.09    6.60
   2  -9   4   63.19    6.80
   6   8  -4   16.30    4.60
  -6  -8   4   32.80    6.00
  -6  -8   4   16.50    5.70
  -6  -8   4   21.40    3.30
   5   8  -4  589.44   25.80
   5   8  -4  581.34   25.60
  -5  -8   4  587.74   22.30
  -5  -8   4  515.75   23.30
   4   8  -4    2.10    2.10
   4   8  -4    6.80    3.10
   4   8  -4   12.30    2.50
  -4  -8   4    3.80    1.90
  -4  -8   4    0.20    1.60
   3   8  -4 1825.52   49.70
   3   8  -4 1804.52   56.79
   3   8  -4 1831.72   56.39
  -3  -8   4 1833.92   55.69
  -3  -8   4 1824.82   55.89
  -3  -8   4 1770.72   49.30
   2   8  -4   35.80    6.20
   2   8  -4   38.30    5.70
   2   8  -4   33.10    4.60
  -2  -8   4   36.80    5.50
  -2  -8   4   33.50    5.00
  -2  -8   4   34.50    4.00
   1   8  -4 2571.44   83.39
   1   8  -4 2304.97   73.09
   1   8  -4 2154.68   62.49
  -1  -8   4 2222.78   65.49
  -1  -8   4 2212.18   62.19
   0   8  -4  224.88   12.50
   0   8  -4  222.38   13.20
   0   8  -4  232.38   12.40
   0   8  -4  249.88   19.70
   0  -8   4  218.78   11.70
   0  -8   4  213.88   12.60
  -1   8  -4 1765.32   53.39
  -1   8  -4 1746.63   51.59
  -1   8  -4 1756.42   52.49
   1  -8   4 1700.73   51.39
   1  -8   4 1815.92   53.09
  -2   8  -4  319.37   14.90
  -2   8  -4  347.27   17.10
  -2   8  -4  339.87   18.50
   2  -8   4  354.06   16.40
   2  -8   4  312.97   15.90
  -3   8  -4  821.72   27.10
  -3   8  -4  803.02   32.50
  -3   8  -4  784.22   30.50
   3  -8   4  826.82   29.60
   3  -8   4  806.72   30.00
   7   7  -4  524.35   25.30
   7   7  -4  578.84   24.10
  -7  -7   4  534.55   25.30
  -7  -7   4  537.55   27.50
   6   7  -4    3.50    2.70
  -6  -7   4    4.00    3.20
  -6  -7   4    4.60    2.70
  -6  -7   4    3.20    1.40
  -6  -7   4    3.40    2.00
   5   7  -4  500.75   22.50
  -5  -7   4  498.05   21.50
  -5  -7   4  473.45   21.90
   4   7  -4   34.80    5.20
   4   7  -4   34.50    2.80
  -4  -7   4   27.40    4.40
  -4  -7   4   46.10    5.30
   3   7  -4  158.38   10.80
   3   7  -4  141.39    7.30
   3   7  -4  144.99   10.50
  -3  -7   4  156.28   10.30
  -3  -7   4  143.29    7.30
   2   7  -4  131.39    9.80
   2   7  -4  125.29    7.30
   2   7  -4  115.79    9.10
  -2  -7   4  149.19   10.90
  -2  -7   4  136.49    7.40
  -2  -7   4  122.89    8.90
   1   7  -4   19.10    2.90
   1   7  -4   21.00    3.80
   1   7  -4   18.40    3.20
   1   7  -4   21.80    4.10
  -1  -7   4   11.20    3.30
  -1  -7   4   25.60    3.30
  -1  -7   4   19.10    3.90
   0   7  -4  582.44   23.90
   0   7  -4  584.94   22.60
   0   7  -4  576.64   21.70
   0   7  -4  544.15   20.80
   0  -7   4  572.94   20.70
   0  -7   4  583.04   22.00
  -1   7  -4    3.70    2.20
  -1   7  -4    4.20    1.90
  -1   7  -4    5.80    2.10
  -1   7  -4    6.00    2.40
   1  -7   4   10.40    2.70
   1  -7   4    9.10    2.50
  -2   7  -4  972.20   32.70
  -2   7  -4  944.41   33.00
  -2   7  -4 1049.09   35.70
  -2   7  -4 1009.50   31.40
   2  -7   4  970.20   32.60
   2  -7   4  978.30   32.40
  -3   7  -4    6.10    2.00
  -3   7  -4    7.20    2.60
  -3   7  -4    4.50    2.20
   3  -7   4    2.50    1.80
   3  -7   4    0.10    1.50
  -4   7  -4 1136.49   38.30
  -4   7  -4 1070.99   31.70
  -4   7  -4 1049.49   43.90
  -4   7  -4 1065.29   37.50
   4  -7   4 1086.89   35.10
   4  -7   4 1031.50   36.30
   7   6  -4  725.23   28.60
   7   6  -4  710.53   30.00
  -7  -6   4  739.93   33.80
  -7  -6   4  765.82   30.20
   6   6  -4 1093.59   38.60
   6   6  -4 1095.39   37.20
  -6  -6   4 1055.49   29.10
  -6  -6   4 1139.19   29.60
  -6  -6   4 1113.89   38.40
  -6  -6   4 1192.78   42.30
  -6  -6   4  990.30   36.70
   5   6  -4 1212.08   38.90
   5   6  -4 1089.19   38.90
  -5  -6   4 1231.08   40.80
  -5  -6   4 1216.28   41.30
   4   6  -4 2536.05   72.29
  -4  -6   4 2600.24   72.29
  -4  -6   4 2600.54   72.39
   3   6  -4 1060.99   35.30
   3   6  -4 1074.59   29.80
  -3  -6   4 1071.59   33.40
  -3  -6   4 1178.18   36.40
  -3  -6   4 1066.49   34.90
  -3  -6   4 1064.29   29.80
   2   6  -4 3867.61  104.59
   2   6  -4 3914.41   99.59
   2   6  -4 3989.30  104.09
  -2  -6   4 3975.10   99.59
  -2  -6   4 4067.09   99.49
  -2  -6   4 4029.10  105.59
  -2  -6   4 4057.79  103.89
   1   6  -4  828.62   27.60
   1   6  -4  829.32   25.20
   1   6  -4  804.02   27.20
   1   6  -4  786.42   28.10
  -1  -6   4  771.72   24.70
  -1  -6   4  808.62   27.00
  -1  -6   4  807.42   29.10
   0   6  -4 3104.89   83.09
   0   6  -4 3098.09   82.29
   0   6  -4 3175.58   84.69
   0   6  -4 3163.38   81.49
   0  -6   4 3170.78   82.39
   0  -6   4 3023.70   80.69
  -1   6  -4  353.06   15.00
  -1   6  -4  359.56   14.90
  -1   6  -4  331.37   16.00
  -1   6  -4  362.16   15.40
   1  -6   4  349.67   14.60
   1  -6   4  335.77   14.50
  -2   6  -4 1582.24   45.20
  -2   6  -4 1611.84   46.50
  -2   6  -4 1593.84   48.70
  -2   6  -4 1565.14   47.10
   2  -6   4 1640.84   47.00
   2  -6   4 1631.44   46.20
  -3   6  -4  231.58   10.70
  -3   6  -4  243.28   13.50
   3  -6   4  230.98   11.70
   3  -6   4  231.28   12.30
  -4   6  -4  437.66   24.40
  -4   6  -4  451.75   16.10
  -4   6  -4  491.55   20.60
   4  -6   4  450.65   19.50
   4  -6   4  451.35   18.10
  -5   6  -4  195.18   16.10
  -5   6  -4  199.58    8.20
  -5   6  -4  187.28   12.00
  -5   6  -4  183.68   12.40
   5  -6   4  216.68   12.90
   5  -6   4  196.18   11.00
   8   5  -4   31.80    4.70
   8   5  -4   23.50    5.40
  -8  -5   4   25.40    5.50
  -8  -5   4   34.30    7.70
  -8  -5   4   25.60    5.20
   7   5  -4  156.78   10.70
   7   5  -4  130.29   10.70
  -7  -5   4  154.28   13.80
  -7  -5   4  151.08   11.00
   6   5  -4    7.70    2.70
   6   5  -4    6.80    2.30
  -6  -5   4   12.10    4.20
  -6  -5   4    3.80    2.40
  -6  -5   4   12.50    3.80
   5   5  -4  238.88   13.20
  -5  -5   4  249.18    9.20
  -5  -5   4  260.97   15.30
  -5  -5   4  260.07   13.90
   4   5  -4  474.85   19.20
   4   5  -4  444.16   18.90
  -4  -5   4  457.85   19.80
  -4  -5   4  456.15   19.10
   3   5  -4  646.54   23.40
   3   5  -4  651.23   18.50
  -3  -5   4  659.73   24.20
  -3  -5   4  662.53   23.20
  -3  -5   4  678.73   18.70
   2   5  -4 2027.20   52.69
   2   5  -4 2075.09   56.89
  -2  -5   4 2086.99   54.29
  -2  -5   4 2040.20   57.99
  -2  -5   4 2035.00   56.39
  -2  -5   4 2029.10   52.59
   1   5  -4 1402.36   38.60
   1   5  -4 1436.56   41.00
   1   5  -4 1414.56   41.10
   1   5  -4 1401.16   41.70
  -1  -5   4 1406.26   40.40
  -1  -5   4 1385.36   38.30
  -1  -5   4 1430.16   43.10
   0   5  -4 2804.52   75.39
   0   5  -4 2769.92   74.09
   0   5  -4 2803.72   73.09
   0   5  -4 2782.12   74.19
   0  -5   4 2893.81   73.89
   0  -5   4 2883.81   72.89
  -1   5  -4 2874.71   74.59
  -1   5  -4 2877.01   74.89
  -1   5  -4 2827.12   76.49
  -1   5  -4 2849.71   74.79
   1  -5   4 2779.22   74.19
   1  -5   4 2907.81   74.19
  -2   5  -4 2354.16   61.79
  -2   5  -4 2308.77   63.59
  -2   5  -4 2352.96   64.59
  -2   5  -4 2287.97   62.09
   2  -5   4 2335.77   62.09
   2  -5   4 2351.16   62.99
  -3   5  -4 3040.80   82.99
  -3   5  -4 3130.39   79.49
   3  -5   4 3076.39   82.09
   3  -5   4 3142.39   80.49
  -4   5  -4 1097.69   30.60
  -4   5  -4 1070.79   40.60
  -4   5  -4 1018.20   33.80
   4  -5   4 1045.70   34.00
   4  -5   4 1044.80   32.30
  -5   5  -4 2459.45   67.39
  -5   5  -4 2394.06   76.39
  -5   5  -4 2362.76   68.69
  -5   5  -4 2401.46   61.69
   5  -5   4 2440.16   65.59
   5  -5   4 2438.96   68.29
  -6   5  -4  300.47   16.30
  -6   5  -4  332.17   21.40
  -6   5  -4  304.87   14.60
   6  -5   4  325.57   16.40
   6  -5   4  315.27   14.20
   8   4  -4 1060.89   39.00
   8   4  -4 1026.40   39.00
   8   4  -4 1127.39   36.10
  -8  -4   4 1101.89   37.10
  -8  -4   4 1067.49   45.60
  -8  -4   4 1088.19   40.60
   7   4  -4   15.60    3.80
   7   4  -4   22.60    4.50
  -7  -4   4   27.90    5.90
  -7  -4   4   18.10    4.40
   6   4  -4 2453.05   71.39
   6   4  -4 2531.55   71.49
  -6  -4   4 2441.56   71.89
  -6  -4   4 2604.04   70.39
  -6  -4   4 2545.25   76.89
   5   4  -4  202.98   11.70
  -5  -4   4  207.28   11.30
  -5  -4   4  213.68   12.30
  -5  -4   4  193.28   13.30
   4   4  -4 3094.89   88.19
   4   4  -4 3331.37   88.39
  -4  -4   4 3223.88   90.39
  -4  -4   4 3715.83   90.09
   3   4  -4  658.43   18.00
   3   4  -4  709.73   23.40
   3   4  -4  670.83   23.80
  -3  -4   4  673.53   17.90
  -3  -4   4  671.33   23.80
  -3  -4   4  664.03   23.80
   2   4  -4 2607.44   69.69
   2   4  -4 2624.14   65.69
   2   4  -4 2661.13   70.19
  -2  -4   4 2673.93   69.59
  -2  -4   4 2631.94   71.29
  -2  -4   4 2655.43   68.89
  -2  -4   4 2672.23   65.79
   1   4  -4 1024.30   28.80
   1   4  -4 1051.69   31.00
   1   4  -4 1060.79   31.40
  -1  -4   4 1053.69   30.60
  -1  -4   4 1053.99   33.00
  -1  -4   4 1049.70   28.70
  -1  -4   4 1034.80   28.30
   0   4  -4 1653.33   40.70
   0   4  -4 1513.75   43.50
   0   4  -4 1565.34   43.30
   0   4  -4 1530.35   42.00
   0   4  -4 1583.64   43.00
   0  -4   4 1533.65   41.80
   0  -4   4 1548.65   42.40
   0  -4   4 1563.84   46.00
  -1   4  -4  384.76   14.20
  -1   4  -4  357.26   13.90
  -1   4  -4  390.46   13.90
  -1   4  -4  382.76   14.90
  -1   4  -4  379.76   13.80
   1  -4   4  372.46   13.80
   1  -4   4  382.16   13.50
  -2   4  -4  576.54   18.90
  -2   4  -4  563.74   19.70
  -2   4  -4  576.04   20.20
  -2   4  -4  572.94   20.50
   2  -4   4  573.34   19.60
   2  -4   4  585.14   18.50
  -3   4  -4    5.60    2.30
  -3   4  -4    5.10    1.60
  -3   4  -4    8.00    2.20
   3  -4   4    6.90    1.80
   3  -4   4   12.00    2.30
  -4   4  -4  321.07   18.20
  -4   4  -4  326.57   13.90
  -4   4  -4  375.96   15.70
  -4   4  -4  327.37   12.20
   4  -4   4  312.97   14.20
   4  -4   4  331.17   13.00
  -5   4  -4  185.98    8.00
  -5   4  -4  179.28    9.70
   5  -4   4  193.08   10.90
   5  -4   4  181.08    9.30
  -6   4  -4  229.78   13.10
  -6   4  -4  222.08   10.90
  -6   4  -4  220.28   16.70
   6  -4   4  238.18   11.50
   6  -4   4  241.88   13.00
  -7   4  -4  342.37   22.10
   7  -4   4  332.17   16.60
   7  -4   4  322.07   21.10
   7  -4   4  299.27   14.10
   8   3  -4   38.10    6.00
   8   3  -4   30.40    5.70
   8   3  -4   25.00    4.20
  -8  -3   4   31.40    6.90
  -8  -3   4   30.50    4.90
  -8  -3   4   29.80    6.10
   7   3  -4   51.69    6.30
   7   3  -4   39.20    4.80
   7   3  -4   51.49    6.70
  -7  -3   4   48.00    5.40
  -7  -3   4   59.59    8.50
   6   3  -4    0.30    1.10
   6   3  -4    3.80    1.50
   6   3  -4    0.90    0.90
  -6  -3   4    0.60    1.40
  -6  -3   4    1.20    1.70
  -6  -3   4    1.40    1.50
   5   3  -4  492.55   20.40
   5   3  -4  494.35   20.20
  -5  -3   4  538.65   24.00
  -5  -3   4  510.15   21.10
  -5  -3   4  531.55   19.20
   4   3  -4    0.60    0.80
   4   3  -4    3.20    1.30
  -4  -3   4    4.10    1.80
  -4  -3   4    2.10    1.90
  -4  -3   4    3.00    0.80
   3   3  -4 2479.05   66.19
   3   3  -4 2490.25   66.59
   3   3  -4 2537.65   67.69
  -3  -3   4 2515.45   72.99
  -3  -3   4 2494.15   62.99
  -3  -3   4 2530.35   67.59
   2   3  -4   15.20    2.40
   2   3  -4   18.40    2.60
   2   3  -4   15.00    2.60
  -2  -3   4   14.90    2.40
  -2  -3   4   17.60    2.80
  -2  -3   4   15.30    1.50
   1   3  -4 5675.23  141.59
   1   3  -4 5866.41  138.29
  -1  -3   4 5793.32  141.49
   0   3  -4  199.28    7.40
   0   3  -4  189.88    7.90
   0   3  -4  196.18    8.80
   0   3  -4  191.28    8.10
   0  -3   4  200.28   10.20
   0  -3   4  192.98    7.90
   0  -3   4  210.58    8.20
  -1   3  -4 6910.81  168.58
  -1   3  -4 6846.11  167.08
  -1   3  -4 6869.21  167.98
   1  -3   4 6975.30  164.88
  -2   3  -4  579.04   19.60
  -2   3  -4  625.74   20.70
  -2   3  -4  643.44   19.30
  -2   3  -4  612.14   19.60
  -2   3  -4  587.34   17.80
   2  -3   4  579.14   17.70
   2  -3   4  598.54   17.80
   2  -3   4  609.64   19.60
  -3   3  -4 5315.27  132.89
  -3   3  -4 5198.48  129.09
  -3   3  -4 4935.11  127.79
  -3   3  -4 5174.68  130.29
   3  -3   4 5142.39  127.19
   3  -3   4 5225.18  129.89
   3  -3   4 5443.76  127.79
   3  -3   4 5232.08  128.89
  -4   3  -4  575.94   24.20
  -4   3  -4  477.45   23.60
  -4   3  -4  560.54   17.50
  -4   3  -4  510.85   18.00
  -4   3  -4  564.34   20.20
   4  -3   4  556.34   17.50
   4  -3   4  543.95   16.90
   4  -3   4  518.25   19.80
   4  -3   4  579.84   19.90
  -5   3  -4 2271.07   71.49
  -5   3  -4 2408.26   65.79
  -5   3  -4 2379.06   62.39
  -5   3  -4 2372.76   61.09
   5  -3   4 2398.56   62.39
   5  -3   4 2450.35   65.39
  -6   3  -4  351.56   20.40
  -6   3  -4  352.96   19.10
   6  -3   4  349.47   14.10
   6  -3   4  365.56   16.00
  -7   3  -4  889.61   37.30
  -7   3  -4  815.52   34.60
   7  -3   4  804.52   29.10
   7  -3   4  800.92   26.80
   7  -3   4  795.52   35.10
   8   2  -4   57.89    7.40
   8   2  -4   70.09    8.40
  -8  -2   4   57.49    5.80
  -8  -2   4   48.70    8.50
  -8  -2   4   52.39    7.60
   7   2  -4 1630.34   53.29
   7   2  -4 1699.53   47.70
   7   2  -4 1697.53   52.69
  -7  -2   4 1748.53   60.39
  -7  -2   4 1697.03   49.00
   6   2  -4    3.60    1.50
   6   2  -4    0.30    1.30
  -6  -2   4    0.90    1.30
  -6  -2   4    8.80    4.00
  -6  -2   4    3.00    1.60
   5   2  -4 2974.50   80.69
   5   2  -4 2997.30   76.69
   5   2  -4 2912.21   79.39
  -5  -2   4 2789.82   80.49
  -5  -2   4 2993.50   76.69
  -5  -2   4 3016.30   85.39
   4   2  -4    5.40    1.90
   4   2  -4    1.70    1.00
   4   2  -4    0.60    0.80
   4   2  -4    3.50    1.40
  -4  -2   4    3.70    1.40
  -4  -2   4    1.70    1.50
  -4  -2   4    0.40    1.00
   3   2  -4 2960.00   77.59
   3   2  -4 2985.70   76.69
   3   2  -4 3037.10   78.99
  -3  -2   4 3042.70   81.29
  -3  -2   4 2873.61   78.69
  -3  -2   4 3088.19   73.69
   2   2  -4    2.40    1.10
   2   2  -4    3.80    1.20
   2   2  -4   10.40    2.20
  -2  -2   4    5.10    1.50
  -2  -2   4    4.20    0.70
  -2  -2   4    3.20    0.90
   1   2  -4 2201.78   55.89
   1   2  -4 2134.89   56.49
  -1  -2   4 2164.68   58.09
  -1  -2   4 2232.88   54.19
   0   2  -4  266.07    8.90
   0   2  -4  243.28    9.70
   0   2  -4  250.87    8.80
   0  -2   4  238.78    8.70
   0  -2   4  254.97   11.10
  -1   2  -4 1069.09   29.60
  -1   2  -4 1113.09   29.60
  -1   2  -4 1051.99   27.60
   1  -2   4 1024.60   28.90
   1  -2   4 1052.89   29.20
   1  -2   4 1020.10   27.20
  -2   2  -4  986.20   28.80
  -2   2  -4  925.61   27.00
  -2   2  -4  949.01   27.70
  -2   2  -4  951.20   26.60
   2  -2   4  983.30   27.20
   2  -2   4  971.20   26.90
   2  -2   4  937.41   24.70
   2  -2   4  948.81   27.40
  -3   2  -4  325.37   12.60
  -3   2  -4  322.67   11.60
  -3   2  -4  309.17   13.80
  -3   2  -4  311.37   11.10
  -3   2  -4  307.27   14.90
   3  -2   4  322.47   11.30
   3  -2   4  304.77   12.60
   3  -2   4  323.67   12.40
   3  -2   4  321.57   10.10
  -4   2  -4 1342.17   36.90
  -4   2  -4 1337.87   36.10
  -4   2  -4 1323.57   38.90
  -4   2  -4 1367.36   43.30
  -4   2  -4 1387.06   42.30
   4  -2   4 1329.57   38.50
   4  -2   4 1357.26   36.30
   4  -2   4 1362.96   35.80
  -5   2  -4  129.99   10.50
  -5   2  -4  129.59    6.10
  -5   2  -4  135.99    6.80
  -5   2  -4  133.59   10.10
  -5   2  -4  152.98   11.00
   5  -2   4  136.09    6.70
   5  -2   4  138.69    6.40
   5  -2   4  126.39    7.90
  -6   2  -4 1307.37   46.60
  -6   2  -4 1394.36   46.60
   6  -2   4 1283.57   37.40
   6  -2   4 1339.77   35.80
   6  -2   4 1373.16   41.30
  -7   2  -4   57.09    8.30
  -7   2  -4   78.99    9.20
   7  -2   4   54.19    5.80
   7  -2   4   50.19    7.30
   7  -2   4   61.99    3.70
   7  -2   4   57.69    6.00
   7  -2   4   72.79    5.50
  -8   2  -4  699.53   33.20
  -8   2  -4  660.63   32.80
   8  -2   4  659.73   25.50
   8  -2   4  672.03   23.60
   8  -2   4  668.03   25.60
   8  -2   4  667.93   31.30
   8  -2   4  689.33   23.30
   8   1  -4  199.08    9.20
   8   1  -4  157.58   13.30
   8   1  -4  187.28   13.10
  -8  -1   4  195.58   17.10
   7   1  -4  132.89    7.30
   7   1  -4  134.79   11.00
  -7  -1   4  127.59   13.00
  -7  -1   4  131.69    8.20
   6   1  -4 1217.28   34.70
   6   1  -4 1215.68   40.80
  -6  -1   4 1183.68   41.20
  -6  -1   4 1282.07   35.70
  -6  -1   4 1186.58   45.30
   5   1  -4  602.34   23.90
   5   1  -4  641.34   20.10
  -5  -1   4  588.54   19.70
  -5  -1   4  610.64   27.00
  -5  -1   4  693.23   25.30
   4   1  -4 3485.95   94.39
   4   1  -4 3638.44   91.19
   4   1  -4 3568.24   95.29
  -4  -1   4 3659.53   95.79
  -4  -1   4 3845.72   90.89
  -4  -1   4 3606.44   98.59
   3   1  -4  686.63   23.00
   3   1  -4  688.13   22.20
   3   1  -4  657.23   20.30
  -3  -1   4  643.74   22.70
  -3  -1   4  671.23   18.20
  -3  -1   4  652.93   17.00
   1   1  -4  254.67    9.60
   1   1  -4  240.68   10.60
  -1  -1   4  261.27    9.10
  -1  -1   4  253.17   10.60
  -1   1  -4    7.10    1.60
  -1   1  -4    7.90    0.80
   1  -1   4    8.10    1.60
   1  -1   4    3.90    1.40
   1  -1   4    6.90    1.40
  -3   1  -4   26.40    2.00
  -3   1  -4   31.50    2.80
  -3   1  -4   21.20    3.10
  -3   1  -4   22.70    3.50
   3  -1   4   26.80    3.00
   3  -1   4   27.30    2.80
   3  -1   4   22.60    3.00
  -4   1  -4 3872.11  101.19
  -4   1  -4 3766.92   92.49
  -4   1  -4 3906.71   95.49
  -4   1  -4 3602.44   99.89
   4  -1   4 3761.32   93.09
   4  -1   4 4028.40   97.89
   4  -1   4 3774.12   94.89
   4  -1   4 3862.01   96.59
  -5   1  -4   20.90    4.10
  -5   1  -4   22.20    2.80
  -5   1  -4   19.00    3.90
  -5   1  -4   13.40    4.20
   5  -1   4   16.60    2.30
   5  -1   4   16.40    2.70
   5  -1   4   17.90    2.80
  -6   1  -4  825.72   34.00
  -6   1  -4  954.00   35.60
  -6   1  -4  948.91   35.90
   6  -1   4  956.70   27.00
   6  -1   4  905.81   26.60
   6  -1   4  943.81   29.60
   6  -1   4  944.81   30.10
  -7   1  -4    9.90    4.30
  -7   1  -4    6.00    3.20
   7  -1   4    6.50    1.80
   7  -1   4    6.60    2.20
   7  -1   4    4.00    1.60
   7  -1   4   13.70    3.30
   7  -1   4    4.90    1.50
  -8   1  -4  140.49   13.90
  -8   1  -4  136.19   12.80
   8  -1   4  134.79    9.00
   8  -1   4  131.49    9.10
   8  -1   4  141.59    8.30
   8  -1   4  140.69   11.90
   8  -1   4  130.69    6.40
   8   0  -4  676.23   20.00
   8   0  -4  678.03   30.60
  -8   0   4  645.14   34.40
   7   0  -4  758.52   31.40
   7   0  -4  769.82   22.70
  -7   0   4  797.72   22.10
  -7   0   4  737.73   35.40
   6   0  -4  995.40   40.30
   6   0  -4 1039.50   28.30
  -6   0   4  949.40   28.90
  -6   0   4  975.00   36.20
  -6   0   4  996.10   26.90
  -6   0   4  987.30   39.90
   5   0  -4  917.71   25.70
   5   0  -4  888.41   31.70
  -5   0   4  835.22   34.20
  -5   0   4  886.11   25.70
  -5   0   4  906.81   24.20
  -5   0   4  954.20   36.80
   4   0  -4 1124.89   30.40
   4   0  -4 1080.19   33.90
   4   0  -4 1068.19   28.50
   4   0  -4 1151.48   35.60
  -4   0   4 1140.69   29.70
  -4   0   4 1074.69   38.10
  -4   0   4 1085.39   28.70
  -4   0   4 1100.39   35.50
   3   0  -4 1595.54   44.50
   3   0  -4 1510.65   42.40
   3   0  -4 1572.74   40.40
   3   0  -4 1549.64   39.20
  -3   0   4 1496.45   44.00
  -3   0   4 1534.15   39.40
  -3   0   4 1455.55   40.70
  -3   0   4 1572.34   39.40
   2   0  -4  173.38    7.30
   2   0  -4  181.28    9.00
   2   0  -4  183.58    7.80
   2   0  -4  187.78    7.00
  -2   0   4  178.48    6.90
  -2   0   4  183.38    6.30
  -2   0   4  184.08    7.40
   1   0  -4 2807.42   69.09
   1   0  -4 2742.23   69.29
   1   0  -4 2774.62   70.99
  -1   0   4 2777.92   69.29
  -1   0   4 2718.13   70.79
  -1   0   4 2831.52   69.09
   0   0  -4  244.58    9.20
   0   0  -4  245.58    9.80
   0   0   4  255.57    9.10
   0   0   4  251.87    9.70
   0   0   4  256.97    9.30
  -2   0  -4 1543.15   40.70
  -2   0  -4 1525.95   41.80
  -2   0  -4 1641.34   42.40
   2   0   4 1426.16   41.00
   2   0   4 1586.04   40.80
   2   0   4 1538.95   40.50
  -3   0  -4 5177.48  127.89
  -3   0  -4 5016.20  130.29
  -3   0  -4 5432.76  130.99
   3   0   4 5070.69  130.99
   3   0   4 5443.06  129.09
   3   0   4 5057.59  127.49
   3   0   4 5303.67  124.19
  -4   0  -4 1325.57   39.10
  -4   0  -4 1300.67   35.30
  -4   0  -4 1176.98   38.30
   4   0   4 1260.57   32.30
   4   0   4 1298.27   36.10
   4   0   4 1277.17   35.40
   4   0   4 1202.08   34.50
  -5   0  -4 3817.12  106.09
  -5   0  -4 3868.41  106.59
   5   0   4 4090.19   98.39
   5   0   4 4259.07  101.89
   5   0   4 4062.59  101.19
   5   0   4 3888.81   99.69
  -6   0  -4  547.25   24.40
  -6   0  -4  563.34   24.50
  -6   0  -4  558.84   25.80
   6   0   4  541.15   23.00
   6   0   4  543.95   18.30
   6   0   4  564.94   19.80
   6   0   4  582.74   18.20
   6   0   4  589.94   20.20
  -7   0  -4 2340.87   78.69
  -7   0  -4 2244.68   72.49
  -7   0  -4 2320.67   70.99
   7   0   4 2241.78   59.79
   7   0   4 2315.77   62.49
   7   0   4 2254.37   60.59
   7   0   4 2278.47   67.89
   7   0   4 2274.07   62.19
  -8   0  -4  121.79   12.10
  -8   0  -4  121.69   13.00
   8   0   4  113.09    7.50
   8   0   4  117.69   10.50
   8   0   4  115.29    8.10
   8   0   4  131.69    7.00
   8   0   4  111.49    7.80
   8  -1  -4  838.92   36.20
  -8   1   4  880.01   41.20
  -8   1   4  840.02   25.70
   7  -1  -4  104.59    6.30
   7  -1  -4   93.89   10.10
  -7   1   4  111.89    6.20
  -7   1   4  117.39   12.60
   6  -1  -4 2542.25   65.89
   6  -1  -4 2566.64   75.59
   6  -1  -4 2620.94   63.99
   6  -1  -4 2575.84   63.79
  -6   1   4 2455.65   79.49
  -6   1   4 2605.64   65.69
   5  -1  -4  709.33   27.70
   5  -1  -4  709.93   20.50
   5  -1  -4  743.73   20.90
   5  -1  -4  742.93   21.70
  -5   1   4  699.23   26.50
  -5   1   4  722.33   21.40
  -5   1   4  739.03   28.40
  -5   1   4  737.03   30.70
   4  -1  -4 6177.88  149.19
   4  -1  -4 5884.81  143.69
   4  -1  -4 5978.00  151.48
   4  -1  -4 5962.80  144.19
  -4   1   4 5890.81  144.09
  -4   1   4 5739.53  148.99
   3  -1  -4 2110.29   56.29
   3  -1  -4 2170.28   53.59
   3  -1  -4 2097.69   53.99
   3  -1  -4 2100.49   58.79
  -3   1   4 2112.79   53.59
  -3   1   4 2167.88   58.89
  -3   1   4 2072.69   56.49
   1  -1  -4 4258.07  100.69
   1  -1  -4 4177.78  101.89
   1  -1  -4 4173.38  102.39
  -1   1   4 4060.19   99.29
  -1   1   4 4237.88  102.49
  -1   1   4 4112.49  101.89
  -1  -1  -4 3115.59   78.19
  -1  -1  -4 3258.57   79.69
  -1  -1  -4 3203.28   79.89
  -1  -1  -4 3218.78   78.19
  -1  -1  -4 3286.77   79.59
   1   1   4 3194.18   79.89
  -2  -1  -4 3225.68   80.99
  -2  -1  -4 3295.67   80.89
  -2  -1  -4 3113.49   80.39
  -2  -1  -4 3263.97   82.09
  -2  -1  -4 3225.18   77.79
  -2  -1  -4 3308.27   81.39
   2   1   4 3142.29   77.89
   2   1   4 3195.58   82.99
   2   1   4 3280.67   80.89
  -3  -1  -4 1360.66   38.80
  -3  -1  -4 1345.97   38.10
  -3  -1  -4 1369.36   37.10
  -3  -1  -4 1289.87   37.90
  -3  -1  -4 1376.36   37.30
   3   1   4 1319.47   38.00
   3   1   4 1376.06   37.00
   3   1   4 1387.66   34.20
   3   1   4 1283.27   39.70
   3   1   4 1384.56   36.90
  -4  -1  -4 1104.79   33.50
  -4  -1  -4 1105.29   32.60
  -4  -1  -4 1057.49   30.70
  -4  -1  -4 1054.39   32.90
   4   1   4 1066.99   29.90
   4   1   4 1036.80   30.20
   4   1   4 1050.39   28.00
   4   1   4  995.90   29.90
   4   1   4  997.80   32.50
  -5  -1  -4  106.69    7.70
  -5  -1  -4   91.39    7.70
  -5  -1  -4   89.49    7.60
   5   1   4   98.49    5.20
   5   1   4   98.19    6.00
   5   1   4  103.49    6.10
   5   1   4   99.19    6.10
  -6  -1  -4  196.58   14.00
  -6  -1  -4  188.48   12.50
  -6  -1  -4  198.38   12.80
  -6  -1  -4  180.68   11.20
   6   1   4  186.58   11.10
   6   1   4  172.78    8.80
   6   1   4  188.48    9.30
   6   1   4  188.48    8.60
   6   1   4  184.18    9.10
  -7  -1  -4   29.40    5.30
  -7  -1  -4   28.70    5.60
  -7  -1  -4   24.00    5.40
   7   1   4   26.90    3.40
   7   1   4   33.00    3.70
   7   1   4   27.70    3.50
   7   1   4   26.10    4.40
   7   1   4   27.90    3.60
  -8  -1  -4   49.70    8.80
  -8  -1  -4   50.59    7.80
  -8  -1  -4   47.20    7.50
   8   1   4   51.29    4.90
   8   1   4   45.00    5.00
   8   1   4   52.09    4.70
   8   1   4   48.90    6.70
  -9  -1  -4   96.29   11.20
   9   1   4  103.99    6.80
   9   1   4   97.69    9.40
   9   1   4   88.29    7.30
   9   1   4   96.89    7.30
   9   1   4   98.39    6.70
   7  -2  -4    3.80    1.40
   7  -2  -4    1.40    2.10
   7  -2  -4    7.10    2.10
  -7   2   4    4.40    2.40
  -7   2   4    5.70    1.80
  -7   2   4    5.70    3.90
   6  -2  -4  228.48    9.90
   6  -2  -4  211.28   10.20
   6  -2  -4  241.38   15.50
  -6   2   4  253.17   17.80
  -6   2   4  238.88   14.60
  -6   2   4  236.88   10.40
   5  -2  -4  251.67   14.70
   5  -2  -4  222.88    9.90
   5  -2  -4  237.88   10.20
  -5   2   4  220.48   15.30
  -5   2   4  213.38   12.80
  -5   2   4  250.47   10.30
   4  -2  -4   62.29    4.50
   4  -2  -4   64.79    5.70
   4  -2  -4   62.09    4.60
   4  -2  -4   71.79    3.50
   4  -2  -4   63.39    6.50
  -4   2   4   66.39    6.60
  -4   2   4   68.59    6.10
  -4   2   4   71.09    4.70
   3  -2  -4 1552.04   40.40
   3  -2  -4 1565.44   43.80
   3  -2  -4 1578.34   46.70
   3  -2  -4 1547.65   42.00
   3  -2  -4 1589.64   42.80
  -3   2   4 1522.45   41.90
  -3   2   4 1631.44   46.90
  -3   2   4 1665.53   44.40
   2  -2  -4    9.80    2.30
   2  -2  -4   13.80    1.70
   2  -2  -4   12.40    1.80
   2  -2  -4   11.90    1.90
  -2   2   4   11.50    2.30
  -2   2   4   13.60    1.90
  -2   2   4   17.00    1.70
  -2   2   4   11.90    1.80
  -2   2   4   10.10    1.90
  -1   2   4 5776.72  140.79
  -1   2   4 5647.24  138.79
  -1   2   4 5787.92  137.69
   0  -2  -4    7.10    1.40
   0  -2  -4    8.20    1.60
   0  -2  -4   11.10    1.20
   0  -2  -4    7.50    1.60
   0   2   4    6.30    1.30
   0   2   4    7.60    1.00
   0   2   4    7.90    1.40
   0   2   4    6.50    1.30
  -2  -2  -4  149.49    7.30
  -2  -2  -4  197.88    7.80
  -2  -2  -4  165.48    7.60
  -2  -2  -4  163.68    7.70
  -2  -2  -4  178.98    7.10
   2   2   4  175.68    6.00
   2   2   4  159.68    7.60
   2   2   4  162.38    7.50
   2   2   4  167.18    7.00
   2   2   4  165.98    6.80
   2   2   4  169.08    6.10
   3   2   4 8257.87  196.88
   3   2   4 8212.88  203.88
  -4  -2  -4  226.28   11.70
  -4  -2  -4  253.77   10.40
  -4  -2  -4  231.98   11.50
   4   2   4  256.67   11.00
   4   2   4  252.27    9.50
   4   2   4  269.77   10.60
   4   2   4  276.07   15.10
  -5  -2  -4 4298.47  110.89
  -5  -2  -4 4366.66  111.19
   5   2   4 4176.48  107.29
   5   2   4 4193.78  105.89
   5   2   4 4187.08  105.19
   5   2   4 4201.78  107.09
  -6  -2  -4  448.26   19.30
  -6  -2  -4  451.65   20.50
  -6  -2  -4  426.86   20.10
   6   2   4  460.45   16.20
   6   2   4  429.16   16.90
   6   2   4  479.95   16.40
   6   2   4  419.36   17.20
   6   2   4  431.56   15.90
  -7  -2  -4 1644.74   50.59
  -7  -2  -4 1637.24   52.89
  -7  -2  -4 1613.84   52.69
   7   2   4 1538.75   47.90
   7   2   4 1619.84   44.80
   7   2   4 1578.94   46.10
   7   2   4 1615.14   45.30
   7   2   4 1660.63   45.90
  -8  -2  -4  253.97   15.30
  -8  -2  -4  265.57   17.20
  -8  -2  -4  264.77   17.50
   8   2   4  256.67   11.90
   8   2   4  242.38   13.50
   8   2   4  238.08   10.90
   8   2   4  251.67   12.40
   8   2   4  231.88   11.80
  -9  -2  -4  403.36   23.70
   9   2   4  405.36   15.30
   9   2   4  415.56   16.90
   9   2   4  446.76   20.90
   9   2   4  402.16   17.80
   9   2   4  416.76   17.00
   7  -3  -4 1536.05   43.40
   7  -3  -4 1459.25   44.00
   7  -3  -4 1497.45   53.89
  -7   3   4 1541.65   52.49
  -7   3   4 1507.25   73.99
  -7   3   4 1508.75   44.00
   6  -3  -4  155.38    8.80
   6  -3  -4  148.19   12.30
   6  -3  -4  149.49    8.80
  -6   3   4  145.69    8.70
  -6   3   4  140.69   13.40
  -6   3   4  172.08   12.40
   5  -3  -4 3441.16   90.39
   5  -3  -4 3373.76   89.69
   5  -3  -4 3374.56   97.79
  -5   3   4 3577.24  101.19
  -5   3   4 3508.95   89.79
  -5   3   4 3668.93   95.69
   4  -3  -4   80.59    7.60
   4  -3  -4   77.59    5.60
   4  -3  -4   68.19    5.60
   4  -3  -4   72.39    3.50
  -4   3   4   73.39    5.40
  -4   3   4   92.69    7.20
   3  -3  -4 5271.87  127.39
   3  -3  -4 5364.66  132.29
   3  -3  -4 5423.16  136.19
   3  -3  -4 5292.07  130.99
  -3   3   4 5175.58  127.09
  -3   3   4 5368.16  130.99
  -3   3   4 5147.38  132.49
   2  -3  -4   36.50    4.20
   2  -3  -4   33.60    3.20
   2  -3  -4   31.20    2.50
   2  -3  -4   32.20    3.50
  -2   3   4   37.20    3.30
  -2   3   4   35.00    3.30
  -2   3   4   33.50    2.50
  -2   3   4   33.00    4.00
  -2   3   4   32.80    3.70
   1  -3  -4 4915.31  123.49
   1  -3  -4 4889.01  118.49
   1  -3  -4 5005.40  123.69
   1  -3  -4 4979.00  120.99
   1  -3  -4 5058.79  123.89
  -1   3   4 4849.11  121.69
  -1   3   4 4867.31  120.29
  -1   3   4 4977.80  123.39
  -1   3   4 4852.51  123.59
  -1   3   4 5048.40  123.79
  -1   3   4 5090.89  120.99
   0  -3  -4  119.69    5.90
   0  -3  -4  119.29    6.10
   0  -3  -4  121.49    6.70
   0  -3  -4  121.59    5.00
   0   3   4  109.99    6.30
   0   3   4  118.69    6.60
   0   3   4  122.39    6.10
   0   3   4  125.69    6.00
   0   3   4  118.99    5.90
  -1  -3  -4 2303.57   59.89
  -1  -3  -4 2394.26   58.19
  -1  -3  -4 2256.77   59.49
  -1  -3  -4 2340.97   59.39
  -1  -3  -4 2353.26   57.09
   1   3   4 2318.07   59.69
   1   3   4 2105.29   56.69
   1   3   4 2305.57   59.29
   1   3   4 2249.57   59.29
   1   3   4 2297.07   58.89
  -2  -3  -4  511.05   17.30
  -2  -3  -4  504.65   16.50
  -2  -3  -4  501.45   17.00
  -2  -3  -4  530.65   16.90
   2   3   4  505.75   13.40
   2   3   4  541.35   15.90
   2   3   4  482.45   16.50
   2   3   4  492.85   17.10
   2   3   4  519.55   15.80
   2   3   4  521.35   17.00
  -3  -3  -4  355.86   12.60
  -3  -3  -4  390.56   13.60
  -3  -3  -4  358.36   14.30
  -3  -3  -4  372.16   14.10
   3   3   4  352.16   12.90
   3   3   4  328.77   13.60
   3   3   4  359.46   13.20
   3   3   4  363.36   11.70
   3   3   4  356.86   10.00
   3   3   4  365.66   13.50
  -4  -3  -4  570.14   19.10
  -4  -3  -4  593.34   18.60
  -4  -3  -4  582.74   21.00
  -4  -3  -4  649.93   21.90
   4   3   4  613.84   17.30
   4   3   4  627.14   19.60
   4   3   4  564.24   21.00
   4   3   4  600.04   19.20
   4   3   4  587.34   20.60
   4   3   4  570.74   16.80
  -5  -3  -4   38.40    4.60
  -5  -3  -4   36.70    3.60
  -5  -3  -4   33.80    4.40
  -5  -3  -4   39.80    4.80
   5   3   4   43.50    3.50
   5   3   4   36.30    4.10
   5   3   4   43.20    3.90
   5   3   4   39.70    2.60
  -6  -3  -4  792.02   30.30
  -6  -3  -4  838.62   30.80
  -6  -3  -4  788.82   29.50
   6   3   4  901.51   26.70
   6   3   4  858.81   26.80
   6   3   4  873.11   26.00
   6   3   4  865.81   28.20
   6   3   4  842.12   25.90
   6   3   4  842.82   22.70
  -7  -3  -4    5.70    2.80
  -7  -3  -4    4.90    2.50
   7   3   4    5.50    1.60
   7   3   4   12.10    2.80
   7   3   4    6.20    2.20
   7   3   4    3.30    1.50
   7   3   4    7.90    2.40
  -8  -3  -4  585.74   25.80
  -8  -3  -4  584.44   27.70
   8   3   4  590.24   22.30
   8   3   4  649.93   23.40
   8   3   4  582.84   20.50
   8   3   4  569.44   19.50
   8   3   4  557.14   22.30
  -9  -3  -4    1.40    2.10
  -9  -3  -4    2.20    3.50
   9   3   4   -3.30    1.90
   9   3   4    1.00    1.20
   9   3   4    1.50    1.90
   9   3   4    1.80    2.00
   9   3   4    1.70    1.80
   7  -4  -4   36.40    4.80
   7  -4  -4   26.30    4.20
  -7   4   4   43.20    7.00
  -7   4   4   40.20    7.70
  -7   4   4   36.90    5.20
   6  -4  -4  306.87   15.90
   6  -4  -4  315.07   19.30
   6  -4  -4  299.77   14.50
  -6   4   4  301.97   20.30
  -6   4   4  280.67   17.10
   5  -4  -4   36.20    6.00
   5  -4  -4   42.40    5.00
   5  -4  -4   49.50    4.70
  -5   4   4   37.00    5.60
  -5   4   4   38.30    6.70
  -5   4   4   39.50    4.40
   4  -4  -4 1116.49   39.00
   4  -4  -4 1082.99   33.60
   4  -4  -4 1136.29   35.20
  -4   4   4 1089.19   33.50
  -4   4   4 1132.59   36.60
   3  -4  -4  469.55   17.10
   3  -4  -4  457.55   18.20
   3  -4  -4  439.96   13.40
   3  -4  -4  465.35   19.10
   3  -4  -4  453.05   20.00
  -3   4   4  454.35   13.00
  -3   4   4  498.95   19.30
  -3   4   4  490.95   18.40
  -3   4   4  451.55   16.90
   2  -4  -4 3220.08   82.89
   2  -4  -4 3346.77   85.59
   2  -4  -4 3217.08   86.19
   2  -4  -4 3170.88   84.69
  -2   4   4 3333.37   85.69
  -2   4   4 3188.18   79.69
  -2   4   4 3185.68   82.89
  -2   4   4 3210.18   82.79
   1  -4  -4  858.31   28.10
   1  -4  -4  888.91   28.20
   1  -4  -4  883.51   28.00
  -1   4   4  917.21   28.60
  -1   4   4  872.91   26.40
  -1   4   4  891.81   25.20
  -1   4   4  908.01   25.80
   0  -4  -4 5633.34  142.99
   0  -4  -4 5676.03  142.89
   0  -4  -4 5832.82  139.29
   0  -4  -4 5700.93  140.99
   0   4   4 5916.91  143.09
   0   4   4 5717.03  140.69
   0   4   4 5755.42  142.79
   0   4   4 5674.23  140.79
  -1  -4  -4  411.96   13.70
  -1  -4  -4  371.86   14.80
  -1  -4  -4  375.96   14.70
  -1  -4  -4  411.86   12.40
   1   4   4  376.46   13.40
   1   4   4  389.46   14.30
   1   4   4  381.96   14.40
   1   4   4  373.26   14.70
   1   4   4  394.26   14.90
  -2  -4  -4 5630.54  137.19
  -2  -4  -4 5422.56  137.49
  -2  -4  -4 5542.75  137.89
   2   4   4 5653.53  136.89
   2   4   4 5551.94  137.99
   2   4   4 5553.74  138.29
   2   4   4 5489.65  137.59
  -3  -4  -4    2.80    1.20
  -3  -4  -4    4.70    1.80
   3   4   4    1.70    1.10
   3   4   4    7.40    1.60
   3   4   4    2.10    1.00
   3   4   4    6.40    1.60
   3   4   4    3.10    1.40
  -4  -4  -4 3188.68   88.29
  -4  -4  -4 3329.77   88.69
  -4  -4  -4 3369.86   86.49
  -4  -4  -4 3308.97   86.49
   4   4   4 3340.07   87.19
   4   4   4 3420.26   86.59
   4   4   4 3395.66   84.89
   4   4   4 3922.01   93.39
   4   4   4 3260.77   88.59
  -5  -4  -4   71.19    5.20
  -5  -4  -4   68.19    5.20
  -5  -4  -4   72.99    6.70
  -5  -4  -4   70.89    6.50
   5   4   4   69.79    5.50
   5   4   4   74.99    3.80
   5   4   4   75.99    4.60
   5   4   4   77.59    5.40
   5   4   4   70.89    6.30
  -6  -4  -4  867.31   31.20
  -6  -4  -4  909.61   31.70
  -6  -4  -4  869.01   26.80
   6   4   4  905.51   30.30
   6   4   4  886.21   28.70
   6   4   4  868.91   25.40
   6   4   4  869.41   27.00
   6   4   4  880.51   25.20
  -7  -4  -4  210.08   13.70
  -7  -4  -4  219.38   13.70
   7   4   4  212.48   12.30
   7   4   4  226.48   10.20
   7   4   4  205.38    8.60
   7   4   4  219.88   10.20
   7   4   4  229.68   11.90
   7   4   4  227.08   10.40
  -8  -4  -4  126.09   10.80
  -8  -4  -4  111.49   10.90
   8   4   4  122.09    8.90
   8   4   4  125.59    9.70
   8   4   4  127.29    7.40
   8   4   4  114.49    5.80
   8   4   4  117.99    6.90
   8   4   4  116.79    7.80
  -9  -4  -4   96.39   10.00
  -9  -4  -4   89.79   10.10
   9   4   4  109.99    8.70
   9   4   4   91.99    6.20
   9   4   4   99.29    7.90
   9   4   4   96.59    8.40
   9   4   4   87.19    5.70
   6  -5  -4  952.30   39.80
   6  -5  -4  974.50   32.80
   6  -5  -4  963.90   39.90
   6  -5  -4 1001.70   34.10
  -6   5   4  961.30   41.30
  -6   5   4  965.10   32.60
  -6   5   4  975.80   37.70
   5  -5  -4  768.42   28.30
   5  -5  -4  762.42   26.70
   5  -5  -4  781.22   30.00
   5  -5  -4  761.22   32.40
  -5   5   4  764.52   30.20
  -5   5   4  720.73   32.80
   4  -5  -4 1549.14   47.70
   4  -5  -4 1500.55   49.90
   4  -5  -4 1542.05   46.60
   4  -5  -4 1479.85   44.30
  -4   5   4 1477.35   47.30
  -4   5   4 1550.34   47.60
  -4   5   4 1450.15   44.10
   3  -5  -4  571.34   20.30
   3  -5  -4  560.64   22.00
   3  -5  -4  560.94   22.40
   3  -5  -4  524.95   23.10
  -3   5   4  557.54   15.30
  -3   5   4  547.25   21.40
  -3   5   4  543.05   22.30
   2  -5  -4 1146.79   35.00
   2  -5  -4 1347.47   48.30
   2  -5  -4 1227.18   38.40
   2  -5  -4 1129.59   37.00
  -2   5   4 1147.29   35.60
  -2   5   4 1165.08   35.10
  -2   5   4 1127.29   37.30
  -2   5   4 1197.08   31.90
   1  -5  -4  199.28    9.80
   1  -5  -4  220.08   11.60
   1  -5  -4  215.68   11.10
   1  -5  -4  191.28   11.00
  -1   5   4  215.68    9.10
  -1   5   4  197.58   11.10
  -1   5   4  230.48   10.40
   0  -5  -4  328.77   14.60
   0  -5  -4  340.07   14.90
   0  -5  -4  335.67   13.30
   0   5   4  340.77   13.10
   0   5   4  347.47   14.90
  -1  -5  -4  135.79    8.50
  -1  -5  -4  133.59    8.30
  -1  -5  -4  148.89    7.50
  -1  -5  -4  147.89    6.60
   1   5   4  147.79    8.40
   1   5   4  134.39    7.30
   1   5   4  143.59    8.10
   1   5   4  142.89    8.60
  -2  -5  -4   19.90    3.00
  -2  -5  -4   12.50    2.30
  -2  -5  -4    7.60    2.20
   2   5   4   12.20    2.10
   2   5   4    5.30    1.60
   2   5   4   12.70    2.50
   2   5   4    5.70    1.70
   2   5   4    8.20    2.20
  -3  -5  -4  297.27   12.90
  -3  -5  -4  279.67   13.00
  -3  -5  -4  305.97   13.10
   3   5   4  276.77   12.50
   3   5   4  303.97   12.60
   3   5   4  306.27   13.70
   3   5   4  294.27   13.30
   3   5   4  281.67   12.20
  -4  -5  -4  302.87   13.50
  -4  -5  -4  283.07   12.80
  -4  -5  -4  278.07   13.50
  -4  -5  -4  278.07   12.40
   4   5   4  292.77   12.60
   4   5   4  289.47   12.40
   4   5   4  303.67   14.20
   4   5   4  291.17   13.40
   4   5   4  287.07   13.10
  -5  -5  -4  461.85   17.70
  -5  -5  -4  475.65   17.10
  -5  -5  -4  454.95   18.90
   5   5   4  445.06   17.00
   5   5   4  470.65   18.40
   5   5   4  463.05   19.40
   5   5   4  457.15   16.40
  -6  -5  -4  238.78   10.80
  -6  -5  -4  227.88   11.50
  -6  -5  -4  216.98   12.90
  -6  -5  -4  229.48   13.40
   6   5   4  215.08   11.70
   6   5   4  224.98    7.70
   6   5   4  214.98   12.70
   6   5   4  239.48   11.00
   6   5   4  219.68   10.00
  -7  -5  -4  794.12   30.70
  -7  -5  -4  752.72   29.90
  -7  -5  -4  755.92   24.40
   7   5   4  722.83   34.00
   7   5   4  795.22   27.90
   7   5   4  761.72   24.90
   7   5   4  814.52   23.10
  -8  -5  -4  150.88   12.20
  -8  -5  -4  138.99   11.70
   8   5   4  159.08    8.30
   8   5   4  144.19    8.00
   8   5   4  150.38   10.90
   8   5   4  137.09    7.90
   8   5   4  146.89   12.50
  -9  -5  -4  473.95   25.00
  -9  -5  -4  470.35   24.20
   9   5   4  438.56   15.90
   9   5   4  447.86   17.70
   9   5   4  437.66   20.80
   9   5   4  470.25   17.20
   9   5   4  472.75   21.10
   6  -6  -4  708.23   33.70
   6  -6  -4  656.93   26.10
   6  -6  -4  700.03   28.00
   6  -6  -4  668.63   29.60
  -6   6   4  715.43   26.80
  -6   6   4  681.33   33.50
  -6   6   4  666.33   30.80
   5  -6  -4  288.47   15.90
   5  -6  -4  273.17   14.30
   5  -6  -4  291.37   18.70
   5  -6  -4  266.07   16.00
  -5   6   4  278.47   16.90
  -5   6   4  263.77   18.10
  -5   6   4  260.77   14.10
   4  -6  -4 1924.51   56.09
   4  -6  -4 1913.21   61.79
   4  -6  -4 2020.50   59.19
   4  -6  -4 1914.31   59.19
  -4   6   4 1874.01   60.79
  -4   6   4 2011.40   59.79
   3  -6  -4  939.11   30.70
   3  -6  -4  876.81   32.10
   3  -6  -4  894.41   32.60
   3  -6  -4  931.31   34.30
  -3   6   4  883.21   33.00
  -3   6   4  919.11   32.00
  -3   6   4  878.81   29.90
  -3   6   4  921.31   24.10
   2  -6  -4 3335.27   88.89
   2  -6  -4 3401.06   91.99
   2  -6  -4 3372.26   92.39
   2  -6  -4 3313.37   91.79
  -2   6   4 3353.96   88.89
  -2   6   4 3320.77   92.29
  -2   6   4 3600.14   88.59
  -2   6   4 3360.96   89.99
   1  -6  -4 2372.76   63.39
   1  -6  -4 2339.27   66.09
   1  -6  -4 2319.57   64.99
   1  -6  -4 2324.37   66.19
  -1   6   4 2370.66   63.39
  -1   6   4 2341.37   61.19
  -1   6   4 2251.47   65.99
   0  -6  -4 3863.51  100.29
   0  -6  -4 3689.43   97.29
   0  -6  -4 3708.13  100.09
   0   6   4 3809.22   96.79
   0   6   4 3796.92   97.09
   0   6   4 3840.72  100.39
   0   6   4 3803.42  100.39
  -1  -6  -4 3185.98   84.99
  -1  -6  -4 3353.16   86.89
  -1  -6  -4 3401.56   89.69
  -1  -6  -4 3441.26  102.49
   1   6   4 3492.55   87.09
   1   6   4 3352.76   87.79
   1   6   4 3443.96   89.69
   1   6   4 3316.57   89.69
  -2  -6  -4 2368.06   58.49
  -2  -6  -4 2379.16   65.09
  -2  -6  -4 2341.87   63.59
  -2  -6  -4 2294.87   64.99
   2   6   4 2374.26   64.99
   2   6   4 2343.77   62.09
   2   6   4 2386.06   65.59
   2   6   4 2299.17   64.39
  -3  -6  -4 3142.19   83.79
  -3  -6  -4 3163.28   83.69
  -3  -6  -4 3127.69   83.79
   3   6   4 3082.79   84.29
   3   6   4 3234.78   80.79
   3   6   4 3142.49   84.39
   3   6   4 3113.99   83.09
  -4  -6  -4  807.82   27.10
  -4  -6  -4  795.82   26.40
  -4  -6  -4  802.82   26.50
   4   6   4  805.02   26.10
   4   6   4  754.32   26.80
   4   6   4  760.72   27.90
   4   6   4  757.22   24.00
   4   6   4  792.32   27.50
   4   6   4  730.53   26.00
  -5  -6  -4 1906.51   54.49
  -5  -6  -4 1856.11   53.99
  -5  -6  -4 1820.52   52.59
  -5  -6  -4 1997.80   56.69
   5   6   4 1819.42   55.79
   5   6   4 1868.81   52.49
   5   6   4 1930.51   54.99
   5   6   4 1880.51   53.19
  -6  -6  -4  183.58   11.50
  -6  -6  -4  174.88   12.00
  -6  -6  -4  202.38   11.30
  -6  -6  -4  186.18    9.70
   6   6   4  184.78    9.70
   6   6   4  166.68   14.60
   6   6   4  169.28    9.70
   6   6   4  174.98   11.00
  -7  -6  -4  472.55   22.30
  -7  -6  -4  453.45   21.20
  -7  -6  -4  464.95   17.20
   7   6   4  457.05   20.90
   7   6   4  443.56   17.30
   7   6   4  454.15   21.10
  -8  -6  -4    0.60    1.60
  -8  -6  -4    4.10    2.10
   8   6   4    0.50    1.10
   8   6   4   -0.20    0.90
   8   6   4    4.80    2.10
   8   6   4    1.50    1.50
   8   6   4    3.20    2.20
   5  -7  -4    9.20    3.90
   5  -7  -4   12.90    3.70
   5  -7  -4   19.20    4.00
   5  -7  -4   18.00    4.30
  -5   7   4   24.40    5.90
  -5   7   4   20.10    4.60
  -5   7   4   14.70    4.90
  -5   7   4   26.20    5.00
   4  -7  -4  590.54   27.60
   4  -7  -4  555.84   25.60
   4  -7  -4  579.34   23.40
   4  -7  -4  602.34   26.00
  -4   7   4  596.34   26.00
  -4   7   4  547.35   23.10
  -4   7   4  585.04   26.30
   3  -7  -4    0.10    1.60
   3  -7  -4    2.60    1.60
   3  -7  -4    1.80    1.70
   3  -7  -4    0.70    1.70
  -3   7   4    6.10    2.90
  -3   7   4    2.80    2.40
  -3   7   4    1.40    1.50
  -3   7   4    0.90    0.80
   2  -7  -4  401.16   19.30
   2  -7  -4  375.56   16.80
   2  -7  -4  393.16   19.20
   2  -7  -4  382.06   18.90
  -2   7   4  388.16   19.40
  -2   7   4  384.96   13.80
  -2   7   4  377.56   17.80
   1  -7  -4  198.68   12.70
   1  -7  -4  201.08   12.60
   1  -7  -4  205.08   12.10
   1  -7  -4  203.78   11.00
  -1   7   4  199.88    9.70
  -1   7   4  196.08   12.70
  -1   7   4  195.88   13.70
   0  -7  -4  228.08   11.70
   0  -7  -4  225.58   13.30
   0  -7  -4  235.28   13.30
   0   7   4  219.78   11.20
   0   7   4  203.68   12.70
   0   7   4  218.88   13.10
   0   7   4  230.48   11.50
  -1  -7  -4  636.14   24.80
  -1  -7  -4  635.04   21.10
  -1  -7  -4  618.54   24.30
   1   7   4  604.34   22.60
   1   7   4  650.43   24.90
   1   7   4  645.44   24.80
  -2  -7  -4  364.86   12.40
  -2  -7  -4  367.06   15.90
  -2  -7  -4  348.07   16.70
   2   7   4  365.66   17.20
   2   7   4  336.97   16.00
   2   7   4  353.86   16.80
   2   7   4  378.96   14.90
  -3  -7  -4  978.20   38.10
  -3  -7  -4 1068.79   35.20
  -3  -7  -4 1020.60   38.00
   3   7   4 1155.98   35.70
   3   7   4 1059.69   35.50
   3   7   4 1073.19   36.00
   3   7   4 1122.69   32.60
  -4  -7  -4  562.64   23.10
  -4  -7  -4  550.54   21.80
  -4  -7  -4  554.94   22.50
  -4  -7  -4  571.64   21.40
   4   7   4  604.44   23.60
   4   7   4  572.14   19.80
   4   7   4  574.24   23.50
   4   7   4  580.04   22.10
  -5  -7  -4 1019.50   33.00
  -5  -7  -4  967.50   32.40
  -5  -7  -4 1022.20   34.00
  -5  -7  -4  989.90   35.20
   5   7   4 1033.10   34.80
   5   7   4  980.40   32.70
   5   7   4  998.30   35.50
   5   7   4 1004.10   30.20
  -6  -7  -4  538.85   22.20
  -6  -7  -4  446.06   20.80
  -6  -7  -4  562.24   24.40
  -6  -7  -4  520.25   20.30
   6   7   4  607.54   30.90
   6   7   4  564.74   19.00
   6   7   4  558.34   24.20
   6   7   4  550.74   21.10
  -7  -7  -4  315.87   14.60
  -7  -7  -4  339.27   17.30
  -7  -7  -4  307.27   18.10
   7   7   4  313.47   13.00
   7   7   4  301.37   17.30
   7   7   4  323.17   14.90
   7   7   4  324.87   17.20
  -8  -7  -4  571.34   25.40
  -8  -7  -4  503.65   25.90
  -8  -7  -4  524.85   19.50
   8   7   4  554.34   21.10
   8   7   4  591.34   25.00
   8   7   4  516.65   25.20
   8   7   4  562.04   25.80
   4  -8  -4   37.60    6.70
   4  -8  -4   51.59    8.10
   4  -8  -4   34.70    5.70
   4  -8  -4   40.90    6.60
  -4   8   4   36.70    6.30
  -4   8   4   40.50    6.90
  -4   8   4   46.10    6.40
  -4   8   4   43.20    7.00
   3  -8  -4 1847.42   54.89
   3  -8  -4 1757.82   57.69
   3  -8  -4 1734.63   58.49
   3  -8  -4 1885.81   58.69
  -3   8   4 1941.91   58.09
  -3   8   4 1732.83   46.00
  -3   8   4 1871.91   55.29
  -3   8   4 1694.13   58.09
   2  -8  -4    5.50    2.60
   2  -8  -4    2.10    2.00
   2  -8  -4    2.80    2.40
   2  -8  -4    7.30    3.20
  -2   8   4    9.20    3.00
  -2   8   4    6.90    1.80
  -2   8   4    5.20    2.90
   1  -8  -4 1915.01   59.19
   1  -8  -4 2013.30   60.29
   1  -8  -4 1902.01   55.89
   1  -8  -4 1924.81   57.79
  -1   8   4 1903.21   53.29
  -1   8   4 1884.11   60.19
   0  -8  -4  231.28   14.40
   0  -8  -4  238.58   12.80
   0   8   4  239.88   14.60
   0   8   4  226.78   12.00
  -1  -8  -4 1339.57   43.70
  -1  -8  -4 1270.67   38.70
   1   8   4 1330.17   43.70
   1   8   4 1268.07   40.60
   1   8   4 1359.26   40.20
  -2  -8  -4  274.77   14.20
  -2  -8  -4  279.27   11.80
  -2  -8  -4  279.07   15.20
  -2  -8  -4  265.47   15.10
   2   8   4  287.47   16.10
   2   8   4  294.47   16.00
   2   8   4  290.87   13.30
   2   8   4  271.87   14.40
  -3  -8  -4  294.97   15.60
  -3  -8  -4  304.27   15.90
  -3  -8  -4  279.77   15.00
   3   8   4  309.57   13.60
   3   8   4  288.57   17.00
   3   8   4  297.97   15.60
   3   8   4  295.97   15.70
  -4  -8  -4  145.69   10.20
  -4  -8  -4  131.79   10.00
  -4  -8  -4  145.59    9.20
  -4  -8  -4  138.49   10.50
   4   8   4  153.58    8.70
   4   8   4  164.28   10.80
   4   8   4  149.69   10.80
   4   8   4  135.19   10.40
  -5  -8  -4    2.00    1.50
  -5  -8  -4    2.70    1.90
  -5  -8  -4    1.50    1.90
   5   8   4    5.90    2.10
   5   8   4    3.90    2.30
   5   8   4    3.10    2.00
   5   8   4    3.90    2.10
  -6  -8  -4    9.50    3.90
  -6  -8  -4    6.80    3.20
  -6  -8  -4    6.40    2.70
  -6  -8  -4    9.90    2.80
   6   8   4    7.00    2.80
   6   8   4    6.60    2.90
   6   8   4    9.90    2.40
   6   8   4    9.70    3.60
  -7  -8  -4   33.00    5.60
  -7  -8  -4   31.50    6.00
  -7  -8  -4   35.20    5.40
  -7  -8  -4   40.10    5.00
   7   8   4   31.30    5.90
   7   8   4   43.70    5.60
   7   8   4   30.10    5.90
   7   8   4   39.00    4.10
  -8  -8  -4   76.19    8.20
  -8  -8  -4   64.99    6.00
  -8  -8  -4   74.39    9.30
   8   8   4   70.89    5.60
   8   8   4   72.39    9.00
   8   8   4   74.79    7.00
   8   8   4   72.79    8.40
   3  -9  -4   46.20    7.50
   3  -9  -4   79.19   10.10
   3  -9  -4   53.89    7.60
   3  -9  -4   48.50    8.10
  -3   9   4   55.49    7.60
  -3   9   4   58.39    3.60
  -3   9   4   54.79    7.90
  -3   9   4   52.19    7.20
   2  -9  -4   93.49   13.00
   2  -9  -4   81.99    8.10
   2  -9  -4   81.69    8.90
   2  -9  -4   91.39    9.50
  -2   9   4   80.79    5.90
  -2   9   4   79.99    8.10
  -2   9   4   76.19    8.30
  -2   9   4   86.49    9.80
   1  -9  -4  310.47   17.00
   1  -9  -4  334.87   18.80
   1  -9  -4  298.97   17.60
  -1   9   4  304.97   15.80
  -1   9   4  297.87   13.80
  -1   9   4  282.07   17.90
   0  -9  -4  567.64   25.80
   0  -9  -4  546.75   26.10
   0  -9  -4  565.54   23.00
   0   9   4  579.54   22.90
   0   9   4  593.24   22.60
   0   9   4  540.95   25.60
  -1  -9  -4  627.44   22.90
  -1  -9  -4  608.54   26.60
   1   9   4  538.85   30.90
   1   9   4  620.54   24.20
   1   9   4  646.34   23.90
   1   9   4  611.94   26.50
  -2  -9  -4 1153.68   37.70
  -2  -9  -4 1110.79   32.70
  -2  -9  -4 1131.79   39.40
   2   9   4 1069.09   39.30
   2   9   4 1091.49   35.20
   2   9   4 1070.99   39.00
   2   9   4 1040.50   40.20
  -3  -9  -4  350.56   11.80
  -3  -9  -4  349.27   17.70
  -3  -9  -4  345.47   18.20
  -3  -9  -4  355.26   11.70
   3   9   4  358.26   18.80
   3   9   4  330.57   17.50
   3   9   4  344.57   18.30
   3   9   4  323.37   15.10
  -4  -9  -4 1473.15   43.60
  -4  -9  -4 1451.15   46.90
  -4  -9  -4 1411.96   47.30
  -4  -9  -4 1450.75   47.60
   4   9   4 1433.26   47.20
   4   9   4 1422.96   42.70
   4   9   4 1471.75   48.50
   4   9   4 1365.66   47.30
  -5  -9  -4  105.39    9.70
  -5  -9  -4  105.79    8.00
  -5  -9  -4  110.39   10.20
  -5  -9  -4  119.59    9.50
   5   9   4   89.89    8.70
   5   9   4   85.19    9.00
   5   9   4  111.59   10.40
   5   9   4   91.29    6.90
  -6  -9  -4  819.12   32.30
  -6  -9  -4  851.51   34.50
  -6  -9  -4  838.52   29.90
  -6  -9  -4  851.31   30.80
   6   9   4  869.51   34.10
   6   9   4  858.71   32.00
   6   9   4  837.72   34.30
   6   9   4  849.02   27.80
  -7  -9  -4    1.10    2.10
  -7  -9  -4   14.10    3.50
  -7  -9  -4   -0.60    1.70
  -7  -9  -4    1.80    2.50
   7   9   4    1.00    2.00
   7   9   4    5.90    3.00
   7   9   4    5.20    2.10
   7   9   4    3.60    2.70
   1 -10  -4   70.29    8.10
   1 -10  -4   65.89    8.50
  -1  10   4   66.69    6.50
  -1  10   4   86.39    9.80
  -1  10   4   65.49    7.30
   0 -10  -4  519.25   24.80
   0 -10  -4  510.55   25.40
   0 -10  -4  492.65   22.10
   0  10   4  519.05   22.10
   0  10   4  533.95   26.30
   0  10   4  524.15   22.40
  -1 -10  -4    8.70    2.90
  -1 -10  -4    3.30    2.10
  -1 -10  -4    4.00    2.50
   1  10   4    6.50    3.20
   1  10   4    2.20    1.90
   1  10   4    3.90    1.60
   1  10   4    4.30    3.20
  -2 -10  -4  199.18   13.10
  -2 -10  -4  183.58   10.00
  -2 -10  -4  186.88   13.60
  -2 -10  -4  208.78   14.50
   2  10   4  183.78   11.40
   2  10   4  191.78   14.10
   2  10   4  185.88   12.60
   2  10   4  203.68   14.50
  -3 -10  -4   29.70    5.50
  -3 -10  -4   26.80    5.50
  -3 -10  -4   31.90    3.20
  -3 -10  -4   28.40    2.90
  -3 -10  -4   29.70    5.40
   3  10   4   30.80    5.80
   3  10   4   39.10    6.10
   3  10   4   26.70    5.10
   3  10   4   26.40    4.50
  -4 -10  -4    5.60    3.10
  -4 -10  -4    2.10    1.90
  -4 -10  -4    4.50    3.20
  -4 -10  -4    3.70    1.90
   4  10   4    3.60    2.20
   4  10   4    2.20    2.30
   4  10   4    4.30    2.60
  -5 -10  -4   75.79    8.20
  -5 -10  -4   61.89    7.80
  -5 -10  -4   77.39    9.00
  -5 -10  -4   73.09    8.60
   5  10   4   94.29   10.00
   5  10   4   61.39    8.30
   5  10   4   70.09    8.10
   5  10   4   59.09    6.00
  -6 -10  -4   93.29    7.70
  -6 -10  -4   87.79    9.60
  -6 -10  -4  108.39   10.90
  -6 -10  -4   93.09    8.80
   6  10   4  101.79   10.70
   6  10   4   97.29   12.30
   6  10   4   89.99    7.30
   6  10   4   77.19    8.60
  -1 -11  -4  340.67   20.20
  -1 -11  -4  292.57   15.50
   1  11   4  301.07   19.40
   1  11   4  342.47   29.30
   1  11   4  284.07   16.30
   1  11   4  313.07   16.60
  -2 -11  -4  328.87   21.40
  -2 -11  -4  323.47   14.90
  -2 -11  -4  366.26   19.30
  -2 -11  -4  349.96   20.20
   2  11   4  336.37   20.60
   2  11   4  349.07   17.40
   2  11   4  329.37   18.40
   2  11   4  349.37   21.50
  -3 -11  -4  322.67   18.50
  -3 -11  -4  309.57   12.20
  -3 -11  -4  309.07   18.90
  -3 -11  -4  291.67   18.50
  -3 -11  -4  287.47   12.00
   3  11   4  305.37   20.10
   3  11   4  358.46   20.80
   3  11   4  314.47   18.40
   3  11   4  329.07   17.60
  -4 -11  -4   42.70    6.80
  -4 -11  -4   55.79    7.40
  -4 -11  -4   62.19   11.80
  -4 -11  -4   49.99    7.40
   4  11   4   37.40    7.10
   4  11   4   48.00    5.90
   4  11   4   43.50    7.10
   5   9  -5  611.74   28.90
   5   9  -5  628.34   38.00
  -5  -9   5  650.23   27.80
   4   9  -5  904.01   34.50
   4   9  -5  832.12   33.20
   4   9  -5  826.82   25.80
   4   9  -5  842.12   34.70
  -4  -9   5  799.02   32.90
   3   9  -5  466.45   18.10
   3   9  -5  459.45   23.70
   3   9  -5  501.55   23.20
   3   9  -5  463.65   22.90
  -3  -9   5  490.55   22.80
  -3  -9   5  503.05   23.70
  -3  -9   5  485.85   18.10
   2   9  -5  206.18   11.40
   2   9  -5  203.38   14.10
   2   9  -5  232.78   17.30
   2   9  -5  210.88   15.00
  -2  -9   5  214.68   13.70
  -2  -9   5  219.28   14.90
  -2  -9   5  211.58   11.20
   1   9  -5  289.17   14.50
   1   9  -5  294.37   16.60
   1   9  -5  297.97   16.20
   1   9  -5  276.07   17.50
  -1  -9   5  280.67   15.80
  -1  -9   5  267.57   17.20
  -1  -9   5  283.17   14.00
   0   9  -5    6.80    2.60
   0   9  -5   11.50    3.60
   0   9  -5   11.20    3.40
   0   9  -5   17.60    5.90
   0  -9   5    6.60    2.60
   0  -9   5   12.00    3.70
   0  -9   5   14.70    3.50
  -1   9  -5   32.40    5.80
  -1   9  -5   38.20    5.50
  -1   9  -5   30.80    5.30
  -1   9  -5   39.60    6.40
   1  -9   5   35.20    5.70
   1  -9   5   37.70    5.50
   6   8  -5   -2.00    2.70
   6   8  -5    5.00    2.40
  -6  -8   5    6.00    3.10
  -6  -8   5    5.10    1.90
  -6  -8   5    5.10    2.80
   5   8  -5  842.02   33.30
   5   8  -5  856.21   34.40
   5   8  -5  871.31   34.20
  -5  -8   5  898.81   32.70
   4   8  -5    2.10    1.30
   4   8  -5    3.00    1.60
   4   8  -5    2.60    2.70
   4   8  -5    2.00    1.10
  -4  -8   5    6.80    1.60
   3   8  -5 1392.76   47.30
   3   8  -5 1394.66   39.80
   3   8  -5 1444.66   46.50
   3   8  -5 1389.16   45.90
  -3  -8   5 1363.86   45.40
  -3  -8   5 1429.86   39.80
   2   8  -5   48.20    4.90
   2   8  -5   50.89    6.10
   2   8  -5   52.29    6.90
   2   8  -5   48.10    6.00
  -2  -8   5   54.09    5.00
  -2  -8   5   50.19    6.00
   1   8  -5 1959.20   59.09
   1   8  -5 1996.30   60.79
   1   8  -5 1973.40   55.39
  -1  -8   5 1897.21   57.39
  -1  -8   5 1903.21   54.59
   0   8  -5  156.48   10.00
   0   8  -5  148.79   11.70
   0   8  -5  162.88   11.20
   0  -8   5  151.38   10.20
   0  -8   5  162.28    9.70
   0  -8   5  158.08   12.30
  -1   8  -5 1210.68   38.80
  -1   8  -5 1141.29   41.10
  -1   8  -5 1130.69   38.10
   1  -8   5 1098.39   36.90
   1  -8   5 1197.58   37.90
  -2   8  -5  315.17   17.50
  -2   8  -5  272.27   13.90
  -2   8  -5  274.67   19.60
   2  -8   5  306.57   15.00
   2  -8   5  261.67   14.70
  -3   8  -5  247.98   12.80
  -3   8  -5  243.08   14.90
  -3   8  -5  261.77   16.30
   3  -8   5  256.77   13.60
   3  -8   5  248.68   14.50
   7   7  -5 1091.59   39.90
   7   7  -5 1116.89   41.80
   7   7  -5 1064.89   39.40
  -7  -7   5 1169.18   41.50
  -7  -7   5 1029.70   39.80
  -7  -7   5 1194.18   45.10
   6   7  -5    0.00    1.70
   6   7  -5    2.20    1.90
  -6  -7   5    2.10    1.20
  -6  -7   5    0.90    1.20
  -6  -7   5   -0.50    1.40
  -6  -7   5    0.30    2.10
   5   7  -5  899.91   33.90
  -5  -7   5  901.11   33.70
   4   7  -5   93.89    8.50
  -4  -7   5  107.79    5.30
  -4  -7   5  108.49    8.40
  -4  -7   5  105.09    9.10
   3   7  -5  405.26   18.60
   3   7  -5  374.06   13.80
   3   7  -5  400.66   19.20
  -3  -7   5  397.36   19.10
  -3  -7   5  406.06   14.10
  -3  -7   5  382.56   15.40
  -3  -7   5  375.06   17.80
   2   7  -5   64.79    7.10
   2   7  -5   63.39    5.10
   2   7  -5   72.49    6.80
  -2  -7   5   64.39    6.40
  -2  -7   5   63.79    5.00
  -2  -7   5   63.39    7.10
   1   7  -5   37.70    4.70
   1   7  -5   30.60    5.00
   1   7  -5   36.20    4.60
   1   7  -5   38.80    4.70
  -1  -7   5   37.70    4.60
  -1  -7   5   33.90    5.40
  -1  -7   5   38.60    4.20
   0   7  -5   57.49    6.80
   0   7  -5   66.89    6.50
   0   7  -5   64.99    6.10
   0   7  -5   57.39    5.50
   0  -7   5   72.29    6.40
   0  -7   5   58.89    5.40
  -1   7  -5  456.65   20.50
  -1   7  -5  430.56   18.20
  -1   7  -5  415.26   18.10
  -1   7  -5  403.36   17.70
   1  -7   5  411.76   17.40
   1  -7   5  415.56   17.40
  -2   7  -5    1.70    1.90
  -2   7  -5    4.90    2.00
  -2   7  -5    2.50    2.20
  -2   7  -5    4.60    2.30
   2  -7   5    1.30    1.20
   2  -7   5   -0.40    0.90
  -3   7  -5  663.33   23.20
  -3   7  -5  646.84   26.30
  -3   7  -5  666.43   27.00
   3  -7   5  629.44   23.30
   3  -7   5  630.64   24.90
  -4   7  -5   77.39    6.10
  -4   7  -5   86.39    8.40
  -4   7  -5   66.59    7.30
   4  -7   5   69.19    7.50
   4  -7   5   77.59    6.80
   7   6  -5  225.68   14.50
   7   6  -5  248.28   15.60
  -7  -6   5  226.28   14.70
  -7  -6   5  234.28   17.50
  -7  -6   5  244.78   15.60
   6   6  -5  309.37   16.70
   6   6  -5  309.97   16.60
   6   6  -5  317.27   17.40
  -6  -6   5  306.87   10.80
  -6  -6   5  316.47   10.60
  -6  -6   5  311.17   18.70
  -6  -6   5  287.17   16.40
   5   6  -5  638.64   26.00
   5   6  -5  652.03   26.40
   5   6  -5  661.53   26.10
  -5  -6   5  668.03   27.50
  -5  -6   5  659.73   26.60
   4   6  -5  665.33   26.40
  -4  -6   5  708.53   27.40
  -4  -6   5  736.93   26.90
   3   6  -5 1030.60   29.30
   3   6  -5 1054.89   35.10
  -3  -6   5 1080.89   36.50
  -3  -6   5 1063.59   33.30
  -3  -6   5 1071.59   29.40
   2   6  -5  605.44   22.90
   2   6  -5  575.44   23.00
   2   6  -5  623.84   19.70
  -2  -6   5  635.34   19.70
  -2  -6   5  601.34   22.60
  -2  -6   5  590.14   29.20
  -2  -6   5  650.73   19.70
   1   6  -5  397.46   17.00
   1   6  -5  408.36   17.20
   1   6  -5  388.06   15.00
   1   6  -5  397.56   17.80
  -1  -6   5  382.46   14.60
  -1  -6   5  406.66   18.90
  -1  -6   5  394.66   16.40
   0   6  -5  559.94   21.20
   0   6  -5  576.44   22.70
   0   6  -5  540.15   20.00
   0  -6   5  596.84   20.10
   0  -6   5  585.24   20.80
   0  -6   5  545.25   23.70
  -1   6  -5   94.89    7.00
  -1   6  -5   77.49    6.40
  -1   6  -5   78.29    7.20
  -1   6  -5   89.29    6.90
   1  -6   5   77.39    6.10
   1  -6   5   82.39    6.40
  -2   6  -5   86.79    7.60
  -2   6  -5   76.39    6.30
  -2   6  -5   81.79    6.80
  -2   6  -5   86.19    6.50
   2  -6   5   82.19    6.70
   2  -6   5   80.59    6.10
  -3   6  -5   19.50    3.80
  -3   6  -5   25.20    4.20
  -3   6  -5   25.20    3.60
   3  -6   5   17.00    3.30
   3  -6   5   15.50    3.30
  -4   6  -5   29.90    3.80
  -4   6  -5   32.70    5.10
  -4   6  -5   34.30    5.00
   4  -6   5   39.10    5.20
   4  -6   5   32.40    4.20
  -5   6  -5  131.19    9.70
  -5   6  -5  133.69   13.50
  -5   6  -5  121.39    9.90
  -5   6  -5  123.29    6.90
   5  -6   5  118.09    7.80
   5  -6   5  121.39    9.50
   7   5  -5  319.37   18.00
   7   5  -5  322.87   17.60
   7   5  -5  303.57   16.00
  -7  -5   5  335.57   17.10
  -7  -5   5  326.27   18.20
  -7  -5   5  300.67   20.20
   6   5  -5  255.67   15.20
   6   5  -5  250.17   14.90
   6   5  -5  258.87   14.00
  -6  -5   5  254.67   14.20
  -6  -5   5  247.98   16.70
   5   5  -5   75.49    7.50
   5   5  -5   91.79    8.00
   5   5  -5   78.29    7.10
  -5  -5   5   71.69    7.90
  -5  -5   5   82.09    4.70
  -5  -5   5   84.49    8.00
   4   5  -5   27.50    4.00
   4   5  -5   36.80    4.90
   4   5  -5   38.80    5.00
  -4  -5   5   34.30    4.90
  -4  -5   5   43.00    7.30
   3   5  -5    3.10    1.60
   3   5  -5    1.70    1.20
  -3  -5   5    0.30    1.10
  -3  -5   5    0.20    0.40
  -3  -5   5    1.20    1.00
   2   5  -5   37.70    3.10
   2   5  -5   30.70    4.10
   2   5  -5   28.90    3.80
  -2  -5   5   34.30    4.50
  -2  -5   5   28.80    2.80
  -2  -5   5   37.80    3.70
  -2  -5   5   28.80    3.70
   1   5  -5    3.30    1.60
   1   5  -5    3.50    1.10
   1   5  -5    2.30    1.20
  -1  -5   5    5.60    1.40
  -1  -5   5    4.30    1.60
  -1  -5   5    3.00    1.10
  -1  -5   5    2.60    1.20
   0   5  -5  457.75   18.10
   0   5  -5  461.55   18.70
   0   5  -5  488.45   17.30
   0   5  -5  477.85   17.70
   0  -5   5  483.65   17.30
   0  -5   5  496.95   17.00
   0  -5   5  496.75   20.90
  -1   5  -5    2.10    1.20
  -1   5  -5    2.10    1.30
  -1   5  -5    2.30    1.30
  -1   5  -5    2.70    1.10
   1  -5   5    3.40    1.60
   1  -5   5    3.20    1.40
  -2   5  -5  383.86   14.70
  -2   5  -5  416.86   17.10
  -2   5  -5  380.66   15.40
  -2   5  -5  377.46   16.10
   2  -5   5  365.46   15.40
   2  -5   5  394.86   14.60
  -3   5  -5   30.40    4.30
  -3   5  -5   29.90    3.70
   3  -5   5   33.30    4.30
   3  -5   5   29.50    3.40
  -4   5  -5  165.48   13.50
  -4   5  -5  152.08    8.30
  -4   5  -5  151.98    9.60
   4  -5   5  149.39    8.00
   4  -5   5  159.48    9.90
  -5   5  -5   48.50    5.90
  -5   5  -5   58.49    5.70
  -5   5  -5   67.29    9.10
  -5   5  -5   42.30    4.20
   5  -5   5   53.09    4.80
   5  -5   5   54.79    6.10
  -6   5  -5   21.20    4.10
  -6   5  -5   22.40    6.00
  -6   5  -5   10.90    3.30
  -6   5  -5   17.50    2.60
   6  -5   5   11.50    3.40
   6  -5   5   19.70    3.20
   8   4  -5  927.91   36.30
   8   4  -5  956.70   42.90
   8   4  -5  895.01   32.10
  -8  -4   5  933.31   33.10
  -8  -4   5  942.61   42.30
  -8  -4   5  930.41   37.80
   7   4  -5  364.06   16.60
   7   4  -5  335.17   18.20
   7   4  -5  340.67   18.10
  -7  -4   5  335.57   16.30
  -7  -4   5  323.67   18.40
  -7  -4   5  326.57   21.20
   6   4  -5 1366.76   44.10
   6   4  -5 1289.67   41.40
   6   4  -5 1352.66   49.90
  -6  -4   5 1352.76   42.00
  -6  -4   5 1388.06   45.00
  -6  -4   5 1334.77   48.20
   5   4  -5 1016.80   35.50
   5   4  -5 1069.89   43.00
   5   4  -5 1076.49   34.20
  -5  -4   5 1120.69   39.00
  -5  -4   5 1010.20   35.70
  -5  -4   5 1025.20   27.60
   4   4  -5 1435.36   44.30
   4   4  -5 1429.76   43.40
  -4  -4   5 1426.56   44.40
  -4  -4   5 1412.56   45.50
  -4  -4   5 1438.06   38.50
   3   4  -5 2016.80   51.29
   3   4  -5 2094.39   57.29
   3   4  -5 2073.89   58.69
   3   4  -5 2045.50   57.09
  -3  -4   5 1997.80   58.59
  -3  -4   5 2087.59   58.39
  -3  -4   5 2060.89   50.89
   2   4  -5  571.54   20.10
   2   4  -5  564.94   20.50
  -2  -4   5  581.64   16.80
  -2  -4   5  550.24   21.60
  -2  -4   5  568.74   19.70
   1   4  -5 1883.51   52.29
   1   4  -5 1872.41   49.30
   1   4  -5 1870.01   51.29
   1   4  -5 1877.01   46.90
  -1  -4   5 1882.91   49.30
  -1  -4   5 1948.31   54.79
  -1  -4   5 1906.81   49.20
  -1  -4   5 1890.31   50.99
   0   4  -5   98.49    6.00
   0   4  -5   92.89    6.40
   0   4  -5   87.69    4.80
   0   4  -5   95.49    5.70
   0  -4   5   90.99    5.60
   0  -4   5   91.99    7.50
   0  -4   5   93.79    5.60
  -1   4  -5 1460.55   40.90
  -1   4  -5 1521.65   42.60
  -1   4  -5 1540.25   42.20
  -1   4  -5 1476.55   40.80
  -1   4  -5 1463.75   41.50
   1  -4   5 1449.65   39.90
   1  -4   5 1471.55   41.10
  -2   4  -5  650.73   22.60
  -2   4  -5  707.23   23.50
  -2   4  -5  657.93   22.80
  -2   4  -5  701.23   22.30
  -2   4  -5  647.34   20.60
   2  -4   5  671.33   22.40
   2  -4   5  671.43   20.30
  -3   4  -5  226.68   10.20
  -3   4  -5  221.58   12.20
  -3   4  -5  201.68   10.50
  -3   4  -5  224.48   11.40
   3  -4   5  210.18    8.80
   3  -4   5  227.38   11.10
  -4   4  -5 1148.59   42.20
  -4   4  -5 1187.08   35.50
  -4   4  -5 1192.58   34.20
   4  -4   5 1191.88   33.00
   4  -4   5 1166.18   36.50
  -5   4  -5   11.60    2.20
  -5   4  -5    5.30    2.10
  -5   4  -5    5.70    3.10
  -5   4  -5    7.10    2.10
   5  -4   5   10.90    2.90
   5  -4   5   10.50    2.10
  -6   4  -5  959.00   27.70
  -6   4  -5  932.41   29.30
  -6   4  -5  927.61   39.40
   6  -4   5  974.70   29.00
   6  -4   5  976.10   33.10
  -7   4  -5   83.49   10.90
   7  -4   5   86.19    6.20
   7  -4   5  100.29    9.00
   8   3  -5  350.56   20.10
   8   3  -5  365.86   16.30
   8   3  -5  353.86   19.50
  -8  -3   5  386.16   17.40
  -8  -3   5  354.26   24.20
  -8  -3   5  349.47   23.80
   7   3  -5   29.90    4.80
   7   3  -5   20.70    4.80
   7   3  -5   14.10    3.60
  -7  -3   5   25.00    4.10
  -7  -3   5   27.60    4.80
  -7  -3   5   20.50    5.50
   6   3  -5  148.79   10.70
   6   3  -5  146.89   12.90
   6   3  -5  145.59    9.20
  -6  -3   5  158.68   11.40
  -6  -3   5  158.08    9.50
  -6  -3   5  161.18   13.40
   5   3  -5   22.90    3.50
   5   3  -5   17.90    3.40
   5   3  -5   34.40    4.80
  -5  -3   5   21.10    3.40
  -5  -3   5   28.50    4.60
  -5  -3   5   22.20    4.80
   4   3  -5   38.50    4.30
   4   3  -5   46.60    4.90
   4   3  -5   59.29    5.90
  -4  -3   5   40.50    5.60
  -4  -3   5   42.90    5.20
  -4  -3   5   40.90    2.80
   3   3  -5  250.57   11.70
   3   3  -5  240.68   12.50
   3   3  -5  247.98   11.50
  -3  -3   5  247.48   12.80
  -3  -3   5  240.28    9.50
  -3  -3   5  236.98   12.30
  -3  -3   5  247.58    7.20
   2   3  -5  377.66   14.50
   2   3  -5  384.86   14.90
   2   3  -5  368.06   15.90
  -2  -3   5  385.26   11.60
  -2  -3   5  384.96   16.20
   1   3  -5  645.54   20.40
   1   3  -5  684.13   18.20
   1   3  -5  617.94   21.10
  -1  -3   5  630.04   18.70
  -1  -3   5  609.54   22.50
   0   3  -5  149.59    7.00
   0   3  -5  141.79    7.70
   0   3  -5  150.88    6.50
   0  -3   5  137.09    6.50
   0  -3   5  158.78    6.90
   0  -3   5  132.49    8.60
  -1   3  -5 1312.17   38.60
  -1   3  -5 1388.26   38.30
  -1   3  -5 1411.96   39.00
  -1   3  -5 1400.56   38.10
  -1   3  -5 1380.56   36.80
   1  -3   5 1376.96   37.90
   1  -3   5 1403.36   36.30
  -2   3  -5   32.50    3.30
  -2   3  -5   28.80    3.50
  -2   3  -5   30.30    2.50
  -2   3  -5   35.20    3.60
   2  -3   5   29.80    2.70
   2  -3   5   26.00    3.10
   2  -3   5   31.20    3.20
   2  -3   5   27.10    2.60
  -3   3  -5  509.35   19.80
  -3   3  -5  499.95   17.20
  -3   3  -5  488.65   18.20
  -3   3  -5  473.45   16.90
   3  -3   5  484.25   16.60
   3  -3   5  508.25   17.30
   3  -3   5  513.55   18.20
  -4   3  -5   85.19    5.60
  -4   3  -5   91.49    8.00
  -4   3  -5   94.39    8.90
  -4   3  -5  104.49    6.20
  -4   3  -5   79.09    6.50
   4  -3   5  101.19    6.90
   4  -3   5   90.79    6.60
   4  -3   5   88.59    4.70
   4  -3   5  103.19    5.90
  -5   3  -5   42.70    3.80
  -5   3  -5   43.00    4.00
  -5   3  -5   44.70    6.80
  -5   3  -5   37.70    6.00
   5  -3   5   41.50    3.60
   5  -3   5   36.80    4.70
   5  -3   5   43.70    3.50
  -6   3  -5  167.48   13.80
  -6   3  -5  155.98    8.00
   6  -3   5  172.38    8.10
   6  -3   5  167.08   10.50
  -7   3  -5   27.20    6.10
   7  -3   5   33.10    4.10
   7  -3   5   29.70    5.00
   8   2  -5   96.59   10.30
   8   2  -5   74.79    8.60
   8   2  -5  106.19    7.30
  -8  -2   5   86.59   10.50
  -8  -2   5   98.79    7.60
  -8  -2   5  115.49   13.30
   7   2  -5 1467.15   50.09
   7   2  -5 1483.75   48.60
  -7  -2   5 1517.05   44.20
  -7  -2   5 1522.35   51.09
  -7  -2   5 1546.25   56.29
   6   2  -5  105.49    8.60
   6   2  -5  105.19    7.10
  -6  -2   5  103.59    7.00
  -6  -2   5  111.79    9.20
  -6  -2   5   98.19   10.70
   5   2  -5 1667.93   49.99
   5   2  -5 1708.33   47.40
   5   2  -5 1672.13   51.29
  -5  -2   5 1707.73   46.90
  -5  -2   5 1696.23   51.69
  -5  -2   5 1679.33   55.19
   4   2  -5   40.80    4.10
   4   2  -5   38.10    4.40
   4   2  -5   40.20    4.80
  -4  -2   5   27.30    4.30
  -4  -2   5   33.50    5.00
  -4  -2   5   35.30    2.40
   3   2  -5 1661.13   48.80
   3   2  -5 1728.33   47.50
   3   2  -5 1673.53   46.50
  -3  -2   5 1756.32   49.40
  -3  -2   5 1672.43   43.80
  -3  -2   5 1686.53   41.30
   2   2  -5  434.86   15.80
   2   2  -5  450.85   17.40
   2   2  -5  437.36   15.70
  -2  -2   5  445.06   12.70
  -2  -2   5  443.26   14.50
  -2  -2   5  444.16   17.40
   1   2  -5  826.82   24.40
   1   2  -5  814.42   26.80
   1   2  -5  843.42   25.60
  -1  -2   5  877.11   25.10
  -1  -2   5  839.72   27.10
  -1  -2   5  848.02   23.00
   0   2  -5  666.53   21.10
   0   2  -5  683.03   19.80
   0   2  -5  661.83   19.30
   0  -2   5  633.84   20.60
   0  -2   5  694.33   22.90
   0  -2   5  666.13   19.50
  -1   2  -5    7.00    1.30
  -1   2  -5    7.60    1.70
  -1   2  -5    7.80    1.60
   1  -2   5    8.20    1.70
   1  -2   5    9.30    1.70
  -2   2  -5  786.32   24.20
  -2   2  -5  831.72   23.30
  -2   2  -5  816.72   25.40
   2  -2   5  784.62   23.90
   2  -2   5  810.72   20.50
   2  -2   5  797.62   24.20
   2  -2   5  770.32   23.80
  -3   2  -5  252.47   10.50
  -3   2  -5  252.27    9.60
  -3   2  -5  244.58   12.20
   3  -2   5  233.68   11.10
   3  -2   5  260.87   11.00
   3  -2   5  258.57   10.30
  -4   2  -5   90.29    4.80
  -4   2  -5   72.09    7.40
  -4   2  -5   93.59    9.40
  -4   2  -5   89.19    5.70
   4  -2   5   92.59    6.30
   4  -2   5   93.29    5.50
   4  -2   5   87.99    3.90
  -5   2  -5  572.54   24.70
  -5   2  -5  567.84   25.20
  -5   2  -5  569.34   17.30
  -5   2  -5  608.74   19.70
   5  -2   5  604.04   21.30
   5  -2   5  603.94   19.00
   5  -2   5  586.74   17.40
   5  -2   5  573.44   22.20
  -6   2  -5    0.20    1.60
  -6   2  -5   -0.50    1.10
   6  -2   5    3.20    1.80
   6  -2   5    4.30    1.90
   6  -2   5    7.20    1.80
  -7   2  -5  407.46   23.20
   7  -2   5  397.86   13.80
   7  -2   5  396.46   14.60
   7  -2   5  384.06   18.20
   7  -2   5  420.66   14.40
   7  -2   5  402.96   17.80
  -8   2  -5   13.30    4.90
   8  -2   5   12.30    3.80
   8  -2   5   10.90    2.50
   8  -2   5    6.80    3.30
   8  -2   5    7.10    2.00
   8   1  -5   15.50    4.00
   8   1  -5   16.30    4.60
   8   1  -5   27.50    3.10
  -8  -1   5   26.30    6.60
  -8  -1   5   24.90    6.30
  -8  -1   5   19.50    3.50
   7   1  -5   41.10    4.20
   7   1  -5   44.70    6.40
  -7  -1   5   46.00    7.00
  -7  -1   5   43.20    7.70
  -7  -1   5   44.30    4.40
   6   1  -5    7.40    2.40
   6   1  -5   11.20    2.70
  -6  -1   5   13.70    2.50
  -6  -1   5   17.30    6.10
   5   1  -5  143.09    7.60
   5   1  -5  129.29    9.70
  -5  -1   5  123.89    9.70
  -5  -1   5  138.49    7.00
  -5  -1   5  151.78   12.00
   4   1  -5  302.27   11.90
   4   1  -5  269.47   14.00
   4   1  -5  294.27   13.60
  -4  -1   5  293.57    9.40
  -4  -1   5  309.57   11.00
  -4  -1   5  294.07    8.30
  -4  -1   5  263.47   15.60
  -4  -1   5  270.67   14.10
   3   1  -5  476.25   17.50
   3   1  -5  467.85   16.30
   3   1  -5  475.55   18.80
  -3  -1   5  489.75   14.70
  -3  -1   5  483.75   18.80
  -3  -1   5  487.75   13.30
   2   1  -5  620.74   19.00
   2   1  -5  585.64   20.70
  -2  -1   5  533.65   20.10
  -2  -1   5  596.54   17.70
   1   1  -5  336.37   13.60
  -1  -1   5  311.07   11.50
  -1  -1   5  332.57   12.10
   0   1  -5  687.33   19.40
   0   1  -5  697.23   22.60
   0   1  -5  679.53   21.10
   0  -1   5  704.33   22.60
   0  -1   5  701.63   21.30
   0  -1   5  708.73   21.20
   0  -1   5  683.23   19.80
  -1   1  -5    0.10    0.70
  -1   1  -5    4.40    1.10
  -1   1  -5    0.80    0.50
   1  -1   5    0.70    0.70
   1  -1   5    1.80    0.90
   1  -1   5    2.70    1.00
   1  -1   5    2.60    0.90
  -2   1  -5  661.13   21.90
  -2   1  -5  712.03   21.20
   2  -1   5  671.43   20.80
   2  -1   5  689.93   22.00
   2  -1   5  652.73   20.60
  -3   1  -5   63.09    5.70
  -3   1  -5   58.79    3.20
  -3   1  -5   62.69    5.40
  -3   1  -5   57.29    4.40
   3  -1   5   69.39    4.60
   3  -1   5   53.29    5.00
   3  -1   5   55.99    4.80
   3  -1   5   65.19    4.70
  -4   1  -5    6.60    1.60
  -4   1  -5    5.10    1.00
  -4   1  -5    7.50    2.80
  -4   1  -5    6.10    2.70
   4  -1   5    3.20    1.40
   4  -1   5    3.50    1.30
   4  -1   5    6.80    1.70
  -5   1  -5  394.76   19.00
  -5   1  -5  382.36   18.40
  -5   1  -5  374.06   14.40
   5  -1   5  379.36   11.40
   5  -1   5  370.76   11.70
   5  -1   5  376.56   13.80
   5  -1   5  374.16   15.80
   5  -1   5  367.56   15.10
  -6   1  -5  142.59   11.70
  -6   1  -5  150.48   11.90
   6  -1   5  157.18    7.90
   6  -1   5  142.79    9.10
   6  -1   5  159.08    9.20
   6  -1   5  161.28    7.10
   6  -1   5  161.08    6.80
  -7   1  -5  362.36   20.80
  -7   1  -5  363.86   20.90
   7  -1   5  335.37   13.10
   7  -1   5  371.76   16.20
   7  -1   5  361.66   13.40
   7  -1   5  341.47   12.80
   7  -1   5  367.36   20.00
  -8   1  -5  433.56   24.50
   8  -1   5  407.66   18.20
   8  -1   5  407.76   14.60
   8  -1   5  441.16   15.80
   8  -1   5  412.06   22.60
   8  -1   5  414.36   18.40
   8  -1   5  399.66   15.50
   8   0  -5  407.16   14.10
   8   0  -5  438.26   23.70
  -8   0   5  401.86   26.60
   7   0  -5   64.59    4.60
   7   0  -5   64.09    8.10
  -7   0   5   72.49    9.70
  -7   0   5   63.09    8.20
  -7   0   5   57.89    3.60
   6   0  -5  846.92   25.10
   6   0  -5  820.42   32.00
  -6   0   5  853.61   24.80
  -6   0   5  843.62   22.80
  -6   0   5  775.22   35.10
   5   0  -5    5.40    2.20
   5   0  -5    6.00    1.00
   5   0  -5    9.10    2.00
  -5   0   5   10.10    1.40
  -5   0   5    7.90    3.70
  -5   0   5   11.30    1.40
  -5   0   5    5.50    2.00
   4   0  -5  385.96   12.00
   4   0  -5  361.56   13.20
   4   0  -5  392.66   17.30
   4   0  -5  375.56   15.60
  -4   0   5  378.76   11.60
  -4   0   5  374.66   11.90
  -4   0   5  364.76   17.00
   3   0  -5  980.80   30.40
   3   0  -5 1033.50   29.20
   3   0  -5 1069.69   28.20
   3   0  -5 1008.30   32.70
  -3   0   5 1039.60   28.20
  -3   0   5 1022.10   27.20
  -3   0   5 1061.89   33.10
   2   0  -5   72.79    4.70
   2   0  -5   74.69    4.70
   2   0  -5   75.89    4.40
   2   0  -5   72.89    5.80
  -2   0   5   72.69    4.60
  -2   0   5   76.09    5.90
  -2   0   5   77.19    4.40
   1   0  -5 2268.47   59.49
   1   0  -5 2360.66   61.49
   1   0  -5 2330.97   59.39
  -1   0   5 2332.67   59.49
  -1   0   5 2355.36   59.29
  -1   0   5 2256.47   60.99
   0   0  -5  340.77   12.10
   0   0  -5  331.57   12.80
   0   0  -5  338.47   12.20
   0   0   5  336.27   12.00
   0   0   5  337.37   12.70
   0   0   5  333.27   12.00
  -1   0  -5 2437.46   63.09
  -1   0  -5 2408.86   62.49
   1   0   5 2425.56   63.29
   1   0   5 2369.86   62.39
   1   0   5 2545.85   63.19
  -2   0  -5 2146.09   55.19
  -2   0  -5 1991.20   55.39
  -2   0  -5 2018.90   54.19
   2   0   5 2243.48   58.19
   2   0   5 2001.70   54.09
  -3   0  -5 1836.82   49.70
  -3   0  -5 1946.11   52.29
  -3   0  -5 1857.41   51.69
   3   0   5 1857.31   50.39
   3   0   5 1824.82   52.29
   3   0   5 1825.72   49.30
   3   0   5 1874.71   49.50
  -4   0  -5 1548.35   42.90
  -4   0  -5 1504.35   46.20
  -4   0  -5 1471.95   45.80
   4   0   5 1544.25   42.90
   4   0   5 1693.23   44.30
   4   0   5 1561.54   42.50
  -5   0  -5  490.25   21.40
  -5   0  -5  533.15   22.10
  -5   0  -5  535.65   18.50
   5   0   5  500.35   18.20
   5   0   5  513.45   14.90
   5   0   5  507.85   18.90
   5   0   5  510.05   17.60
  -6   0  -5  853.21   32.80
  -6   0  -5  796.82   32.20
   6   0   5  858.61   28.40
   6   0   5  885.71   26.80
   6   0   5  879.01   24.60
   6   0   5  904.61   28.20
  -7   0  -5  207.98   15.10
  -7   0  -5  205.68   14.70
   7   0   5  222.88   11.50
   7   0   5  204.28   13.60
   7   0   5  211.88    9.30
   7   0   5  212.18   11.10
   7   0   5  213.58    9.90
  -8   0  -5  186.78   15.30
  -8   0  -5  209.08   15.90
   8   0   5  188.68    9.40
   8   0   5  191.68    9.30
   8   0   5  182.88   10.60
   8   0   5  187.98   13.40
   8   0   5  179.78   10.70
  -8   1   5   26.20    2.90
  -8   1   5   15.10    5.90
   7  -1  -5    5.90    3.20
   7  -1  -5   14.00    1.90
  -7   1   5   17.80    6.80
  -7   1   5   12.30    2.20
   6  -1  -5  260.17   16.00
   6  -1  -5  269.37    9.20
   6  -1  -5  254.77    9.70
  -6   1   5  269.27   10.30
  -6   1   5  257.57   18.50
   5  -1  -5   29.40    2.60
   5  -1  -5   34.80    5.30
   5  -1  -5   31.40    2.80
  -5   1   5   41.40    5.70
  -5   1   5   32.40    5.70
  -5   1   5   26.40    2.70
   4  -1  -5  401.16   16.00
   4  -1  -5  377.26   17.70
   4  -1  -5  396.66   13.10
   4  -1  -5  398.46   13.10
  -4   1   5  368.06   12.70
  -4   1   5  364.36   17.40
   3  -1  -5  148.69    6.80
   3  -1  -5  150.98    9.40
   3  -1  -5  155.18    7.00
   3  -1  -5  154.08    7.90
  -3   1   5  154.68    9.40
  -3   1   5  147.79    7.10
  -3   1   5  150.68    6.60
   2  -1  -5  750.32   24.60
   2  -1  -5  756.12   22.00
   2  -1  -5  673.73   21.40
   2  -1  -5  765.02   21.80
  -2   1   5  764.92   22.80
  -2   1   5  750.22   24.60
  -2   1   5  760.92   21.10
  -2   1   5  728.23   22.00
   1  -1  -5  324.97   13.10
   1  -1  -5  330.27   11.70
   1  -1  -5  328.57   11.80
  -1   1   5  338.17    9.60
  -1   1   5  332.97   11.90
  -1   1   5  338.87   13.10
  -1   1   5  326.17   11.80
   0  -1  -5   33.40    3.20
   0  -1  -5   33.00    3.10
   0  -1  -5   32.10    3.00
   0   1   5   30.60    3.10
   0   1   5   30.40    2.90
   0   1   5   30.20    2.60
   0   1   5   34.20    3.10
  -1  -1  -5  602.34   17.20
  -1  -1  -5  608.44   17.10
  -1  -1  -5  625.34   19.00
  -1  -1  -5  601.84   18.90
  -1  -1  -5  635.74   19.50
   1   1   5  601.94   18.90
   1   1   5  590.14   18.60
   1   1   5  611.24   19.20
  -2  -1  -5  699.43   22.50
  -2  -1  -5  664.63   21.60
  -2  -1  -5  699.63   18.30
  -2  -1  -5  702.93   20.90
  -2  -1  -5  690.63   21.60
   2   1   5  704.23   21.00
   2   1   5  684.93   21.30
   2   1   5  708.63   21.70
  -3  -1  -5  412.36   15.10
  -3  -1  -5  413.16   14.90
  -3  -1  -5  406.56   15.60
  -3  -1  -5  415.46   15.40
  -3  -1  -5  421.86   16.30
   3   1   5  403.36   11.50
   3   1   5  412.46   14.70
   3   1   5  414.16   15.00
  -4  -1  -5 1721.53   49.20
  -4  -1  -5 1638.44   48.50
  -4  -1  -5 1654.63   49.50
  -4  -1  -5 1745.13   47.20
   4   1   5 1721.53   43.00
   4   1   5 1759.72   46.60
   4   1   5 1733.73   46.70
   4   1   5 1704.43   47.00
  -5  -1  -5   12.80    3.20
  -5  -1  -5   11.20    3.40
   5   1   5   13.20    2.40
   5   1   5   19.30    2.80
   5   1   5   12.80    2.40
   5   1   5   14.20    1.80
  -6  -1  -5 2379.66   70.99
  -6  -1  -5 2285.07   70.89
   6   1   5 2612.94   65.69
   6   1   5 2378.86   65.59
   6   1   5 2494.75   65.59
   6   1   5 2531.65   63.79
  -7  -1  -5  203.48   14.40
  -7  -1  -5  190.38   14.00
   7   1   5  220.88   10.60
   7   1   5  201.28   12.50
   7   1   5  186.88   10.20
   7   1   5  206.08   10.70
   7   1   5  197.88    9.30
  -8  -1  -5 1551.34   56.69
  -8  -1  -5 1682.63   57.19
   8   1   5 1721.73   47.30
   8   1   5 1682.83   46.70
   8   1   5 1742.73   53.39
   8   1   5 1555.74   47.40
   8   1   5 1641.34   48.20
   7  -2  -5  272.17   18.10
   7  -2  -5  258.97   10.10
  -7   2   5  283.37   21.80
  -7   2   5  250.87   11.30
   6  -2  -5   86.79    5.40
   6  -2  -5   93.29    9.30
  -6   2   5   90.09    5.80
  -6   2   5   77.09   10.00
   5  -2  -5  612.34   17.80
   5  -2  -5  617.24   20.20
   5  -2  -5  640.74   36.60
  -5   2   5  618.14   29.20
  -5   2   5  643.34   20.30
  -5   2   5  626.74   24.50
   4  -2  -5    4.50    1.10
   4  -2  -5    5.00    2.30
   4  -2  -5    5.60    1.60
   4  -2  -5    1.90    1.30
  -4   2   5    4.70    2.10
  -4   2   5    2.90    1.10
   3  -2  -5  347.17   13.60
   3  -2  -5  367.56   16.50
   3  -2  -5  351.96   13.30
   3  -2  -5  377.16   12.10
  -3   2   5  349.07   12.70
  -3   2   5  360.26   11.90
  -3   2   5  343.17   15.90
  -3   2   5  355.26   13.90
   2  -2  -5 1019.90   31.60
   2  -2  -5  994.70   27.70
   2  -2  -5  966.20   28.90
   2  -2  -5  985.50   27.60
  -2   2   5  957.20   30.90
  -2   2   5 1020.50   28.10
  -2   2   5 1000.90   29.10
  -2   2   5 1037.70   27.70
   1  -2  -5  348.37   12.00
   1  -2  -5  337.47   12.70
   1  -2  -5  350.96   13.60
  -1   2   5  343.37   13.40
  -1   2   5  316.27   13.60
  -1   2   5  354.36   11.80
  -1   2   5  342.67   12.70
   0  -2  -5 2090.79   54.09
   0  -2  -5 2132.89   54.99
   0  -2  -5 2178.58   54.79
   0   2   5 2068.19   54.29
   0   2   5 2001.60   51.69
   0   2   5 2046.40   53.99
   0   2   5 2115.09   54.99
  -1  -2  -5    6.90    1.40
  -1  -2  -5    4.10    1.30
  -1  -2  -5    2.70    0.90
  -1  -2  -5    3.90    1.10
  -1  -2  -5    4.00    1.20
   1   2   5    3.40    1.10
   1   2   5    3.20    1.20
   1   2   5    2.30    1.10
  -2  -2  -5 2603.04   69.49
  -2  -2  -5 2760.42   69.59
  -2  -2  -5 2612.64   69.49
  -2  -2  -5 2905.31   67.89
  -2  -2  -5 2752.42   68.09
   2   2   5 2696.03   67.39
   2   2   5 2632.04   69.49
   2   2   5 2703.13   67.79
   2   2   5 2650.23   69.39
  -3  -2  -5  147.49    8.10
  -3  -2  -5  142.69    8.40
  -3  -2  -5  159.18    7.90
  -3  -2  -5  127.09    7.10
   3   2   5  149.88    7.70
   3   2   5  152.78    7.80
   3   2   5  139.69    6.10
   3   2   5  143.89    7.60
  -4  -2  -5 1662.63   48.70
  -4  -2  -5 1810.32   50.99
  -4  -2  -5 1873.91   50.89
  -4  -2  -5 1903.61   52.19
  -4  -2  -5 1810.32   49.99
   4   2   5 1814.22   49.50
   4   2   5 1756.92   48.90
   4   2   5 1790.42   46.60
  -5  -2  -5    5.20    2.40
  -5  -2  -5   10.60    3.20
   5   2   5    5.20    1.80
   5   2   5    2.90    1.20
   5   2   5    2.50    1.10
   5   2   5    5.10    1.60
  -6  -2  -5  440.66   20.50
  -6  -2  -5  442.56   20.90
  -6  -2  -5  472.85   20.30
   6   2   5  477.35   17.50
   6   2   5  458.05   18.30
   6   2   5  469.25   17.90
   6   2   5  474.15   17.30
   6   2   5  483.25   16.20
  -7  -2  -5   40.00    6.20
  -7  -2  -5   36.50    5.60
  -7  -2  -5   53.29    7.10
   7   2   5   45.20    5.40
   7   2   5   36.00    4.10
   7   2   5   52.59    4.70
   7   2   5   50.59    4.90
   7   2   5   49.70    4.60
  -8  -2  -5  124.99   11.70
  -8  -2  -5  109.99   11.20
   8   2   5  121.69    8.10
   8   2   5  118.69    8.20
   8   2   5  119.39    7.80
   8   2   5  123.09    9.10
   8   2   5  114.49    7.60
  -9  -2  -5  260.77   18.60
  -9  -2  -5  226.28   17.80
   9   2   5  233.48   12.40
   9   2   5  253.77   12.50
   9   2   5  224.18   11.50
   9   2   5  242.38   12.50
   9   2   5  243.88   14.90
   7  -3  -5  425.86   16.30
   7  -3  -5  424.56   24.00
  -7   3   5  417.66   16.90
  -7   3   5  444.86   27.30
  -7   3   5  439.76   22.90
   6  -3  -5   71.69    8.70
   6  -3  -5   76.39    5.80
  -6   3   5   77.79   10.00
  -6   3   5   73.39    5.90
  -6   3   5   90.19    8.90
   5  -3  -5  845.52   27.20
   5  -3  -5  840.72   26.70
   5  -3  -5  820.02   32.70
  -5   3   5  872.71   30.90
  -5   3   5  802.82   26.30
   4  -3  -5   63.79    4.20
   4  -3  -5   64.89    5.40
   4  -3  -5   56.59    6.70
  -4   3   5   54.19    5.50
  -4   3   5   60.39    4.90
   3  -3  -5  569.64   19.80
   3  -3  -5  582.24   16.70
   3  -3  -5  523.25   21.90
  -3   3   5  534.65   16.30
  -3   3   5  549.05   19.30
  -3   3   5  550.54   22.20
  -3   3   5  574.54   18.80
   2  -3  -5   49.50    3.50
   2  -3  -5   53.69    5.40
   2  -3  -5   58.19    4.90
  -2   3   5   56.69    5.30
  -2   3   5   56.29    3.70
  -2   3   5   60.49    4.40
  -2   3   5   56.79    4.00
  -2   3   5   53.89    4.70
   1  -3  -5  324.47   11.80
   1  -3  -5  329.37   13.30
   1  -3  -5  352.96   14.00
  -1   3   5  326.67   13.20
  -1   3   5  318.47   13.30
  -1   3   5  350.36   12.50
  -1   3   5  340.57   10.40
  -1   3   5  334.97   13.60
  -1   3   5  357.16   13.30
   0  -3  -5  109.39    6.00
   0  -3  -5  110.09    6.10
   0  -3  -5  106.89    6.60
   0  -3  -5  101.89    6.30
   0   3   5  109.49    6.00
   0   3   5  105.89    6.60
   0   3   5  107.99    6.00
   0   3   5  117.89    8.10
  -1  -3  -5  184.28    7.70
  -1  -3  -5  185.28    9.00
  -1  -3  -5  183.78    8.60
  -1  -3  -5  199.78    7.70
  -1  -3  -5  191.08    8.80
   1   3   5  173.28    7.20
   1   3   5  183.58    8.60
   1   3   5  185.18    8.20
  -2  -3  -5  544.45   18.70
  -2  -3  -5  534.35   17.60
  -2  -3  -5  559.14   18.20
  -2  -3  -5  564.44   18.90
   2   3   5  534.25   16.40
   2   3   5  554.64   17.80
   2   3   5  569.74   15.60
   2   3   5  564.94   17.00
   2   3   5  551.34   18.70
  -3  -3  -5 1450.25   41.60
  -3  -3  -5 1443.26   39.30
  -3  -3  -5 1496.75   42.60
  -3  -3  -5 1470.05   41.80
  -3  -3  -5 1428.46   40.90
   3   3   5 1436.66   37.00
   3   3   5 1422.26   41.50
   3   3   5 1555.64   41.30
   3   3   5 1475.55   39.90
   3   3   5 1525.95   38.00
   3   3   5 1409.96   40.20
  -4  -3  -5  670.93   21.90
  -4  -3  -5  582.44   21.70
  -4  -3  -5  599.94   20.60
  -4  -3  -5  586.14   22.30
  -4  -3  -5  626.54   19.00
   4   3   5  617.04   20.00
   4   3   5  621.74   16.90
   4   3   5  621.64   20.70
   4   3   5  627.64   21.60
   4   3   5  623.24   21.60
  -5  -3  -5 1903.01   59.29
  -5  -3  -5 2072.19   58.39
  -5  -3  -5 1946.61   62.39
  -5  -3  -5 2160.28   55.69
   5   3   5 2061.29   54.29
   5   3   5 2056.89   53.49
   5   3   5 2078.69   55.39
   5   3   5 2014.20   56.59
  -6  -3  -5  245.48   14.20
  -6  -3  -5  230.08   13.40
  -6  -3  -5  224.08   13.40
   6   3   5  244.78   11.20
   6   3   5  232.38   10.70
   6   3   5  250.47   11.10
   6   3   5  231.78   10.60
   6   3   5  234.88   12.10
  -7  -3  -5 1727.13   57.19
  -7  -3  -5 1803.92   57.29
  -7  -3  -5 1792.92   56.09
   7   3   5 1725.43   50.29
   7   3   5 1858.71   52.89
   7   3   5 1816.12   50.99
   7   3   5 1849.81   50.79
   7   3   5 1944.41   51.89
  -8  -3  -5   94.09   10.10
  -8  -3  -5  106.79    9.90
   8   3   5   92.89    6.70
   8   3   5   83.99    7.20
   8   3   5   85.19    6.90
   8   3   5  108.79    8.10
   8   3   5   97.29    6.90
  -9  -3  -5  824.92   37.40
  -9  -3  -5  922.21   35.90
   9   3   5  836.72   27.30
   9   3   5  896.51   29.00
   9   3   5  880.51   30.20
   9   3   5  814.02   30.50
   9   3   5  853.01   29.80
   6  -4  -5    7.50    2.60
   6  -4  -5    5.90    2.50
   6  -4  -5   15.60    5.00
  -6   4   5    8.20    4.80
  -6   4   5   15.60    4.10
   5  -4  -5   96.39    7.20
   5  -4  -5   98.89    7.50
   5  -4  -5  101.99    9.90
  -5   4   5  108.19    7.50
  -5   4   5  101.89    8.80
   4  -4  -5   24.60    3.30
   4  -4  -5   19.60    4.30
   4  -4  -5   20.30    3.70
  -4   4   5   28.00    4.00
  -4   4   5   21.30    3.20
   3  -4  -5  413.46   17.50
   3  -4  -5  424.46   19.50
  -3   4   5  467.95   17.50
  -3   4   5  449.86   13.50
  -3   4   5  455.35   16.70
   2  -4  -5   22.70    3.50
   2  -4  -5   26.50    3.90
   2  -4  -5   20.70    2.30
   2  -4  -5   28.80    4.00
  -2   4   5   26.90    3.80
  -2   4   5   20.20    2.80
  -2   4   5   24.00    3.00
  -2   4   5   24.30    2.50
   1  -4  -5 1247.88   38.00
   1  -4  -5 1280.27   32.60
   1  -4  -5 1324.67   38.20
   1  -4  -5 1220.78   37.90
   1  -4  -5 1304.97   35.40
  -1   4   5 1294.17   38.00
  -1   4   5 1262.97   34.10
  -1   4   5 1330.27   38.60
  -1   4   5 1284.97   38.10
  -1   4   5 1276.87   36.20
  -1   4   5 1235.58   35.00
   0  -4  -5    7.10    1.80
   0  -4  -5   14.70    2.70
   0  -4  -5   12.10    1.60
   0  -4  -5   12.60    2.10
   0  -4  -5   14.70    2.60
   0   4   5    6.60    1.70
   0   4   5   10.20    2.20
   0   4   5   11.60    2.90
   0   4   5   10.30    2.00
   0   4   5    9.50    1.80
  -1  -4  -5  599.64   20.00
  -1  -4  -5  590.84   20.80
  -1  -4  -5  586.74   17.90
  -1  -4  -5  595.94   20.50
  -1  -4  -5  587.74   18.50
   1   4   5  602.34   20.50
   1   4   5  609.54   18.10
   1   4   5  605.84   20.10
   1   4   5  603.54   20.10
   1   4   5  590.94   20.50
  -2  -4  -5   70.19    5.00
  -2  -4  -5   63.49    5.20
  -2  -4  -5   77.79    5.50
  -2  -4  -5   63.69    3.10
   2   4   5   66.99    5.20
   2   4   5   65.39    4.10
   2   4   5   69.89    5.30
   2   4   5   66.99    4.80
   2   4   5   62.49    3.10
  -3  -4  -5   58.49    5.10
  -3  -4  -5   62.09    4.80
  -3  -4  -5   63.69    5.20
   3   4   5   71.69    5.00
   3   4   5   67.79    5.70
   3   4   5   62.79    5.00
   3   4   5   67.59    4.40
   3   4   5   75.79    5.50
  -4  -4  -5    1.80    1.40
  -4  -4  -5    0.50    0.80
  -4  -4  -5    2.80    1.30
  -4  -4  -5    1.60    1.00
   4   4   5    3.50    1.70
   4   4   5   -0.50    0.80
   4   4   5    1.90    1.00
   4   4   5    0.60    0.60
   4   4   5    7.50    1.60
  -5  -4  -5   55.99    5.00
  -5  -4  -5   54.29    5.70
  -5  -4  -5   57.59    4.70
  -5  -4  -5   61.29    6.30
   5   4   5   61.89    5.10
   5   4   5   67.29    4.00
   5   4   5   57.79    3.30
   5   4   5   71.89    5.60
   5   4   5   53.69    5.50
  -6  -4  -5  165.68   11.30
  -6  -4  -5  168.38   11.20
  -6  -4  -5  158.18    8.80
   6   4   5  173.58   10.50
   6   4   5  146.29    8.80
   6   4   5  152.48    7.10
   6   4   5  151.28    8.60
   6   4   5  163.68    6.40
  -7  -4  -5  303.07   16.80
  -7  -4  -5  301.77   17.30
   7   4   5  301.17   12.30
   7   4   5  310.67   13.20
   7   4   5  316.27   15.50
   7   4   5  312.47   14.20
   7   4   5  307.67   13.40
  -8  -4  -5  359.06   20.40
  -8  -4  -5  310.97   18.50
   8   4   5  357.66   14.70
   8   4   5  351.66   17.00
   8   4   5  328.07   14.10
   8   4   5  336.07   14.50
   8   4   5  358.76   16.10
  -9  -4  -5  265.07   17.50
  -9  -4  -5  278.37   19.10
   9   4   5  237.28   16.10
   9   4   5  253.67   11.80
   9   4   5  254.57   12.40
   9   4   5  286.37   13.80
   9   4   5  287.17   15.10
   6  -5  -5  216.18   12.20
   6  -5  -5  218.48   12.90
   6  -5  -5  231.18   17.00
   6  -5  -5  220.98   14.90
  -6   5   5  212.68   12.10
  -6   5   5  209.18   15.20
  -6   5   5  201.38   17.50
   5  -5  -5   35.90    4.80
   5  -5  -5   28.90    5.60
   5  -5  -5   24.60    6.30
   5  -5  -5   33.40    5.00
  -5   5   5   37.30    5.70
   4  -5  -5  286.87   13.50
   4  -5  -5  280.87   16.70
   4  -5  -5  289.67   15.70
   4  -5  -5  280.77   14.60
  -4   5   5  284.87   13.50
  -4   5   5  278.57   14.70
   3  -5  -5  123.19    9.00
   3  -5  -5  100.19    8.90
   3  -5  -5  121.29    7.80
   3  -5  -5  118.49    8.70
  -3   5   5  106.59    7.40
  -3   5   5  104.49    4.90
  -3   5   5  118.09    9.00
  -3   5   5  102.09    7.60
   2  -5  -5   34.70    4.60
   2  -5  -5   40.70    5.00
  -2   5   5   39.40    3.40
  -2   5   5   42.30    4.30
  -2   5   5   39.30    4.90
  -2   5   5   37.90    4.10
   1  -5  -5 1608.14   48.00
   1  -5  -5 1554.74   40.90
   1  -5  -5 1593.94   46.90
   1  -5  -5 1565.34   46.00
  -1   5   5 1602.84   43.00
  -1   5   5 1582.74   46.90
  -1   5   5 1515.25   42.60
  -1   5   5 1594.14   44.40
   0  -5  -5   66.29    4.30
   0  -5  -5   65.79    5.10
   0  -5  -5   60.19    5.80
   0   5   5   67.89    5.20
   0   5   5   66.59    5.10
   0   5   5   62.59    5.80
  -1  -5  -5 2971.50   79.79
  -1  -5  -5 3039.50   79.59
  -1  -5  -5 3104.39   76.79
  -1  -5  -5 3052.09   75.39
   1   5   5 2935.51   76.79
   1   5   5 3015.10   79.29
   1   5   5 2894.81   79.29
   1   5   5 2939.41   79.29
   1   5   5 2943.21   77.99
  -2  -5  -5 1204.88   37.20
  -2  -5  -5 1262.67   36.20
  -2  -5  -5 1279.47   37.90
  -2  -5  -5 1208.98   31.60
   2   5   5 1253.07   36.50
   2   5   5 1245.08   37.40
   2   5   5 1216.18   37.40
   2   5   5 1282.97   37.60
  -3  -5  -5 3585.84   91.79
  -3  -5  -5 3407.86   91.59
  -3  -5  -5 3582.24   91.59
   3   5   5 3536.15   92.69
   3   5   5 3555.74   91.59
   3   5   5 3517.45   91.99
   3   5   5 3560.04   90.29
   3   5   5 3465.15   90.09
  -4  -5  -5 2262.87   63.59
  -4  -5  -5 2543.65   64.49
  -4  -5  -5 2242.68   61.99
  -4  -5  -5 2268.97   61.69
   4   5   5 2238.28   63.69
   4   5   5 2317.67   62.59
   4   5   5 2170.88   62.19
   4   5   5 2287.17   60.39
   4   5   5 2186.38   61.69
  -5  -5  -5 1804.72   58.69
  -5  -5  -5 2091.99   59.69
  -5  -5  -5 2096.49   56.49
  -5  -5  -5 2113.59   56.69
   5   5   5 2067.49   54.39
   5   5   5 2074.09   56.69
   5   5   5 2056.69   57.29
   5   5   5 2075.39   59.29
  -6  -5  -5 1862.91   50.99
  -6  -5  -5 1856.71   51.19
  -6  -5  -5 1722.53   54.79
  -6  -5  -5 1845.42   55.19
   6   5   5 1739.93   53.69
   6   5   5 1788.42   52.09
   6   5   5 1772.12   50.69
   6   5   5 1823.32   48.10
  -7  -5  -5  703.13   29.10
  -7  -5  -5  756.22   24.50
  -7  -5  -5  727.03   29.30
   7   5   5  716.13   24.50
   7   5   5  723.53   20.80
   7   5   5  713.03   27.50
   7   5   5  683.23   21.40
   7   5   5  736.33   26.30
  -8  -5  -5  914.91   36.00
  -8  -5  -5  942.21   36.70
   8   5   5  874.61   25.30
   8   5   5  903.41   31.70
   8   5   5  902.71   29.20
   8   5   5  902.51   33.30
   8   5   5  947.11   27.30
   8   5   5  911.11   29.00
  -9  -5  -5  196.38   15.60
  -9  -5  -5  207.68   15.50
   9   5   5  204.08   12.60
   9   5   5  184.98    9.80
   9   5   5  199.88   11.90
   9   5   5  199.58   10.10
   9   5   5  200.18   13.20
   5  -6  -5  570.94   28.30
   5  -6  -5  580.04   24.70
   5  -6  -5  565.64   30.60
   5  -6  -5  542.85   22.60
  -5   6   5  592.74   29.90
  -5   6   5  585.34   25.80
  -5   6   5  565.94   22.90
   4  -6  -5  241.78   13.00
   4  -6  -5  253.97   15.20
   4  -6  -5  257.97   16.60
   4  -6  -5  246.78   14.50
  -4   6   5  258.77   15.60
  -4   6   5  267.87   15.00
   3  -6  -5  917.51   33.00
   3  -6  -5  931.51   33.60
   3  -6  -5  923.81   34.40
   3  -6  -5  926.91   36.20
  -3   6   5  912.01   33.80
  -3   6   5  959.00   32.00
  -3   6   5  922.31   25.30
   2  -6  -5  507.35   21.60
   2  -6  -5  494.15   21.20
   2  -6  -5  476.85   21.70
  -2   6   5  498.25   19.30
  -2   6   5  485.75   19.00
  -2   6   5  492.85   21.70
  -2   6   5  492.75   16.40
   1  -6  -5  732.53   26.20
   1  -6  -5  715.23   26.90
   1  -6  -5  730.53   27.00
  -1   6   5  719.53   23.00
  -1   6   5  723.03   24.70
  -1   6   5  742.73   27.40
   0  -6  -5  544.25   22.10
   0  -6  -5  527.35   19.70
   0  -6  -5  559.24   22.10
   0  -6  -5  568.24   18.60
   0   6   5  578.34   19.90
   0   6   5  549.15   19.90
   0   6   5  564.44   22.20
  -1  -6  -5  495.15   20.10
  -1  -6  -5  519.85   17.00
  -1  -6  -5  490.75   17.80
  -1  -6  -5  485.45   20.20
   1   6   5  515.95   19.10
   1   6   5  526.35   20.40
   1   6   5  491.35   20.10
   1   6   5  491.35   18.10
  -2  -6  -5   15.40    3.10
  -2  -6  -5   21.90    3.70
  -2  -6  -5   20.60    1.90
  -2  -6  -5   11.80    2.50
   2   6   5   15.60    3.10
   2   6   5   19.20    3.20
   2   6   5   22.80    3.60
   2   6   5   14.20    3.10
   2   6   5   18.40    2.80
  -3  -6  -5   67.29    6.00
  -3  -6  -5   66.99    6.20
  -3  -6  -5   71.29    6.30
   3   6   5   66.89    6.30
   3   6   5   60.99    6.10
   3   6   5   68.69    5.20
   3   6   5   74.19    6.00
   3   6   5   65.39    6.00
  -4  -6  -5  222.88   14.00
  -4  -6  -5  234.08   12.50
  -4  -6  -5  234.08   12.00
  -4  -6  -5  241.88   12.70
   4   6   5  237.28   12.80
   4   6   5  257.07   11.90
   4   6   5  246.58   12.50
   4   6   5  243.18   12.30
   4   6   5  266.87   13.80
  -5  -6  -5   16.10    3.00
  -5  -6  -5   16.50    3.60
  -5  -6  -5   19.60    3.40
   5   6   5   20.40    3.80
   5   6   5   18.50    3.60
   5   6   5   13.10    2.80
   5   6   5   12.00    2.40
  -6  -6  -5  870.51   32.90
  -6  -6  -5  870.71   29.90
  -6  -6  -5  847.62   31.90
  -6  -6  -5  950.30   29.70
   6   6   5  878.11   27.90
   6   6   5  896.21   32.80
   6   6   5  894.71   29.60
   6   6   5  938.01   31.40
  -7  -6  -5   50.99    6.60
  -7  -6  -5   59.49    7.50
  -7  -6  -5   43.10    4.60
   7   6   5   47.90    6.00
   7   6   5   39.60    5.90
   7   6   5   44.00    4.20
   7   6   5   40.80    4.90
  -8  -6  -5 1117.99   41.80
  -8  -6  -5 1103.19   41.10
   8   6   5 1111.69   33.80
   8   6   5 1155.38   38.20
   8   6   5 1067.89   34.40
   8   6   5 1087.99   32.20
   8   6   5 1079.19   39.10
   5  -7  -5  184.28   16.30
   5  -7  -5  204.48   12.70
   5  -7  -5  215.48   15.20
   5  -7  -5  222.38   14.50
  -5   7   5  218.28   13.20
  -5   7   5  227.08   17.40
  -5   7   5  201.98   14.40
   4  -7  -5   53.49    6.90
   4  -7  -5   33.50    6.70
   4  -7  -5   51.09    7.40
   4  -7  -5   57.39    6.50
  -4   7   5   56.29    6.90
  -4   7   5   54.79    7.30
  -4   7   5   49.00    6.10
   3  -7  -5  474.55   19.80
   3  -7  -5  464.65   21.80
   3  -7  -5  467.35   22.30
   3  -7  -5  445.26   22.40
  -3   7   5  469.45   22.70
  -3   7   5  449.56   19.60
  -3   7   5  473.75   20.70
  -3   7   5  451.25   14.20
   2  -7  -5  640.14   26.30
   2  -7  -5  612.04   25.70
  -2   7   5  607.04   19.90
  -2   7   5  643.34   26.70
  -2   7   5  623.64   23.90
   1  -7  -5  578.44   24.30
   1  -7  -5  600.94   23.30
  -1   7   5  573.14   21.70
  -1   7   5  545.45   24.10
  -1   7   5  551.14   19.70
   0  -7  -5 2063.69   61.19
   0  -7  -5 1961.40   56.09
   0  -7  -5 2139.19   58.39
   0  -7  -5 2128.39   61.79
   0   7   5 2092.89   57.49
   0   7   5 2039.60   61.59
   0   7   5 2120.69   58.29
  -1  -7  -5  648.84   24.90
  -1  -7  -5  614.94   21.90
  -1  -7  -5  626.84   20.90
   1   7   5  649.14   25.00
   1   7   5  599.34   24.40
   1   7   5  631.04   23.10
   1   7   5  641.64   22.40
  -2  -7  -5 2642.54   66.19
  -2  -7  -5 2650.33   74.09
  -2  -7  -5 2607.64   71.49
  -2  -7  -5 2598.54   73.49
   2   7   5 2716.43   73.69
   2   7   5 2626.94   73.99
   2   7   5 2643.94   71.19
   2   7   5 2582.84   72.79
  -3  -7  -5  211.58   15.10
  -3  -7  -5  200.08   12.10
  -3  -7  -5  221.68   12.50
   3   7   5  219.98   12.60
   3   7   5  227.18   13.00
   3   7   5  208.88   12.00
   3   7   5  215.58   12.60
  -4  -7  -5 2469.95   68.59
  -4  -7  -5 2405.56   68.19
  -4  -7  -5 2457.85   67.89
  -4  -7  -5 2390.36   68.99
   4   7   5 2478.35   69.49
   4   7   5 2395.36   67.49
   4   7   5 2466.95   67.29
   4   7   5 2375.46   69.39
  -5  -7  -5   70.09    7.40
  -5  -7  -5   89.29    7.70
  -5  -7  -5   86.99    7.30
  -5  -7  -5   81.99    7.30
   5   7   5   82.49    7.00
   5   7   5   78.89    7.50
   5   7   5  104.19    8.90
  -6  -7  -5 1328.97   45.20
  -6  -7  -5 1304.47   43.10
  -6  -7  -5 1292.27   42.10
  -6  -7  -5 1320.57   41.00
   6   7   5 1457.15   47.20
   6   7   5 1323.27   40.40
   6   7   5 1305.97   44.60
  -7  -7  -5   51.69    5.30
  -7  -7  -5   53.49    7.40
  -7  -7  -5   48.40    6.60
   7   7   5   43.00    6.00
   7   7   5   50.29    5.30
   7   7   5   42.40    6.50
  -8  -7  -5  515.65   25.80
  -8  -7  -5  542.25   25.00
  -8  -7  -5  492.35   19.40
   8   7   5  493.35   19.00
   8   7   5  481.85   23.90
   8   7   5  514.75   23.20
   4  -8  -5   27.00    5.30
   4  -8  -5   20.70    5.50
   4  -8  -5   36.20    6.50
   4  -8  -5   25.00    6.30
  -4   8   5   33.80    6.30
  -4   8   5   22.90    5.40
  -4   8   5   23.80    4.80
   3  -8  -5   33.00    6.00
   3  -8  -5   17.90    6.70
   3  -8  -5   41.30    6.30
   3  -8  -5   23.00    4.90
  -3   8   5   27.10    2.70
  -3   8   5   25.70    4.80
  -3   8   5   32.50    6.10
   2  -8  -5    4.30    2.30
   2  -8  -5    9.50    3.30
   2  -8  -5    4.30    2.90
  -2   8   5    2.60    1.90
  -2   8   5    9.50    2.40
  -2   8   5    7.50    2.80
  -2   8   5    5.50    2.50
   1  -8  -5  165.68   11.50
   1  -8  -5  191.18   13.30
  -1   8   5  170.98    9.60
  -1   8   5  167.18   14.30
   0  -8  -5  218.58   12.10
   0  -8  -5  242.78   14.60
   0   8   5  206.98   14.00
   0   8   5  236.18   12.00
  -1  -8  -5  560.54   21.60
  -1  -8  -5  577.64   24.80
  -1  -8  -5  576.44   20.50
   1   8   5  585.24   22.60
   1   8   5  561.14   24.40
   1   8   5  570.14   21.70
   1   8   5  609.44   25.20
  -2  -8  -5  494.85   20.50
  -2  -8  -5  488.75   22.00
  -2  -8  -5  489.95   21.70
  -2  -8  -5  501.25   16.20
   2   8   5  456.35   27.30
   2   8   5  460.95   21.20
   2   8   5  513.85   21.20
   2   8   5  487.45   19.10
  -3  -8  -5 1662.93   51.99
  -3  -8  -5 1637.94   51.69
  -3  -8  -5 1693.73   51.09
   3   8   5 1682.43   51.79
   3   8   5 1694.73   48.20
   3   8   5 1648.73   55.19
  -4  -8  -5  693.23   27.10
  -4  -8  -5  604.14   25.40
  -4  -8  -5  749.62   29.10
   4   8   5  663.93   23.40
   4   8   5  672.53   27.10
   4   8   5  645.84   26.70
   4   8   5  664.73   26.00
  -5  -8  -5 2298.37   66.39
  -5  -8  -5 2428.26   66.49
  -5  -8  -5 2262.17   68.49
   5   8   5 2333.97   63.09
   5   8   5 2322.87   68.49
   5   8   5 2276.17   65.99
   5   8   5 2210.38   68.29
  -6  -8  -5  385.46   18.50
  -6  -8  -5  389.46   17.70
  -6  -8  -5  382.46   20.20
   6   8   5  379.76   15.60
   6   8   5  387.36   17.70
   6   8   5  349.17   18.70
   6   8   5  354.66   19.10
  -7  -8  -5 2350.86   68.19
  -7  -8  -5 2167.98   70.69
  -7  -8  -5 2384.36   69.09
  -7  -8  -5 2241.48   64.79
   7   8   5 2326.17   71.19
   7   8   5 2268.37   62.59
   7   8   5 2334.07   69.49
   7   8   5 2343.57   65.59
  -8  -8  -5  133.79   11.20
  -8  -8  -5  103.19   11.10
  -8  -8  -5  124.29    8.80
   8   8   5  137.99   11.70
   8   8   5  128.79    9.10
   8   8   5  127.69   12.20
   8   8   5  128.49    8.00
   3  -9  -5  288.97   18.70
   3  -9  -5  307.37   26.50
   3  -9  -5  266.17   21.40
  -3   9   5  300.17   17.40
  -3   9   5  278.57   18.80
  -3   9   5  261.87   12.90
   2  -9  -5  655.53   29.10
   2  -9  -5  692.23   30.50
   2  -9  -5  725.43   30.80
  -2   9   5  740.03   28.10
  -2   9   5  666.83   22.70
  -2   9   5  677.83   31.20
  -2   9   5  722.23   28.80
   1  -9  -5  820.32   33.10
   1  -9  -5  857.71   34.10
   1  -9  -5  828.62   32.50
  -1   9   5  827.32   30.30
  -1   9   5  782.12   33.60
  -1   9   5  815.32   27.70
   0  -9  -5  654.63   28.30
   0  -9  -5  642.34   24.90
   0   9   5  621.44   28.40
   0   9   5  646.04   24.20
   0   9   5  653.53   25.20
  -1  -9  -5 1279.97   44.10
  -1  -9  -5 1245.18   39.70
  -1  -9  -5 1214.88   37.80
   1   9   5 1239.58   39.50
   1   9   5 1242.48   43.70
   1   9   5 1243.08   43.60
   1   9   5 1226.28   40.20
  -2  -9  -5  458.55   22.10
  -2  -9  -5  442.16   19.90
  -2  -9  -5  459.35   16.10
   2   9   5  452.05   21.80
   2   9   5  423.06   20.00
   2   9   5  453.35   18.90
   2   9   5  430.66   21.10
  -3  -9  -5  736.23   29.70
  -3  -9  -5  756.42   28.90
  -3  -9  -5  758.32   30.00
   3   9   5  748.03   29.80
   3   9   5  698.93   29.60
   3   9   5  748.43   29.20
   3   9   5  732.33   26.20
  -4  -9  -5  189.08   12.70
  -4  -9  -5  186.88   12.80
  -4  -9  -5  177.68   12.60
   4   9   5  192.48   13.00
   4   9   5  171.48   10.10
   4   9   5  198.18   13.40
   4   9   5  173.18   12.70
  -5  -9  -5  242.28   14.30
  -5  -9  -5  216.38   14.60
  -5  -9  -5  215.88   13.90
  -5  -9  -5  231.38   13.10
   5   9   5  227.88   15.10
   5   9   5  210.98   13.60
   5   9   5  230.28   14.90
   5   9   5  232.28   11.90
  -6  -9  -5  143.19   10.60
  -6  -9  -5  144.39   10.40
  -6  -9  -5  136.29   11.10
  -6  -9  -5  149.09   12.40
   6   9   5  140.79   10.70
   6   9   5  149.99   12.30
   6   9   5  152.08    9.30
   6   9   5  146.99   12.40
  -7  -9  -5    1.10    1.60
  -7  -9  -5    0.80    2.20
  -7  -9  -5   -0.90    2.00
  -7  -9  -5    0.20    1.90
   7   9   5    0.30    1.50
   7   9   5    3.00    1.80
   7   9   5   -0.10    2.10
   7   9   5    0.00    2.60
   1 -10  -5  125.59   11.80
   1 -10  -5  102.69    9.90
   1 -10  -5  110.39   10.70
  -1  10   5   96.59    9.10
  -1  10   5  128.79   12.10
  -1  10   5  114.99    8.50
   0 -10  -5    2.60    2.60
   0 -10  -5    6.20    2.70
   0 -10  -5    5.30    2.30
   0  10   5    5.70    2.60
   0  10   5    6.90    3.40
  -1 -10  -5  713.83   30.60
  -1 -10  -5  717.43   31.00
  -1 -10  -5  697.33   25.50
  -1 -10  -5  714.03   27.40
   1  10   5  723.93   27.70
   1  10   5  668.33   30.20
   1  10   5  728.43   31.40
   1  10   5  663.53   32.70
  -2 -10  -5   16.80    3.90
  -2 -10  -5   11.40    4.80
  -2 -10  -5   17.90    3.00
  -2 -10  -5   10.00    3.80
   2  10   5   11.00    3.70
   2  10   5   22.10    4.10
   2  10   5   14.40    4.60
   2  10   5   23.50    5.40
  -3 -10  -5 1228.18   46.90
  -3 -10  -5 1253.87   42.60
  -3 -10  -5 1182.48   43.30
   3  10   5 1216.18   39.30
   3  10   5 1169.18   42.00
   3  10   5 1247.48   44.10
   3  10   5 1248.78   44.40
  -4 -10  -5  273.37   16.80
  -4 -10  -5  258.67   14.00
  -4 -10  -5  273.87   16.70
   4  10   5  280.37   17.40
   4  10   5  258.27   13.50
   4  10   5  250.97   16.20
   4  10   5  259.77   16.40
  -5 -10  -5 1349.07   47.60
  -5 -10  -5 1372.16   45.90
  -5 -10  -5 1359.36   42.90
  -5 -10  -5 1341.37   46.60
   5  10   5 1346.67   47.70
   5  10   5 1250.47   45.40
   5  10   5 1379.96   41.70
   5  10   5 1267.67   46.70
  -6 -10  -5  515.25   25.00
  -6 -10  -5  537.55   26.50
  -6 -10  -5  555.04   22.90
  -6 -10  -5  546.25   24.00
   6  10   5  476.45   31.30
   6  10   5  500.05   25.30
   6  10   5  509.65   24.10
   6  10   5  518.65   20.60
  -1 -11  -5  634.44   25.80
  -1 -11  -5  572.74   23.00
  -1 -11  -5  567.14   28.30
   1  11   5  601.44   32.60
   1  11   5  575.14   28.90
   1  11   5  570.34   24.80
  -2 -11  -5  148.39   11.60
  -2 -11  -5  139.69   12.40
  -2 -11  -5  127.69    8.40
  -2 -11  -5  165.38   18.20
   2  11   5  128.79   11.90
   2  11   5  130.79   18.30
   2  11   5  120.59   10.80
   2  11   5  138.59   10.50
  -3 -11  -5  393.06   20.50
  -3 -11  -5  358.06   23.70
  -3 -11  -5  385.06   29.20
   3  11   5  363.06   17.90
   3  11   5  361.86   20.10
   3  11   5  371.76   21.20
   3  11   5  390.66   28.30
  -4 -11  -5    9.60    3.70
  -4 -11  -5   19.90    4.00
  -4 -11  -5   13.00    4.90
   4  11   5   18.10    3.90
   4  11   5   14.90    4.50
   4  11   5    9.00    3.40
   4  11   5   11.20    5.50
   4   9  -6  234.38   16.40
   4   9  -6  203.38   14.90
  -4  -9   6  223.48   15.70
  -4  -9   6  215.68    9.90
   3   9  -6   23.50    5.30
   3   9  -6   13.70    2.90
   3   9  -6   32.60    6.30
   3   9  -6   12.40    4.70
  -3  -9   6   15.30    4.10
  -3  -9   6   19.40    3.70
   2   9  -6  628.14   26.50
   2   9  -6  567.44   25.80
   2   9  -6  587.84   27.80
   2   9  -6  596.34   22.30
  -2  -9   6  590.64   21.80
  -2  -9   6  575.44   25.10
  -2  -9   6  593.24   28.10
   1   9  -6   35.00    4.60
   1   9  -6   36.10    5.90
   1   9  -6   50.09    7.20
   1   9  -6   32.70    5.70
  -1  -9   6   18.50    5.10
  -1  -9   6   28.00    3.70
  -1  -9   6   23.30    4.80
   0   9  -6 1034.50   39.70
   0   9  -6  953.60   36.30
   0   9  -6 1037.10   37.40
   0   9  -6 1030.60   36.90
   0  -9   6 1006.60   35.60
   0  -9   6 1045.70   41.20
   0  -9   6 1034.60   34.60
   5   8  -6   68.89    7.90
   5   8  -6   77.29    9.00
  -5  -8   6   71.29    8.40
  -5  -8   6   72.99    7.70
   4   8  -6 1217.58   42.40
   4   8  -6 1271.07   43.90
   4   8  -6 1202.48   42.30
  -4  -8   6 1131.09   42.40
  -4  -8   6 1201.78   38.20
  -4  -8   6 1223.78   33.60
   3   8  -6    6.30    2.00
   3   8  -6    5.70    3.40
   3   8  -6    0.50    1.80
   3   8  -6    5.60    2.90
  -3  -8   6   12.90    2.50
  -3  -8   6   11.10    3.60
   2   8  -6 1223.48   37.60
   2   8  -6 1257.17   42.50
   2   8  -6 1272.57   42.40
   2   8  -6 1258.57   44.00
  -2  -8   6 1274.67   37.50
  -2  -8   6 1283.07   41.80
  -2  -8   6 1245.48   44.50
   1   8  -6   -1.90    1.00
   1   8  -6    6.60    3.60
   1   8  -6   -1.40    1.50
   1   8  -6    3.40    2.50
  -1  -8   6    5.60    2.10
  -1  -8   6   -1.50    1.30
  -1  -8   6    0.90    1.40
   0   8  -6  702.73   27.00
   0   8  -6  762.92   28.80
   0   8  -6  805.12   34.40
   0   8  -6  762.52   31.00
   0  -8   6  796.12   33.20
   0  -8   6  745.63   27.70
   0  -8   6  788.42   27.20
  -1   8  -6    7.10    3.00
  -1   8  -6   11.00    3.50
  -1   8  -6   23.70    4.10
  -1   8  -6    7.30    3.60
   1  -8   6   12.70    5.50
   1  -8   6   10.70    2.70
   1  -8   6    6.30    2.50
  -2   8  -6  305.17   17.50
  -2   8  -6  274.57   15.50
   2  -8   6  292.57   15.40
   2  -8   6  280.07   14.10
   6   7  -6  162.48   12.50
   6   7  -6  145.29   11.60
  -6  -7   6  157.58    8.30
  -6  -7   6  132.59    7.40
  -6  -7   6  140.29   11.90
  -6  -7   6  162.88   13.20
   5   7  -6   93.89   11.20
   5   7  -6  119.69   10.20
  -5  -7   6  108.09    9.80
  -5  -7   6   88.19    9.20
  -5  -7   6  106.79    7.20
   4   7  -6  499.55   22.50
   4   7  -6  516.35   23.00
  -4  -7   6  509.45   15.60
  -4  -7   6  495.55   21.00
   2   7  -6  930.21   38.20
   2   7  -6  980.90   34.40
   2   7  -6  923.01   29.00
  -2  -7   6  947.81   32.50
  -2  -7   6  929.81   28.60
   1   7  -6 1750.32   50.19
   1   7  -6 1774.32   52.99
   1   7  -6 1789.92   55.19
  -1  -7   6 1767.92   49.80
  -1  -7   6 1818.62   52.49
   0   7  -6  786.92   28.60
   0   7  -6  796.52   30.50
   0   7  -6  770.82   27.30
   0  -7   6  873.91   32.70
  -1   7  -6 2661.13   76.69
  -1   7  -6 2685.03   73.59
  -1   7  -6 2639.54   73.69
   1  -7   6 2601.14   79.89
   1  -7   6 2669.53   72.89
   1  -7   6 2726.03   72.49
  -2   7  -6  447.36   18.40
  -2   7  -6  440.96   20.90
  -2   7  -6  421.46   19.40
  -2   7  -6  445.16   18.90
   2  -7   6  462.95   18.00
   2  -7   6  449.16   19.20
  -3   7  -6 2485.85   70.69
  -3   7  -6 2378.46   66.19
  -3   7  -6 2297.37   69.09
   3  -7   6 2443.76   65.19
   3  -7   6 2301.67   67.99
  -4   7  -6  162.58   12.30
  -4   7  -6  193.18   10.60
   4  -7   6  194.88   10.00
   4  -7   6  158.58   12.20
   7   6  -6  307.87   17.40
   7   6  -6  307.17   20.30
   7   6  -6  326.37   18.50
  -7  -6   6  310.57   20.80
  -7  -6   6  348.47   19.50
  -7  -6   6  336.37   18.30
   6   6  -6  596.14   25.00
   6   6  -6  568.74   25.40
   6   6  -6  574.14   25.60
  -6  -6   6  532.65   17.10
  -6  -6   6  596.04   26.20
  -6  -6   6  595.44   25.30
  -6  -6   6  592.94   27.60
  -6  -6   6  557.44   17.70
   5   6  -6  648.84   27.10
   5   6  -6  681.63   27.70
   5   6  -6  667.43   26.80
  -5  -6   6  672.33   22.00
  -5  -6   6  669.63   28.10
   4   6  -6  604.04   24.80
  -4  -6   6  618.14   17.30
  -4  -6   6  642.64   25.00
   3   6  -6  653.93   25.30
  -3  -6   6  647.64   23.50
  -3  -6   6  660.33   26.90
  -3  -6   6  686.03   20.10
   2   6  -6  475.95   20.40
   2   6  -6  497.45   20.00
  -2  -6   6  495.25   16.70
  -2  -6   6  486.35   21.80
  -2  -6   6  480.55   16.70
   1   6  -6  381.66   17.30
   1   6  -6  385.46   15.10
   1   6  -6  392.36   16.80
   1   6  -6  406.66   18.20
  -1  -6   6  409.66   19.80
  -1  -6   6  372.76   14.60
  -1  -6   6  384.96   16.30
   0   6  -6  517.55   19.40
   0   6  -6  514.65   21.60
   0   6  -6  544.75   20.50
   0   6  -6  512.25   20.70
   0  -6   6  534.05   19.60
   0  -6   6  513.25   23.60
   0  -6   6  543.95   19.20
  -1   6  -6   17.80    4.00
  -1   6  -6   11.80    3.00
  -1   6  -6   18.50    3.30
  -1   6  -6   16.10    4.40
   1  -6   6   24.80    3.70
   1  -6   6   14.00    2.70
  -2   6  -6  517.85   20.10
  -2   6  -6  522.15   21.70
  -2   6  -6  497.35   20.50
  -2   6  -6  503.95   18.80
   2  -6   6  498.85   19.90
   2  -6   6  508.05   18.30
  -3   6  -6   69.39    6.80
  -3   6  -6   59.49    6.70
   3  -6   6   58.89    4.90
   3  -6   6   59.29    6.10
  -4   6  -6  513.55   22.80
  -4   6  -6  518.85   19.80
  -4   6  -6  560.94   22.60
   4  -6   6  520.05   22.00
   4  -6   6  545.95   18.80
  -5   6  -6  131.89    7.80
  -5   6  -6  124.89    9.60
  -5   6  -6  132.59   13.60
   5  -6   6  126.59   11.30
   5  -6   6  130.09    7.10
   7   5  -6   92.89    8.20
   7   5  -6   90.79    9.40
   7   5  -6   86.99    9.00
  -7  -5   6  101.79   11.40
  -7  -5   6  103.49   10.50
  -7  -5   6  100.59    9.00
   6   5  -6  120.49   10.20
   6   5  -6  140.49   10.20
   6   5  -6  145.19   11.20
  -6  -5   6  119.89   11.60
  -6  -5   6  154.28   13.00
  -6  -5   6  131.89   10.10
   5   5  -6  489.05   21.30
   5   5  -6  536.15   23.20
   5   5  -6  521.75   22.30
  -5  -5   6  488.65   16.50
  -5  -5   6  526.75   24.20
   4   5  -6  530.45   22.90
   4   5  -6  531.45   21.90
   4   5  -6  562.14   27.10
  -4  -5   6  540.65   23.20
  -4  -5   6  545.45   22.90
  -4  -5   6  537.85   18.70
   3   5  -6 1155.18   36.50
  -3  -5   6 1189.48   38.80
  -3  -5   6 1021.10   33.20
  -3  -5   6 1171.78   36.30
   2   5  -6 1478.85   44.20
   2   5  -6 1518.55   45.20
  -2  -5   6 1524.35   47.50
  -2  -5   6 1483.95   42.30
  -2  -5   6 1482.25   40.10
   1   5  -6 1844.42   49.30
   1   5  -6 1847.82   45.60
   1   5  -6 1806.72   52.59
   1   5  -6 1817.62   51.29
  -1  -5   6 1797.12   55.49
  -1  -5   6 1838.32   47.40
  -1  -5   6 1826.12   48.90
   0   5  -6 1931.41   54.99
   0   5  -6 2007.10   57.29
   0   5  -6 1897.61   50.09
   0   5  -6 1896.81   52.49
   0   5  -6 1917.91   52.99
   0  -5   6 1870.31   57.79
   0  -5   6 1917.61   51.99
   0  -5   6 1924.01   52.29
  -1   5  -6 1248.18   39.40
  -1   5  -6 1367.56   40.20
  -1   5  -6 1334.47   40.80
  -1   5  -6 1374.96   38.50
  -1   5  -6 1327.97   38.40
   1  -5   6 1363.16   37.70
   1  -5   6 1289.97   38.60
  -2   5  -6 1881.71   51.79
  -2   5  -6 1736.03   50.69
  -2   5  -6 1805.32   52.09
  -2   5  -6 1753.92   48.60
  -2   5  -6 1768.72   51.39
   2  -5   6 1813.72   50.89
   2  -5   6 1765.82   48.00
  -3   5  -6  698.73   26.10
  -3   5  -6  740.13   26.20
  -3   5  -6  697.03   24.70
   3  -5   6  784.22   22.80
   3  -5   6  727.63   25.80
  -4   5  -6  938.41   29.20
  -4   5  -6  941.41   38.10
  -4   5  -6  882.01   30.40
   4  -5   6  889.11   26.50
   4  -5   6  880.21   30.80
  -5   5  -6  285.87   19.60
  -5   5  -6  280.07   13.70
  -5   5  -6  275.87   15.40
  -5   5  -6  275.87   12.40
   5  -5   6  274.17   14.80
   5  -5   6  284.27   11.10
  -6   5  -6  182.08   10.40
  -6   5  -6  175.88    9.00
  -6   5  -6  212.98   17.40
   6  -5   6  174.58   12.40
   6  -5   6  186.38    8.60
   7   4  -6  522.95   21.90
   7   4  -6  523.45   24.50
   7   4  -6  514.45   24.20
  -7  -4   6  499.55   24.80
  -7  -4   6  556.44   28.80
  -7  -4   6  546.55   22.10
   6   4  -6  172.18   12.10
   6   4  -6  188.18   12.50
   6   4  -6  182.38   11.10
  -6  -4   6  178.88   14.40
  -6  -4   6  163.48   10.60
   5   4  -6  588.94   22.50
   5   4  -6  558.54   24.10
   5   4  -6  577.54   23.40
  -5  -4   6  555.04   24.10
  -5  -4   6  563.84   17.00
  -5  -4   6  593.54   26.50
   4   4  -6   36.00    4.80
   4   4  -6   40.60    4.80
   4   4  -6   40.50    5.20
  -4  -4   6   36.00    5.00
  -4  -4   6   33.40    3.20
  -4  -4   6   31.50    5.10
   3   4  -6  463.05   18.80
   3   4  -6  465.75   18.60
   3   4  -6  464.75   20.10
  -3  -4   6  486.95   20.60
  -3  -4   6  483.75   19.80
  -3  -4   6  458.15   16.60
  -3  -4   6  477.25   13.80
   2   4  -6  175.48    9.60
   2   4  -6  174.78   10.00
  -2  -4   6  179.88    9.50
  -2  -4   6  173.48    7.20
  -2  -4   6  170.28   10.90
   1   4  -6  262.27   11.40
   1   4  -6  252.07   12.20
   1   4  -6  249.38    8.70
  -1  -4   6  240.58    9.70
  -1  -4   6  228.78   13.00
  -1  -4   6  241.18   10.30
   0   4  -6  985.10   30.90
   0   4  -6  983.10   27.60
   0   4  -6  965.90   28.90
   0  -4   6  981.30   28.70
   0  -4   6  959.90   33.30
  -1   4  -6  308.17   13.50
  -1   4  -6  326.17   13.90
  -1   4  -6  325.17   12.30
  -1   4  -6  313.17   12.60
  -1   4  -6  301.77   13.00
   1  -4   6  325.77   16.30
   1  -4   6  304.47   12.70
   1  -4   6  316.77   11.60
  -2   4  -6 2253.47   62.49
  -2   4  -6 2450.35   63.59
  -2   4  -6 2311.77   62.59
  -2   4  -6 2263.97   59.39
  -2   4  -6 2285.57   63.19
   2  -4   6 2304.97   58.89
   2  -4   6 2309.77   62.29
   2  -4   6 2302.97   57.79
  -3   4  -6  254.67   13.40
  -3   4  -6  238.88   12.30
  -3   4  -6  235.98   11.30
  -3   4  -6  254.47   11.90
   3  -4   6  234.48    9.60
   3  -4   6  237.98   11.90
   3  -4   6  246.68    9.00
  -4   4  -6 2012.60   65.79
  -4   4  -6 2165.68   63.29
  -4   4  -6 2105.09   57.39
  -4   4  -6 2076.79   57.99
   4  -4   6 2129.59   53.69
   4  -4   6 2144.99   59.59
  -5   4  -6  292.27   18.80
  -5   4  -6  268.97   12.10
  -5   4  -6  281.57   12.40
   5  -4   6  270.87    9.80
   5  -4   6  243.68   13.50
  -6   4  -6 1218.18   46.90
  -6   4  -6 1183.48   34.90
  -6   4  -6 1173.58   34.70
   6  -4   6 1161.58   39.10
   6  -4   6 1216.18   32.50
   8   3  -6  663.43   29.70
  -8  -3   6  590.54   29.40
  -8  -3   6  659.53   24.60
   7   3  -6  275.77   16.40
   7   3  -6  305.37   17.70
   7   3  -6  289.97   14.30
  -7  -3   6  303.77   14.30
  -7  -3   6  288.17   20.20
  -7  -3   6  290.97   17.70
   6   3  -6 2582.34   70.59
   6   3  -6 2576.44   73.89
   6   3  -6 2607.44   75.39
  -6  -3   6 2451.75   79.39
  -6  -3   6 2596.84   69.99
   5   3  -6  383.16   16.20
   5   3  -6  356.16   17.70
   5   3  -6  365.16   17.40
  -5  -3   6  326.97   14.80
  -5  -3   6  367.26   20.20
  -5  -3   6  375.66   11.20
  -5  -3   6  366.26   18.30
   4   3  -6 5637.34  143.89
   4   3  -6 5631.04  143.19
   4   3  -6 5784.22  146.29
  -4  -3   6 5965.60  147.59
  -4  -3   6 5476.55  137.99
  -4  -3   6 5483.55  147.69
   3   3  -6  213.88   10.80
   3   3  -6  191.08   10.20
   3   3  -6  191.98   11.50
  -3  -3   6  204.48   11.70
  -3  -3   6  198.38    8.80
  -3  -3   6  184.98   11.50
  -3  -3   6  197.08    6.50
   2   3  -6 7870.81  198.18
   2   3  -6 8026.50  195.08
   2   3  -6 8121.59  196.18
  -2  -3   6 7851.31  190.68
  -2  -3   6 7933.01  194.08
  -2  -3   6 7883.31  198.28
   1   3  -6   12.30    2.50
   1   3  -6    8.80    2.00
   1   3  -6    5.00    1.20
  -1  -3   6    2.50    1.20
  -1  -3   6    7.20    1.30
   0   3  -6 7335.07  180.28
   0   3  -6 7572.24  180.68
   0   3  -6 7510.45  183.28
   0  -3   6 7233.38  185.78
   0  -3   6 7514.95  180.58
  -1   3  -6    2.50    1.30
  -1   3  -6    3.30    1.00
  -1   3  -6    1.80    1.30
   1  -3   6    1.60    1.00
   1  -3   6    1.10    1.00
   1  -3   6    0.40    0.90
  -2   3  -6 3504.55   89.59
  -2   3  -6 3524.85   90.39
  -2   3  -6 3546.45   88.89
  -2   3  -6 3420.06   85.39
   2  -3   6 3487.25   88.99
   2  -3   6 3423.26   85.09
   2  -3   6 3463.05   89.09
   2  -3   6 3473.45   87.49
  -3   3  -6   28.30    4.10
  -3   3  -6   32.70    3.60
   3  -3   6   30.20    3.60
   3  -3   6   34.80    2.10
   3  -3   6   28.60    3.30
   3  -3   6   19.80    4.70
  -4   3  -6 1231.58   35.30
  -4   3  -6 1241.68   43.10
  -4   3  -6 1319.37   41.20
  -4   3  -6 1181.98   35.80
   4  -3   6 1229.38   37.80
   4  -3   6 1195.98   35.30
  -5   3  -6    1.20    1.90
  -5   3  -6    4.30    2.10
  -5   3  -6    1.00    1.40
  -5   3  -6   -1.80    1.00
   5  -3   6    0.50    0.90
   5  -3   6    1.20    1.30
  -6   3  -6  301.67   19.40
  -6   3  -6  300.77   12.70
   6  -3   6  298.27   14.90
   6  -3   6  290.87   11.90
  -7   3  -6   47.70    7.90
   7  -3   6   47.30    6.20
   7  -3   6   43.90    3.30
   8   2  -6  231.78   16.60
   8   2  -6  266.47   12.70
   8   2  -6  241.68   16.90
  -8  -2   6  225.58   17.00
  -8  -2   6  223.68   19.20
  -8  -2   6  232.38   12.00
   7   2  -6  234.08   11.90
   7   2  -6  243.48   15.90
   7   2  -6  236.18   14.90
  -7  -2   6  253.77   12.00
  -7  -2   6  215.48   15.40
  -7  -2   6  255.37   19.10
   6   2  -6  147.69   11.20
   6   2  -6  136.09   10.20
   6   2  -6  136.59    9.00
  -6  -2   6  132.69    7.80
  -6  -2   6  127.69   12.60
   5   2  -6  408.06   19.50
   5   2  -6  418.46   19.50
   5   2  -6  430.96   17.10
  -5  -2   6  451.15   16.30
  -5  -2   6  434.06   20.30
  -5  -2   6  443.06   22.70
   4   2  -6    5.80    2.00
   4   2  -6    5.30    2.20
   4   2  -6    5.60    1.80
  -4  -2   6    8.00    3.70
  -4  -2   6    6.10    1.50
  -4  -2   6    8.20    3.30
   3   2  -6 1207.48   35.20
   3   2  -6 1201.78   37.80
   3   2  -6 1145.99   35.50
  -3  -2   6 1171.68   30.00
  -3  -2   6 1180.48   37.70
  -3  -2   6 1196.38   32.70
   2   2  -6  159.98    9.80
   2   2  -6  160.28    8.40
   2   2  -6  169.98    8.80
  -2  -2   6  169.28   10.00
  -2  -2   6  164.78    6.40
  -2  -2   6  162.08    7.80
   1   2  -6 2920.51   77.59
   1   2  -6 2907.51   73.79
   1   2  -6 2884.51   75.39
  -1  -2   6 2786.62   77.19
  -1  -2   6 2941.71   74.89
  -1  -2   6 2941.01   72.39
   0   2  -6  726.83   21.20
   0   2  -6  724.03   23.50
   0   2  -6  730.13   22.10
   0  -2   6  745.53   23.70
   0  -2   6  736.83   23.30
   0  -2   6  711.53   25.10
   0  -2   6  749.73   21.80
  -1   2  -6 3932.31   98.19
  -1   2  -6 3875.21   94.29
  -1   2  -6 4031.90   97.79
   1  -2   6 3689.83   97.49
   1  -2   6 3768.82  100.59
   1  -2   6 3885.41   96.79
   1  -2   6 3872.01   99.09
  -2   2  -6  455.75   17.10
  -2   2  -6  428.96   14.80
  -2   2  -6  462.15   16.40
   2  -2   6  453.05   16.10
   2  -2   6  450.95   17.50
   2  -2   6  425.86   15.80
  -3   2  -6 4614.84  120.29
  -3   2  -6 4775.52  117.89
  -3   2  -6 4740.43  115.59
   3  -2   6 4622.24  117.89
   3  -2   6 4536.25  118.39
   3  -2   6 4824.02  117.49
   3  -2   6 4703.83  120.29
  -4   2  -6  276.37   12.10
  -4   2  -6  258.07   15.20
  -4   2  -6  284.87   10.20
  -4   2  -6  296.67   15.10
   4  -2   6  281.67   11.70
   4  -2   6  278.57   13.70
   4  -2   6  286.87   12.80
  -5   2  -6 2898.41   84.89
  -5   2  -6 3051.29   78.79
  -5   2  -6 2996.20   86.59
  -5   2  -6 2969.90   74.59
   5  -2   6 3198.78   86.89
   5  -2   6 2996.20   77.79
   5  -2   6 3021.60   81.29
  -6   2  -6   25.60    3.70
  -6   2  -6   39.00    6.30
  -6   2  -6   38.70    6.30
   6  -2   6   35.60    3.60
   6  -2   6   29.60    4.30
   6  -2   6   25.20    4.50
  -7   2  -6 1314.27   49.60
  -7   2  -6 1419.96   50.19
   7  -2   6 1301.97   37.50
   7  -2   6 1301.77   35.20
   7  -2   6 1315.17   42.20
   7  -2   6 1368.86   34.90
   8   1  -6  705.03   32.20
   8   1  -6  693.73   31.10
  -8  -1   6  705.43   33.10
  -8  -1   6  724.23   37.20
  -8  -1   6  701.73   23.50
   7   1  -6  273.87   12.40
   7   1  -6  291.77   17.90
  -7  -1   6  282.37   18.00
  -7  -1   6  264.57   11.70
  -7  -1   6  276.17   23.90
   6   1  -6 1464.65   41.90
   6   1  -6 1408.06   48.20
  -6  -1   6 1512.15   53.69
  -6  -1   6 1448.16   40.50
   5   1  -6  843.42   27.10
   5   1  -6  919.91   32.80
  -5  -1   6  876.61   25.70
  -5  -1   6  859.41   35.00
  -5  -1   6  864.81   32.30
   4   1  -6 2409.36   68.49
   4   1  -6 2485.55   70.49
   4   1  -6 2487.35   65.79
  -4  -1   6 2472.65   63.69
  -4  -1   6 2599.14   72.79
  -4  -1   6 2530.85   62.89
  -4  -1   6 2469.05   60.89
   3   1  -6 1139.79   36.80
   3   1  -6 1152.58   33.80
   3   1  -6 1095.39   36.80
  -3  -1   6 1206.38   37.40
  -3  -1   6 1185.18   32.10
  -3  -1   6 1204.98   30.20
   2   1  -6 2721.83   69.39
   2   1  -6 2666.13   71.89
  -2  -1   6 2677.93   67.99
  -2  -1   6 2565.94   71.59
   1   1  -6  811.92   26.40
   1   1  -6  784.72   24.50
  -1  -1   6  796.72   24.40
  -1  -1   6  760.52   25.80
  -1  -1   6  792.22   23.90
   0   1  -6 1813.52   47.00
   0   1  -6 1857.91   49.70
   0   1  -6 1833.02   51.29
   0  -1   6 1919.51   49.80
   0  -1   6 1750.72   49.10
   0  -1   6 1840.92   51.19
  -1   1  -6  321.67   12.70
  -1   1  -6  323.17    9.70
  -1   1  -6  306.97   12.50
   1  -1   6  340.47   13.30
   1  -1   6  327.37   11.80
   1  -1   6  302.17   13.50
   1  -1   6  305.67   12.30
  -2   1  -6 1735.13   46.00
  -2   1  -6 1530.05   44.20
   2  -1   6 1641.64   44.10
   2  -1   6 1591.14   44.20
   2  -1   6 1595.44   45.60
  -3   1  -6   28.80    3.80
  -3   1  -6   26.90    2.20
  -3   1  -6   28.50    4.00
  -3   1  -6   34.90    3.60
   3  -1   6   31.90    3.40
   3  -1   6   33.00    4.00
   3  -1   6   32.90    4.00
   3  -1   6   25.40    3.20
  -4   1  -6  662.93   21.50
  -4   1  -6  607.34   16.80
  -4   1  -6  596.94   24.20
   4  -1   6  621.74   22.70
   4  -1   6  629.14   20.80
   4  -1   6  642.64   21.50
  -5   1  -6  131.39   10.20
  -5   1  -6  120.29   10.00
  -5   1  -6  129.99    7.80
   5  -1   6  120.59    8.40
   5  -1   6  124.99    7.30
   5  -1   6  113.29    7.70
  -6   1  -6  508.05   24.40
  -6   1  -6  534.15   25.00
  -6   1  -6  565.84   20.00
   6  -1   6  534.75   18.80
   6  -1   6  538.75   20.50
  -7   1  -6  209.48   15.70
  -7   1  -6  193.08   15.00
   7  -1   6  200.68   11.20
   7  -1   6  207.68    7.90
   7  -1   6  213.38    8.10
   7  -1   6  217.28   10.10
   7  -1   6  198.58   12.10
  -8   1  -6  422.26   24.60
   8  -1   6  377.16   22.00
   8  -1   6  420.26   15.50
   8  -1   6  450.65   16.90
   8  -1   6  419.96   18.90
   8  -1   6  414.16   14.20
   7   0  -6  221.58   15.50
   7   0  -6  203.08    9.50
  -7   0   6  214.58   19.60
  -7   0   6  179.88   16.90
  -7   0   6  210.68    7.40
   6   0  -6   84.99    5.90
   6   0  -6   85.89    8.90
  -6   0   6   93.79    4.40
  -6   0   6   86.59   10.50
  -6   0   6   95.69    5.30
  -6   0   6   97.99   10.20
   5   0  -6 1379.46   45.60
   5   0  -6 1390.66   39.10
  -5   0   6 1380.96   36.00
  -5   0   6 1428.76   50.09
  -5   0   6 1445.06   36.90
  -5   0   6 1328.87   45.40
   4   0  -6  152.08    8.00
   4   0  -6  155.98   10.50
   4   0  -6  166.48    7.20
   4   0  -6  149.29    9.10
  -4   0   6  169.58    6.40
  -4   0   6  154.38    7.10
  -4   0   6  164.68    6.50
   3   0  -6 3364.96   87.19
   3   0  -6 3366.46   86.09
   3   0  -6 3467.65   85.09
   3   0  -6 3358.36   90.69
  -3   0   6 3441.76   90.59
  -3   0   6 3395.36   85.09
  -3   0   6 3366.46   83.49
   2   0  -6  724.63   22.60
   2   0  -6  721.63   22.00
   2   0  -6  720.83   22.10
   2   0  -6  726.73   25.10
  -2   0   6  727.93   22.60
  -2   0   6  751.52   22.10
   1   0  -6 5745.23  143.69
   1   0  -6 5748.92  145.89
  -1   0   6 5938.41  143.89
  -1   0   6 5945.21  143.59
   0   0  -6 1604.44   44.50
   0   0  -6 1630.44   46.00
   0   0  -6 1658.93   44.90
   0   0   6 1645.34   45.80
   0   0   6 1710.83   47.00
   0   0   6 1638.34   44.50
  -1   0  -6 5568.34  141.09
   1   0   6 5884.41  141.39
  -2   0  -6 1565.84   43.50
  -2   0  -6 1561.94   44.70
  -2   0  -6 1576.14   43.80
   2   0   6 1597.44   43.50
   2   0   6 1609.14   44.50
   2   0   6 1589.74   44.30
  -3   0  -6 2350.36   61.59
  -3   0  -6 2318.97   56.59
  -3   0  -6 2342.07   63.19
  -3   0  -6 2238.58   63.39
   3   0   6 2340.27   61.09
   3   0   6 2213.28   62.19
   3   0   6 2452.55   61.59
  -4   0  -6 1802.22   49.30
  -4   0  -6 1816.62   52.39
  -4   0  -6 1699.13   52.09
   4   0   6 1791.92   48.80
   4   0   6 1741.63   50.19
   4   0   6 1856.31   49.40
  -5   0  -6 1062.49   36.60
  -5   0  -6 1069.69   32.80
  -5   0  -6 1090.69   37.10
   5   0   6 1087.29   33.00
   5   0   6 1064.29   32.00
   5   0   6 1076.29   33.90
  -6   0  -6  687.63   29.10
  -6   0  -6  815.22   30.90
   6   0   6  730.73   25.90
   6   0   6  692.03   23.70
   6   0   6  741.13   25.10
  -7   0  -6  204.78   14.90
  -7   0  -6  180.78   14.20
   7   0   6  196.78    8.00
   7   0   6  185.28   10.70
   7   0   6  200.58   10.10
  -8   0  -6  197.78   15.70
  -8   0  -6  206.38   16.40
   8   0   6  209.38    9.10
   8   0   6  196.28   11.70
   8   0   6  211.18   10.50
   8   0   6  203.48   14.30
   8   0   6  217.48   12.10
   7  -1  -6 1456.35   38.70
   7  -1  -6 1405.16   50.99
  -7   1   6 1464.95   56.89
  -7   1   6 1434.26   38.90
   6  -1  -6   75.39    4.30
   6  -1  -6   83.89    5.10
   6  -1  -6   96.59    8.90
  -6   1   6   73.79    9.70
  -6   1   6   71.89    4.70
   5  -1  -6 1838.82   46.70
   5  -1  -6 1843.32   47.60
   5  -1  -6 1664.33   55.89
  -5   1   6 1728.03   46.40
   4  -1  -6  288.57   15.20
   4  -1  -6  281.87   10.80
   4  -1  -6  266.47   10.80
   4  -1  -6  266.97   12.70
  -4   1   6  286.67   15.20
  -4   1   6  289.37   10.50
   3  -1  -6 1709.53   46.50
   3  -1  -6 1661.43   50.09
   3  -1  -6 1677.03   45.50
   3  -1  -6 1694.13   45.40
  -3   1   6 1678.63   45.60
  -3   1   6 1699.33   44.40
  -3   1   6 1766.82   50.59
   2  -1  -6  112.99    7.70
   2  -1  -6   99.99    5.40
   2  -1  -6  100.79    5.90
   2  -1  -6  104.89    6.00
  -2   1   6  106.49    5.90
  -2   1   6  101.39    5.90
  -2   1   6  111.59    5.50
  -2   1   6  103.09    7.30
   1  -1  -6  668.03   17.90
   1  -1  -6  647.14   20.10
   1  -1  -6  623.54   20.10
   1  -1  -6  630.84   21.70
  -1   1   6  593.34   21.10
  -1   1   6  618.54   17.40
  -1   1   6  647.94   20.20
  -1   1   6  628.04   19.90
   0   1   6    5.00    1.50
  -1  -1  -6  252.47    8.70
  -1  -1  -6  252.97   10.50
  -1  -1  -6  248.88    8.80
  -1  -1  -6  246.78   10.60
  -1  -1  -6  228.78   10.40
   1   1   6  241.08   10.30
   1   1   6  250.17   10.40
   1   1   6  248.58   10.60
  -2  -1  -6  194.28   10.10
  -2  -1  -6  215.58   10.10
  -2  -1  -6  213.78    7.10
  -2  -1  -6  205.08    9.60
  -2  -1  -6  241.48    9.30
   2   1   6  213.28    9.90
   2   1   6  201.68    9.50
   2   1   6  218.88    9.60
  -3  -1  -6  356.86   14.20
  -3  -1  -6  391.96   14.70
  -3  -1  -6  364.16   15.60
   3   1   6  378.26   14.60
   3   1   6  347.07   13.90
  -4  -1  -6 1152.88   35.90
  -4  -1  -6 1094.49   36.50
  -4  -1  -6 1196.18   34.80
   4   1   6 1145.89   33.70
   4   1   6 1154.38   34.00
   4   1   6 1157.08   34.60
  -5  -1  -6  145.99   10.30
  -5  -1  -6  146.79   10.10
  -5  -1  -6  157.28    9.00
   5   1   6  157.78    9.00
   5   1   6  145.59    5.70
   5   1   6  149.39    8.50
   5   1   6  153.98    8.50
  -6  -1  -6  899.21   32.90
  -6  -1  -6  839.42   32.70
   6   1   6  853.31   27.70
   6   1   6  871.41   24.20
   6   1   6  863.91   28.60
   6   1   6  865.81   28.20
  -7  -1  -6  270.07   24.90
  -7  -1  -6  243.38   16.20
   7   1   6  249.08   10.20
   7   1   6  258.77   12.90
   7   1   6  276.57   12.60
   7   1   6  253.87   12.50
   7   1   6  234.98   14.20
  -8  -1  -6  537.15   27.90
  -8  -1  -6  578.84   28.00
   8   1   6  561.74   18.90
   8   1   6  538.25   21.40
   8   1   6  581.54   20.90
   8   1   6  550.54   24.40
   8   1   6  540.15   23.90
   7  -2  -6   13.60    2.10
   7  -2  -6   10.50    3.60
  -7   2   6   19.30    3.10
  -7   2   6   11.20    5.40
   6  -2  -6 1059.09   28.30
   6  -2  -6 1051.59   30.20
   6  -2  -6 1002.10   39.50
  -6   2   6 1007.20   30.50
  -6   2   6 1080.39   44.00
   5  -2  -6   56.49    4.50
   5  -2  -6   57.79    4.00
   5  -2  -6   61.29    7.30
  -5   2   6   59.29    4.50
   4  -2  -6 3417.06   87.49
   4  -2  -6 3473.65   85.79
   4  -2  -6 3461.35   94.59
   4  -2  -6 3320.67   89.39
  -4   2   6 3360.56   93.89
  -4   2   6 3523.25   86.89
   3  -2  -6   83.29    5.60
   3  -2  -6   90.69    5.30
   3  -2  -6   93.19    7.80
   3  -2  -6   85.69    5.80
  -3   2   6   89.39    5.40
  -3   2   6  104.89    6.40
  -3   2   6   98.99    5.50
  -3   2   6   88.29    7.50
   2  -2  -6 6273.97  147.39
   2  -2  -6 5994.40  152.68
   2  -2  -6 6028.20  149.69
   2  -2  -6 6109.69  148.39
  -2   2   6 6165.98  149.88
  -2   2   6 5715.43  147.99
  -2   2   6 6186.28  148.29
  -2   2   6 6043.50  152.48
   1  -2  -6   69.59    3.10
   1  -2  -6   74.49    5.80
   1  -2  -6   70.79    5.20
   1  -2  -6   73.19    4.90
  -1   2   6   73.29    5.20
  -1   2   6   72.49    5.60
  -1   2   6   87.29    5.20
  -1  -2  -6  390.36   10.60
  -1  -2  -6  389.56   13.80
  -1  -2  -6  382.36   14.50
  -1  -2  -6  381.16   14.30
  -1  -2  -6  375.16   13.10
   1   2   6  391.86   14.30
   1   2   6  399.96   14.70
   1   2   6  358.26   13.20
  -2  -2  -6 6422.36  156.98
  -2  -2  -6 6118.49  153.88
  -2  -2  -6 6407.46  156.58
  -2  -2  -6 6287.77  154.08
   2   2   6 6451.95  157.18
   2   2   6 6499.95  157.08
  -3  -2  -6  613.54   17.70
  -3  -2  -6  537.25   18.00
  -3  -2  -6  509.95   19.90
  -3  -2  -6  536.35   19.20
  -3  -2  -6  541.05   19.00
  -3  -2  -6  532.65   18.90
   3   2   6  515.15   15.70
   3   2   6  477.65   18.30
   3   2   6  507.15   18.50
   3   2   6  542.65   17.20
  -4  -2  -6 2009.40   56.79
  -4  -2  -6 2010.90   58.19
  -4  -2  -6 2180.38   53.89
  -4  -2  -6 2093.49   57.59
  -4  -2  -6 2126.39   59.69
  -4  -2  -6 2066.39   57.39
   4   2   6 2068.79   57.79
   4   2   6 2140.89   57.19
   4   2   6 2102.89   53.09
   4   2   6 2093.59   56.99
  -5  -2  -6  609.24   24.00
  -5  -2  -6  646.24   25.30
  -5  -2  -6  643.94   24.30
   5   2   6  652.13   19.30
   5   2   6  679.13   22.80
   5   2   6  642.14   21.80
   5   2   6  637.64   22.40
  -6  -2  -6  607.24   24.10
  -6  -2  -6  575.44   24.90
  -6  -2  -6  593.84   24.50
   6   2   6  565.64   21.00
   6   2   6  567.94   21.20
   6   2   6  574.94   20.70
  -7  -2  -6  132.69   11.20
  -7  -2  -6  122.99   11.00
   7   2   6  123.39    6.90
   7   2   6  117.09    8.10
   7   2   6  115.19    8.80
   7   2   6  128.19    8.50
   7   2   6  122.79    8.40
  -8  -2  -6   13.00    4.80
  -8  -2  -6   13.80    4.60
   8   2   6    9.20    2.80
   8   2   6   13.30    2.80
   8   2   6   12.50    3.20
   8   2   6   13.30    3.30
   8   2   6   15.30    3.00
   7  -3  -6  285.97   12.30
   7  -3  -6  272.37   20.50
  -7   3   6  290.57   22.10
  -7   3   6  284.37   13.00
   6  -3  -6 1014.50   31.20
   6  -3  -6  982.00   39.50
  -6   3   6 1000.00   31.20
  -6   3   6 1028.20   43.40
   5  -3  -6  331.17   14.30
   5  -3  -6  346.97   11.00
   5  -3  -6  316.27   18.60
  -5   3   6  376.96   17.30
  -5   3   6  323.37   13.70
   4  -3  -6  807.32   26.90
   4  -3  -6  824.52   23.80
   4  -3  -6  857.41   32.20
  -4   3   6  876.61   28.60
  -4   3   6  822.52   26.10
  -4   3   6  840.82   31.80
   3  -3  -6  329.77   14.00
   3  -3  -6  312.77   16.00
   3  -3  -6  325.17   11.80
  -3   3   6  339.97   13.10
  -3   3   6  358.46   13.70
  -3   3   6  333.37   11.80
  -3   3   6  323.97   16.20
   2  -3  -6  538.65   17.40
   2  -3  -6  534.05   19.30
   2  -3  -6  549.74   21.10
  -2   3   6  528.95   19.20
  -2   3   6  544.25   20.80
  -2   3   6  535.05   18.00
  -2   3   6  532.55   16.80
  -2   3   6  540.35   17.30
   1  -3  -6  960.00   29.90
   1  -3  -6  990.90   30.50
   1  -3  -6  987.70   28.30
  -1   3   6  966.40   28.20
  -1   3   6  958.30   30.10
  -1   3   6  987.50   28.20
  -1   3   6  940.11   29.60
   0  -3  -6    9.60    1.80
   0  -3  -6   17.90    2.70
   0  -3  -6   16.00    2.50
   0  -3  -6   10.10    2.10
   0  -3  -6   18.00    1.90
   0   3   6   18.70    2.60
   0   3   6   11.90    2.10
   0   3   6   10.80    2.00
   0   3   6    9.90    2.10
  -1  -3  -6 1447.96   38.20
  -1  -3  -6 1394.76   39.30
  -1  -3  -6 1449.06   39.80
  -1  -3  -6 1415.86   38.30
   1   3   6 1310.57   37.70
   1   3   6 1426.56   40.30
   1   3   6 1425.76   39.70
   1   3   6 1413.36   38.70
  -2  -3  -6   14.10    2.50
  -2  -3  -6   15.40    2.70
  -2  -3  -6   12.70    2.00
  -2  -3  -6   16.60    2.50
   2   3   6   16.90    2.60
   2   3   6   14.80    1.90
   2   3   6   13.90    1.70
   2   3   6   17.40    2.50
   2   3   6   15.00    1.70
  -3  -3  -6 2150.68   57.79
  -3  -3  -6 2172.78   55.99
  -3  -3  -6 2139.19   55.09
  -3  -3  -6 2039.10   58.79
  -3  -3  -6 2151.28   57.59
  -3  -3  -6 2152.48   58.09
   3   3   6 2106.19   55.19
   3   3   6 2068.79   55.69
   3   3   6 2062.69   57.59
   3   3   6 2165.58   57.59
   3   3   6 2102.29   53.29
  -4  -3  -6   10.80    2.40
  -4  -3  -6   12.30    2.40
  -4  -3  -6   12.40    2.60
  -4  -3  -6    8.70    1.70
  -4  -3  -6   20.80    3.50
  -4  -3  -6   11.80    2.40
   4   3   6    9.30    2.60
   4   3   6    7.00    1.40
   4   3   6    9.80    1.90
   4   3   6   10.50    2.40
   4   3   6   12.90    2.50
  -5  -3  -6 2600.14   69.49
  -5  -3  -6 2515.25   70.99
  -5  -3  -6 2515.05   72.79
  -5  -3  -6 2611.84   72.19
   5   3   6 2580.94   66.99
   5   3   6 2634.84   69.49
   5   3   6 2641.44   70.49
  -6  -3  -6   19.10    3.90
  -6  -3  -6   19.90    4.30
  -6  -3  -6   20.00    4.20
   6   3   6   19.80    3.40
   6   3   6   25.10    3.10
   6   3   6   31.40    3.70
   6   3   6   19.80    3.20
   6   3   6   18.90    2.90
  -7  -3  -6 1298.17   45.80
  -7  -3  -6 1318.37   45.10
  -7  -3  -6 1288.77   44.30
   7   3   6 1348.57   39.60
   7   3   6 1310.47   38.30
   7   3   6 1258.37   39.40
   7   3   6 1342.87   39.70
   7   3   6 1373.76   41.40
  -8  -3  -6   35.60    6.40
  -8  -3  -6   29.80    5.60
  -8  -3  -6   31.90    6.00
   8   3   6   22.70    3.90
   8   3   6   29.00    4.20
   8   3   6   29.00    4.30
   8   3   6   28.00    3.80
   8   3   6   29.90    4.30
   6  -4  -6  885.31   38.10
   6  -4  -6  944.31   31.20
  -6   4   6  970.60   35.80
   5  -4  -6  884.61   36.00
   5  -4  -6  961.10   31.20
  -5   4   6  923.81   33.10
  -5   4   6  911.71   29.80
   4  -4  -6 1447.96   49.30
   4  -4  -6 1519.65   45.40
  -4   4   6 1569.04   45.80
   3  -4  -6 2393.46   61.29
   3  -4  -6 2398.36   67.19
   3  -4  -6 2319.87   68.89
  -3   4   6 2471.55   63.19
  -3   4   6 2311.87   63.99
  -3   4   6 2447.35   64.29
  -3   4   6 2413.66   69.39
   2  -4  -6 1964.40   55.09
   2  -4  -6 1907.71   54.09
   2  -4  -6 1872.31   55.29
   2  -4  -6 1933.71   50.29
  -2   4   6 1910.91   55.29
  -2   4   6 1815.22   49.90
  -2   4   6 1939.61   51.99
  -2   4   6 1865.01   49.99
   1  -4  -6 3156.98   79.59
   1  -4  -6 3002.70   82.29
   1  -4  -6 3109.39   75.49
   1  -4  -6 3066.39   82.29
   1  -4  -6 3130.29   82.29
  -1   4   6 3134.09   76.59
  -1   4   6 3217.88   80.49
  -1   4   6 3113.29   79.49
  -1   4   6 3062.89   82.09
  -1   4   6 3119.79   82.19
  -1   4   6 3155.38   82.59
   0  -4  -6 1022.40   32.30
   0  -4  -6 1067.19   30.80
   0  -4  -6 1038.50   30.90
   0  -4  -6 1050.09   28.10
   0  -4  -6 1027.10   32.10
   0   4   6  976.90   30.00
   0   4   6 1002.50   30.40
   0   4   6 1023.80   32.00
   0   4   6 1076.59   30.90
   0   4   6 1044.00   31.80
  -1  -4  -6 3545.85   90.09
  -1  -4  -6 3499.15   87.79
  -1  -4  -6 3541.75   87.99
  -1  -4  -6 3520.15   90.49
   1   4   6 3638.14   90.09
   1   4   6 3358.36   87.39
   1   4   6 3498.95   90.79
   1   4   6 3410.56   89.69
  -2  -4  -6  799.62   25.30
  -2  -4  -6  817.42   25.70
  -2  -4  -6  810.52   26.70
  -2  -4  -6  799.42   26.30
  -2  -4  -6  802.02   22.50
   2   4   6  820.22   24.90
   2   4   6  827.02   25.80
   2   4   6  821.32   26.40
   2   4   6  800.52   26.30
   2   4   6  823.12   22.30
   2   4   6  798.92   22.60
  -3  -4  -6 1731.13   49.30
  -3  -4  -6 1748.23   49.20
  -3  -4  -6 1772.62   47.80
   3   4   6 1754.52   47.10
   3   4   6 1750.82   48.30
   3   4   6 1764.12   49.30
   3   4   6 1755.02   43.30
   3   4   6 1697.03   49.70
   3   4   6 1768.32   46.40
  -4  -4  -6  439.76   15.80
  -4  -4  -6  436.36   18.70
  -4  -4  -6  441.66   17.20
  -4  -4  -6  439.26   18.10
   4   4   6  434.56   16.90
   4   4   6  443.96   14.20
   4   4   6  434.56   17.90
   4   4   6  430.46   17.00
   4   4   6  439.16   16.40
  -5  -4  -6  332.37   16.40
  -5  -4  -6  322.07   12.70
  -5  -4  -6  312.37   15.60
  -5  -4  -6  343.77   14.50
   5   4   6  300.87   13.20
   5   4   6  339.87   10.70
   5   4   6  327.37   15.30
   5   4   6  319.67   10.30
   5   4   6  297.07   13.80
   5   4   6  318.57   10.30
  -6  -4  -6  100.69    9.20
  -6  -4  -6  123.39    9.70
  -6  -4  -6  107.99    8.90
   6   4   6  118.69    8.00
   6   4   6  116.39    7.50
   6   4   6  122.39    9.00
   6   4   6  121.49    6.10
  -7  -4  -6   31.20    5.40
  -7  -4  -6   29.40    5.30
   7   4   6   36.80    3.50
   7   4   6   32.50    4.10
   7   4   6   28.10    4.10
   7   4   6   32.20    4.10
   7   4   6   25.30    5.60
  -8  -4  -6  125.19   11.30
  -8  -4  -6  133.99   12.00
   8   4   6  145.79   10.00
   8   4   6  117.19    8.20
   8   4   6  119.79    7.80
   8   4   6  135.09    8.50
   8   4   6  122.09    8.50
   6  -5  -6  154.18   13.00
   6  -5  -6  179.78   11.50
   6  -5  -6  166.58   20.20
  -6   5   6  158.18   15.40
  -6   5   6  141.89   10.00
   5  -5  -6   83.69    8.80
   5  -5  -6   70.69    7.10
   5  -5  -6   76.39    9.20
  -5   5   6   84.79    8.20
   4  -5  -6  191.88   13.70
   4  -5  -6  182.48   13.10
   4  -5  -6  193.78   11.80
  -4   5   6  183.28   10.50
  -4   5   6  192.98   11.50
   3  -5  -6  695.53   28.10
   3  -5  -6  683.33   26.00
  -3   5   6  694.93   24.30
  -3   5   6  721.03   24.50
   2  -5  -6  322.17   16.00
   2  -5  -6  311.87   15.30
   2  -5  -6  321.27   15.70
  -2   5   6  327.77   12.10
  -2   5   6  351.66   16.60
  -2   5   6  320.27   12.90
  -2   5   6  299.07   15.40
   1  -5  -6 1763.42   52.39
   1  -5  -6 1822.92   46.50
   1  -5  -6 1767.22   53.39
   1  -5  -6 1895.41   53.79
  -1   5   6 1891.61   49.99
  -1   5   6 1844.52   48.10
  -1   5   6 1860.81   51.09
  -1   5   6 1867.41   53.79
   0  -5  -6 1116.79   36.10
   0  -5  -6 1149.69   31.60
   0  -5  -6 1142.99   37.10
   0  -5  -6 1143.39   34.20
   0   5   6 1168.58   34.20
   0   5   6 1144.69   36.20
   0   5   6 1209.68   36.50
   0   5   6 1150.08   34.10
  -1  -5  -6 3529.65   95.59
  -1  -5  -6 3679.23   92.49
  -1  -5  -6 3660.93   91.89
   1   5   6 3774.02   93.59
   1   5   6 3706.33   94.79
   1   5   6 3610.94   95.69
   1   5   6 3672.03   95.19
  -2  -5  -6 1435.86   43.80
  -2  -5  -6 1414.96   36.80
  -2  -5  -6 1432.46   41.90
  -2  -5  -6 1342.47   40.40
   2   5   6 1451.25   42.40
   2   5   6 1384.16   41.90
   2   5   6 1512.55   38.30
   2   5   6 1441.26   42.10
   2   5   6 1390.16   40.90
  -3  -5  -6 2893.11   76.49
  -3  -5  -6 2958.20   77.19
  -3  -5  -6 2826.02   82.39
   3   5   6 2897.21   75.49
   3   5   6 2945.51   74.79
   3   5   6 2877.71   77.19
   3   5   6 2847.42   77.19
   3   5   6 2910.21   78.19
  -4  -5  -6 1391.56   39.90
  -4  -5  -6 1329.57   41.80
  -4  -5  -6 1362.26   42.60
   4   5   6 1361.16   40.80
   4   5   6 1373.06   38.30
   4   5   6 1386.06   40.80
   4   5   6 1351.16   42.00
  -5  -5  -6 1325.47   38.80
  -5  -5  -6 1310.97   42.40
  -5  -5  -6 1301.47   39.80
  -5  -5  -6 1338.57   42.40
   5   5   6 1342.87   40.00
   5   5   6 1335.67   40.00
   5   5   6 1299.67   41.60
   5   5   6 1307.67   36.30
  -6  -5  -6  969.30   30.50
  -6  -5  -6  968.20   31.40
  -6  -5  -6 1009.40   35.40
  -6  -5  -6  898.61   34.40
   6   5   6  959.00   31.50
   6   5   6  986.90   31.60
   6   5   6 1027.50   39.70
   6   5   6  943.51   27.00
  -7  -5  -6  423.56   21.80
  -7  -5  -6  438.56   21.90
  -7  -5  -6  476.75   18.60
   7   5   6  467.15   13.90
   7   5   6  447.86   18.90
   7   5   6  445.56   18.30
   7   5   6  465.95   20.80
  -8  -5  -6  242.38   16.40
  -8  -5  -6  203.98   15.00
   8   5   6  221.48   14.00
   8   5   6  221.78   12.00
   8   5   6  219.18   11.50
   8   5   6  224.68   12.70
   8   5   6  252.97   10.20
   5  -6  -6 1587.14   55.79
   5  -6  -6 1580.54   50.39
   5  -6  -6 1529.25   52.49
  -5   6   6 1567.94   50.89
  -5   6   6 1586.84   48.40
   4  -6  -6   92.49    9.70
   4  -6  -6   99.79    9.00
   4  -6  -6  116.09   10.20
  -4   6   6   97.59    8.00
  -4   6   6  102.89    8.60
   3  -6  -6 1953.00   58.79
   3  -6  -6 1905.31   60.19
  -3   6   6 1911.81   60.59
  -3   6   6 2003.30   56.09
   2  -6  -6  256.87   14.50
   2  -6  -6  274.07   15.00
   2  -6  -6  263.87    9.10
  -2   6   6  268.77   15.00
  -2   6   6  273.77   11.00
  -2   6   6  263.07   12.90
  -2   6   6  257.47   12.10
   1  -6  -6 1572.64   46.10
   1  -6  -6 1509.55   47.10
   1  -6  -6 1502.05   40.20
   1  -6  -6 1501.35   47.00
  -1   6   6 1480.75   41.90
  -1   6   6 1484.35   47.20
  -1   6   6 1511.35   42.60
  -1   6   6 1526.35   44.30
   0  -6  -6   97.29    8.00
   0  -6  -6   91.29    6.70
   0  -6  -6   99.89    5.90
   0   6   6   94.09    7.90
   0   6   6  114.39    7.50
   0   6   6   89.29    6.50
  -1  -6  -6  325.77   15.90
  -1  -6  -6  333.17   12.90
  -1  -6  -6  337.77   15.80
  -1  -6  -6  323.07   13.30
   1   6   6  343.27   15.70
   1   6   6  316.57   14.40
   1   6   6  321.97   15.60
   1   6   6  336.67   14.00
  -2  -6  -6   13.60    3.20
  -2  -6  -6   13.80    2.60
  -2  -6  -6   13.40    2.90
  -2  -6  -6   12.10    1.60
   2   6   6   12.60    3.50
   2   6   6   11.20    3.00
   2   6   6   14.30    2.50
   2   6   6   14.00    3.00
   2   6   6   13.30    2.90
  -3  -6  -6   59.29    5.90
  -3  -6  -6   40.50    4.70
  -3  -6  -6   40.70    4.70
   3   6   6   34.20    3.80
   3   6   6   48.20    5.20
   3   6   6   44.50    5.10
   3   6   6   37.20    4.50
   3   6   6   38.00    4.60
  -4  -6  -6  154.28   10.10
  -4  -6  -6  153.88    9.50
  -4  -6  -6  142.89   12.30
  -4  -6  -6  150.18    9.80
   4   6   6  154.08    9.20
   4   6   6  165.38   10.10
   4   6   6  155.28    8.80
   4   6   6  152.78    9.70
  -5  -6  -6    5.80    2.10
  -5  -6  -6    4.50    2.20
  -5  -6  -6    6.40    2.30
  -5  -6  -6    5.50    2.50
   5   6   6   10.20    2.90
   5   6   6    4.50    1.60
   5   6   6    6.80    2.10
   5   6   6    4.30    1.80
  -6  -6  -6  503.15   22.10
  -6  -6  -6  437.66   21.40
  -6  -6  -6  462.45   19.00
  -6  -6  -6  473.35   26.60
   6   6   6  461.45   19.80
   6   6   6  462.85   21.20
   6   6   6  468.85   19.20
   6   6   6  467.95   16.80
  -7  -6  -6   45.70    6.50
  -7  -6  -6   35.20    4.60
  -7  -6  -6   40.30    6.20
   7   6   6   23.80    3.90
   7   6   6   37.20    3.40
   7   6   6   38.00    5.10
   7   6   6   32.50    5.20
  -8  -6  -6  303.07   18.70
  -8  -6  -6  336.17   19.40
   8   6   6  306.47   14.80
   8   6   6  313.37   15.90
   8   6   6  300.07   10.70
   8   6   6  279.27   16.70
   8   6   6  294.07   13.70
   4  -7  -6  340.57   20.60
   4  -7  -6  369.06   20.40
   4  -7  -6  408.36   20.30
  -4   7   6  355.96   18.20
  -4   7   6  389.26   18.10
  -4   7   6  348.07   20.10
   3  -7  -6   72.69    8.10
   3  -7  -6   87.19    8.80
   3  -7  -6   73.49    8.00
   3  -7  -6   72.79    4.00
  -3   7   6   73.69    4.80
  -3   7   6   68.79    6.90
  -3   7   6   83.49    8.70
  -3   7   6   74.99    7.20
   2  -7  -6 1212.38   41.00
   2  -7  -6 1132.09   32.10
   2  -7  -6 1134.39   40.00
  -2   7   6 1213.68   34.00
  -2   7   6 1167.28   36.60
   1  -7  -6  126.59    9.30
   1  -7  -6  122.39    9.90
   1  -7  -6  118.09    6.60
  -1   7   6  124.09   10.10
  -1   7   6  110.19    7.20
  -1   7   6  106.29    7.30
  -1   7   6  114.59    8.30
   0  -7  -6 1991.80   53.79
   0  -7  -6 1989.70   55.99
   0  -7  -6 1955.20   59.29
   0  -7  -6 2004.90   59.79
   0   7   6 1966.80   59.69
   0   7   6 1982.20   55.69
  -1  -7  -6    2.70    1.50
  -1  -7  -6    3.50    1.80
  -1  -7  -6    2.40    1.50
  -1  -7  -6    4.60    1.60
   1   7   6    3.10    1.70
   1   7   6    3.40    1.90
   1   7   6    2.20    1.60
  -2  -7  -6 2487.65   72.39
  -2  -7  -6 2480.65   71.79
  -2  -7  -6 2513.65   64.19
  -2  -7  -6 2626.84   69.99
   2   7   6 2635.84   69.09
   2   7   6 2550.14   72.19
   2   7   6 2575.74   71.79
   2   7   6 2536.65   70.99
  -3  -7  -6    4.20    1.80
  -3  -7  -6    4.40    1.90
   3   7   6    9.90    3.30
   3   7   6   15.00    3.10
   3   7   6    2.50    1.40
   3   7   6    2.40    1.80
  -4  -7  -6 1269.17   40.10
  -4  -7  -6 1227.68   40.00
  -4  -7  -6 1256.77   39.70
   4   7   6 1255.57   38.60
   4   7   6 1195.98   36.70
   4   7   6 1204.38   53.19
   4   7   6 1268.77   40.60
   4   7   6 1146.79   42.70
   4   7   6 1227.18   38.40
  -5  -7  -6   77.29    7.90
  -5  -7  -6   77.69    7.10
  -5  -7  -6   74.59    6.80
  -5  -7  -6   78.89    7.60
   5   7   6   76.69    6.50
   5   7   6   78.49    7.70
   5   7   6  106.69    8.70
  -6  -7  -6  246.98   13.30
  -6  -7  -6  254.57   15.50
  -6  -7  -6  283.07   15.60
  -6  -7  -6  250.57   13.60
   6   7   6  247.58   12.40
   6   7   6  248.18   15.20
   6   7   6  242.38   14.10
  -7  -7  -6  115.09   10.20
  -7  -7  -6  108.79   10.60
  -7  -7  -6  114.39    8.60
   7   7   6  122.79    9.70
   7   7   6  113.19    8.80
   7   7   6  125.99    8.00
   7   7   6  120.89   10.60
  -8  -7  -6    2.60    2.60
  -8  -7  -6    4.10    2.50
  -8  -7  -6    0.50    1.60
   8   7   6    1.20    2.10
   8   7   6    6.10    2.70
   8   7   6   11.20    2.60
   3  -8  -6   87.29    9.70
   3  -8  -6   85.89    9.10
   3  -8  -6   81.39    5.00
   3  -8  -6  102.79   10.30
  -3   8   6   83.29    8.20
  -3   8   6   78.89    9.20
  -3   8   6   90.09    8.20
  -3   8   6   77.69    4.90
   2  -8  -6  458.65   22.10
   2  -8  -6  454.95   15.90
   2  -8  -6  426.66   22.00
   2  -8  -6  477.45   22.80
  -2   8   6  439.56   19.40
  -2   8   6  428.26   22.70
  -2   8   6  436.06   16.30
  -2   8   6  420.86   19.30
   1  -8  -6   61.89    7.00
   1  -8  -6   73.39    8.20
   1  -8  -6   73.79    5.60
  -1   8   6   80.19    6.80
  -1   8   6   71.39    6.10
  -1   8   6   66.99    7.80
   0  -8  -6  111.99    9.90
   0  -8  -6  106.19    8.10
   0  -8  -6  109.69    7.40
   0   8   6  102.79    9.50
   0   8   6  103.49    7.90
  -1  -8  -6  186.38    9.70
  -1  -8  -6  201.98   13.20
  -1  -8  -6  180.58   10.40
   1   8   6  177.78   12.60
   1   8   6  187.68   11.20
  -2  -8  -6   62.29    7.30
  -2  -8  -6   67.19    7.50
  -2  -8  -6   55.79    4.10
   2   8   6   64.09    7.10
   2   8   6   72.69    7.40
   2   8   6   70.39    7.10
   2   8   6   69.79    6.20
  -3  -8  -6  124.89   10.00
  -3  -8  -6  133.09    9.80
   3   8   6  139.79   10.10
   3   8   6  130.09   10.20
   3   8   6  131.99    8.70
   3   8   6  136.59   10.10
  -4  -8  -6  134.99   10.60
  -4  -8  -6  163.78   11.40
   4   8   6  158.28    9.40
   4   8   6  144.79   11.20
   4   8   6  157.58   11.60
   4   8   6  174.18   11.10
  -5  -8  -6  255.17   14.30
  -5  -8  -6  232.38   14.80
  -5  -8  -6  233.78   13.90
   5   8   6  235.88   14.10
   5   8   6  245.28   14.80
   5   8   6  251.17   12.20
   5   8   6  249.08   13.70
  -6  -8  -6  185.78   13.60
  -6  -8  -6  176.48   11.60
  -6  -8  -6  177.68   12.30
   6   8   6  187.58   13.50
   6   8   6  169.38   11.10
   6   8   6  187.88   12.80
   6   8   6  185.18   10.30
  -7  -8  -6  193.78   11.90
  -7  -8  -6  207.98   15.00
  -7  -8  -6  189.58   13.30
  -7  -8  -6  177.38   12.20
   7   8   6  180.58   11.10
   7   8   6  181.98   13.00
   7   8   6  193.68   10.60
   7   8   6  191.28   14.00
   2  -9  -6  909.21   36.70
   2  -9  -6  887.91   28.20
   2  -9  -6  911.71   35.50
   2  -9  -6  931.71   36.80
  -2   9   6  890.21   28.30
  -2   9   6  875.61   37.10
  -2   9   6  912.51   33.30
  -2   9   6  910.51   33.00
   1  -9  -6 1543.75   45.80
   1  -9  -6 1587.84   53.79
   1  -9  -6 1624.34   57.39
  -1   9   6 1591.24   54.39
  -1   9   6 1567.24   46.50
  -1   9   6 1584.84   49.00
  -1   9   6 1644.94   51.29
   0  -9  -6  653.73   28.80
   0  -9  -6  534.95   26.20
   0  -9  -6  663.13   23.80
   0  -9  -6  697.43   25.60
   0   9   6  676.03   25.50
   0   9   6  657.13   29.10
   0   9   6  653.53   24.60
  -1  -9  -6 1495.25   44.70
  -1  -9  -6 1545.65   51.59
  -1  -9  -6 1646.74   47.40
   1   9   6 1570.24   60.29
   1   9   6 1418.06   50.79
   1   9   6 1562.04   47.40
  -2  -9  -6  101.19    9.60
  -2  -9  -6  118.49    9.20
  -2  -9  -6   98.39    9.60
  -2  -9  -6  116.59    6.60
   2   9   6  100.59    9.70
   2   9   6  114.79    8.60
   2   9   6  113.69    9.40
   2   9   6  106.09   11.60
  -3  -9  -6 1272.07   43.80
  -3  -9  -6 1323.77   44.80
  -3  -9  -6 1284.17   42.70
   3   9   6 1299.57   43.60
   3   9   6 1251.17   43.40
   3   9   6 1311.77   44.70
   3   9   6 1276.37   40.20
  -4  -9  -6    2.00    1.80
  -4  -9  -6    4.20    2.30
  -4  -9  -6   -0.30    1.50
   4   9   6    4.20    2.00
   4   9   6    6.00    2.80
   4   9   6    5.40    2.50
   4   9   6    3.10    1.50
  -5  -9  -6  364.86   18.70
  -5  -9  -6  407.06   20.60
  -5  -9  -6  338.47   17.70
  -5  -9  -6  370.26   19.20
   5   9   6  366.46   20.10
   5   9   6  369.36   16.50
   5   9   6  382.96   19.90
   5   9   6  379.06   18.70
  -6  -9  -6   88.59    9.50
  -6  -9  -6   74.59    8.20
  -6  -9  -6   92.49    8.80
  -6  -9  -6   90.29    8.30
   6   9   6   77.49    9.30
   6   9   6   97.19    9.80
   6   9   6   83.89    8.10
   6   9   6   84.09    7.00
  -7  -9  -6   44.30    6.60
  -7  -9  -6   46.00    6.40
  -7  -9  -6   43.40    6.60
  -7  -9  -6   53.39    7.70
   7   9   6   49.30    6.40
   7   9   6   38.40    7.80
   7   9   6   34.30    4.80
   7   9   6   40.40    7.30
   1 -10  -6   33.00    4.60
   1 -10  -6   31.80    6.50
   1 -10  -6   43.70    6.70
  -1  10   6   32.00    5.40
  -1  10   6   31.80    6.50
  -1  10   6   24.90    4.70
   0 -10  -6   19.40    4.90
   0 -10  -6   34.60    4.70
   0 -10  -6   34.00    5.20
   0  10   6   28.90    5.20
   0  10   6   30.80    6.40
   0  10   6   25.20    4.90
  -1 -10  -6  252.87   16.90
  -1 -10  -6  244.28   16.20
  -1 -10  -6  238.88   12.50
  -1 -10  -6  254.27   14.00
   1  10   6  210.48   15.70
   1  10   6  257.67   14.40
   1  10   6  244.78   14.00
  -2 -10  -6  111.99   10.40
  -2 -10  -6  114.59   10.70
  -2 -10  -6   93.59    8.60
  -2 -10  -6  102.09    6.50
   2  10   6  108.49   10.80
   2  10   6   87.59    9.60
   2  10   6  101.59    9.20
   2  10   6   98.79    9.40
  -3 -10  -6  534.15   32.90
  -3 -10  -6  603.64   27.20
  -3 -10  -6  578.24   25.20
   3  10   6  533.35   25.60
   3  10   6  566.04   22.90
   3  10   6  569.44   26.50
   3  10   6  576.64   25.60
  -4 -10  -6  128.29   11.10
  -4 -10  -6  123.09   10.90
  -4 -10  -6  100.49    9.90
   4  10   6  120.19   11.30
   4  10   6  130.99   11.20
   4  10   6  105.59   10.70
   4  10   6  119.19    9.00
  -5 -10  -6  309.97   18.10
  -5 -10  -6  320.47   18.70
  -5 -10  -6  319.57   16.90
  -5 -10  -6  314.57   18.80
   5  10   6  324.87   15.70
   5  10   6  294.87   17.40
   5  10   6  354.76   19.90
   5  10   6  323.97   19.50
  -6 -10  -6  283.87   18.10
  -6 -10  -6  254.97   16.30
  -6 -10  -6  253.57   15.60
  -6 -10  -6  259.07   15.20
   6  10   6  236.08   17.20
   6  10   6  232.98   14.90
   6  10   6  228.38   12.80
   6  10   6  231.38   16.20
  -2 -11  -6   68.59    5.70
  -2 -11  -6   61.09    7.20
  -2 -11  -6   79.29    9.30
   2  11   6   68.19    9.30
   2  11   6   62.19    8.50
   2  11   6   50.59    7.70
   2  11   6   55.19    7.60
  -3 -11  -6   49.20    6.70
  -3 -11  -6   63.89    8.00
   3  11   6   49.50    6.30
   3  11   6   45.20    7.10
   3  11   6   40.80    7.60
   3  11   6   39.50    6.90
   4   8  -7 1061.69   38.80
   4   8  -7 1057.99   39.00
   4   8  -7 1014.90   39.70
  -4  -8   7 1033.40   29.30
  -4  -8   7 1018.80   40.50
  -4  -8   7 1053.89   34.30
   3   8  -7   94.89    9.40
   3   8  -7  112.69   10.00
   3   8  -7  104.99   10.30
  -3  -8   7  118.59    7.20
  -3  -8   7  107.19   10.70
   2   8  -7  909.01   35.10
   2   8  -7  844.72   33.10
   2   8  -7  840.22   32.30
  -2  -8   7  905.01   35.80
  -2  -8   7  857.01   28.00
   1   8  -7  202.28   13.40
   1   8  -7  196.78   14.00
   1   8  -7  203.98   13.10
   1   8  -7  181.08   10.80
  -1  -8   7  185.08   10.60
  -1  -8   7  200.78   15.00
  -1  -8   7  181.28   11.70
   0   8  -7  189.08   12.50
   0   8  -7  184.58   11.50
   0   8  -7  208.88   13.10
   0   8  -7  169.68   13.10
   0  -8   7  192.78   11.70
   0  -8   7  181.38   14.70
   0  -8   7  187.08   11.10
  -1   8  -7  216.68   19.00
  -1   8  -7  272.07   16.80
  -1   8  -7  286.47   15.50
  -1   8  -7  280.27   14.50
   1  -8   7  288.17   14.30
   1  -8   7  302.47   19.30
   1  -8   7  281.07   14.70
  -2   8  -7    0.60    2.10
  -2   8  -7   -0.40    2.00
  -2   8  -7   -0.40    2.10
   2  -8   7    3.30    1.70
   5   7  -7   21.60    4.90
   5   7  -7   12.70    3.70
  -5  -7   7   11.80    4.30
  -5  -7   7   18.80    3.70
  -5  -7   7   23.60    4.70
   4   7  -7    8.10    3.00
   4   7  -7    5.60    2.60
  -4  -7   7   11.80    2.00
  -4  -7   7    8.00    3.50
  -4  -7   7   11.50    3.10
   3   7  -7  106.49    9.10
   3   7  -7  100.79    9.10
  -3  -7   7  116.59   10.50
  -3  -7   7   97.99    9.80
  -3  -7   7  113.99    6.50
   2   7  -7  132.29   10.50
   2   7  -7  137.59   10.10
   2   7  -7  156.88   11.60
  -2  -7   7  148.09    8.10
  -2  -7   7  126.09   11.10
   1   7  -7  187.98   12.90
   1   7  -7  198.38   12.00
   1   7  -7  188.28   12.10
  -1  -7   7  177.88    9.80
  -1  -7   7  200.78   14.30
   0   7  -7   74.29    6.50
   0   7  -7   72.49    7.00
   0   7  -7   71.39    7.70
   0  -7   7   78.89    6.60
   0  -7   7   70.59    8.50
   0  -7   7   81.49    6.70
  -1   7  -7  402.06   22.50
  -1   7  -7  390.76   17.70
  -1   7  -7  386.76   17.00
   1  -7   7  383.16   21.40
   1  -7   7  375.86   16.10
   1  -7   7  359.66   16.70
  -2   7  -7   11.00    3.80
  -2   7  -7   13.90    3.30
  -2   7  -7    4.40    2.40
   2  -7   7    7.20    1.80
   2  -7   7    8.70    2.90
  -3   7  -7  357.86   24.90
  -3   7  -7  266.97   15.70
   3  -7   7  286.07   12.70
   3  -7   7  317.97   16.40
   6   6  -7  644.64   28.30
   6   6  -7  659.03   28.30
   6   6  -7  632.94   26.80
  -6  -6   7  648.74   28.80
  -6  -6   7  627.64   26.90
  -6  -6   7  614.34   29.20
  -6  -6   7  632.94   19.40
   5   6  -7 1378.76   47.30
   5   6  -7 1451.85   47.40
  -5  -6   7 1433.76   48.60
  -5  -6   7 1541.35   50.29
  -5  -6   7 1416.26   41.10
   4   6  -7  248.68   14.40
   4   6  -7  230.78   13.80
  -4  -6   7  231.68    7.90
  -4  -6   7  231.48   13.70
  -4  -6   7  221.48   11.50
   3   6  -7 1596.34   49.10
  -3  -6   7 1596.04   42.40
  -3  -6   7 1590.14   47.10
   2   6  -7    0.00    1.00
  -2  -6   7    1.40    1.00
  -2  -6   7    0.10    0.40
  -2  -6   7   -0.40    0.80
   1   6  -7 1103.39   35.10
   1   6  -7 1061.79   36.70
  -1  -6   7 1079.49   32.40
   0   6  -7   79.09    7.50
   0   6  -7   79.09    6.40
   0   6  -7   86.59    7.00
   0  -6   7   92.79    6.70
   0  -6   7   80.99    6.30
  -1   6  -7  175.88   10.50
  -1   6  -7  186.08   11.80
  -1   6  -7  180.18    9.90
  -1   6  -7  138.29    9.90
   1  -6   7  171.98    9.20
   1  -6   7  172.08    9.90
  -2   6  -7  205.88   11.80
  -2   6  -7  197.88   11.90
  -2   6  -7  198.98   10.00
  -2   6  -7  223.48   13.00
   2  -6   7  211.68   11.70
   2  -6   7  202.78    9.70
  -3   6  -7    7.50    2.70
  -3   6  -7    3.40    2.00
  -3   6  -7    6.50    2.80
   3  -6   7    3.50    1.60
   3  -6   7    5.80    1.80
  -4   6  -7  128.89    9.80
  -4   6  -7  103.49    8.10
   4  -6   7  106.29    6.10
   4  -6   7   87.59    8.40
   7   5  -7   53.69    7.60
   7   5  -7   52.19    6.50
   7   5  -7   45.60    6.90
  -7  -5   7   51.99    8.60
  -7  -5   7   53.59    6.80
  -7  -5   7   55.99    7.60
   6   5  -7   47.00    7.00
   6   5  -7   51.49    6.60
   6   5  -7   54.89    7.20
  -6  -5   7   45.50    7.00
  -6  -5   7   48.20    7.40
  -6  -5   7   51.19    6.40
   5   5  -7  240.48   14.40
   5   5  -7  238.98   13.90
   5   5  -7  229.38   14.60
  -5  -5   7  222.08   17.30
  -5  -5   7  244.88   10.30
  -5  -5   7  250.47   15.80
   4   5  -7  117.49    9.20
   4   5  -7  110.09    8.90
   4   5  -7  112.99    9.60
  -4  -5   7  124.69    9.90
  -4  -5   7  124.39    7.50
   3   5  -7  769.92   27.70
  -3  -5   7  761.52   21.90
  -3  -5   7  739.73   25.60
  -3  -5   7  761.12   27.60
  -3  -5   7  808.12   30.60
   2   5  -7  327.77   14.80
  -2  -5   7  331.97   17.20
  -2  -5   7  319.67   13.80
  -2  -5   7  305.07   11.70
   1   5  -7 1124.99   36.00
   1   5  -7 1057.09   29.00
   1   5  -7 1128.79   34.20
  -1  -5   7 1078.79   31.80
  -1  -5   7 1120.59   38.60
  -1  -5   7 1071.69   31.00
   0   5  -7  497.55   16.30
   0   5  -7  474.75   19.70
   0   5  -7  504.85   18.50
   0   5  -7  473.05   19.60
   0  -5   7  467.25   22.10
   0  -5   7  486.65   17.60
  -1   5  -7  528.15   20.70
  -1   5  -7  505.45   18.50
  -1   5  -7  514.25   20.60
  -1   5  -7  522.35   18.60
   1  -5   7  503.85   17.50
   1  -5   7  508.35   19.00
  -2   5  -7  645.64   23.50
  -2   5  -7  644.74   23.50
  -2   5  -7  630.64   23.70
  -2   5  -7  599.34   20.20
   2  -5   7  648.14   23.00
   2  -5   7  608.34   19.70
  -3   5  -7   58.19    6.70
  -3   5  -7   68.29    6.20
  -3   5  -7   58.39    5.90
   3  -5   7   64.59    4.30
   3  -5   7   77.19    6.90
  -4   5  -7  305.87   14.80
  -4   5  -7  328.57   15.40
  -4   5  -7  328.57   20.60
   4  -5   7  329.07   16.00
   4  -5   7  308.87   10.80
  -5   5  -7   46.30    7.90
  -5   5  -7   49.30    5.20
  -5   5  -7   45.10    5.90
   5  -5   7   36.40    5.60
   7   4  -7  470.25   21.10
   7   4  -7  507.95   24.10
   7   4  -7  448.36   23.70
  -7  -4   7  511.05   25.40
  -7  -4   7  510.15   21.10
  -7  -4   7  472.25   27.10
   6   4  -7  169.78   11.30
   6   4  -7  173.28   12.70
   6   4  -7  174.98   12.60
  -6  -4   7  188.88   11.40
  -6  -4   7  172.68   14.30
  -6  -4   7  181.68   13.30
   5   4  -7  347.27   18.70
   5   4  -7  381.76   18.30
   5   4  -7  360.86   17.10
  -5  -4   7  389.86   21.00
  -5  -4   7  358.76   12.70
   4   4  -7  209.08   14.90
   4   4  -7  230.38   17.40
   4   4  -7  223.28   12.40
  -4  -4   7  220.38   13.80
  -4  -4   7  217.28    9.80
  -4  -4   7  215.08   13.80
   3   4  -7   12.90    3.00
   3   4  -7   17.10    3.30
   3   4  -7   23.60    4.20
  -3  -4   7   15.60    3.60
  -3  -4   7   12.70    3.10
  -3  -4   7   19.60    1.90
  -3  -4   7   22.10    2.90
   2   4  -7  170.18    9.70
   2   4  -7  157.38    6.60
   2   4  -7  157.28    9.90
  -2  -4   7  162.48    9.20
  -2  -4   7  163.18   11.10
  -2  -4   7  167.68    7.20
   1   4  -7  165.98    9.00
   1   4  -7  163.78    7.10
   1   4  -7  170.58   10.10
  -1  -4   7  157.28    7.70
  -1  -4   7  178.08   11.50
   0   4  -7   27.20    2.80
   0   4  -7   22.60    3.00
   0  -4   7   31.60    4.70
   0  -4   7   26.40    3.10
  -1   4  -7  443.06   15.70
  -1   4  -7  460.65   16.80
  -1   4  -7  449.76   18.10
  -1   4  -7  452.55   17.70
   1  -4   7  457.85   20.90
   1  -4   7  438.76   14.20
   1  -4   7  476.15   17.10
  -2   4  -7   53.99    3.90
  -2   4  -7   70.89    6.00
  -2   4  -7   50.09    5.10
  -2   4  -7   49.80    5.10
   2  -4   7   68.09    5.70
   2  -4   7   54.99    3.70
  -3   4  -7  567.84   20.80
  -3   4  -7  577.74   20.60
  -3   4  -7  546.25   22.20
   3  -4   7  510.45   17.70
   3  -4   7  560.14   21.00
  -4   4  -7  111.29   11.40
  -4   4  -7  141.69    8.60
  -4   4  -7  115.79    9.80
  -4   4  -7  147.49    8.60
   4  -4   7  132.79    7.80
   4  -4   7  124.89    8.70
  -5   4  -7  267.17   16.60
  -5   4  -7  250.87   12.30
  -5   4  -7  243.78   17.60
  -5   4  -7  251.27   11.50
   5  -4   7  250.97   13.70
  -6   4  -7  105.29    6.50
  -6   4  -7  114.89    7.60
  -6   4  -7  109.29   12.00
   6  -4   7  104.69    9.00
   7   3  -7  105.99    9.50
   7   3  -7   90.29    7.90
   7   3  -7   90.19    9.60
  -7  -3   7   77.19   10.10
  -7  -3   7   99.89   11.40
  -7  -3   7   82.29    7.00
   6   3  -7  400.26   20.50
   6   3  -7  409.46   17.80
   6   3  -7  406.66   19.80
  -6  -3   7  385.16   23.00
  -6  -3   7  373.26   20.30
  -6  -3   7  391.16   16.70
   5   3  -7  192.88   11.30
   5   3  -7  203.18   13.30
   5   3  -7  196.78   12.50
  -5  -3   7  218.18   11.20
  -5  -3   7  203.08   14.70
  -5  -3   7  205.78    8.00
   4   3  -7  694.83   28.00
   4   3  -7  785.72   26.50
  -4  -3   7  716.13   29.30
  -4  -3   7  759.92   28.90
  -4  -3   7  721.43   22.40
   3   3  -7   37.90    5.20
   3   3  -7   35.20    4.40
   3   3  -7   34.70    4.40
  -3  -3   7   32.90    3.60
  -3  -3   7   38.20    2.50
  -3  -3   7   46.90    5.70
   2   3  -7 1012.10   31.30
   2   3  -7 1038.20   32.50
   2   3  -7  989.10   34.20
  -2  -3   7 1047.40   34.80
  -2  -3   7 1002.90   27.70
  -2  -3   7 1006.00   30.80
   1   3  -7   15.20    2.90
   1   3  -7   18.40    2.70
  -1  -3   7   21.70    3.70
  -1  -3   7   12.80    2.00
  -1  -3   7   18.00    3.00
   0   3  -7  517.45   17.20
   0   3  -7  535.35   19.60
   0   3  -7  483.05   16.70
   0  -3   7  509.95   21.20
   0  -3   7  502.15   19.20
   0  -3   7  510.05   17.10
  -1   3  -7  146.59    8.70
  -1   3  -7  140.79    8.00
  -1   3  -7  147.39    6.80
   1  -3   7  142.69    8.30
   1  -3   7  144.49   10.10
   1  -3   7  134.79    8.90
   1  -3   7  136.29    7.60
  -2   3  -7    0.90    1.20
  -2   3  -7    3.50    1.40
  -2   3  -7    1.40    0.70
  -2   3  -7    1.10    1.20
   2  -3   7    1.30    1.00
   2  -3   7    2.40    0.90
   2  -3   7    2.40    1.30
  -3   3  -7  249.28   11.10
  -3   3  -7  279.47   14.20
  -3   3  -7  241.98   11.80
   3  -3   7  268.57   11.90
   3  -3   7  238.78   11.80
   3  -3   7  232.98   11.10
  -4   3  -7  286.87   15.50
  -4   3  -7  272.37   16.70
  -4   3  -7  267.37   12.60
   4  -3   7  268.87   13.20
   4  -3   7  262.47   14.60
   4  -3   7  289.97   12.60
  -5   3  -7  130.39   10.90
  -5   3  -7  139.19    8.70
  -5   3  -7  120.89   11.40
  -5   3  -7  127.59    6.80
   5  -3   7  134.49    8.90
   5  -3   7  131.59    7.80
  -6   3  -7  626.14   22.90
  -6   3  -7  651.83   31.00
  -6   3  -7  659.63   29.90
   6  -3   7  679.93   22.20
   6  -3   7  640.44   25.20
  -7   3  -7   30.20    6.60
   7   2  -7    1.60    1.50
   7   2  -7    4.20    2.90
   7   2  -7    3.80    1.80
  -7  -2   7    2.40    1.80
  -7  -2   7   -0.10    1.50
  -7  -2   7    0.50    2.00
   6   2  -7  326.27   17.40
   6   2  -7  338.07   15.10
   6   2  -7  324.37   18.40
  -6  -2   7  319.67   18.60
  -6  -2   7  324.27   13.60
  -6  -2   7  325.97   21.10
   5   2  -7  165.58   11.90
   5   2  -7  152.58   10.50
   5   2  -7  153.08    9.30
  -5  -2   7  156.98    6.50
  -5  -2   7  160.48    8.50
  -5  -2   7  155.18   12.90
   4   2  -7   57.09    5.60
   4   2  -7   64.09    6.90
   4   2  -7   60.09    6.00
  -4  -2   7   64.09    7.70
  -4  -2   7   61.49    4.30
  -4  -2   7   54.99    6.50
   3   2  -7  189.18   11.70
   3   2  -7  187.78   10.30
   3   2  -7  174.78    9.80
  -3  -2   7  200.88   15.60
  -3  -2   7  186.48    6.80
   2   2  -7  245.78   11.30
   2   2  -7  261.57   12.00
   2   2  -7  243.88   13.10
  -2  -2   7  252.57   10.80
  -2  -2   7  228.58    9.50
  -2  -2   7  245.38   13.10
   1   2  -7  150.78    8.80
   1   2  -7  159.78    7.90
   1   2  -7  154.38    9.90
  -1  -2   7  164.08    7.20
  -1  -2   7  155.18    8.40
  -1  -2   7  151.58    9.70
   0   2  -7  985.60   28.80
   0   2  -7 1042.70   29.90
   0   2  -7 1012.50   31.30
   0  -2   7  982.70   33.00
   0  -2   7  977.60   31.10
   0  -2   7 1036.40   29.10
   0  -2   7 1052.69   31.20
  -1   2  -7   33.20    3.70
  -1   2  -7   38.80    4.20
  -1   2  -7   32.90    2.60
   1  -2   7   34.20    4.10
   1  -2   7   37.60    4.00
   1  -2   7   43.40    5.00
   1  -2   7   40.40    3.70
  -2   2  -7 1029.60   31.80
  -2   2  -7  994.20   30.90
   2  -2   7  973.60   33.50
   2  -2   7  988.60   30.10
   2  -2   7 1005.50   30.60
   2  -2   7 1010.10   32.40
  -3   2  -7    6.80    1.70
  -3   2  -7    2.20    2.00
  -3   2  -7    0.20    0.90
   3  -2   7   -0.50    0.80
   3  -2   7    2.00    1.70
   3  -2   7    0.10    0.60
   3  -2   7    0.70    1.00
  -4   2  -7  381.56   19.10
  -4   2  -7  365.36   12.70
  -4   2  -7  364.86   17.70
  -4   2  -7  383.06   15.50
   4  -2   7  353.56   14.60
   4  -2   7  382.16   17.60
   4  -2   7  365.76   15.60
  -5   2  -7    8.40    1.80
  -5   2  -7   12.80    2.90
  -5   2  -7    7.10    2.80
  -5   2  -7    9.10    3.70
   5  -2   7    7.50    2.10
   5  -2   7   11.60    3.30
   5  -2   7   11.60    2.60
  -6   2  -7   20.00    4.80
  -6   2  -7   27.40    5.40
  -6   2  -7   15.50    3.50
   6  -2   7   19.60    4.00
   6  -2   7   13.20    2.80
  -7   2  -7   54.19    8.30
  -7   2  -7   49.40    7.80
   7  -2   7   56.69    5.10
   7  -2   7   59.29    6.50
   7   1  -7  252.37   12.20
   7   1  -7  235.88   16.50
  -7  -1   7  244.38   17.10
  -7  -1   7  223.38   18.80
  -7  -1   7  246.38   10.60
   6   1  -7  337.37   19.10
  -6  -1   7  347.07   22.10
  -6  -1   7  346.67   13.00
  -6  -1   7  338.57   19.20
   5   1  -7  747.13   24.90
   5   1  -7  739.73   29.70
  -5  -1   7  738.13   32.60
  -5  -1   7  733.13   21.30
  -5  -1   7  762.62   22.60
   4   1  -7  294.87   12.70
   4   1  -7  275.47   15.10
  -4  -1   7  234.48   14.20
  -4  -1   7  273.27   10.60
  -4  -1   7  283.57    9.00
  -4  -1   7  282.37   10.60
   3   1  -7  920.11   32.00
   3   1  -7  938.41   29.00
  -3  -1   7  867.51   31.50
  -3  -1   7  948.21   27.30
   2   1  -7   32.10    3.70
   2   1  -7   30.30    4.30
  -2  -1   7   36.70    4.50
  -2  -1   7   30.90    3.20
   1   1  -7  900.01   29.80
   1   1  -7  864.81   27.60
  -1  -1   7  889.81   27.60
  -1  -1   7  879.51   27.00
  -1  -1   7  882.71   29.60
   0   1  -7 1011.30   30.10
   0   1  -7  997.10   27.50
   0  -1   7  999.80   30.20
   0  -1   7  931.71   29.50
   0  -1   7  973.20   31.50
  -1   1  -7  171.88    6.40
  -1   1  -7  174.28    9.10
  -1   1  -7  164.28    8.80
   1  -1   7  177.08    8.90
   1  -1   7  174.48    8.30
   1  -1   7  165.18    9.10
   1  -1   7  162.78    9.80
  -2   1  -7 2528.85   70.89
  -2   1  -7 2619.84   70.19
   2  -1   7 2582.64   69.69
   2  -1   7 2695.43   69.39
   2  -1   7 2771.12   71.59
   2  -1   7 2746.73   72.69
  -3   1  -7   50.49    5.50
  -3   1  -7   78.49    5.80
  -3   1  -7   57.59    3.50
  -3   1  -7   56.19    5.70
   3  -1   7   58.39    5.00
   3  -1   7   59.09    5.60
   3  -1   7   60.29    5.00
  -4   1  -7 2828.72   74.69
  -4   1  -7 2679.53   68.69
  -4   1  -7 2956.40   79.19
  -4   1  -7 2710.03   77.99
   4  -1   7 2794.22   73.79
   4  -1   7 2929.51   76.89
   4  -1   7 2765.52   74.49
  -5   1  -7  433.66   20.60
  -5   1  -7  442.56   17.20
  -5   1  -7  412.66   20.50
   5  -1   7  414.06   18.50
   5  -1   7  407.06   16.10
   5  -1   7  438.86   20.30
  -6   1  -7 1689.53   48.50
  -6   1  -7 1723.13   55.39
   6  -1   7 1613.94   50.49
   6  -1   7 1664.03   47.10
   6  -1   7 1638.64   49.20
  -7   1  -7  511.45   26.20
  -7   1  -7  486.85   25.80
   7  -1   7  531.95   21.40
   7  -1   7  507.05   18.80
   7   0  -7   36.70    6.70
   7   0  -7   39.20    4.20
  -7   0   7   42.70    8.40
  -7   0   7   45.20    7.40
   6   0  -7    0.40    1.10
   6   0  -7    0.30    1.50
  -6   0   7    1.10    0.70
  -6   0   7   -0.60    1.50
  -6   0   7    3.20    1.10
  -6   0   7   -1.30    1.20
   5   0  -7   10.70    3.50
   5   0  -7   12.10    2.50
  -5   0   7    9.10    1.60
  -5   0   7   10.30    1.60
   4   0  -7  195.88    9.70
   4   0  -7  214.48   13.10
   4   0  -7  195.18    8.60
   4   0  -7  182.28   10.40
  -4   0   7  196.48    7.70
  -4   0   7  195.08    7.20
  -4   0   7  180.88    8.50
   3   0  -7  162.08    7.90
   3   0  -7  154.58   10.40
   3   0  -7  159.98    8.50
   3   0  -7  153.18    8.50
  -3   0   7  163.58    8.00
  -3   0   7  163.28    6.90
  -3   0   7  159.98   10.50
   2   0  -7  328.27   15.10
   2   0  -7  309.17   12.80
   2   0  -7  309.47   12.40
  -2   0   7  303.17   14.50
  -2   0   7  304.87   12.70
  -2   0   7  324.27   12.50
   1   0  -7  705.53   24.40
   1   0  -7  672.43   22.10
   1   0  -7  669.33   22.10
  -1   0   7  687.73   23.90
  -1   0   7  657.93   22.00
  -1   0   7  695.23   22.10
   0   0  -7  368.46   14.40
   0   0  -7  367.26   14.20
   0   0  -7  351.46   15.20
   0   0   7  367.16   15.20
   0   0   7  362.96   14.20
  -1   0  -7  550.64   19.40
   1   0   7  557.94   19.40
   1   0   7  597.04   20.60
   1   0   7  566.64   19.80
  -2   0  -7   69.89    5.40
  -2   0  -7   67.39    5.70
   2   0   7   63.29    5.40
   2   0   7   63.49    5.30
   2   0   7   59.59    5.00
  -3   0  -7  133.99    7.90
  -3   0  -7  131.29    8.30
  -3   0  -7  143.99    9.10
   3   0   7  140.19    7.80
   3   0   7  121.69    7.50
   3   0   7  124.09    8.10
  -4   0  -7    0.20    1.40
  -4   0  -7   -0.20    0.90
  -4   0  -7    2.00    1.20
   4   0   7    0.40    0.80
   4   0   7    0.60    0.90
   4   0   7   -0.20    0.80
  -5   0  -7   57.19    5.50
  -5   0  -7   76.09    7.40
  -5   0  -7   56.79    6.70
   5   0   7   65.89    5.80
   5   0   7   66.89    6.20
   5   0   7   62.09    5.40
  -6   0  -7    4.40    2.90
  -6   0  -7    4.10    1.90
  -6   0  -7    3.00    1.90
   6   0   7    3.10    1.60
   6   0   7    4.70    1.90
   6   0   7    5.60    2.30
  -7   0  -7  368.86   21.40
  -7   0  -7  375.86   21.20
   7   0   7  397.76   16.20
   7   0   7  399.36   18.10
   7   0   7  386.96   17.00
  -8   0  -7    4.60    2.50
  -8   0  -7    3.00    2.20
   8   0   7    0.10    1.40
   8   0   7    4.30    2.20
   8   0   7    3.60    1.60
   7  -1  -7  933.11   26.70
   7  -1  -7  926.81   37.90
  -7   1   7  850.81   37.40
  -7   1   7  854.11   41.20
  -7   1   7  859.11   25.30
   6  -1  -7   26.00    5.30
   6  -1  -7   24.90    2.60
   6  -1  -7   17.20    2.80
  -6   1   7   17.50    2.60
  -6   1   7   16.00    4.50
  -6   1   7   19.10    5.60
   5  -1  -7  812.62   32.40
   5  -1  -7  849.12   25.00
   5  -1  -7  826.92   25.60
  -5   1   7  840.42   24.40
   4  -1  -7  227.08   13.70
   4  -1  -7  237.08   10.10
   4  -1  -7  215.88   10.00
   4  -1  -7  225.78   11.40
  -4   1   7  238.38    9.40
   3  -1  -7  350.36   13.50
   3  -1  -7  344.77   13.20
   3  -1  -7  336.97   13.20
   3  -1  -7  355.46   16.90
  -3   1   7  334.07   13.20
  -3   1   7  325.17   16.00
  -3   1   7  335.77   13.20
  -3   1   7  333.47   12.10
   2  -1  -7  348.07   12.20
   2  -1  -7  358.36   16.00
   2  -1  -7  326.97   13.20
   2  -1  -7  348.97   13.50
  -2   1   7  351.46   15.70
  -2   1   7  335.27   13.30
  -2   1   7  354.16   13.60
  -2   1   7  343.17   10.10
   1  -1  -7   91.49    7.00
   1  -1  -7   91.59    4.50
   1  -1  -7  103.99    6.50
   1  -1  -7   95.39    6.10
  -1   1   7   83.49    5.70
  -1   1   7   90.89    6.70
  -1   1   7   89.09    5.90
   0  -1  -7  439.16   15.90
   0  -1  -7  446.96   16.30
   0  -1  -7  413.66   16.60
   0   1   7  422.36   15.90
   0   1   7  445.56   16.60
   0   1   7  409.96   15.60
  -1  -1  -7 1076.49   33.20
  -1  -1  -7 1153.28   33.00
  -1  -1  -7 1096.29   33.30
   1   1   7 1091.29   32.80
   1   1   7 1148.09   33.10
   1   1   7 1107.39   33.20
  -2  -1  -7  144.79    5.70
  -2  -1  -7  132.29    7.60
  -2  -1  -7  152.38    8.30
   2   1   7  155.58    8.20
   2   1   7  148.29    8.40
   2   1   7  142.89    8.00
  -3  -1  -7 2298.27   62.19
  -3  -1  -7 2361.66   61.99
  -3  -1  -7 2308.67   64.19
   3   1   7 2349.17   62.69
   3   1   7 2270.07   61.79
   3   1   7 2225.58   61.79
  -4  -1  -7   27.70    3.80
  -4  -1  -7   20.30    3.30
  -4  -1  -7   25.20    4.00
   4   1   7   23.40    3.40
   4   1   7   25.70    3.60
   4   1   7   19.40    2.90
  -5  -1  -7 1825.62   51.59
  -5  -1  -7 1732.23   53.59
  -5  -1  -7 1754.92   54.99
   5   1   7 1782.62   50.59
   5   1   7 1866.51   50.99
   5   1   7 1827.42   51.89
  -6  -1  -7    2.90    1.90
  -6  -1  -7    0.40    1.60
  -6  -1  -7    5.00    2.90
   6   1   7    6.30    2.40
   6   1   7    2.80    1.70
  -7  -1  -7  902.21   36.40
  -7  -1  -7  931.61   37.60
   7   1   7  980.30   32.80
   7   1   7 1019.70   32.30
   7   1   7  944.81   31.20
  -8  -1  -7    0.10    2.30
  -8  -1  -7    3.20    2.40
   8   1   7    3.70    1.80
   8   1   7    4.20    2.50
   8   1   7    1.10    1.00
   8   1   7    2.90    2.50
   8   1   7   -3.70    1.80
   7  -2  -7   73.49   11.30
   7  -2  -7  108.79    4.90
   7  -2  -7  101.09    5.50
  -7   2   7   94.69    6.20
  -7   2   7  109.79   13.50
   6  -2  -7   12.00    4.20
   6  -2  -7   11.10    2.20
   6  -2  -7   12.80    2.50
  -6   2   7   10.90    4.70
  -6   2   7   15.10    2.80
  -6   2   7   16.30    6.40
   5  -2  -7  487.35   17.60
   5  -2  -7  496.95   23.80
   5  -2  -7  500.85   16.80
  -5   2   7  519.35   17.50
   4  -2  -7   87.79    8.50
   4  -2  -7   84.49    5.50
   4  -2  -7   84.19    6.60
   4  -2  -7   95.09    6.30
  -4   2   7   93.19    5.90
  -4   2   7   84.79    8.30
   3  -2  -7  889.31   27.70
   3  -2  -7  927.01   27.80
   3  -2  -7  911.61   32.50
   3  -2  -7  948.71   28.90
  -3   2   7  923.61   27.60
  -3   2   7  916.11   29.00
  -3   2   7  925.61   27.80
  -3   2   7 1135.09   43.90
   2  -2  -7  113.49    7.10
   2  -2  -7  119.29    5.60
   2  -2  -7  117.29    6.70
   2  -2  -7  112.29    8.20
  -2   2   7  111.89    8.10
  -2   2   7  127.09    6.60
  -2   2   7  111.39    7.00
  -2   2   7  111.19    6.50
   1  -2  -7  505.25   19.20
   1  -2  -7  493.75   17.90
   1  -2  -7  496.85   17.20
  -1   2   7  507.85   18.00
  -1   2   7  503.85   18.90
  -1   2   7  466.25   13.50
  -1   2   7  507.65   17.50
   0  -2  -7   80.29    5.90
   0  -2  -7   67.79    5.20
   0  -2  -7   73.59    5.60
   0   2   7   73.19    5.30
   0   2   7   82.99    5.90
   0   2   7   59.59    5.10
  -1  -2  -7   26.70    3.20
  -1  -2  -7   31.00    3.50
  -1  -2  -7   27.60    2.80
  -1  -2  -7   32.70    3.70
   1   2   7   32.30    3.70
   1   2   7   26.20    3.30
   1   2   7   24.60    3.00
  -2  -2  -7   38.40    4.20
  -2  -2  -7   41.60    3.10
  -2  -2  -7   40.80    4.20
  -2  -2  -7   38.90    3.20
   2   2   7   49.50    4.60
   2   2   7   37.10    3.50
   2   2   7   41.90    4.20
  -3  -2  -7  193.78    9.10
  -3  -2  -7  171.48   10.50
  -3  -2  -7  177.28    9.70
  -3  -2  -7  188.28   10.10
  -3  -2  -7  173.58    8.70
   3   2   7  192.28    9.80
   3   2   7  170.88    8.50
   3   2   7  177.48    9.70
  -4  -2  -7  365.06   15.60
  -4  -2  -7  390.06   11.50
  -4  -2  -7  367.96   15.90
  -4  -2  -7  395.36   17.90
  -4  -2  -7  391.76   16.90
   4   2   7  388.86   11.90
   4   2   7  396.76   14.80
   4   2   7  393.56   16.10
   4   2   7  387.36   15.90
  -5  -2  -7  265.07   13.70
  -5  -2  -7  261.97   13.10
  -5  -2  -7  280.37   15.30
   5   2   7  259.07   12.60
   5   2   7  254.57    9.00
   5   2   7  255.37   12.00
   5   2   7  243.18   12.40
  -6  -2  -7  936.51   34.30
  -6  -2  -7  901.61   35.30
   6   2   7 1016.80   31.30
   6   2   7  990.10   31.90
   6   2   7  963.40   26.80
   6   2   7  948.51   31.50
  -7  -2  -7  197.88   14.20
  -7  -2  -7  186.98   14.10
   7   2   7  180.88   10.90
   7   2   7  215.88   11.40
   7   2   7  187.08    9.90
   7   2   7  184.98   11.50
  -8  -2  -7 1015.50   39.70
  -8  -2  -7  963.70   40.10
   8   2   7  998.30   33.10
   8   2   7  942.31   33.00
   8   2   7 1010.10   33.10
   8   2   7 1009.80   35.00
   8   2   7  959.20   28.90
   6  -3  -7  100.69    7.00
   6  -3  -7  103.89   11.20
  -6   3   7   97.39   12.30
  -6   3   7  105.49    7.30
   5  -3  -7  165.58    9.30
   5  -3  -7  160.08    7.20
   5  -3  -7  172.18   13.30
  -5   3   7  167.98    9.00
  -5   3   7  149.88   12.50
   4  -3  -7    3.40    2.30
   4  -3  -7    5.30    1.50
   4  -3  -7    3.80    1.50
  -4   3   7    1.40    1.00
  -4   3   7    2.90    2.00
   3  -3  -7  952.20   30.10
   3  -3  -7  934.81   33.40
   3  -3  -7  938.01   27.90
  -3   3   7  961.50   33.40
  -3   3   7  946.41   28.70
  -3   3   7  926.41   27.60
   2  -3  -7  278.07   12.60
   2  -3  -7  249.28   13.30
   2  -3  -7  260.67   11.10
  -2   3   7  285.47   12.70
  -2   3   7  263.27   11.20
  -2   3   7  246.08   10.80
  -2   3   7  262.57   13.50
   1  -3  -7 1832.02   51.69
   1  -3  -7 1809.92   49.30
   1  -3  -7 1776.32   50.79
  -1   3   7 1873.11   51.59
  -1   3   7 1765.52   49.10
  -1   3   7 1803.92   50.69
  -1   3   7 1821.42   48.80
   0  -3  -7 1667.13   46.90
   0  -3  -7 1677.63   45.70
   0  -3  -7 1593.84   45.80
   0  -3  -7 1646.94   46.20
   0   3   7 1668.03   45.70
   0   3   7 1619.94   45.60
   0   3   7 1621.94   46.50
  -1  -3  -7 1894.71   50.69
  -1  -3  -7 1886.11   52.09
  -1  -3  -7 1853.21   49.30
  -1  -3  -7 1914.61   51.39
  -1  -3  -7 1859.81   50.19
   1   3   7 1871.91   51.99
   1   3   7 1835.12   51.19
   1   3   7 1788.62   49.70
  -2  -3  -7 2892.31   77.19
  -2  -3  -7 2885.81   75.19
  -2  -3  -7 2920.31   76.19
  -2  -3  -7 2806.12   77.39
   2   3   7 2946.41   77.29
   2   3   7 3052.49   74.39
   2   3   7 3031.00   77.79
  -3  -3  -7  756.02   25.90
  -3  -3  -7  789.92   23.30
  -3  -3  -7  795.62   26.40
  -3  -3  -7  739.53   23.70
  -3  -3  -7  824.82   26.60
   3   3   7  787.32   23.60
   3   3   7  771.22   22.90
   3   3   7  797.42   26.20
   3   3   7  804.32   26.30
  -4  -3  -7 2551.34   69.19
  -4  -3  -7 2537.75   68.69
  -4  -3  -7 2560.14   63.59
  -4  -3  -7 2420.56   70.09
  -4  -3  -7 2445.06   66.79
  -4  -3  -7 2310.67   70.79
   4   3   7 2472.85   67.79
   4   3   7 2554.54   64.29
   4   3   7 2539.25   68.19
   4   3   7 2557.74   70.69
   4   3   7 2529.95   64.19
  -5  -3  -7  265.47   13.30
  -5  -3  -7  237.08   14.10
  -5  -3  -7  239.28   13.50
  -5  -3  -7  266.47   12.80
   5   3   7  248.68   12.40
   5   3   7  255.57   12.80
   5   3   7  260.37   10.70
  -6  -3  -7 1049.59   37.20
  -6  -3  -7 1068.99   38.60
  -6  -3  -7 1085.79   36.90
   6   3   7 1083.29   31.10
   6   3   7 1073.09   34.90
   6   3   7 1059.69   34.30
   6   3   7 1066.99   33.50
  -7  -3  -7   72.09    7.90
  -7  -3  -7   68.49    7.80
  -7  -3  -7   68.29    8.30
   7   3   7   65.49    5.80
   7   3   7   65.99    5.20
   7   3   7   60.59    6.10
   7   3   7   56.09    7.30
   7   3   7   67.79    6.00
  -8  -3  -7  328.87   19.50
  -8  -3  -7  310.57   19.80
   8   3   7  323.77   16.00
   8   3   7  309.37   14.80
   8   3   7  324.37   13.60
   8   3   7  347.07   15.70
   8   3   7  305.57   15.20
   6  -4  -7  113.39    8.20
   6  -4  -7   91.89   10.90
  -6   4   7  111.99   13.30
   5  -4  -7   44.00    7.10
   5  -4  -7   20.90    3.90
  -5   4   7   19.80    3.50
   4  -4  -7  200.98    8.60
   4  -4  -7  205.38   11.60
   4  -4  -7  216.68   14.30
  -4   4   7  192.38   10.90
  -4   4   7  201.88   10.50
   3  -4  -7    3.10    2.30
   3  -4  -7    4.20    1.40
   3  -4  -7    5.50    2.20
  -3   4   7    4.60    1.70
  -3   4   7    6.50    2.00
  -3   4   7    0.80    1.40
  -3   4   7    4.80    1.50
   2  -4  -7   75.39    7.00
   2  -4  -7   66.49    6.10
   2  -4  -7   75.89    6.90
   2  -4  -7   68.29    5.00
  -2   4   7   72.39    5.20
  -2   4   7   76.29    7.00
  -2   4   7   80.29    5.90
  -2   4   7   76.49    6.50
   1  -4  -7    0.10    0.60
   1  -4  -7    0.50    1.20
   1  -4  -7    3.30    1.90
  -1   4   7    1.60    1.10
  -1   4   7    1.20    1.20
  -1   4   7    0.60    0.70
  -1   4   7    0.60    1.00
   0  -4  -7   84.99    6.90
   0  -4  -7   77.89    4.40
   0  -4  -7   76.19    5.80
   0  -4  -7   97.39    6.80
   0  -4  -7   85.09    6.20
   0   4   7   80.29    5.90
   0   4   7   89.39    6.50
   0   4   7   86.89    6.10
   0   4   7   77.69    6.30
   0   4   7   82.89    5.70
  -1  -4  -7    2.70    1.00
  -1  -4  -7    2.30    1.10
  -1  -4  -7    0.60    0.60
  -1  -4  -7    1.10    1.10
  -1  -4  -7    2.90    1.50
   1   4   7   -0.20    0.60
   1   4   7   -0.20    0.70
   1   4   7   -0.80    0.80
   1   4   7    1.70    1.20
  -2  -4  -7  928.31   29.90
  -2  -4  -7  923.21   26.60
  -2  -4  -7  923.61   28.90
  -2  -4  -7  909.51   33.00
  -2  -4  -7  974.30   29.00
   2   4   7  920.91   27.90
   2   4   7  947.91   25.10
   2   4   7  914.21   29.70
   2   4   7  958.50   26.30
   2   4   7  928.81   30.10
  -3  -4  -7  135.79    8.70
  -3  -4  -7  132.69    9.00
  -3  -4  -7  121.99    8.00
  -3  -4  -7  119.69    7.10
   3   4   7  120.19    6.00
   3   4   7  138.79    7.60
   3   4   7  123.89    8.20
   3   4   7  127.69    6.50
   3   4   7  140.29    8.70
   3   4   7  118.89    6.50
  -4  -4  -7 2106.19   54.79
  -4  -4  -7 2098.49   57.79
  -4  -4  -7 2010.50   59.69
  -4  -4  -7 2037.20   58.39
   4   4   7 1988.40   56.09
   4   4   7 2076.29   55.49
   4   4   7 2017.70   58.09
   4   4   7 2102.99   52.39
   4   4   7 2003.10   51.39
   4   4   7 2032.10   57.49
  -5  -4  -7  499.35   22.70
  -5  -4  -7  569.84   23.00
  -5  -4  -7  575.14   18.70
  -5  -4  -7  576.14   21.30
   5   4   7  565.04   16.80
   5   4   7  553.64   19.50
   5   4   7  554.84   21.20
   5   4   7  556.04   22.00
  -6  -4  -7 2016.60   60.49
  -6  -4  -7 1813.52   58.09
  -6  -4  -7 1941.81   55.29
   6   4   7 1890.31   53.09
   6   4   7 1993.60   50.49
   6   4   7 1836.62   54.99
   6   4   7 1977.00   50.79
   6   4   7 1912.11   56.79
  -7  -4  -7 1011.80   39.70
  -7  -4  -7 1118.19   39.60
   7   4   7 1044.60   34.80
   7   4   7 1079.69   33.30
   7   4   7 1039.60   36.20
   7   4   7 1102.59   34.40
   7   4   7 1111.69   31.80
  -8  -4  -7 1177.38   46.40
  -8  -4  -7 1234.58   45.60
   8   4   7 1309.47   42.30
   8   4   7 1309.57   39.10
   8   4   7 1317.77   40.70
   8   4   7 1283.87   39.80
   8   4   7 1308.47   38.10
   5  -5  -7  100.09   11.10
   5  -5  -7  104.29   10.30
   5  -5  -7  103.29    8.80
  -5   5   7  109.29   10.70
  -5   5   7  106.09    9.00
   4  -5  -7  576.54   26.80
   4  -5  -7  571.64   23.40
  -4   5   7  592.14   22.60
   3  -5  -7   34.10    5.00
   3  -5  -7   42.90    8.50
  -3   5   7   41.80    3.70
  -3   5   7   45.50    4.50
  -3   5   7   47.10    5.00
   2  -5  -7 1469.65   45.80
   2  -5  -7 1524.05   41.90
   2  -5  -7 1469.15   46.50
   2  -5  -7 1441.66   46.60
  -2   5   7 1535.55   40.90
  -2   5   7 1527.45   43.80
  -2   5   7 1474.25   41.50
   1  -5  -7    1.80    1.60
   1  -5  -7    1.40    1.10
   1  -5  -7    2.10    1.30
   1  -5  -7    3.10    1.90
   1  -5  -7    1.90    0.80
  -1   5   7    2.30    0.80
  -1   5   7   -0.40    0.90
  -1   5   7    1.40    1.10
  -1   5   7    4.70    1.60
  -1   5   7    0.90    1.40
  -1   5   7    1.00    1.40
   0  -5  -7 2116.39   61.59
   0  -5  -7 2189.18   55.89
   0  -5  -7 2112.69   61.19
   0  -5  -7 2180.68   59.29
   0  -5  -7 2185.78   59.49
   0   5   7 2271.87   59.29
   0   5   7 2217.88   61.19
   0   5   7 2169.18   59.39
   0   5   7 2131.99   61.19
   0   5   7 2141.09   59.09
  -1  -5  -7   52.29    5.10
  -1  -5  -7   56.39    4.50
  -1  -5  -7   67.09    5.90
  -1  -5  -7   67.29    4.90
  -1  -5  -7   56.19    5.90
   1   5   7   58.59    5.40
   1   5   7   60.79    5.60
   1   5   7   61.79    5.20
   1   5   7   63.39    4.70
   1   5   7   51.89    5.30
  -2  -5  -7 1843.92   50.69
  -2  -5  -7 1855.41   53.19
  -2  -5  -7 1852.01   51.89
  -2  -5  -7 1814.82   47.40
   2   5   7 1772.22   46.50
   2   5   7 1832.82   47.20
   2   5   7 1806.02   50.69
   2   5   7 1741.43   52.19
   2   5   7 1882.91   52.49
  -3  -5  -7   61.89    5.90
  -3  -5  -7   60.89    5.60
  -3  -5  -7   65.09    5.50
   3   5   7   51.69    4.20
   3   5   7   71.69    6.00
   3   5   7   57.19    5.60
   3   5   7   54.99    5.70
   3   5   7   53.59    4.70
  -4  -5  -7  934.71   32.90
  -4  -5  -7  984.00   29.90
  -4  -5  -7  939.51   31.20
  -4  -5  -7  900.01   33.80
   4   5   7  933.11   32.20
   4   5   7  924.91   29.60
   4   5   7  964.70   28.00
   4   5   7  950.00   30.50
   4   5   7  914.31   31.10
  -5  -5  -7    6.30    2.00
  -5  -5  -7    4.20    2.30
  -5  -5  -7    1.60    1.10
  -5  -5  -7    5.40    2.30
   5   5   7    3.60    1.60
   5   5   7    3.00    1.50
   5   5   7    1.50    1.20
   5   5   7    4.10    1.80
  -6  -5  -7  417.66   21.10
  -6  -5  -7  462.25   19.00
  -6  -5  -7  423.66   20.90
  -6  -5  -7  462.15   17.30
   6   5   7  448.96   20.50
   6   5   7  465.15   18.60
   6   5   7  444.16   13.60
   6   5   7  473.35   19.30
  -7  -5  -7   90.79    7.50
  -7  -5  -7   83.19    9.10
  -7  -5  -7   88.99    9.10
   7   5   7   90.29    8.90
   7   5   7   96.59    8.50
   7   5   7   92.39    7.30
  -8  -5  -7  178.48   14.00
  -8  -5  -7  183.88   14.40
   8   5   7  185.08   10.70
   8   5   7  159.28   11.60
   8   5   7  164.08   10.40
   8   5   7  162.18   10.40
   8   5   7  182.08    9.90
   5  -6  -7  152.48   13.00
   5  -6  -7  130.89   13.00
   5  -6  -7  150.18   10.90
  -5   6   7  145.09   10.20
  -5   6   7  154.28   11.20
   4  -6  -7   51.19    7.80
   4  -6  -7   57.09    6.90
  -4   6   7   57.49    6.30
  -4   6   7   58.89    6.30
   3  -6  -7   46.90    6.20
   3  -6  -7   34.40    6.00
  -3   6   7   48.90    5.00
  -3   6   7   42.30    3.60
   2  -6  -7  304.37   16.20
   2  -6  -7  288.77   15.80
  -2   6   7  303.57   12.30
  -2   6   7  290.37   16.20
  -2   6   7  303.17   12.50
   1  -6  -7   86.09    8.00
   1  -6  -7   97.99    7.90
   1  -6  -7   93.19    8.30
   1  -6  -7   99.59    4.80
  -1   6   7   90.79    8.20
  -1   6   7   84.29    6.20
  -1   6   7   79.89    6.60
  -1   6   7   96.19    5.40
   0  -6  -7  584.14   23.10
   0  -6  -7  565.44   23.10
   0  -6  -7  556.44   20.70
   0  -6  -7  577.74   18.30
   0   6   7  559.74   22.90
   0   6   7  560.84   20.50
   0   6   7  516.75   20.20
   0   6   7  563.54   16.70
  -1  -6  -7  929.81   28.00
  -1  -6  -7  900.81   28.20
  -1  -6  -7  926.61   32.30
  -1  -6  -7  940.01   31.90
   1   6   7  933.51   30.50
   1   6   7  895.51   29.30
   1   6   7  912.91   31.80
   1   6   7  941.61   31.60
  -2  -6  -7  366.56   17.20
  -2  -6  -7  348.57   14.90
  -2  -6  -7  378.06   16.60
  -2  -6  -7  353.86   12.20
   2   6   7  371.96   12.70
   2   6   7  363.46   15.00
   2   6   7  371.66   16.70
   2   6   7  371.96   17.00
   2   6   7  367.16   16.10
   2   6   7  362.96   16.60
  -3  -6  -7 2236.68   64.99
  -3  -6  -7 2241.48   63.69
  -3  -6  -7 2326.57   64.09
   3   6   7 2248.97   64.99
   3   6   7 2352.86   64.59
   3   6   7 2301.57   64.89
   3   6   7 2326.57   63.09
   3   6   7 2274.97   60.49
  -4  -6  -7   75.69    7.00
  -4  -6  -7   72.19    6.30
  -4  -6  -7   59.79    6.40
  -4  -6  -7   75.19    7.30
   4   6   7   78.99    5.90
   4   6   7   61.39    6.20
   4   6   7   67.19    6.90
   4   6   7   77.99    6.10
   4   6   7   61.19    6.30
  -5  -6  -7 2668.33   78.49
  -5  -6  -7 2803.52   78.89
  -5  -6  -7 2855.71   75.29
  -5  -6  -7 2758.22   76.49
   5   6   7 2662.73   79.39
   5   6   7 2810.62   78.59
   5   6   7 2812.32   72.89
   5   6   7 2812.02   76.49
  -6  -6  -7    0.90    1.60
  -6  -6  -7    2.30    1.40
  -6  -6  -7    0.90    1.30
  -6  -6  -7    3.40    2.50
   6   6   7    2.80    1.80
   6   6   7    3.60    1.50
   6   6   7   13.50    3.30
   6   6   7    4.30    2.20
  -7  -6  -7 1860.51   61.19
  -7  -6  -7 1899.41   61.59
  -7  -6  -7 1959.60   56.79
  -7  -6  -7 1965.40   55.59
   7   6   7 1878.21   56.59
   7   6   7 1967.00   50.19
   7   6   7 2008.10   57.49
   7   6   7 1954.40   60.29
  -8  -6  -7   48.00    7.40
  -8  -6  -7   54.89    7.60
   8   6   7   41.80    5.60
   8   6   7   43.50    6.90
   8   6   7   62.79    7.90
   4  -7  -7   50.49    7.60
   4  -7  -7   67.69    8.10
   4  -7  -7   48.00    7.90
  -4   7   7   65.59    8.00
  -4   7   7   60.69    6.60
   3  -7  -7  691.63   28.30
   3  -7  -7  602.04   30.00
   3  -7  -7  622.04   28.20
  -3   7   7  659.63   25.30
  -3   7   7  631.84   20.10
  -3   7   7  662.43   24.30
  -3   7   7  684.43   29.30
   2  -7  -7    0.90    3.40
   2  -7  -7    6.80    2.30
  -2   7   7    7.20    2.00
  -2   7   7   15.20    3.20
  -2   7   7   11.70    2.60
  -2   7   7   10.40    3.40
   1  -7  -7 1039.40   35.20
   1  -7  -7 1031.80   37.20
   1  -7  -7 1029.80   29.30
  -1   7   7 1027.00   37.40
  -1   7   7 1030.00   30.70
  -1   7   7 1034.70   32.30
   0  -7  -7   20.20    3.00
   0  -7  -7   18.90    4.10
   0  -7  -7   26.60    3.70
   0  -7  -7   32.80    5.20
   0   7   7   19.10    4.00
   0   7   7   14.80    3.30
  -1  -7  -7  879.71   32.10
  -1  -7  -7  875.61   27.70
  -1  -7  -7  825.82   26.80
  -1  -7  -7  855.61   31.30
   1   7   7  875.91   29.70
   1   7   7  862.61   31.30
  -2  -7  -7   19.50    3.40
  -2  -7  -7   23.40    4.10
  -2  -7  -7   18.60    4.00
  -2  -7  -7   18.30    2.20
   2   7   7   24.80    4.60
   2   7   7   14.80    3.60
   2   7   7   17.30    3.70
   2   7   7   22.50    4.10
   2   7   7   25.30    3.60
  -3  -7  -7  249.58   13.70
  -3  -7  -7  236.18   13.10
  -3  -7  -7  233.58   13.90
   3   7   7  236.18   13.60
   3   7   7  239.78   13.80
   3   7   7  255.07   13.40
   3   7   7  266.27   14.20
   3   7   7  251.07   12.20
   3   7   7  246.28   11.30
  -4  -7  -7    9.00    2.70
  -4  -7  -7   13.40    4.10
  -4  -7  -7    7.80    2.70
   4   7   7    8.90    2.70
   4   7   7    7.10    2.70
   4   7   7    7.80    2.30
   4   7   7   10.10    2.80
   4   7   7   12.30    3.70
   4   7   7    8.70    2.50
  -5  -7  -7    7.00    2.40
  -5  -7  -7    4.40    2.40
  -5  -7  -7    5.20    2.20
  -5  -7  -7    2.80    1.80
   5   7   7    4.60    1.90
   5   7   7    2.10    1.60
   5   7   7    0.50    1.20
   5   7   7    1.90    1.60
  -6  -7  -7  223.28   14.80
  -6  -7  -7  222.28   12.40
  -6  -7  -7  215.58   12.80
  -6  -7  -7  202.78   13.80
   6   7   7  217.38   11.00
   6   7   7  222.18   13.00
   6   7   7  218.58   14.30
   6   7   7  205.68   12.70
  -7  -7  -7   15.20    5.10
  -7  -7  -7   21.90    4.90
  -7  -7  -7   21.70    4.20
   7   7   7   21.80    4.30
   7   7   7   28.40    3.30
   7   7   7   30.50    5.80
   7   7   7   20.40    4.00
  -8  -7  -7  616.74   29.30
  -8  -7  -7  614.04   24.10
  -8  -7  -7  637.74   29.10
   8   7   7  589.94   19.00
   8   7   7  553.14   24.20
   8   7   7  610.74   25.70
   8   7   7  629.94   28.00
   3  -8  -7   45.10    7.00
   3  -8  -7   29.70    6.90
   3  -8  -7   50.19    7.60
  -3   8   7   43.40    3.90
  -3   8   7   48.00    5.70
  -3   8   7   41.40    5.80
  -3   8   7   40.00    6.90
   2  -8  -7    8.10    3.00
   2  -8  -7   15.40    4.40
   2  -8  -7   15.20    4.00
   2  -8  -7   21.40    2.50
  -2   8   7   11.40    3.60
  -2   8   7   20.20    3.40
  -2   8   7   23.40    4.60
  -2   8   7   10.90    3.30
   1  -8  -7  375.66   18.20
   1  -8  -7  372.06   14.10
   1  -8  -7  381.16   20.10
  -1   8   7  352.36   15.60
  -1   8   7  368.26   15.40
  -1   8   7  388.56   20.70
  -1   8   7  376.66   17.50
   0  -8  -7  406.66   17.50
   0  -8  -7  352.16   19.40
   0  -8  -7  393.86   15.50
   0   8   7  343.87   22.30
   0   8   7  384.86   16.90
  -1  -8  -7  968.40   30.30
  -1  -8  -7  984.60   31.30
  -1  -8  -7 1005.50   36.40
   1   8   7  887.61   34.70
   1   8   7  944.91   32.90
  -2  -8  -7 1137.29   40.00
  -2  -8  -7 1145.09   31.80
   2   8   7 1155.18   39.90
   2   8   7 1122.79   39.10
   2   8   7 1049.30   42.10
   2   8   7 1215.48   36.90
  -3  -8  -7  912.91   34.00
  -3  -8  -7  917.01   32.20
   3   8   7  933.31   33.90
   3   8   7  923.91   33.40
   3   8   7  911.31   30.60
   3   8   7  897.51   29.60
   3   8   7  961.80   33.60
  -4  -8  -7 1836.62   57.79
  -4  -8  -7 1909.01   58.49
   4   8   7 1944.11   57.19
   4   8   7 1970.70   54.89
   4   8   7 1956.20   58.89
   4   8   7 1857.71   58.59
  -5  -8  -7  629.44   25.50
  -5  -8  -7  581.14   25.50
  -5  -8  -7  598.14   26.00
   5   8   7  621.74   26.70
   5   8   7  597.64   25.60
   5   8   7  628.24   22.80
   5   8   7  612.44   23.80
  -6  -8  -7 1555.04   51.99
  -6  -8  -7 1573.84   50.99
  -6  -8  -7 1555.14   49.00
   6   8   7 1538.35   46.40
   6   8   7 1452.55   50.89
   6   8   7 1563.44   50.29
   6   8   7 1561.14   46.00
  -7  -8  -7  280.07   18.20
  -7  -8  -7  257.27   14.90
  -7  -8  -7  264.57   16.80
  -7  -8  -7  300.87   15.60
   7   8   7  281.27   16.20
   7   8   7  257.17   12.90
   7   8   7  253.67   16.60
   2  -9  -7  314.57   12.10
   2  -9  -7  306.27   26.50
   2  -9  -7  290.07   17.70
   2  -9  -7  323.27   22.20
  -2   9   7  300.17   15.40
  -2   9   7  275.07   15.80
  -2   9   7  297.97   19.20
  -2   9   7  287.37   12.90
   1  -9  -7  244.78   16.20
   1  -9  -7  217.78   14.10
   1  -9  -7  249.48   16.40
   1  -9  -7  228.28   11.10
  -1   9   7  236.68   16.40
  -1   9   7  232.38   13.90
  -1   9   7  227.18   12.10
  -1   9   7  234.98   12.70
   0  -9  -7  205.38   14.30
   0  -9  -7  187.68   14.70
   0  -9  -7  195.38   11.90
   0  -9  -7  188.08   10.60
   0   9   7  175.68   13.00
   0   9   7  165.48   13.40
   0   9   7  186.98   11.50
  -1  -9  -7  208.18   10.90
  -1  -9  -7  202.18   11.70
  -1  -9  -7  201.98   14.00
  -1  -9  -7  217.08   15.00
   1   9   7  188.28   12.10
   1   9   7  207.58   14.40
   1   9   7  188.78   11.80
  -2  -9  -7   27.90    4.50
  -2  -9  -7   22.90    4.80
  -2  -9  -7   16.50    4.70
  -2  -9  -7   24.20    4.10
   2   9   7   11.20    3.50
   2   9   7   18.50    4.80
   2   9   7   28.50    4.40
   2   9   7   16.40    4.60
  -3  -9  -7  310.67   17.80
  -3  -9  -7  313.77   16.50
  -3  -9  -7  310.37   17.30
   3   9   7  307.87   17.50
   3   9   7  317.77   17.60
   3   9   7  307.67   15.20
   3   9   7  319.17   17.00
  -4  -9  -7  101.49    9.40
  -4  -9  -7  117.59   10.40
  -4  -9  -7  121.99   10.10
   4   9   7  113.69    9.60
   4   9   7  101.49    8.20
   4   9   7  105.29    9.30
   4   9   7  130.79   10.30
  -5  -9  -7  404.06   20.20
  -5  -9  -7  394.96   20.00
  -5  -9  -7  386.86   20.70
  -5  -9  -7  392.06   20.10
   5   9   7  336.27   19.70
   5   9   7  415.86   17.90
   5   9   7  431.06   21.40
   5   9   7  428.46   19.70
  -6  -9  -7  341.17   18.80
  -6  -9  -7  366.66   20.40
  -6  -9  -7  357.46   18.70
  -6  -9  -7  350.86   18.60
   6   9   7  353.86   19.60
   6   9   7  366.36   20.40
   6   9   7  340.37   16.10
   6   9   7  362.86   17.50
   0 -10  -7 1474.85   47.00
   0 -10  -7 1426.96   51.69
   0 -10  -7 1528.25   53.09
   0 -10  -7 1537.35   45.60
   0  10   7 1470.95   52.89
   0  10   7 1454.85   48.00
   0  10   7 1502.85   46.70
  -1 -10  -7  182.78   14.00
  -1 -10  -7  175.98   17.10
  -1 -10  -7  189.48   11.70
  -1 -10  -7  175.78   10.60
   1  10   7  181.88   14.50
   1  10   7  182.08   12.00
   1  10   7  191.28   12.40
  -2 -10  -7 1983.00   58.69
  -2 -10  -7 1924.71   62.99
  -2 -10  -7 1852.41   61.19
  -2 -10  -7 1981.20   51.89
   2  10   7 1908.41   57.59
   2  10   7 1877.21   62.29
   2  10   7 1953.80   59.89
  -3 -10  -7  289.67   16.30
  -3 -10  -7  293.37   17.80
  -3 -10  -7  282.07   17.40
   3  10   7  263.17   14.80
   3  10   7  285.67   17.50
   3  10   7  277.27   17.60
   3  10   7  280.87   16.70
  -4 -10  -7 1415.06   48.10
  -4 -10  -7 1456.75   49.10
  -4 -10  -7 1430.16   49.30
   4  10   7 1387.36   49.20
   4  10   7 1250.57   53.79
   4  10   7 1489.75   49.00
   4  10   7 1440.16   49.10
  -5 -10  -7  292.67   17.90
  -5 -10  -7  271.67   16.70
  -5 -10  -7  271.97   17.00
  -5 -10  -7  291.07   16.70
   5  10   7  266.67   17.30
   5  10   7  276.57   16.40
   5  10   7  265.67   17.50
   3   8  -8  101.89   10.10
   3   8  -8  127.49   11.50
  -3  -8   8  118.79    6.80
  -3  -8   8  109.89   11.50
   2   8  -8   96.79    9.60
   2   8  -8  114.39    9.90
   2   8  -8   93.79    9.90
  -2  -8   8  102.99   10.50
  -2  -8   8   95.19   10.80
   1   8  -8   10.60    3.80
   1   8  -8   13.80    3.70
   1   8  -8    5.60    2.80
  -1  -8   8    9.60    2.70
  -1  -8   8    5.90    3.30
   0   8  -8  181.18   12.90
   0   8  -8  187.58   13.80
   0   8  -8  163.68   11.60
   0  -8   8  176.48   15.00
   0  -8   8  177.38   11.10
   5   7  -8  749.03   31.30
  -5  -7   8  751.02   32.80
  -5  -7   8  777.82   30.90
  -5  -7   8  701.73   25.60
   4   7  -8  608.84   26.90
   4   7  -8  616.54   26.60
  -4  -7   8  604.14   18.10
  -4  -7   8  579.74   38.10
  -4  -7   8  615.94   24.60
   3   7  -8 1034.40   36.80
   3   7  -8  985.30   37.50
  -3  -7   8 1116.09   41.00
  -3  -7   8 1029.20   30.30
  -3  -7   8 1027.10   32.80
   2   7  -8  827.52   32.50
   2   7  -8  789.02   30.00
   2   7  -8  879.01   43.80
  -2  -7   8  782.42   33.50
  -2  -7   8  805.82   26.00
   1   7  -8  635.94   26.90
   1   7  -8  688.43   28.40
   1   7  -8  638.04   26.50
  -1  -7   8  711.53   30.80
   0   7  -8 1039.50   36.50
   0   7  -8 1002.20   37.10
   0   7  -8 1026.50   34.40
   0  -7   8  996.50   42.70
   0  -7   8 1033.50   33.20
  -1   7  -8  473.65   19.40
  -1   7  -8  465.85   22.20
  -1   7  -8  447.76   20.90
   1  -7   8  493.65   25.60
   1  -7   8  468.95   19.70
  -2   7  -8  496.45   19.20
  -2   7  -8  473.65   21.50
  -2   7  -8  465.85   22.40
   2  -7   8  504.65   21.30
   2  -7   8  525.05   27.00
   2  -7   8  492.05   18.30
   5   6  -8  211.18   13.90
   5   6  -8  205.78   13.80
  -5  -6   8  181.68   10.00
  -5  -6   8  217.78   14.70
  -5  -6   8  181.98   15.90
   4   6  -8  207.68   13.30
   4   6  -8  185.68   16.70
  -4  -6   8  239.38   15.60
  -4  -6   8  192.48   11.10
  -4  -6   8  195.28    7.40
  -4  -6   8  232.58   13.80
   3   6  -8  287.37   15.30
   3   6  -8  276.97   16.90
  -3  -6   8  281.87   14.10
  -3  -6   8  258.37   13.80
  -3  -6   8  260.97   16.70
  -3  -6   8  285.27   10.90
   2   6  -8  707.03   26.60
  -2  -6   8  705.83   22.80
  -2  -6   8  762.62   30.90
  -2  -6   8  689.33   23.30
   1   6  -8  629.44   25.40
   1   6  -8  634.44   23.80
  -1  -6   8  618.34   21.40
  -1  -6   8  618.64   27.80
   0   6  -8 1552.64   58.79
   0   6  -8 1565.64   46.80
   0   6  -8 1607.44   50.09
   0  -6   8 1620.14   54.19
   0  -6   8 1608.04   50.99
  -1   6  -8  716.23   27.80
  -1   6  -8  702.83   24.50
   1  -6   8  722.53   25.40
  -2   6  -8 1408.66   44.70
  -2   6  -8 1401.66   39.70
   2  -6   8 1362.06   42.60
   2  -6   8 1317.27   49.30
  -3   6  -8  978.00   34.70
   3  -6   8 1004.20   34.40
  -4   6  -8  917.71   30.90
  -4   6  -8  630.94   35.90
   4  -6   8  805.32   33.60
   6   5  -8 1517.55   51.29
   6   5  -8 1539.45   49.99
   6   5  -8 1596.24   53.29
  -6  -5   8 1490.75   40.20
  -6  -5   8 1577.54   49.10
  -6  -5   8 1552.54   54.99
  -6  -5   8 1509.35   53.29
   5   5  -8   -1.90    1.60
   5   5  -8    1.10    2.00
   5   5  -8    1.30    1.50
  -5  -5   8    7.80    3.10
  -5  -5   8    1.10    1.20
  -5  -5   8    4.60    2.60
   4   5  -8 2542.75   73.79
   4   5  -8 2401.66   70.59
   4   5  -8 2326.97   69.99
  -4  -5   8 2435.06   72.19
  -4  -5   8 2475.95   73.79
  -4  -5   8 2452.15   66.09
  -3  -5   8   15.70    2.10
  -3  -5   8   15.80    3.40
  -3  -5   8   17.70    3.50
   2   5  -8 2323.67   65.09
  -2  -5   8 2384.06   60.69
  -2  -5   8 2332.87   64.09
  -2  -5   8 2253.67   64.99
   1   5  -8   13.00    1.90
   1   5  -8   14.70    3.20
  -1  -5   8   10.70    2.20
  -1  -5   8   14.60    2.60
   0   5  -8 1128.39   34.30
   0   5  -8 1104.39   32.20
   0  -5   8 1120.89   33.80
  -1   5  -8   15.90    2.90
  -1   5  -8   11.00    3.30
  -1   5  -8   13.00    3.30
  -1   5  -8    5.40    2.10
   1  -5   8    8.90    3.00
  -2   5  -8  592.44   22.90
  -2   5  -8  584.94   19.00
  -2   5  -8  571.54   22.70
  -2   5  -8  575.64   22.30
   2  -5   8  577.44   22.00
  -3   5  -8   57.19    6.20
  -3   5  -8   89.69    7.40
  -3   5  -8   75.69    7.50
   3  -5   8   65.09    6.60
  -4   5  -8  167.98   10.30
  -4   5  -8  163.38   14.50
  -4   5  -8  150.58    9.90
   4  -5   8  151.58   10.60
  -5   5  -8  185.98   10.60
  -5   5  -8  218.68   17.60
  -5   5  -8  195.48   11.50
   5  -5   8  180.78   12.60
   6   4  -8   74.49    7.80
   6   4  -8   73.99    8.50
   6   4  -8   66.89    8.30
  -6  -4   8   71.69    9.50
  -6  -4   8   68.79   13.00
  -6  -4   8   71.69    6.90
   5   4  -8  731.83   29.10
   5   4  -8  762.72   31.30
   5   4  -8  790.92   28.90
  -5  -4   8  766.82   25.50
  -5  -4   8  707.13   30.90
  -5  -4   8  793.32   33.20
   4   4  -8  381.36   19.80
   4   4  -8  386.96   18.10
   4   4  -8  393.56   18.20
  -4  -4   8  382.46   15.10
  -4  -4   8  396.96   20.20
   3   4  -8 1724.33   51.19
   3   4  -8 1661.53   53.29
   3   4  -8 1648.64   49.90
  -3  -4   8 1706.53   48.20
  -3  -4   8 1699.13   51.89
  -3  -4   8 1698.73   43.70
   2   4  -8  543.65   17.00
   2   4  -8  531.35   20.50
  -2  -4   8  533.45   17.20
  -2  -4   8  541.35   23.80
  -2  -4   8  533.05   20.50
   1   4  -8 2856.71   76.69
   1   4  -8 2992.20   79.99
   1   4  -8 2896.11   73.99
  -1  -4   8 2900.11   74.79
  -1  -4   8 2899.01   78.99
  -1  -4   8 2938.01   82.79
   0   4  -8  244.48   10.70
   0   4  -8  244.58   13.00
   0   4  -8  233.48   10.80
   0  -4   8  256.37   11.20
  -1   4  -8 4205.68  106.69
  -1   4  -8 3990.30  105.09
  -1   4  -8 4023.00  101.69
  -1   4  -8 4197.98  103.99
   1  -4   8 3972.30  103.59
   1  -4   8 3920.71  107.69
  -2   4  -8   97.19    7.30
  -2   4  -8   87.29    7.10
  -2   4  -8   92.39    5.00
  -2   4  -8   90.29    6.90
   2  -4   8   81.89    5.10
  -3   4  -8 2804.22   73.89
  -3   4  -8 2725.63   72.29
  -3   4  -8 2664.13   75.09
   3  -4   8 2485.15   68.99
   3  -4   8 2695.23   73.19
  -4   4  -8   12.00    3.10
  -4   4  -8   12.10    4.40
  -4   4  -8   12.30    4.10
  -4   4  -8   10.10    3.10
   4  -4   8   12.40    3.30
   4  -4   8    6.90    2.70
  -5   4  -8 1504.85   54.39
  -5   4  -8 1546.55   51.39
  -5   4  -8 1431.26   44.60
  -5   4  -8 1455.85   42.20
   5  -4   8 1502.65   46.90
   7   3  -8  584.84   23.70
   7   3  -8  594.14   27.10
   7   3  -8  571.64   27.90
  -7  -3   8  580.54   21.80
  -7  -3   8  520.95   27.40
  -7  -3   8  604.74   32.10
   6   3  -8  423.76   22.20
   6   3  -8  433.06   19.00
   6   3  -8  419.26   20.70
  -6  -3   8  376.06   21.50
  -6  -3   8  412.86   24.40
   5   3  -8  653.43   25.10
   5   3  -8  672.73   26.60
   5   3  -8  695.83   28.80
  -5  -3   8  687.53   30.80
  -5  -3   8  633.14   20.30
  -5  -3   8  673.93   28.80
   4   3  -8  294.27   16.70
   4   3  -8  285.27   14.60
   4   3  -8  309.97   15.00
  -4  -3   8  270.67   16.70
  -4  -3   8  303.67   12.20
   3   3  -8  791.52   27.30
   3   3  -8  775.92   30.00
   3   3  -8  800.92   27.80
  -3  -3   8  751.62   25.00
  -3  -3   8  804.52   30.30
   2   3  -8  362.36   15.40
   2   3  -8  382.46   18.30
  -2  -3   8  363.66   15.30
  -2  -3   8  387.26   12.90
  -2  -3   8  378.26   18.50
   1   3  -8  377.86   14.90
   1   3  -8  414.06   17.20
  -1  -3   8  378.86   16.20
  -1  -3   8  383.86   13.90
  -1  -3   8  395.56   18.60
   0   3  -8  566.84   18.60
   0   3  -8  588.94   19.60
   0   3  -8  576.04   21.60
   0  -3   8  533.95   21.20
   0  -3   8  556.74   23.50
   0  -3   8  558.94   19.00
  -1   3  -8   13.80    2.60
  -1   3  -8   14.60    3.00
  -1   3  -8    9.30    1.60
   1  -3   8   11.70    2.30
   1  -3   8    6.90    2.60
   1  -3   8    7.70    2.50
   1  -3   8   13.80    2.80
  -2   3  -8  576.74   22.60
  -2   3  -8  557.94   19.90
  -2   3  -8  554.24   16.00
  -2   3  -8  576.74   21.50
   2  -3   8  570.94   23.00
   2  -3   8  575.14   21.00
   2  -3   8  574.64   24.40
   2  -3   8  566.84   20.50
   2  -3   8  568.04   19.80
  -3   3  -8   17.00    3.40
  -3   3  -8   14.80    2.90
  -3   3  -8   13.10    2.40
   3  -3   8   12.20    3.20
   3  -3   8   16.20    2.80
   3  -3   8   19.20    3.10
  -4   3  -8 1053.99   39.10
  -4   3  -8  989.70   36.00
  -4   3  -8 1006.70   30.50
  -4   3  -8 1027.90   33.20
   4  -3   8 1060.59   33.80
   4  -3   8 1027.90   32.50
  -5   3  -8  146.19    9.50
  -5   3  -8  128.69   11.90
  -5   3  -8  152.58   12.00
  -5   3  -8  134.29    6.80
   5  -3   8  120.39    8.10
   5  -3   8  142.99    9.90
  -6   3  -8  997.90   40.40
  -6   3  -8  990.50   38.90
  -6   3  -8  933.91   31.30
   6  -3   8  897.21   33.10
   6  -3   8  900.91   29.80
   7   2  -8  242.88   17.60
   7   2  -8  234.78   13.40
  -7  -2   8  258.67   18.10
  -7  -2   8  276.57   12.20
  -7  -2   8  303.97   21.90
   6   2  -8  202.08   11.60
   6   2  -8  199.48   13.50
   6   2  -8  187.78   14.30
  -6  -2   8  213.58   10.20
  -6  -2   8  191.28   14.40
  -6  -2   8  203.28   16.60
   5   2  -8  694.73   27.10
   5   2  -8  711.63   29.10
   5   2  -8  661.43   24.70
  -5  -2   8  663.83   30.90
  -5  -2   8  708.83   22.90
  -5  -2   8  700.33   29.30
  -5  -2   8  669.93   20.70
   4   2  -8 1041.70   33.70
   4   2  -8 1010.10   36.30
   4   2  -8 1064.09   37.60
  -4  -2   8 1040.40   26.80
  -4  -2   8 1063.19   37.60
  -4  -2   8 1051.19   30.60
   3   2  -8 1635.14   48.10
   3   2  -8 1614.54   51.29
   3   2  -8 1668.43   48.10
  -3  -2   8 1654.53   45.70
  -3  -2   8 1635.54   43.50
  -3  -2   8 1667.03   51.49
   2   2  -8 1868.71   57.29
   2   2  -8 1919.31   53.59
  -2  -2   8 1917.71   53.09
  -2  -2   8 2020.30   50.29
  -2  -2   8 1945.31   57.59
   1   2  -8 1600.14   45.20
   1   2  -8 1609.54   47.50
   1   2  -8 1699.83   50.59
  -1  -2   8 1662.43   47.60
  -1  -2   8 1652.53   44.20
  -1  -2   8 1652.13   50.19
  -1  -2   8 1665.43   47.10
   0   2  -8 2695.43   72.29
   0   2  -8 2713.03   68.59
   0   2  -8 2727.93   70.59
   0  -2   8 2688.93   69.39
   0  -2   8 2623.44   71.69
   0  -2   8 2698.03   74.69
   0  -2   8 2603.14   71.89
  -1   2  -8  956.70   30.00
  -1   2  -8  976.90   30.90
  -1   2  -8  958.90   26.20
   1  -2   8  933.51   28.80
   1  -2   8  936.41   31.20
   1  -2   8  921.51   30.00
   1  -2   8  985.60   33.40
  -2   2  -8 2667.83   71.39
  -2   2  -8 2590.84   70.69
   2  -2   8 2660.03   77.69
   2  -2   8 2589.34   69.39
   2  -2   8 2557.84   69.99
   2  -2   8 2624.64   72.39
  -3   2  -8  595.04   19.30
  -3   2  -8  586.84   23.20
  -3   2  -8  560.04   21.50
   3  -2   8  593.04   21.50
   3  -2   8  618.14   21.70
   3  -2   8  614.64   23.80
  -4   2  -8 1044.40   37.60
  -4   2  -8 1061.69   36.10
  -4   2  -8 1015.50   35.90
  -4   2  -8 1007.00   28.90
   4  -2   8 1008.50   32.30
   4  -2   8 1013.90   35.30
   4  -2   8 1080.49   33.50
  -5   2  -8  114.59    8.10
  -5   2  -8  101.49   10.10
  -5   2  -8  104.39    9.70
   5  -2   8   95.69    7.20
   5  -2   8  108.19    7.90
  -6   2  -8  323.97   15.20
  -6   2  -8  312.37   19.50
  -6   2  -8  300.17   18.60
   6  -2   8  306.37   15.60
   6  -2   8  327.87   14.30
  -7   2  -8   22.60    5.70
  -7   2  -8   28.40    6.10
  -7   2  -8   20.50    4.20
   7  -2   8   24.30    3.40
   7  -2   8   44.50    6.10
   7   1  -8  643.74   30.40
   7   1  -8  638.54   23.40
  -7  -1   8  654.93   20.10
  -7  -1   8  644.14   30.70
  -7  -1   8  589.94   33.20
   6   1  -8  230.28   15.80
   6   1  -8  202.08   11.10
  -6  -1   8  199.28   14.90
  -6  -1   8  213.08    9.10
  -6  -1   8  191.48   16.50
   5   1  -8  850.41   32.80
   5   1  -8  805.22   27.40
  -5  -1   8  798.92   24.00
  -5  -1   8  812.72   24.30
  -5  -1   8  812.92   35.80
   4   1  -8   45.70    6.40
   4   1  -8   51.89    6.70
  -4  -1   8   51.19    3.20
  -4  -1   8   47.40    4.90
   3   1  -8  460.15   17.70
   3   1  -8  433.16   19.90
  -3  -1   8  445.06   16.20
  -3  -1   8  425.76   19.80
   2   1  -8    1.30    1.10
   2   1  -8    1.90    1.30
  -2  -1   8    1.00    1.00
  -2  -1   8    3.40    1.50
  -2  -1   8    2.00    1.30
   1   1  -8  591.44   23.00
  -1  -1   8  566.24   20.60
  -1  -1   8  576.24   20.30
  -1  -1   8  582.74   22.80
   0   1  -8  411.16   13.80
   0   1  -8  379.86   15.90
   0  -1   8  404.26   14.40
   0  -1   8  388.46   17.30
   0  -1   8  406.76   16.00
   0  -1   8  404.06   16.10
  -1   1  -8  858.21   27.70
  -1   1  -8  864.61   27.70
  -1   1  -8  838.32   23.20
   1  -1   8  827.82   29.10
   1  -1   8  876.91   26.30
   1  -1   8  835.42   28.00
   1  -1   8  823.32   27.20
  -2   1  -8 1299.17   39.30
  -2   1  -8 1258.87   38.30
   2  -1   8 1274.77   40.20
   2  -1   8 1232.78   39.00
   2  -1   8 1313.57   37.30
   2  -1   8 1282.47   38.00
  -3   1  -8  769.72   26.00
  -3   1  -8  764.62   27.70
  -3   1  -8  734.03   22.10
   3  -1   8  785.52   25.70
   3  -1   8  805.32   28.40
   3  -1   8  727.03   26.90
   3  -1   8  781.72   25.60
  -4   1  -8 1011.60   35.50
  -4   1  -8 1023.70   32.70
  -4   1  -8  979.30   26.90
  -4   1  -8 1074.79   36.00
   4  -1   8 1029.70   32.50
   4  -1   8 1072.89   32.40
   4  -1   8  958.80   33.80
  -5   1  -8  985.30   36.10
  -5   1  -8 1049.00   37.10
  -5   1  -8  926.51   35.50
   5  -1   8  986.30   31.40
   5  -1   8  994.40   32.40
   5  -1   8  931.11   33.60
  -6   1  -8  792.22   33.00
  -6   1  -8  811.02   33.30
  -6   1  -8  746.33   27.60
   6  -1   8  827.42   28.80
   6  -1   8  818.82   27.10
  -7   1  -8  604.84   28.90
  -7   1  -8  540.65   22.00
  -7   1  -8  593.24   28.80
   7  -1   8  548.85   22.90
   7  -1   8  542.85   20.70
   7   0  -8    3.30    5.00
   7   0  -8    1.50    1.80
  -7   0   8    3.80    3.70
  -7   0   8   -1.50    3.50
   6   0  -8 1826.02   61.89
  -6   0   8 1932.91   47.90
  -6   0   8 1929.51   71.09
  -6   0   8 1927.61   65.79
   5   0  -8   16.30    3.10
   5   0  -8   21.60    4.70
  -5   0   8   19.10    2.20
  -5   0   8   19.10    2.30
   4   0  -8 3542.75   98.59
   4   0  -8 3683.33   94.49
   4   0  -8 3544.85  100.89
  -4   0   8 3636.74   92.59
  -4   0   8 3694.13   89.19
  -4   0   8 3746.43   90.49
   3   0  -8  409.56   15.90
   3   0  -8  390.26   14.90
   3   0  -8  369.86   18.20
   3   0  -8  373.96   16.30
  -3   0   8  389.86   18.50
  -3   0   8  405.56   13.30
  -3   0   8  371.46   14.70
   2   0  -8 6440.96  165.48
   2   0  -8 6530.15  161.28
   2   0  -8 6764.32  161.98
  -2   0   8 6539.55  161.78
  -2   0   8 6482.35  160.98
  -2   0   8 6310.27  164.98
   1   0  -8  578.34   20.60
   1   0  -8  586.04   20.50
   1   0  -8  581.64   22.60
  -1   0   8  560.14   20.00
  -1   0   8  580.54   20.40
  -1   0   8  589.34   22.20
   0   0  -8 5775.42  144.19
   0   0  -8 5854.21  144.79
   0   0  -8 5707.13  146.19
   0   0   8 5750.72  144.29
   0   0   8 5825.52  144.19
   0   0   8 5678.13  145.79
  -1   0  -8  704.13   24.00
   1   0   8  694.63   23.70
   1   0   8  716.93   24.90
   1   0   8  727.63   24.40
  -2   0  -8 3440.36   90.39
  -2   0  -8 3385.36   88.89
   2   0   8 3391.16   89.59
   2   0   8 3426.96   90.19
   2   0   8 3394.46   88.79
  -3   0  -8  367.76   15.80
  -3   0  -8  391.96   16.50
   3   0   8  377.16   16.50
   3   0   8  401.46   15.70
   3   0   8  385.16   16.80
   3   0   8  393.06   15.90
  -4   0  -8 1549.24   46.30
  -4   0  -8 1536.05   49.20
  -4   0  -8 1652.13   48.70
   4   0   8 1612.34   46.10
   4   0   8 1596.34   46.00
   4   0   8 1584.64   47.60
  -5   0  -8    3.30    2.60
  -5   0  -8    1.50    1.30
  -5   0  -8    5.10    2.90
   5   0   8    2.20    1.00
   5   0   8    1.10    1.40
   5   0   8    0.50    1.00
  -6   0  -8  309.27   18.20
  -6   0  -8  288.37   17.30
  -6   0  -8  303.87   14.90
   6   0   8  306.47   14.70
   6   0   8  291.77   15.30
   6   0   8  294.07   13.80
  -7   0  -8   55.79    7.60
  -7   0  -8   45.80    7.10
   7   0   8   62.29    6.60
   7   0   8   56.29    5.70
  -7   1   8  122.09   13.90
   6  -1  -8  324.97   13.20
   6  -1  -8  286.67   18.70
   6  -1  -8  312.97   11.50
  -6   1   8  308.97   11.50
  -6   1   8  279.17   21.40
  -6   1   8  337.47   20.20
   5  -1  -8  485.85   17.00
   5  -1  -8  487.55   23.90
   5  -1  -8  512.05   18.20
  -5   1   8  472.65   16.10
   4  -1  -8  302.37   12.50
   4  -1  -8  308.87   17.20
   4  -1  -8  288.87   13.60
   4  -1  -8  319.67   13.20
  -4   1   8  312.17   11.70
  -4   1   8  305.57   13.00
   3  -1  -8 1876.31   50.89
   3  -1  -8 1865.71   51.49
   3  -1  -8 1795.12   56.19
   3  -1  -8 1860.31   51.29
  -3   1   8 1865.71   49.50
  -3   1   8 1874.01   56.29
  -3   1   8 1877.41   51.39
  -3   1   8 1928.21   51.69
   2  -1  -8   43.10    4.30
   2  -1  -8   39.00    5.10
   2  -1  -8   41.70    3.40
   2  -1  -8   36.00    4.00
  -2   1   8   33.00    3.70
  -2   1   8   39.90    5.00
  -2   1   8   37.90    4.10
  -2   1   8   42.80    2.60
   1  -1  -8 3266.07   85.29
   1  -1  -8 3229.98   87.79
   1  -1  -8 3287.97   85.49
  -1   1   8 3313.57   85.39
  -1   1   8 3399.36   85.79
  -1   1   8 3245.38   87.59
   0  -1  -8   47.70    4.70
   0  -1  -8   46.60    4.80
   0  -1  -8   40.70    4.40
   0   1   8   51.59    4.90
   0   1   8   48.50    4.50
   0   1   8   38.90    4.40
  -1  -1  -8 5718.73  141.99
  -1  -1  -8 5635.64  142.59
   1   1   8 5683.43  141.79
   1   1   8 5556.14  142.09
   1   1   8 5734.33  142.49
  -2  -1  -8   18.30    3.10
  -2  -1  -8   19.80    2.60
  -2  -1  -8   16.90    3.10
  -2  -1  -8   19.00    2.00
   2   1   8   16.40    2.90
   2   1   8   20.00    3.10
   2   1   8   16.70    3.10
  -3  -1  -8 5885.41  148.19
  -3  -1  -8 5832.12  146.79
   3   1   8 5918.21  147.69
   3   1   8 6006.10  148.69
   3   1   8 5773.22  147.39
  -4  -1  -8   19.10    3.30
  -4  -1  -8   15.70    3.40
  -4  -1  -8   17.70    3.30
   4   1   8   13.30    2.60
   4   1   8   20.70    3.40
   4   1   8   15.10    2.90
   4   1   8   21.60    3.50
  -5  -1  -8 3288.97   89.79
  -5  -1  -8 3300.67   87.99
  -5  -1  -8 3074.79   90.89
   5   1   8 3336.97   87.19
   5   1   8 3367.56   87.09
  -6  -1  -8  145.69    9.80
  -6  -1  -8  134.79   10.90
  -6  -1  -8  135.19   11.40
   6   1   8  119.49    9.10
   6   1   8  139.39    8.90
   6   1   8  147.29    9.40
  -7  -1  -8 1470.25   53.29
  -7  -1  -8 1667.43   53.79
   7   1   8 1524.05   51.39
   7   1   8 1583.34   47.50
  -8  -1  -8  127.09   12.70
  -8  -1  -8  121.79   12.10
   8   1   8  112.89   10.40
   8   1   8   97.89    8.10
   8   1   8  107.29    8.80
   6  -2  -8  591.34   28.80
   6  -2  -8  590.64   19.80
   6  -2  -8  645.74   20.70
  -6   2   8  579.14   20.10
  -6   2   8  621.84   29.70
  -6   2   8  648.64   34.00
   5  -2  -8 1766.62   57.49
   5  -2  -8 1718.43   47.50
   5  -2  -8 1718.73   48.20
  -5   2   8 1737.63   47.50
   4  -2  -8  776.12   26.50
   4  -2  -8  834.92   26.30
   4  -2  -8  820.52   25.60
   4  -2  -8  806.62   31.70
  -4   2   8  801.62   25.00
  -4   2   8  790.22   31.20
   3  -2  -8 2166.78   58.39
   3  -2  -8 2120.39   63.19
   3  -2  -8 2103.79   57.29
   3  -2  -8 2117.69   56.39
  -3   2   8 2099.89   58.49
  -3   2   8 2099.79   57.39
  -3   2   8 2152.58   56.69
  -3   2   8 2184.68   63.19
   2  -2  -8  577.84   20.00
   2  -2  -8  568.64   20.60
   2  -2  -8  561.24   17.30
   2  -2  -8  590.94   23.30
  -2   2   8  572.74   19.90
  -2   2   8  596.54   19.20
  -2   2   8  579.14   22.80
  -2   2   8  593.74   20.80
   1  -2  -8 2400.16   63.99
   1  -2  -8 2413.86   64.79
   1  -2  -8 2398.46   66.59
  -1   2   8 2362.96   64.69
  -1   2   8 2465.75   64.19
  -1   2   8 2437.16   66.29
  -1   2   8 2299.27   59.19
   0  -2  -8  954.60   30.60
   0  -2  -8  959.10   29.60
   0  -2  -8  929.91   30.00
   0   2   8  939.71   29.50
   0   2   8  932.81   30.00
   0   2   8  967.50   30.20
  -1  -2  -8  935.51   29.50
  -1  -2  -8  900.01   23.90
  -1  -2  -8  918.41   27.40
  -1  -2  -8  894.01   29.70
  -1  -2  -8  926.81   29.40
   1   2   8  980.90   30.20
   1   2   8  917.01   29.20
   1   2   8  955.10   29.10
  -2  -2  -8  757.02   21.30
  -2  -2  -8  706.73   24.50
  -2  -2  -8  709.93   21.60
   2   2   8  689.93   24.60
   2   2   8  736.03   24.70
   2   2   8  734.43   23.60
  -3  -2  -8  174.98   10.30
  -3  -2  -8  181.38   13.00
  -3  -2  -8  200.98    9.30
  -3  -2  -8  183.18   10.30
   3   2   8  179.58    9.20
   3   2   8  192.78   10.60
   3   2   8  181.18   10.10
  -4  -2  -8  583.54   22.30
  -4  -2  -8  605.64   21.70
  -4  -2  -8  635.44   23.40
  -4  -2  -8  586.14   24.10
  -4  -2  -8  577.24   15.90
   4   2   8  578.14   21.80
   4   2   8  584.04   22.20
   4   2   8  597.34   20.70
  -5  -2  -8    5.50    2.30
  -5  -2  -8    9.80    3.20
  -5  -2  -8    7.20    2.40
   5   2   8    6.50    1.80
   5   2   8    4.80    1.90
   5   2   8    4.00    1.90
   5   2   8   11.20    2.20
  -6  -2  -8  671.83   28.90
  -6  -2  -8  722.73   27.70
  -6  -2  -8  675.63   25.70
   6   2   8  671.53   24.40
   6   2   8  680.13   25.50
   6   2   8  638.84   24.60
  -7  -2  -8   34.30    6.00
  -7  -2  -8   37.90    7.20
   7   2   8   30.30    4.30
   7   2   8   40.50    4.20
   7   2   8   32.20    5.00
  -8  -2  -8  425.16   24.30
  -8  -2  -8  461.25   23.90
   8   2   8  411.16   18.70
   8   2   8  409.96   18.30
   8   2   8  385.56   19.40
   6  -3  -8  137.89    9.30
   6  -3  -8  125.19   12.50
   6  -3  -8  136.39    6.40
  -6   3   8  135.49   15.00
  -6   3   8  135.49    8.20
   5  -3  -8  375.66   13.70
   5  -3  -8  352.76   20.60
   5  -3  -8  349.47   15.30
  -5   3   8  400.26   17.70
  -5   3   8  360.46   20.60
   4  -3  -8  557.64   25.60
   4  -3  -8  590.14   19.50
   4  -3  -8  590.14   21.40
  -4   3   8  559.64   25.30
  -4   3   8  545.35   19.90
   3  -3  -8 1139.89   39.90
   3  -3  -8 1234.78   39.90
   3  -3  -8 1224.18   34.70
  -3   3   8 1179.48   36.80
  -3   3   8 1176.08   34.90
  -3   3   8 1160.28   34.30
  -3   3   8 1155.88   39.80
   2  -3  -8 2003.50   54.19
   2  -3  -8 1913.81   58.19
  -2   3   8 1994.60   56.09
  -2   3   8 2013.20   58.29
  -2   3   8 2013.80   54.19
  -2   3   8 2014.70   53.99
   1  -3  -8 2669.73   73.99
   1  -3  -8 3164.88   85.69
   1  -3  -8 2630.74   71.49
  -1   3   8 2658.23   71.29
  -1   3   8 2684.83   70.59
  -1   3   8 2641.94   72.59
  -1   3   8 2569.74   73.19
   0  -3  -8 2770.62   74.49
   0  -3  -8 2919.31   74.79
   0  -3  -8 2771.12   75.19
   0   3   8 2814.32   74.39
   0   3   8 2715.23   75.19
   0   3   8 2908.81   74.99
  -1  -3  -8 1987.80   56.29
  -1  -3  -8 1933.61   54.29
  -1  -3  -8 2026.10   55.19
  -1  -3  -8 1975.40   53.89
   1   3   8 2026.40   53.79
   1   3   8 1972.60   55.69
   1   3   8 1939.61   54.79
  -2  -3  -8 3694.23   93.89
  -2  -3  -8 3640.94   92.29
  -2  -3  -8 3420.56   93.69
  -2  -3  -8 3442.36   90.79
   2   3   8 3914.21   91.29
   2   3   8 3432.36   93.59
   2   3   8 3516.15   93.29
  -3  -3  -8 1222.28   38.10
  -3  -3  -8 1243.68   34.10
  -3  -3  -8 1215.18   34.60
  -3  -3  -8 1226.38   37.50
  -3  -3  -8 1236.08   38.20
   3   3   8 1177.78   37.70
   3   3   8 1283.27   34.90
   3   3   8 1199.98   37.70
  -4  -3  -8 2341.27   65.79
  -4  -3  -8 2351.86   59.19
  -4  -3  -8 2435.36   65.39
  -4  -3  -8 2310.57   67.29
  -4  -3  -8 2309.77   65.09
  -4  -3  -8 2299.67   62.69
   4   3   8 2373.06   60.99
   4   3   8 2272.27   64.59
   4   3   8 2203.88   64.29
  -5  -3  -8  380.06   18.20
  -5  -3  -8  386.16   17.20
  -5  -3  -8  405.46   19.80
  -5  -3  -8  399.16   17.90
  -5  -3  -8  398.36   17.40
   5   3   8  391.56   13.40
   5   3   8  380.36   17.10
   5   3   8  387.76   14.80
   5   3   8  389.76   17.30
  -6  -3  -8  743.43   30.80
  -6  -3  -8  700.83   29.00
  -6  -3  -8  771.02   28.80
   6   3   8  750.92   27.40
   6   3   8  763.62   24.80
   6   3   8  748.43   22.50
   6   3   8  782.52   26.60
  -7  -3  -8   20.50    4.50
  -7  -3  -8   29.30    5.80
   7   3   8   18.80    4.00
   7   3   8   24.30    3.80
   7   3   8   26.40    4.50
   7   3   8   23.90    3.00
   7   3   8   24.30    4.60
  -8  -3  -8  147.09   13.50
  -8  -3  -8  163.28   13.40
   8   3   8  181.68   11.70
   8   3   8  170.88    8.40
   8   3   8  167.88   10.70
   8   3   8  167.88   10.60
  -6   4   8  433.36   28.20
   5  -4  -8 1068.59   42.00
   5  -4  -8 1096.69   35.70
   5  -4  -8 1103.79   30.60
   4  -4  -8  523.65   18.00
   4  -4  -8  534.85   21.30
   4  -4  -8  524.45   24.90
  -4   4   8  526.85   20.00
  -4   4   8  537.35   25.10
   3  -4  -8  961.00   31.60
   3  -4  -8  912.41   28.10
   3  -4  -8  855.01   45.40
  -3   4   8  933.61   34.20
  -3   4   8  925.61   29.50
  -3   4   8  916.31   27.90
   2  -4  -8  274.47   14.80
   2  -4  -8  297.27   14.60
   2  -4  -8  310.07   12.90
   2  -4  -8  281.97   15.20
  -2   4   8  316.67   13.50
  -2   4   8  281.77   14.20
  -2   4   8  329.37   13.10
  -2   4   8  287.17   17.10
   1  -4  -8  357.06   16.20
   1  -4  -8  365.36   16.20
   1  -4  -8  350.56   16.00
   1  -4  -8  341.77   14.30
  -1   4   8  333.27   15.50
  -1   4   8  329.77   15.40
  -1   4   8  368.56   14.50
  -1   4   8  332.37   14.10
   0  -4  -8   59.19    5.40
   0  -4  -8   55.29    5.40
   0  -4  -8   60.89    5.20
   0  -4  -8   57.39    5.80
   0   4   8   59.59    5.80
   0   4   8   60.69    5.30
  -1  -4  -8  226.88   11.50
  -1  -4  -8  227.38   10.50
  -1  -4  -8  216.48    9.60
  -1  -4  -8  202.88   10.70
  -1  -4  -8  210.98   11.60
   1   4   8  210.18   10.00
   1   4   8  206.98   11.50
   1   4   8  215.68   11.10
  -2  -4  -8  200.28   10.30
  -2  -4  -8  198.28    9.80
  -2  -4  -8  210.38   11.60
  -2  -4  -8  206.38   10.30
  -2  -4  -8  235.58   11.70
   2   4   8  212.78   11.50
   2   4   8  200.68    9.00
   2   4   8  203.18   11.10
  -3  -4  -8   25.00    3.90
  -3  -4  -8   33.80    3.60
  -3  -4  -8   35.10    4.30
   3   4   8   39.40    4.70
   3   4   8   28.30    2.80
   3   4   8   31.00    4.10
  -4  -4  -8  542.45   23.40
  -4  -4  -8  573.54   22.40
  -4  -4  -8  559.74   18.70
  -4  -4  -8  544.25   22.00
  -4  -4  -8  534.25   21.60
   4   4   8  566.04   17.10
   4   4   8  541.15   19.80
   4   4   8  586.54   22.20
   4   4   8  570.74   22.00
   4   4   8  556.74   19.20
  -5  -4  -8   42.10    6.00
  -5  -4  -8   45.00    5.80
  -5  -4  -8   47.40    4.00
  -5  -4  -8   31.10    4.50
   5   4   8   45.40    5.30
   5   4   8   40.10    3.30
   5   4   8   47.00    4.20
   5   4   8   43.10    5.10
  -6  -4  -8  498.85   22.80
  -6  -4  -8  503.25   20.80
  -6  -4  -8  473.05   23.30
   6   4   8  465.15   20.30
   6   4   8  489.35   21.10
   6   4   8  512.25   18.10
   6   4   8  520.05   18.70
   6   4   8  516.65   16.70
  -7  -4  -8  115.29   11.20
  -7  -4  -8  112.39   10.50
   7   4   8  128.19    9.60
   7   4   8  126.99    7.10
   7   4   8  116.09    7.40
   7   4   8  121.89    7.30
   7   4   8  121.99    8.70
   7   4   8  106.59    8.80
  -8  -4  -8  298.17   18.40
  -8  -4  -8  259.77   18.20
   8   4   8  270.37   12.70
   8   4   8  283.97   12.80
   8   4   8  266.57   15.30
   8   4   8  247.68   16.90
   8   4   8  261.27   13.90
   5  -5  -8    4.60    2.80
   5  -5  -8    6.20    3.10
   5  -5  -8    7.00    2.60
  -5   5   8    4.00    2.70
   4  -5  -8 1251.67   45.80
   4  -5  -8 1327.27   42.00
   4  -5  -8 1238.78   44.10
   3  -5  -8   39.30    5.50
   3  -5  -8   49.70    6.30
   3  -5  -8   40.60    4.00
  -3   5   8   40.60    4.80
  -3   5   8   48.10    4.10
   2  -5  -8 2244.38   66.89
   2  -5  -8 2371.16   62.19
   2  -5  -8 2305.17   66.19
   2  -5  -8 2286.67   66.79
  -2   5   8 2366.26   61.79
  -2   5   8 2246.68   63.09
  -2   5   8 2280.77   66.99
   1  -5  -8  236.68   13.30
   1  -5  -8  231.28   11.40
   1  -5  -8  230.08   12.90
   1  -5  -8  243.78   13.40
  -1   5   8  241.98   13.40
  -1   5   8  250.67   12.00
  -1   5   8  241.98   11.50
  -1   5   8  238.98   12.90
   0  -5  -8 2865.41   79.69
   0  -5  -8 2887.91   72.99
   0  -5  -8 2831.42   77.39
   0  -5  -8 2860.21   79.19
   0  -5  -8 2981.40   77.49
   0   5   8 2999.60   77.59
   0   5   8 2845.52   79.19
   0   5   8 2973.80   76.79
   0   5   8 2868.71   78.89
   0   5   8 2849.51   77.09
  -1  -5  -8  359.86   16.00
  -1  -5  -8  350.96   15.60
  -1  -5  -8  342.37   14.00
  -1  -5  -8  361.86   13.70
  -1  -5  -8  347.47   16.60
   1   5   8  364.06   15.70
   1   5   8  359.06   14.10
   1   5   8  374.46   15.90
  -2  -5  -8 1548.05   43.50
  -2  -5  -8 1488.85   40.90
  -2  -5  -8 1541.05   44.70
  -2  -5  -8 1441.26   45.70
   2   5   8 1554.44   40.80
   2   5   8 1483.05   44.90
   2   5   8 1430.76   45.20
   2   5   8 1513.35   43.50
  -3  -5  -8  747.33   25.20
  -3  -5  -8  731.43   25.80
  -3  -5  -8  718.93   26.70
   3   5   8  720.83   26.60
   3   5   8  723.03   22.10
   3   5   8  740.03   25.40
   3   5   8  757.22   23.90
   3   5   8  733.63   26.70
  -4  -5  -8  565.64   20.10
  -4  -5  -8  564.24   22.40
  -4  -5  -8  573.94   22.20
  -4  -5  -8  515.45   23.00
   4   5   8  542.45   22.20
   4   5   8  572.74   20.60
   4   5   8  541.45   19.50
   4   5   8  504.95   22.40
  -5  -5  -8  525.65   23.00
  -5  -5  -8  582.54   22.70
  -5  -5  -8  553.84   19.60
  -5  -5  -8  528.65   24.00
   5   5   8  535.75   22.70
   5   5   8  559.84   20.70
   5   5   8  548.75   17.00
   5   5   8  565.54   22.40
  -6  -5  -8   48.30    6.60
  -6  -5  -8   46.70    4.70
  -6  -5  -8   55.49    6.90
  -6  -5  -8   49.99    5.80
   6   5   8   45.20    5.00
   6   5   8   55.99    6.30
   6   5   8   51.09    6.20
  -7  -5  -8  179.28   13.50
  -7  -5  -8  201.28   12.00
  -7  -5  -8  187.98   14.40
   7   5   8  197.08   12.20
   7   5   8  212.78   13.10
   7   5   8  188.18   10.80
  -8  -5  -8   29.00    5.80
  -8  -5  -8   16.30    5.90
   8   5   8   21.00    3.60
   8   5   8   21.10    2.50
   8   5   8   19.90    4.70
   8   5   8   20.30    2.30
   8   5   8   15.70    3.70
   4  -6  -8  520.25   25.00
   4  -6  -8  544.85   23.70
   4  -6  -8  496.75   25.70
  -4   6   8  544.25   21.00
  -4   6   8  519.95   21.50
   3  -6  -8  111.19    9.50
   3  -6  -8  103.39    9.80
  -3   6   8  114.39    6.60
  -3   6   8  105.09    7.00
  -3   6   8  106.39    8.40
   2  -6  -8  286.87   15.90
   2  -6  -8  280.07   15.90
  -2   6   8  287.97   11.10
  -2   6   8  273.97   12.40
   1  -6  -8  326.77   17.10
   1  -6  -8  354.66   16.80
  -1   6   8  343.87   14.70
  -1   6   8  340.77   17.50
   0  -6  -8   77.69    4.90
   0  -6  -8   71.39    6.40
   0  -6  -8   71.69    7.40
   0  -6  -8   88.99    7.90
   0   6   8   85.19    6.80
   0   6   8   74.79    6.30
   0   6   8   93.39    8.00
   0   6   8   81.59    7.70
  -1  -6  -8  532.45   19.50
  -1  -6  -8  576.04   23.50
  -1  -6  -8  560.74   19.40
  -1  -6  -8  548.35   22.70
   1   6   8  580.74   22.00
   1   6   8  570.84   22.50
   1   6   8  558.74   20.70
   1   6   8  578.14   23.20
  -2  -6  -8   76.89    4.90
  -2  -6  -8   75.79    7.40
  -2  -6  -8   84.79    7.20
  -2  -6  -8   99.49    7.00
   2   6   8   81.79    7.30
   2   6   8   81.29    7.00
   2   6   8   77.29    6.70
   2   6   8   72.79    7.00
  -3  -6  -8 1039.20   33.70
  -3  -6  -8 1016.70   33.40
  -3  -6  -8 1035.40   35.20
   3   6   8  952.10   34.10
   3   6   8 1000.20   34.50
   3   6   8 1039.20   29.60
   3   6   8 1049.20   34.10
   3   6   8 1026.70   32.50
  -4  -6  -8   30.90    4.60
  -4  -6  -8   36.30    4.80
  -4  -6  -8   24.80    4.30
   4   6   8   28.30    4.10
   4   6   8   30.50    4.50
   4   6   8   27.50    4.20
   4   6   8   34.40    4.00
   4   6   8   37.00    3.90
  -5  -6  -8  796.62   30.20
  -5  -6  -8  842.52   29.40
  -5  -6  -8  760.62   30.70
  -5  -6  -8  778.22   26.90
   5   6   8  754.02   28.40
   5   6   8  729.43   29.30
   5   6   8  760.72   27.60
   5   6   8  804.12   24.70
  -6  -6  -8   62.49    5.90
  -6  -6  -8   64.19    6.70
  -6  -6  -8   67.99    7.90
  -6  -6  -8   59.39    7.50
   6   6   8   57.99    6.20
   6   6   8   58.89    6.30
   6   6   8   58.59    4.30
   6   6   8   62.19    7.30
  -7  -6  -8  377.56   16.30
  -7  -6  -8  405.26   21.50
  -7  -6  -8  383.86   18.20
  -7  -6  -8  412.56   21.90
   7   6   8  355.86   17.10
   7   6   8  346.27   19.20
  -8  -6  -8   84.79   10.10
  -8  -6  -8   84.29    9.90
   8   6   8  104.69    8.50
   8   6   8   91.79    9.60
   4  -7  -8  369.46   19.90
   4  -7  -8  355.86   21.90
  -4   7   8  363.26   16.90
  -4   7   8  334.37   17.30
   3  -7  -8 1553.04   52.89
   3  -7  -8 1613.74   53.89
   3  -7  -8 1586.24   51.79
  -3   7   8 1563.34   43.20
  -3   7   8 1527.55   45.50
  -3   7   8 1577.64   48.70
   2  -7  -8  195.98   13.20
   2  -7  -8  168.48   12.50
   2  -7  -8  124.29   11.00
  -2   7   8  181.38   13.40
  -2   7   8  162.68    9.10
  -2   7   8  177.38    8.70
  -2   7   8  174.28   11.00
   1  -7  -8 1911.11   56.09
   1  -7  -8 1808.52   57.29
   1  -7  -8 1815.12   47.40
   1  -7  -8 1819.32   57.49
  -1   7   8 1811.32   57.89
  -1   7   8 1848.12   54.09
  -1   7   8 1826.82   48.00
  -1   7   8 1840.92   52.29
   0  -7  -8   30.30    4.30
   0  -7  -8   36.20    5.40
   0  -7  -8   27.60    3.20
   0   7   8   38.60    4.90
   0   7   8   31.90    5.10
  -1  -7  -8 1380.96   40.80
  -1  -7  -8 1434.56   45.80
  -1  -7  -8 1433.16   46.60
  -1  -7  -8 1390.56   40.90
   1   7   8 1402.86   45.50
   1   7   8 1439.06   43.90
  -2  -7  -8    3.50    1.30
  -2  -7  -8    8.60    3.10
  -2  -7  -8    6.80    2.60
  -2  -7  -8    2.60    1.40
   2   7   8    5.40    2.90
   2   7   8    4.80    2.20
   2   7   8    4.60    1.40
  -3  -7  -8  428.76   20.10
  -3  -7  -8  448.16   19.50
  -3  -7  -8  421.06   18.50
   3   7   8  430.56   18.60
   3   7   8  422.76   15.50
   3   7   8  432.06   19.80
   3   7   8  417.46   19.30
   3   7   8  408.16   17.40
   3   7   8  419.86   20.00
  -4  -7  -8   21.70    4.00
  -4  -7  -8   15.40    3.60
  -4  -7  -8   11.70    3.40
   4   7   8   12.70    3.10
   4   7   8   21.60    4.10
   4   7   8   15.30    4.40
   4   7   8   18.20    3.50
   4   7   8   18.10    3.90
  -5  -7  -8   84.29    8.30
  -5  -7  -8   70.59    6.70
  -5  -7  -8   61.79    7.50
  -5  -7  -8   70.19    7.20
   5   7   8   55.19    6.80
   5   7   8   77.79    7.40
   5   7   8   64.69    6.00
  -6  -7  -8    2.20    2.20
  -6  -7  -8    7.60    2.40
  -6  -7  -8    2.90    1.90
  -6  -7  -8    4.30    3.10
   6   7   8    1.70    1.50
   6   7   8    4.90    2.00
   6   7   8    2.10    2.80
  -7  -7  -8    3.40    2.50
  -7  -7  -8    4.90    3.50
  -7  -7  -8   -1.50    1.40
  -7  -7  -8    4.10    2.40
   7   7   8    2.50    2.00
   7   7   8    7.40    3.00
   3  -8  -8  175.98   14.30
   3  -8  -8  178.08   13.80
  -3   8   8  180.68   10.70
  -3   8   8  167.48    8.40
  -3   8   8  159.08   11.50
   2  -8  -8  188.98   13.90
   2  -8  -8  193.48   14.00
   2  -8  -8  172.58   13.00
  -2   8   8  188.08   12.00
  -2   8   8  178.78    9.80
  -2   8   8  174.08    9.60
  -2   8   8  168.48   13.60
   1  -8  -8  608.64   25.30
   1  -8  -8  618.04   27.30
   1  -8  -8  622.54   27.80
   1  -8  -8  584.44   19.10
  -1   8   8  614.64   27.70
  -1   8   8  653.33   25.00
  -1   8   8  609.04   20.40
  -1   8   8  615.24   22.80
   0  -8  -8  467.95   17.20
   0  -8  -8  476.55   22.70
   0  -8  -8  467.05   19.80
   0  -8  -8  466.05   22.80
   0   8   8  431.96   22.30
   0   8   8  477.55   19.80
  -1  -8  -8  956.60   30.00
  -1  -8  -8  941.91   29.40
  -1  -8  -8  895.81   34.00
  -1  -8  -8  886.41   34.60
   1   8   8  869.91   33.80
   1   8   8  849.32   41.10
  -2  -8  -8  784.72   29.40
  -2  -8  -8  759.72   30.40
  -2  -8  -8  679.53   22.90
   2   8   8  759.72   27.00
   2   8   8  734.93   23.00
   2   8   8  752.62   28.40
   2   8   8  709.93   28.70
  -3  -8  -8  524.65   21.90
  -3  -8  -8  527.05   23.80
   3   8   8  524.65   18.90
   3   8   8  525.85   23.30
   3   8   8  517.85   20.90
   3   8   8  517.85   23.40
   3   8   8  529.75   22.80
  -4  -8  -8 1081.29   38.00
  -4  -8  -8 1071.19   38.80
   4   8   8 1090.59   35.40
   4   8   8 1175.68   39.20
   4   8   8 1030.40   34.30
   4   8   8 1095.69   39.00
   4   8   8 1110.39   36.90
  -5  -8  -8  229.18   15.10
  -5  -8  -8  226.78   14.90
  -5  -8  -8  267.37   15.30
   5   8   8  252.17   13.40
   5   8   8  241.88   14.70
   5   8   8  243.18   12.80
   5   8   8  236.98   15.40
  -6  -8  -8  686.83   27.90
  -6  -8  -8  707.53   30.10
  -6  -8  -8  675.63   29.90
   6   8   8  660.23   29.40
   6   8   8  717.13   25.30
   6   8   8  707.43   28.60
  -7  -8  -8   16.10    3.80
  -7  -8  -8   17.60    5.80
  -7  -8  -8   23.40    4.60
  -7  -8  -8   16.00    5.00
   7   8   8   10.90    4.60
   7   8   8   17.10    4.00
   7   8   8   24.40    3.80
   1  -9  -8  282.07   11.70
   1  -9  -8  269.77   19.00
   1  -9  -8  280.77   16.10
   1  -9  -8  267.17   17.50
  -1   9   8  276.87   13.80
  -1   9   8  280.17   12.70
  -1   9   8  292.37   18.70
  -1   9   8  247.38   14.90
   0  -9  -8  202.48   15.00
   0  -9  -8  215.68   12.80
   0  -9  -8  212.38   10.90
   0  -9  -8  221.58   15.10
   0   9   8  206.08   15.00
   0   9   8  208.88   10.40
   0   9   8  217.28   13.00
   0   9   8  231.78   13.00
  -1  -9  -8   79.09    6.70
  -1  -9  -8   94.99    9.50
  -1  -9  -8   81.49    8.80
   1   9   8   85.19    9.30
   1   9   8   76.99    8.00
  -2  -9  -8   54.69    7.40
  -2  -9  -8   55.89    6.20
  -2  -9  -8   57.09    5.00
  -2  -9  -8   57.29    7.00
   2   9   8   50.19    6.40
   2   9   8   54.99    7.10
   2   9   8   39.70    5.40
  -3  -9  -8   16.90    4.00
  -3  -9  -8   13.20    3.70
  -3  -9  -8   18.60    4.90
   3   9   8   18.10    4.40
   3   9   8   19.70    5.00
   3   9   8   14.10    3.30
   3   9   8   21.30    4.20
   3   9   8   25.00    7.90
  -4  -9  -8   30.70    5.50
  -4  -9  -8   37.80    6.20
  -4  -9  -8   41.30    6.10
   4   9   8   36.30    5.60
   4   9   8   51.09    6.80
   4   9   8   32.20    5.90
   4   9   8   35.10    4.80
  -5  -9  -8    2.30    1.80
  -5  -9  -8    1.40    2.10
  -5  -9  -8    0.90    2.30
  -5  -9  -8    1.90    2.30
   5   9   8    0.30    1.90
   5   9   8    4.30    2.50
   5   9   8    6.90    3.10
   5   9   8    0.00    1.70
  -6  -9  -8  175.98   13.30
  -6  -9  -8  161.38   12.30
  -6  -9  -8  160.88   12.00
  -6  -9  -8  161.58   13.30
   6   9   8  175.78   13.30
   6   9   8  161.98   12.80
   6   9   8  172.88   19.60
   6   9   8  168.98   11.30
   0 -10  -8  722.53   26.10
   0 -10  -8  718.43   27.90
   0 -10  -8  732.43   33.10
   0  10   8  731.23   25.50
  -1 -10  -8   42.90    5.60
  -1 -10  -8   59.79    7.80
  -1 -10  -8   52.59    5.80
  -1 -10  -8   59.59    8.50
   1  10   8   46.30    6.60
   1  10   8   51.69    6.30
   1  10   8   52.59    7.70
  -2 -10  -8  609.94   28.30
  -2 -10  -8  637.54   25.50
  -2 -10  -8  667.63   20.80
  -2 -10  -8  697.73   32.40
   2  10   8  594.34   28.60
   2  10   8  627.34   27.30
   2  10   8  615.54   25.50
  -3 -10  -8  110.59    9.60
  -3 -10  -8  109.79   10.30
  -3 -10  -8  122.19   13.70
   3  10   8   95.69   10.00
   3  10   8  122.89    9.50
   3  10   8  120.49   11.50
   3  10   8  105.79   10.30
  -4 -10  -8  230.28   17.90
  -4 -10  -8  239.88   15.60
  -4 -10  -8  252.97   16.40
   4  10   8  241.68   16.30
   4  10   8  252.27   15.90
   4  10   8  228.38   15.90
   4  10   8  255.77   14.20
  -5 -10  -8  192.38   17.00
  -5 -10  -8  159.58   12.50
  -5 -10  -8  165.68   13.10
   5  10   8  144.79   10.60
   5  10   8  170.48   13.60
   3   7  -9  556.24   24.20
   3   7  -9  523.05   25.50
  -3  -7   9  528.25   18.20
  -3  -7   9  540.65   20.50
  -3  -7   9  512.85   26.60
   2   7  -9  625.74   25.80
   2   7  -9  626.44   27.40
  -2  -7   9  649.54   30.00
  -2  -7   9  633.14   21.90
   1   7  -9  287.47   15.20
   1   7  -9  278.97   16.70
   1   7  -9  305.47   17.70
  -1  -7   9  285.47   18.70
  -1  -7   9  283.97   13.50
   0   7  -9  519.15   21.40
   0   7  -9  523.55   24.00
   0   7  -9  474.35   23.00
   0  -7   9  517.95   26.80
   0  -7   9  505.65   20.20
  -1   7  -9   39.80    6.40
  -1   7  -9   40.40    5.30
  -1   7  -9   20.20    5.40
   1  -7   9   26.60    6.30
   1  -7   9   35.10    5.40
   5   6  -9   25.90    5.80
  -5  -6   9   25.50    4.60
  -5  -6   9   27.20    5.40
  -5  -6   9   25.10    6.60
   4   6  -9    3.90    2.60
   4   6  -9    0.90    1.90
  -4  -6   9   -2.20    1.90
  -4  -6   9   -1.30    1.80
  -4  -6   9    1.60    1.90
  -4  -6   9    1.50    1.00
   3   6  -9    5.90    2.80
   3   6  -9    4.50    1.90
  -3  -6   9    1.40    1.90
  -3  -6   9    3.70    3.10
  -3  -6   9    7.10    1.90
  -3  -6   9    7.90    3.10
   2   6  -9  124.19    9.50
   2   6  -9  123.69   10.60
  -2  -6   9  136.79    7.80
  -2  -6   9  130.19   11.50
  -2  -6   9  132.69    9.40
   1   6  -9   58.79    6.30
   1   6  -9   66.09    7.40
  -1  -6   9   57.89    7.70
  -1  -6   9   49.90    4.90
  -1  -6   9   49.90    3.60
   0   6  -9  338.57   17.80
   0   6  -9  365.96   18.40
   0   6  -9  346.47   15.60
   0  -6   9  342.77   20.30
   0  -6   9  336.77   15.10
  -1   6  -9   48.20    6.20
  -1   6  -9   51.89    6.50
  -1   6  -9   48.30    4.90
   1  -6   9   63.79    9.40
   1  -6   9   39.50    5.00
  -2   6  -9  376.66   18.70
  -2   6  -9  411.36   19.60
  -2   6  -9  401.06   15.10
   2  -6   9  411.66   18.50
   2  -6   9  414.26   23.50
  -3   6  -9   17.90    4.30
  -3   6  -9   16.20    4.30
   3  -6   9   16.10    6.50
   3  -6   9   25.20    4.70
   5   5  -9   95.49   10.10
   5   5  -9   77.69    8.30
   5   5  -9   75.29    8.20
  -5  -5   9   77.49    5.90
  -5  -5   9   89.89   10.00
  -5  -5   9   83.99    9.40
   4   5  -9  767.52   31.20
   4   5  -9  731.23   28.90
  -4  -5   9  782.72   32.40
  -4  -5   9  721.23   30.20
  -4  -5   9  717.93   25.40
   3   5  -9  260.07    9.30
   3   5  -9  246.78   14.90
   3   5  -9  271.97   14.70
  -3  -5   9  297.17   15.70
  -3  -5   9  279.47   17.20
  -3  -5   9  277.67   10.50
   2   5  -9  270.07   13.90
   2   5  -9  268.17    9.60
  -2  -5   9  260.97   11.10
  -2  -5   9  250.77   13.20
  -2  -5   9  269.87   14.30
  -2  -5   9  281.77   17.10
   1   5  -9  457.05   15.50
   1   5  -9  471.85   19.00
   1   5  -9  481.45   21.10
  -1  -5   9  462.95   17.20
  -1  -5   9  472.85   17.50
   0   5  -9    2.60    1.60
   0   5  -9    2.00    1.60
   0   5  -9    1.40    1.50
   0  -5   9    3.00    1.30
   0  -5   9    3.30    1.70
  -1   5  -9  356.76   14.30
  -1   5  -9  350.76   15.00
  -1   5  -9  333.57   16.50
   1  -5   9  340.37   15.30
  -2   5  -9  303.37   14.90
  -2   5  -9  298.37   11.50
  -2   5  -9  280.77   14.90
   2  -5   9  306.17   14.60
   2  -5   9  315.77   19.10
  -3   5  -9  169.68   10.80
  -3   5  -9  173.28   11.70
   3  -5   9  184.88   14.80
   3  -5   9  165.78   11.00
  -4   5  -9  556.24   28.90
  -4   5  -9  541.75   21.40
  -4   5  -9  501.25   24.10
   4  -5   9  503.25   22.20
   6   4  -9   26.50    6.30
   6   4  -9   24.70    5.20
   6   4  -9   29.50    5.70
  -6  -4   9   25.20    6.70
  -6  -4   9   35.50    5.10
  -6  -4   9   43.50    9.70
   5   4  -9    7.40    3.30
   5   4  -9    7.60    2.80
   5   4  -9    8.40    3.60
  -5  -4   9    5.70    4.60
  -5  -4   9    6.30    1.80
  -5  -4   9    5.50    3.00
   4   4  -9   24.00    4.60
   4   4  -9   25.30    4.80
   4   4  -9   20.60    4.60
  -4  -4   9   19.70    3.40
  -4  -4   9   22.60    5.00
  -4  -4   9   26.00    5.00
   3   4  -9    8.80    3.60
   3   4  -9    2.40    2.10
  -3  -4   9    5.80    2.40
  -3  -4   9    5.40    1.50
  -3  -4   9    7.60    2.00
  -3  -4   9   13.30    4.20
   2   4  -9  120.89    8.60
   2   4  -9  132.29    6.90
  -2  -4   9  116.99    8.50
  -2  -4   9  140.69    7.00
   1   4  -9   69.39    5.80
   1   4  -9   73.69    5.20
  -1  -4   9   66.69    5.10
  -1  -4   9   74.59    6.90
   0   4  -9  129.39    7.60
   0   4  -9  137.89    7.90
   0  -4   9  109.99    9.00
   0  -4   9  134.69    7.90
  -1   4  -9   66.99    5.90
  -1   4  -9   73.29    5.00
   1  -4   9   70.59    5.90
  -2   4  -9    4.00    1.90
  -2   4  -9    3.10    1.10
   2  -4   9    3.70    2.00
   2  -4   9    4.30    1.90
   2  -4   9    2.40    1.40
  -3   4  -9   30.40    4.40
  -3   4  -9   20.90    4.10
   3  -4   9   20.10    3.10
   3  -4   9   17.20    3.80
   3  -4   9   20.80    5.10
  -4   4  -9   10.10    3.60
  -4   4  -9   14.50    3.00
  -4   4  -9   15.20    5.00
   4  -4   9   15.50    4.10
  -5   4  -9   30.50    6.10
  -5   4  -9   32.80    3.90
  -5   4  -9   36.00    7.40
   5  -4   9   28.20    5.20
   6   3  -9  113.69   11.30
   6   3  -9  112.89    9.40
   6   3  -9  111.29   10.30
  -6  -3   9  116.09   11.80
  -6  -3   9  113.19    8.30
  -6  -3   9  133.39   20.10
   5   3  -9  852.61   35.20
   5   3  -9  868.91   32.70
   5   3  -9  875.01   31.60
  -5  -3   9  929.01   36.20
  -5  -3   9  895.61   37.50
  -5  -3   9  859.41   26.50
   4   3  -9    2.10    1.30
   4   3  -9    3.20    1.90
  -4  -3   9    2.90    1.50
  -4  -3   9    3.30    2.50
  -4  -3   9    4.60    2.60
  -4  -3   9    3.60    1.10
  -4  -3   9    4.80    1.00
   3   3  -9  587.14   22.60
   3   3  -9  619.04   26.10
   3   3  -9  570.94   22.90
  -3  -3   9  538.95   20.40
  -3  -3   9  569.54   17.30
   2   3  -9  155.88    9.30
   2   3  -9  135.79   11.40
   2   3  -9  155.98   11.50
  -2  -3   9  149.49    7.20
  -2  -3   9  139.79    8.90
   1   3  -9   76.59    5.60
   1   3  -9   68.09    5.50
  -1  -3   9   71.39    5.20
  -1  -3   9   66.89    6.20
   0   3  -9  580.84   20.10
   0   3  -9  567.94   18.90
   0   3  -9  541.95   22.00
   0  -3   9  564.34   19.50
   0  -3   9  538.45   24.90
  -1   3  -9   67.29    6.30
  -1   3  -9   71.09    6.00
   1  -3   9   77.99    6.00
   1  -3   9   72.89    7.80
   1  -3   9   74.49    7.00
   1  -3   9   60.79    5.90
  -2   3  -9  534.85   19.30
  -2   3  -9  535.75   21.30
  -2   3  -9  566.74   24.70
   2  -3   9  503.05   20.30
   2  -3   9  470.95   19.10
   2  -3   9  544.95   24.20
   2  -3   9  546.25   24.20
  -3   3  -9  541.25   19.10
  -3   3  -9  504.95   20.80
  -3   3  -9  522.45   21.90
   3  -3   9  510.55   24.00
   3  -3   9  513.55   20.30
   3  -3   9  488.45   20.00
  -4   3  -9  381.46   22.60
  -4   3  -9  382.66   14.90
  -4   3  -9  368.96   19.20
  -4   3  -9  381.66   17.30
   4  -3   9  406.16   17.70
   4  -3   9  378.76   17.60
  -5   3  -9  457.45   15.30
  -5   3  -9  482.15   25.00
  -5   3  -9  446.46   22.90
   5  -3   9  482.75   20.70
   5  -3   9  430.86   20.30
  -6   3  -9  126.69   12.80
  -6   3  -9  110.89   11.40
   6  -3   9  126.49   11.30
   6  -3   9  111.69    8.00
   6   2  -9   46.50    5.50
   6   2  -9   33.70    6.60
   6   2  -9   34.20    6.00
  -6  -2   9   44.00    8.00
  -6  -2   9   34.20    6.50
  -6  -2   9   33.70    3.80
   5   2  -9  354.16   20.10
   5   2  -9  384.26   19.00
   5   2  -9  376.56   17.40
  -5  -2   9  362.66   20.30
  -5  -2   9  395.16   16.20
  -5  -2   9  368.56   14.70
  -5  -2   9  379.26   22.30
   4   2  -9   62.09    6.60
   4   2  -9   58.99    7.00
   4   2  -9   66.59    6.40
  -4  -2   9   52.49    4.70
  -4  -2   9   63.09    3.40
  -4  -2   9   60.99    3.50
   3   2  -9  551.84   21.40
   3   2  -9  533.25   21.40
   3   2  -9  512.15   23.70
  -3  -2   9  565.94   16.80
  -3  -2   9  531.75   19.50
   2   2  -9  200.28   11.30
   2   2  -9  189.18   10.30
   2   2  -9  185.18   12.40
  -2  -2   9  185.68    8.30
  -2  -2   9  194.78   10.30
   1   2  -9  342.67   15.80
   1   2  -9  360.36   14.10
  -1  -2   9  353.66   13.20
  -1  -2   9  345.57   17.40
  -1  -2   9  331.87   15.00
  -1  -2   9  345.07   15.60
   0   2  -9  351.26   13.20
   0   2  -9  359.86   15.00
   0   2  -9  357.56   16.00
   0  -2   9  362.56   17.80
   0  -2   9  355.96   13.90
   0  -2   9  351.96   16.00
   0  -2   9  358.56   15.80
  -1   2  -9   45.60    5.20
  -1   2  -9   43.70    3.30
  -1   2  -9   41.30    4.70
   1  -2   9   41.70    4.40
   1  -2   9   50.29    7.20
   1  -2   9   48.10    5.20
   1  -2   9   47.30    5.90
  -2   2  -9  239.38   12.70
  -2   2  -9  244.28   13.20
   2  -2   9  246.28   14.40
   2  -2   9  251.47   12.00
   2  -2   9  230.68   13.10
   2  -2   9  253.77   12.60
  -3   2  -9  131.69    7.20
  -3   2  -9  121.89    9.30
  -3   2  -9  121.09    8.70
   3  -2   9  123.89   10.00
   3  -2   9  113.09    8.00
   3  -2   9  125.09    8.50
  -4   2  -9  120.19    9.90
  -4   2  -9  103.59    5.90
  -4   2  -9  119.99   10.40
  -4   2  -9  118.49    8.50
   4  -2   9  116.89    8.20
   4  -2   9  103.99    8.00
  -5   2  -9  282.07   17.80
  -5   2  -9  282.77   17.20
  -5   2  -9  296.67   14.80
   5  -2   9  308.77   14.50
   5  -2   9  280.07   14.70
  -6   2  -9    0.70    2.20
  -6   2  -9    0.80    2.00
  -6   2  -9   -3.00    1.50
   6  -2   9    2.10    1.70
   6  -2   9    0.80    1.90
   6   1  -9  199.58   15.20
   6   1  -9  207.48   11.60
  -6  -1   9  187.28    8.10
  -6  -1   9  205.78   17.20
  -6  -1   9  169.88   14.20
   5   1  -9   20.40    3.80
   5   1  -9   24.10    5.20
  -5  -1   9   27.70    2.40
  -5  -1   9   20.20    5.70
  -5  -1   9   20.90    2.70
  -5  -1   9   28.40    3.30
   4   1  -9  197.88   13.70
   4   1  -9  187.18   11.00
  -4  -1   9  211.18    8.10
  -4  -1   9  208.58   10.00
   3   1  -9  100.89    9.60
   3   1  -9   70.89    6.30
   3   1  -9   82.99    7.00
  -3  -1   9   75.89    5.90
   2   1  -9   34.90    4.50
   2   1  -9   36.70    5.30
  -2  -1   9   29.20    3.60
  -2  -1   9   41.50    4.60
  -2  -1   9   39.10    5.20
   1   1  -9  574.34   23.30
   1   1  -9  564.94   20.90
  -1  -1   9  528.95   20.10
  -1  -1   9  514.85   22.20
  -1  -1   9  536.35   20.60
   0   1  -9   34.30    4.30
   0   1  -9   30.00    3.10
   0  -1   9   43.60    5.40
   0  -1   9   28.60    3.30
   0  -1   9   28.40    3.90
   0  -1   9   38.90    4.40
  -1   1  -9  889.11   24.60
  -1   1  -9  900.61   29.60
  -1   1  -9  839.72   29.20
   1  -1   9  907.11   27.80
   1  -1   9  891.91   29.30
   1  -1   9  891.01   29.90
   1  -1   9  849.61   30.70
  -2   1  -9  223.18   11.90
  -2   1  -9  218.88   12.40
   2  -1   9  221.08   10.90
   2  -1   9  225.78   13.80
   2  -1   9  230.98   15.60
   2  -1   9  221.18   11.60
  -3   1  -9  482.55   21.10
  -3   1  -9  496.05   19.90
  -3   1  -9  508.65   21.30
   3  -1   9  508.95   19.70
   3  -1   9  531.25   19.70
   3  -1   9  471.05   21.40
   3  -1   9  536.55   22.30
  -4   1  -9  429.56   20.30
  -4   1  -9  428.06   18.20
  -4   1  -9  410.96   13.10
  -4   1  -9  414.46   19.80
   4  -1   9  424.16   20.00
   4  -1   9  437.06   17.90
   4  -1   9  406.76   17.30
   4  -1   9  392.56   18.90
  -5   1  -9  369.46   19.50
  -5   1  -9  354.46   19.20
  -5   1  -9  341.37   16.40
   5  -1   9  388.76   17.10
   5  -1   9  343.77   15.80
  -6   1  -9  154.28   12.80
  -6   1  -9  134.79   12.00
   6  -1   9  146.29   10.30
   6  -1   9  128.09   10.60
  -7   1  -9  135.69   13.00
  -7   1  -9  132.39   12.80
   7  -1   9  119.49    8.50
   7  -1   9  144.29   10.40
   6   0  -9  324.17   20.00
   6   0  -9  297.87   14.10
  -6   0   9  309.57   10.00
  -6   0   9  325.57   22.60
  -6   0   9  295.37   19.10
   5   0  -9   82.39    9.20
   5   0  -9   75.69    6.60
  -5   0   9   83.49    6.00
  -5   0   9   82.69    4.60
   4   0  -9  576.84   25.80
   4   0  -9  580.54   21.60
  -4   0   9  577.84   20.30
  -4   0   9  592.94   16.90
  -4   0   9  592.64   18.40
   3   0  -9   16.70    3.10
   3   0  -9   19.90    3.30
   3   0  -9   26.40    6.40
  -3   0   9   26.30    2.80
  -3   0   9   28.40    3.60
   2   0  -9  368.86   18.40
   2   0  -9  387.36   16.00
   2   0  -9  419.66   18.90
  -2   0   9  380.56   18.20
  -2   0   9  411.76   16.60
  -2   0   9  382.86   15.80
   1   0  -9   37.90    4.40
   1   0  -9   36.40    5.00
  -1   0   9   35.30    4.70
  -1   0   9   32.30    4.10
  -1   0   9   33.10    4.00
   0   0  -9   45.40    5.30
   0   0  -9   49.70    5.00
   0   0   9   36.50    4.30
   0   0   9   39.60    4.40
   0   0   9   39.80    5.00
  -1   0  -9  100.09    7.50
   1   0   9   94.09    7.30
   1   0   9  115.89    7.80
   1   0   9   95.09    7.70
  -2   0  -9  203.78   15.50
  -2   0  -9  256.47   16.60
  -2   0  -9  204.38   10.60
  -2   0  -9  208.28    7.00
  -2   0  -9  204.28    6.60
   2   0   9  200.08   10.90
   2   0   9  199.48   11.60
   2   0   9  201.28   11.40
  -3   0  -9   21.80    3.70
  -3   0  -9   19.60    3.60
  -3   0  -9   23.10    4.00
   3   0   9   17.30    3.50
   3   0   9   17.00    4.30
   3   0   9   18.70    3.40
   3   0   9   18.50    3.30
  -4   0  -9 1165.78   38.10
  -4   0  -9 1193.48   37.20
  -4   0  -9 1094.59   39.00
   4   0   9 1110.99   37.50
   4   0   9 1126.09   36.20
   4   0   9 1179.58   38.70
   4   0   9 1193.98   36.80
  -5   0  -9    2.00    1.60
  -5   0  -9    0.30    1.40
  -5   0  -9    5.00    2.80
   5   0   9   -1.60    1.00
   5   0   9    2.40    1.60
  -6   0  -9 1124.29   42.00
   6   0   9 1156.68   37.10
   6   0   9 1073.29   38.50
  -7   0  -9  103.49   10.80
  -7   0  -9   96.59   10.50
   7   0   9   88.59    8.20
   7   0   9   90.19    7.50
   6  -1  -9   14.40    4.20
   6  -1  -9   18.50    3.60
  -6   1   9   19.00    2.50
  -6   1   9   14.50    5.00
  -6   1   9   17.40    4.40
   5  -1  -9  241.38   11.00
   5  -1  -9  233.08   15.90
  -5   1   9  244.08   10.00
  -5   1   9  233.48   15.80
   4  -1  -9  118.49    7.90
   4  -1  -9  125.79    7.80
   4  -1  -9  115.39    7.90
   4  -1  -9  131.09   11.00
  -4   1   9  118.29    7.60
  -4   1   9  124.29    6.80
   3  -1  -9  373.86   15.20
   3  -1  -9  328.17   13.50
   3  -1  -9  379.16   24.70
   3  -1  -9  342.17   14.60
  -3   1   9  323.17   17.30
  -3   1   9  337.97   14.60
  -3   1   9  318.17   14.30
  -3   1   9  364.76   13.20
   2  -1  -9  628.94   22.60
   2  -1  -9  620.54   19.70
   2  -1  -9  650.63   25.70
   2  -1  -9  652.23   22.80
  -2   1   9  653.63   25.40
  -2   1   9  636.14   22.50
  -2   1   9  644.04   22.70
   1  -1  -9   89.29    6.80
   1  -1  -9   94.29    8.30
   1  -1  -9   96.99    8.00
  -1   1   9   98.69    7.90
  -1   1   9   98.69    7.10
  -1   1   9   91.69    6.80
   0  -1  -9 1437.56   42.70
   0  -1  -9 1430.06   44.30
   0  -1  -9 1467.75   43.40
   0   1   9 1488.45   44.10
   0   1   9 1447.66   42.70
   0   1   9 1451.95   43.10
  -1  -1  -9    2.80    1.10
  -1  -1  -9    0.60    1.00
   1   1   9    0.60    0.60
   1   1   9    1.80    1.10
   1   1   9    2.80    1.50
  -2  -1  -9 1186.28   33.80
  -2  -1  -9 1185.38   37.30
  -2  -1  -9 1223.18   39.50
  -2  -1  -9 1130.59   31.30
   2   1   9 1180.08   36.40
   2   1   9 1111.29   36.50
   2   1   9 1190.38   36.50
  -3  -1  -9   31.20    4.70
  -3  -1  -9   24.40    3.40
  -3  -1  -9   27.70    4.10
   3   1   9   27.90    4.00
   3   1   9   34.10    4.50
   3   1   9   29.60    4.20
  -4  -1  -9  376.56   16.60
  -4  -1  -9  365.46   18.20
  -4  -1  -9  373.06   16.60
   4   1   9  360.06   16.10
   4   1   9  382.46   16.10
   4   1   9  340.57   16.50
   4   1   9  360.36   16.20
  -5  -1  -9   41.00    5.10
  -5  -1  -9   38.70    5.90
  -5  -1  -9   47.00    5.90
   5   1   9   27.30    4.30
   5   1   9   35.60    4.70
   5   1   9   45.70    5.10
   5   1   9   40.50    5.20
  -6  -1  -9  102.69   10.30
  -6  -1  -9   99.09    9.40
   6   1   9  108.89    8.40
   6   1   9  107.29    8.10
  -7  -1  -9   23.60    4.90
  -7  -1  -9   23.80    5.40
   7   1   9   23.80    3.90
   7   1   9   26.50    4.30
   6  -2  -9   27.00    3.70
   6  -2  -9   30.00    7.60
   6  -2  -9   32.20    4.00
  -6   2   9   27.50    3.60
  -6   2   9   24.60    6.30
  -6   2   9   29.30    7.60
   5  -2  -9  413.66   16.40
   5  -2  -9  407.96   16.00
   5  -2  -9  399.66   22.30
  -5   2   9  395.26   15.20
  -5   2   9  405.56   22.30
   4  -2  -9    2.90    1.90
   4  -2  -9    9.10    3.30
   4  -2  -9    5.20    1.80
   4  -2  -9    3.40    2.10
  -4   2   9    4.80    2.40
  -4   2   9    3.40    1.60
  -4   2   9    3.00    2.50
   3  -2  -9  641.94   31.20
   3  -2  -9  643.24   22.40
   3  -2  -9  594.34   20.10
   3  -2  -9  660.93   23.50
  -3   2   9  632.44   22.90
  -3   2   9  665.53   22.60
  -3   2   9  641.14   21.30
  -3   2   9  643.44   26.40
   2  -2  -9  208.48   11.10
   2  -2  -9  210.28   12.80
   2  -2  -9  210.38    8.00
   2  -2  -9  215.08   10.90
  -2   2   9  214.18   12.80
  -2   2   9  196.58    9.60
  -2   2   9  216.48   10.90
  -2   2   9  212.08   11.20
   1  -2  -9  283.67   13.50
   1  -2  -9  291.37   14.70
   1  -2  -9  283.37   12.90
  -1   2   9  281.97   12.90
  -1   2   9  266.47   13.90
  -1   2   9  281.17   13.40
   0  -2  -9 1200.88   37.90
   0  -2  -9 1202.48   36.50
   0  -2  -9 1208.58   37.30
   0   2   9 1161.08   37.00
   0   2   9 1220.48   36.70
   0   2   9 1167.98   36.80
  -1  -2  -9   15.10    2.50
  -1  -2  -9   20.50    3.30
  -1  -2  -9   10.30    2.60
  -1  -2  -9   10.60    2.30
   1   2   9   11.60    2.60
   1   2   9    9.30    2.50
   1   2   9   11.30    2.60
  -2  -2  -9 1714.43   53.29
  -2  -2  -9 1689.63   44.70
  -2  -2  -9 1718.93   45.50
  -2  -2  -9 1774.62   50.49
   2   2   9 1638.64   49.00
   2   2   9 1746.63   48.50
   2   2   9 1631.04   49.50
  -3  -2  -9  321.47   16.80
  -3  -2  -9  363.76   11.60
  -3  -2  -9  335.77   16.10
  -3  -2  -9  368.26   14.00
  -3  -2  -9  353.86   16.00
   3   2   9  353.96   15.90
   3   2   9  355.26   16.30
   3   2   9  375.16   15.10
  -4  -2  -9 1497.55   44.10
  -4  -2  -9 1529.95   45.70
  -4  -2  -9 1419.86   47.50
   4   2   9 1558.64   45.40
   4   2   9 1517.75   43.70
   4   2   9 1411.56   45.20
  -5  -2  -9 1153.58   37.30
  -5  -2  -9 1048.50   39.50
  -5  -2  -9 1126.99   37.30
   5   2   9 1172.68   37.80
   5   2   9 1132.69   35.50
   5   2   9 1144.09   36.10
   5   2   9 1150.78   37.00
  -6  -2  -9 1110.19   41.60
  -6  -2  -9 1079.59   38.70
   6   2   9 1150.28   36.50
   6   2   9 1140.59   36.60
   6   2   9 1168.08   50.99
   6   2   9 1131.09   37.10
  -7  -2  -9  923.71   37.80
  -7  -2  -9  887.51   35.40
   7   2   9  946.21   32.60
   7   2   9  914.61   32.00
   8   2   9  444.06   19.50
   8   2   9  397.16   19.80
   5  -3  -9   -0.20    1.20
   5  -3  -9    1.30    1.90
   5  -3  -9    2.60    1.20
  -5   3   9    1.70    1.70
  -5   3   9    6.50    3.20
   4  -3  -9  130.79    7.70
   4  -3  -9  111.89    8.00
   4  -3  -9  132.99   11.50
  -4   3   9  119.79    8.00
  -4   3   9  127.39   11.00
   3  -3  -9   74.99    5.80
   3  -3  -9   61.99    5.90
   3  -3  -9   55.39    7.00
  -3   3   9   63.29    5.30
  -3   3   9   66.99    5.40
  -3   3   9   59.89    7.00
  -3   3   9   52.19    5.50
   2  -3  -9  223.18   13.50
   2  -3  -9  217.08   11.00
   2  -3  -9  234.18   12.20
  -2   3   9  225.48   13.30
  -2   3   9  233.18   10.80
  -2   3   9  214.88   11.80
  -2   3   9  218.58   10.90
   1  -3  -9  152.68   10.20
   1  -3  -9  161.58    9.20
   1  -3  -9  156.78    9.70
  -1   3   9  145.09    9.30
  -1   3   9  153.48    9.00
  -1   3   9  141.29    9.70
   0  -3  -9  133.49    8.90
   0  -3  -9  121.39    7.90
   0  -3  -9  124.69    8.60
   0  -3  -9  136.89    8.60
   0   3   9  137.79    8.70
   0   3   9  115.29    8.20
   0   3   9  112.39    7.90
  -1  -3  -9  196.08   10.80
  -1  -3  -9  210.08   10.90
  -1  -3  -9  195.48   11.20
  -1  -3  -9  190.18    9.90
   1   3   9  192.88   11.10
   1   3   9  207.78   10.50
   1   3   9  199.98   10.80
  -2  -3  -9  201.88   11.50
  -2  -3  -9  178.88   12.00
  -2  -3  -9  207.18    9.70
   2   3   9  182.08   10.50
   2   3   9  205.28   11.40
   2   3   9  169.58    9.10
  -3  -3  -9    4.40    2.00
  -3  -3  -9    2.30    1.10
  -3  -3  -9    0.80    0.90
  -3  -3  -9    0.00    0.80
   3   3   9    2.60    1.30
   3   3   9    1.00    1.10
   3   3   9    2.70    1.50
  -4  -3  -9  214.48   13.60
  -4  -3  -9  229.78   11.00
  -4  -3  -9  221.28    8.60
  -4  -3  -9  208.08   12.30
  -4  -3  -9  219.58   12.50
   4   3   9  235.38   12.60
   4   3   9  215.38   10.20
   4   3   9  220.48   12.50
  -5  -3  -9  208.08   12.40
  -5  -3  -9  195.18   11.50
  -5  -3  -9  199.58   13.60
   5   3   9  233.98   10.70
   5   3   9  209.48   12.50
   5   3   9  199.58   12.20
  -6  -3  -9  244.38   16.00
  -6  -3  -9  214.28   13.10
   6   3   9  199.78   12.50
   6   3   9  226.88   13.00
   6   3   9  228.08   11.10
   6   3   9  209.88   11.90
  -7  -3  -9  375.46   21.50
  -7  -3  -9  320.77   23.40
   7   3   9  343.77   15.40
   7   3   9  340.17   17.10
   7   3   9  372.66   16.90
  -8  -3  -9  379.96   21.60
  -8  -3  -9  408.56   24.00
   8   3   9  398.56   19.00
   8   3   9  381.56   18.20
   8   3   9  387.56   17.80
   5  -4  -9   57.69    8.50
   5  -4  -9   49.00    4.30
   5  -4  -9   45.00    5.30
   4  -4  -9  220.48   12.50
   4  -4  -9  215.18   10.40
   4  -4  -9  219.98   15.00
  -4   4   9  200.88   14.80
  -4   4   9  223.68   11.60
   3  -4  -9   35.00    4.90
   3  -4  -9   36.60    6.00
   3  -4  -9   48.00    4.70
  -3   4   9   44.30    4.30
  -3   4   9   42.50    4.70
  -3   4   9   42.20    6.00
   2  -4  -9  220.18   12.40
   2  -4  -9  199.58   10.50
   2  -4  -9  211.78   12.70
   2  -4  -9  217.98   13.50
  -2   4   9  197.48   11.70
  -2   4   9  198.88   10.60
  -2   4   9  213.88   13.10
  -2   4   9  209.88   10.70
   1  -4  -9  567.34   22.50
   1  -4  -9  547.35   20.70
   1  -4  -9  572.44   22.90
   1  -4  -9  551.24   22.20
  -1   4   9  577.54   22.40
  -1   4   9  583.14   21.10
  -1   4   9  566.24   20.40
  -1   4   9  575.74   22.60
   0  -4  -9   11.70    2.80
   0  -4  -9   18.60    3.30
   0  -4  -9   14.90    3.00
   0  -4  -9    7.20    2.40
   0   4   9    9.00    2.30
   0   4   9   14.00    3.10
   0   4   9    5.70    2.00
  -1  -4  -9 1773.62   62.99
  -1  -4  -9 1865.21   53.59
  -1  -4  -9 1919.21   55.49
  -1  -4  -9 2007.70   53.69
   1   4   9 1878.81   55.19
   1   4   9 1851.21   53.99
   1   4   9 1941.11   52.69
  -2  -4  -9   24.30    4.00
  -2  -4  -9   22.40    3.40
  -2  -4  -9   25.40    3.20
  -2  -4  -9   29.10    3.80
  -2  -4  -9   30.00    4.40
   2   4   9   21.80    3.80
   2   4   9   31.40    4.40
   2   4   9   38.50    3.80
  -3  -4  -9 1879.11   54.99
  -3  -4  -9 1937.21   54.99
  -3  -4  -9 1913.71   53.89
  -3  -4  -9 1874.31   51.19
   3   4   9 1746.13   57.49
   3   4   9 1772.62   49.40
   3   4   9 1896.91   54.79
  -4  -4  -9  185.78   11.80
  -4  -4  -9  203.68   13.50
  -4  -4  -9  217.38   12.50
  -4  -4  -9  209.28    9.60
  -4  -4  -9  198.88   12.20
   4   4   9  224.38   14.20
   4   4   9  214.48    9.10
   4   4   9  210.18   12.20
  -5  -4  -9 1164.88   42.80
  -5  -4  -9 1169.18   40.10
  -5  -4  -9 1274.57   34.80
  -5  -4  -9 1287.17   42.10
   5   4   9 1215.78   34.50
   5   4   9 1316.17   41.20
   5   4   9 1278.27   40.60
  -6  -4  -9  230.08   14.60
  -6  -4  -9  210.28   12.70
  -6  -4  -9  221.28   15.10
   6   4   9  232.98   13.40
   6   4   9  218.58    9.80
   6   4   9  206.88    9.40
   6   4   9  196.78   12.90
  -7  -4  -9  601.14   27.90
  -7  -4  -9  627.44   29.70
   7   4   9  647.04   20.90
   7   4   9  670.33   22.10
   7   4   9  628.64   26.20
   7   4   9  662.33   21.50
   7   4   9  621.54   24.50
  -8  -4  -9   27.10    6.20
   8   4   9   39.40    3.80
   8   4   9   27.60    5.00
   8   4   9   35.90    4.40
   8   4   9   32.90    5.50
   8   4   9   35.50    4.10
   5  -5  -9  246.18   14.10
  -5   5   9  227.78   13.00
   4  -5  -9  103.99   10.40
   4  -5  -9  102.59    6.60
   4  -5  -9   85.19    9.90
   4  -5  -9   97.69    8.70
  -4   5   9  124.09    9.30
  -4   5   9   99.19    6.20
   3  -5  -9  337.87   17.10
   3  -5  -9  357.36   19.40
   3  -5  -9  333.27   14.10
   3  -5  -9  346.57   18.50
  -3   5   9  324.37   13.70
  -3   5   9  347.27   19.00
   2  -5  -9  203.38   12.60
   2  -5  -9  203.58   10.60
   2  -5  -9  203.68   13.10
  -2   5   9  206.88   13.10
  -2   5   9  203.68   12.50
  -2   5   9  195.78   10.40
  -2   5   9  147.09    9.70
   1  -5  -9  211.98   12.80
   1  -5  -9  197.08   12.30
   1  -5  -9  212.48   11.10
   1  -5  -9  210.68   12.70
  -1   5   9  222.38   11.30
  -1   5   9  213.98   12.80
  -1   5   9  197.18   10.80
  -1   5   9  209.88   12.40
   0  -5  -9   69.79    6.70
   0  -5  -9   63.69    6.20
   0  -5  -9   62.49    7.30
   0  -5  -9   65.99    6.80
   0   5   9   66.19    6.70
   0   5   9   65.29    6.10
   0   5   9   68.09    6.10
   0   5   9   65.59    5.80
  -1  -5  -9    6.50    2.30
  -1  -5  -9    2.10    1.70
  -1  -5  -9    2.70    1.50
  -1  -5  -9    2.80    1.30
  -1  -5  -9    4.10    1.70
   1   5   9    1.00    1.30
   1   5   9    2.20    1.50
   1   5   9    1.40    0.90
  -2  -5  -9   14.20    3.10
  -2  -5  -9   11.50    2.30
  -2  -5  -9    6.90    2.20
  -2  -5  -9    6.80    2.50
  -2  -5  -9    9.30    2.70
   2   5   9    8.80    2.60
   2   5   9    9.20    2.00
  -3  -5  -9    5.60    2.00
  -3  -5  -9   11.40    4.00
  -3  -5  -9   13.10    3.80
  -3  -5  -9    6.90    2.10
   3   5   9    7.50    2.20
   3   5   9   11.20    1.80
   3   5   9    9.00    2.60
  -4  -5  -9  632.54   22.00
  -4  -5  -9  621.44   24.80
  -4  -5  -9  635.24   26.70
  -4  -5  -9  667.03   25.30
   4   5   9  642.84   25.10
   4   5   9  571.74   24.10
  -5  -5  -9   32.30    3.80
  -5  -5  -9   32.60    5.00
  -5  -5  -9   28.50    4.80
  -5  -5  -9   44.10    6.30
   5   5   9   43.30    4.40
   5   5   9   41.20    5.70
   5   5   9   37.60    6.00
   5   5   9   34.70    5.20
  -6  -5  -9 1379.36   39.20
  -6  -5  -9 1333.77   46.20
  -6  -5  -9 1300.37   47.30
  -6  -5  -9 1322.97   44.00
   6   5   9 1401.36   45.30
   6   5   9 1415.66   40.60
  -7  -5  -9   10.70    4.20
  -7  -5  -9   16.80    3.90
  -7  -5  -9   20.90    4.80
   7   5   9   13.90    3.10
   7   5   9   15.10    4.20
   4  -6  -9  106.09    9.40
   4  -6  -9   94.89    9.80
   4  -6  -9   98.19   10.80
  -4   6   9  104.39    8.50
  -4   6   9   99.59    5.90
   3  -6  -9  343.87   19.50
   3  -6  -9  336.47   17.90
   3  -6  -9  306.97   20.40
  -3   6   9  360.36   16.60
  -3   6   9  335.57   13.80
   2  -6  -9  806.82   31.90
   2  -6  -9  836.22   32.10
   2  -6  -9  829.62   31.70
  -2   6   9  845.92   34.50
  -2   6   9  820.32   27.20
   1  -6  -9  483.95   21.70
   1  -6  -9  530.55   23.10
  -1   6   9  538.35   20.30
   0  -6  -9 2114.09   63.39
   0  -6  -9 2168.08   61.19
   0  -6  -9 2176.68   56.09
   0  -6  -9 2099.99   61.19
   0  -6  -9 2156.08   64.29
   0   6   9 2185.38   61.09
   0   6   9 2196.08   61.39
   0   6   9 2161.08   63.49
  -1  -6  -9  332.17   13.60
  -1  -6  -9  323.97   16.50
  -1  -6  -9  334.27   17.30
  -1  -6  -9  346.97   14.60
   1   6   9  313.37   15.50
   1   6   9  338.47   16.30
   1   6   9  337.57   14.40
  -2  -6  -9 3594.94   95.39
  -2  -6  -9 3480.75   96.79
  -2  -6  -9 3520.35   92.69
  -2  -6  -9 3503.75   89.89
   2   6   9 3529.55   89.69
   2   6   9 3601.24   95.69
   2   6   9 3518.65   93.99
  -3  -6  -9  277.37   15.20
  -3  -6  -9  256.97   13.60
  -3  -6  -9  272.77   15.40
   3   6   9  263.07   12.80
   3   6   9  274.77   14.80
   3   6   9  269.47   14.80
   3   6   9  257.67    9.90
  -4  -6  -9 2526.05   72.39
  -4  -6  -9 2521.65   70.09
  -4  -6  -9 2616.64   73.29
   4   6   9 2564.14   67.99
   4   6   9 2492.85   72.99
   4   6   9 2663.23   88.59
   4   6   9 2431.66   67.19
   4   6   9 2548.65   70.69
  -5  -6  -9   73.39    8.40
  -5  -6  -9   75.09    7.40
  -5  -6  -9   68.49    7.50
  -5  -6  -9   72.49    6.40
   5   6   9   79.19    7.80
   5   6   9   58.49    7.30
   5   6   9   78.09    5.30
   5   6   9   72.79    6.60
  -6  -6  -9 1265.97   45.70
  -6  -6  -9 1264.77   38.60
  -6  -6  -9 1328.77   42.90
  -6  -6  -9 1216.38   44.30
   6   6   9 1267.17   39.90
   6   6   9 1297.27   44.00
  -7  -6  -9   50.69    7.20
  -7  -6  -9   49.40    6.20
  -7  -6  -9   40.20    6.80
   7   6   9   46.10    5.40
   7   6   9   35.50    6.60
   3  -7  -9   48.20    7.70
   3  -7  -9   43.90    6.60
   3  -7  -9   33.20    6.60
  -3   7   9   32.10    3.90
  -3   7   9   37.50    5.50
   2  -7  -9   47.20    6.70
   2  -7  -9   22.10    6.40
   2  -7  -9   53.49    7.20
  -2   7   9   45.80    5.70
  -2   7   9   42.50    4.90
   1  -7  -9   96.49    9.40
   1  -7  -9  102.59    9.10
   1  -7  -9  115.09   10.20
  -1   7   9  110.09   10.10
  -1   7   9  107.29    8.50
  -1   7   9  104.49    7.80
   0  -7  -9   34.60    4.70
   0  -7  -9   43.00    3.80
   0  -7  -9   42.00    6.00
   0   7   9   32.00    4.90
   0   7   9   36.40    4.90
   0   7   9   36.60    5.70
  -1  -7  -9  370.76   15.20
  -1  -7  -9  379.96   19.40
  -1  -7  -9  369.56   15.60
   1   7   9  395.06   24.00
   1   7   9  387.76   18.70
  -2  -7  -9  587.74   25.10
  -2  -7  -9  570.64   23.70
  -2  -7  -9  563.04   21.50
  -2  -7  -9  544.55   18.60
   2   7   9  567.74   23.30
   2   7   9  558.34   23.30
  -3  -7  -9  676.23   26.20
  -3  -7  -9  697.43   28.00
  -3  -7  -9  699.73   26.00
   3   7   9  668.43   24.60
   3   7   9  656.03   20.30
   3   7   9  632.34   26.30
   3   7   9  684.63   25.60
  -4  -7  -9  729.73   28.40
  -4  -7  -9  773.42   27.90
  -4  -7  -9  742.23   29.40
   4   7   9  724.73   27.80
   4   7   9  752.62   26.40
   4   7   9  673.03   23.80
   4   7   9  745.43   29.30
  -5  -7  -9 1292.47   44.70
  -5  -7  -9 1305.87   46.40
  -5  -7  -9 1329.17   42.00
  -5  -7  -9 1335.57   44.40
   5   7   9 1355.56   45.60
   5   7   9 1311.17   39.70
   5   7   9 1353.56   43.00
  -6  -7  -9  754.72   31.60
  -6  -7  -9  771.22   27.40
  -6  -7  -9  731.83   29.50
  -6  -7  -9  747.13   32.20
   6   7   9  753.52   31.00
   6   7   9  744.03   24.00
   6   7   9  745.83   28.20
  -7  -7  -9 1376.06   44.60
  -7  -7  -9 1305.37   47.90
  -7  -7  -9 1330.97   48.60
   7   7   9 1292.27   46.40
   7   7   9 1275.57   46.40
   2  -8  -9 1129.99   42.50
   2  -8  -9 1109.19   40.90
   2  -8  -9 1130.09   42.00
  -2   8   9 1143.99   38.60
  -2   8   9 1091.79   42.70
  -2   8   9 1116.99   35.00
  -2   8   9 1089.79   37.20
   1  -8  -9  227.48   15.40
   1  -8  -9  252.67   16.20
   1  -8  -9  220.38   14.00
  -1   8   9  203.68   14.80
  -1   8   9  197.98   11.60
  -1   8   9  221.18   13.10
   0  -8  -9 1332.67   46.50
   0  -8  -9 1308.97   41.70
   0  -8  -9 1322.87   45.90
   0  -8  -9 1318.07   37.50
   0   8   9 1259.57   42.00
   0   8   9 1294.57   45.50
   0   8   9 1329.97   42.30
  -1  -8  -9  311.37   17.70
  -1  -8  -9  357.86   15.20
  -1  -8  -9  334.27   18.80
  -1  -8  -9  349.47   14.90
   1   8   9  325.67   16.70
   1   8   9  316.97   15.80
   1   8   9  319.47   18.00
  -2  -8  -9  913.81   35.60
  -2  -8  -9  925.31   27.60
  -2  -8  -9  903.91   31.60
  -2  -8  -9  955.60   35.10
   2   8   9  938.61   34.60
   2   8   9  935.31   32.20
   2   8   9  950.00   33.90
  -3  -8  -9  305.37   16.20
  -3  -8  -9  340.07   18.70
   3   8   9  326.07   12.60
   3   8   9  370.46   17.70
   3   8   9  315.77   17.40
   3   8   9  326.77   15.80
  -4  -8  -9  729.73   30.60
  -4  -8  -9  770.92   30.00
   4   8   9  776.92   30.30
   4   8   9  789.32   31.20
   4   8   9  767.52   27.60
   4   8   9  754.52   26.50
   4   8   9  749.82   28.30
  -5  -8  -9   37.90    5.90
  -5  -8  -9   30.10    5.50
  -5  -8  -9   36.10    6.10
   5   8   9   42.30    6.30
   5   8   9   33.60    4.80
   5   8   9   29.50    4.60
   5   8   9   34.60    6.20
  -6  -8  -9  366.06   21.00
  -6  -8  -9  418.46   20.60
  -6  -8  -9  380.16   21.50
  -6  -8  -9  399.86   22.20
   6   8   9  408.96   21.70
   6   8   9  391.46   16.60
   6   8   9  404.76   19.80
   1  -9  -9  201.38   13.60
   1  -9  -9  182.08   14.60
   1  -9  -9  187.68    8.30
  -1   9   9  194.78   15.20
  -1   9   9  220.68   12.10
   0  -9  -9   34.60    8.00
   0  -9  -9   13.80    3.70
   0  -9  -9   15.80    3.00
   0  -9  -9   29.00    6.10
   0   9   9   26.20    5.30
   0   9   9   21.80    4.40
   0   9   9   20.10    4.00
  -1  -9  -9  863.61   31.10
  -1  -9  -9  916.01   36.80
  -1  -9  -9  922.01   35.90
  -1  -9  -9  945.61   30.40
   1   9   9  902.11   36.40
   1   9   9  905.51   32.70
   1   9   9  919.21   33.20
  -2  -9  -9    2.00    1.20
  -2  -9  -9    3.20    2.10
  -2  -9  -9    1.70    1.60
  -2  -9  -9    2.80    2.10
   2   9   9   -0.20    1.30
   2   9   9    4.90    2.30
   2   9   9    7.00    3.20
   2   9   9    4.90    2.60
  -3  -9  -9 1857.71   55.89
  -3  -9  -9 1858.01   59.59
  -3  -9  -9 1875.71   58.19
   3   9   9 1832.42   54.89
   3   9   9 1790.12   57.59
   3   9   9 1802.92   57.49
   3   9   9 1693.83   49.60
  -4  -9  -9   15.50    4.20
  -4  -9  -9   37.00    6.20
  -4  -9  -9   33.10    5.10
   4   9   9   36.30    6.50
   4   9   9   24.80    4.50
   4   9   9   27.30    4.90
   4   9   9   28.80    5.50
   4   9   9   28.60    4.90
  -5  -9  -9 1576.84   52.79
  -5  -9  -9 1573.34   53.39
  -5  -9  -9 1580.44   50.89
  -5  -9  -9 1541.25   52.19
   5   9   9 1543.45   51.59
   5   9   9 1527.95   48.00
   5   9   9 1602.14   49.50
   5   9   9 1514.55   53.09
  -2 -10  -9   -1.60    2.20
  -2 -10  -9    3.60    2.30
  -2 -10  -9    1.10    1.40
  -2 -10  -9    3.10    1.90
   2  10   9    3.10    2.50
   2  10   9   -0.70    2.50
   2  10   9   -2.30    1.60
  -3 -10  -9   16.00    4.60
  -3 -10  -9   19.70    4.20
  -3 -10  -9    7.80    2.70
   3  10   9   10.60    3.40
   3  10   9    6.30    3.70
   3  10   9   14.30    4.10
   3  10   9   15.40    5.00
   3   6 -10 1237.08   40.70
   3   6 -10 1193.08   42.80
  -3  -6  10 1188.98   39.10
  -3  -6  10 1147.59   33.40
  -3  -6  10 1115.09   44.50
   2   6 -10    1.80    2.40
   2   6 -10    1.90    2.00
  -2  -6  10    4.90    3.20
  -2  -6  10    3.40    1.60
  -2  -6  10    8.00    2.70
   1   6 -10 1761.12   52.49
   1   6 -10 1784.12   56.59
  -1  -6  10 1712.93   59.79
  -1  -6  10 1734.73   47.00
  -1  -6  10 1813.92   50.39
   0   6 -10    7.60    3.30
   0   6 -10    6.50    3.30
   0   6 -10    9.90    2.40
   0   6 -10    8.30    2.90
   0  -6  10    5.50    2.20
   0  -6  10    8.90    3.90
  -1   6 -10 1514.85   49.00
  -1   6 -10 1428.46   42.60
  -1   6 -10 1467.35   47.90
  -1   6 -10 1483.65   43.50
   1  -6  10 1421.46   53.29
   1  -6  10 1455.05   45.00
  -2   6 -10   85.09    8.90
  -2   6 -10   77.99    7.20
  -2   6 -10   72.79    7.80
   2  -6  10   68.39    7.20
   4   5 -10   37.70    6.50
   4   5 -10   39.70    6.20
  -4  -5  10   40.90    2.70
  -4  -5  10   31.90    4.80
  -4  -5  10   49.99    7.00
  -4  -5  10   50.69    8.20
   3   5 -10  103.89    5.40
   3   5 -10  114.29   10.00
   3   5 -10  105.09    9.00
  -3  -5  10  114.69    6.10
  -3  -5  10   99.69    9.00
  -3  -5  10   93.89   10.20
   2   5 -10  127.79   11.40
   2   5 -10  136.19    6.60
   2   5 -10  146.49   12.40
  -2  -5  10  127.69   11.80
  -2  -5  10  132.39    7.50
  -2  -5  10  135.09    9.60
   1   5 -10   13.90    3.60
   1   5 -10   16.90    4.10
   1   5 -10   18.00    2.60
  -1  -5  10   23.90    3.50
  -1  -5  10   18.20    4.50
  -1  -5  10   14.30    2.90
   0   5 -10  396.06   16.40
   0   5 -10  401.66   19.60
   0   5 -10  397.06   15.60
   0  -5  10  408.46   22.10
   0  -5  10  383.96   16.40
  -1   5 -10    5.60    2.60
  -1   5 -10    6.30    2.50
  -1   5 -10   10.00    3.10
  -1   5 -10    7.70    2.20
   1  -5  10    4.00    2.90
   1  -5  10    7.40    2.60
  -2   5 -10  863.41   31.30
  -2   5 -10  904.51   26.20
  -2   5 -10  952.10   32.80
  -2   5 -10  897.51   33.20
   2  -5  10  917.71   31.60
   2  -5  10  929.51   38.20
  -3   5 -10    9.10    2.20
  -3   5 -10   -1.10    1.40
  -3   5 -10    2.80    2.40
   3  -5  10   -1.90    1.60
   3  -5  10    3.40    2.50
   5   4 -10  354.86   18.90
   5   4 -10  322.57   20.10
   5   4 -10  320.77   17.60
  -5  -4  10  329.27   14.10
  -5  -4  10  361.06   21.70
  -5  -4  10  358.46   21.10
   4   4 -10 1501.35   55.69
   4   4 -10 1304.37   48.10
   4   4 -10 1442.36   45.60
  -4  -4  10 1255.67   48.90
  -4  -4  10 1435.76   49.00
  -4  -4  10 1321.57   41.00
  -4  -4  10 1369.16   35.20
   3   4 -10  248.68   14.10
   3   4 -10  292.17   16.10
  -3  -4  10  268.07   10.40
  -3  -4  10  306.27   18.00
  -3  -4  10  250.67   15.60
  -3  -4  10  270.17   15.80
   2   4 -10 2307.77   63.89
   2   4 -10 2223.68   59.79
  -2  -4  10 2242.08   59.29
  -2  -4  10 2210.48   64.19
   1   4 -10  220.18   10.40
   1   4 -10  218.68   11.50
  -1  -4  10  218.48   10.40
   0   4 -10 2207.38   63.69
   0   4 -10 2109.69   57.99
   0   4 -10 2107.59   58.59
   0  -4  10 2134.69   58.69
  -1   4 -10  165.28   10.00
  -1   4 -10  169.28    8.30
  -1   4 -10  164.88   11.20
   1  -4  10  172.88    9.90
  -2   4 -10  997.60   32.90
  -2   4 -10  974.90   34.50
  -2   4 -10 1038.90   34.00
   2  -4  10 1037.00   33.00
   2  -4  10  894.61   29.80
   2  -4  10  994.70   38.80
  -3   4 -10   88.69    7.10
  -3   4 -10   84.69    8.10
  -3   4 -10   84.09    7.90
   3  -4  10   75.49    6.00
   3  -4  10   80.29    7.30
   3  -4  10   96.59   12.80
  -4   4 -10  335.77   20.90
  -4   4 -10  347.87   18.70
  -4   4 -10  274.97   15.70
  -4   4 -10  325.27   14.50
   4  -4  10  339.37   17.00
   4  -4  10  314.77   20.20
   5   3 -10  451.75   21.10
   5   3 -10  405.16   22.50
   5   3 -10  396.36   19.60
  -5  -3  10  405.16   15.70
  -5  -3  10  430.26   24.30
  -5  -3  10  394.06   22.40
   4   3 -10   18.30    4.10
   4   3 -10   24.30    4.60
   4   3 -10   27.70    5.60
  -4  -3  10   28.00    2.30
  -4  -3  10   25.20    3.90
  -4  -3  10   25.50    5.30
  -4  -3  10   33.70    6.10
   3   3 -10 1003.70   33.70
   3   3 -10 1027.00   35.10
   3   3 -10  975.80   37.50
  -3  -3  10  947.01   31.80
  -3  -3  10  978.40   27.80
   2   3 -10  503.75   21.60
   2   3 -10  494.15   19.70
  -2  -3  10  516.95   17.00
  -2  -3  10  413.86   26.20
   1   3 -10 1571.54   44.30
   1   3 -10 1489.95   44.10
  -1  -3  10 1547.95   43.10
  -1  -3  10 1523.55   46.90
   0   3 -10 1039.60   31.30
   0   3 -10 1097.29   33.50
   0  -3  10 1034.90   32.30
  -1   3 -10 2108.29   60.99
  -1   3 -10 2248.18   56.89
   1  -3  10 2196.88   60.69
   1  -3  10 2168.78   62.49
   1  -3  10 2178.28   66.79
  -2   3 -10  977.60   31.20
  -2   3 -10  975.10   33.30
   2  -3  10  946.21   31.60
   2  -3  10  977.90   32.90
   2  -3  10  969.40   37.00
  -3   3 -10 2474.75   66.79
  -3   3 -10 2551.04   71.69
   3  -3  10 2510.55   75.49
   3  -3  10 2357.56   68.99
   3  -3  10 2458.45   68.99
  -4   3 -10  545.85   19.80
  -4   3 -10  612.14   28.10
  -4   3 -10  622.84   26.20
   4  -3  10  570.64   27.30
   4  -3  10  549.45   22.50
   4  -3  10  562.24   23.00
  -5   3 -10 1564.74   54.39
  -5   3 -10 1666.53   50.89
  -5   3 -10 1716.23   57.79
  -5   3 -10 1562.34   43.30
   5  -3  10 1586.04   50.49
   5  -3  10 1686.53   49.50
   6   2 -10 1593.84   49.30
   6   2 -10 1537.05   56.39
   6   2 -10 1544.25   65.29
  -6  -2  10 1568.44   43.80
  -6  -2  10 1565.84   59.69
   5   2 -10  440.66   23.50
   5   2 -10  466.55   20.30
   5   2 -10  439.46   21.30
  -5  -2  10  408.26   16.00
  -5  -2  10  436.06   16.60
  -5  -2  10  453.95   23.80
  -5  -2  10  425.46   25.00
   4   2 -10 2381.36   75.99
   4   2 -10 2551.64   72.39
   4   2 -10 2522.95   71.59
  -4  -2  10 2480.15   67.69
  -4  -2  10 2505.05   63.29
  -4  -2  10 2653.13   63.69
   3   2 -10  662.33   25.70
   3   2 -10  658.93   28.50
  -3  -2  10  676.33   23.90
  -3  -2  10  680.93   20.50
   2   2 -10 2205.88   67.29
   2   2 -10 2225.38   63.99
   2   2 -10 2251.37   62.09
  -2  -2  10 2248.08   58.49
  -2  -2  10 2180.28   62.09
   1   2 -10  912.01   28.80
  -1  -2  10  868.01   31.00
  -1  -2  10  939.91   28.00
   0   2 -10 1567.64   43.20
   0   2 -10 1587.74   46.20
   0  -2  10 1558.74   47.10
   0  -2  10 1555.74   50.19
   0  -2  10 1541.35   47.40
   0  -2  10 1575.14   44.40
  -1   2 -10  456.05   19.60
  -1   2 -10  447.16   19.10
  -1   2 -10  444.46   17.10
   1  -2  10  434.16   19.70
   1  -2  10  465.15   21.50
   1  -2  10  477.95   19.50
   1  -2  10  457.85   17.70
  -2   2 -10  737.93   27.80
   2  -2  10  802.72   31.10
   2  -2  10  774.22   27.60
   2  -2  10  780.52   27.00
  -3   2 -10   42.20    5.60
  -3   2 -10   38.00    4.10
   3  -2  10   44.70    5.10
   3  -2  10   47.30    5.30
   3  -2  10   50.39    6.70
  -4   2 -10  273.57   11.10
  -4   2 -10  299.77   16.70
  -4   2 -10  301.27   17.50
   4  -2  10  261.27   14.00
   4  -2  10  273.77   14.10
   4  -2  10  263.47   16.50
  -5   2 -10   27.30    6.00
  -5   2 -10   22.40    5.00
   5  -2  10   28.60    4.50
   5  -2  10   23.20    4.40
   5  -2  10   30.80    6.10
  -6   2 -10  167.08   11.60
  -6   2 -10  179.48   14.40
  -6   2 -10  196.08   15.40
   6  -2  10  163.48   10.40
   6  -2  10  161.88   14.40
   6   1 -10   18.60    3.70
   6   1 -10   12.60    4.30
  -6  -1  10   16.10    6.30
   5   1 -10  609.24   24.20
   5   1 -10  627.74   29.20
  -5  -1  10  635.14   17.70
  -5  -1  10  632.54   19.50
  -5  -1  10  628.54   17.60
  -5  -1  10  617.24   21.20
  -5  -1  10  617.84   28.90
   4   1 -10    4.60    2.10
   4   1 -10   -0.30    1.80
  -4  -1  10    1.70    1.60
  -4  -1  10   -0.10    0.80
   3   1 -10 1548.45   47.80
   3   1 -10 1673.03   53.09
  -3  -1  10 1557.64   46.20
   2   1 -10   10.70    2.80
   2   1 -10   13.80    4.10
  -2  -1  10   13.10    2.80
   1   1 -10 3604.14   95.59
   1   1 -10 3614.74   92.39
   1   1 -10 3565.04   98.59
  -1  -1  10 3422.36   94.29
  -1  -1  10 3612.04   98.29
  -1  -1  10 3625.54   91.29
  -1  -1  10 3597.54   95.19
   0   1 -10   17.70    2.70
   0  -1  10   14.40    3.60
   0  -1  10   16.30    3.30
   0  -1  10   18.50    2.90
   0  -1  10   14.50    3.90
  -1   1 -10 4105.19  107.99
  -1   1 -10 3988.00  112.39
  -1   1 -10 4085.89  104.29
   1  -1  10 4159.78  105.19
   1  -1  10 4070.69  108.19
   1  -1  10 4162.78  110.39
   1  -1  10 4155.78  107.69
  -2   1 -10   87.19    7.60
  -2   1 -10   84.39    7.40
   2  -1  10   84.69    7.20
   2  -1  10   78.39    7.80
   2  -1  10   84.59    6.60
  -3   1 -10 2822.82   83.39
  -3   1 -10 3223.88   86.09
  -3   1 -10 3294.37   86.99
   3  -1  10 3129.49   83.09
   3  -1  10 3207.88   87.39
   3  -1  10 2881.11   91.89
  -4   1 -10  182.88   12.40
  -4   1 -10  171.58    7.40
  -4   1 -10  186.98   13.00
   4  -1  10  191.68   11.10
   4  -1  10  188.58   11.20
   4  -1  10  168.38   12.20
  -5   1 -10 1610.24   53.79
  -5   1 -10 1552.44   53.39
   5  -1  10 1634.14   53.39
   5  -1  10 1638.74   49.80
   5  -1  10 1705.33   49.50
  -6   1 -10  156.18   13.00
  -6   1 -10  134.99   12.40
  -6   1 -10  152.78   11.30
   6  -1  10  131.59    9.40
   6  -1  10  141.09   10.40
   6   0 -10  152.98   13.40
   6   0 -10  159.48    9.90
  -6   0  10  150.88    6.10
  -6   0  10  170.78   16.90
   5   0 -10  958.50   32.00
   5   0 -10  962.70   38.60
  -5   0  10  935.71   37.90
  -5   0  10  925.41   29.60
  -5   0  10  978.10   27.10
   4   0 -10  186.08   10.90
   4   0 -10  179.88   13.60
  -4   0  10  173.18    9.80
  -4   0  10  181.68    8.30
   3   0 -10 1049.49   32.80
   3   0 -10 1062.19   38.70
   3   0 -10 1060.59   34.50
  -3   0  10 1083.99   30.70
  -3   0  10 1029.50   33.30
   2   0 -10  373.56   27.40
   2   0 -10  422.26   17.80
  -2   0  10  401.16   19.70
  -2   0  10  431.66   17.50
  -2   0  10  416.46   17.70
   1   0 -10  475.95   21.40
   1   0 -10  462.45   19.20
  -1   0  10  471.75   21.00
  -1   0  10  490.55   19.30
  -1   0  10  456.05   19.00
   0   0 -10  500.35   22.10
   0   0 -10  545.45   20.90
   0   0  10  508.85   20.40
   0   0  10  528.65   22.00
   0   0  10  506.35   20.50
  -1   0 -10  174.38   10.70
   1   0  10  180.48   10.70
   1   0  10  200.88   15.00
   1   0  10  167.58   13.90
  -2   0 -10  796.52   31.40
  -2   0 -10  787.62   21.80
  -2   0 -10  825.82   21.50
  -2   0 -10  804.02   29.50
  -2   0 -10  813.42   27.00
   2   0  10  810.92   28.90
   2   0  10  772.92   27.80
   2   0  10  858.91   27.40
  -3   0 -10   30.10    4.60
  -3   0 -10   29.10    4.30
  -3   0 -10   30.20    4.80
   3   0  10   33.40    4.80
   3   0  10   27.20    4.40
   3   0  10   28.70    4.10
  -4   0 -10  851.51   23.90
  -4   0 -10  914.31   32.10
  -4   0 -10  887.21   33.70
   4   0  10  906.71   32.50
   4   0  10  934.71   30.80
   4   0  10  888.61   30.80
  -5   0 -10   11.80    3.90
  -5   0 -10    7.60    3.60
   5   0  10    9.30    2.90
   5   0  10    3.50    2.40
   5   0  10    4.60    2.50
  -6   0 -10  698.03   31.20
  -6   0 -10  686.23   28.40
  -6   0 -10  692.93   30.00
   6   0  10  731.33   26.60
   6   0  10  697.13   29.10
   6   0  10  715.63   27.10
  -7   0 -10   23.20    5.40
  -7   0 -10   26.20    5.40
  -7   0 -10   29.80    6.50
   7   0  10   18.60    4.30
   5  -1 -10  243.58   11.80
   5  -1 -10  237.28   16.70
   5  -1 -10  227.28   12.00
  -5   1  10  221.38   10.00
  -5   1  10  223.88   15.90
   4  -1 -10 1047.90   34.30
   4  -1 -10 1060.79   40.80
   4  -1 -10 1105.69   35.40
   4  -1 -10 1169.28   35.00
  -4   1  10 1102.09   34.80
  -4   1  10 1153.28   32.60
  -4   1  10 1159.88   41.60
   3  -1 -10  372.16   19.80
   3  -1 -10  387.16   16.30
   3  -1 -10  364.46   14.40
   3  -1 -10  378.76   16.40
  -3   1  10  387.96   14.40
  -3   1  10  378.26   19.50
  -3   1  10  355.56   15.80
  -3   1  10  375.06   16.30
   2  -1 -10 1942.11   54.19
   2  -1 -10 1861.91   49.60
   2  -1 -10 1861.11   53.79
   2  -1 -10 1843.62   58.99
  -2   1  10 1935.91   53.99
  -2   1  10 1829.32   53.69
  -2   1  10 1851.81   57.09
   1  -1 -10  152.98    9.60
   1  -1 -10  140.69    9.20
   1  -1 -10  145.79   10.60
   1  -1 -10  126.89    6.20
  -1   1  10  144.29    9.20
  -1   1  10  129.49    9.80
  -1   1  10  132.79    8.80
   0  -1 -10 2621.24   72.89
   0  -1 -10 2685.13   72.49
   0  -1 -10 2568.44   74.19
   0   1  10 2689.33   74.39
   0   1  10 2679.43   72.29
   0   1  10 2603.74   72.49
  -1  -1 -10    6.30    2.10
  -1  -1 -10   12.60    3.00
  -1  -1 -10   11.80    2.10
  -1  -1 -10   10.80    2.40
   1   1  10    8.70    2.50
   1   1  10   14.20    3.10
   1   1  10   11.30    3.30
  -2  -1 -10 1848.02   48.10
  -2  -1 -10 1873.71   50.59
  -2  -1 -10 1831.62   53.99
   2   1  10 1780.32   54.29
   2   1  10 1940.41   54.49
   2   1  10 1847.62   53.89
  -3  -1 -10   33.00    4.70
  -3  -1 -10   43.50    4.70
  -3  -1 -10   40.00    5.60
   3   1  10   46.60    5.20
   3   1  10   42.70    5.10
  -4  -1 -10  742.73   30.00
  -4  -1 -10  810.82   27.80
   4   1  10  765.82   27.90
   4   1  10  780.42   28.20
   4   1  10  777.32   27.10
   4   1  10  701.13   31.50
  -5  -1 -10   88.99    9.30
  -5  -1 -10   86.79    8.10
   5   1  10  105.69    8.30
   5   1  10  101.29    7.70
   5   1  10   85.99    7.70
  -6  -1 -10  117.19   11.30
  -6  -1 -10  117.59    9.70
  -6  -1 -10  132.39   11.00
   6   1  10  119.09    9.20
   6   1  10  115.19    9.20
   6   1  10  128.99    9.60
  -7  -1 -10   35.00    6.70
  -7  -1 -10   43.30    7.00
  -7  -1 -10   45.40    6.70
   7   1  10   43.50    5.60
   7   1  10   45.00    6.20
   5  -2 -10  125.59    8.30
   5  -2 -10  109.79   11.60
   5  -2 -10  111.69    7.90
  -5   2  10  139.19    8.00
  -5   2  10  140.09   12.80
   4  -2 -10  163.48   13.30
   4  -2 -10  177.98   10.10
   4  -2 -10  165.28   10.00
   4  -2 -10  150.08    9.00
  -4   2  10  167.38   10.30
  -4   2  10  151.88   12.50
  -4   2  10  192.78    9.40
   3  -2 -10   69.89    4.90
   3  -2 -10   79.09    6.60
   3  -2 -10   85.49    8.70
   3  -2 -10   71.19    6.40
  -3   2  10   71.49    6.50
  -3   2  10   69.69    7.80
  -3   2  10   69.89    5.60
  -3   2  10   70.69    6.40
   2  -2 -10   18.20    3.50
   2  -2 -10    8.00    2.30
   2  -2 -10    7.00    2.70
   2  -2 -10    9.80    1.60
  -2   2  10   16.80    2.70
  -2   2  10    3.70    2.00
  -2   2  10    3.30    1.70
  -2   2  10   17.50    3.00
   1  -2 -10  112.69    8.40
   1  -2 -10  115.29    9.20
   1  -2 -10  116.49    8.20
  -1   2  10  103.29    8.00
  -1   2  10  131.09    9.50
  -1   2  10  123.79    8.30
   0  -2 -10  208.08   11.60
   0  -2 -10  217.68   12.20
   0  -2 -10  230.58   12.90
   0   2  10  247.28   12.90
   0   2  10  226.38   11.90
   0   2  10  215.48   12.00
  -1  -2 -10  158.28   10.50
  -1  -2 -10  172.78    9.00
  -1  -2 -10  192.08   11.20
  -1  -2 -10  180.88   10.70
   1   2  10  190.98   13.20
   1   2  10  174.88   10.50
   1   2  10  190.18   10.70
  -2  -2 -10  589.44   18.20
  -2  -2 -10  575.04   19.00
  -2  -2 -10  601.14   23.10
  -2  -2 -10  571.64   23.10
   2   2  10  591.24   23.10
   2   2  10  583.24   21.90
   2   2  10  583.24   22.60
  -3  -2 -10  442.56   16.30
  -3  -2 -10  412.06   20.20
  -3  -2 -10  437.16   19.50
  -3  -2 -10  451.35   19.40
  -3  -2 -10  451.15   13.90
   3   2  10  429.06   18.70
   3   2  10  462.05   18.20
   3   2  10  464.65   22.10
  -4  -2 -10  690.63   28.30
  -4  -2 -10  671.93   24.10
   4   2  10  635.84   25.80
   4   2  10  718.83   25.90
  -5  -2 -10  557.54   26.00
  -5  -2 -10  590.44   23.30
   5   2  10  596.34   23.00
   5   2  10  576.14   23.30
   5   2  10  591.64   22.60
  -6  -2 -10  332.47   17.60
  -6  -2 -10  333.17   17.40
  -6  -2 -10  334.67   19.80
   6   2  10  331.17   16.50
   6   2  10  328.07   16.10
   6   2  10  341.67   18.30
  -7  -2 -10  446.16   22.90
  -7  -2 -10  507.05   26.30
   7   2  10  471.25   20.90
   7   2  10  457.85   20.70
   7   2  10  473.25   20.60
   5  -3 -10  165.58   10.20
   5  -3 -10  156.08    9.00
   5  -3 -10  142.29   13.20
  -5   3  10  157.68   13.90
  -5   3  10  163.98    9.40
   4  -3 -10 1940.41   56.49
   4  -3 -10 1939.11   63.59
  -4   3  10 1964.00   54.69
  -4   3  10 1969.00   63.09
   3  -3 -10  410.06   21.30
   3  -3 -10  447.66   18.80
   3  -3 -10  422.06   17.80
  -3   3  10  429.06   17.30
  -3   3  10  423.46   21.20
  -3   3  10  420.26   16.90
   2  -3 -10 2561.74   85.29
   2  -3 -10 2512.15   70.19
   2  -3 -10 2497.25   68.59
  -2   3  10 2496.65   72.79
  -2   3  10 2521.65   74.49
  -2   3  10 2518.45   68.59
  -2   3  10 2476.65   67.39
   1  -3 -10  724.23   27.70
   1  -3 -10  683.23   26.10
   1  -3 -10  695.03   25.20
  -1   3  10  737.53   25.60
  -1   3  10  730.53   27.30
  -1   3  10  749.92   31.10
   0  -3 -10 1924.21   55.69
   0  -3 -10 1914.71   56.59
   0  -3 -10 2001.00   55.39
   0  -3 -10 1892.31   56.59
   0   3  10 1983.00   56.39
   0   3  10 1927.71   55.49
  -1  -3 -10  945.41   32.00
  -1  -3 -10  963.40   33.20
  -1  -3 -10 1013.80   31.00
  -1  -3 -10  960.10   32.20
   1   3  10  924.41   32.60
   1   3  10 1035.40   32.00
   1   3  10  940.31   32.00
  -2  -3 -10 1094.59   35.10
  -2  -3 -10 1028.20   35.20
  -2  -3 -10 1038.20   31.70
   2   3  10 1050.49   34.60
   2   3  10 1070.79   33.00
   2   3  10 1009.20   36.80
  -3  -3 -10  578.64   19.40
  -3  -3 -10  608.74   24.30
  -3  -3 -10  639.84   20.50
   3   3  10  607.74   21.50
   3   3  10  625.84   24.70
   3   3  10  592.04   27.60
  -4  -3 -10  276.47   14.90
  -4  -3 -10  270.87   12.30
  -4  -3 -10  252.97   15.70
  -4  -3 -10  267.87    9.70
   4   3  10  264.37   14.60
   4   3  10  254.67   12.00
   4   3  10  275.77   14.40
  -5  -3 -10  160.08   12.60
  -5  -3 -10  174.28   10.60
   5   3  10  176.78   11.50
   5   3  10  184.98    9.90
  -6  -3 -10   43.20    6.00
  -6  -3 -10   30.60    5.10
  -6  -3 -10   31.30    6.00
   6   3  10   35.30    5.00
   6   3  10   45.10    4.50
   6   3  10   44.00    4.90
  -7  -3 -10    7.10    3.20
  -7  -3 -10    6.20    4.00
   7   3  10    2.90    2.60
   7   3  10    7.90    2.50
   7   3  10    5.50    2.30
   4  -4 -10  142.69   13.00
   4  -4 -10  165.88   10.90
   4  -4 -10  147.19    8.70
   3  -4 -10  559.64   25.60
   3  -4 -10  551.04   23.00
   3  -4 -10  567.24   22.70
  -3   4  10  432.66   21.00
  -3   4  10  542.65   20.10
  -3   4  10  544.55   24.80
   2  -4 -10  208.78   13.60
   2  -4 -10  175.98   10.40
   2  -4 -10  195.08   12.00
  -2   4  10  178.88   11.60
  -2   4  10  190.48   12.60
  -2   4  10  174.98   10.10
  -2   4  10  190.88   10.60
   1  -4 -10 1239.28   40.70
   1  -4 -10 1227.28   38.10
   1  -4 -10 1217.78   39.90
   1  -4 -10 1209.88   39.60
  -1   4  10 1235.28   37.30
  -1   4  10 1265.57   38.50
  -1   4  10 1194.18   39.90
  -1   4  10 1209.88   39.70
   0  -4 -10  336.67   15.90
   0  -4 -10  331.87   15.40
   0  -4 -10  324.07   16.10
   0   4  10  301.77   15.50
   0   4  10  314.07   15.10
   0   4  10  331.27   15.40
  -1  -4 -10 1864.41   56.39
  -1  -4 -10 1948.51   54.79
  -1  -4 -10 1957.90   55.79
  -1  -4 -10 1888.31   54.59
   1   4  10 1877.21   55.29
   1   4  10 1928.31   53.89
   1   4  10 1872.31   56.39
  -2  -4 -10  461.15   18.30
  -2  -4 -10  478.05   20.60
  -2  -4 -10  438.26   19.60
   2   4  10  515.85   18.20
   2   4  10  434.96   19.30
  -3  -4 -10 1768.82   49.30
  -3  -4 -10 1872.01   54.49
   3   4  10 1731.23   48.60
   3   4  10 1731.03   55.79
   3   4  10 1741.53   52.99
  -4  -4 -10  570.24   25.80
  -4  -4 -10  573.64   24.00
  -4  -4 -10  603.64   19.60
   4   4  10  507.85   27.40
   4   4  10  617.54   19.80
   4   4  10  594.04   24.00
  -5  -4 -10 1105.19   31.50
  -5  -4 -10 1112.89   38.90
  -5  -4 -10 1175.08   39.00
  -5  -4 -10 1099.59   41.20
   5   4  10 1143.99   32.90
   5   4  10 1124.09   38.40
  -6  -4 -10  455.45   21.50
  -6  -4 -10  545.55   25.90
   6   4  10  475.65   17.20
   6   4  10  482.65   21.90
  -7  -4 -10  373.06   22.20
   7   4  10  364.26   17.80
   7   4  10  369.76   14.80
   7   4  10  389.36   15.60
   7   4  10  365.06   19.10
   4  -5 -10   26.80    6.20
   4  -5 -10   27.60    6.40
   4  -5 -10   34.60    5.30
   4  -5 -10   35.00    4.00
  -4   5  10   25.10    4.60
  -4   5  10   22.00    3.80
   3  -5 -10 1591.74   51.69
   3  -5 -10 1518.45   45.40
   3  -5 -10 1479.25   48.50
   3  -5 -10 1482.35   51.69
  -3   5  10 1598.64   47.90
  -3   5  10 1533.65   44.50
  -3   5  10 1501.25   51.49
   2  -5 -10   10.30    3.20
   2  -5 -10   12.60    3.60
   2  -5 -10   17.10    3.50
   2  -5 -10   11.30    3.80
  -2   5  10   11.40    3.00
  -2   5  10   19.40    4.20
   0  -5 -10   20.30    3.80
   0  -5 -10   20.70    4.10
   0  -5 -10   14.00    3.50
   0  -5 -10   21.10    3.90
   0   5  10   22.40    3.80
   0   5  10   20.40    3.70
  -1  -5 -10  509.15   22.20
  -1  -5 -10  505.85   20.20
  -1  -5 -10  543.05   22.90
  -1  -5 -10  518.65   21.40
   1   5  10  567.54   20.40
   1   5  10  535.55   21.60
  -2  -5 -10   71.89    6.90
  -2  -5 -10   80.39    6.40
  -2  -5 -10   70.39    5.70
  -2  -5 -10   88.79    8.00
  -2  -5 -10   66.29    6.50
   2   5  10   68.99    6.90
   2   5  10   68.29    5.50
  -3  -5 -10   91.49    7.70
  -3  -5 -10   89.19    8.30
  -3  -5 -10   94.59    7.20
   3   5  10   81.19    7.80
   3   5  10   86.49    5.70
  -4  -5 -10  242.48   11.90
  -4  -5 -10  268.27   15.10
  -4  -5 -10  250.77   15.90
  -4  -5 -10  267.07   14.60
   4   5  10  242.78   14.30
   4   5  10  237.78    9.70
  -5  -5 -10   13.00    4.20
  -5  -5 -10    0.40    1.00
  -5  -5 -10    2.40    2.30
   5   5  10    1.10    1.30
   5   5  10    4.60    1.30
  -6  -5 -10  333.07   20.20
  -6  -5 -10  391.16   19.00
  -6  -5 -10  374.76   14.20
  -6  -5 -10  342.17   19.50
   6   5  10  342.67   18.50
  -7  -5 -10   28.90    6.00
  -7  -5 -10   24.70    6.00
   7   5  10   25.50    4.00
   7   5  10   23.70    5.60
   3  -6 -10  512.35   23.40
   3  -6 -10  469.55   24.10
   3  -6 -10  471.25   23.90
  -3   6  10  491.95   20.80
  -3   6  10  478.05   18.40
   2  -6 -10  933.71   35.30
   2  -6 -10  979.00   36.40
   2  -6 -10  937.01   36.00
   2  -6 -10  961.10   31.70
  -2   6  10  941.71   31.30
  -2   6  10  979.10   32.80
   1  -6 -10  740.43   30.00
   1  -6 -10  747.63   29.40
   1  -6 -10  747.63   27.10
   1  -6 -10  775.32   30.40
  -1   6  10  750.62   26.90
  -1   6  10  774.82   27.50
  -1   6  10  755.82   29.10
   0  -6 -10 1765.52   52.39
   0  -6 -10 1738.83   52.39
   0  -6 -10 1818.12   55.49
   0   6  10 1709.53   58.79
   0   6  10 1718.43   52.09
   0   6  10 1761.12   52.29
  -1  -6 -10  631.24   25.80
  -1  -6 -10  676.33   27.50
  -1  -6 -10  664.43   22.30
  -1  -6 -10  654.83   23.80
  -1  -6 -10  701.23   26.20
   1   6  10  665.53   23.70
   1   6  10  660.83   25.60
  -2  -6 -10 2025.10   55.99
  -2  -6 -10 2066.69   60.29
  -2  -6 -10 2119.89   62.79
  -2  -6 -10 2008.40   57.69
  -2  -6 -10 2078.89   61.09
   2   6  10 2064.09   60.99
   2   6  10 2061.39   55.79
  -3  -6 -10  300.87   16.30
  -3  -6 -10  285.87   15.90
  -3  -6 -10  278.07   14.50
   3   6  10  284.07   10.90
   3   6  10  274.57   15.50
  -4  -6 -10 1439.26   42.90
  -4  -6 -10 1357.36   44.80
  -4  -6 -10 1384.36   46.00
   4   6  10 1371.66   45.70
  -5  -6 -10   35.60    5.60
  -5  -6 -10   39.60    6.50
  -5  -6 -10   42.40    4.70
  -5  -6 -10   33.00    5.40
   5   6  10   36.90    6.20
  -6  -6 -10  510.75   19.10
  -6  -6 -10  487.25   25.20
  -6  -6 -10  472.65   23.80
  -6  -6 -10  517.25   23.00
   6   6  10  488.85   23.40
   6   6  10  491.65   19.90
  -7  -6 -10    0.10    1.90
  -7  -6 -10    0.60    2.00
  -7  -6 -10   -0.30    2.20
   7   6  10   -2.70    1.30
   7   6  10   -2.90    2.80
   2  -7 -10  243.08   15.50
   2  -7 -10  266.57   16.70
   2  -7 -10  237.78   15.50
  -2   7  10  251.67   12.80
  -2   7  10  232.98   14.20
   1  -7 -10  147.19   11.80
   1  -7 -10  131.29   11.00
   1  -7 -10  132.09   11.10
  -1   7  10  128.99    9.60
  -1   7  10  138.39    9.90
   0  -7 -10   66.19    7.30
   0  -7 -10   51.89    6.80
   0  -7 -10   53.89    4.00
   0  -7 -10   58.29    6.50
   0   7  10   45.50    5.60
   0   7  10   44.60    5.50
  -1  -7 -10   78.59    6.60
  -1  -7 -10   74.59    5.90
  -1  -7 -10   66.99    7.80
   1   7  10   68.89    7.20
   1   7  10   72.89    7.70
  -2  -7 -10   14.20    2.70
  -2  -7 -10   22.30    4.90
  -2  -7 -10    8.60    2.90
   2   7  10   17.80    3.80
   2   7  10   16.60    3.50
  -3  -7 -10   50.59    6.30
  -3  -7 -10   69.09    6.60
  -3  -7 -10   53.59    6.90
   3   7  10   39.80    6.30
   3   7  10   55.09    5.80
  -4  -7 -10  179.78   12.00
  -4  -7 -10  178.38   11.20
  -4  -7 -10  152.38   11.70
   4   7  10  179.78   12.50
   4   7  10  145.69    8.10
   4   7  10  175.68   10.20
  -5  -7 -10   78.29    9.00
  -5  -7 -10   57.59    6.20
  -5  -7 -10   73.39    8.10
  -5  -7 -10   58.69    7.30
   5   7  10   61.49    6.80
   5   7  10   67.89    5.70
   5   7  10   68.19    8.30
   5   7  10   63.19    6.30
  -6  -7 -10  240.08   15.20
  -6  -7 -10  220.28   16.10
  -6  -7 -10  245.18   13.00
  -6  -7 -10  228.18   15.70
   6   7  10  223.68   15.00
   6   7  10  220.48   13.00
   1  -8 -10  444.86   22.40
   1  -8 -10  382.36   21.50
   1  -8 -10  400.16   20.30
  -1   8  10  418.36   19.60
  -1   8  10  414.86   18.40
   0  -8 -10  638.34   24.70
   0  -8 -10  576.14   19.20
   0  -8 -10  584.64   33.50
   0  -8 -10  578.24   27.00
   0   8  10  569.14   26.70
   0   8  10  555.24   23.50
   0   8  10  604.94   24.50
  -1  -8 -10  505.65   18.90
  -1  -8 -10  474.35   19.20
  -1  -8 -10  477.75   23.70
  -1  -8 -10  501.35   23.50
   1   8  10  492.95   23.30
   1   8  10  442.26   21.40
   1   8  10  507.45   22.10
  -2  -8 -10  316.57   15.10
  -2  -8 -10  314.47   12.90
  -2  -8 -10  305.87   18.30
  -2  -8 -10  320.77   17.60
   2   8  10  291.17   19.30
   2   8  10  307.57   16.90
  -3  -8 -10  323.87   18.90
  -3  -8 -10  344.37   16.90
  -3  -8 -10  331.57   17.70
   3   8  10  324.17   16.90
   3   8  10  338.27   18.20
   3   8  10  324.07   21.90
  -4  -8 -10   36.30    5.50
  -4  -8 -10   34.40    6.10
  -4  -8 -10   17.10    5.00
   4   8  10   37.90    5.10
   4   8  10   25.60    5.60
   4   8  10   34.30    5.60
   4   8  10   30.40    3.70
  -5  -8 -10  115.29   10.70
  -5  -8 -10  141.49   14.00
  -5  -8 -10  121.69   11.60
  -5  -8 -10  137.19   11.40
   5   8  10  120.39   10.30
   5   8  10  138.59    9.10
   5   8  10  129.49   11.80
   5   8  10  120.59   10.70
  -6  -8 -10   28.00    5.10
  -6  -8 -10   29.40    5.20
  -6  -8 -10   24.90    4.50
  -6  -8 -10   13.70    5.20
   6   8  10   21.50    3.60
   6   8  10   11.20    3.70
   6   8  10   16.10    4.50
   0  -9 -10   10.10    3.60
   0  -9 -10   21.60    2.70
   0  -9 -10    9.40    4.40
   0  -9 -10   17.40    4.00
   0   9  10   20.40    4.10
   0   9  10   21.40    6.10
  -1  -9 -10  237.88   15.90
  -1  -9 -10  232.38   16.20
  -1  -9 -10  212.58   11.90
  -1  -9 -10  235.48   12.00
   1   9  10  212.68   13.90
   1   9  10  230.58   13.70
   1   9  10  203.98   15.00
  -2  -9 -10   -0.50    1.70
  -2  -9 -10    5.50    2.40
  -2  -9 -10   -1.30    2.10
  -2  -9 -10    7.40    2.10
   2   9  10    1.20    2.20
   2   9  10    4.10    2.40
   2   9  10    5.20    2.70
  -3  -9 -10  234.98   20.40
  -3  -9 -10  304.67   16.10
  -3  -9 -10  285.47   17.80
   3   9  10  302.57   17.40
   3   9  10  283.57   16.90
   3   9  10  284.67   15.40
  -4  -9 -10   11.60    2.90
  -4  -9 -10   18.90    4.40
  -4  -9 -10   12.90    4.40
   4   9  10   23.00    5.20
   4   9  10    5.20    2.40
   4   9  10   13.40    4.00
   1   6 -11  248.88   13.70
   1   6 -11  230.58    9.30
  -1  -6  11  244.38   10.50
  -1  -6  11  225.38   11.90
   3   5 -11  130.29    6.50
   3   5 -11  122.79    9.90
   3   5 -11  102.89   11.40
  -3  -5  11  128.59    6.90
  -3  -5  11  129.59   12.40
  -3  -5  11  125.09   10.50
   2   5 -11   27.50    5.50
   2   5 -11   37.50    3.50
   2   5 -11   32.40    5.20
  -2  -5  11   41.30    4.40
  -2  -5  11   36.70    6.80
  -2  -5  11   27.40    4.60
   1   5 -11    0.10    1.80
   1   5 -11   -0.40    1.50
   1   5 -11    0.20    1.20
  -1  -5  11    1.40    1.40
  -1  -5  11   -0.40    1.30
  -1  -5  11    3.10    2.70
   0   5 -11    4.00    2.10
   0   5 -11    2.90    2.60
   0   5 -11    2.90    2.00
   0  -5  11    3.70    1.80
   0  -5  11   -1.40    1.50
  -1   5 -11  105.79    9.30
  -1   5 -11  106.79    9.90
  -1   5 -11  101.19    6.70
  -1   5 -11   97.99    7.80
   1  -5  11  112.89    8.60
   1  -5  11   84.29    5.70
   1  -5  11   96.89   11.00
  -2   5 -11    0.70    1.90
  -2   5 -11    2.60    2.10
  -2   5 -11   -1.00    2.20
   2  -5  11   -3.10    1.90
   2  -5  11   -1.90    1.40
   4   4 -11  472.25   22.70
   4   4 -11  486.35   26.40
   4   4 -11  498.45   22.70
  -4  -4  11  459.65   19.60
  -4  -4  11  493.15   26.00
  -4  -4  11  499.35   25.20
   3   4 -11  152.98   11.00
   3   4 -11  180.58   12.80
  -3  -4  11  180.68    8.20
  -3  -4  11  160.28   13.60
  -3  -4  11  150.98   12.30
   2   4 -11  431.46   23.30
   2   4 -11  467.55   17.20
   2   4 -11  431.36   21.70
  -2  -4  11  434.16   16.30
  -2  -4  11  468.95   25.30
   1   4 -11   14.30    4.40
   1   4 -11   16.60    3.60
   1   4 -11   15.30    2.90
  -1  -4  11   16.00    5.00
  -1  -4  11   11.40    2.70
   0   4 -11  252.27   12.00
   0   4 -11  268.57   15.50
   0   4 -11  266.77   13.00
   0  -4  11  255.97   17.10
   0  -4  11  270.17   12.80
  -1   4 -11   42.80    6.20
  -1   4 -11   49.70    5.50
  -1   4 -11   54.29    4.40
   1  -4  11   43.80    5.00
   1  -4  11   47.50    9.70
  -2   4 -11   66.69    6.90
  -2   4 -11   65.29    6.60
  -2   4 -11   78.99    7.90
   2  -4  11   54.79    8.30
   2  -4  11   57.49    6.30
  -3   4 -11   82.59    7.30
  -3   4 -11   78.69    8.40
  -3   4 -11   89.19    8.60
   3  -4  11   88.99    8.00
   3  -4  11  100.39   10.90
   4   3 -11    9.10    2.50
   4   3 -11    4.20    2.10
   4   3 -11    4.20    2.30
  -4  -3  11    8.70    1.80
  -4  -3  11    4.00    3.20
  -4  -3  11    5.60    2.50
  -4  -3  11    1.40    1.10
  -4  -3  11    0.80    1.60
   3   3 -11   63.19    8.60
   3   3 -11   68.39    6.90
   3   3 -11   73.69    7.80
  -3  -3  11   77.49    7.00
  -3  -3  11   87.89   15.30
  -3  -3  11   79.09    5.00
   2   3 -11   78.69    7.00
   2   3 -11   86.19    8.10
  -2  -3  11   83.09    5.80
  -2  -3  11   90.39    9.50
   1   3 -11   38.70    4.60
   1   3 -11   42.70    4.70
  -1  -3  11   36.50    4.20
   0   3 -11  284.07   16.20
   0   3 -11  306.77   12.80
   0  -3  11  305.47   18.00
   0  -3  11  284.57   13.40
  -1   3 -11    8.00    1.80
  -1   3 -11    9.90    2.90
  -1   3 -11    5.40    2.70
   1  -3  11   15.80    4.90
   1  -3  11    7.90    2.90
   1  -3  11    5.70    2.20
  -2   3 -11  361.26   17.50
  -2   3 -11  353.16   17.80
   2  -3  11  371.46   20.50
   2  -3  11  353.56   16.20
   2  -3  11  323.17   16.70
  -3   3 -11    3.30    2.30
  -3   3 -11    4.60    2.60
  -3   3 -11   10.10    3.00
   3  -3  11    7.20    2.40
   3  -3  11   12.90    4.40
   3  -3  11    7.40    2.60
  -4   3 -11   88.59    9.10
  -4   3 -11   88.19   10.00
  -4   3 -11   79.59    8.30
  -4   3 -11   83.79    6.20
   4  -3  11   79.59    9.40
   4  -3  11   93.39    8.20
   4  -3  11   90.89    8.00
   5   2 -11  223.78   14.40
   5   2 -11  230.48   20.30
  -5  -2  11  219.28   22.00
  -5  -2  11  187.98   16.40
  -5  -2  11  198.78   10.20
  -5  -2  11  191.28   10.40
   4   2 -11  123.39    9.90
   4   2 -11  136.69   12.30
   4   2 -11  139.29   10.50
  -4  -2  11  126.89    8.50
  -4  -2  11  133.79    6.40
  -4  -2  11  138.19    6.30
  -4  -2  11  143.89   12.40
   3   2 -11  495.55   22.10
   3   2 -11  511.35   25.10
   3   2 -11  508.15   21.50
  -3  -2  11  520.15   25.20
  -3  -2  11  496.25   16.80
   2   2 -11   13.70    3.80
   2   2 -11   20.50    5.00
   2   2 -11   19.80    3.70
  -2  -2  11   16.90    3.70
  -2  -2  11   18.80    2.90
   1   2 -11  328.87   14.40
  -1  -2  11  340.87   18.80
  -1  -2  11  333.47   13.80
   0   2 -11  176.38    9.00
   0   2 -11  175.38   10.70
   0  -2  11  176.18    9.70
   0  -2  11  178.98   11.30
   0  -2  11  167.98   12.60
  -1   2 -11  108.89    5.90
  -1   2 -11  112.89    9.30
  -1   2 -11  119.19    8.90
   1  -2  11  112.09    7.80
   1  -2  11  107.19   10.00
   1  -2  11  107.99    8.70
  -2   2 -11  715.33   28.20
  -2   2 -11  746.73   28.40
   2  -2  11  769.52   26.80
   2  -2  11  771.92   28.00
   2  -2  11  739.33   30.70
  -3   2 -11    1.00    2.10
  -3   2 -11    0.70    2.00
  -3   2 -11    1.10    1.90
  -3   2 -11    0.10    1.50
   3  -2  11   -0.90    1.20
   3  -2  11    1.60    1.60
   3  -2  11    4.00    2.10
  -4   2 -11  879.01   36.00
  -4   2 -11  867.21   26.60
  -4   2 -11  899.21   34.70
  -4   2 -11  835.12   31.80
   4  -2  11  879.41   31.30
   4  -2  11  910.41   35.80
   4  -2  11  875.81   31.20
  -5   2 -11  118.09   11.10
  -5   2 -11   93.89    9.30
  -5   2 -11  112.89   11.30
   5  -2  11  103.59    9.10
   5  -2  11  128.49    9.50
   5  -2  11  104.89   11.10
   5   1 -11   43.90    5.80
   5   1 -11   40.20    7.30
  -5  -1  11   44.70    3.20
  -5  -1  11   31.30    6.60
  -5  -1  11   44.90    3.70
  -5  -1  11   41.90    4.90
   4   1 -11   69.49    7.10
   4   1 -11   50.99    7.60
  -4  -1  11   65.69    4.60
  -4  -1  11   63.79    6.00
  -4  -1  11   59.29    8.00
  -4  -1  11   64.29    4.40
   3   1 -11    0.90    1.70
   3   1 -11    7.50    3.20
  -3  -1  11    1.20    1.30
  -3  -1  11   -1.10    1.10
  -3  -1  11    1.20    1.50
   2   1 -11  313.37   16.00
   2   1 -11  296.97   17.60
  -2  -1  11  308.57   15.40
  -2  -1  11  320.07   18.00
  -2  -1  11  340.77   13.20
   1   1 -11    1.50    1.80
   1   1 -11    5.80    2.20
   1   1 -11    3.80    1.60
  -1  -1  11    3.00    2.00
  -1  -1  11    7.50    2.60
  -1  -1  11    7.40    2.10
  -1  -1  11    4.00    2.10
   0   1 -11  186.28    9.30
   0  -1  11  199.18   11.70
   0  -1  11  203.18   10.50
   0  -1  11  199.58   13.20
  -1   1 -11   12.00    3.00
  -1   1 -11   13.80    2.10
   1  -1  11   10.20    3.40
   1  -1  11   17.40    3.30
   1  -1  11   11.20    2.90
  -2   1 -11   71.89    7.20
   2  -1  11   68.39    6.10
   2  -1  11   80.19    8.20
   2  -1  11   67.99    6.70
  -3   1 -11   12.60    4.90
  -3   1 -11   10.80    3.80
  -3   1 -11   10.30    3.30
   3  -1  11   10.30    3.10
   3  -1  11   13.50    3.30
   3  -1  11   16.80    3.60
  -4   1 -11   12.20    4.60
  -4   1 -11   21.60    5.00
  -4   1 -11   13.30    4.00
  -4   1 -11   18.50    2.40
   4  -1  11   26.70    3.70
   4  -1  11   18.10    4.80
   4  -1  11    8.40    2.60
  -5   1 -11  267.87   16.70
  -5   1 -11  251.17   14.60
  -5   1 -11  249.28   16.70
   5  -1  11  252.67   14.00
   5  -1  11  267.87   16.60
   5  -1  11  251.77   14.30
  -6   1 -11    6.20    2.90
  -6   1 -11    8.30    3.60
  -6   1 -11    1.90    3.30
   6  -1  11    5.40    2.20
   6  -1  11    3.90    2.30
   5   0 -11  304.67   20.50
   5   0 -11  261.57   14.30
  -5   0  11  282.87   18.70
  -5   0  11  294.97   10.80
  -5   0  11  255.87   12.80
   4   0 -11  109.69   11.10
   4   0 -11  103.19    8.40
  -4   0  11   96.69   12.40
  -4   0  11  111.79    6.50
  -4   0  11  111.89    7.90
   3   0 -11   33.40    5.90
   3   0 -11   46.70    5.50
   3   0 -11   39.50    4.80
  -3   0  11   33.50    3.70
  -3   0  11   33.20    4.80
  -3   0  11   50.69    7.10
   2   0 -11  470.45   20.00
   2   0 -11  452.75   18.80
   2   0 -11  445.06   22.20
  -2   0  11  472.05   19.80
  -2   0  11  453.45   21.90
   1   0 -11   12.00    3.40
   1   0 -11   14.30    3.40
  -1   0  11   11.20    3.00
  -1   0  11   12.20    3.40
  -1   0  11   15.60    3.90
   0   0  11  414.16   18.60
   0   0  11  426.36   20.00
   0   0  11  444.06   19.00
  -1   0 -11  490.45   16.20
   1   0  11  481.65   20.40
   1   0  11  499.65   21.90
  -2   0 -11  475.85   16.00
  -2   0 -11  455.15   21.00
  -2   0 -11  460.55   18.50
  -2   0 -11  461.85   13.50
   2   0  11  459.35   19.80
   2   0  11  471.05   21.10
   2   0  11  476.55   18.90
  -3   0 -11  760.22   31.60
  -3   0 -11  897.91   30.40
   3   0  11  902.41   30.00
   3   0  11  886.51   32.30
   3   0  11  893.01   31.00
  -4   0 -11  277.97   16.80
  -4   0 -11  268.07   15.20
  -4   0 -11  296.97   15.70
  -4   0 -11  292.97   10.10
   4   0  11  286.17   15.10
   4   0  11  297.47   16.50
   4   0  11  306.77   15.20
  -5   0 -11  691.73   28.10
  -5   0 -11  641.74   29.30
  -5   0 -11  659.33   26.70
   5   0  11  628.04   25.50
   5   0  11  699.03   26.50
   5   0  11  672.23   27.90
  -6   0 -11   67.09    8.40
  -6   0 -11   87.59    9.90
  -6   0 -11   74.29    8.00
   6   0  11   78.39    8.60
   6   0  11   58.09    6.90
   6   0  11   87.19    7.80
   5  -1 -11  103.89   13.80
   5  -1 -11  100.49    8.10
  -5   1  11  108.49   12.60
  -5   1  11  103.69    8.00
  -5   1  11   90.79    6.10
   4  -1 -11   80.39    7.20
   4  -1 -11   98.39   10.30
   4  -1 -11   67.29    6.60
   4  -1 -11   79.89    6.80
  -4   1  11   83.89    6.00
  -4   1  11   65.39    9.90
  -4   1  11   69.59    6.60
   3  -1 -11  110.09    8.10
   3  -1 -11   85.19    7.60
   3  -1 -11   95.49    9.60
   3  -1 -11   91.49    6.20
  -3   1  11   94.59    6.40
  -3   1  11   95.49    8.10
  -3   1  11  103.99    9.70
  -3   1  11  101.69    8.00
   2  -1 -11  206.78    9.00
   2  -1 -11  195.18   11.70
   2  -1 -11  208.58   14.00
   2  -1 -11  216.98   12.20
  -2   1  11  219.58   13.80
  -2   1  11  182.18   12.90
  -2   1  11  224.98   12.30
   1  -1 -11   63.79    4.20
   1  -1 -11   71.19    8.60
   1  -1 -11   64.29    6.50
   1  -1 -11   71.59    6.60
  -1   1  11   66.19    6.60
  -1   1  11   66.19    7.10
  -1   1  11   64.29    6.50
   0  -1 -11   48.60    5.50
   0  -1 -11   45.30    5.50
   0  -1 -11   37.40    5.40
   0   1  11   45.00    5.70
   0   1  11   36.40    4.80
   0   1  11   40.30    5.20
  -1  -1 -11   65.99    5.20
  -1  -1 -11   73.89    5.20
   1   1  11   76.09    7.00
   1   1  11   71.69    7.00
   1   1  11   75.89    7.40
  -2  -1 -11    1.10    1.80
  -2  -1 -11   -0.10    0.90
  -2  -1 -11    2.00    0.90
   2   1  11    4.60    2.00
   2   1  11   -0.20    0.90
  -3  -1 -11  367.26   15.50
  -3  -1 -11  372.66   19.10
   3   1  11  334.27   16.70
   3   1  11  363.26   17.30
  -4  -1 -11  116.79    8.80
  -4  -1 -11  126.19   10.90
  -4  -1 -11  106.99   12.30
   4   1  11  116.89    9.10
   4   1  11  128.29    9.10
   4   1  11  127.29    9.60
  -5  -1 -11  526.05   22.80
  -5  -1 -11  484.35   24.70
  -5  -1 -11  503.75   22.50
   5   1  11  538.85   22.00
   5   1  11  535.65   22.70
   5   1  11  501.85   21.60
  -6  -1 -11  454.65   24.70
  -6  -1 -11  460.85   21.70
  -6  -1 -11  580.54   35.80
   6   1  11  483.85   21.30
   6   1  11  482.55   21.40
   6   1  11  440.16   21.20
   5  -2 -11   54.09    5.80
   5  -2 -11   51.79    9.00
   5  -2 -11   59.69    5.90
  -5   2  11   68.39    5.40
   4  -2 -11    7.20    3.30
   4  -2 -11    7.90    3.00
   4  -2 -11   12.10    2.80
   4  -2 -11   15.50    3.50
  -4   2  11   10.60    2.70
  -4   2  11    7.60    3.70
  -4   2  11    5.90    2.50
   3  -2 -11  506.15   20.40
   3  -2 -11  466.15   16.30
   3  -2 -11  527.95   21.10
   3  -2 -11  504.95   24.60
  -3   2  11  540.75   24.80
  -3   2  11  549.15   24.40
  -3   2  11  493.55   20.90
  -3   2  11  492.95   18.70
   2  -2 -11   94.99    9.20
   2  -2 -11  104.29    8.10
   2  -2 -11  111.69    8.60
  -2   2  11  112.89    9.70
  -2   2  11  105.49    8.50
  -2   2  11  110.79    7.20
   1  -2 -11 1510.95   49.70
   1  -2 -11 1473.15   46.30
   1  -2 -11 1515.25   45.70
  -1   2  11 1501.25   47.90
  -1   2  11 1485.95   46.30
   0  -2 -11  385.16   18.40
   0  -2 -11  349.17   16.60
   0  -2 -11  378.16   17.70
   0   2  11  375.46   17.40
   0   2  11  375.96   20.20
   0   2  11  355.06   17.40
  -1  -2 -11 1389.36   43.00
  -1  -2 -11 1363.86   43.70
  -1  -2 -11 1353.16   39.60
   1   2  11 1287.97   42.90
   1   2  11 1409.26   43.20
  -2  -2 -11  901.11   25.60
  -2  -2 -11  897.71   27.00
  -2  -2 -11  897.11   32.10
   2   2  11  884.61   30.60
   2   2  11  858.51   30.90
  -3  -2 -11 1095.89   40.00
  -3  -2 -11 1138.29   38.90
  -3  -2 -11 1115.49   33.50
  -3  -2 -11 1155.98   30.60
   3   2  11 1160.98   38.10
   3   2  11 1167.28   36.90
  -4  -2 -11  613.64   22.40
  -4  -2 -11  594.14   26.30
  -4  -2 -11  566.24   26.20
   4   2  11  621.14   24.60
   4   2  11  601.54   23.10
  -5  -2 -11  570.74   27.10
  -5  -2 -11  589.74   24.90
  -5  -2 -11  572.24   23.30
   5   2  11  581.94   23.40
   5   2  11  571.24   24.00
   5   2  11  625.74   27.50
  -6  -2 -11  159.88   13.60
  -6  -2 -11  142.69   11.00
  -6  -2 -11  160.78   12.00
   6   2  11  149.59   10.50
   6   2  11  149.99   10.80
   6   2  11  172.18   11.80
   4  -3 -11  222.48   12.80
   4  -3 -11  237.98   12.50
   4  -3 -11  212.88   16.10
  -4   3  11  228.28   16.40
   3  -3 -11  151.28    9.60
   3  -3 -11  135.29   11.70
   3  -3 -11  139.69   10.00
  -3   3  11  140.89    8.80
  -3   3  11  135.09   11.60
  -3   3  11  135.69    9.10
   2  -3 -11   87.09    9.10
   2  -3 -11   91.69    7.20
   2  -3 -11   89.39    7.80
  -2   3  11   87.59    7.20
  -2   3  11   87.59    8.70
  -2   3  11   98.19    7.00
   1  -3 -11   18.10    3.80
   1  -3 -11   23.60    4.60
   1  -3 -11   20.50    3.80
  -1   3  11   24.50    4.90
  -1   3  11   12.20    3.60
  -1   3  11   23.80    4.50
   0  -3 -11    0.80    1.30
   0  -3 -11    1.30    0.80
   0  -3 -11    9.00    2.90
   0  -3 -11   -0.10    0.80
   0   3  11    5.60    2.50
   0   3  11   -0.90    1.60
   0   3  11    2.10    1.30
  -1  -3 -11   30.70    4.30
  -1  -3 -11   23.70    4.10
  -1  -3 -11   27.10    4.40
  -1  -3 -11   38.80    5.30
   1   3  11   26.90    4.20
   1   3  11   24.90    4.00
   1   3  11   17.10    3.90
  -2  -3 -11  474.85   21.70
  -2  -3 -11  540.95   19.10
   2   3  11  541.75   20.60
   2   3  11  506.85   21.50
  -3  -3 -11    7.60    2.30
  -3  -3 -11    9.80    2.20
   3   3  11    6.00    1.90
   3   3  11   11.20    3.10
  -4  -3 -11 1002.20   35.70
  -4  -3 -11  997.70   35.80
  -4  -3 -11  989.10   31.00
  -4  -3 -11 1001.20   38.00
  -4  -3 -11 1006.10   27.40
   4   3  11 1009.30   35.20
   4   3  11 1010.80   32.30
  -5  -3 -11   83.89    8.60
  -5  -3 -11   87.09    7.30
  -5  -3 -11   86.99    9.60
   5   3  11  105.49    9.20
   5   3  11   88.99    7.00
  -6  -3 -11 1021.10   41.20
  -6  -3 -11 1107.89   37.00
  -6  -3 -11 1017.70   37.80
   6   3  11 1029.60   37.30
   6   3  11 1060.69   36.30
   6   3  11 1060.09   34.10
  -7  -3 -11  225.08   14.80
  -7  -3 -11  216.58   16.90
   7   3  11  216.38   14.20
   7   3  11  248.38   14.30
   7   3  11  199.68   13.20
   4  -4 -11  213.68   12.90
   4  -4 -11  196.38   15.70
   4  -4 -11  223.58   11.80
  -4   4  11  248.78   14.50
  -4   4  11  248.98   17.20
   3  -4 -11   37.80    6.70
   3  -4 -11   40.00    4.70
   3  -4 -11   43.60    5.80
  -3   4  11   42.00    5.00
  -3   4  11   42.30    6.90
   2  -4 -11  822.52   30.40
   2  -4 -11  815.32   31.00
   2  -4 -11  819.62   32.30
   2  -4 -11  800.72   28.30
  -2   4  11  786.62   31.50
  -2   4  11  796.72   28.30
   1  -4 -11    7.60    2.70
   1  -4 -11    9.70    2.80
   1  -4 -11   11.50    3.80
  -1   4  11   11.20    4.80
  -1   4  11    5.50    2.30
   0  -4 -11 1387.76   45.00
   0  -4 -11 1419.56   44.80
   0  -4 -11 1376.86   43.40
   0  -4 -11 1408.46   43.60
   0   4  11 1346.07   43.80
   0   4  11 1395.46   43.70
  -1  -4 -11   15.90    3.40
  -1  -4 -11   12.70    2.90
  -1  -4 -11   14.50    3.60
  -1  -4 -11   12.90    3.10
   1   4  11   14.10    2.90
   1   4  11   14.80    3.70
  -2  -4 -11 1023.00   32.90
  -2  -4 -11  999.30   35.10
  -2  -4 -11  985.60   35.80
   2   4  11 1030.60   32.70
   2   4  11 1074.59   35.70
  -3  -4 -11    0.10    1.20
  -3  -4 -11   11.60    3.40
   3   4  11   -1.50    0.80
   3   4  11    1.60    1.20
  -4  -4 -11  742.43   29.40
  -4  -4 -11  701.73   30.80
  -4  -4 -11  763.82   23.50
   4   4  11  733.73   24.30
   4   4  11  773.02   29.00
  -5  -4 -11   44.00    6.20
  -5  -4 -11   47.30    3.60
  -5  -4 -11   55.59    7.00
  -5  -4 -11   45.50    6.80
   5   4  11   48.10    6.20
   5   4  11   42.90    4.40
  -6  -4 -11  311.17   19.70
   6   4  11  322.87   13.40
   6   4  11  290.17   17.00
  -7  -4 -11  194.18   15.80
   7   4  11  185.28    9.70
   7   4  11  183.88   12.30
   7   4  11  167.38   12.60
   3  -5 -11   28.00    6.20
   3  -5 -11   24.50    4.40
   3  -5 -11   20.90    3.90
   3  -5 -11   13.70    4.30
  -3   5  11   24.50    4.60
  -3   5  11   25.00    4.10
  -3   5  11   29.30    7.20
   2  -5 -11  210.28   13.70
   2  -5 -11  221.48   12.30
   2  -5 -11  200.68   13.70
   2  -5 -11  201.38   14.20
  -2   5  11  232.08   13.10
  -2   5  11  206.68   11.90
  -2   5  11  192.38   13.70
   1  -5 -11  303.37   16.90
   1  -5 -11  317.97   15.70
   1  -5 -11  329.27   19.80
  -1   5  11  322.97   15.90
  -1   5  11  303.47   16.60
  -1   5  11  311.07   15.90
   0  -5 -11  556.44   24.10
   0  -5 -11  541.55   22.90
   0  -5 -11  578.94   23.10
   0   5  11  563.64   22.70
   0   5  11  543.25   22.50
  -1  -5 -11  963.00   35.40
  -1  -5 -11  987.10   34.30
  -1  -5 -11  971.20   33.10
  -1  -5 -11  959.20   33.60
   1   5  11 1053.19   33.00
   1   5  11  964.50   34.00
  -2  -5 -11  493.65   19.70
  -2  -5 -11  504.25   22.90
  -2  -5 -11  512.15   20.80
  -2  -5 -11  542.65   22.70
   2   5  11  539.55   22.40
   2   5  11  506.05   19.20
  -3  -5 -11 2070.69   60.19
  -3  -5 -11 2105.89   64.69
   3   5  11 2259.67   58.29
   3   5  11 2150.48   63.89
  -4  -5 -11  478.45   24.30
  -4  -5 -11  521.35   23.40
  -4  -5 -11  501.35   18.90
   4   5  11  472.55   22.10
   4   5  11  514.45   17.30
  -5  -5 -11 2020.70   61.29
  -5  -5 -11 2020.20   53.79
  -5  -5 -11 1949.51   63.99
   5   5  11 1969.20   51.69
   5   5  11 1881.01   60.39
  -6  -5 -11  178.28    8.60
  -6  -5 -11  177.38   12.70
  -6  -5 -11  177.68   14.30
   6   5  11  178.38   13.10
   6   5  11  175.88    7.60
   3  -6 -11  224.58   16.60
   3  -6 -11  227.38   14.90
  -3   6  11  234.58   13.40
  -3   6  11  239.78   12.20
   2  -6 -11  129.99   11.20
   2  -6 -11  129.29   10.90
   2  -6 -11  132.29   11.40
   2  -6 -11  126.49    9.20
  -2   6  11  137.49   11.50
  -2   6  11  119.39    9.30
  -2   6  11  120.59   13.50
   1  -6 -11  353.46   18.30
   1  -6 -11  361.06   19.00
   1  -6 -11  341.27   18.70
   1  -6 -11  303.37   15.80
  -1   6  11  346.47   16.40
  -1   6  11  353.06   16.70
  -1   6  11  326.27   17.70
   0  -6 -11   77.49    8.40
   0  -6 -11   78.29    8.90
   0  -6 -11   80.39    7.50
   0  -6 -11   79.49    7.50
   0   6  11   73.79    7.00
   0   6  11   76.79    7.50
   0   6  11   81.59    7.80
  -1  -6 -11  186.58   12.10
  -1  -6 -11  186.18   11.20
  -1  -6 -11  197.28   13.40
   1   6  11  185.88   11.80
   1   6  11  175.28   11.00
   1   6  11  189.58   10.80
  -2  -6 -11  116.19    9.00
  -2  -6 -11  103.89    7.30
  -2  -6 -11  117.59    8.20
  -2  -6 -11  110.79    9.40
  -2  -6 -11  110.49    9.90
   2   6  11  108.19    7.20
   2   6  11  110.99    9.40
  -3  -6 -11    5.00    1.90
  -3  -6 -11    0.30    1.60
  -3  -6 -11    3.10    1.90
  -3  -6 -11    0.10    1.40
   3   6  11    1.40    1.60
   3   6  11    2.20    1.10
  -4  -6 -11  110.89    9.40
  -4  -6 -11  129.69   10.70
   4   6  11  117.09    5.60
   4   6  11  111.99   10.10
  -5  -6 -11   40.00    6.80
  -5  -6 -11   44.20    4.90
  -5  -6 -11   37.30    5.60
  -5  -6 -11   40.50    6.30
   5   6  11   40.30    6.50
  -6  -6 -11  367.56   22.00
  -6  -6 -11  354.86   20.20
  -6  -6 -11  392.36   20.00
  -6  -6 -11  350.56   14.90
   6   6  11  329.07   19.20
   2  -7 -11   17.80    5.10
   2  -7 -11   22.20    5.70
   2  -7 -11   15.20    4.30
  -2   7  11   21.20    4.30
  -2   7  11   20.60    4.40
   1  -7 -11  557.44   26.10
   1  -7 -11  556.84   24.90
   1  -7 -11  571.64   26.20
  -1   7  11  532.65   22.80
  -1   7  11  577.14   23.10
   0  -7 -11   17.70    4.30
   0  -7 -11   14.40    3.80
   0  -7 -11   11.10    3.10
   0   7  11   15.50    4.30
  -1  -7 -11 1035.10   32.00
  -1  -7 -11 1074.49   34.70
  -1  -7 -11 1045.90   37.80
  -1  -7 -11 1072.39   39.40
   1   7  11 1006.50   36.40
   1   7  11 1049.59   36.80
  -2  -7 -11  208.78   14.50
  -2  -7 -11  216.68   14.10
  -2  -7 -11  208.88   10.70
   2   7  11  206.48   13.50
   2   7  11  228.48   13.00
  -3  -7 -11 1020.20   37.70
  -3  -7 -11  990.30   34.20
   3   7  11  931.11   35.90
  -4  -7 -11  670.83   27.00
  -4  -7 -11  612.84   27.50
   4   7  11  624.44   27.50
  -5  -7 -11  881.91   30.40
  -5  -7 -11  884.91   34.20
  -5  -7 -11  835.72   33.90
  -5  -7 -11  811.62   35.70
   5   7  11  842.82   34.00
  -6  -7 -11  468.65   24.00
  -6  -7 -11  484.25   23.70
  -6  -7 -11  438.16   25.00
  -6  -7 -11  460.05   19.40
   6   7  11  464.35   24.00
   0  -8 -11   43.10    7.60
   0  -8 -11   40.70    6.60
   0  -8 -11   42.10    6.10
   0   8  11   35.40    5.90
   0   8  11   45.70    6.20
  -1  -8 -11   39.40    5.20
  -1  -8 -11   28.70    7.10
  -1  -8 -11   53.99    5.00
  -1  -8 -11   46.00    8.00
   1   8  11   55.79    6.60
   1   8  11   40.00    6.20
  -2  -8 -11   15.10    3.90
  -2  -8 -11    7.80    2.80
  -2  -8 -11   12.10    3.60
   2   8  11    9.70    4.00
   2   8  11   10.20    2.90
   2   8  11   13.70    3.50
  -3  -8 -11   33.70    5.10
  -3  -8 -11   29.10    5.70
  -3  -8 -11   38.00    6.40
   3   8  11   41.60    5.50
   3   8  11   30.30    5.00
   3   8  11   47.80    6.90
  -4  -8 -11  322.87   17.50
  -4  -8 -11  306.57   17.40
  -4  -8 -11  383.76   25.50
   4   8  11  319.27   16.60
   4   8  11  327.07   16.40
   4   8  11  332.97   19.10
  -5  -8 -11   26.70    5.40
  -5  -8 -11   19.50    4.80
  -5  -8 -11   27.40    5.90
  -5  -8 -11   13.70    3.70
   5   8  11   18.80    5.70
  -2  -9 -11 1433.46   51.09
  -2  -9 -11 1386.66   43.90
   3   4 -12   90.29    8.50
  -3  -4  12  104.89    6.30
  -3  -4  12   94.99    9.80
   2   4 -12  461.85   17.90
   2   4 -12  463.15   20.20
   2   4 -12  449.56   22.50
  -2  -4  12  470.85   17.40
  -2  -4  12  462.95   24.90
   1   4 -12    6.70    2.50
   1   4 -12    5.80    3.00
   1   4 -12   14.20    3.00
  -1  -4  12    6.70    4.30
  -1  -4  12    3.90    2.00
   0   4 -12  341.87   15.70
   0   4 -12  324.67   18.50
   0   4 -12  329.87   14.30
   0  -4  12  342.47   20.80
   0  -4  12  348.87   15.40
  -1   4 -12   49.80    5.80
  -1   4 -12   35.60    3.80
  -1   4 -12   39.40    6.60
   1  -4  12   54.29    7.90
   1  -4  12   35.10    5.10
  -2   4 -12  337.47   16.50
  -2   4 -12  321.87   16.70
  -2   4 -12  283.77   17.00
   2  -4  12  324.97   16.20
   2  -4  12  313.57   20.90
   3   3 -12 1484.15   49.00
   3   3 -12 1474.75   46.70
   3   3 -12 1420.06   52.39
  -3  -3  12 1477.35   52.59
  -3  -3  12 1454.05   40.50
   2   3 -12  183.98   12.80
   2   3 -12  170.38   11.00
  -2  -3  12  164.18   13.50
  -2  -3  12  168.68    9.00
   1   3 -12 1694.43   49.60
   1   3 -12 1691.63   50.39
   1   3 -12 1720.53   54.49
  -1  -3  12 1685.23   49.10
  -1  -3  12 1734.63   58.19
   0   3 -12  415.86   21.00
   0   3 -12  404.96   17.90
   0   3 -12  374.66   15.30
   0  -3  12  387.26   31.00
   0  -3  12  369.86   16.30
  -1   3 -12 1251.87   53.19
  -1   3 -12 1395.36   43.40
  -1   3 -12 1356.06   37.30
   1  -3  12 1410.96   42.00
   1  -3  12 1274.37   58.39
  -2   3 -12  412.16   19.80
  -2   3 -12  439.56   21.60
   2  -3  12  423.26   18.90
   2  -3  12  438.56   20.40
   2  -3  12  433.26   23.40
  -3   3 -12  702.83   28.80
  -3   3 -12  701.63   25.10
  -3   3 -12  692.03   28.90
   3  -3  12  672.73   27.50
   3  -3  12  744.23   27.60
   3  -3  12  692.33   31.90
   4   2 -12   12.30    3.60
   4   2 -12    9.80    3.40
   4   2 -12    4.50    4.40
  -4  -2  12   15.60    3.60
  -4  -2  12   12.90    2.30
  -4  -2  12   12.00    2.50
   3   2 -12  109.09    8.90
   3   2 -12  123.39    9.90
   3   2 -12  115.29   11.50
  -3  -2  12  109.59    6.60
  -3  -2  12  111.39   11.00
   2   2 -12  147.79    9.80
   2   2 -12  143.69   12.80
   2   2 -12  165.58   12.80
  -2  -2  12  144.89    8.30
   1   2 -12   46.80    6.40
   1   2 -12   40.70    4.90
  -1  -2  12   43.60    6.50
  -1  -2  12   53.49    4.90
   0   2 -12  562.04   24.10
   0   2 -12  552.24   19.60
   0   2 -12  562.84   22.90
   0  -2  12  571.94   21.10
   0  -2  12  550.74   23.60
   0  -2  12  573.84   26.50
  -1   2 -12   29.40    3.20
  -1   2 -12   25.00    4.50
  -1   2 -12   35.90    5.40
   1  -2  12   26.80    4.30
   1  -2  12   27.20    5.50
   1  -2  12   33.30    5.10
  -2   2 -12  991.40   35.40
  -2   2 -12  950.00   35.30
   2  -2  12 1016.40   33.50
   2  -2  12  948.41   34.60
   2  -2  12 1012.00   38.40
  -3   2 -12   43.10    6.20
  -3   2 -12   57.39    7.40
  -3   2 -12   57.99    6.80
  -3   2 -12   56.29    5.20
   3  -2  12   49.00    6.20
   3  -2  12   65.79    8.30
   3  -2  12   64.19    6.80
  -4   2 -12 1188.48   42.00
  -4   2 -12 1058.49   32.00
  -4   2 -12 1087.09   40.80
  -4   2 -12 1033.20   41.00
   4  -2  12 1104.79   42.20
   4  -2  12 1073.09   37.20
   4  -2  12 1067.59   37.50
   4   1 -12 1565.54   50.39
   4   1 -12 1591.64   56.79
  -4  -1  12 1545.75   54.69
  -4  -1  12 1597.04   42.30
  -4  -1  12 1548.45   42.40
  -4  -1  12 1472.65   46.60
   3   1 -12   43.60    5.80
   3   1 -12   39.10    6.90
   3   1 -12   42.40    5.70
  -3  -1  12   42.70    7.00
  -3  -1  12   42.30    4.20
   2   1 -12 2122.99   67.19
   2   1 -12 2102.49   62.49
   2   1 -12 2120.59   62.79
  -2  -1  12 2030.00   65.99
  -2  -1  12 2167.58   57.59
   1   1 -12    6.90    2.90
   1   1 -12    3.50    1.30
  -1  -1  12    1.00    1.60
  -1  -1  12   -1.40    1.40
  -1  -1  12    0.60    1.30
   0   1 -12 1789.82   50.39
   0  -1  12 1816.82   55.59
   0  -1  12 1846.22   58.89
   0  -1  12 1922.51   61.79
  -1   1 -12   33.70    3.30
  -1   1 -12   22.00    4.50
   1  -1  12   31.50    4.50
   1  -1  12   26.40    5.20
   1  -1  12   25.60    4.20
  -2   1 -12  951.70   34.60
  -2   1 -12  909.01   33.70
   2  -1  12  893.01   35.10
   2  -1  12  936.91   33.30
   2  -1  12  971.10   31.90
  -3   1 -12   18.00    4.40
  -3   1 -12   16.90    4.10
  -3   1 -12   32.80    5.40
   3  -1  12   28.70    4.50
   3  -1  12   25.80    5.40
   3  -1  12   25.00    4.30
  -4   1 -12  232.48   15.60
  -4   1 -12  247.28   14.60
  -4   1 -12  225.88   14.70
  -4   1 -12  223.98    9.70
   4  -1  12  249.38   16.10
   4  -1  12  226.38   13.80
   4  -1  12  223.48   13.40
  -5   1 -12    1.70    2.60
  -5   1 -12    5.50    3.10
  -5   1 -12    4.80    3.50
   5  -1  12    4.50    2.30
   5  -1  12    4.00    2.60
   5  -1  12   -2.20    2.90
   4   0 -12   29.10    6.30
   4   0 -12   27.60    5.20
  -4   0  12   28.50    6.40
  -4   0  12   18.50    4.20
  -4   0  12   19.30    3.20
   3   0 -12  433.56   17.60
   3   0 -12  410.96   23.10
   3   0 -12  462.45   20.50
  -3   0  12  464.55   16.80
  -3   0  12  447.26   27.10
   2   0 -12   22.20    5.00
   2   0 -12   16.80    4.10
   2   0 -12   11.10    2.90
  -2   0  12   15.10    3.40
  -2   0  12   11.50    3.80
   1   0 -12 1076.09   39.60
   1   0 -12 1064.59   36.50
  -1   0  12 1055.19   36.10
  -1   0  12 1036.10   38.40
   0   0 -12   96.49    8.80
   0   0  12  126.99    9.30
   0   0  12  130.79   10.40
  -1   0 -12 1800.12   47.00
   1   0  12 1759.12   50.79
   1   0  12 1726.03   53.29
   1   0  12 1702.03   54.89
  -2   0 -12  131.09   10.60
  -2   0 -12  126.69    8.70
   2   0  12  128.99    9.60
   2   0  12  128.09    9.00
   2   0  12  113.59    9.80
  -3   0 -12 2059.59   60.49
  -3   0 -12 2017.30   64.09
  -3   0 -12 2101.39   62.69
   3   0  12 2157.18   60.79
   3   0  12 2067.79   61.69
   3   0  12 2123.19   63.59
  -4   0 -12   42.40    5.90
  -4   0 -12   44.30    3.70
  -4   0 -12   33.20    6.10
  -4   0 -12   43.30    6.20
   4   0  12   46.50    6.10
   4   0  12   44.30    6.40
   4   0  12   37.20    5.70
  -5   0 -12 1664.83   56.49
  -5   0 -12 1546.65   53.79
  -5   0 -12 1750.12   65.39
   5   0  12 1540.05   50.79
   5   0  12 1698.53   51.59
   5   0  12 1675.83   54.39
   4  -1 -12 1033.80   35.10
   4  -1 -12 1024.60   41.10
   4  -1 -12  997.70   32.00
  -4   1  12 1016.40   40.60
  -4   1  12  978.00   33.90
   3  -1 -12 1041.10   35.00
   3  -1 -12  994.50   39.40
   3  -1 -12  958.20   29.70
  -3   1  12 1007.20   31.00
  -3   1  12  988.50   51.29
   2  -1 -12 1099.09   31.80
   2  -1 -12 1174.58   42.60
   2  -1 -12 1129.69   37.90
   2  -1 -12 1121.69   37.90
  -2   1  12 1150.18   41.40
  -2   1  12 1151.08   38.10
   1  -1 -12  946.01   27.60
   1  -1 -12  998.20   34.80
   1  -1 -12 1010.90   34.60
   1  -1 -12  976.50   37.10
  -1   1  12 1030.20   34.60
  -1   1  12  999.90   36.50
   0  -1 -12  858.81   33.00
   0  -1 -12  841.82   30.90
   0   1  12  832.72   31.90
   0   1  12  893.41   31.30
  -1  -1 -12  579.24   19.00
  -1  -1 -12  580.44   20.10
   1   1  12  597.24   24.00
   1   1  12  571.74   24.30
  -2  -1 -12  606.74   20.60
  -2  -1 -12  607.14   18.90
  -2  -1 -12  555.44   25.30
   2   1  12  619.54   24.60
   2   1  12  586.74   24.50
  -3  -1 -12   97.49    8.90
  -3  -1 -12  105.19    9.90
  -3  -1 -12   90.19    7.10
   3   1  12   97.89    8.60
   3   1  12  101.99    8.20
   3   1  12  102.19    8.80
  -4  -1 -12  348.27   16.50
  -4  -1 -12  352.36   19.90
  -4  -1 -12  326.47   17.60
   4   1  12  360.16   18.00
   4   1  12  359.66   17.90
   4   1  12  355.06   17.20
  -5  -1 -12    7.20    3.00
  -5  -1 -12    9.50    3.30
  -5  -1 -12    9.20    4.00
   5   1  12    6.50    2.60
   5   1  12    4.30    2.40
   5   1  12    6.20    2.90
  -6  -1 -12  202.08   13.80
  -6  -1 -12  179.58   15.00
  -6  -1 -12  201.98   14.10
   6   1  12  185.38   12.80
   6   1  12  191.58   12.90
   6   1  12  192.88   13.40
   4  -2 -12  218.18   16.70
   4  -2 -12  221.38   12.70
   4  -2 -12  208.08   12.40
  -4   2  12  226.98   11.50
  -4   2  12  212.38   15.90
   3  -2 -12 1304.27   48.10
   3  -2 -12 1371.36   42.90
   3  -2 -12 1373.06   43.40
  -3   2  12 1333.37   42.70
  -3   2  12 1341.57   40.10
   2  -2 -12  397.76   18.40
   2  -2 -12  397.96   21.20
   2  -2 -12  425.46   19.40
  -2   2  12  405.46   16.50
  -2   2  12  387.26   18.20
  -2   2  12  405.76   20.90
   1  -2 -12 2057.59   61.49
   1  -2 -12 2091.39   60.79
   1  -2 -12 2092.49   64.39
  -1   2  12 2004.90   60.39
  -1   2  12 2118.49   63.49
   0  -2 -12  782.82   31.20
   0  -2 -12  813.72   30.10
   0  -2 -12  789.92   29.20
   0  -2 -12  771.12   27.30
   0   2  12  790.42   29.10
   0   2  12  784.92   30.00
  -1  -2 -12 2167.38   65.49
  -1  -2 -12 2218.88   64.89
  -1  -2 -12 2298.87   61.19
   1   2  12 2366.66   65.39
   1   2  12 2067.69   63.99
  -2  -2 -12  770.32   30.30
  -2  -2 -12  807.52   25.20
  -2  -2 -12  844.42   23.60
   2   2  12  783.62   29.20
   2   2  12  806.52   30.10
  -3  -2 -12 1360.66   39.10
  -3  -2 -12 1367.26   47.30
  -3  -2 -12 1349.27   35.80
   3   2  12 1362.66   43.30
   3   2  12 1371.46   44.30
  -4  -2 -12  722.83   25.30
  -4  -2 -12  695.03   30.60
  -4  -2 -12  728.73   28.90
   4   2  12  704.73   28.10
   4   2  12  724.53   27.10
  -5  -2 -12  522.35   21.90
  -5  -2 -12  539.65   27.70
  -5  -2 -12  527.95   26.50
   5   2  12  543.15   23.80
   5   2  12  504.65   22.30
   5   2  12  546.45   22.50
  -6  -2 -12  429.66   24.00
  -6  -2 -12  378.86   20.40
  -6  -2 -12  407.36   19.80
   6   2  12  396.26   19.90
   6   2  12  380.26   23.50
   6   2  12  383.76   18.70
   3  -3 -12  696.03   27.70
   3  -3 -12  748.03   27.50
   3  -3 -12  712.13   32.00
  -3   3  12  751.12   33.60
  -3   3  12  750.32   27.30
   2  -3 -12    1.40    1.50
   2  -3 -12    2.60    2.00
   2  -3 -12    6.40    2.70
  -2   3  12   -0.10    1.30
  -2   3  12   -1.00    1.60
  -2   3  12    0.80    1.80
   1  -3 -12  450.95   20.70
   1  -3 -12  462.15   22.10
   1  -3 -12  465.35   20.30
  -1   3  12  441.26   21.20
  -1   3  12  433.86   19.50
   0  -3 -12  134.29   10.00
   0  -3 -12  149.29   10.80
   0  -3 -12  154.28   13.80
   0  -3 -12  142.79    9.80
   0   3  12  160.18   10.80
   0   3  12  138.99   10.30
  -1  -3 -12  159.28   10.90
  -1  -3 -12  131.19   10.30
  -1  -3 -12  139.29    9.30
  -1  -3 -12  138.79   10.70
   1   3  12  151.28   10.30
   1   3  12  144.39   10.40
  -2  -3 -12  459.25   17.80
  -2  -3 -12  450.25   21.40
   2   3  12  486.45   22.20
   2   3  12  434.26   20.40
  -3  -3 -12   81.19    8.90
  -3  -3 -12   84.49    8.40
  -3  -3 -12   82.09    5.60
   3   3  12   87.49    8.20
   3   3  12   91.39    7.40
  -4  -3 -12  882.11   24.60
  -4  -3 -12  931.91   34.70
  -4  -3 -12  931.71   34.40
  -4  -3 -12  937.71   36.90
  -4  -3 -12  848.32   28.20
   4   3  12  938.91   31.10
   4   3  12  890.91   33.40
  -5  -3 -12   38.10    6.60
  -5  -3 -12   43.00    5.10
  -5  -3 -12   25.40    6.70
   5   3  12   30.40    5.40
   5   3  12   41.80    5.10
  -6  -3 -12  816.52   36.20
  -6  -3 -12  798.32   30.50
  -6  -3 -12  848.02   33.50
   6   3  12  860.71   32.70
   6   3  12  818.32   28.90
   6   3  12  819.22   31.10
   3  -4 -12   60.49    8.00
   3  -4 -12   53.39    6.30
   3  -4 -12   68.09    8.80
   3  -4 -12   62.99    6.90
  -3   4  12   48.90    5.80
  -3   4  12   56.79    6.30
  -3   4  12   55.79    8.00
   2  -4 -12 1634.84   55.39
   2  -4 -12 1735.83   54.29
   2  -4 -12 1698.93   51.09
   2  -4 -12 1706.63   53.19
  -2   4  12 1626.34   50.49
  -2   4  12 1688.33   49.80
  -2   4  12 1655.53   54.79
   1  -4 -12   32.80    5.10
   1  -4 -12   23.90    4.40
   1  -4 -12   37.40    5.90
  -1   4  12   29.90    4.70
  -1   4  12   30.80    5.20
  -1   4  12   35.00    4.60
   0  -4 -12 2058.79   58.89
   0  -4 -12 2016.70   60.29
   0  -4 -12 2006.60   60.39
   0  -4 -12 1923.21   57.79
   0   4  12 1815.72   57.79
   0   4  12 1919.41   58.19
  -1  -4 -12    9.20    3.30
  -1  -4 -12    3.60    2.30
  -1  -4 -12    4.10    2.30
  -1  -4 -12    4.30    2.00
   1   4  12    1.50    1.50
   1   4  12    6.20    2.30
  -2  -4 -12 1555.04   48.10
  -2  -4 -12 1489.95   44.50
  -2  -4 -12 1418.96   48.00
   2   4  12 1448.66   47.30
   2   4  12 1469.85   44.70
  -3  -4 -12   10.80    2.90
  -3  -4 -12    5.50    2.40
   3   4  12    4.10    2.00
   3   4  12   14.20    3.00
  -4  -4 -12  441.96   15.60
  -4  -4 -12  420.56   21.10
  -4  -4 -12  439.36   23.30
  -4  -4 -12  429.56   21.00
   4   4  12  417.26   17.10
   4   4  12  411.26   20.40
  -5  -4 -12   44.20    6.50
  -5  -4 -12   49.30    7.60
  -5  -4 -12   50.09    6.70
  -5  -4 -12   48.80    3.40
   5   4  12   43.40    6.50
   5   4  12   45.60    4.70
  -6  -4 -12   36.70    6.70
  -6  -4 -12   27.30    5.90
   6   4  12   21.80    5.70
   6   4  12   31.10    4.00
   2  -5 -12   20.10    4.40
   2  -5 -12   17.70    4.50
   2  -5 -12   23.90    5.50
   2  -5 -12   12.20    3.80
  -2   5  12   28.00    5.00
  -2   5  12   22.00    4.70
  -2   5  12   19.40    4.90
   1  -5 -12  113.29   10.00
   1  -5 -12  118.29    9.40
   1  -5 -12  107.59    9.70
   1  -5 -12  118.09   10.30
  -1   5  12  115.09    8.80
  -1   5  12  124.89    9.30
  -1   5  12  112.19    9.80
   0  -5 -12   31.30    4.90
   0  -5 -12   45.90    5.40
   0  -5 -12   19.40    4.40
   0   5  12   37.20    4.80
   0   5  12   38.20    5.10
   0   5  12   32.10    5.10
  -1  -5 -12  257.27   15.40
  -1  -5 -12  244.38   13.90
  -1  -5 -12  226.98   13.30
  -1  -5 -12  218.68   13.70
   1   5  12  232.18   13.30
   1   5  12  226.08   13.60
  -2  -5 -12  213.18   12.30
  -2  -5 -12  208.88   13.30
  -2  -5 -12  198.78   13.70
   2   5  12  214.08   13.50
   2   5  12  202.18   11.00
  -3  -5 -12  304.77   16.80
  -3  -5 -12  277.97   16.60
  -3  -5 -12  271.07   13.80
   3   5  12  282.87   16.10
   3   5  12  278.87   12.80
  -4  -5 -12  130.69   11.00
  -4  -5 -12  151.38   17.30
  -4  -5 -12  141.99   12.50
  -4  -5 -12  124.99    8.30
   4   5  12  122.19   10.60
   4   5  12  131.59    7.70
  -5  -5 -12  399.86   22.90
  -5  -5 -12  410.96   21.20
  -5  -5 -12  410.66   21.20
  -5  -5 -12  385.46   14.90
   5   5  12  400.66   14.80
   5   5  12  397.86   20.50
  -6  -5 -12   51.19    9.10
  -6  -5 -12   53.19    8.10
  -6  -5 -12   49.60    4.20
   6   5  12   41.90    3.90
   6   5  12   57.59   10.10
   2  -6 -12  497.75   23.80
   2  -6 -12  473.15   24.40
   2  -6 -12  493.75   24.30
   2  -6 -12  486.55   21.00
  -2   6  12  505.35   21.40
  -2   6  12  459.35   20.30
  -2   6  12  462.25   24.00
   1  -6 -12  974.60   36.60
   1  -6 -12  973.50   37.10
   1  -6 -12  951.50   34.10
  -1   6  12  970.30   36.20
  -1   6  12  970.30   38.10
  -1   6  12  971.70   34.10
   0  -6 -12  282.97   15.60
   0  -6 -12  265.47   16.00
   0  -6 -12  266.37   19.10
   0  -6 -12  259.97   16.30
   0   6  12  254.27   15.10
   0   6  12  276.17   15.20
   0   6  12  257.77   14.90
  -1  -6 -12  824.32   29.90
  -1  -6 -12  858.31   33.60
  -1  -6 -12  840.02   31.70
   1   6  12  819.72   30.30
   1   6  12  795.42   30.90
  -2  -6 -12   60.09    7.40
  -2  -6 -12   47.60    6.50
  -2  -6 -12   39.90    5.00
   2   6  12   41.60    6.10
   2   6  12   53.59    5.30
  -3  -6 -12  492.45   21.10
  -3  -6 -12  512.95   32.10
  -3  -6 -12  503.55   24.10
   3   6  12  508.85   23.50
   3   6  12  500.35   18.20
  -4  -6 -12    4.00    2.50
  -4  -6 -12    1.30    2.20
  -4  -6 -12    5.80    2.50
   4   6  12    8.00    3.20
   4   6  12    4.60    1.50
  -5  -6 -12   71.99    8.40
  -5  -6 -12   73.39    9.40
  -5  -6 -12   77.19    6.60
   5   6  12   74.59    8.70
   1  -7 -12  335.17   19.30
   1  -7 -12  296.07   17.40
   1  -7 -12  306.17   19.00
  -1   7  12  295.47   16.20
   0  -7 -12  257.57   17.00
   0  -7 -12  265.67   24.10
   0  -7 -12  222.18   13.90
   0   7  12  239.28   14.40
   0   7  12  229.78   14.00
  -1  -7 -12  517.05   26.00
  -1  -7 -12  514.15   21.60
  -1  -7 -12  515.45   24.10
   1   7  12  520.55   22.10
   1   7  12  523.45   23.70
  -2  -7 -12  392.16   19.40
  -2  -7 -12  380.26   20.80
  -2  -7 -12  376.36   16.20
   2   7  12  367.26   19.50
   2   7  12  393.16   18.50
   2   7  12  389.16   16.30
  -3  -7 -12  495.45   21.40
  -3  -7 -12  480.05   25.90
   3   7  12  514.55   24.10
  -4  -7 -12  370.66   19.10
  -4  -7 -12  358.96   26.80
   4   7  12  352.76   19.80
  -5  -7 -12  143.59   13.50
  -5  -7 -12  158.68   12.50
  -5  -7 -12  155.38   12.30
   5   7  12  135.79   11.80
  -1  -8 -12   91.09   10.10
  -1  -8 -12  105.89    8.40
  -1  -8 -12  103.39   10.80
   1   8  12   99.29    9.60
  -2  -8 -12    4.50    2.20
  -2  -8 -12    6.30    2.40
  -2  -8 -12    5.20    3.60
  -2  -8 -12    7.40    3.00
   2   8  12   13.30    4.20
  -3  -8 -12    7.20    2.70
  -3  -8 -12    0.80    1.60
  -3  -8 -12    2.20    2.70
   3   8  12   -0.40    2.00
   2   3 -13   25.50    4.70
  -2  -3  13   20.80    3.90
   1   3 -13  164.48   10.80
   1   3 -13  163.48   10.20
   1   3 -13  163.88   15.60
  -1  -3  13  182.68   10.30
  -1  -3  13  186.48   15.80
   0   3 -13   19.90    4.60
   0   3 -13   18.40    3.70
   0   3 -13   17.50    3.80
   0  -3  13   19.00    3.60
   0  -3  13   16.90    5.40
  -1   3 -13   17.10    3.90
  -1   3 -13   22.60    4.70
  -1   3 -13   14.30    2.80
   1  -3  13   19.60    5.10
   1  -3  13   13.50    3.50
  -2   3 -13   22.10    5.50
  -2   3 -13   28.50    5.30
   2  -3  13   25.10    6.00
   2  -3  13   28.40    5.10
   2  -3  13   28.70    7.80
   2   2 -13   20.90    4.50
   2   2 -13   24.00    5.40
  -2  -2  13   26.40    3.80
  -2  -2  13   32.30    6.30
   1   2 -13   99.69    7.50
   1   2 -13  104.09    9.80
  -1  -2  13   95.99   10.20
  -1  -2  13  107.69    7.60
   0   2 -13   40.70    6.30
   0   2 -13   39.60    5.50
   0   2 -13   41.60    4.50
   0  -2  13   37.40    5.90
   0  -2  13   50.09    7.60
   0  -2  13   36.10    4.60
  -1   2 -13  185.38   12.40
  -1   2 -13  177.68    8.40
  -1   2 -13  213.18   14.20
   1  -2  13  175.88   14.00
   1  -2  13  184.68   12.80
   1  -2  13  188.08   11.40
  -2   2 -13    6.80    2.90
  -2   2 -13    8.50    3.70
   2  -2  13    6.50    2.50
   2  -2  13   11.30    3.00
   2  -2  13   10.70    3.50
  -3   2 -13  187.38   13.50
  -3   2 -13  203.28   14.30
  -3   2 -13  184.78   10.50
  -3   2 -13  191.78   13.80
   3  -2  13  198.98   13.50
   3  -2  13  180.28   14.60
   3  -2  13  185.18   12.10
   3   1 -13    7.00    2.90
   3   1 -13    4.40    2.60
  -3  -1  13    5.30    2.20
   2   1 -13  104.79    8.70
   2   1 -13  105.59    9.70
   2   1 -13   86.59   10.30
  -2  -1  13   98.09   10.40
  -2  -1  13   98.39    7.00
   1   1 -13   46.80    6.80
   1   1 -13   55.09    5.80
  -1  -1  13   43.90    7.60
  -1  -1  13   54.89    5.50
  -1  -1  13   64.39    7.30
   0   1 -13   40.30    6.30
   0   1 -13   41.70    4.30
   0  -1  13   35.60    5.60
   0  -1  13   27.40    6.00
   0  -1  13   38.30    4.90
  -1   1 -13  105.69    9.60
  -1   1 -13  100.39    5.90
  -1   1 -13   95.89    8.90
   1  -1  13  108.99    9.50
   1  -1  13   99.79    8.00
   1  -1  13  100.19   10.10
  -2   1 -13   40.60    5.50
  -2   1 -13   34.80    6.00
  -2   1 -13   45.90    6.50
   2  -1  13   42.10    6.90
   2  -1  13   25.80    4.70
   2  -1  13   33.40    5.60
  -3   1 -13  152.78   11.80
  -3   1 -13  142.39   11.90
  -3   1 -13  145.49   11.10
   3  -1  13  148.39   12.60
   3  -1  13  155.78   11.60
   3  -1  13  162.38   11.00
  -4   1 -13  233.68   15.30
  -4   1 -13  207.58   14.80
  -4   1 -13  248.98   16.50
  -4   1 -13  227.38   10.00
   4  -1  13  263.77   15.40
   4  -1  13  234.78   17.80
   4  -1  13  234.48   16.30
   3   0 -13  100.79   10.70
   3   0 -13   91.29    9.00
  -3   0  13   92.39    6.80
  -3   0  13  108.89   11.20
   2   0 -13  251.07   19.40
   2   0 -13  230.78   16.50
   2   0 -13  215.98   11.00
  -2   0  13  254.27   14.70
  -2   0  13  235.48   16.20
   1   0 -13   32.00    5.90
   1   0 -13   35.30    6.80
  -1   0  13   39.40    6.60
  -1   0  13   40.20    6.00
   0   0 -13  570.14   24.60
   0   0 -13  583.14   20.50
   0   0  13  556.24   25.60
   0   0  13  545.05   24.00
  -1   0 -13   45.80    4.00
  -1   0 -13   40.50    5.90
  -1   0 -13   46.30    6.20
  -1   0 -13   41.90    4.30
   1   0  13   46.10    6.20
   1   0  13   57.19    7.10
   1   0  13   45.20    5.20
  -2   0 -13  362.96   27.10
  -2   0 -13  344.37   19.00
  -2   0 -13  361.36   16.20
   2   0  13  345.17   18.00
   2   0  13  361.06   17.00
   2   0  13  366.76   19.50
  -3   0 -13   12.40    3.30
  -3   0 -13   17.50    4.80
  -3   0 -13   17.40    5.40
   3   0  13   11.90    3.70
   3   0  13   14.40    3.70
   3   0  13    9.70    3.30
  -4   0 -13  138.39    7.10
  -4   0 -13  137.09   11.30
  -4   0 -13  131.49   12.00
  -4   0 -13  131.59   10.40
   4   0  13  139.89   11.10
   4   0  13  138.29   10.70
   4   0  13  132.59   11.10
   3  -1 -13   58.39    8.50
   3  -1 -13   49.40    5.00
   3  -1 -13   80.49    9.40
  -3   1  13   38.10    4.70
  -3   1  13   49.60    7.80
   2  -1 -13   58.19    8.50
   2  -1 -13   58.29    7.20
   2  -1 -13   60.39    4.50
  -2   1  13   65.39    9.50
  -2   1  13   87.09    8.40
   1  -1 -13    5.70    3.40
   1  -1 -13   14.40    4.00
  -1   1  13    7.80    2.80
  -1   1  13    9.40    3.40
   0  -1 -13  539.55   17.10
   0  -1 -13  571.44   24.00
   0   1  13  563.54   25.10
   0   1  13  544.15   23.50
  -1  -1 -13    4.90    1.60
  -1  -1 -13    0.20    1.50
  -1  -1 -13    4.20    1.70
   1   1  13    2.10    2.10
   1   1  13    0.80    1.50
  -2  -1 -13  888.11   26.10
  -2  -1 -13  870.61   27.70
  -2  -1 -13  935.81   34.00
  -2  -1 -13  876.81   25.20
  -2  -1 -13  866.31   34.60
   2   1  13  920.41   34.00
   2   1  13  864.91   32.60
  -3  -1 -13  170.88   13.20
  -3  -1 -13  161.68    9.70
  -3  -1 -13  145.39   13.90
   3   1  13  156.98   11.50
   3   1  13  160.28   10.90
   3   1  13  136.29   11.00
  -4  -1 -13 1045.90   34.70
  -4  -1 -13 1016.00   39.70
  -4  -1 -13 1028.70   37.70
   4   1  13  945.81   36.00
   4   1  13 1040.50   37.20
   4   1  13 1001.20   35.40
  -5  -1 -13  334.87   20.80
  -5  -1 -13  346.77   17.70
  -5  -1 -13  325.07   18.30
   5   1  13  319.67   17.70
   5   1  13  378.16   18.60
   5   1  13  312.77   17.70
   3  -2 -13    1.50    2.10
   3  -2 -13    2.70    2.10
   3  -2 -13   -1.00    0.90
  -3   2  13    2.40    2.30
  -3   2  13    0.30    2.00
   2  -2 -13  273.97   15.40
   2  -2 -13  290.17   15.70
   2  -2 -13  269.57   17.90
  -2   2  13  260.67   14.80
   1  -2 -13    2.70    2.50
   1  -2 -13    4.10    1.90
   1  -2 -13   -2.10    1.00
  -1   2  13   -0.20    1.40
  -1   2  13    1.30    1.50
   0  -2 -13  181.08   12.30
   0  -2 -13  193.08   11.40
   0  -2 -13  198.28   12.90
   0  -2 -13  203.58   13.90
   0   2  13  183.28   12.20
   0   2  13  197.58   13.20
  -1  -2 -13    5.70    2.10
  -1  -2 -13    2.90    2.20
  -1  -2 -13    1.00    1.50
   1   2  13    2.40    2.10
   1   2  13    4.10    2.30
  -2  -2 -13  182.18    7.60
  -2  -2 -13  189.88    9.40
  -2  -2 -13  182.28   12.70
   2   2  13  184.58   12.50
   2   2  13  175.78   12.00
  -3  -2 -13   36.50    6.10
  -3  -2 -13   24.30    7.00
  -3  -2 -13   36.10    4.00
   3   2  13   26.40    5.30
   3   2  13   48.20    6.00
  -4  -2 -13  116.69    8.20
  -4  -2 -13  119.69   10.40
  -4  -2 -13  118.69   11.40
   4   2  13  103.19    9.10
   4   2  13  115.69   10.10
  -5  -2 -13  162.98   10.90
  -5  -2 -13  159.78   12.80
  -5  -2 -13  160.18   13.90
   5   2  13  156.78   11.20
   5   2  13  194.88   16.40
   5   2  13  164.18   12.30
   2  -3 -13  197.28   13.40
   2  -3 -13  222.08   13.50
   2  -3 -13  219.18   15.90
  -2   3  13  212.98   11.90
  -2   3  13  212.48   12.90
   1  -3 -13  301.97   18.30
   1  -3 -13  346.67   17.90
   1  -3 -13  346.57   17.50
  -1   3  13  320.97   16.60
  -1   3  13  295.57   17.50
   0  -3 -13  140.19   10.50
   0  -3 -13  131.89   10.50
   0  -3 -13  136.59    9.70
   0  -3 -13  114.59   10.40
   0   3  13  127.69    9.90
   0   3  13  113.79    9.90
  -1  -3 -13 1053.09   38.00
  -1  -3 -13 1010.00   36.50
  -1  -3 -13 1045.70   34.50
   1   3  13 1032.40   36.50
   1   3  13 1025.60   36.50
  -2  -3 -13   62.69    7.10
  -2  -3 -13   56.59    6.80
  -2  -3 -13   67.19    6.00
   2   3  13   56.99    6.40
   2   3  13   66.49    7.40
  -3  -3 -13 1255.27   48.50
  -3  -3 -13 1271.47   36.10
  -3  -3 -13 1211.48   45.90
  -3  -3 -13 1285.27   44.40
   3   3  13 1344.27   44.10
   3   3  13 1260.27   40.80
  -4  -3 -13    6.30    3.00
  -4  -3 -13    7.30    3.30
  -4  -3 -13    3.30    1.70
   4   3  13   -1.10    1.20
   4   3  13   -0.10    2.40
  -5  -3 -13 1192.38   42.70
  -5  -3 -13 1215.78   46.30
  -5  -3 -13 1155.68   37.30
   5   3  13 1196.48   42.20
   5   3  13 1169.68   38.60
   2  -4 -13   11.00    3.00
   2  -4 -13   12.80    3.70
   2  -4 -13   16.90    5.60
   2  -4 -13   14.40    3.70
  -2   4  13   12.30    3.50
  -2   4  13   24.90    4.70
  -2   4  13   18.80    5.30
   1  -4 -13   33.00    5.90
   1  -4 -13   38.30    6.40
   1  -4 -13   41.00    5.80
   1  -4 -13   28.20    5.10
  -1   4  13   30.10    4.70
  -1   4  13   40.70    6.20
  -1   4  13   37.10    5.80
   0  -4 -13    4.50    2.10
   0  -4 -13   -1.40    1.60
   0  -4 -13    3.50    2.20
   0   4  13   -0.20    1.50
   0   4  13   -4.20    1.70
  -1  -4 -13   12.50    3.50
  -1  -4 -13    7.60    2.20
  -1  -4 -13    5.30    2.10
   1   4  13    3.30    1.50
   1   4  13    4.30    2.10
  -2  -4 -13   40.30    5.10
  -2  -4 -13   36.50    6.60
  -2  -4 -13   38.70    5.70
   2   4  13   40.10    6.30
   2   4  13   44.10    5.50
  -3  -4 -13   61.79    7.70
  -3  -4 -13   66.49    8.00
  -3  -4 -13   44.80    5.20
   3   4  13   53.69    7.00
   3   4  13   60.79    6.90
  -4  -4 -13  324.37   12.50
  -4  -4 -13  351.46   18.90
  -4  -4 -13  324.57   18.50
  -4  -4 -13  311.97   19.90
   4   4  13  299.67   17.60
   4   4  13  314.47   14.90
  -5  -4 -13  123.09   11.40
  -5  -4 -13  114.09   11.90
   5   4  13  126.29   11.60
   5   4  13  118.69    8.30
   1  -5 -13  313.07   17.90
   1  -5 -13  306.77   18.10
   1  -5 -13  314.67   17.90
   1  -5 -13  308.37   16.80
  -1   5  13  313.67   16.60
  -1   5  13  304.77   19.70
  -1   5  13  336.37   18.30
   0  -5 -13  354.96   19.30
   0  -5 -13  355.96   18.60
   0  -5 -13  404.96   20.60
   0  -5 -13  374.16   18.90
   0   5  13  387.16   19.30
   0   5  13  336.77   18.10
  -1  -5 -13  318.67   18.40
  -1  -5 -13  331.87   17.20
  -1  -5 -13  354.06   18.80
   1   5  13  326.97   17.80
   1   5  13  316.57   16.30
  -2  -5 -13  640.44   24.90
  -2  -5 -13  657.43   28.40
  -2  -5 -13  625.34   27.80
   2   5  13  595.94   23.60
   2   5  13  610.94   26.70
  -3  -5 -13  268.07   16.70
  -3  -5 -13  270.87   14.80
  -3  -5 -13  268.97   16.60
   3   5  13  267.67   16.30
   3   5  13  286.87   13.50
  -4  -5 -13  482.85   18.50
  -4  -5 -13  526.05   24.50
  -4  -5 -13  412.96   24.30
   4   5  13  483.45   23.40
   4   5  13  503.45   18.80
  -5  -5 -13  167.48   12.90
  -5  -5 -13  140.39    7.60
  -5  -5 -13  149.99   13.60
   5   5  13  135.09   12.30
   5   5  13  134.69    8.10
   0  -6 -13   18.70    6.00
   0  -6 -13   34.90    5.80
   0  -6 -13   32.60    5.60
   0   6  13   29.40    5.40
   0   6  13   17.80    4.40
   0   6  13   24.00    5.40
  -1  -6 -13  107.09   10.00
  -1  -6 -13  126.39    9.60
  -1  -6 -13  124.49   14.70
  -1  -6 -13  124.39   10.70
   1   6  13  143.69   11.20
   1   6  13  123.89    9.60
   1   6  13  117.29    9.30
  -2  -6 -13  267.87   16.60
   2   6  13  295.77   17.10
   2   6  13  312.67   14.90
  -3  -6 -13  287.37   18.20
  -3  -6 -13  260.77   16.50
  -3  -6 -13  227.78   13.70
   3   6  13  269.27   12.60
   3   6  13  263.77   16.50
  -4  -6 -13  544.55   21.70
  -4  -6 -13  489.95   27.00
  -4  -6 -13  575.64   32.60
  -4  -6 -13  530.95   25.80
   4   6  13  544.15   18.80
   4   6  13  595.44   37.80
  -1  -7 -13   65.19    8.30
   1   7  13   71.49    7.10
  -2  -7 -13  717.63   31.20
  -2  -7 -13  664.83   28.20
   2   7  13  679.73   29.50
   2   7  13  706.93   25.30
  -3  -7 -13   28.90    5.20
  -3  -7 -13   34.30    6.20
   3   7  13   13.50    5.90
   3   7  13   25.40    3.70
   1   1 -14  195.58   11.60
  -1  -1  14  139.29   15.30
  -1  -1  14  186.78   15.10
  -1  -1  14  186.98   10.80
   0   1 -14  438.46   26.30
   0   1 -14  389.56   15.90
   0   1 -14  370.86   19.60
   0  -1  14  437.46   27.20
   0  -1  14  368.86   17.10
   0  -1  14  384.76   21.90
  -1   1 -14    1.70    2.00
  -1   1 -14   -3.90    2.80
  -1   1 -14    3.20    1.50
  -1   1 -14    2.50    1.00
   1  -1  14   -3.40    2.10
   1  -1  14    0.90    2.80
   1  -1  14    4.20    2.70
  -2   1 -14  402.06   19.30
  -2   1 -14  436.06   21.90
   2  -1  14  383.26   22.30
   2  -1  14  397.46   22.30
   2  -1  14  366.16   18.30
   1   0 -14 1152.58   37.90
   1   0 -14 1197.48   42.30
  -1   0  14 1235.08   45.40
  -1   0  14 1201.98   37.90
  -1   0  14 1219.08   42.00
   0   0 -14  650.13   28.10
   0   0 -14  652.83   23.30
   0   0  14  700.63   25.50
   0   0  14  682.33   28.10
   0   0  14  687.63   30.30
  -1   0 -14  675.03   22.00
  -1   0 -14  694.33   23.00
  -1   0 -14  739.43   30.30
  -1   0 -14  697.73   24.30
  -1   0 -14  674.13   28.70
   1   0  14  671.53   26.00
   1   0  14  694.33   41.80
   1   0  14  683.43   28.40
  -2   0 -14  609.94   27.00
  -2   0 -14  616.04   28.00
  -2   0 -14  616.94   23.30
   2   0  14  601.74   26.60
   2   0  14  627.14   36.70
   2   0  14  643.84   25.20
  -3   0 -14  326.97   16.40
  -3   0 -14  356.76   20.30
   3   0  14  319.17   27.10
   3   0  14  324.07   17.10
   3   0  14  293.77   24.40
   2  -1 -14   92.59    9.20
   2  -1 -14  104.29   11.50
  -2   1  14  102.29   10.80
   1  -1 -14   27.80    5.70
   1  -1 -14   23.40    5.90
  -1   1  14   22.40    5.50
  -1   1  14   30.60    5.90
   0  -1 -14  295.17   17.10
   0  -1 -14  308.77   15.00
   0   1  14  302.77   17.20
   0   1  14  331.57   21.40
  -1  -1 -14  102.39    9.60
  -1  -1 -14   94.19    7.00
  -1  -1 -14   86.59    5.50
   1   1  14   91.99    9.30
   1   1  14   96.69    9.30
  -2  -1 -14  722.63   23.60
  -2  -1 -14  701.93   21.00
  -2  -1 -14  737.93   31.60
  -2  -1 -14  688.23   21.80
  -2  -1 -14  696.73   29.20
   2   1  14  723.43   27.40
   2   1  14  690.33   29.00
   2   1  14  731.33   30.10
  -3  -1 -14   95.79    9.70
  -3  -1 -14  100.69   10.60
  -3  -1 -14   89.69    7.10
   3   1  14   85.59    8.10
   3   1  14   92.49    9.20
   3   1  14  105.39    9.70
   1  -2 -14  102.39   10.90
   1  -2 -14  102.69    9.50
   1  -2 -14  103.69    9.60
  -1   2  14   84.79    9.60
  -1   2  14  102.49    9.40
   0  -2 -14 1023.40   37.30
   0  -2 -14 1047.70   38.20
   0  -2 -14  996.00   39.20
   0  -2 -14 1004.20   34.20
   0   2  14 1012.40   36.90
   0   2  14 1005.50   38.20
  -1  -2 -14   93.29    9.30
  -1  -2 -14   78.59    6.90
   1   2  14   88.99    9.10
   1   2  14   81.49    8.60
  -2  -2 -14  354.56   14.40
  -2  -2 -14  341.77   18.90
   2   2  14  348.17   18.40
   2   2  14  357.66   19.00
  -3  -2 -14   83.79    5.90
  -3  -2 -14   90.49    9.50
  -3  -2 -14   84.89    9.80
   3   2  14   84.89    8.90
   3   2  14   99.99    9.20
  -4  -2 -14   91.69    7.20
  -4  -2 -14   97.29   10.90
   4   2  14   94.99    9.10
   4   2  14  104.09    9.40
   4   2  14  113.49   10.80
   1  -3 -14  705.03   29.50
   1  -3 -14  675.83   28.50
   1  -3 -14  682.53   28.00
   1  -3 -14  705.93   31.50
  -1   3  14  747.03   29.30
  -1   3  14  725.23   34.70
   0  -3 -14   -0.10    1.70
   0  -3 -14    1.30    2.20
   0  -3 -14   -2.10    1.30
   0   3  14    2.00    2.10
   0   3  14   -0.20    1.70
  -1  -3 -14  878.91   34.90
  -1  -3 -14  908.61   31.20
  -1  -3 -14  898.21   34.20
   1   3  14  870.51   33.70
   1   3  14  910.01   34.00
  -2  -3 -14   20.40    5.00
  -2  -3 -14   27.50    4.40
  -2  -3 -14   21.30    5.60
   2   3  14   17.60    4.60
   2   3  14   15.50    4.20
  -3  -3 -14 1110.19   43.20
  -3  -3 -14 1081.49   31.70
  -3  -3 -14 1102.09   40.40
   3   3  14 1104.49   37.80
   3   3  14 1073.29   39.80
  -4  -3 -14   36.50    6.90
   4   3  14   22.30    5.20
   4   3  14   38.20    5.10
   0  -4 -14   12.40    4.20
   0  -4 -14   14.50    4.10
   0  -4 -14   14.50    4.20
   0  -4 -14    7.10    3.50
   0   4  14   21.80    4.80
   0   4  14   14.00    4.20
  -1  -4 -14  426.66   21.30
  -1  -4 -14  504.85   31.70
   1   4  14  453.05   21.90
   1   4  14  410.06   20.40
  -2  -4 -14   17.10    4.80
  -2  -4 -14   19.50    4.30
  -2  -4 -14    9.50    3.50
   2   4  14   17.20    4.10
   2   4  14   10.00    3.10
  -3  -4 -14   87.59    6.30
  -3  -4 -14   82.09    9.00
  -3  -4 -14   72.99    9.50
   3   4  14   90.69   10.60
   3   4  14   74.99    7.40
  -4  -4 -14    2.50    2.80
   4   4  14    2.10    2.10
  -1  -5 -14  494.85   24.40
  -1  -5 -14  443.56   21.70
  -1  -5 -14  448.06   22.70
  -1  -5 -14  480.75   21.90
   1   5  14  442.86   20.90
   1   5  14  470.45   22.80
  -2  -5 -14  810.42   32.40
  -2  -5 -14  772.12   32.70
   2   5  14  792.32   29.10
   2   5  14  742.33   31.60
  -3  -5 -14  142.99   12.50
  -3  -5 -14  161.48   10.10
   3   5  14  153.08   13.10
   3   5  14  163.38   10.40
   0   0   0    0.00    0.00
_computing_structure_solution     'SHELXT 2014/5 (Sheldrick, 2014)'
;
_shelx_hkl_checksum              37034
_shelx_res_file
;
TITL mo_D8_4093_18Feb20_AJP3_0m_a.res in P-1
    mo_d8_4093_18feb20_ajp3_0m_a.res
    created by SHELXL-2016/6 at 09:54:03 on 25-Jun-2021
REM Old TITL mo_D8_4093_18Feb20_AJP3_0m in P-1
REM SHELXT solution in P-1
REM R1 0.046, Rweak 0.006, Alpha 0.029, Orientation as input
REM Formula found by SHELXT: C10 F3 I3 N S
REM #####
CELL 0.71073 7.5014 9.1065 11.8534 79.871 83.011 74.41
ZERR 2 0.0006 0.0008 0.001 0.003 0.003 0.003
LATT 1
SFAC C H F I N S
UNIT 18 16 6 6 4 2
EQIV $1 +X,1+Y,+Z
EQIV $2 -X,2-Y,2-Z
EQIV $3 1-X,2-Y,1-Z
L.S. 10
PLAN  5
SIZE 0.112 0.155 0.155
TEMP -173.16
CONF
HTAB N2 I1_$1
HTAB N1 S1_$2
HTAB C9 I2_$3
HTAB C9 F1
HTAB C8 F2_$3
BOND $H
LIST 6
MORE -1
fmap 2
acta
REM <olex2.extras>
REM <HklSrc "%.\\mo_D8_4093_18Feb20_AJP3_0m_a.hkl">
REM </olex2.extras>
WGHT    0.002700    0.503600
FVAR       0.45769
I1    4    0.757250    0.319978    0.816110    11.00000    0.01697    0.01593 =
         0.01194   -0.00015   -0.00179   -0.00672
I2    4    0.795147    0.878670    0.459867    11.00000    0.01838    0.00930 =
         0.02090   -0.00125   -0.00109   -0.00306
I3    4    0.729644    0.297660    0.308566    11.00000    0.01542    0.01303 =
         0.01307   -0.00268   -0.00170   -0.00442
F1    3    0.798447    0.651464    0.697557    11.00000    0.02219    0.01493 =
         0.01606   -0.00516   -0.00263   -0.00597
F2    3    0.758360    0.638525    0.307963    11.00000    0.02973    0.01515 =
         0.01230    0.00158   -0.00265   -0.00693
F3    3    0.706830    0.211272    0.583169    11.00000    0.02466    0.01266 =
         0.01682    0.00030   -0.00249   -0.00959
C1    1    0.755126    0.427732    0.644477    11.00000    0.01106    0.01439 =
         0.01310   -0.00084   -0.00085   -0.00307
C2    1    0.776499    0.576304    0.614029    11.00000    0.01191    0.01378 =
         0.01445   -0.00491   -0.00149   -0.00187
C3    1    0.775014    0.651572    0.501972    11.00000    0.01226    0.00942 =
         0.01851   -0.00152   -0.00030   -0.00278
C4    1    0.757060    0.569462    0.418072    11.00000    0.01298    0.01349 =
         0.01182    0.00108   -0.00112   -0.00255
C5    1    0.737911    0.419646    0.441875    11.00000    0.01243    0.01201 =
         0.01421   -0.00350   -0.00186   -0.00268
C6    1    0.733535    0.353907    0.556216    11.00000    0.01228    0.01030 =
         0.01657   -0.00045   -0.00095   -0.00335
S1    6    0.246197    0.853281    0.919000    11.00000    0.01900    0.01626 =
         0.01342   -0.00306    0.00163   -0.00835
N2    5    0.447586    1.058559    0.851836    11.00000    0.01663    0.01384 =
         0.01726   -0.00243    0.00099   -0.00615
H1N1  2    0.459115    1.144121    0.848924    11.00000    0.01985
N1    5    0.192359    1.131209    0.975498    11.00000    0.01500    0.01866 =
         0.01681   -0.00444    0.00148   -0.00625
H1N2  2    0.099417    1.113242    1.004140    11.00000    0.01883
C9    1    0.578000    0.957978    0.779478    11.00000    0.01601    0.02042 =
         0.01482   -0.00313    0.00250   -0.00583
AFIX 137
H7A   2    0.535590    0.978718    0.701895    11.00000   -1.50000
H7B   2    0.585126    0.850100    0.812051    11.00000   -1.50000
H7C   2    0.701019    0.977451    0.775811    11.00000   -1.50000
AFIX   0
C7    1    0.299172    1.026786    0.914260    11.00000    0.01467    0.01797 =
         0.01027   -0.00004   -0.00445   -0.00430
C8    1    0.219255    1.282737    0.977877    11.00000    0.02387    0.01693 =
         0.01975   -0.00547   -0.00113   -0.00607
AFIX 137
H9A   2    0.199510    1.345672    0.902228    11.00000   -1.50000
H9B   2    0.346003    1.272022    0.997090    11.00000   -1.50000
H9C   2    0.130395    1.332740    1.035916    11.00000   -1.50000
AFIX   0
HKLF 4
REM  mo_D8_4093_18Feb20_AJP3_0m_a.res in P-1
REM R1 =  0.0105 for    3075 Fo > 4sig(Fo)  and  0.0108 for all    3136 data
REM    173 parameters refined using      0 restraints
END
WGHT      0.0027      0.5036
REM Highest difference peak  0.312,  deepest hole -0.258,  1-sigma level  0.063
Q1    1   0.7382  0.3971  0.6014  11.00000  0.05    0.31
Q2    1   0.7649  0.3829  0.4962  11.00000  0.05    0.31
Q3    1   0.7841  0.6051  0.4553  11.00000  0.05    0.29
Q4    1   0.7799  0.4943  0.6262  11.00000  0.05    0.29
Q5    1   0.8245  0.5967  0.5476  11.00000  0.05    0.28
;
_shelx_res_checksum              44667
loop_
_space_group_symop_operation_xyz
'x, y, z'
'-x, -y, -z'
loop_
_atom_site_type_symbol
_atom_site_label
_atom_site_fract_x
_atom_site_fract_y
_atom_site_fract_z
_atom_site_U_iso_or_equiv
_atom_site_adp_type
_atom_site_calc_flag
_atom_site_occupancy
_atom_site_disorder_assembly
_atom_site_disorder_group
I I1 0.75725(2) 0.31998(2) 0.81611(2) 0.01463(3) Uani d 1 . .
I I2 0.79515(2) 0.87867(2) 0.45987(2) 0.01644(3) Uani d 1 . .
I I3 0.72964(2) 0.29766(2) 0.30857(2) 0.01354(3) Uani d 1 . .
F F1 0.79845(14) 0.65146(12) 0.69756(9) 0.0170(2) Uani d 1 . .
F F2 0.75836(15) 0.63852(12) 0.30796(9) 0.0192(2) Uani d 1 . .
F F3 0.70683(15) 0.21127(12) 0.58317(9) 0.0173(2) Uani d 1 . .
C C1 0.7551(2) 0.4277(2) 0.64448(15) 0.0130(3) Uani d 1 . .
C C2 0.7765(2) 0.5763(2) 0.61403(15) 0.0133(3) Uani d 1 . .
C C3 0.7750(2) 0.65157(19) 0.50197(15) 0.0135(3) Uani d 1 . .
C C4 0.7571(2) 0.5695(2) 0.41807(15) 0.0133(3) Uani d 1 . .
C C5 0.7379(2) 0.4196(2) 0.44187(15) 0.0127(3) Uani d 1 . .
C C6 0.7335(2) 0.35391(19) 0.55622(15) 0.0132(3) Uani d 1 . .
S S1 0.24620(6) 0.85328(5) 0.91900(4) 0.01561(9) Uani d 1 . .
N N2 0.4476(2) 1.05856(19) 0.85184(13) 0.0156(3) Uani d 1 . .
H H1N1 0.459(3) 1.144(3) 0.8489(19) 0.020(6) Uiso d 1 . .
N N1 0.1924(2) 1.13121(18) 0.97550(14) 0.0164(3) Uani d 1 . .
H H1N2 0.099(3) 1.113(3) 1.0041(19) 0.019(6) Uiso d 1 . .
C C9 0.5780(2) 0.9580(2) 0.77948(15) 0.0171(4) Uani d 1 . .
H H7A 0.535590 0.978718 0.701895 0.026 Uiso calc 1 . .
H H7B 0.585126 0.850100 0.812051 0.026 Uiso calc 1 . .
H H7C 0.701019 0.977451 0.775811 0.026 Uiso calc 1 . .
C C7 0.2992(2) 1.0268(2) 0.91426(15) 0.0142(3) Uani d 1 . .
C C8 0.2193(3) 1.2827(2) 0.97788(17) 0.0197(4) Uani d 1 . .
H H9A 0.199510 1.345672 0.902228 0.030 Uiso calc 1 . .
H H9B 0.346003 1.272022 0.997090 0.030 Uiso calc 1 . .
H H9C 0.130395 1.332740 1.035916 0.030 Uiso calc 1 . .
loop_
_atom_site_aniso_label
_atom_site_aniso_U_11
_atom_site_aniso_U_22
_atom_site_aniso_U_33
_atom_site_aniso_U_12
_atom_site_aniso_U_13
_atom_site_aniso_U_23
I1 0.01697(6) 0.01593(6) 0.01194(6) -0.00672(4) -0.00179(4) -0.00015(4)
I2 0.01838(6) 0.00930(6) 0.02090(6) -0.00306(4) -0.00109(4) -0.00125(4)
I3 0.01542(6) 0.01303(6) 0.01307(6) -0.00442(4) -0.00170(4) -0.00268(4)
F1 0.0222(5) 0.0149(5) 0.0161(5) -0.0060(4) -0.0026(4) -0.0052(4)
F2 0.0297(6) 0.0152(5) 0.0123(5) -0.0069(4) -0.0026(4) 0.0016(4)
F3 0.0247(6) 0.0127(5) 0.0168(5) -0.0096(4) -0.0025(4) 0.0003(4)
C1 0.0111(8) 0.0144(8) 0.0131(8) -0.0031(6) -0.0008(6) -0.0008(7)
C2 0.0119(8) 0.0138(8) 0.0145(8) -0.0019(6) -0.0015(6) -0.0049(7)
C3 0.0123(8) 0.0094(8) 0.0185(9) -0.0028(6) -0.0003(7) -0.0015(7)
C4 0.0130(8) 0.0135(8) 0.0118(8) -0.0026(6) -0.0011(6) 0.0011(6)
C5 0.0124(8) 0.0120(8) 0.0142(8) -0.0027(6) -0.0019(6) -0.0035(6)
C6 0.0123(8) 0.0103(8) 0.0166(9) -0.0033(6) -0.0009(7) -0.0005(7)
S1 0.0190(2) 0.0163(2) 0.0134(2) -0.00835(17) 0.00163(16) -0.00306(16)
N2 0.0166(8) 0.0138(8) 0.0173(8) -0.0062(6) 0.0010(6) -0.0024(6)
N1 0.0150(8) 0.0187(8) 0.0168(8) -0.0062(6) 0.0015(6) -0.0044(6)
C9 0.0160(9) 0.0204(9) 0.0148(9) -0.0058(7) 0.0025(7) -0.0031(7)
C7 0.0147(8) 0.0180(9) 0.0103(8) -0.0043(7) -0.0044(6) 0.0000(7)
C8 0.0239(10) 0.0169(9) 0.0198(9) -0.0061(7) -0.0011(7) -0.0055(7)
loop_
_atom_type_symbol
_atom_type_description
_atom_type_scat_dispersion_real
_atom_type_scat_dispersion_imag
_atom_type_scat_source
C C 0.0033 0.0016 'International Tables Vol C Tables 4.2.6.8 and 6.1.1.4'
H H 0.0000 0.0000 'International Tables Vol C Tables 4.2.6.8 and 6.1.1.4'
F F 0.0171 0.0103 'International Tables Vol C Tables 4.2.6.8 and 6.1.1.4'
I I -0.4742 1.8119 'International Tables Vol C Tables 4.2.6.8 and 6.1.1.4'
N N 0.0061 0.0033 'International Tables Vol C Tables 4.2.6.8 and 6.1.1.4'
S S 0.1246 0.1234 'International Tables Vol C Tables 4.2.6.8 and 6.1.1.4'
loop_
_geom_angle_atom_site_label_1
_geom_angle_atom_site_label_2
_geom_angle_atom_site_label_3
_geom_angle_site_symmetry_1
_geom_angle_site_symmetry_3
_geom_angle
_geom_angle_publ_flag
C2 C1 I1 . . 121.34(13) ?
C2 C1 C6 . . 116.81(16) ?
C6 C1 I1 . . 121.85(13) ?
F1 C2 C1 . . 118.46(15) ?
F1 C2 C3 . . 118.46(15) ?
C3 C2 C1 . . 123.08(16) ?
C2 C3 I2 . . 122.17(13) ?
C2 C3 C4 . . 116.88(16) ?
C4 C3 I2 . . 120.95(13) ?
F2 C4 C3 . . 118.33(15) ?
F2 C4 C5 . . 118.43(15) ?
C3 C4 C5 . . 123.24(16) ?
C4 C5 I3 . . 120.86(13) ?
C6 C5 I3 . . 122.43(12) ?
C6 C5 C4 . . 116.64(15) ?
F3 C6 C1 . . 118.35(15) ?
F3 C6 C5 . . 118.38(15) ?
C5 C6 C1 . . 123.27(16) ?
C9 N2 H1N1 . . 117.6(16) ?
C7 N2 H1N1 . . 116.3(16) ?
C7 N2 C9 . . 125.76(16) ?
C7 N1 H1N2 . . 115.5(16) ?
C7 N1 C8 . . 125.52(16) ?
C8 N1 H1N2 . . 118.2(17) ?
N2 C9 H7A . . 109.5 ?
N2 C9 H7B . . 109.5 ?
N2 C9 H7C . . 109.5 ?
H7A C9 H7B . . 109.5 ?
H7A C9 H7C . . 109.5 ?
H7B C9 H7C . . 109.5 ?
N2 C7 S1 . . 121.44(14) ?
N1 C7 S1 . . 119.86(14) ?
N1 C7 N2 . . 118.69(17) ?
N1 C8 H9A . . 109.5 ?
N1 C8 H9B . . 109.5 ?
N1 C8 H9C . . 109.5 ?
H9A C8 H9B . . 109.5 ?
H9A C8 H9C . . 109.5 ?
H9B C8 H9C . . 109.5 ?
loop_
_geom_bond_atom_site_label_1
_geom_bond_atom_site_label_2
_geom_bond_site_symmetry_2
_geom_bond_distance
_geom_bond_publ_flag
I1 C1 . 2.0975(17) ?
I2 C3 . 2.0821(17) ?
I3 C5 . 2.1007(17) ?
F1 C2 . 1.3470(19) ?
F2 C4 . 1.346(2) ?
F3 C6 . 1.3445(19) ?
C1 C2 . 1.385(2) ?
C1 C6 . 1.386(2) ?
C2 C3 . 1.383(2) ?
C3 C4 . 1.384(2) ?
C4 C5 . 1.386(2) ?
C5 C6 . 1.382(2) ?
S1 C7 . 1.7200(18) ?
N2 H1N1 . 0.80(2) ?
N2 C9 . 1.457(2) ?
N2 C7 . 1.330(2) ?
N1 H1N2 . 0.78(2) ?
N1 C7 . 1.328(2) ?
N1 C8 . 1.453(2) ?
C9 H7A . 0.9800 ?
C9 H7B . 0.9800 ?
C9 H7C . 0.9800 ?
C8 H9A . 0.9800 ?
C8 H9B . 0.9800 ?
C8 H9C . 0.9800 ?
loop_
_geom_hbond_atom_site_label_D
_geom_hbond_atom_site_label_H
_geom_hbond_atom_site_label_A
_geom_hbond_site_symmetry_A
_geom_hbond_distance_DH
_geom_hbond_distance_HA
_geom_hbond_distance_DA
_geom_hbond_angle_DHA
N2 H1N1 I1 1_565 0.80(2) 3.04(2) 3.6907(16) 140.8(19)
N1 H1N2 S1 2_577 0.78(2) 2.60(2) 3.3493(17) 162(2)
C9 H7A I2 2_676 0.98 3.17 4.0382(19) 148.1
C9 H7B F1 . 0.98 2.54 3.090(2) 115.4
C8 H9A F2 2_676 0.98 2.46 3.331(2) 148.3
loop_
_geom_torsion_atom_site_label_1
_geom_torsion_atom_site_label_2
_geom_torsion_atom_site_label_3
_geom_torsion_atom_site_label_4
_geom_torsion_site_symmetry_1
_geom_torsion_site_symmetry_2
_geom_torsion_site_symmetry_3
_geom_torsion_site_symmetry_4
_geom_torsion
_geom_torsion_publ_flag
I1 C1 C2 F1 . . . . -0.2(2) ?
I1 C1 C2 C3 . . . . -179.69(13) ?
I1 C1 C6 F3 . . . . 2.4(2) ?
I1 C1 C6 C5 . . . . -177.70(13) ?
I2 C3 C4 F2 . . . . 1.9(2) ?
I2 C3 C4 C5 . . . . -178.13(13) ?
I3 C5 C6 F3 . . . . -5.9(2) ?
I3 C5 C6 C1 . . . . 174.17(13) ?
F1 C2 C3 I2 . . . . -2.4(2) ?
F1 C2 C3 C4 . . . . 178.36(15) ?
F2 C4 C5 I3 . . . . 4.2(2) ?
F2 C4 C5 C6 . . . . -178.76(15) ?
C1 C2 C3 I2 . . . . 177.08(13) ?
C1 C2 C3 C4 . . . . -2.1(3) ?
C2 C1 C6 F3 . . . . -178.02(15) ?
C2 C1 C6 C5 . . . . 1.9(3) ?
C2 C3 C4 F2 . . . . -178.87(15) ?
C2 C3 C4 C5 . . . . 1.1(3) ?
C3 C4 C5 I3 . . . . -175.80(13) ?
C3 C4 C5 C6 . . . . 1.3(3) ?
C4 C5 C6 F3 . . . . 177.09(15) ?
C4 C5 C6 C1 . . . . -2.8(3) ?
C6 C1 C2 F1 . . . . -179.79(15) ?
C6 C1 C2 C3 . . . . 0.7(3) ?
C9 N2 C7 S1 . . . . 1.6(2) ?
C9 N2 C7 N1 . . . . -179.53(16) ?
C8 N1 C7 S1 . . . . -178.90(14) ?
C8 N1 C7 N2 . . . . 2.3(3) ?

_cod_database_fobs_code 2022444
