#------------------------------------------------------------------------------
#$Date: 2020-04-10 08:08:02 +0300 (Fri, 10 Apr 2020) $
#$Revision: 250595 $
#$URL: file:///home/coder/svn-repositories/cod/cif/2/02/20/2022016.cif $
#------------------------------------------------------------------------------
#
# This file is available in the Crystallography Open Database (COD),
# http://www.crystallography.net/. The original data for this entry
# were provided by IUCr Journals, http://journals.iucr.org/.
#
# The file may be used within the scientific community so long as
# proper attribution is given to the journal article from which the
# data were obtained.
#
data_2022016
loop_
_publ_author_name
'Jha, Kunal Kumar'
'Gruza, Barbara'
'Kumar, Prashant'
'Chodkiewicz, Michal Leszek'
'Dominiak, Paulina Maria'
_publ_section_title
;
 TAAM: a reliable and user friendly tool for hydrogen-atom location using
 routine X-ray diffraction data
;
_journal_issue                   3
_journal_name_full
'Acta Crystallographica Section B Structural Science, Crystal Engineering and Materials'
_journal_paper_doi               10.1107/S2052520620002917
_journal_volume                  76
_journal_year                    2020
_chemical_formula_moiety         'C9 H14 N2 O2 S'
_chemical_formula_sum            'C9 H14 N2 O2 S'
_chemical_formula_weight         214.29
_space_group_crystal_system      triclinic
_space_group_IT_number           2
_space_group_name_Hall           '-P 1'
_space_group_name_H-M_alt        'P -1'
_symmetry_Int_Tables_number      2
_audit_creation_date             2019-09-24
_audit_creation_method
;
Olex2 1.2
(compiled 2018.05.29 svn.r3508 for OlexSys, GUI svn.r5506)
;
_cell_angle_alpha                87.0550(10)
_cell_angle_beta                 70.5690(10)
_cell_angle_gamma                72.8980(10)
_cell_formula_units_Z            2
_cell_length_a                   7.2934(2)
_cell_length_b                   7.8145(2)
_cell_length_c                   10.2181(3)
_cell_measurement_temperature    110.00(10)
_cell_volume                     524.22(3)
_computing_molecular_graphics    'Olex2 (Dolomanov et al., 2009)'
_computing_publication_material  'Olex2 (Dolomanov et al., 2009)'
_computing_structure_refinement  'olex2.refine (Bourhis et al., 2015)'
_diffrn_ambient_temperature      110.00(10)
_diffrn_measured_fraction_theta_full 0.4132
_diffrn_measured_fraction_theta_max 0.4132
_diffrn_measurement_device_type
;
Bruker diffractometer with a SMART 6000 CCD detector
;
_diffrn_radiation_type           'Mo K\a'
_diffrn_radiation_wavelength     0.71073
_diffrn_reflns_av_R_equivalents  0.0000
_diffrn_reflns_av_unetI/netI     0.5649
_diffrn_reflns_limit_h_max       16
_diffrn_reflns_limit_h_min       -15
_diffrn_reflns_limit_k_max       18
_diffrn_reflns_limit_k_min       -17
_diffrn_reflns_limit_l_max       23
_diffrn_reflns_limit_l_min       0
_diffrn_reflns_number            9412
_diffrn_reflns_theta_full        26.4961
_diffrn_reflns_theta_max         26.50
_diffrn_reflns_theta_min         2.12
_exptl_absorpt_coefficient_mu    0.286
_exptl_crystal_density_diffrn    1.3575
_exptl_crystal_F_000             228.3434
_refine_diff_density_max         0.1875
_refine_diff_density_min         -0.2596
_refine_diff_density_rms         0.0548
_refine_ls_d_res_high            0.7965
_refine_ls_d_res_low             9.6233
_refine_ls_goodness_of_fit_ref   1.0767
_refine_ls_hydrogen_treatment    refall
_refine_ls_matrix_type           full
_refine_ls_number_constraints    0
_refine_ls_number_parameters     183
_refine_ls_number_reflns         893
_refine_ls_number_restraints     0
_refine_ls_restrained_S_all      1.0767
_refine_ls_R_factor_all          0.0256
_refine_ls_R_factor_gt           0.0256
_refine_ls_shift/su_max          0.1772
_refine_ls_shift/su_mean         0.0289
_refine_ls_structure_factor_coef Fsqd
_refine_ls_weighting_details
'w=1/[\s^2^(Fo^2^)+(0.0082P)^2^] where P=(Fo^2^+2Fc^2^)/3'
_refine_ls_weighting_scheme      calc
_refine_ls_wR_factor_gt          0.0190
_refine_ls_wR_factor_ref         0.0190
_reflns_Friedel_coverage         0.0
_reflns_limit_h_max              9
_reflns_limit_h_min              -8
_reflns_limit_k_max              9
_reflns_limit_k_min              -9
_reflns_limit_l_max              12
_reflns_limit_l_min              0
_reflns_number_gt                893
_reflns_number_total             893
_reflns_threshold_expression     I>=2u(I)
_iucr_refine_instructions_details
;
TITL ETHYL OLEX2: imported from CIF
CELL 0.71073 7.2934 7.8145 10.2181 87.055 70.569 72.898
ZERR 2 0 0 0 0 0 0
LATT 1
SFAC C H N O S
UNIT 18 28 4 4 2

L.S. 20
PLAN  20
BOND 
BOND $H
CONF 
fmap 2 53
acta 
OMIT -10 53
OMIT 4 0 0
OMIT 7 0 0
OMIT 8 0 0
OMIT 9 0 0
OMIT 11 0 0
OMIT 12 0 0
OMIT 13 0 0
OMIT 14 0 0
OMIT 15 0 0
OMIT -11 1 0
OMIT -10 1 0
OMIT -9 1 0
OMIT -7 1 0
OMIT -6 1 0
OMIT -4 1 0
OMIT -3 1 0
OMIT 5 1 0
OMIT 9 1 0
OMIT 12 1 0
OMIT 13 1 0
OMIT 14 1 0
OMIT 15 1 0
OMIT -13 2 0
OMIT -12 2 0
OMIT -11 2 0
OMIT -8 2 0
OMIT -7 2 0
OMIT -4 2 0
OMIT -3 2 0
OMIT 4 2 0
OMIT 5 2 0
OMIT 8 2 0
OMIT 9 2 0
OMIT 11 2 0
OMIT 12 2 0
OMIT 13 2 0
OMIT 14 2 0
OMIT -14 3 0
OMIT -12 3 0
OMIT -11 3 0
OMIT -9 3 0
OMIT -6 3 0
OMIT -4 3 0
OMIT -1 3 0
OMIT 5 3 0
OMIT 7 3 0
OMIT 8 3 0
OMIT 10 3 0
OMIT 11 3 0
OMIT 12 3 0
OMIT 13 3 0
OMIT 14 3 0
OMIT 15 3 0
OMIT -12 4 0
OMIT -11 4 0
OMIT -10 4 0
OMIT -9 4 0
OMIT -7 4 0
OMIT -6 4 0
OMIT -4 4 0
OMIT -3 4 0
OMIT -2 4 0
OMIT -1 4 0
OMIT 0 4 0
OMIT 2 4 0
OMIT 3 4 0
OMIT 8 4 0
OMIT 13 4 0
OMIT -13 5 0
OMIT -12 5 0
OMIT -11 5 0
OMIT -10 5 0
OMIT -9 5 0
OMIT -8 5 0
OMIT -6 5 0
OMIT -3 5 0
OMIT -1 5 0
OMIT 1 5 0
OMIT 2 5 0
OMIT 4 5 0
OMIT 5 5 0
OMIT 6 5 0
OMIT 8 5 0
OMIT 9 5 0
OMIT 11 5 0
OMIT 12 5 0
OMIT 14 5 0
OMIT 16 5 0
OMIT -10 6 0
OMIT -9 6 0
OMIT -8 6 0
OMIT -6 6 0
OMIT -5 6 0
OMIT -4 6 0
OMIT -3 6 0
OMIT -2 6 0
OMIT 0 6 0
OMIT 2 6 0
OMIT 8 6 0
OMIT 9 6 0
OMIT 10 6 0
OMIT 12 6 0
OMIT 14 6 0
OMIT -11 7 0
OMIT -10 7 0
OMIT -9 7 0
OMIT -8 7 0
OMIT -6 7 0
OMIT -2 7 0
OMIT -1 7 0
OMIT 1 7 0
OMIT 5 7 0
OMIT 7 7 0
OMIT 8 7 0
OMIT 9 7 0
OMIT 10 7 0
OMIT 11 7 0
OMIT 12 7 0
OMIT 14 7 0
OMIT -10 8 0
OMIT -9 8 0
OMIT -8 8 0
OMIT -7 8 0
OMIT -4 8 0
OMIT -3 8 0
OMIT 3 8 0
OMIT 5 8 0
OMIT 6 8 0
OMIT 7 8 0
OMIT 8 8 0
OMIT 10 8 0
OMIT 11 8 0
OMIT 12 8 0
OMIT 13 8 0
OMIT 14 8 0
OMIT 15 8 0
OMIT -10 9 0
OMIT -9 9 0
OMIT -8 9 0
OMIT -7 9 0
OMIT -6 9 0
OMIT -4 9 0
OMIT -3 9 0
OMIT -2 9 0
OMIT -1 9 0
OMIT 0 9 0
OMIT 2 9 0
OMIT 3 9 0
OMIT 5 9 0
OMIT 7 9 0
OMIT 8 9 0
OMIT 9 9 0
OMIT 10 9 0
OMIT 11 9 0
OMIT 12 9 0
OMIT 13 9 0
OMIT 14 9 0
OMIT 15 9 0
OMIT -9 10 0
OMIT -8 10 0
OMIT -7 10 0
OMIT -6 10 0
OMIT -5 10 0
OMIT -4 10 0
OMIT -3 10 0
OMIT -2 10 0
OMIT 1 10 0
OMIT 3 10 0
OMIT 4 10 0
OMIT 5 10 0
OMIT 6 10 0
OMIT 7 10 0
OMIT 8 10 0
OMIT 9 10 0
OMIT 10 10 0
OMIT 11 10 0
OMIT 12 10 0
OMIT 13 10 0
OMIT -7 11 0
OMIT -5 11 0
OMIT -4 11 0
OMIT -3 11 0
OMIT -1 11 0
OMIT 0 11 0
OMIT 1 11 0
OMIT 7 11 0
OMIT 10 11 0
OMIT 12 11 0
OMIT 14 11 0
OMIT -7 12 0
OMIT -5 12 0
OMIT -4 12 0
OMIT -1 12 0
OMIT 1 12 0
OMIT 3 12 0
OMIT 5 12 0
OMIT 6 12 0
OMIT 8 12 0
OMIT 11 12 0
OMIT 12 12 0
OMIT 13 12 0
OMIT -6 13 0
OMIT -5 13 0
OMIT -3 13 0
OMIT -2 13 0
OMIT -1 13 0
OMIT 0 13 0
OMIT 1 13 0
OMIT 4 13 0
OMIT 5 13 0
OMIT 6 13 0
OMIT 8 13 0
OMIT 11 13 0
OMIT 12 13 0
OMIT 13 13 0
OMIT -6 14 0
OMIT -5 14 0
OMIT -2 14 0
OMIT 0 14 0
OMIT 2 14 0
OMIT 3 14 0
OMIT 6 14 0
OMIT 7 14 0
OMIT 10 14 0
OMIT -2 15 0
OMIT 0 15 0
OMIT 3 15 0
OMIT 4 15 0
OMIT 5 15 0
OMIT 12 15 0
OMIT -3 16 0
OMIT 0 16 0
OMIT 3 16 0
OMIT 5 16 0
OMIT 10 16 0
OMIT 11 16 0
OMIT 1 17 0
OMIT 3 17 0
OMIT 6 17 0
OMIT 8 17 0
OMIT 5 18 0
OMIT -9 -17 1
OMIT -7 -17 1
OMIT -10 -16 1
OMIT -9 -16 1
OMIT -6 -16 1
OMIT -5 -16 1
OMIT -3 -16 1
OMIT -1 -16 1
OMIT -11 -15 1
OMIT -8 -15 1
OMIT -3 -15 1
OMIT -1 -15 1
OMIT 3 -15 1
OMIT -12 -14 1
OMIT -10 -14 1
OMIT -6 -14 1
OMIT -5 -14 1
OMIT -4 -14 1
OMIT -3 -14 1
OMIT 0 -14 1
OMIT 1 -14 1
OMIT 3 -14 1
OMIT 5 -14 1
OMIT -13 -13 1
OMIT -12 -13 1
OMIT -6 -13 1
OMIT -4 -13 1
OMIT -3 -13 1
OMIT -2 -13 1
OMIT 0 -13 1
OMIT 1 -13 1
OMIT 2 -13 1
OMIT 6 -13 1
OMIT -14 -12 1
OMIT -12 -12 1
OMIT -10 -12 1
OMIT -8 -12 1
OMIT -6 -12 1
OMIT -4 -12 1
OMIT -2 -12 1
OMIT -1 -12 1
OMIT 0 -12 1
OMIT 2 -12 1
OMIT 4 -12 1
OMIT 7 -12 1
OMIT 8 -12 1
OMIT -13 -11 1
OMIT -12 -11 1
OMIT -5 -11 1
OMIT -1 -11 1
OMIT 0 -11 1
OMIT 1 -11 1
OMIT 2 -11 1
OMIT 3 -11 1
OMIT 4 -11 1
OMIT 5 -11 1
OMIT -15 -10 1
OMIT -14 -10 1
OMIT -13 -10 1
OMIT -11 -10 1
OMIT -8 -10 1
OMIT -2 -10 1
OMIT -1 -10 1
OMIT 0 -10 1
OMIT 1 -10 1
OMIT 3 -10 1
OMIT 5 -10 1
OMIT 6 -10 1
OMIT 8 -10 1
OMIT -11 -9 1
OMIT -10 -9 1
OMIT -9 -9 1
OMIT -7 -9 1
OMIT -6 -9 1
OMIT -1 -9 1
OMIT 0 -9 1
OMIT 1 -9 1
OMIT 2 -9 1
OMIT 3 -9 1
OMIT 4 -9 1
OMIT 6 -9 1
OMIT 7 -9 1
OMIT 9 -9 1
OMIT 10 -9 1
OMIT -15 -8 1
OMIT -13 -8 1
OMIT -12 -8 1
OMIT -10 -8 1
OMIT -9 -8 1
OMIT -7 -8 1
OMIT -6 -8 1
OMIT -4 -8 1
OMIT -3 -8 1
OMIT -1 -8 1
OMIT 3 -8 1
OMIT 4 -8 1
OMIT 5 -8 1
OMIT 6 -8 1
OMIT 8 -8 1
OMIT 9 -8 1
OMIT 11 -8 1
OMIT -15 -7 1
OMIT -14 -7 1
OMIT -13 -7 1
OMIT -12 -7 1
OMIT -11 -7 1
OMIT -10 -7 1
OMIT -9 -7 1
OMIT -7 -7 1
OMIT -5 -7 1
OMIT -3 -7 1
OMIT 1 -7 1
OMIT 4 -7 1
OMIT 5 -7 1
OMIT 7 -7 1
OMIT 8 -7 1
OMIT 9 -7 1
OMIT 11 -7 1
OMIT 12 -7 1
OMIT -15 -6 1
OMIT -13 -6 1
OMIT -12 -6 1
OMIT -11 -6 1
OMIT -10 -6 1
OMIT -9 -6 1
OMIT -8 -6 1
OMIT -7 -6 1
OMIT 1 -6 1
OMIT 4 -6 1
OMIT 5 -6 1
OMIT 6 -6 1
OMIT 7 -6 1
OMIT 11 -6 1
OMIT 12 -6 1
OMIT -13 -5 1
OMIT -12 -5 1
OMIT -10 -5 1
OMIT -9 -5 1
OMIT -8 -5 1
OMIT -7 -5 1
OMIT -6 -5 1
OMIT -5 -5 1
OMIT 0 -5 1
OMIT 3 -5 1
OMIT 4 -5 1
OMIT 5 -5 1
OMIT 7 -5 1
OMIT 8 -5 1
OMIT 9 -5 1
OMIT -15 -4 1
OMIT -14 -4 1
OMIT -12 -4 1
OMIT -8 -4 1
OMIT -7 -4 1
OMIT -6 -4 1
OMIT -5 -4 1
OMIT -4 -4 1
OMIT -2 -4 1
OMIT -1 -4 1
OMIT 1 -4 1
OMIT 3 -4 1
OMIT 5 -4 1
OMIT 6 -4 1
OMIT 7 -4 1
OMIT 9 -4 1
OMIT 10 -4 1
OMIT 11 -4 1
OMIT 13 -4 1
OMIT -14 -3 1
OMIT -11 -3 1
OMIT -10 -3 1
OMIT -8 -3 1
OMIT -5 -3 1
OMIT -3 -3 1
OMIT -2 -3 1
OMIT 1 -3 1
OMIT 2 -3 1
OMIT 3 -3 1
OMIT 4 -3 1
OMIT 5 -3 1
OMIT 6 -3 1
OMIT 7 -3 1
OMIT 8 -3 1
OMIT 9 -3 1
OMIT 10 -3 1
OMIT 12 -3 1
OMIT 13 -3 1
OMIT -15 -2 1
OMIT -14 -2 1
OMIT -13 -2 1
OMIT -12 -2 1
OMIT -11 -2 1
OMIT -10 -2 1
OMIT -7 -2 1
OMIT -6 -2 1
OMIT -5 -2 1
OMIT 1 -2 1
OMIT 9 -2 1
OMIT 10 -2 1
OMIT 11 -2 1
OMIT 12 -2 1
OMIT -14 -1 1
OMIT -12 -1 1
OMIT -10 -1 1
OMIT -8 -1 1
OMIT -6 -1 1
OMIT 1 -1 1
OMIT 3 -1 1
OMIT 6 -1 1
OMIT 8 -1 1
OMIT 9 -1 1
OMIT 10 -1 1
OMIT 11 -1 1
OMIT 12 -1 1
OMIT -12 0 1
OMIT -11 0 1
OMIT -10 0 1
OMIT -8 0 1
OMIT -5 0 1
OMIT -4 0 1
OMIT 3 0 1
OMIT 7 0 1
OMIT 9 0 1
OMIT 13 0 1
OMIT 15 0 1
OMIT -14 1 1
OMIT -13 1 1
OMIT -11 1 1
OMIT -10 1 1
OMIT -9 1 1
OMIT -8 1 1
OMIT -7 1 1
OMIT -4 1 1
OMIT 1 1 1
OMIT 5 1 1
OMIT 6 1 1
OMIT 9 1 1
OMIT 10 1 1
OMIT 12 1 1
OMIT 13 1 1
OMIT 14 1 1
OMIT 15 1 1
OMIT -13 2 1
OMIT -8 2 1
OMIT -7 2 1
OMIT -6 2 1
OMIT -5 2 1
OMIT 3 2 1
OMIT 4 2 1
OMIT 5 2 1
OMIT 6 2 1
OMIT 7 2 1
OMIT 11 2 1
OMIT 13 2 1
OMIT 14 2 1
OMIT 15 2 1
OMIT -14 3 1
OMIT -13 3 1
OMIT -12 3 1
OMIT -11 3 1
OMIT -10 3 1
OMIT -8 3 1
OMIT -7 3 1
OMIT -5 3 1
OMIT -3 3 1
OMIT 2 3 1
OMIT 9 3 1
OMIT 10 3 1
OMIT 11 3 1
OMIT 13 3 1
OMIT 14 3 1
OMIT 15 3 1
OMIT 16 3 1
OMIT -13 4 1
OMIT -12 4 1
OMIT -11 4 1
OMIT -10 4 1
OMIT -8 4 1
OMIT -4 4 1
OMIT -3 4 1
OMIT 6 4 1
OMIT 9 4 1
OMIT 10 4 1
OMIT 11 4 1
OMIT 14 4 1
OMIT 16 4 1
OMIT -12 5 1
OMIT -11 5 1
OMIT -9 5 1
OMIT -8 5 1
OMIT -7 5 1
OMIT -6 5 1
OMIT -2 5 1
OMIT 0 5 1
OMIT 3 5 1
OMIT 4 5 1
OMIT 6 5 1
OMIT 7 5 1
OMIT 8 5 1
OMIT 12 5 1
OMIT 13 5 1
OMIT 16 5 1
OMIT -11 6 1
OMIT -10 6 1
OMIT -9 6 1
OMIT -8 6 1
OMIT -1 6 1
OMIT 2 6 1
OMIT 4 6 1
OMIT 5 6 1
OMIT 7 6 1
OMIT 9 6 1
OMIT 11 6 1
OMIT 12 6 1
OMIT 13 6 1
OMIT 15 6 1
OMIT 16 6 1
OMIT -10 7 1
OMIT -8 7 1
OMIT -7 7 1
OMIT -6 7 1
OMIT -5 7 1
OMIT -4 7 1
OMIT -3 7 1
OMIT -2 7 1
OMIT 0 7 1
OMIT 1 7 1
OMIT 3 7 1
OMIT 6 7 1
OMIT 8 7 1
OMIT 10 7 1
OMIT 11 7 1
OMIT 13 7 1
OMIT 15 7 1
OMIT 16 7 1
OMIT -10 8 1
OMIT -8 8 1
OMIT -6 8 1
OMIT -5 8 1
OMIT -4 8 1
OMIT -3 8 1
OMIT -2 8 1
OMIT 0 8 1
OMIT 1 8 1
OMIT 2 8 1
OMIT 3 8 1
OMIT 4 8 1
OMIT 5 8 1
OMIT 6 8 1
OMIT 7 8 1
OMIT 9 8 1
OMIT 10 8 1
OMIT 12 8 1
OMIT 13 8 1
OMIT 14 8 1
OMIT 16 8 1
OMIT -8 9 1
OMIT -7 9 1
OMIT -6 9 1
OMIT -5 9 1
OMIT -4 9 1
OMIT -3 9 1
OMIT -2 9 1
OMIT -1 9 1
OMIT 0 9 1
OMIT 2 9 1
OMIT 3 9 1
OMIT 7 9 1
OMIT 8 9 1
OMIT 11 9 1
OMIT 14 9 1
OMIT -9 10 1
OMIT -6 10 1
OMIT -4 10 1
OMIT -2 10 1
OMIT -1 10 1
OMIT 1 10 1
OMIT 2 10 1
OMIT 3 10 1
OMIT 5 10 1
OMIT 6 10 1
OMIT 7 10 1
OMIT 10 10 1
OMIT 11 10 1
OMIT 12 10 1
OMIT 14 10 1
OMIT 15 10 1
OMIT -9 11 1
OMIT -6 11 1
OMIT 0 11 1
OMIT 2 11 1
OMIT 3 11 1
OMIT 5 11 1
OMIT 6 11 1
OMIT 7 11 1
OMIT 8 11 1
OMIT 10 11 1
OMIT 11 11 1
OMIT 14 11 1
OMIT 15 11 1
OMIT -7 12 1
OMIT -5 12 1
OMIT -4 12 1
OMIT -2 12 1
OMIT -1 12 1
OMIT 1 12 1
OMIT 2 12 1
OMIT 3 12 1
OMIT 4 12 1
OMIT 5 12 1
OMIT 6 12 1
OMIT 7 12 1
OMIT 8 12 1
OMIT 9 12 1
OMIT 11 12 1
OMIT 12 12 1
OMIT 13 12 1
OMIT 14 12 1
OMIT -5 13 1
OMIT -4 13 1
OMIT -3 13 1
OMIT -1 13 1
OMIT 1 13 1
OMIT 4 13 1
OMIT 5 13 1
OMIT 7 13 1
OMIT 10 13 1
OMIT 13 13 1
OMIT 14 13 1
OMIT -5 14 1
OMIT -4 14 1
OMIT -2 14 1
OMIT 3 14 1
OMIT 5 14 1
OMIT 8 14 1
OMIT 9 14 1
OMIT 11 14 1
OMIT 12 14 1
OMIT 13 14 1
OMIT -2 15 1
OMIT -1 15 1
OMIT 2 15 1
OMIT 3 15 1
OMIT 4 15 1
OMIT 5 15 1
OMIT 8 15 1
OMIT 9 15 1
OMIT 11 15 1
OMIT 12 15 1
OMIT -2 16 1
OMIT 0 16 1
OMIT 2 16 1
OMIT 6 16 1
OMIT 8 16 1
OMIT 10 16 1
OMIT 0 17 1
OMIT 5 17 1
OMIT -8 -17 2
OMIT -5 -17 2
OMIT -4 -17 2
OMIT -10 -16 2
OMIT -9 -16 2
OMIT -8 -16 2
OMIT -4 -16 2
OMIT -1 -16 2
OMIT -10 -15 2
OMIT -9 -15 2
OMIT -5 -15 2
OMIT -3 -15 2
OMIT -2 -15 2
OMIT 1 -15 2
OMIT 2 -15 2
OMIT 4 -15 2
OMIT -10 -14 2
OMIT -6 -14 2
OMIT -5 -14 2
OMIT -2 -14 2
OMIT 1 -14 2
OMIT 4 -14 2
OMIT 5 -14 2
OMIT 6 -14 2
OMIT -13 -13 2
OMIT -11 -13 2
OMIT -8 -13 2
OMIT -6 -13 2
OMIT -3 -13 2
OMIT -2 -13 2
OMIT -1 -13 2
OMIT 1 -13 2
OMIT 2 -13 2
OMIT 3 -13 2
OMIT 5 -13 2
OMIT 6 -13 2
OMIT -13 -12 2
OMIT -11 -12 2
OMIT -10 -12 2
OMIT -9 -12 2
OMIT -8 -12 2
OMIT -7 -12 2
OMIT -6 -12 2
OMIT -5 -12 2
OMIT -4 -12 2
OMIT -3 -12 2
OMIT 0 -12 2
OMIT 3 -12 2
OMIT 4 -12 2
OMIT 7 -12 2
OMIT -14 -11 2
OMIT -12 -11 2
OMIT -11 -11 2
OMIT -9 -11 2
OMIT -8 -11 2
OMIT -7 -11 2
OMIT -6 -11 2
OMIT -5 -11 2
OMIT -4 -11 2
OMIT -3 -11 2
OMIT -1 -11 2
OMIT 0 -11 2
OMIT 1 -11 2
OMIT 2 -11 2
OMIT 4 -11 2
OMIT 5 -11 2
OMIT 6 -11 2
OMIT 7 -11 2
OMIT 8 -11 2
OMIT -14 -10 2
OMIT -12 -10 2
OMIT -11 -10 2
OMIT -10 -10 2
OMIT -8 -10 2
OMIT -6 -10 2
OMIT -5 -10 2
OMIT -4 -10 2
OMIT -3 -10 2
OMIT -2 -10 2
OMIT -1 -10 2
OMIT 0 -10 2
OMIT 1 -10 2
OMIT 2 -10 2
OMIT 6 -10 2
OMIT -15 -9 2
OMIT -13 -9 2
OMIT -12 -9 2
OMIT -11 -9 2
OMIT -10 -9 2
OMIT -9 -9 2
OMIT -8 -9 2
OMIT -7 -9 2
OMIT -6 -9 2
OMIT -3 -9 2
OMIT -2 -9 2
OMIT 0 -9 2
OMIT 1 -9 2
OMIT 4 -9 2
OMIT 7 -9 2
OMIT 8 -9 2
OMIT -15 -8 2
OMIT -14 -8 2
OMIT -13 -8 2
OMIT -12 -8 2
OMIT -11 -8 2
OMIT -10 -8 2
OMIT -9 -8 2
OMIT -8 -8 2
OMIT -6 -8 2
OMIT -4 -8 2
OMIT -2 -8 2
OMIT -1 -8 2
OMIT 0 -8 2
OMIT 1 -8 2
OMIT 2 -8 2
OMIT 3 -8 2
OMIT 4 -8 2
OMIT 5 -8 2
OMIT 7 -8 2
OMIT 8 -8 2
OMIT 10 -8 2
OMIT 11 -8 2
OMIT -14 -7 2
OMIT -13 -7 2
OMIT -12 -7 2
OMIT -10 -7 2
OMIT -8 -7 2
OMIT -6 -7 2
OMIT -3 -7 2
OMIT -2 -7 2
OMIT -1 -7 2
OMIT 0 -7 2
OMIT 1 -7 2
OMIT 2 -7 2
OMIT 4 -7 2
OMIT 5 -7 2
OMIT 6 -7 2
OMIT 7 -7 2
OMIT 8 -7 2
OMIT 9 -7 2
OMIT 10 -7 2
OMIT 12 -7 2
OMIT -14 -6 2
OMIT -13 -6 2
OMIT -10 -6 2
OMIT -9 -6 2
OMIT -8 -6 2
OMIT -7 -6 2
OMIT -6 -6 2
OMIT -5 -6 2
OMIT -3 -6 2
OMIT 0 -6 2
OMIT 1 -6 2
OMIT 3 -6 2
OMIT 4 -6 2
OMIT 5 -6 2
OMIT 6 -6 2
OMIT 7 -6 2
OMIT 9 -6 2
OMIT 11 -6 2
OMIT -15 -5 2
OMIT -13 -5 2
OMIT -12 -5 2
OMIT -11 -5 2
OMIT -7 -5 2
OMIT -6 -5 2
OMIT -5 -5 2
OMIT -1 -5 2
OMIT 0 -5 2
OMIT 1 -5 2
OMIT 3 -5 2
OMIT 4 -5 2
OMIT 6 -5 2
OMIT 7 -5 2
OMIT 9 -5 2
OMIT 10 -5 2
OMIT 11 -5 2
OMIT -15 -4 2
OMIT -13 -4 2
OMIT -12 -4 2
OMIT -11 -4 2
OMIT -8 -4 2
OMIT -6 -4 2
OMIT -5 -4 2
OMIT -4 -4 2
OMIT -3 -4 2
OMIT 7 -4 2
OMIT 9 -4 2
OMIT 10 -4 2
OMIT 11 -4 2
OMIT 13 -4 2
OMIT 14 -4 2
OMIT -13 -3 2
OMIT -12 -3 2
OMIT -11 -3 2
OMIT -10 -3 2
OMIT -9 -3 2
OMIT -8 -3 2
OMIT -7 -3 2
OMIT -6 -3 2
OMIT -5 -3 2
OMIT -4 -3 2
OMIT 2 -3 2
OMIT 5 -3 2
OMIT 7 -3 2
OMIT 8 -3 2
OMIT 9 -3 2
OMIT 10 -3 2
OMIT 11 -3 2
OMIT 12 -3 2
OMIT 13 -3 2
OMIT -15 -2 2
OMIT -12 -2 2
OMIT -11 -2 2
OMIT -9 -2 2
OMIT -3 -2 2
OMIT 0 -2 2
OMIT 5 -2 2
OMIT 7 -2 2
OMIT 8 -2 2
OMIT 9 -2 2
OMIT 10 -2 2
OMIT 11 -2 2
OMIT 13 -2 2
OMIT 14 -2 2
OMIT -14 -1 2
OMIT -13 -1 2
OMIT -12 -1 2
OMIT -11 -1 2
OMIT -9 -1 2
OMIT -6 -1 2
OMIT -5 -1 2
OMIT -3 -1 2
OMIT 0 -1 2
OMIT 3 -1 2
OMIT 4 -1 2
OMIT 5 -1 2
OMIT 7 -1 2
OMIT 8 -1 2
OMIT 9 -1 2
OMIT 10 -1 2
OMIT 11 -1 2
OMIT 13 -1 2
OMIT 14 -1 2
OMIT -14 0 2
OMIT -13 0 2
OMIT -11 0 2
OMIT -10 0 2
OMIT -7 0 2
OMIT -6 0 2
OMIT -5 0 2
OMIT 3 0 2
OMIT 6 0 2
OMIT 7 0 2
OMIT 8 0 2
OMIT 12 0 2
OMIT 13 0 2
OMIT 14 0 2
OMIT 15 0 2
OMIT -14 1 2
OMIT -12 1 2
OMIT -10 1 2
OMIT -9 1 2
OMIT -5 1 2
OMIT -4 1 2
OMIT -3 1 2
OMIT 0 1 2
OMIT 6 1 2
OMIT 9 1 2
OMIT 10 1 2
OMIT 11 1 2
OMIT 12 1 2
OMIT 13 1 2
OMIT 14 1 2
OMIT 15 1 2
OMIT -14 2 2
OMIT -12 2 2
OMIT -11 2 2
OMIT -9 2 2
OMIT -7 2 2
OMIT -4 2 2
OMIT -3 2 2
OMIT -2 2 2
OMIT 3 2 2
OMIT 7 2 2
OMIT 11 2 2
OMIT 12 2 2
OMIT 13 2 2
OMIT 14 2 2
OMIT 15 2 2
OMIT 16 2 2
OMIT -13 3 2
OMIT -12 3 2
OMIT -11 3 2
OMIT -10 3 2
OMIT -8 3 2
OMIT -5 3 2
OMIT -3 3 2
OMIT -2 3 2
OMIT -1 3 2
OMIT 1 3 2
OMIT 4 3 2
OMIT 5 3 2
OMIT 6 3 2
OMIT 8 3 2
OMIT 10 3 2
OMIT 11 3 2
OMIT 13 3 2
OMIT 15 3 2
OMIT 16 3 2
OMIT -12 4 2
OMIT -9 4 2
OMIT -7 4 2
OMIT -6 4 2
OMIT -4 4 2
OMIT -2 4 2
OMIT 0 4 2
OMIT 3 4 2
OMIT 4 4 2
OMIT 6 4 2
OMIT 7 4 2
OMIT 9 4 2
OMIT 11 4 2
OMIT 13 4 2
OMIT 14 4 2
OMIT 15 4 2
OMIT 16 4 2
OMIT -12 5 2
OMIT -11 5 2
OMIT -10 5 2
OMIT -9 5 2
OMIT -8 5 2
OMIT -5 5 2
OMIT -4 5 2
OMIT -3 5 2
OMIT -2 5 2
OMIT -1 5 2
OMIT 0 5 2
OMIT 2 5 2
OMIT 9 5 2
OMIT 11 5 2
OMIT 12 5 2
OMIT 13 5 2
OMIT 15 5 2
OMIT 16 5 2
OMIT -11 6 2
OMIT -10 6 2
OMIT -8 6 2
OMIT -7 6 2
OMIT -3 6 2
OMIT -2 6 2
OMIT -1 6 2
OMIT 5 6 2
OMIT 6 6 2
OMIT 8 6 2
OMIT 9 6 2
OMIT 11 6 2
OMIT 12 6 2
OMIT 13 6 2
OMIT 14 6 2
OMIT 16 6 2
OMIT -11 7 2
OMIT -10 7 2
OMIT -8 7 2
OMIT -7 7 2
OMIT -5 7 2
OMIT -4 7 2
OMIT -2 7 2
OMIT 0 7 2
OMIT 2 7 2
OMIT 3 7 2
OMIT 5 7 2
OMIT 7 7 2
OMIT 12 7 2
OMIT 13 7 2
OMIT 14 7 2
OMIT 16 7 2
OMIT -9 8 2
OMIT -8 8 2
OMIT -7 8 2
OMIT -6 8 2
OMIT -2 8 2
OMIT -1 8 2
OMIT 2 8 2
OMIT 3 8 2
OMIT 4 8 2
OMIT 5 8 2
OMIT 6 8 2
OMIT 7 8 2
OMIT 9 8 2
OMIT 10 8 2
OMIT 11 8 2
OMIT 15 8 2
OMIT 16 8 2
OMIT -10 9 2
OMIT -9 9 2
OMIT -8 9 2
OMIT -7 9 2
OMIT -6 9 2
OMIT -5 9 2
OMIT -4 9 2
OMIT -2 9 2
OMIT 0 9 2
OMIT 1 9 2
OMIT 2 9 2
OMIT 3 9 2
OMIT 4 9 2
OMIT 6 9 2
OMIT 7 9 2
OMIT 9 9 2
OMIT 10 9 2
OMIT 11 9 2
OMIT 12 9 2
OMIT 13 9 2
OMIT 15 9 2
OMIT 16 9 2
OMIT -9 10 2
OMIT -6 10 2
OMIT -5 10 2
OMIT -4 10 2
OMIT -3 10 2
OMIT -2 10 2
OMIT -1 10 2
OMIT 0 10 2
OMIT 1 10 2
OMIT 2 10 2
OMIT 4 10 2
OMIT 5 10 2
OMIT 8 10 2
OMIT 9 10 2
OMIT 10 10 2
OMIT 11 10 2
OMIT 12 10 2
OMIT 13 10 2
OMIT 14 10 2
OMIT -8 11 2
OMIT -7 11 2
OMIT -4 11 2
OMIT -3 11 2
OMIT -2 11 2
OMIT 1 11 2
OMIT 2 11 2
OMIT 3 11 2
OMIT 6 11 2
OMIT 7 11 2
OMIT 9 11 2
OMIT 10 11 2
OMIT 11 11 2
OMIT 12 11 2
OMIT 14 11 2
OMIT -7 12 2
OMIT -4 12 2
OMIT -2 12 2
OMIT -1 12 2
OMIT 0 12 2
OMIT 1 12 2
OMIT 2 12 2
OMIT 3 12 2
OMIT 4 12 2
OMIT 5 12 2
OMIT 7 12 2
OMIT 11 12 2
OMIT 12 12 2
OMIT 13 12 2
OMIT 14 12 2
OMIT 15 12 2
OMIT -1 13 2
OMIT 0 13 2
OMIT 1 13 2
OMIT 3 13 2
OMIT 4 13 2
OMIT 6 13 2
OMIT 7 13 2
OMIT 8 13 2
OMIT 10 13 2
OMIT 11 13 2
OMIT 13 13 2
OMIT -1 14 2
OMIT 0 14 2
OMIT 2 14 2
OMIT 4 14 2
OMIT 5 14 2
OMIT 6 14 2
OMIT 8 14 2
OMIT 10 14 2
OMIT 11 14 2
OMIT 12 14 2
OMIT -2 15 2
OMIT -1 15 2
OMIT 1 15 2
OMIT 4 15 2
OMIT 7 15 2
OMIT 10 15 2
OMIT 12 15 2
OMIT 2 17 2
OMIT 3 17 2
OMIT 4 17 2
OMIT 8 17 2
OMIT -4 -17 3
OMIT -2 -17 3
OMIT 0 -17 3
OMIT -10 -16 3
OMIT -9 -16 3
OMIT -8 -16 3
OMIT -5 -16 3
OMIT -2 -16 3
OMIT 3 -16 3
OMIT -10 -15 3
OMIT -9 -15 3
OMIT -8 -15 3
OMIT -6 -15 3
OMIT -4 -15 3
OMIT -3 -15 3
OMIT 1 -15 3
OMIT 3 -15 3
OMIT -10 -14 3
OMIT -9 -14 3
OMIT -8 -14 3
OMIT -7 -14 3
OMIT -4 -14 3
OMIT -1 -14 3
OMIT 0 -14 3
OMIT 4 -14 3
OMIT -11 -13 3
OMIT -10 -13 3
OMIT -9 -13 3
OMIT -8 -13 3
OMIT -7 -13 3
OMIT -3 -13 3
OMIT -2 -13 3
OMIT 0 -13 3
OMIT 1 -13 3
OMIT 2 -13 3
OMIT 4 -13 3
OMIT 6 -13 3
OMIT -13 -12 3
OMIT -9 -12 3
OMIT -7 -12 3
OMIT -6 -12 3
OMIT -3 -12 3
OMIT -1 -12 3
OMIT 0 -12 3
OMIT 1 -12 3
OMIT 4 -12 3
OMIT 5 -12 3
OMIT -13 -11 3
OMIT -12 -11 3
OMIT -11 -11 3
OMIT -10 -11 3
OMIT -8 -11 3
OMIT -6 -11 3
OMIT -5 -11 3
OMIT -4 -11 3
OMIT -3 -11 3
OMIT 1 -11 3
OMIT 2 -11 3
OMIT 3 -11 3
OMIT 4 -11 3
OMIT 5 -11 3
OMIT 6 -11 3
OMIT 7 -11 3
OMIT 8 -11 3
OMIT 9 -11 3
OMIT -14 -10 3
OMIT -9 -10 3
OMIT -7 -10 3
OMIT -5 -10 3
OMIT -3 -10 3
OMIT -2 -10 3
OMIT -1 -10 3
OMIT 4 -10 3
OMIT 5 -10 3
OMIT 7 -10 3
OMIT 9 -10 3
OMIT -14 -9 3
OMIT -8 -9 3
OMIT -6 -9 3
OMIT -5 -9 3
OMIT -3 -9 3
OMIT -2 -9 3
OMIT -1 -9 3
OMIT 0 -9 3
OMIT 1 -9 3
OMIT 4 -9 3
OMIT 5 -9 3
OMIT 6 -9 3
OMIT 11 -9 3
OMIT -14 -8 3
OMIT -13 -8 3
OMIT -12 -8 3
OMIT -11 -8 3
OMIT -10 -8 3
OMIT -9 -8 3
OMIT -8 -8 3
OMIT -7 -8 3
OMIT -6 -8 3
OMIT -5 -8 3
OMIT -4 -8 3
OMIT -3 -8 3
OMIT -1 -8 3
OMIT 0 -8 3
OMIT 1 -8 3
OMIT 2 -8 3
OMIT 4 -8 3
OMIT 5 -8 3
OMIT 6 -8 3
OMIT 7 -8 3
OMIT 8 -8 3
OMIT 10 -8 3
OMIT -15 -7 3
OMIT -13 -7 3
OMIT -12 -7 3
OMIT -10 -7 3
OMIT -9 -7 3
OMIT -7 -7 3
OMIT -5 -7 3
OMIT 0 -7 3
OMIT 3 -7 3
OMIT 5 -7 3
OMIT 6 -7 3
OMIT 7 -7 3
OMIT 9 -7 3
OMIT 10 -7 3
OMIT 12 -7 3
OMIT -10 -6 3
OMIT -9 -6 3
OMIT -8 -6 3
OMIT -6 -6 3
OMIT -1 -6 3
OMIT 0 -6 3
OMIT 4 -6 3
OMIT 5 -6 3
OMIT 7 -6 3
OMIT 10 -6 3
OMIT 11 -6 3
OMIT 12 -6 3
OMIT -9 -5 3
OMIT -8 -5 3
OMIT -7 -5 3
OMIT -6 -5 3
OMIT -3 -5 3
OMIT -2 -5 3
OMIT -1 -5 3
OMIT 1 -5 3
OMIT 2 -5 3
OMIT 10 -5 3
OMIT -14 -4 3
OMIT -13 -4 3
OMIT -12 -4 3
OMIT -10 -4 3
OMIT -8 -4 3
OMIT -6 -4 3
OMIT -5 -4 3
OMIT -3 -4 3
OMIT 0 -4 3
OMIT 4 -4 3
OMIT 5 -4 3
OMIT 6 -4 3
OMIT 7 -4 3
OMIT 9 -4 3
OMIT 11 -4 3
OMIT 12 -4 3
OMIT 13 -4 3
OMIT -13 -3 3
OMIT -12 -3 3
OMIT -11 -3 3
OMIT -10 -3 3
OMIT -9 -3 3
OMIT -8 -3 3
OMIT -7 -3 3
OMIT -5 -3 3
OMIT -2 -3 3
OMIT -1 -3 3
OMIT 4 -3 3
OMIT 6 -3 3
OMIT 7 -3 3
OMIT 8 -3 3
OMIT 10 -3 3
OMIT 11 -3 3
OMIT 12 -3 3
OMIT 13 -3 3
OMIT 14 -3 3
OMIT -14 -2 3
OMIT -13 -2 3
OMIT -12 -2 3
OMIT -9 -2 3
OMIT -8 -2 3
OMIT -7 -2 3
OMIT -6 -2 3
OMIT -5 -2 3
OMIT 8 -2 3
OMIT 9 -2 3
OMIT 10 -2 3
OMIT 11 -2 3
OMIT 13 -2 3
OMIT 14 -2 3
OMIT -14 -1 3
OMIT -12 -1 3
OMIT -11 -1 3
OMIT -10 -1 3
OMIT -9 -1 3
OMIT -8 -1 3
OMIT -7 -1 3
OMIT -6 -1 3
OMIT -5 -1 3
OMIT -4 -1 3
OMIT -3 -1 3
OMIT 5 -1 3
OMIT 6 -1 3
OMIT 7 -1 3
OMIT 8 -1 3
OMIT 9 -1 3
OMIT 11 -1 3
OMIT 13 -1 3
OMIT 14 -1 3
OMIT 15 -1 3
OMIT -14 0 3
OMIT -12 0 3
OMIT -8 0 3
OMIT -6 0 3
OMIT -2 0 3
OMIT 2 0 3
OMIT 5 0 3
OMIT 7 0 3
OMIT 10 0 3
OMIT 12 0 3
OMIT 13 0 3
OMIT 14 0 3
OMIT 15 0 3
OMIT -14 1 3
OMIT -12 1 3
OMIT -11 1 3
OMIT -9 1 3
OMIT -6 1 3
OMIT -2 1 3
OMIT 0 1 3
OMIT 1 1 3
OMIT 2 1 3
OMIT 3 1 3
OMIT 8 1 3
OMIT 9 1 3
OMIT 10 1 3
OMIT 11 1 3
OMIT 13 1 3
OMIT 14 1 3
OMIT 15 1 3
OMIT 16 1 3
OMIT -13 2 3
OMIT -10 2 3
OMIT -6 2 3
OMIT -5 2 3
OMIT 3 2 3
OMIT 6 2 3
OMIT 8 2 3
OMIT 9 2 3
OMIT 10 2 3
OMIT 12 2 3
OMIT 14 2 3
OMIT 15 2 3
OMIT 16 2 3
OMIT -12 3 3
OMIT -10 3 3
OMIT -9 3 3
OMIT -8 3 3
OMIT -7 3 3
OMIT -6 3 3
OMIT -5 3 3
OMIT -4 3 3
OMIT 3 3 3
OMIT 6 3 3
OMIT 8 3 3
OMIT 9 3 3
OMIT 11 3 3
OMIT 12 3 3
OMIT 13 3 3
OMIT 15 3 3
OMIT -12 4 3
OMIT -11 4 3
OMIT -10 4 3
OMIT -9 4 3
OMIT -8 4 3
OMIT -7 4 3
OMIT -5 4 3
OMIT -4 4 3
OMIT -3 4 3
OMIT 3 4 3
OMIT 4 4 3
OMIT 10 4 3
OMIT 12 4 3
OMIT 13 4 3
OMIT 14 4 3
OMIT 15 4 3
OMIT 16 4 3
OMIT -10 5 3
OMIT -7 5 3
OMIT -5 5 3
OMIT -4 5 3
OMIT 1 5 3
OMIT 3 5 3
OMIT 4 5 3
OMIT 5 5 3
OMIT 6 5 3
OMIT 7 5 3
OMIT 8 5 3
OMIT 9 5 3
OMIT 10 5 3
OMIT 11 5 3
OMIT 12 5 3
OMIT 14 5 3
OMIT 15 5 3
OMIT 16 5 3
OMIT -11 6 3
OMIT -9 6 3
OMIT -7 6 3
OMIT -5 6 3
OMIT -3 6 3
OMIT -1 6 3
OMIT 2 6 3
OMIT 4 6 3
OMIT 5 6 3
OMIT 6 6 3
OMIT 7 6 3
OMIT 8 6 3
OMIT 10 6 3
OMIT 11 6 3
OMIT 12 6 3
OMIT 13 6 3
OMIT -11 7 3
OMIT -9 7 3
OMIT -6 7 3
OMIT -5 7 3
OMIT -4 7 3
OMIT -3 7 3
OMIT -2 7 3
OMIT -1 7 3
OMIT 0 7 3
OMIT 1 7 3
OMIT 2 7 3
OMIT 4 7 3
OMIT 5 7 3
OMIT 8 7 3
OMIT 9 7 3
OMIT 12 7 3
OMIT 13 7 3
OMIT 15 7 3
OMIT -8 8 3
OMIT -6 8 3
OMIT -3 8 3
OMIT -2 8 3
OMIT -1 8 3
OMIT 0 8 3
OMIT 2 8 3
OMIT 4 8 3
OMIT 5 8 3
OMIT 6 8 3
OMIT 8 8 3
OMIT 9 8 3
OMIT 11 8 3
OMIT 14 8 3
OMIT -9 9 3
OMIT -8 9 3
OMIT -7 9 3
OMIT -6 9 3
OMIT -5 9 3
OMIT -4 9 3
OMIT -3 9 3
OMIT -2 9 3
OMIT -1 9 3
OMIT 0 9 3
OMIT 1 9 3
OMIT 5 9 3
OMIT 7 9 3
OMIT 9 9 3
OMIT 10 9 3
OMIT 11 9 3
OMIT 12 9 3
OMIT 13 9 3
OMIT 14 9 3
OMIT 15 9 3
OMIT 16 9 3
OMIT -8 10 3
OMIT -6 10 3
OMIT -4 10 3
OMIT -3 10 3
OMIT 1 10 3
OMIT 2 10 3
OMIT 4 10 3
OMIT 5 10 3
OMIT 7 10 3
OMIT 9 10 3
OMIT 10 10 3
OMIT 11 10 3
OMIT 13 10 3
OMIT -6 11 3
OMIT -5 11 3
OMIT -2 11 3
OMIT -1 11 3
OMIT 0 11 3
OMIT 3 11 3
OMIT 6 11 3
OMIT 7 11 3
OMIT 8 11 3
OMIT 10 11 3
OMIT 11 11 3
OMIT 12 11 3
OMIT 13 11 3
OMIT 15 11 3
OMIT -6 12 3
OMIT -5 12 3
OMIT -4 12 3
OMIT -3 12 3
OMIT -2 12 3
OMIT -1 12 3
OMIT 5 12 3
OMIT 9 12 3
OMIT 10 12 3
OMIT 11 12 3
OMIT 13 12 3
OMIT -6 13 3
OMIT -3 13 3
OMIT -2 13 3
OMIT 0 13 3
OMIT 3 13 3
OMIT 4 13 3
OMIT 5 13 3
OMIT 7 13 3
OMIT 8 13 3
OMIT 14 13 3
OMIT -5 14 3
OMIT -2 14 3
OMIT -1 14 3
OMIT 0 14 3
OMIT 4 14 3
OMIT 5 14 3
OMIT 7 14 3
OMIT 8 14 3
OMIT 0 15 3
OMIT 4 15 3
OMIT 6 15 3
OMIT 8 15 3
OMIT 6 16 3
OMIT 10 16 3
OMIT 11 16 3
OMIT 4 17 3
OMIT 5 17 3
OMIT -7 -17 4
OMIT -8 -16 4
OMIT -3 -16 4
OMIT -10 -15 4
OMIT -9 -15 4
OMIT -5 -15 4
OMIT -4 -15 4
OMIT -3 -15 4
OMIT -2 -15 4
OMIT 0 -15 4
OMIT -11 -14 4
OMIT -10 -14 4
OMIT -9 -14 4
OMIT -8 -14 4
OMIT -7 -14 4
OMIT -5 -14 4
OMIT -3 -14 4
OMIT -2 -14 4
OMIT -12 -13 4
OMIT -10 -13 4
OMIT -9 -13 4
OMIT -7 -13 4
OMIT -6 -13 4
OMIT -5 -13 4
OMIT -3 -13 4
OMIT -1 -13 4
OMIT 1 -13 4
OMIT 6 -13 4
OMIT -13 -12 4
OMIT -10 -12 4
OMIT -9 -12 4
OMIT -6 -12 4
OMIT -4 -12 4
OMIT -2 -12 4
OMIT -1 -12 4
OMIT 0 -12 4
OMIT 4 -12 4
OMIT 5 -12 4
OMIT 6 -12 4
OMIT 8 -12 4
OMIT -11 -11 4
OMIT -10 -11 4
OMIT -9 -11 4
OMIT -8 -11 4
OMIT -7 -11 4
OMIT -4 -11 4
OMIT -3 -11 4
OMIT 0 -11 4
OMIT 1 -11 4
OMIT 4 -11 4
OMIT 8 -11 4
OMIT -14 -10 4
OMIT -13 -10 4
OMIT -11 -10 4
OMIT -10 -10 4
OMIT -9 -10 4
OMIT -7 -10 4
OMIT -6 -10 4
OMIT -5 -10 4
OMIT -4 -10 4
OMIT -2 -10 4
OMIT 1 -10 4
OMIT 3 -10 4
OMIT 4 -10 4
OMIT 5 -10 4
OMIT 6 -10 4
OMIT 10 -10 4
OMIT -13 -9 4
OMIT -12 -9 4
OMIT -10 -9 4
OMIT -9 -9 4
OMIT -8 -9 4
OMIT -5 -9 4
OMIT -4 -9 4
OMIT 0 -9 4
OMIT 1 -9 4
OMIT 4 -9 4
OMIT 5 -9 4
OMIT 6 -9 4
OMIT 7 -9 4
OMIT 9 -9 4
OMIT 11 -9 4
OMIT -14 -8 4
OMIT -13 -8 4
OMIT -9 -8 4
OMIT -7 -8 4
OMIT -6 -8 4
OMIT -4 -8 4
OMIT -3 -8 4
OMIT -2 -8 4
OMIT -1 -8 4
OMIT 2 -8 4
OMIT 4 -8 4
OMIT 5 -8 4
OMIT 7 -8 4
OMIT 11 -8 4
OMIT 12 -8 4
OMIT -14 -7 4
OMIT -13 -7 4
OMIT -12 -7 4
OMIT -11 -7 4
OMIT -10 -7 4
OMIT -9 -7 4
OMIT -8 -7 4
OMIT -7 -7 4
OMIT -6 -7 4
OMIT -3 -7 4
OMIT -2 -7 4
OMIT 0 -7 4
OMIT 3 -7 4
OMIT 4 -7 4
OMIT 5 -7 4
OMIT 6 -7 4
OMIT 8 -7 4
OMIT 9 -7 4
OMIT 10 -7 4
OMIT 12 -7 4
OMIT -14 -6 4
OMIT -12 -6 4
OMIT -10 -6 4
OMIT -7 -6 4
OMIT -6 -6 4
OMIT -5 -6 4
OMIT -4 -6 4
OMIT -3 -6 4
OMIT -2 -6 4
OMIT 0 -6 4
OMIT 1 -6 4
OMIT 2 -6 4
OMIT 5 -6 4
OMIT 8 -6 4
OMIT 10 -6 4
OMIT 11 -6 4
OMIT 12 -6 4
OMIT 13 -6 4
OMIT -11 -5 4
OMIT -10 -5 4
OMIT -9 -5 4
OMIT -7 -5 4
OMIT -6 -5 4
OMIT -5 -5 4
OMIT -4 -5 4
OMIT -3 -5 4
OMIT -2 -5 4
OMIT 0 -5 4
OMIT 1 -5 4
OMIT 2 -5 4
OMIT 3 -5 4
OMIT 5 -5 4
OMIT 7 -5 4
OMIT 8 -5 4
OMIT 9 -5 4
OMIT 10 -5 4
OMIT 12 -5 4
OMIT -13 -4 4
OMIT -12 -4 4
OMIT -11 -4 4
OMIT -8 -4 4
OMIT -7 -4 4
OMIT -6 -4 4
OMIT -1 -4 4
OMIT 2 -4 4
OMIT 3 -4 4
OMIT 4 -4 4
OMIT 6 -4 4
OMIT 7 -4 4
OMIT 8 -4 4
OMIT 9 -4 4
OMIT 10 -4 4
OMIT 12 -4 4
OMIT 13 -4 4
OMIT -14 -3 4
OMIT -13 -3 4
OMIT -10 -3 4
OMIT -9 -3 4
OMIT -7 -3 4
OMIT -2 -3 4
OMIT -1 -3 4
OMIT 1 -3 4
OMIT 3 -3 4
OMIT 4 -3 4
OMIT 8 -3 4
OMIT 11 -3 4
OMIT 12 -3 4
OMIT -14 -2 4
OMIT -13 -2 4
OMIT -11 -2 4
OMIT -9 -2 4
OMIT -8 -2 4
OMIT -7 -2 4
OMIT -6 -2 4
OMIT -4 -2 4
OMIT 1 -2 4
OMIT 3 -2 4
OMIT 5 -2 4
OMIT 6 -2 4
OMIT 7 -2 4
OMIT 9 -2 4
OMIT 10 -2 4
OMIT 11 -2 4
OMIT 13 -2 4
OMIT 14 -2 4
OMIT 15 -2 4
OMIT -14 -1 4
OMIT -13 -1 4
OMIT -12 -1 4
OMIT -11 -1 4
OMIT -10 -1 4
OMIT -9 -1 4
OMIT 1 -1 4
OMIT 3 -1 4
OMIT 8 -1 4
OMIT 9 -1 4
OMIT 10 -1 4
OMIT 11 -1 4
OMIT 14 -1 4
OMIT -13 0 4
OMIT -12 0 4
OMIT -11 0 4
OMIT -9 0 4
OMIT -8 0 4
OMIT -7 0 4
OMIT -4 0 4
OMIT -3 0 4
OMIT 4 0 4
OMIT 6 0 4
OMIT 8 0 4
OMIT 9 0 4
OMIT 10 0 4
OMIT 11 0 4
OMIT 13 0 4
OMIT -13 1 4
OMIT -11 1 4
OMIT -10 1 4
OMIT -8 1 4
OMIT -7 1 4
OMIT -5 1 4
OMIT -4 1 4
OMIT -3 1 4
OMIT -2 1 4
OMIT -1 1 4
OMIT 2 1 4
OMIT 4 1 4
OMIT 5 1 4
OMIT 6 1 4
OMIT 9 1 4
OMIT 10 1 4
OMIT 12 1 4
OMIT 13 1 4
OMIT 16 1 4
OMIT -12 2 4
OMIT -11 2 4
OMIT -8 2 4
OMIT -7 2 4
OMIT -6 2 4
OMIT -5 2 4
OMIT -2 2 4
OMIT 1 2 4
OMIT 2 2 4
OMIT 3 2 4
OMIT 7 2 4
OMIT 8 2 4
OMIT 9 2 4
OMIT 10 2 4
OMIT 13 2 4
OMIT 14 2 4
OMIT 15 2 4
OMIT 16 2 4
OMIT -12 3 4
OMIT -10 3 4
OMIT -5 3 4
OMIT -3 3 4
OMIT -1 3 4
OMIT 4 3 4
OMIT 5 3 4
OMIT 10 3 4
OMIT 11 3 4
OMIT 12 3 4
OMIT 13 3 4
OMIT 14 3 4
OMIT 15 3 4
OMIT 16 3 4
OMIT -11 4 4
OMIT -10 4 4
OMIT -9 4 4
OMIT -8 4 4
OMIT -7 4 4
OMIT -6 4 4
OMIT -3 4 4
OMIT -1 4 4
OMIT 0 4 4
OMIT 1 4 4
OMIT 4 4 4
OMIT 7 4 4
OMIT 10 4 4
OMIT 11 4 4
OMIT 14 4 4
OMIT 15 4 4
OMIT 16 4 4
OMIT -12 5 4
OMIT -11 5 4
OMIT -10 5 4
OMIT -9 5 4
OMIT -7 5 4
OMIT -6 5 4
OMIT -5 5 4
OMIT -3 5 4
OMIT -2 5 4
OMIT 0 5 4
OMIT 4 5 4
OMIT 8 5 4
OMIT 10 5 4
OMIT 11 5 4
OMIT 12 5 4
OMIT 13 5 4
OMIT 14 5 4
OMIT 15 5 4
OMIT 16 5 4
OMIT -10 6 4
OMIT -6 6 4
OMIT -5 6 4
OMIT -3 6 4
OMIT -2 6 4
OMIT -1 6 4
OMIT 1 6 4
OMIT 2 6 4
OMIT 3 6 4
OMIT 4 6 4
OMIT 5 6 4
OMIT 8 6 4
OMIT 9 6 4
OMIT 10 6 4
OMIT 11 6 4
OMIT 13 6 4
OMIT 15 6 4
OMIT 16 6 4
OMIT -10 7 4
OMIT -8 7 4
OMIT -7 7 4
OMIT -5 7 4
OMIT -4 7 4
OMIT -2 7 4
OMIT -1 7 4
OMIT 0 7 4
OMIT 1 7 4
OMIT 3 7 4
OMIT 4 7 4
OMIT 5 7 4
OMIT 6 7 4
OMIT 7 7 4
OMIT 8 7 4
OMIT 10 7 4
OMIT 11 7 4
OMIT 13 7 4
OMIT 14 7 4
OMIT 15 7 4
OMIT -9 8 4
OMIT -7 8 4
OMIT -6 8 4
OMIT 0 8 4
OMIT 1 8 4
OMIT 3 8 4
OMIT 8 8 4
OMIT 10 8 4
OMIT 12 8 4
OMIT 13 8 4
OMIT 16 8 4
OMIT -9 9 4
OMIT -8 9 4
OMIT -5 9 4
OMIT -4 9 4
OMIT -2 9 4
OMIT -1 9 4
OMIT 0 9 4
OMIT 1 9 4
OMIT 2 9 4
OMIT 3 9 4
OMIT 4 9 4
OMIT 6 9 4
OMIT 7 9 4
OMIT 8 9 4
OMIT 10 9 4
OMIT 11 9 4
OMIT 12 9 4
OMIT 13 9 4
OMIT -8 10 4
OMIT -6 10 4
OMIT -5 10 4
OMIT -4 10 4
OMIT -3 10 4
OMIT -2 10 4
OMIT 1 10 4
OMIT 2 10 4
OMIT 3 10 4
OMIT 5 10 4
OMIT 6 10 4
OMIT 8 10 4
OMIT 9 10 4
OMIT 11 10 4
OMIT 13 10 4
OMIT 14 10 4
OMIT -6 11 4
OMIT -5 11 4
OMIT -4 11 4
OMIT -3 11 4
OMIT -1 11 4
OMIT 0 11 4
OMIT 1 11 4
OMIT 2 11 4
OMIT 3 11 4
OMIT 4 11 4
OMIT 5 11 4
OMIT 6 11 4
OMIT 7 11 4
OMIT 8 11 4
OMIT 11 11 4
OMIT 12 11 4
OMIT 14 11 4
OMIT 15 11 4
OMIT -5 12 4
OMIT -3 12 4
OMIT -1 12 4
OMIT 0 12 4
OMIT 4 12 4
OMIT 5 12 4
OMIT 6 12 4
OMIT 7 12 4
OMIT 8 12 4
OMIT 11 12 4
OMIT 13 12 4
OMIT 14 12 4
OMIT -6 13 4
OMIT -3 13 4
OMIT -2 13 4
OMIT -1 13 4
OMIT 0 13 4
OMIT 1 13 4
OMIT 2 13 4
OMIT 3 13 4
OMIT 5 13 4
OMIT 6 13 4
OMIT 7 13 4
OMIT 10 13 4
OMIT 11 13 4
OMIT 13 13 4
OMIT -3 14 4
OMIT 0 14 4
OMIT 1 14 4
OMIT 2 14 4
OMIT 3 14 4
OMIT 4 14 4
OMIT 9 14 4
OMIT 11 14 4
OMIT 13 14 4
OMIT 1 15 4
OMIT 3 15 4
OMIT 5 15 4
OMIT 7 15 4
OMIT 9 15 4
OMIT 10 15 4
OMIT 0 16 4
OMIT 4 16 4
OMIT 5 16 4
OMIT 8 16 4
OMIT 1 17 4
OMIT 4 17 4
OMIT 6 17 4
OMIT 8 17 4
OMIT 10 17 4
OMIT -6 -17 5
OMIT -5 -17 5
OMIT -9 -16 5
OMIT -7 -16 5
OMIT -6 -16 5
OMIT -4 -16 5
OMIT -7 -15 5
OMIT -3 -15 5
OMIT -1 -15 5
OMIT -11 -14 5
OMIT -10 -14 5
OMIT -9 -14 5
OMIT -6 -14 5
OMIT -4 -14 5
OMIT -3 -14 5
OMIT -1 -14 5
OMIT 1 -14 5
OMIT 5 -14 5
OMIT -10 -13 5
OMIT -9 -13 5
OMIT -6 -13 5
OMIT -4 -13 5
OMIT -3 -13 5
OMIT -2 -13 5
OMIT -1 -13 5
OMIT 0 -13 5
OMIT 1 -13 5
OMIT 3 -13 5
OMIT 5 -13 5
OMIT -12 -12 5
OMIT -10 -12 5
OMIT -9 -12 5
OMIT -8 -12 5
OMIT -7 -12 5
OMIT -6 -12 5
OMIT -5 -12 5
OMIT -3 -12 5
OMIT -2 -12 5
OMIT -1 -12 5
OMIT 0 -12 5
OMIT 1 -12 5
OMIT 3 -12 5
OMIT 4 -12 5
OMIT 5 -12 5
OMIT -13 -11 5
OMIT -12 -11 5
OMIT -10 -11 5
OMIT -9 -11 5
OMIT -8 -11 5
OMIT -6 -11 5
OMIT -5 -11 5
OMIT -2 -11 5
OMIT -1 -11 5
OMIT 1 -11 5
OMIT 2 -11 5
OMIT 4 -11 5
OMIT 5 -11 5
OMIT 6 -11 5
OMIT 7 -11 5
OMIT 8 -11 5
OMIT -9 -10 5
OMIT -6 -10 5
OMIT -5 -10 5
OMIT -4 -10 5
OMIT -2 -10 5
OMIT -1 -10 5
OMIT 0 -10 5
OMIT 1 -10 5
OMIT 4 -10 5
OMIT 5 -10 5
OMIT 8 -10 5
OMIT 9 -10 5
OMIT 10 -10 5
OMIT -12 -9 5
OMIT -11 -9 5
OMIT -9 -9 5
OMIT -6 -9 5
OMIT -3 -9 5
OMIT -1 -9 5
OMIT 1 -9 5
OMIT 3 -9 5
OMIT 4 -9 5
OMIT 5 -9 5
OMIT 6 -9 5
OMIT 8 -9 5
OMIT 11 -9 5
OMIT -14 -8 5
OMIT -13 -8 5
OMIT -11 -8 5
OMIT -10 -8 5
OMIT -9 -8 5
OMIT -7 -8 5
OMIT -6 -8 5
OMIT -4 -8 5
OMIT -3 -8 5
OMIT 0 -8 5
OMIT 1 -8 5
OMIT 2 -8 5
OMIT 3 -8 5
OMIT 4 -8 5
OMIT 5 -8 5
OMIT 6 -8 5
OMIT 7 -8 5
OMIT 8 -8 5
OMIT 10 -8 5
OMIT -13 -7 5
OMIT -12 -7 5
OMIT -11 -7 5
OMIT -9 -7 5
OMIT -8 -7 5
OMIT -7 -7 5
OMIT -6 -7 5
OMIT -5 -7 5
OMIT -3 -7 5
OMIT 0 -7 5
OMIT 3 -7 5
OMIT 4 -7 5
OMIT 5 -7 5
OMIT 8 -7 5
OMIT 9 -7 5
OMIT 10 -7 5
OMIT 11 -7 5
OMIT 12 -7 5
OMIT -14 -6 5
OMIT -13 -6 5
OMIT -12 -6 5
OMIT -11 -6 5
OMIT -9 -6 5
OMIT -8 -6 5
OMIT -5 -6 5
OMIT -4 -6 5
OMIT -3 -6 5
OMIT -2 -6 5
OMIT -1 -6 5
OMIT 0 -6 5
OMIT 3 -6 5
OMIT 5 -6 5
OMIT 6 -6 5
OMIT 7 -6 5
OMIT 8 -6 5
OMIT 9 -6 5
OMIT 10 -6 5
OMIT 11 -6 5
OMIT -13 -5 5
OMIT -12 -5 5
OMIT -10 -5 5
OMIT -9 -5 5
OMIT -7 -5 5
OMIT -6 -5 5
OMIT -4 -5 5
OMIT -3 -5 5
OMIT -2 -5 5
OMIT 6 -5 5
OMIT 8 -5 5
OMIT 9 -5 5
OMIT 11 -5 5
OMIT 12 -5 5
OMIT 13 -5 5
OMIT -14 -4 5
OMIT -12 -4 5
OMIT -11 -4 5
OMIT -9 -4 5
OMIT -8 -4 5
OMIT -5 -4 5
OMIT -2 -4 5
OMIT 0 -4 5
OMIT 3 -4 5
OMIT 6 -4 5
OMIT 8 -4 5
OMIT 9 -4 5
OMIT 10 -4 5
OMIT 11 -4 5
OMIT 12 -4 5
OMIT 13 -4 5
OMIT -14 -3 5
OMIT -13 -3 5
OMIT -12 -3 5
OMIT -11 -3 5
OMIT -8 -3 5
OMIT -7 -3 5
OMIT -6 -3 5
OMIT -5 -3 5
OMIT -4 -3 5
OMIT -3 -3 5
OMIT -1 -3 5
OMIT 1 -3 5
OMIT 5 -3 5
OMIT 7 -3 5
OMIT 8 -3 5
OMIT 9 -3 5
OMIT 10 -3 5
OMIT 11 -3 5
OMIT 12 -3 5
OMIT -13 -2 5
OMIT -9 -2 5
OMIT -7 -2 5
OMIT -6 -2 5
OMIT -2 -2 5
OMIT -1 -2 5
OMIT 0 -2 5
OMIT 2 -2 5
OMIT 3 -2 5
OMIT 4 -2 5
OMIT 6 -2 5
OMIT 9 -2 5
OMIT 10 -2 5
OMIT 12 -2 5
OMIT -14 -1 5
OMIT -13 -1 5
OMIT -12 -1 5
OMIT -11 -1 5
OMIT -10 -1 5
OMIT -9 -1 5
OMIT -7 -1 5
OMIT -6 -1 5
OMIT -2 -1 5
OMIT 1 -1 5
OMIT 3 -1 5
OMIT 4 -1 5
OMIT 6 -1 5
OMIT 7 -1 5
OMIT 9 -1 5
OMIT 10 -1 5
OMIT 11 -1 5
OMIT 15 -1 5
OMIT -13 0 5
OMIT -12 0 5
OMIT -10 0 5
OMIT -8 0 5
OMIT -7 0 5
OMIT -6 0 5
OMIT -4 0 5
OMIT -3 0 5
OMIT 4 0 5
OMIT 5 0 5
OMIT 6 0 5
OMIT 7 0 5
OMIT 9 0 5
OMIT 11 0 5
OMIT 15 0 5
OMIT -12 1 5
OMIT -10 1 5
OMIT -8 1 5
OMIT -7 1 5
OMIT -6 1 5
OMIT -5 1 5
OMIT -2 1 5
OMIT 1 1 5
OMIT 6 1 5
OMIT 7 1 5
OMIT 9 1 5
OMIT 12 1 5
OMIT 13 1 5
OMIT 14 1 5
OMIT 16 1 5
OMIT -13 2 5
OMIT -11 2 5
OMIT -10 2 5
OMIT -9 2 5
OMIT -8 2 5
OMIT -6 2 5
OMIT -5 2 5
OMIT -4 2 5
OMIT -3 2 5
OMIT 4 2 5
OMIT 7 2 5
OMIT 8 2 5
OMIT 9 2 5
OMIT 11 2 5
OMIT 12 2 5
OMIT 13 2 5
OMIT 14 2 5
OMIT 15 2 5
OMIT 16 2 5
OMIT -10 3 5
OMIT -8 3 5
OMIT -7 3 5
OMIT -5 3 5
OMIT -4 3 5
OMIT -1 3 5
OMIT 2 3 5
OMIT 5 3 5
OMIT 6 3 5
OMIT 7 3 5
OMIT 8 3 5
OMIT 10 3 5
OMIT 11 3 5
OMIT 12 3 5
OMIT 13 3 5
OMIT 16 3 5
OMIT -11 4 5
OMIT -10 4 5
OMIT -9 4 5
OMIT -7 4 5
OMIT -6 4 5
OMIT -4 4 5
OMIT -3 4 5
OMIT -2 4 5
OMIT 0 4 5
OMIT 1 4 5
OMIT 2 4 5
OMIT 3 4 5
OMIT 5 4 5
OMIT 9 4 5
OMIT 10 4 5
OMIT 11 4 5
OMIT 13 4 5
OMIT 14 4 5
OMIT 16 4 5
OMIT -9 5 5
OMIT -8 5 5
OMIT -5 5 5
OMIT -3 5 5
OMIT -2 5 5
OMIT 1 5 5
OMIT 3 5 5
OMIT 5 5 5
OMIT 8 5 5
OMIT 9 5 5
OMIT 10 5 5
OMIT 14 5 5
OMIT 15 5 5
OMIT 16 5 5
OMIT -10 6 5
OMIT -9 6 5
OMIT -8 6 5
OMIT -7 6 5
OMIT -4 6 5
OMIT -1 6 5
OMIT 0 6 5
OMIT 1 6 5
OMIT 2 6 5
OMIT 3 6 5
OMIT 4 6 5
OMIT 6 6 5
OMIT 7 6 5
OMIT 9 6 5
OMIT 10 6 5
OMIT 11 6 5
OMIT 12 6 5
OMIT 13 6 5
OMIT 15 6 5
OMIT 16 6 5
OMIT -8 7 5
OMIT -7 7 5
OMIT -6 7 5
OMIT -5 7 5
OMIT -4 7 5
OMIT -2 7 5
OMIT 1 7 5
OMIT 2 7 5
OMIT 4 7 5
OMIT 5 7 5
OMIT 6 7 5
OMIT 7 7 5
OMIT 9 7 5
OMIT 10 7 5
OMIT 11 7 5
OMIT 13 7 5
OMIT 15 7 5
OMIT -10 8 5
OMIT -5 8 5
OMIT -4 8 5
OMIT -2 8 5
OMIT 0 8 5
OMIT 2 8 5
OMIT 3 8 5
OMIT 4 8 5
OMIT 5 8 5
OMIT 7 8 5
OMIT 8 8 5
OMIT 9 8 5
OMIT 11 8 5
OMIT 12 8 5
OMIT 13 8 5
OMIT 14 8 5
OMIT 15 8 5
OMIT -7 9 5
OMIT -6 9 5
OMIT -5 9 5
OMIT -4 9 5
OMIT -3 9 5
OMIT -2 9 5
OMIT 0 9 5
OMIT 1 9 5
OMIT 3 9 5
OMIT 4 9 5
OMIT 5 9 5
OMIT 7 9 5
OMIT 8 9 5
OMIT 9 9 5
OMIT 11 9 5
OMIT 12 9 5
OMIT 13 9 5
OMIT 15 9 5
OMIT -7 10 5
OMIT -4 10 5
OMIT -1 10 5
OMIT 1 10 5
OMIT 4 10 5
OMIT 6 10 5
OMIT 7 10 5
OMIT 8 10 5
OMIT 10 10 5
OMIT 11 10 5
OMIT 15 10 5
OMIT -6 11 5
OMIT -5 11 5
OMIT -4 11 5
OMIT -2 11 5
OMIT -1 11 5
OMIT 1 11 5
OMIT 2 11 5
OMIT 3 11 5
OMIT 4 11 5
OMIT 5 11 5
OMIT 6 11 5
OMIT 7 11 5
OMIT 8 11 5
OMIT 10 11 5
OMIT 12 11 5
OMIT 14 11 5
OMIT 15 11 5
OMIT -6 12 5
OMIT -4 12 5
OMIT -3 12 5
OMIT -2 12 5
OMIT 0 12 5
OMIT 2 12 5
OMIT 3 12 5
OMIT 4 12 5
OMIT 6 12 5
OMIT 8 12 5
OMIT 10 12 5
OMIT 11 12 5
OMIT 13 12 5
OMIT -3 13 5
OMIT 0 13 5
OMIT 2 13 5
OMIT 3 13 5
OMIT 6 13 5
OMIT 7 13 5
OMIT 9 13 5
OMIT 10 13 5
OMIT 11 13 5
OMIT 12 13 5
OMIT 13 13 5
OMIT -3 14 5
OMIT -2 14 5
OMIT -1 14 5
OMIT 0 14 5
OMIT 1 14 5
OMIT 5 14 5
OMIT 8 14 5
OMIT 10 14 5
OMIT 13 14 5
OMIT 14 14 5
OMIT -1 15 5
OMIT 2 15 5
OMIT 3 15 5
OMIT 4 15 5
OMIT 5 15 5
OMIT 7 15 5
OMIT 10 15 5
OMIT 1 16 5
OMIT 2 16 5
OMIT 3 16 5
OMIT 5 16 5
OMIT 9 16 5
OMIT 11 16 5
OMIT 5 17 5
OMIT -7 -16 6
OMIT -9 -15 6
OMIT -6 -15 6
OMIT -5 -15 6
OMIT -4 -15 6
OMIT -9 -14 6
OMIT -8 -14 6
OMIT -6 -14 6
OMIT -4 -14 6
OMIT -3 -14 6
OMIT -1 -14 6
OMIT 1 -14 6
OMIT 2 -14 6
OMIT -9 -13 6
OMIT -6 -13 6
OMIT -5 -13 6
OMIT -3 -13 6
OMIT -1 -13 6
OMIT 2 -13 6
OMIT 4 -13 6
OMIT -12 -12 6
OMIT -11 -12 6
OMIT -10 -12 6
OMIT -9 -12 6
OMIT -8 -12 6
OMIT -7 -12 6
OMIT -6 -12 6
OMIT -4 -12 6
OMIT -1 -12 6
OMIT 0 -12 6
OMIT 3 -12 6
OMIT 5 -12 6
OMIT 8 -12 6
OMIT -11 -11 6
OMIT -10 -11 6
OMIT -9 -11 6
OMIT -7 -11 6
OMIT -5 -11 6
OMIT -3 -11 6
OMIT -2 -11 6
OMIT -1 -11 6
OMIT 0 -11 6
OMIT 1 -11 6
OMIT 2 -11 6
OMIT 3 -11 6
OMIT 6 -11 6
OMIT 7 -11 6
OMIT -12 -10 6
OMIT -11 -10 6
OMIT -9 -10 6
OMIT -8 -10 6
OMIT -6 -10 6
OMIT -5 -10 6
OMIT -3 -10 6
OMIT -2 -10 6
OMIT -1 -10 6
OMIT 0 -10 6
OMIT 1 -10 6
OMIT 2 -10 6
OMIT 3 -10 6
OMIT 4 -10 6
OMIT 5 -10 6
OMIT 7 -10 6
OMIT 9 -10 6
OMIT -13 -9 6
OMIT -9 -9 6
OMIT -8 -9 6
OMIT -6 -9 6
OMIT -5 -9 6
OMIT -4 -9 6
OMIT -3 -9 6
OMIT -2 -9 6
OMIT 0 -9 6
OMIT 3 -9 6
OMIT 4 -9 6
OMIT 5 -9 6
OMIT 6 -9 6
OMIT 7 -9 6
OMIT -13 -8 6
OMIT -11 -8 6
OMIT -10 -8 6
OMIT -9 -8 6
OMIT -8 -8 6
OMIT -7 -8 6
OMIT -3 -8 6
OMIT -2 -8 6
OMIT 1 -8 6
OMIT 2 -8 6
OMIT 4 -8 6
OMIT 5 -8 6
OMIT 7 -8 6
OMIT 8 -8 6
OMIT 10 -8 6
OMIT -12 -7 6
OMIT -11 -7 6
OMIT -10 -7 6
OMIT -9 -7 6
OMIT -8 -7 6
OMIT -7 -7 6
OMIT -6 -7 6
OMIT -3 -7 6
OMIT 0 -7 6
OMIT 1 -7 6
OMIT 4 -7 6
OMIT 5 -7 6
OMIT 6 -7 6
OMIT 8 -7 6
OMIT 9 -7 6
OMIT 10 -7 6
OMIT 11 -7 6
OMIT 12 -7 6
OMIT -13 -6 6
OMIT -11 -6 6
OMIT -10 -6 6
OMIT -8 -6 6
OMIT -7 -6 6
OMIT -5 -6 6
OMIT -2 -6 6
OMIT -1 -6 6
OMIT 2 -6 6
OMIT 4 -6 6
OMIT 7 -6 6
OMIT 8 -6 6
OMIT 10 -6 6
OMIT 11 -6 6
OMIT 12 -6 6
OMIT 13 -6 6
OMIT -13 -5 6
OMIT -12 -5 6
OMIT -11 -5 6
OMIT -10 -5 6
OMIT -9 -5 6
OMIT -8 -5 6
OMIT -6 -5 6
OMIT -5 -5 6
OMIT -2 -5 6
OMIT -1 -5 6
OMIT 0 -5 6
OMIT 3 -5 6
OMIT 4 -5 6
OMIT 5 -5 6
OMIT 7 -5 6
OMIT 9 -5 6
OMIT 10 -5 6
OMIT 11 -5 6
OMIT 12 -5 6
OMIT 14 -5 6
OMIT -13 -4 6
OMIT -12 -4 6
OMIT -11 -4 6
OMIT -9 -4 6
OMIT -8 -4 6
OMIT -7 -4 6
OMIT -5 -4 6
OMIT -4 -4 6
OMIT -2 -4 6
OMIT 0 -4 6
OMIT 1 -4 6
OMIT 2 -4 6
OMIT 3 -4 6
OMIT 4 -4 6
OMIT 5 -4 6
OMIT 6 -4 6
OMIT 7 -4 6
OMIT 9 -4 6
OMIT 10 -4 6
OMIT 11 -4 6
OMIT 12 -4 6
OMIT 13 -4 6
OMIT 14 -4 6
OMIT -13 -3 6
OMIT -12 -3 6
OMIT -11 -3 6
OMIT -10 -3 6
OMIT -9 -3 6
OMIT -7 -3 6
OMIT -6 -3 6
OMIT -5 -3 6
OMIT -4 -3 6
OMIT 0 -3 6
OMIT 4 -3 6
OMIT 5 -3 6
OMIT 6 -3 6
OMIT 7 -3 6
OMIT 8 -3 6
OMIT 10 -3 6
OMIT 11 -3 6
OMIT 12 -3 6
OMIT 14 -3 6
OMIT -12 -2 6
OMIT -9 -2 6
OMIT -7 -2 6
OMIT -6 -2 6
OMIT -3 -2 6
OMIT -2 -2 6
OMIT 0 -2 6
OMIT 1 -2 6
OMIT 2 -2 6
OMIT 3 -2 6
OMIT 4 -2 6
OMIT 5 -2 6
OMIT 6 -2 6
OMIT 7 -2 6
OMIT 8 -2 6
OMIT 9 -2 6
OMIT 10 -2 6
OMIT 11 -2 6
OMIT 12 -2 6
OMIT 13 -2 6
OMIT 15 -2 6
OMIT -13 -1 6
OMIT -12 -1 6
OMIT -10 -1 6
OMIT -8 -1 6
OMIT -5 -1 6
OMIT -4 -1 6
OMIT -2 -1 6
OMIT 3 -1 6
OMIT 5 -1 6
OMIT 6 -1 6
OMIT 8 -1 6
OMIT 9 -1 6
OMIT 10 -1 6
OMIT 11 -1 6
OMIT 12 -1 6
OMIT 13 -1 6
OMIT 14 -1 6
OMIT 15 -1 6
OMIT -12 0 6
OMIT -10 0 6
OMIT -8 0 6
OMIT -7 0 6
OMIT -6 0 6
OMIT -3 0 6
OMIT -1 0 6
OMIT 0 0 6
OMIT 1 0 6
OMIT 4 0 6
OMIT 5 0 6
OMIT 6 0 6
OMIT 9 0 6
OMIT 12 0 6
OMIT 14 0 6
OMIT 16 0 6
OMIT -12 1 6
OMIT -10 1 6
OMIT -9 1 6
OMIT -6 1 6
OMIT -5 1 6
OMIT -3 1 6
OMIT -2 1 6
OMIT 1 1 6
OMIT 3 1 6
OMIT 4 1 6
OMIT 6 1 6
OMIT 7 1 6
OMIT 9 1 6
OMIT 10 1 6
OMIT 11 1 6
OMIT 12 1 6
OMIT 13 1 6
OMIT 15 1 6
OMIT -11 2 6
OMIT -10 2 6
OMIT -8 2 6
OMIT -6 2 6
OMIT -5 2 6
OMIT -4 2 6
OMIT -3 2 6
OMIT 0 2 6
OMIT 5 2 6
OMIT 11 2 6
OMIT 12 2 6
OMIT 13 2 6
OMIT 14 2 6
OMIT 15 2 6
OMIT -12 3 6
OMIT -11 3 6
OMIT -10 3 6
OMIT -9 3 6
OMIT -7 3 6
OMIT -2 3 6
OMIT -1 3 6
OMIT 0 3 6
OMIT 1 3 6
OMIT 4 3 6
OMIT 5 3 6
OMIT 7 3 6
OMIT 8 3 6
OMIT 9 3 6
OMIT 10 3 6
OMIT 11 3 6
OMIT 12 3 6
OMIT 13 3 6
OMIT 14 3 6
OMIT 15 3 6
OMIT 16 3 6
OMIT -11 4 6
OMIT -10 4 6
OMIT -9 4 6
OMIT -5 4 6
OMIT -3 4 6
OMIT -2 4 6
OMIT 1 4 6
OMIT 2 4 6
OMIT 4 4 6
OMIT 7 4 6
OMIT 8 4 6
OMIT 9 4 6
OMIT 11 4 6
OMIT 12 4 6
OMIT 13 4 6
OMIT 14 4 6
OMIT 15 4 6
OMIT 16 4 6
OMIT -9 5 6
OMIT -8 5 6
OMIT -6 5 6
OMIT -5 5 6
OMIT -4 5 6
OMIT -2 5 6
OMIT -1 5 6
OMIT 2 5 6
OMIT 4 5 6
OMIT 5 5 6
OMIT 7 5 6
OMIT 8 5 6
OMIT 10 5 6
OMIT 12 5 6
OMIT 13 5 6
OMIT 15 5 6
OMIT 16 5 6
OMIT -9 6 6
OMIT -8 6 6
OMIT -7 6 6
OMIT -6 6 6
OMIT -5 6 6
OMIT -2 6 6
OMIT -1 6 6
OMIT 0 6 6
OMIT 1 6 6
OMIT 3 6 6
OMIT 8 6 6
OMIT 14 6 6
OMIT -10 7 6
OMIT -8 7 6
OMIT -7 7 6
OMIT -6 7 6
OMIT -5 7 6
OMIT -3 7 6
OMIT -2 7 6
OMIT -1 7 6
OMIT 0 7 6
OMIT 1 7 6
OMIT 2 7 6
OMIT 6 7 6
OMIT 8 7 6
OMIT 9 7 6
OMIT 10 7 6
OMIT 11 7 6
OMIT 12 7 6
OMIT 13 7 6
OMIT 14 7 6
OMIT 15 7 6
OMIT 16 7 6
OMIT -7 8 6
OMIT -5 8 6
OMIT -4 8 6
OMIT -3 8 6
OMIT -2 8 6
OMIT 1 8 6
OMIT 3 8 6
OMIT 4 8 6
OMIT 5 8 6
OMIT 6 8 6
OMIT 7 8 6
OMIT 8 8 6
OMIT 9 8 6
OMIT 10 8 6
OMIT 11 8 6
OMIT 12 8 6
OMIT 15 8 6
OMIT -9 9 6
OMIT -8 9 6
OMIT -7 9 6
OMIT -5 9 6
OMIT -4 9 6
OMIT -3 9 6
OMIT -2 9 6
OMIT -1 9 6
OMIT 0 9 6
OMIT 1 9 6
OMIT 2 9 6
OMIT 4 9 6
OMIT 5 9 6
OMIT 7 9 6
OMIT 9 9 6
OMIT 10 9 6
OMIT 11 9 6
OMIT 12 9 6
OMIT 15 9 6
OMIT 16 9 6
OMIT -5 10 6
OMIT -4 10 6
OMIT -3 10 6
OMIT -2 10 6
OMIT -1 10 6
OMIT 0 10 6
OMIT 1 10 6
OMIT 3 10 6
OMIT 5 10 6
OMIT 6 10 6
OMIT 7 10 6
OMIT 8 10 6
OMIT 9 10 6
OMIT 10 10 6
OMIT 11 10 6
OMIT 12 10 6
OMIT 14 10 6
OMIT 15 10 6
OMIT 16 10 6
OMIT -6 11 6
OMIT -5 11 6
OMIT -2 11 6
OMIT 0 11 6
OMIT 2 11 6
OMIT 4 11 6
OMIT 6 11 6
OMIT 8 11 6
OMIT 9 11 6
OMIT 11 11 6
OMIT 12 11 6
OMIT 14 11 6
OMIT -4 12 6
OMIT -3 12 6
OMIT -2 12 6
OMIT 0 12 6
OMIT 2 12 6
OMIT 3 12 6
OMIT 4 12 6
OMIT 7 12 6
OMIT 8 12 6
OMIT 10 12 6
OMIT 12 12 6
OMIT 15 12 6
OMIT -4 13 6
OMIT -2 13 6
OMIT 1 13 6
OMIT 2 13 6
OMIT 4 13 6
OMIT 6 13 6
OMIT 7 13 6
OMIT 9 13 6
OMIT 11 13 6
OMIT 12 13 6
OMIT -2 14 6
OMIT 0 14 6
OMIT 1 14 6
OMIT 2 14 6
OMIT 6 14 6
OMIT 7 14 6
OMIT 9 14 6
OMIT 10 14 6
OMIT 11 14 6
OMIT 13 14 6
OMIT 0 15 6
OMIT 2 15 6
OMIT 3 15 6
OMIT 6 15 6
OMIT 9 15 6
OMIT 10 15 6
OMIT 12 15 6
OMIT 1 16 6
OMIT 10 16 6
OMIT 3 17 6
OMIT 4 17 6
OMIT 7 17 6
OMIT -7 -16 7
OMIT -6 -16 7
OMIT -7 -15 7
OMIT -5 -15 7
OMIT -4 -15 7
OMIT -10 -14 7
OMIT -7 -14 7
OMIT -6 -14 7
OMIT -4 -14 7
OMIT -3 -14 7
OMIT -1 -14 7
OMIT -7 -13 7
OMIT -6 -13 7
OMIT -4 -13 7
OMIT 7 -13 7
OMIT -11 -12 7
OMIT -9 -12 7
OMIT -8 -12 7
OMIT -4 -12 7
OMIT -3 -12 7
OMIT -2 -12 7
OMIT -1 -12 7
OMIT 2 -12 7
OMIT 3 -12 7
OMIT 6 -12 7
OMIT -12 -11 7
OMIT -10 -11 7
OMIT -6 -11 7
OMIT -3 -11 7
OMIT -2 -11 7
OMIT -1 -11 7
OMIT 2 -11 7
OMIT 4 -11 7
OMIT 5 -11 7
OMIT 6 -11 7
OMIT 7 -11 7
OMIT 8 -11 7
OMIT -12 -10 7
OMIT -11 -10 7
OMIT -9 -10 7
OMIT -8 -10 7
OMIT -7 -10 7
OMIT -6 -10 7
OMIT -3 -10 7
OMIT -2 -10 7
OMIT -1 -10 7
OMIT 3 -10 7
OMIT 4 -10 7
OMIT 5 -10 7
OMIT 6 -10 7
OMIT 7 -10 7
OMIT 8 -10 7
OMIT 9 -10 7
OMIT 10 -10 7
OMIT -13 -9 7
OMIT -11 -9 7
OMIT -10 -9 7
OMIT -9 -9 7
OMIT -7 -9 7
OMIT -6 -9 7
OMIT -5 -9 7
OMIT -4 -9 7
OMIT -3 -9 7
OMIT -2 -9 7
OMIT -1 -9 7
OMIT 0 -9 7
OMIT 1 -9 7
OMIT 2 -9 7
OMIT 3 -9 7
OMIT 4 -9 7
OMIT 5 -9 7
OMIT 6 -9 7
OMIT 7 -9 7
OMIT 8 -9 7
OMIT 11 -9 7
OMIT -13 -8 7
OMIT -11 -8 7
OMIT -9 -8 7
OMIT -8 -8 7
OMIT -7 -8 7
OMIT -6 -8 7
OMIT -5 -8 7
OMIT 2 -8 7
OMIT 4 -8 7
OMIT 5 -8 7
OMIT 6 -8 7
OMIT 7 -8 7
OMIT 9 -8 7
OMIT 10 -8 7
OMIT 11 -8 7
OMIT -10 -7 7
OMIT -9 -7 7
OMIT -7 -7 7
OMIT -6 -7 7
OMIT -3 -7 7
OMIT -2 -7 7
OMIT 1 -7 7
OMIT 4 -7 7
OMIT 5 -7 7
OMIT 6 -7 7
OMIT 8 -7 7
OMIT 9 -7 7
OMIT 10 -7 7
OMIT 11 -7 7
OMIT -13 -6 7
OMIT -12 -6 7
OMIT -11 -6 7
OMIT -10 -6 7
OMIT -9 -6 7
OMIT -6 -6 7
OMIT -5 -6 7
OMIT -4 -6 7
OMIT -3 -6 7
OMIT -1 -6 7
OMIT 0 -6 7
OMIT 1 -6 7
OMIT 3 -6 7
OMIT 4 -6 7
OMIT 5 -6 7
OMIT 6 -6 7
OMIT 7 -6 7
OMIT 8 -6 7
OMIT 9 -6 7
OMIT 11 -6 7
OMIT 12 -6 7
OMIT 13 -6 7
OMIT -11 -5 7
OMIT -9 -5 7
OMIT -8 -5 7
OMIT -7 -5 7
OMIT -6 -5 7
OMIT -3 -5 7
OMIT 0 -5 7
OMIT 2 -5 7
OMIT 3 -5 7
OMIT 5 -5 7
OMIT 6 -5 7
OMIT 7 -5 7
OMIT 8 -5 7
OMIT 9 -5 7
OMIT 10 -5 7
OMIT 11 -5 7
OMIT 13 -5 7
OMIT -13 -4 7
OMIT -11 -4 7
OMIT -10 -4 7
OMIT -9 -4 7
OMIT -7 -4 7
OMIT -6 -4 7
OMIT -4 -4 7
OMIT 0 -4 7
OMIT 3 -4 7
OMIT 4 -4 7
OMIT 5 -4 7
OMIT 7 -4 7
OMIT 8 -4 7
OMIT 9 -4 7
OMIT 10 -4 7
OMIT 13 -4 7
OMIT -13 -3 7
OMIT -11 -3 7
OMIT -10 -3 7
OMIT -9 -3 7
OMIT -7 -3 7
OMIT -6 -3 7
OMIT -5 -3 7
OMIT -4 -3 7
OMIT -3 -3 7
OMIT -2 -3 7
OMIT 4 -3 7
OMIT 5 -3 7
OMIT 6 -3 7
OMIT 11 -3 7
OMIT 12 -3 7
OMIT 14 -3 7
OMIT -13 -2 7
OMIT -12 -2 7
OMIT -11 -2 7
OMIT -10 -2 7
OMIT -9 -2 7
OMIT -7 -2 7
OMIT -3 -2 7
OMIT -2 -2 7
OMIT -1 -2 7
OMIT 2 -2 7
OMIT 5 -2 7
OMIT 6 -2 7
OMIT 9 -2 7
OMIT 11 -2 7
OMIT 12 -2 7
OMIT 14 -2 7
OMIT -13 -1 7
OMIT -12 -1 7
OMIT -10 -1 7
OMIT -9 -1 7
OMIT -8 -1 7
OMIT -6 -1 7
OMIT -5 -1 7
OMIT -3 -1 7
OMIT -2 -1 7
OMIT -1 -1 7
OMIT 0 -1 7
OMIT 1 -1 7
OMIT 3 -1 7
OMIT 4 -1 7
OMIT 5 -1 7
OMIT 6 -1 7
OMIT 7 -1 7
OMIT 11 -1 7
OMIT 12 -1 7
OMIT 13 -1 7
OMIT 15 -1 7
OMIT -13 0 7
OMIT -11 0 7
OMIT -8 0 7
OMIT -7 0 7
OMIT -6 0 7
OMIT -4 0 7
OMIT -1 0 7
OMIT 6 0 7
OMIT 8 0 7
OMIT 9 0 7
OMIT 10 0 7
OMIT 11 0 7
OMIT 12 0 7
OMIT 13 0 7
OMIT 14 0 7
OMIT 15 0 7
OMIT -12 1 7
OMIT -10 1 7
OMIT -8 1 7
OMIT -6 1 7
OMIT -5 1 7
OMIT -4 1 7
OMIT -3 1 7
OMIT -2 1 7
OMIT -1 1 7
OMIT 0 1 7
OMIT 1 1 7
OMIT 2 1 7
OMIT 3 1 7
OMIT 5 1 7
OMIT 7 1 7
OMIT 8 1 7
OMIT 10 1 7
OMIT 12 1 7
OMIT 15 1 7
OMIT 16 1 7
OMIT -12 2 7
OMIT -10 2 7
OMIT -9 2 7
OMIT -7 2 7
OMIT -5 2 7
OMIT -3 2 7
OMIT -2 2 7
OMIT -1 2 7
OMIT 0 2 7
OMIT 2 2 7
OMIT 3 2 7
OMIT 4 2 7
OMIT 5 2 7
OMIT 6 2 7
OMIT 11 2 7
OMIT 12 2 7
OMIT 14 2 7
OMIT 16 2 7
OMIT -11 3 7
OMIT -8 3 7
OMIT -7 3 7
OMIT -6 3 7
OMIT -5 3 7
OMIT -2 3 7
OMIT -1 3 7
OMIT 3 3 7
OMIT 4 3 7
OMIT 5 3 7
OMIT 6 3 7
OMIT 8 3 7
OMIT 9 3 7
OMIT 11 3 7
OMIT 12 3 7
OMIT 13 3 7
OMIT 14 3 7
OMIT 15 3 7
OMIT -11 4 7
OMIT -10 4 7
OMIT -9 4 7
OMIT -8 4 7
OMIT -6 4 7
OMIT -5 4 7
OMIT -4 4 7
OMIT -3 4 7
OMIT -2 4 7
OMIT 0 4 7
OMIT 1 4 7
OMIT 3 4 7
OMIT 5 4 7
OMIT 6 4 7
OMIT 9 4 7
OMIT 11 4 7
OMIT 14 4 7
OMIT 15 4 7
OMIT 16 4 7
OMIT -9 5 7
OMIT -8 5 7
OMIT -7 5 7
OMIT -6 5 7
OMIT -5 5 7
OMIT -4 5 7
OMIT -2 5 7
OMIT 0 5 7
OMIT 1 5 7
OMIT 3 5 7
OMIT 4 5 7
OMIT 6 5 7
OMIT 7 5 7
OMIT 8 5 7
OMIT 10 5 7
OMIT 13 5 7
OMIT 16 5 7
OMIT -9 6 7
OMIT -8 6 7
OMIT -6 6 7
OMIT -5 6 7
OMIT -4 6 7
OMIT -3 6 7
OMIT 1 6 7
OMIT 2 6 7
OMIT 7 6 7
OMIT 8 6 7
OMIT 11 6 7
OMIT 12 6 7
OMIT 15 6 7
OMIT -8 7 7
OMIT -6 7 7
OMIT -5 7 7
OMIT -1 7 7
OMIT 2 7 7
OMIT 4 7 7
OMIT 5 7 7
OMIT 7 7 7
OMIT 9 7 7
OMIT 11 7 7
OMIT 12 7 7
OMIT 13 7 7
OMIT 14 7 7
OMIT 15 7 7
OMIT 16 7 7
OMIT -8 8 7
OMIT -6 8 7
OMIT -4 8 7
OMIT -3 8 7
OMIT -1 8 7
OMIT 1 8 7
OMIT 3 8 7
OMIT 4 8 7
OMIT 5 8 7
OMIT 10 8 7
OMIT 11 8 7
OMIT 12 8 7
OMIT 13 8 7
OMIT -4 9 7
OMIT -3 9 7
OMIT -2 9 7
OMIT -1 9 7
OMIT 0 9 7
OMIT 1 9 7
OMIT 3 9 7
OMIT 5 9 7
OMIT 6 9 7
OMIT 8 9 7
OMIT 9 9 7
OMIT 10 9 7
OMIT 11 9 7
OMIT 12 9 7
OMIT 13 9 7
OMIT 14 9 7
OMIT 15 9 7
OMIT 16 9 7
OMIT -7 10 7
OMIT -5 10 7
OMIT -4 10 7
OMIT -2 10 7
OMIT 0 10 7
OMIT 2 10 7
OMIT 3 10 7
OMIT 4 10 7
OMIT 5 10 7
OMIT 6 10 7
OMIT 7 10 7
OMIT 8 10 7
OMIT 9 10 7
OMIT 11 10 7
OMIT 12 10 7
OMIT 13 10 7
OMIT -6 11 7
OMIT -5 11 7
OMIT -4 11 7
OMIT -1 11 7
OMIT 0 11 7
OMIT 1 11 7
OMIT 2 11 7
OMIT 3 11 7
OMIT 7 11 7
OMIT 8 11 7
OMIT 9 11 7
OMIT 12 11 7
OMIT 15 11 7
OMIT -4 12 7
OMIT -3 12 7
OMIT -1 12 7
OMIT 0 12 7
OMIT 1 12 7
OMIT 2 12 7
OMIT 5 12 7
OMIT 8 12 7
OMIT 10 12 7
OMIT 12 12 7
OMIT 13 12 7
OMIT 14 12 7
OMIT -3 13 7
OMIT -2 13 7
OMIT 1 13 7
OMIT 4 13 7
OMIT 6 13 7
OMIT 8 13 7
OMIT 9 13 7
OMIT 12 13 7
OMIT 14 13 7
OMIT -3 14 7
OMIT -1 14 7
OMIT 0 14 7
OMIT 1 14 7
OMIT 2 14 7
OMIT 3 14 7
OMIT 5 14 7
OMIT 8 14 7
OMIT 10 14 7
OMIT 4 15 7
OMIT 6 15 7
OMIT 9 15 7
OMIT 12 15 7
OMIT 0 16 7
OMIT 4 16 7
OMIT 7 16 7
OMIT 9 16 7
OMIT -8 -15 8
OMIT -7 -15 8
OMIT -5 -15 8
OMIT -6 -14 8
OMIT -10 -13 8
OMIT -7 -13 8
OMIT -6 -13 8
OMIT -5 -13 8
OMIT -3 -13 8
OMIT 1 -13 8
OMIT 4 -13 8
OMIT 6 -13 8
OMIT -11 -12 8
OMIT -10 -12 8
OMIT -7 -12 8
OMIT -6 -12 8
OMIT -4 -12 8
OMIT -3 -12 8
OMIT 3 -12 8
OMIT 4 -12 8
OMIT 5 -12 8
OMIT 7 -12 8
OMIT -11 -11 8
OMIT -10 -11 8
OMIT -7 -11 8
OMIT -6 -11 8
OMIT -4 -11 8
OMIT -3 -11 8
OMIT 2 -11 8
OMIT 3 -11 8
OMIT 4 -11 8
OMIT 6 -11 8
OMIT 7 -11 8
OMIT 8 -11 8
OMIT 9 -11 8
OMIT -9 -10 8
OMIT -7 -10 8
OMIT -6 -10 8
OMIT -4 -10 8
OMIT -3 -10 8
OMIT -2 -10 8
OMIT -1 -10 8
OMIT 2 -10 8
OMIT 3 -10 8
OMIT 5 -10 8
OMIT 6 -10 8
OMIT 9 -10 8
OMIT -10 -9 8
OMIT -8 -9 8
OMIT -5 -9 8
OMIT -4 -9 8
OMIT -3 -9 8
OMIT -1 -9 8
OMIT 1 -9 8
OMIT 3 -9 8
OMIT 4 -9 8
OMIT 6 -9 8
OMIT 7 -9 8
OMIT 8 -9 8
OMIT 9 -9 8
OMIT 10 -9 8
OMIT -12 -8 8
OMIT -11 -8 8
OMIT -8 -8 8
OMIT -6 -8 8
OMIT -3 -8 8
OMIT -2 -8 8
OMIT -1 -8 8
OMIT 1 -8 8
OMIT 2 -8 8
OMIT 4 -8 8
OMIT 5 -8 8
OMIT 6 -8 8
OMIT 8 -8 8
OMIT 9 -8 8
OMIT 10 -8 8
OMIT 12 -8 8
OMIT -12 -7 8
OMIT -11 -7 8
OMIT -8 -7 8
OMIT -7 -7 8
OMIT -5 -7 8
OMIT -2 -7 8
OMIT -1 -7 8
OMIT 0 -7 8
OMIT 2 -7 8
OMIT 3 -7 8
OMIT 5 -7 8
OMIT 8 -7 8
OMIT 10 -7 8
OMIT 11 -7 8
OMIT -13 -6 8
OMIT -9 -6 8
OMIT -8 -6 8
OMIT -7 -6 8
OMIT -6 -6 8
OMIT -5 -6 8
OMIT -4 -6 8
OMIT -2 -6 8
OMIT 1 -6 8
OMIT 2 -6 8
OMIT 3 -6 8
OMIT 4 -6 8
OMIT 5 -6 8
OMIT 7 -6 8
OMIT 8 -6 8
OMIT 12 -6 8
OMIT -13 -5 8
OMIT -10 -5 8
OMIT -9 -5 8
OMIT -8 -5 8
OMIT -6 -5 8
OMIT -5 -5 8
OMIT -1 -5 8
OMIT 0 -5 8
OMIT 1 -5 8
OMIT 2 -5 8
OMIT 3 -5 8
OMIT 5 -5 8
OMIT 6 -5 8
OMIT 8 -5 8
OMIT 9 -5 8
OMIT 10 -5 8
OMIT 12 -5 8
OMIT -13 -4 8
OMIT -12 -4 8
OMIT -11 -4 8
OMIT -10 -4 8
OMIT -8 -4 8
OMIT -6 -4 8
OMIT -4 -4 8
OMIT -3 -4 8
OMIT -2 -4 8
OMIT 0 -4 8
OMIT 2 -4 8
OMIT 3 -4 8
OMIT 7 -4 8
OMIT 8 -4 8
OMIT 11 -4 8
OMIT 12 -4 8
OMIT 13 -4 8
OMIT -9 -3 8
OMIT -8 -3 8
OMIT -7 -3 8
OMIT -5 -3 8
OMIT -4 -3 8
OMIT -1 -3 8
OMIT 0 -3 8
OMIT 1 -3 8
OMIT 3 -3 8
OMIT 4 -3 8
OMIT 5 -3 8
OMIT 7 -3 8
OMIT 8 -3 8
OMIT 9 -3 8
OMIT 11 -3 8
OMIT 12 -3 8
OMIT 13 -3 8
OMIT -11 -2 8
OMIT -10 -2 8
OMIT -8 -2 8
OMIT -4 -2 8
OMIT 4 -2 8
OMIT 7 -2 8
OMIT 8 -2 8
OMIT 10 -2 8
OMIT 11 -2 8
OMIT 12 -2 8
OMIT 13 -2 8
OMIT -10 -1 8
OMIT -9 -1 8
OMIT -7 -1 8
OMIT -3 -1 8
OMIT -2 -1 8
OMIT -1 -1 8
OMIT 4 -1 8
OMIT 5 -1 8
OMIT 6 -1 8
OMIT 7 -1 8
OMIT 8 -1 8
OMIT 9 -1 8
OMIT 10 -1 8
OMIT 11 -1 8
OMIT 12 -1 8
OMIT 13 -1 8
OMIT 14 -1 8
OMIT -12 0 8
OMIT -11 0 8
OMIT -10 0 8
OMIT -9 0 8
OMIT -8 0 8
OMIT -7 0 8
OMIT -6 0 8
OMIT -5 0 8
OMIT -4 0 8
OMIT -3 0 8
OMIT -1 0 8
OMIT 2 0 8
OMIT 3 0 8
OMIT 4 0 8
OMIT 7 0 8
OMIT 10 0 8
OMIT -11 1 8
OMIT -10 1 8
OMIT -8 1 8
OMIT -7 1 8
OMIT -6 1 8
OMIT -5 1 8
OMIT -4 1 8
OMIT -3 1 8
OMIT -1 1 8
OMIT 0 1 8
OMIT 1 1 8
OMIT 3 1 8
OMIT 4 1 8
OMIT 6 1 8
OMIT 7 1 8
OMIT 9 1 8
OMIT 11 1 8
OMIT 12 1 8
OMIT 14 1 8
OMIT 15 1 8
OMIT 16 1 8
OMIT -11 2 8
OMIT -8 2 8
OMIT -7 2 8
OMIT -5 2 8
OMIT -4 2 8
OMIT -3 2 8
OMIT -2 2 8
OMIT 0 2 8
OMIT 1 2 8
OMIT 2 2 8
OMIT 4 2 8
OMIT 5 2 8
OMIT 6 2 8
OMIT 7 2 8
OMIT 8 2 8
OMIT 10 2 8
OMIT 13 2 8
OMIT 16 2 8
OMIT -11 3 8
OMIT -10 3 8
OMIT -8 3 8
OMIT -7 3 8
OMIT -6 3 8
OMIT -4 3 8
OMIT -3 3 8
OMIT -2 3 8
OMIT -1 3 8
OMIT 2 3 8
OMIT 3 3 8
OMIT 4 3 8
OMIT 8 3 8
OMIT 10 3 8
OMIT 11 3 8
OMIT 12 3 8
OMIT 13 3 8
OMIT 15 3 8
OMIT -10 4 8
OMIT -8 4 8
OMIT -7 4 8
OMIT -5 4 8
OMIT -2 4 8
OMIT -1 4 8
OMIT 0 4 8
OMIT 1 4 8
OMIT 5 4 8
OMIT 6 4 8
OMIT 8 4 8
OMIT 9 4 8
OMIT 10 4 8
OMIT 11 4 8
OMIT 13 4 8
OMIT -9 5 8
OMIT -8 5 8
OMIT -7 5 8
OMIT -6 5 8
OMIT -5 5 8
OMIT -3 5 8
OMIT -2 5 8
OMIT -1 5 8
OMIT 1 5 8
OMIT 4 5 8
OMIT 5 5 8
OMIT 6 5 8
OMIT 7 5 8
OMIT 10 5 8
OMIT 12 5 8
OMIT 14 5 8
OMIT -9 6 8
OMIT -7 6 8
OMIT -5 6 8
OMIT -4 6 8
OMIT -3 6 8
OMIT -2 6 8
OMIT -1 6 8
OMIT 0 6 8
OMIT 1 6 8
OMIT 2 6 8
OMIT 3 6 8
OMIT 6 6 8
OMIT 7 6 8
OMIT 9 6 8
OMIT 10 6 8
OMIT 11 6 8
OMIT 12 6 8
OMIT 13 6 8
OMIT 14 6 8
OMIT 15 6 8
OMIT -8 7 8
OMIT -7 7 8
OMIT -4 7 8
OMIT -3 7 8
OMIT -2 7 8
OMIT 0 7 8
OMIT 3 7 8
OMIT 6 7 8
OMIT 7 7 8
OMIT 8 7 8
OMIT 9 7 8
OMIT 10 7 8
OMIT 11 7 8
OMIT 12 7 8
OMIT 13 7 8
OMIT 15 7 8
OMIT -8 8 8
OMIT -7 8 8
OMIT -6 8 8
OMIT -4 8 8
OMIT -1 8 8
OMIT 0 8 8
OMIT 1 8 8
OMIT 2 8 8
OMIT 4 8 8
OMIT 5 8 8
OMIT 6 8 8
OMIT 7 8 8
OMIT 8 8 8
OMIT 9 8 8
OMIT 10 8 8
OMIT 12 8 8
OMIT 14 8 8
OMIT 15 8 8
OMIT 16 8 8
OMIT -6 9 8
OMIT -5 9 8
OMIT -4 9 8
OMIT -3 9 8
OMIT -2 9 8
OMIT -1 9 8
OMIT 0 9 8
OMIT 2 9 8
OMIT 5 9 8
OMIT 6 9 8
OMIT 7 9 8
OMIT 8 9 8
OMIT 11 9 8
OMIT 12 9 8
OMIT 13 9 8
OMIT 14 9 8
OMIT -6 10 8
OMIT -3 10 8
OMIT -1 10 8
OMIT 0 10 8
OMIT 1 10 8
OMIT 2 10 8
OMIT 3 10 8
OMIT 4 10 8
OMIT 5 10 8
OMIT 6 10 8
OMIT 9 10 8
OMIT 11 10 8
OMIT 12 10 8
OMIT 14 10 8
OMIT -3 11 8
OMIT -1 11 8
OMIT 0 11 8
OMIT 1 11 8
OMIT 2 11 8
OMIT 3 11 8
OMIT 5 11 8
OMIT 6 11 8
OMIT 7 11 8
OMIT 8 11 8
OMIT 9 11 8
OMIT 12 11 8
OMIT 13 11 8
OMIT 14 11 8
OMIT -3 12 8
OMIT 0 12 8
OMIT 2 12 8
OMIT 3 12 8
OMIT 4 12 8
OMIT 6 12 8
OMIT 9 12 8
OMIT 10 12 8
OMIT 13 12 8
OMIT -4 13 8
OMIT -3 13 8
OMIT -1 13 8
OMIT 0 13 8
OMIT 1 13 8
OMIT 2 13 8
OMIT 3 13 8
OMIT 6 13 8
OMIT 8 13 8
OMIT 0 14 8
OMIT 1 14 8
OMIT 2 14 8
OMIT 8 14 8
OMIT 0 15 8
OMIT 6 15 8
OMIT 2 16 8
OMIT 3 16 8
OMIT 5 16 8
OMIT 7 16 8
OMIT 7 17 8
OMIT 2 -14 9
OMIT -8 -13 9
OMIT -7 -13 9
OMIT -6 -13 9
OMIT 0 -13 9
OMIT 2 -13 9
OMIT -10 -12 9
OMIT -9 -12 9
OMIT -7 -12 9
OMIT -6 -12 9
OMIT 0 -12 9
OMIT 8 -12 9
OMIT -9 -11 9
OMIT -7 -11 9
OMIT -6 -11 9
OMIT -5 -11 9
OMIT 1 -11 9
OMIT 4 -11 9
OMIT 6 -11 9
OMIT -7 -10 9
OMIT -5 -10 9
OMIT -4 -10 9
OMIT 1 -10 9
OMIT 3 -10 9
OMIT 4 -10 9
OMIT 5 -10 9
OMIT 9 -10 9
OMIT -11 -9 9
OMIT -9 -9 9
OMIT -7 -9 9
OMIT -6 -9 9
OMIT -5 -9 9
OMIT -3 -9 9
OMIT -2 -9 9
OMIT 0 -9 9
OMIT 2 -9 9
OMIT 3 -9 9
OMIT 7 -9 9
OMIT 9 -9 9
OMIT 11 -9 9
OMIT -12 -8 9
OMIT -11 -8 9
OMIT -9 -8 9
OMIT -8 -8 9
OMIT -6 -8 9
OMIT -3 -8 9
OMIT -1 -8 9
OMIT 0 -8 9
OMIT 1 -8 9
OMIT 2 -8 9
OMIT 4 -8 9
OMIT 6 -8 9
OMIT 7 -8 9
OMIT 9 -8 9
OMIT -10 -7 9
OMIT -8 -7 9
OMIT -5 -7 9
OMIT -1 -7 9
OMIT 0 -7 9
OMIT 1 -7 9
OMIT 2 -7 9
OMIT 3 -7 9
OMIT 4 -7 9
OMIT 6 -7 9
OMIT 7 -7 9
OMIT 8 -7 9
OMIT 9 -7 9
OMIT 10 -7 9
OMIT 12 -7 9
OMIT -12 -6 9
OMIT -11 -6 9
OMIT -10 -6 9
OMIT -9 -6 9
OMIT -8 -6 9
OMIT -6 -6 9
OMIT -5 -6 9
OMIT -4 -6 9
OMIT -3 -6 9
OMIT -1 -6 9
OMIT 0 -6 9
OMIT 1 -6 9
OMIT 2 -6 9
OMIT 4 -6 9
OMIT 5 -6 9
OMIT 6 -6 9
OMIT 9 -6 9
OMIT 10 -6 9
OMIT -12 -5 9
OMIT -9 -5 9
OMIT -8 -5 9
OMIT -7 -5 9
OMIT -4 -5 9
OMIT -1 -5 9
OMIT 0 -5 9
OMIT 1 -5 9
OMIT 7 -5 9
OMIT 8 -5 9
OMIT 10 -5 9
OMIT 11 -5 9
OMIT 12 -5 9
OMIT -9 -4 9
OMIT -7 -4 9
OMIT -3 -4 9
OMIT -1 -4 9
OMIT 0 -4 9
OMIT 1 -4 9
OMIT 2 -4 9
OMIT 3 -4 9
OMIT 5 -4 9
OMIT 7 -4 9
OMIT 10 -4 9
OMIT 12 -4 9
OMIT -10 -3 9
OMIT -9 -3 9
OMIT -8 -3 9
OMIT -7 -3 9
OMIT -6 -3 9
OMIT -2 -3 9
OMIT 0 -3 9
OMIT 1 -3 9
OMIT 4 -3 9
OMIT 5 -3 9
OMIT 6 -3 9
OMIT 7 -3 9
OMIT 8 -3 9
OMIT 9 -3 9
OMIT 10 -3 9
OMIT 11 -3 9
OMIT -12 -2 9
OMIT -11 -2 9
OMIT -10 -2 9
OMIT -9 -2 9
OMIT -7 -2 9
OMIT -6 -2 9
OMIT -4 -2 9
OMIT -3 -2 9
OMIT -2 -2 9
OMIT -1 -2 9
OMIT 2 -2 9
OMIT 3 -2 9
OMIT 4 -2 9
OMIT 5 -2 9
OMIT 6 -2 9
OMIT 7 -2 9
OMIT 8 -2 9
OMIT 10 -2 9
OMIT 11 -2 9
OMIT 13 -2 9
OMIT -12 -1 9
OMIT -11 -1 9
OMIT -10 -1 9
OMIT -8 -1 9
OMIT -7 -1 9
OMIT -4 -1 9
OMIT -3 -1 9
OMIT 0 -1 9
OMIT 1 -1 9
OMIT 2 -1 9
OMIT 3 -1 9
OMIT 6 -1 9
OMIT 7 -1 9
OMIT 8 -1 9
OMIT 9 -1 9
OMIT 11 -1 9
OMIT 12 -1 9
OMIT 13 -1 9
OMIT 15 -1 9
OMIT -11 0 9
OMIT -10 0 9
OMIT -6 0 9
OMIT -5 0 9
OMIT -2 0 9
OMIT 0 0 9
OMIT 3 0 9
OMIT 5 0 9
OMIT 11 0 9
OMIT 16 0 9
OMIT -11 1 9
OMIT -10 1 9
OMIT -9 1 9
OMIT -8 1 9
OMIT -5 1 9
OMIT -3 1 9
OMIT -2 1 9
OMIT 7 1 9
OMIT 9 1 9
OMIT 11 1 9
OMIT 12 1 9
OMIT 13 1 9
OMIT 14 1 9
OMIT -11 2 9
OMIT -9 2 9
OMIT -8 2 9
OMIT -6 2 9
OMIT -5 2 9
OMIT -4 2 9
OMIT -3 2 9
OMIT 0 2 9
OMIT 2 2 9
OMIT 3 2 9
OMIT 11 2 9
OMIT 13 2 9
OMIT 14 2 9
OMIT 16 2 9
OMIT -11 3 9
OMIT -10 3 9
OMIT -7 3 9
OMIT -6 3 9
OMIT -5 3 9
OMIT -2 3 9
OMIT -1 3 9
OMIT 0 3 9
OMIT 2 3 9
OMIT 3 3 9
OMIT 6 3 9
OMIT 8 3 9
OMIT 9 3 9
OMIT 10 3 9
OMIT 13 3 9
OMIT 14 3 9
OMIT 16 3 9
OMIT -9 4 9
OMIT -8 4 9
OMIT -7 4 9
OMIT -6 4 9
OMIT -5 4 9
OMIT -4 4 9
OMIT -3 4 9
OMIT -1 4 9
OMIT 1 4 9
OMIT 4 4 9
OMIT 7 4 9
OMIT 8 4 9
OMIT 10 4 9
OMIT 11 4 9
OMIT 12 4 9
OMIT -10 5 9
OMIT -8 5 9
OMIT -7 5 9
OMIT -4 5 9
OMIT -3 5 9
OMIT -2 5 9
OMIT -1 5 9
OMIT 1 5 9
OMIT 2 5 9
OMIT 3 5 9
OMIT 4 5 9
OMIT 5 5 9
OMIT 6 5 9
OMIT 8 5 9
OMIT 10 5 9
OMIT 11 5 9
OMIT 12 5 9
OMIT 13 5 9
OMIT -5 6 9
OMIT -3 6 9
OMIT -2 6 9
OMIT -1 6 9
OMIT 1 6 9
OMIT 4 6 9
OMIT 6 6 9
OMIT 7 6 9
OMIT 8 6 9
OMIT 12 6 9
OMIT 14 6 9
OMIT -8 7 9
OMIT -3 7 9
OMIT -2 7 9
OMIT 3 7 9
OMIT 4 7 9
OMIT 5 7 9
OMIT 6 7 9
OMIT 7 7 9
OMIT 8 7 9
OMIT 9 7 9
OMIT 10 7 9
OMIT 13 7 9
OMIT 14 7 9
OMIT -8 8 9
OMIT -5 8 9
OMIT -3 8 9
OMIT -2 8 9
OMIT -1 8 9
OMIT 0 8 9
OMIT 1 8 9
OMIT 2 8 9
OMIT 4 8 9
OMIT 6 8 9
OMIT 7 8 9
OMIT 9 8 9
OMIT 10 8 9
OMIT -5 9 9
OMIT -3 9 9
OMIT -2 9 9
OMIT -1 9 9
OMIT 0 9 9
OMIT 1 9 9
OMIT 2 9 9
OMIT 3 9 9
OMIT 4 9 9
OMIT 5 9 9
OMIT 6 9 9
OMIT 7 9 9
OMIT 8 9 9
OMIT 9 9 9
OMIT 10 9 9
OMIT -4 10 9
OMIT -1 10 9
OMIT 0 10 9
OMIT 2 10 9
OMIT 3 10 9
OMIT 4 10 9
OMIT 5 10 9
OMIT 7 10 9
OMIT -2 11 9
OMIT -1 11 9
OMIT 0 11 9
OMIT 1 11 9
OMIT 3 11 9
OMIT 5 11 9
OMIT 6 11 9
OMIT 7 11 9
OMIT 9 11 9
OMIT 12 11 9
OMIT -3 12 9
OMIT -2 12 9
OMIT -1 12 9
OMIT 1 12 9
OMIT 2 12 9
OMIT 4 12 9
OMIT 5 12 9
OMIT 6 12 9
OMIT 7 12 9
OMIT 8 12 9
OMIT 9 12 9
OMIT -3 13 9
OMIT 5 13 9
OMIT 7 13 9
OMIT 0 14 9
OMIT 2 14 9
OMIT 3 14 9
OMIT 4 14 9
OMIT 7 14 9
OMIT 8 14 9
OMIT 0 15 9
OMIT 2 15 9
OMIT 6 15 9
OMIT 8 15 9
OMIT 2 16 9
OMIT -9 -13 10
OMIT 2 -13 10
OMIT 5 -13 10
OMIT -9 -12 10
OMIT -8 -12 10
OMIT 2 -12 10
OMIT 7 -12 10
OMIT 8 -12 10
OMIT -10 -11 10
OMIT -8 -11 10
OMIT -6 -11 10
OMIT -5 -11 10
OMIT 0 -11 10
OMIT 2 -11 10
OMIT 5 -11 10
OMIT 8 -11 10
OMIT -11 -10 10
OMIT -10 -10 10
OMIT -9 -10 10
OMIT -6 -10 10
OMIT 3 -10 10
OMIT 5 -10 10
OMIT 7 -10 10
OMIT 8 -10 10
OMIT -11 -9 10
OMIT -10 -9 10
OMIT -7 -9 10
OMIT -6 -9 10
OMIT -5 -9 10
OMIT -4 -9 10
OMIT -3 -9 10
OMIT 0 -9 10
OMIT 1 -9 10
OMIT 3 -9 10
OMIT 4 -9 10
OMIT 6 -9 10
OMIT 7 -9 10
OMIT 8 -9 10
OMIT 11 -9 10
OMIT -8 -8 10
OMIT -1 -8 10
OMIT 0 -8 10
OMIT 1 -8 10
OMIT 2 -8 10
OMIT 4 -8 10
OMIT 5 -8 10
OMIT 6 -8 10
OMIT 7 -8 10
OMIT 8 -8 10
OMIT 9 -8 10
OMIT 10 -8 10
OMIT 11 -8 10
OMIT -11 -7 10
OMIT -9 -7 10
OMIT -8 -7 10
OMIT -7 -7 10
OMIT -6 -7 10
OMIT -5 -7 10
OMIT -2 -7 10
OMIT 0 -7 10
OMIT 5 -7 10
OMIT 7 -7 10
OMIT 8 -7 10
OMIT 9 -7 10
OMIT 10 -7 10
OMIT 11 -7 10
OMIT -11 -6 10
OMIT -10 -6 10
OMIT -9 -6 10
OMIT -7 -6 10
OMIT -5 -6 10
OMIT -4 -6 10
OMIT -3 -6 10
OMIT -1 -6 10
OMIT 1 -6 10
OMIT 2 -6 10
OMIT 7 -6 10
OMIT 8 -6 10
OMIT 11 -6 10
OMIT -12 -5 10
OMIT -11 -5 10
OMIT -10 -5 10
OMIT -9 -5 10
OMIT -8 -5 10
OMIT -7 -5 10
OMIT -6 -5 10
OMIT -5 -5 10
OMIT -3 -5 10
OMIT -2 -5 10
OMIT -1 -5 10
OMIT 0 -5 10
OMIT 1 -5 10
OMIT 2 -5 10
OMIT 6 -5 10
OMIT 8 -5 10
OMIT 10 -5 10
OMIT 11 -5 10
OMIT 12 -5 10
OMIT -11 -4 10
OMIT -10 -4 10
OMIT -9 -4 10
OMIT -6 -4 10
OMIT -4 -4 10
OMIT -2 -4 10
OMIT 0 -4 10
OMIT 2 -4 10
OMIT 3 -4 10
OMIT 4 -4 10
OMIT 6 -4 10
OMIT 7 -4 10
OMIT 8 -4 10
OMIT 12 -4 10
OMIT 13 -4 10
OMIT -11 -3 10
OMIT -10 -3 10
OMIT -9 -3 10
OMIT -7 -3 10
OMIT -6 -3 10
OMIT -4 -3 10
OMIT -2 -3 10
OMIT -1 -3 10
OMIT 1 -3 10
OMIT 2 -3 10
OMIT 3 -3 10
OMIT 5 -3 10
OMIT 6 -3 10
OMIT 8 -3 10
OMIT 9 -3 10
OMIT 10 -3 10
OMIT 11 -3 10
OMIT 15 -3 10
OMIT -9 -2 10
OMIT -7 -2 10
OMIT -5 -2 10
OMIT -2 -2 10
OMIT 3 -2 10
OMIT 6 -2 10
OMIT 7 -2 10
OMIT 9 -2 10
OMIT 11 -2 10
OMIT 14 -2 10
OMIT -7 -1 10
OMIT -6 -1 10
OMIT -4 -1 10
OMIT -3 -1 10
OMIT -1 -1 10
OMIT 0 -1 10
OMIT 3 -1 10
OMIT 7 -1 10
OMIT 8 -1 10
OMIT 9 -1 10
OMIT 11 -1 10
OMIT -11 0 10
OMIT -10 0 10
OMIT -5 0 10
OMIT -3 0 10
OMIT -1 0 10
OMIT 0 0 10
OMIT 2 0 10
OMIT 3 0 10
OMIT 4 0 10
OMIT 5 0 10
OMIT 6 0 10
OMIT 8 0 10
OMIT 9 0 10
OMIT 10 0 10
OMIT 11 0 10
OMIT 13 0 10
OMIT 14 0 10
OMIT -11 1 10
OMIT -10 1 10
OMIT -9 1 10
OMIT -7 1 10
OMIT -6 1 10
OMIT -4 1 10
OMIT -3 1 10
OMIT -2 1 10
OMIT -1 1 10
OMIT 0 1 10
OMIT 2 1 10
OMIT 3 1 10
OMIT 4 1 10
OMIT 5 1 10
OMIT 6 1 10
OMIT 7 1 10
OMIT 8 1 10
OMIT 9 1 10
OMIT 14 1 10
OMIT 15 1 10
OMIT -10 2 10
OMIT -9 2 10
OMIT -8 2 10
OMIT -7 2 10
OMIT -5 2 10
OMIT -3 2 10
OMIT -2 2 10
OMIT -1 2 10
OMIT 3 2 10
OMIT 7 2 10
OMIT 8 2 10
OMIT 9 2 10
OMIT 11 2 10
OMIT 13 2 10
OMIT 15 2 10
OMIT 16 2 10
OMIT -8 3 10
OMIT -7 3 10
OMIT -3 3 10
OMIT -1 3 10
OMIT 1 3 10
OMIT 3 3 10
OMIT 4 3 10
OMIT 6 3 10
OMIT 7 3 10
OMIT 8 3 10
OMIT 9 3 10
OMIT 10 3 10
OMIT 12 3 10
OMIT 13 3 10
OMIT 14 3 10
OMIT -10 4 10
OMIT -9 4 10
OMIT -8 4 10
OMIT -6 4 10
OMIT -5 4 10
OMIT -3 4 10
OMIT -2 4 10
OMIT -1 4 10
OMIT 0 4 10
OMIT 4 4 10
OMIT 6 4 10
OMIT 9 4 10
OMIT 12 4 10
OMIT 14 4 10
OMIT -9 5 10
OMIT -8 5 10
OMIT -6 5 10
OMIT -5 5 10
OMIT -2 5 10
OMIT -1 5 10
OMIT 0 5 10
OMIT 1 5 10
OMIT 2 5 10
OMIT 3 5 10
OMIT 6 5 10
OMIT 7 5 10
OMIT 8 5 10
OMIT 10 5 10
OMIT 13 5 10
OMIT 14 5 10
OMIT 16 5 10
OMIT -8 6 10
OMIT -7 6 10
OMIT -6 6 10
OMIT -5 6 10
OMIT -3 6 10
OMIT -2 6 10
OMIT -1 6 10
OMIT 1 6 10
OMIT 2 6 10
OMIT 5 6 10
OMIT 7 6 10
OMIT 8 6 10
OMIT 9 6 10
OMIT 10 6 10
OMIT 11 6 10
OMIT -7 7 10
OMIT -6 7 10
OMIT -5 7 10
OMIT -4 7 10
OMIT -3 7 10
OMIT -2 7 10
OMIT -1 7 10
OMIT 0 7 10
OMIT 1 7 10
OMIT 2 7 10
OMIT 4 7 10
OMIT 5 7 10
OMIT 7 7 10
OMIT 8 7 10
OMIT 9 7 10
OMIT 13 7 10
OMIT -7 8 10
OMIT -5 8 10
OMIT -4 8 10
OMIT -2 8 10
OMIT -1 8 10
OMIT 0 8 10
OMIT 1 8 10
OMIT 2 8 10
OMIT 3 8 10
OMIT 4 8 10
OMIT 5 8 10
OMIT 8 8 10
OMIT 9 8 10
OMIT 12 8 10
OMIT 13 8 10
OMIT -5 9 10
OMIT -4 9 10
OMIT 0 9 10
OMIT 1 9 10
OMIT 2 9 10
OMIT 4 9 10
OMIT 9 9 10
OMIT 10 9 10
OMIT 11 9 10
OMIT 12 9 10
OMIT 13 9 10
OMIT -5 10 10
OMIT -2 10 10
OMIT -1 10 10
OMIT 0 10 10
OMIT 1 10 10
OMIT 2 10 10
OMIT 3 10 10
OMIT 4 10 10
OMIT 5 10 10
OMIT 6 10 10
OMIT 7 10 10
OMIT 9 10 10
OMIT 10 10 10
OMIT -5 11 10
OMIT -4 11 10
OMIT -3 11 10
OMIT -2 11 10
OMIT -1 11 10
OMIT 0 11 10
OMIT 1 11 10
OMIT 3 11 10
OMIT 4 11 10
OMIT 6 11 10
OMIT 9 11 10
OMIT -4 12 10
OMIT 0 12 10
OMIT 1 12 10
OMIT 3 12 10
OMIT 4 12 10
OMIT 6 12 10
OMIT 7 12 10
OMIT 9 12 10
OMIT -1 13 10
OMIT 1 13 10
OMIT 3 13 10
OMIT 4 13 10
OMIT 5 13 10
OMIT 7 13 10
OMIT 9 13 10
OMIT 3 14 10
OMIT 7 14 10
OMIT 5 15 10
OMIT 4 16 10
OMIT -6 -12 11
OMIT -5 -12 11
OMIT 7 -12 11
OMIT -7 -11 11
OMIT 8 -11 11
OMIT -9 -10 11
OMIT -8 -10 11
OMIT -4 -10 11
OMIT 0 -10 11
OMIT 2 -10 11
OMIT 4 -10 11
OMIT 5 -10 11
OMIT 8 -10 11
OMIT -9 -9 11
OMIT -8 -9 11
OMIT -7 -9 11
OMIT -4 -9 11
OMIT -3 -9 11
OMIT -2 -9 11
OMIT 0 -9 11
OMIT 1 -9 11
OMIT 5 -9 11
OMIT 6 -9 11
OMIT 8 -9 11
OMIT 9 -9 11
OMIT -11 -8 11
OMIT -10 -8 11
OMIT -9 -8 11
OMIT -7 -8 11
OMIT -6 -8 11
OMIT -3 -8 11
OMIT -2 -8 11
OMIT -1 -8 11
OMIT 0 -8 11
OMIT 1 -8 11
OMIT 2 -8 11
OMIT 3 -8 11
OMIT 7 -8 11
OMIT 8 -8 11
OMIT 9 -8 11
OMIT 11 -8 11
OMIT -11 -7 11
OMIT -9 -7 11
OMIT -7 -7 11
OMIT -6 -7 11
OMIT -5 -7 11
OMIT -4 -7 11
OMIT -2 -7 11
OMIT 0 -7 11
OMIT 2 -7 11
OMIT 4 -7 11
OMIT 5 -7 11
OMIT 6 -7 11
OMIT 7 -7 11
OMIT 8 -7 11
OMIT 10 -7 11
OMIT 12 -7 11
OMIT -10 -6 11
OMIT -8 -6 11
OMIT -3 -6 11
OMIT -2 -6 11
OMIT 0 -6 11
OMIT 1 -6 11
OMIT 2 -6 11
OMIT 4 -6 11
OMIT 5 -6 11
OMIT 6 -6 11
OMIT 7 -6 11
OMIT 8 -6 11
OMIT 9 -6 11
OMIT 10 -6 11
OMIT 11 -6 11
OMIT 12 -6 11
OMIT -8 -5 11
OMIT -7 -5 11
OMIT -6 -5 11
OMIT -4 -5 11
OMIT -3 -5 11
OMIT -1 -5 11
OMIT 0 -5 11
OMIT 2 -5 11
OMIT 3 -5 11
OMIT 4 -5 11
OMIT 6 -5 11
OMIT 7 -5 11
OMIT 8 -5 11
OMIT 10 -5 11
OMIT 11 -5 11
OMIT 12 -5 11
OMIT -11 -4 11
OMIT -9 -4 11
OMIT -6 -4 11
OMIT -4 -4 11
OMIT -1 -4 11
OMIT 0 -4 11
OMIT 1 -4 11
OMIT 2 -4 11
OMIT 3 -4 11
OMIT 6 -4 11
OMIT 8 -4 11
OMIT -11 -3 11
OMIT -10 -3 11
OMIT -7 -3 11
OMIT -5 -3 11
OMIT -4 -3 11
OMIT -3 -3 11
OMIT 1 -3 11
OMIT 2 -3 11
OMIT 10 -3 11
OMIT 11 -3 11
OMIT 12 -3 11
OMIT -10 -2 11
OMIT -9 -2 11
OMIT -8 -2 11
OMIT -7 -2 11
OMIT -5 -2 11
OMIT -2 -2 11
OMIT 0 -2 11
OMIT 1 -2 11
OMIT 4 -2 11
OMIT 5 -2 11
OMIT 6 -2 11
OMIT 7 -2 11
OMIT 8 -2 11
OMIT 12 -2 11
OMIT 13 -2 11
OMIT -11 -1 11
OMIT -9 -1 11
OMIT -8 -1 11
OMIT -7 -1 11
OMIT -6 -1 11
OMIT -4 -1 11
OMIT -1 -1 11
OMIT 1 -1 11
OMIT 2 -1 11
OMIT 3 -1 11
OMIT 4 -1 11
OMIT 6 -1 11
OMIT 7 -1 11
OMIT 8 -1 11
OMIT 9 -1 11
OMIT 15 -1 11
OMIT -9 0 11
OMIT -8 0 11
OMIT -7 0 11
OMIT -5 0 11
OMIT -4 0 11
OMIT -3 0 11
OMIT 0 0 11
OMIT 1 0 11
OMIT 2 0 11
OMIT 3 0 11
OMIT 4 0 11
OMIT 5 0 11
OMIT 6 0 11
OMIT 7 0 11
OMIT 9 0 11
OMIT 10 0 11
OMIT 12 0 11
OMIT 13 0 11
OMIT 14 0 11
OMIT 15 0 11
OMIT -9 1 11
OMIT -7 1 11
OMIT -6 1 11
OMIT -5 1 11
OMIT -4 1 11
OMIT -3 1 11
OMIT -1 1 11
OMIT 0 1 11
OMIT 1 1 11
OMIT 3 1 11
OMIT 4 1 11
OMIT 5 1 11
OMIT 6 1 11
OMIT 9 1 11
OMIT 10 1 11
OMIT 11 1 11
OMIT 15 1 11
OMIT -10 2 11
OMIT -8 2 11
OMIT -7 2 11
OMIT -3 2 11
OMIT -1 2 11
OMIT 2 2 11
OMIT 5 2 11
OMIT 6 2 11
OMIT 7 2 11
OMIT 8 2 11
OMIT 9 2 11
OMIT 10 2 11
OMIT 12 2 11
OMIT 13 2 11
OMIT -6 3 11
OMIT -4 3 11
OMIT -2 3 11
OMIT -1 3 11
OMIT 0 3 11
OMIT 3 3 11
OMIT 4 3 11
OMIT 5 3 11
OMIT 7 3 11
OMIT 9 3 11
OMIT 12 3 11
OMIT 13 3 11
OMIT 14 3 11
OMIT -7 4 11
OMIT -6 4 11
OMIT -4 4 11
OMIT -2 4 11
OMIT 0 4 11
OMIT 4 4 11
OMIT 5 4 11
OMIT 6 4 11
OMIT 7 4 11
OMIT 15 4 11
OMIT -9 5 11
OMIT -8 5 11
OMIT -7 5 11
OMIT -3 5 11
OMIT 0 5 11
OMIT 1 5 11
OMIT 4 5 11
OMIT 6 5 11
OMIT 7 5 11
OMIT 8 5 11
OMIT 10 5 11
OMIT 11 5 11
OMIT 12 5 11
OMIT 13 5 11
OMIT -8 6 11
OMIT -7 6 11
OMIT -4 6 11
OMIT -3 6 11
OMIT -1 6 11
OMIT 0 6 11
OMIT 1 6 11
OMIT 3 6 11
OMIT 5 6 11
OMIT 6 6 11
OMIT 7 6 11
OMIT 8 6 11
OMIT 9 6 11
OMIT 10 6 11
OMIT 11 6 11
OMIT 14 6 11
OMIT -6 7 11
OMIT -5 7 11
OMIT -3 7 11
OMIT -1 7 11
OMIT 0 7 11
OMIT 1 7 11
OMIT 2 7 11
OMIT 3 7 11
OMIT 4 7 11
OMIT 5 7 11
OMIT 6 7 11
OMIT 10 7 11
OMIT 11 7 11
OMIT 12 7 11
OMIT -4 8 11
OMIT -2 8 11
OMIT -1 8 11
OMIT 0 8 11
OMIT 2 8 11
OMIT 3 8 11
OMIT 5 8 11
OMIT 6 8 11
OMIT 7 8 11
OMIT 10 8 11
OMIT 11 8 11
OMIT 12 8 11
OMIT -3 9 11
OMIT 1 9 11
OMIT 2 9 11
OMIT 3 9 11
OMIT 5 9 11
OMIT 6 9 11
OMIT 8 9 11
OMIT 9 9 11
OMIT -5 10 11
OMIT -4 10 11
OMIT -2 10 11
OMIT -1 10 11
OMIT 0 10 11
OMIT 1 10 11
OMIT 2 10 11
OMIT 4 10 11
OMIT 5 10 11
OMIT 6 10 11
OMIT 8 10 11
OMIT 10 10 11
OMIT 12 10 11
OMIT -4 11 11
OMIT -3 11 11
OMIT -2 11 11
OMIT 0 11 11
OMIT 1 11 11
OMIT 2 11 11
OMIT 5 11 11
OMIT 9 11 11
OMIT 10 11 11
OMIT 13 11 11
OMIT 2 12 11
OMIT 3 12 11
OMIT 4 12 11
OMIT 6 12 11
OMIT 7 12 11
OMIT 8 12 11
OMIT 9 12 11
OMIT 10 12 11
OMIT -1 13 11
OMIT 0 13 11
OMIT 1 13 11
OMIT 4 13 11
OMIT 6 13 11
OMIT 2 14 11
OMIT 3 14 11
OMIT 5 14 11
OMIT 6 14 11
OMIT 7 14 11
OMIT 8 14 11
OMIT 7 15 11
OMIT 6 16 11
OMIT 7 16 11
OMIT -7 -13 12
OMIT -7 -12 12
OMIT -5 -12 12
OMIT 4 -12 12
OMIT -5 -11 12
OMIT 1 -11 12
OMIT -9 -10 12
OMIT -6 -10 12
OMIT -5 -10 12
OMIT -4 -10 12
OMIT 1 -10 12
OMIT 2 -10 12
OMIT 3 -10 12
OMIT 5 -10 12
OMIT 7 -10 12
OMIT 9 -10 12
OMIT -10 -9 12
OMIT -7 -9 12
OMIT -6 -9 12
OMIT -5 -9 12
OMIT -3 -9 12
OMIT -1 -9 12
OMIT 0 -9 12
OMIT 1 -9 12
OMIT 4 -9 12
OMIT 7 -9 12
OMIT 8 -9 12
OMIT 9 -9 12
OMIT -8 -8 12
OMIT -7 -8 12
OMIT -6 -8 12
OMIT -4 -8 12
OMIT -3 -8 12
OMIT -2 -8 12
OMIT -1 -8 12
OMIT 0 -8 12
OMIT 1 -8 12
OMIT 2 -8 12
OMIT 4 -8 12
OMIT 5 -8 12
OMIT 9 -8 12
OMIT -10 -7 12
OMIT -9 -7 12
OMIT -6 -7 12
OMIT -4 -7 12
OMIT -1 -7 12
OMIT 0 -7 12
OMIT 1 -7 12
OMIT 2 -7 12
OMIT 3 -7 12
OMIT 4 -7 12
OMIT 6 -7 12
OMIT 7 -7 12
OMIT 8 -7 12
OMIT 9 -7 12
OMIT 11 -7 12
OMIT -10 -6 12
OMIT -9 -6 12
OMIT -8 -6 12
OMIT -7 -6 12
OMIT -6 -6 12
OMIT -5 -6 12
OMIT -4 -6 12
OMIT -3 -6 12
OMIT -2 -6 12
OMIT -1 -6 12
OMIT 0 -6 12
OMIT 1 -6 12
OMIT 2 -6 12
OMIT 3 -6 12
OMIT 4 -6 12
OMIT 5 -6 12
OMIT 6 -6 12
OMIT 7 -6 12
OMIT 8 -6 12
OMIT 9 -6 12
OMIT 10 -6 12
OMIT 12 -6 12
OMIT -9 -5 12
OMIT -7 -5 12
OMIT -6 -5 12
OMIT -2 -5 12
OMIT -1 -5 12
OMIT 1 -5 12
OMIT 2 -5 12
OMIT 3 -5 12
OMIT 4 -5 12
OMIT 5 -5 12
OMIT 7 -5 12
OMIT 11 -5 12
OMIT -8 -4 12
OMIT -4 -4 12
OMIT 1 -4 12
OMIT 2 -4 12
OMIT 3 -4 12
OMIT 4 -4 12
OMIT 6 -4 12
OMIT 7 -4 12
OMIT 8 -4 12
OMIT 9 -4 12
OMIT 11 -4 12
OMIT 12 -4 12
OMIT -9 -3 12
OMIT -8 -3 12
OMIT -7 -3 12
OMIT -6 -3 12
OMIT -5 -3 12
OMIT -4 -3 12
OMIT -2 -3 12
OMIT -1 -3 12
OMIT 2 -3 12
OMIT 3 -3 12
OMIT 4 -3 12
OMIT 6 -3 12
OMIT 7 -3 12
OMIT 8 -3 12
OMIT 9 -3 12
OMIT 11 -3 12
OMIT -8 -2 12
OMIT -6 -2 12
OMIT -5 -2 12
OMIT -1 -2 12
OMIT 0 -2 12
OMIT 1 -2 12
OMIT 2 -2 12
OMIT 3 -2 12
OMIT 4 -2 12
OMIT 5 -2 12
OMIT 7 -2 12
OMIT 8 -2 12
OMIT 9 -2 12
OMIT -10 -1 12
OMIT -7 -1 12
OMIT -6 -1 12
OMIT -5 -1 12
OMIT -4 -1 12
OMIT -3 -1 12
OMIT -2 -1 12
OMIT -1 -1 12
OMIT 0 -1 12
OMIT 3 -1 12
OMIT 4 -1 12
OMIT 6 -1 12
OMIT 7 -1 12
OMIT 8 -1 12
OMIT 11 -1 12
OMIT 12 -1 12
OMIT 13 -1 12
OMIT -10 0 12
OMIT -9 0 12
OMIT -8 0 12
OMIT -7 0 12
OMIT -3 0 12
OMIT -2 0 12
OMIT 0 0 12
OMIT 3 0 12
OMIT 5 0 12
OMIT 8 0 12
OMIT 9 0 12
OMIT 11 0 12
OMIT 13 0 12
OMIT 14 0 12
OMIT -8 1 12
OMIT -7 1 12
OMIT -5 1 12
OMIT -4 1 12
OMIT -3 1 12
OMIT -2 1 12
OMIT -1 1 12
OMIT 0 1 12
OMIT 1 1 12
OMIT 2 1 12
OMIT 3 1 12
OMIT 5 1 12
OMIT 7 1 12
OMIT 9 1 12
OMIT 10 1 12
OMIT 11 1 12
OMIT 14 1 12
OMIT 15 1 12
OMIT -9 2 12
OMIT -8 2 12
OMIT -7 2 12
OMIT -6 2 12
OMIT -5 2 12
OMIT -4 2 12
OMIT -2 2 12
OMIT -1 2 12
OMIT 0 2 12
OMIT 2 2 12
OMIT 3 2 12
OMIT 4 2 12
OMIT 6 2 12
OMIT 8 2 12
OMIT 10 2 12
OMIT 11 2 12
OMIT 12 2 12
OMIT 13 2 12
OMIT 14 2 12
OMIT 15 2 12
OMIT 16 2 12
OMIT -8 3 12
OMIT -7 3 12
OMIT -6 3 12
OMIT -5 3 12
OMIT -4 3 12
OMIT -3 3 12
OMIT -1 3 12
OMIT 0 3 12
OMIT 1 3 12
OMIT 2 3 12
OMIT 4 3 12
OMIT 5 3 12
OMIT 6 3 12
OMIT 7 3 12
OMIT 8 3 12
OMIT 10 3 12
OMIT 14 3 12
OMIT 15 3 12
OMIT -8 4 12
OMIT -5 4 12
OMIT -4 4 12
OMIT -3 4 12
OMIT -2 4 12
OMIT -1 4 12
OMIT 2 4 12
OMIT 6 4 12
OMIT 9 4 12
OMIT 11 4 12
OMIT 12 4 12
OMIT -6 5 12
OMIT -5 5 12
OMIT -3 5 12
OMIT -2 5 12
OMIT -1 5 12
OMIT 0 5 12
OMIT 1 5 12
OMIT 2 5 12
OMIT 3 5 12
OMIT 6 5 12
OMIT 7 5 12
OMIT 9 5 12
OMIT 10 5 12
OMIT 11 5 12
OMIT 12 5 12
OMIT 13 5 12
OMIT 15 5 12
OMIT -6 6 12
OMIT -4 6 12
OMIT -1 6 12
OMIT 2 6 12
OMIT 4 6 12
OMIT 5 6 12
OMIT 6 6 12
OMIT 7 6 12
OMIT 9 6 12
OMIT 15 6 12
OMIT -7 7 12
OMIT -5 7 12
OMIT -3 7 12
OMIT -2 7 12
OMIT 0 7 12
OMIT 1 7 12
OMIT 5 7 12
OMIT 6 7 12
OMIT 7 7 12
OMIT 9 7 12
OMIT -1 8 12
OMIT 3 8 12
OMIT 5 8 12
OMIT 6 8 12
OMIT 8 8 12
OMIT 10 8 12
OMIT 11 8 12
OMIT -5 9 12
OMIT -4 9 12
OMIT -3 9 12
OMIT -1 9 12
OMIT 0 9 12
OMIT 1 9 12
OMIT 2 9 12
OMIT 4 9 12
OMIT 5 9 12
OMIT 6 9 12
OMIT 7 9 12
OMIT 8 9 12
OMIT 9 9 12
OMIT 10 9 12
OMIT 12 9 12
OMIT 16 9 12
OMIT -5 10 12
OMIT 0 10 12
OMIT 2 10 12
OMIT 9 10 12
OMIT 10 10 12
OMIT 11 10 12
OMIT 12 10 12
OMIT -3 11 12
OMIT 0 11 12
OMIT 2 11 12
OMIT 5 11 12
OMIT 6 11 12
OMIT 8 11 12
OMIT 9 11 12
OMIT 10 11 12
OMIT 0 12 12
OMIT 3 12 12
OMIT 5 12 12
OMIT 7 12 12
OMIT 8 12 12
OMIT 2 13 12
OMIT 3 13 12
OMIT 3 14 12
OMIT 5 14 12
OMIT 6 14 12
OMIT 7 14 12
OMIT 6 16 12
OMIT 5 -13 13
OMIT -7 -12 13
OMIT 3 -12 13
OMIT -7 -11 13
OMIT 2 -11 13
OMIT 6 -11 13
OMIT -8 -10 13
OMIT -7 -10 13
OMIT -5 -10 13
OMIT 0 -10 13
OMIT 2 -10 13
OMIT 3 -10 13
OMIT 4 -10 13
OMIT 6 -10 13
OMIT 7 -10 13
OMIT 8 -10 13
OMIT -8 -9 13
OMIT -6 -9 13
OMIT -5 -9 13
OMIT -4 -9 13
OMIT -3 -9 13
OMIT -2 -9 13
OMIT -1 -9 13
OMIT 0 -9 13
OMIT 1 -9 13
OMIT 3 -9 13
OMIT 4 -9 13
OMIT 6 -9 13
OMIT 7 -9 13
OMIT 8 -9 13
OMIT 10 -9 13
OMIT -6 -8 13
OMIT -3 -8 13
OMIT -1 -8 13
OMIT 1 -8 13
OMIT 2 -8 13
OMIT 3 -8 13
OMIT 7 -8 13
OMIT 9 -8 13
OMIT 10 -8 13
OMIT 11 -8 13
OMIT -9 -7 13
OMIT -7 -7 13
OMIT -6 -7 13
OMIT -5 -7 13
OMIT -4 -7 13
OMIT -3 -7 13
OMIT -1 -7 13
OMIT 0 -7 13
OMIT 1 -7 13
OMIT 2 -7 13
OMIT 3 -7 13
OMIT 5 -7 13
OMIT 10 -7 13
OMIT -8 -6 13
OMIT -7 -6 13
OMIT -6 -6 13
OMIT -5 -6 13
OMIT -4 -6 13
OMIT -3 -6 13
OMIT -2 -6 13
OMIT -1 -6 13
OMIT 1 -6 13
OMIT 2 -6 13
OMIT 3 -6 13
OMIT 4 -6 13
OMIT 5 -6 13
OMIT 6 -6 13
OMIT 7 -6 13
OMIT 8 -6 13
OMIT 9 -6 13
OMIT 10 -6 13
OMIT 12 -6 13
OMIT -9 -5 13
OMIT -8 -5 13
OMIT -6 -5 13
OMIT -4 -5 13
OMIT -3 -5 13
OMIT -2 -5 13
OMIT 1 -5 13
OMIT 4 -5 13
OMIT 5 -5 13
OMIT 6 -5 13
OMIT 7 -5 13
OMIT 10 -5 13
OMIT 12 -5 13
OMIT -9 -4 13
OMIT -8 -4 13
OMIT -7 -4 13
OMIT -6 -4 13
OMIT -5 -4 13
OMIT -4 -4 13
OMIT -3 -4 13
OMIT -1 -4 13
OMIT 0 -4 13
OMIT 2 -4 13
OMIT 4 -4 13
OMIT 5 -4 13
OMIT 7 -4 13
OMIT 9 -4 13
OMIT 10 -4 13
OMIT 12 -4 13
OMIT -10 -3 13
OMIT -9 -3 13
OMIT -8 -3 13
OMIT -6 -3 13
OMIT -5 -3 13
OMIT -4 -3 13
OMIT 2 -3 13
OMIT 3 -3 13
OMIT 4 -3 13
OMIT 6 -3 13
OMIT 8 -3 13
OMIT 9 -3 13
OMIT 10 -3 13
OMIT 12 -3 13
OMIT -10 -2 13
OMIT -8 -2 13
OMIT -5 -2 13
OMIT -4 -2 13
OMIT -2 -2 13
OMIT -1 -2 13
OMIT 0 -2 13
OMIT 2 -2 13
OMIT 3 -2 13
OMIT 4 -2 13
OMIT 6 -2 13
OMIT 8 -2 13
OMIT 9 -2 13
OMIT 11 -2 13
OMIT 12 -2 13
OMIT -10 -1 13
OMIT -8 -1 13
OMIT -6 -1 13
OMIT -5 -1 13
OMIT -3 -1 13
OMIT -1 -1 13
OMIT 2 -1 13
OMIT 3 -1 13
OMIT 4 -1 13
OMIT 5 -1 13
OMIT 7 -1 13
OMIT 8 -1 13
OMIT 9 -1 13
OMIT 10 -1 13
OMIT 11 -1 13
OMIT 12 -1 13
OMIT 13 -1 13
OMIT 14 -1 13
OMIT -7 0 13
OMIT -4 0 13
OMIT -3 0 13
OMIT -1 0 13
OMIT 0 0 13
OMIT 1 0 13
OMIT 2 0 13
OMIT 3 0 13
OMIT 5 0 13
OMIT 6 0 13
OMIT 9 0 13
OMIT 10 0 13
OMIT 11 0 13
OMIT 12 0 13
OMIT 14 0 13
OMIT -9 1 13
OMIT -8 1 13
OMIT -7 1 13
OMIT -5 1 13
OMIT -3 1 13
OMIT -2 1 13
OMIT -1 1 13
OMIT 0 1 13
OMIT 6 1 13
OMIT 9 1 13
OMIT 11 1 13
OMIT -8 2 13
OMIT -6 2 13
OMIT -5 2 13
OMIT -3 2 13
OMIT 0 2 13
OMIT 1 2 13
OMIT 3 2 13
OMIT 4 2 13
OMIT 5 2 13
OMIT 6 2 13
OMIT 7 2 13
OMIT 8 2 13
OMIT 9 2 13
OMIT 10 2 13
OMIT 11 2 13
OMIT 12 2 13
OMIT 13 2 13
OMIT 14 2 13
OMIT -8 3 13
OMIT -7 3 13
OMIT -5 3 13
OMIT -3 3 13
OMIT 0 3 13
OMIT 1 3 13
OMIT 2 3 13
OMIT 5 3 13
OMIT 6 3 13
OMIT 7 3 13
OMIT 8 3 13
OMIT 11 3 13
OMIT 12 3 13
OMIT 15 3 13
OMIT -7 4 13
OMIT -5 4 13
OMIT -4 4 13
OMIT -2 4 13
OMIT -1 4 13
OMIT 0 4 13
OMIT 1 4 13
OMIT 3 4 13
OMIT 6 4 13
OMIT 7 4 13
OMIT 8 4 13
OMIT 11 4 13
OMIT 12 4 13
OMIT 14 4 13
OMIT 16 4 13
OMIT -7 5 13
OMIT -5 5 13
OMIT -4 5 13
OMIT 0 5 13
OMIT 1 5 13
OMIT 3 5 13
OMIT 7 5 13
OMIT 9 5 13
OMIT 10 5 13
OMIT 14 5 13
OMIT 15 5 13
OMIT -7 6 13
OMIT -2 6 13
OMIT 1 6 13
OMIT 3 6 13
OMIT 4 6 13
OMIT 5 6 13
OMIT 6 6 13
OMIT 7 6 13
OMIT 9 6 13
OMIT 10 6 13
OMIT 11 6 13
OMIT 12 6 13
OMIT -3 7 13
OMIT -1 7 13
OMIT 1 7 13
OMIT 8 7 13
OMIT 10 7 13
OMIT 11 7 13
OMIT 13 7 13
OMIT 15 7 13
OMIT -6 8 13
OMIT -4 8 13
OMIT -3 8 13
OMIT -1 8 13
OMIT 3 8 13
OMIT 4 8 13
OMIT 8 8 13
OMIT 9 8 13
OMIT 10 8 13
OMIT 13 8 13
OMIT 14 8 13
OMIT -3 9 13
OMIT 2 9 13
OMIT 3 9 13
OMIT 4 9 13
OMIT 5 9 13
OMIT -2 10 13
OMIT 1 10 13
OMIT 3 10 13
OMIT 4 10 13
OMIT 5 10 13
OMIT 8 10 13
OMIT 9 10 13
OMIT 10 10 13
OMIT 11 10 13
OMIT 0 11 13
OMIT 1 11 13
OMIT 2 11 13
OMIT 3 11 13
OMIT 4 11 13
OMIT 5 11 13
OMIT 6 11 13
OMIT 9 11 13
OMIT 10 11 13
OMIT 0 12 13
OMIT 2 12 13
OMIT 10 12 13
OMIT 11 12 13
OMIT 2 13 13
OMIT 10 13 13
OMIT 5 14 13
OMIT 3 15 13
OMIT 5 15 13
OMIT -5 -11 14
OMIT 5 -11 14
OMIT -7 -10 14
OMIT -6 -10 14
OMIT -4 -10 14
OMIT -3 -10 14
OMIT 1 -10 14
OMIT 3 -10 14
OMIT 5 -10 14
OMIT 8 -10 14
OMIT -7 -9 14
OMIT -6 -9 14
OMIT -5 -9 14
OMIT 0 -9 14
OMIT 1 -9 14
OMIT 3 -9 14
OMIT 4 -9 14
OMIT 5 -9 14
OMIT 6 -9 14
OMIT 8 -9 14
OMIT -8 -8 14
OMIT -7 -8 14
OMIT -5 -8 14
OMIT -4 -8 14
OMIT -3 -8 14
OMIT -2 -8 14
OMIT -1 -8 14
OMIT 0 -8 14
OMIT 2 -8 14
OMIT 3 -8 14
OMIT 5 -8 14
OMIT 6 -8 14
OMIT 7 -8 14
OMIT -9 -7 14
OMIT -8 -7 14
OMIT -6 -7 14
OMIT -5 -7 14
OMIT -2 -7 14
OMIT -1 -7 14
OMIT 0 -7 14
OMIT 5 -7 14
OMIT 6 -7 14
OMIT 7 -7 14
OMIT 8 -7 14
OMIT 10 -7 14
OMIT 11 -7 14
OMIT -8 -6 14
OMIT -4 -6 14
OMIT -3 -6 14
OMIT -2 -6 14
OMIT -1 -6 14
OMIT 1 -6 14
OMIT 2 -6 14
OMIT 3 -6 14
OMIT 4 -6 14
OMIT 6 -6 14
OMIT 10 -6 14
OMIT -8 -5 14
OMIT -7 -5 14
OMIT -6 -5 14
OMIT -5 -5 14
OMIT -2 -5 14
OMIT 1 -5 14
OMIT 3 -5 14
OMIT 4 -5 14
OMIT 6 -5 14
OMIT 9 -5 14
OMIT 10 -5 14
OMIT 11 -5 14
OMIT -9 -4 14
OMIT -7 -4 14
OMIT -2 -4 14
OMIT 0 -4 14
OMIT 1 -4 14
OMIT 2 -4 14
OMIT 3 -4 14
OMIT 4 -4 14
OMIT 5 -4 14
OMIT 6 -4 14
OMIT 11 -4 14
OMIT 12 -4 14
OMIT -9 -3 14
OMIT -8 -3 14
OMIT -6 -3 14
OMIT -2 -3 14
OMIT -1 -3 14
OMIT 1 -3 14
OMIT 5 -3 14
OMIT 7 -3 14
OMIT 8 -3 14
OMIT 10 -3 14
OMIT 11 -3 14
OMIT 12 -3 14
OMIT 13 -3 14
OMIT 14 -3 14
OMIT -8 -2 14
OMIT -7 -2 14
OMIT -3 -2 14
OMIT -1 -2 14
OMIT 0 -2 14
OMIT 3 -2 14
OMIT 4 -2 14
OMIT 6 -2 14
OMIT 7 -2 14
OMIT 10 -2 14
OMIT 11 -2 14
OMIT 12 -2 14
OMIT -9 -1 14
OMIT -6 -1 14
OMIT -5 -1 14
OMIT -4 -1 14
OMIT -3 -1 14
OMIT -2 -1 14
OMIT -1 -1 14
OMIT 0 -1 14
OMIT 2 -1 14
OMIT 3 -1 14
OMIT 4 -1 14
OMIT 5 -1 14
OMIT 6 -1 14
OMIT 8 -1 14
OMIT 9 -1 14
OMIT 10 -1 14
OMIT 11 -1 14
OMIT -8 0 14
OMIT -7 0 14
OMIT -6 0 14
OMIT -4 0 14
OMIT -2 0 14
OMIT -1 0 14
OMIT 0 0 14
OMIT 1 0 14
OMIT 4 0 14
OMIT 5 0 14
OMIT 6 0 14
OMIT 7 0 14
OMIT 9 0 14
OMIT 11 0 14
OMIT 12 0 14
OMIT 13 0 14
OMIT -8 1 14
OMIT -4 1 14
OMIT -2 1 14
OMIT 0 1 14
OMIT 1 1 14
OMIT 3 1 14
OMIT 4 1 14
OMIT 5 1 14
OMIT 6 1 14
OMIT 7 1 14
OMIT 8 1 14
OMIT 11 1 14
OMIT 13 1 14
OMIT 14 1 14
OMIT 15 1 14
OMIT -8 2 14
OMIT -6 2 14
OMIT -5 2 14
OMIT -4 2 14
OMIT -3 2 14
OMIT -2 2 14
OMIT -1 2 14
OMIT 2 2 14
OMIT 3 2 14
OMIT 4 2 14
OMIT 5 2 14
OMIT 6 2 14
OMIT 7 2 14
OMIT 8 2 14
OMIT 10 2 14
OMIT 11 2 14
OMIT 12 2 14
OMIT 13 2 14
OMIT 14 2 14
OMIT -7 3 14
OMIT -6 3 14
OMIT -5 3 14
OMIT 0 3 14
OMIT 1 3 14
OMIT 3 3 14
OMIT 6 3 14
OMIT 8 3 14
OMIT 10 3 14
OMIT 11 3 14
OMIT 12 3 14
OMIT 13 3 14
OMIT -6 4 14
OMIT -5 4 14
OMIT -4 4 14
OMIT 0 4 14
OMIT 1 4 14
OMIT 2 4 14
OMIT 3 4 14
OMIT 4 4 14
OMIT 5 4 14
OMIT 6 4 14
OMIT 7 4 14
OMIT 8 4 14
OMIT 9 4 14
OMIT 12 4 14
OMIT 13 4 14
OMIT -7 5 14
OMIT -6 5 14
OMIT -5 5 14
OMIT -3 5 14
OMIT -2 5 14
OMIT 0 5 14
OMIT 1 5 14
OMIT 2 5 14
OMIT 3 5 14
OMIT 4 5 14
OMIT 6 5 14
OMIT 7 5 14
OMIT 10 5 14
OMIT 11 5 14
OMIT -3 6 14
OMIT -2 6 14
OMIT 0 6 14
OMIT 2 6 14
OMIT 4 6 14
OMIT 5 6 14
OMIT 6 6 14
OMIT 7 6 14
OMIT 8 6 14
OMIT 11 6 14
OMIT 12 6 14
OMIT 14 6 14
OMIT 16 6 14
OMIT -5 7 14
OMIT -4 7 14
OMIT -2 7 14
OMIT 0 7 14
OMIT 1 7 14
OMIT 3 7 14
OMIT 6 7 14
OMIT 7 7 14
OMIT 9 7 14
OMIT 11 7 14
OMIT 15 7 14
OMIT -3 8 14
OMIT -1 8 14
OMIT 1 8 14
OMIT 2 8 14
OMIT 3 8 14
OMIT 4 8 14
OMIT 5 8 14
OMIT 6 8 14
OMIT 8 8 14
OMIT 9 8 14
OMIT 10 8 14
OMIT 11 8 14
OMIT 12 8 14
OMIT -4 9 14
OMIT -2 9 14
OMIT -1 9 14
OMIT 1 9 14
OMIT 2 9 14
OMIT 3 9 14
OMIT 4 9 14
OMIT 8 9 14
OMIT 9 9 14
OMIT 10 9 14
OMIT 11 9 14
OMIT 12 9 14
OMIT 15 9 14
OMIT 4 10 14
OMIT 6 10 14
OMIT 7 10 14
OMIT 8 10 14
OMIT 10 10 14
OMIT 13 10 14
OMIT -2 11 14
OMIT 3 11 14
OMIT 4 11 14
OMIT 6 11 14
OMIT 9 11 14
OMIT 5 12 14
OMIT 6 12 14
OMIT 8 12 14
OMIT 9 12 14
OMIT 10 12 14
OMIT 11 12 14
OMIT 3 13 14
OMIT 8 13 14
OMIT 9 13 14
OMIT 10 13 14
OMIT 9 14 14
OMIT -1 -10 15
OMIT 0 -10 15
OMIT 2 -10 15
OMIT 3 -10 15
OMIT 7 -10 15
OMIT -6 -9 15
OMIT -4 -9 15
OMIT -3 -9 15
OMIT -1 -9 15
OMIT 0 -9 15
OMIT 3 -9 15
OMIT 5 -9 15
OMIT 8 -9 15
OMIT -6 -8 15
OMIT -4 -8 15
OMIT -3 -8 15
OMIT -2 -8 15
OMIT -1 -8 15
OMIT 3 -8 15
OMIT 5 -8 15
OMIT 6 -8 15
OMIT 10 -8 15
OMIT -8 -7 15
OMIT -7 -7 15
OMIT -6 -7 15
OMIT -5 -7 15
OMIT -3 -7 15
OMIT -2 -7 15
OMIT 0 -7 15
OMIT 1 -7 15
OMIT 2 -7 15
OMIT 3 -7 15
OMIT 4 -7 15
OMIT 8 -7 15
OMIT 10 -7 15
OMIT -8 -6 15
OMIT -7 -6 15
OMIT -5 -6 15
OMIT -4 -6 15
OMIT -3 -6 15
OMIT -2 -6 15
OMIT 0 -6 15
OMIT 1 -6 15
OMIT 3 -6 15
OMIT 4 -6 15
OMIT 6 -6 15
OMIT 8 -6 15
OMIT -8 -5 15
OMIT -7 -5 15
OMIT -6 -5 15
OMIT -4 -5 15
OMIT -2 -5 15
OMIT -1 -5 15
OMIT 0 -5 15
OMIT 1 -5 15
OMIT 4 -5 15
OMIT 5 -5 15
OMIT 6 -5 15
OMIT 7 -5 15
OMIT 8 -5 15
OMIT 10 -5 15
OMIT 11 -5 15
OMIT -6 -4 15
OMIT -4 -4 15
OMIT -3 -4 15
OMIT -2 -4 15
OMIT -1 -4 15
OMIT 0 -4 15
OMIT 1 -4 15
OMIT 2 -4 15
OMIT 3 -4 15
OMIT 5 -4 15
OMIT 6 -4 15
OMIT 7 -4 15
OMIT 9 -4 15
OMIT -8 -3 15
OMIT -6 -3 15
OMIT -5 -3 15
OMIT -3 -3 15
OMIT -1 -3 15
OMIT 1 -3 15
OMIT 2 -3 15
OMIT 5 -3 15
OMIT 6 -3 15
OMIT 7 -3 15
OMIT 8 -3 15
OMIT 9 -3 15
OMIT 10 -3 15
OMIT 12 -3 15
OMIT 13 -3 15
OMIT 14 -3 15
OMIT -7 -2 15
OMIT -6 -2 15
OMIT -5 -2 15
OMIT -4 -2 15
OMIT -3 -2 15
OMIT -1 -2 15
OMIT 0 -2 15
OMIT 2 -2 15
OMIT 3 -2 15
OMIT 4 -2 15
OMIT 5 -2 15
OMIT 7 -2 15
OMIT 8 -2 15
OMIT 9 -2 15
OMIT 11 -2 15
OMIT 12 -2 15
OMIT 14 -2 15
OMIT -5 -1 15
OMIT -3 -1 15
OMIT 0 -1 15
OMIT 3 -1 15
OMIT 4 -1 15
OMIT 5 -1 15
OMIT 9 -1 15
OMIT 11 -1 15
OMIT 12 -1 15
OMIT 13 -1 15
OMIT 14 -1 15
OMIT -8 0 15
OMIT -6 0 15
OMIT -4 0 15
OMIT -3 0 15
OMIT -1 0 15
OMIT 0 0 15
OMIT 1 0 15
OMIT 2 0 15
OMIT 3 0 15
OMIT 4 0 15
OMIT 5 0 15
OMIT 6 0 15
OMIT 7 0 15
OMIT 9 0 15
OMIT 10 0 15
OMIT 11 0 15
OMIT 12 0 15
OMIT -8 1 15
OMIT -6 1 15
OMIT -4 1 15
OMIT -3 1 15
OMIT -2 1 15
OMIT 1 1 15
OMIT 2 1 15
OMIT 4 1 15
OMIT 5 1 15
OMIT 6 1 15
OMIT 7 1 15
OMIT 8 1 15
OMIT 9 1 15
OMIT 10 1 15
OMIT 11 1 15
OMIT 12 1 15
OMIT 13 1 15
OMIT 15 1 15
OMIT -7 2 15
OMIT -3 2 15
OMIT 0 2 15
OMIT 1 2 15
OMIT 2 2 15
OMIT 3 2 15
OMIT 4 2 15
OMIT 5 2 15
OMIT 7 2 15
OMIT 8 2 15
OMIT 11 2 15
OMIT 12 2 15
OMIT -7 3 15
OMIT -6 3 15
OMIT -3 3 15
OMIT -1 3 15
OMIT 0 3 15
OMIT 3 3 15
OMIT 5 3 15
OMIT 8 3 15
OMIT 9 3 15
OMIT 10 3 15
OMIT 11 3 15
OMIT 13 3 15
OMIT -6 4 15
OMIT -2 4 15
OMIT 1 4 15
OMIT 4 4 15
OMIT 5 4 15
OMIT 8 4 15
OMIT 9 4 15
OMIT 10 4 15
OMIT 12 4 15
OMIT 13 4 15
OMIT -5 5 15
OMIT -4 5 15
OMIT -3 5 15
OMIT -1 5 15
OMIT 0 5 15
OMIT 1 5 15
OMIT 2 5 15
OMIT 3 5 15
OMIT 5 5 15
OMIT 6 5 15
OMIT 7 5 15
OMIT 8 5 15
OMIT 9 5 15
OMIT 10 5 15
OMIT 13 5 15
OMIT -5 6 15
OMIT -1 6 15
OMIT 0 6 15
OMIT 2 6 15
OMIT 3 6 15
OMIT 5 6 15
OMIT 6 6 15
OMIT 9 6 15
OMIT 10 6 15
OMIT 12 6 15
OMIT 13 6 15
OMIT -1 7 15
OMIT 2 7 15
OMIT 3 7 15
OMIT 5 7 15
OMIT 6 7 15
OMIT 10 7 15
OMIT 12 7 15
OMIT -2 8 15
OMIT 3 8 15
OMIT 4 8 15
OMIT 6 8 15
OMIT 7 8 15
OMIT 8 8 15
OMIT 11 8 15
OMIT 12 8 15
OMIT 14 8 15
OMIT -2 9 15
OMIT 1 9 15
OMIT 2 9 15
OMIT 3 9 15
OMIT 4 9 15
OMIT 5 9 15
OMIT 11 9 15
OMIT -2 10 15
OMIT -1 10 15
OMIT 1 10 15
OMIT 3 10 15
OMIT 5 10 15
OMIT 7 10 15
OMIT 9 10 15
OMIT -1 11 15
OMIT 1 11 15
OMIT 7 11 15
OMIT 8 11 15
OMIT 12 11 15
OMIT 2 12 15
OMIT 2 13 15
OMIT 3 13 15
OMIT 4 13 15
OMIT 8 14 15
OMIT 9 14 15
OMIT -1 -10 16
OMIT 7 -10 16
OMIT -4 -9 16
OMIT -3 -9 16
OMIT 2 -9 16
OMIT 5 -9 16
OMIT 7 -9 16
OMIT -7 -8 16
OMIT 0 -8 16
OMIT 2 -8 16
OMIT 4 -8 16
OMIT 5 -8 16
OMIT 6 -8 16
OMIT -5 -7 16
OMIT -4 -7 16
OMIT -3 -7 16
OMIT -1 -7 16
OMIT 0 -7 16
OMIT 3 -7 16
OMIT 8 -7 16
OMIT -7 -6 16
OMIT -3 -6 16
OMIT -2 -6 16
OMIT -1 -6 16
OMIT 4 -6 16
OMIT 5 -6 16
OMIT 6 -6 16
OMIT 7 -6 16
OMIT 8 -6 16
OMIT 9 -6 16
OMIT 10 -6 16
OMIT -7 -5 16
OMIT -6 -5 16
OMIT -4 -5 16
OMIT -3 -5 16
OMIT -2 -5 16
OMIT -1 -5 16
OMIT 0 -5 16
OMIT 1 -5 16
OMIT 2 -5 16
OMIT 4 -5 16
OMIT 7 -5 16
OMIT 8 -5 16
OMIT 10 -5 16
OMIT 11 -5 16
OMIT 12 -5 16
OMIT -5 -4 16
OMIT -3 -4 16
OMIT -2 -4 16
OMIT 1 -4 16
OMIT 3 -4 16
OMIT 4 -4 16
OMIT 5 -4 16
OMIT 9 -4 16
OMIT 10 -4 16
OMIT 11 -4 16
OMIT -3 -3 16
OMIT -2 -3 16
OMIT 0 -3 16
OMIT 1 -3 16
OMIT 2 -3 16
OMIT 5 -3 16
OMIT 6 -3 16
OMIT 7 -3 16
OMIT 9 -3 16
OMIT 11 -3 16
OMIT 13 -3 16
OMIT -5 -2 16
OMIT -4 -2 16
OMIT -3 -2 16
OMIT -1 -2 16
OMIT 1 -2 16
OMIT 4 -2 16
OMIT 6 -2 16
OMIT 7 -2 16
OMIT 8 -2 16
OMIT 11 -2 16
OMIT 12 -2 16
OMIT 13 -2 16
OMIT -7 -1 16
OMIT -6 -1 16
OMIT -5 -1 16
OMIT -4 -1 16
OMIT -2 -1 16
OMIT 0 -1 16
OMIT 1 -1 16
OMIT 2 -1 16
OMIT 3 -1 16
OMIT 4 -1 16
OMIT 5 -1 16
OMIT 6 -1 16
OMIT 8 -1 16
OMIT 11 -1 16
OMIT 13 -1 16
OMIT 14 -1 16
OMIT -7 0 16
OMIT -5 0 16
OMIT -4 0 16
OMIT -3 0 16
OMIT -2 0 16
OMIT 0 0 16
OMIT 1 0 16
OMIT 2 0 16
OMIT 3 0 16
OMIT 4 0 16
OMIT 7 0 16
OMIT 8 0 16
OMIT 9 0 16
OMIT 13 0 16
OMIT 14 0 16
OMIT -6 1 16
OMIT -3 1 16
OMIT -2 1 16
OMIT 0 1 16
OMIT 1 1 16
OMIT 2 1 16
OMIT 3 1 16
OMIT 8 1 16
OMIT 9 1 16
OMIT 12 1 16
OMIT 13 1 16
OMIT -6 2 16
OMIT -4 2 16
OMIT -2 2 16
OMIT 0 2 16
OMIT 1 2 16
OMIT 2 2 16
OMIT 3 2 16
OMIT 5 2 16
OMIT 8 2 16
OMIT 9 2 16
OMIT 10 2 16
OMIT 11 2 16
OMIT 12 2 16
OMIT 15 2 16
OMIT -3 3 16
OMIT -2 3 16
OMIT -1 3 16
OMIT 1 3 16
OMIT 4 3 16
OMIT 5 3 16
OMIT 6 3 16
OMIT 7 3 16
OMIT 11 3 16
OMIT 12 3 16
OMIT 14 3 16
OMIT -4 4 16
OMIT -3 4 16
OMIT -1 4 16
OMIT 1 4 16
OMIT 3 4 16
OMIT 4 4 16
OMIT 5 4 16
OMIT 6 4 16
OMIT 7 4 16
OMIT 10 4 16
OMIT 12 4 16
OMIT -2 5 16
OMIT -1 5 16
OMIT 0 5 16
OMIT 1 5 16
OMIT 2 5 16
OMIT 3 5 16
OMIT 4 5 16
OMIT 6 5 16
OMIT 9 5 16
OMIT 10 5 16
OMIT 11 5 16
OMIT 12 5 16
OMIT 13 5 16
OMIT -3 6 16
OMIT -2 6 16
OMIT -1 6 16
OMIT 3 6 16
OMIT 4 6 16
OMIT 5 6 16
OMIT 7 6 16
OMIT 8 6 16
OMIT 10 6 16
OMIT 11 6 16
OMIT 12 6 16
OMIT 13 6 16
OMIT -4 7 16
OMIT -2 7 16
OMIT 0 7 16
OMIT 1 7 16
OMIT 2 7 16
OMIT 5 7 16
OMIT 7 7 16
OMIT 10 7 16
OMIT 13 7 16
OMIT 0 8 16
OMIT 2 8 16
OMIT 5 8 16
OMIT 8 8 16
OMIT 10 8 16
OMIT 13 8 16
OMIT -1 9 16
OMIT 6 9 16
OMIT 8 9 16
OMIT 9 9 16
OMIT 10 9 16
OMIT 11 9 16
OMIT 5 10 16
OMIT 7 10 16
OMIT 11 10 16
OMIT 1 11 16
OMIT 5 11 16
OMIT 9 11 16
OMIT 11 11 16
OMIT 2 12 16
OMIT 3 12 16
OMIT 5 12 16
OMIT 7 13 16
OMIT 8 13 16
OMIT 6 -10 17
OMIT -4 -9 17
OMIT -3 -9 17
OMIT -1 -9 17
OMIT 1 -9 17
OMIT 4 -9 17
OMIT 7 -9 17
OMIT -1 -8 17
OMIT 0 -8 17
OMIT 1 -8 17
OMIT 4 -8 17
OMIT 5 -8 17
OMIT 6 -8 17
OMIT 9 -8 17
OMIT -6 -7 17
OMIT -4 -7 17
OMIT 2 -7 17
OMIT 4 -7 17
OMIT 5 -7 17
OMIT 6 -7 17
OMIT 8 -7 17
OMIT 10 -7 17
OMIT -4 -6 17
OMIT -3 -6 17
OMIT -1 -6 17
OMIT 0 -6 17
OMIT 2 -6 17
OMIT 4 -6 17
OMIT 5 -6 17
OMIT 6 -6 17
OMIT 7 -6 17
OMIT 9 -6 17
OMIT -5 -5 17
OMIT 0 -5 17
OMIT 1 -5 17
OMIT 3 -5 17
OMIT 4 -5 17
OMIT 5 -5 17
OMIT 9 -5 17
OMIT 10 -5 17
OMIT -6 -4 17
OMIT -4 -4 17
OMIT -3 -4 17
OMIT -2 -4 17
OMIT -1 -4 17
OMIT 2 -4 17
OMIT 3 -4 17
OMIT 5 -4 17
OMIT 7 -4 17
OMIT 8 -4 17
OMIT 9 -4 17
OMIT 10 -4 17
OMIT -6 -3 17
OMIT -3 -3 17
OMIT -2 -3 17
OMIT -1 -3 17
OMIT 0 -3 17
OMIT 2 -3 17
OMIT 3 -3 17
OMIT 4 -3 17
OMIT 5 -3 17
OMIT 11 -3 17
OMIT 13 -3 17
OMIT 0 -2 17
OMIT 1 -2 17
OMIT 2 -2 17
OMIT 4 -2 17
OMIT 8 -2 17
OMIT 10 -2 17
OMIT 11 -2 17
OMIT 12 -2 17
OMIT -5 -1 17
OMIT -3 -1 17
OMIT -2 -1 17
OMIT 1 -1 17
OMIT 2 -1 17
OMIT 4 -1 17
OMIT 5 -1 17
OMIT 6 -1 17
OMIT 7 -1 17
OMIT 8 -1 17
OMIT 10 -1 17
OMIT 11 -1 17
OMIT 13 -1 17
OMIT -3 0 17
OMIT -1 0 17
OMIT 0 0 17
OMIT 3 0 17
OMIT 4 0 17
OMIT 5 0 17
OMIT 6 0 17
OMIT 8 0 17
OMIT 9 0 17
OMIT 10 0 17
OMIT 11 0 17
OMIT 12 0 17
OMIT 14 0 17
OMIT -6 1 17
OMIT -5 1 17
OMIT -2 1 17
OMIT -1 1 17
OMIT 0 1 17
OMIT 2 1 17
OMIT 3 1 17
OMIT 4 1 17
OMIT 5 1 17
OMIT 6 1 17
OMIT 7 1 17
OMIT 9 1 17
OMIT 10 1 17
OMIT 12 1 17
OMIT 13 1 17
OMIT -5 2 17
OMIT -2 2 17
OMIT 0 2 17
OMIT 1 2 17
OMIT 2 2 17
OMIT 3 2 17
OMIT 5 2 17
OMIT 12 2 17
OMIT -5 3 17
OMIT -2 3 17
OMIT -1 3 17
OMIT 0 3 17
OMIT 3 3 17
OMIT 4 3 17
OMIT 5 3 17
OMIT 6 3 17
OMIT 9 3 17
OMIT 11 3 17
OMIT 12 3 17
OMIT 13 3 17
OMIT 14 3 17
OMIT -4 4 17
OMIT -2 4 17
OMIT -1 4 17
OMIT 0 4 17
OMIT 1 4 17
OMIT 2 4 17
OMIT 4 4 17
OMIT 6 4 17
OMIT 8 4 17
OMIT 12 4 17
OMIT 15 4 17
OMIT -3 5 17
OMIT -2 5 17
OMIT -1 5 17
OMIT 0 5 17
OMIT 1 5 17
OMIT 3 5 17
OMIT 4 5 17
OMIT 7 5 17
OMIT 9 5 17
OMIT 11 5 17
OMIT 12 5 17
OMIT -3 6 17
OMIT -2 6 17
OMIT 3 6 17
OMIT 5 6 17
OMIT 6 6 17
OMIT 7 6 17
OMIT 10 6 17
OMIT 11 6 17
OMIT 12 6 17
OMIT -1 7 17
OMIT 0 7 17
OMIT 3 7 17
OMIT 4 7 17
OMIT 6 7 17
OMIT 9 7 17
OMIT 10 7 17
OMIT 11 7 17
OMIT 12 7 17
OMIT 13 7 17
OMIT -1 8 17
OMIT 4 8 17
OMIT 9 8 17
OMIT 10 8 17
OMIT 12 8 17
OMIT 0 9 17
OMIT 2 9 17
OMIT 5 9 17
OMIT 7 9 17
OMIT 8 9 17
OMIT 0 10 17
OMIT 1 10 17
OMIT 2 10 17
OMIT 5 10 17
OMIT 10 10 17
OMIT 6 11 17
OMIT 9 11 17
OMIT 11 12 17
OMIT 3 -10 18
OMIT -1 -9 18
OMIT 1 -9 18
OMIT 3 -9 18
OMIT -2 -8 18
OMIT 1 -8 18
OMIT 2 -8 18
OMIT 4 -8 18
OMIT 5 -8 18
OMIT -1 -7 18
OMIT 0 -7 18
OMIT 1 -7 18
OMIT 4 -7 18
OMIT 6 -7 18
OMIT 8 -7 18
OMIT -1 -6 18
OMIT 0 -6 18
OMIT 1 -6 18
OMIT 4 -6 18
OMIT 6 -6 18
OMIT 7 -6 18
OMIT 9 -6 18
OMIT 10 -6 18
OMIT -2 -5 18
OMIT 2 -5 18
OMIT 3 -5 18
OMIT 5 -5 18
OMIT 7 -5 18
OMIT 8 -5 18
OMIT 9 -5 18
OMIT 10 -5 18
OMIT -1 -4 18
OMIT 0 -4 18
OMIT 1 -4 18
OMIT 2 -4 18
OMIT 3 -4 18
OMIT 4 -4 18
OMIT 6 -4 18
OMIT 8 -4 18
OMIT 9 -4 18
OMIT -4 -3 18
OMIT -3 -3 18
OMIT -1 -3 18
OMIT 0 -3 18
OMIT 1 -3 18
OMIT 2 -3 18
OMIT 3 -3 18
OMIT 4 -3 18
OMIT 7 -3 18
OMIT 8 -3 18
OMIT 9 -3 18
OMIT 10 -3 18
OMIT -6 -2 18
OMIT -5 -2 18
OMIT -4 -2 18
OMIT -3 -2 18
OMIT -2 -2 18
OMIT 1 -2 18
OMIT 4 -2 18
OMIT 6 -2 18
OMIT 7 -2 18
OMIT 8 -2 18
OMIT 9 -2 18
OMIT 10 -2 18
OMIT 12 -2 18
OMIT -4 -1 18
OMIT -1 -1 18
OMIT 0 -1 18
OMIT 3 -1 18
OMIT 4 -1 18
OMIT 6 -1 18
OMIT 7 -1 18
OMIT 8 -1 18
OMIT 9 -1 18
OMIT 10 -1 18
OMIT 11 -1 18
OMIT 13 -1 18
OMIT -5 0 18
OMIT -4 0 18
OMIT -3 0 18
OMIT -2 0 18
OMIT 1 0 18
OMIT 3 0 18
OMIT 4 0 18
OMIT 5 0 18
OMIT 6 0 18
OMIT 8 0 18
OMIT 10 0 18
OMIT 11 0 18
OMIT 12 0 18
OMIT 13 0 18
OMIT -4 1 18
OMIT -3 1 18
OMIT 0 1 18
OMIT 1 1 18
OMIT 2 1 18
OMIT 3 1 18
OMIT 4 1 18
OMIT 5 1 18
OMIT 7 1 18
OMIT 8 1 18
OMIT 9 1 18
OMIT 10 1 18
OMIT 12 1 18
OMIT 13 1 18
OMIT -4 2 18
OMIT -1 2 18
OMIT 0 2 18
OMIT 1 2 18
OMIT 2 2 18
OMIT 4 2 18
OMIT 6 2 18
OMIT 7 2 18
OMIT 8 2 18
OMIT 9 2 18
OMIT 12 2 18
OMIT 13 2 18
OMIT 14 2 18
OMIT -4 3 18
OMIT 0 3 18
OMIT 4 3 18
OMIT 5 3 18
OMIT 6 3 18
OMIT 7 3 18
OMIT 8 3 18
OMIT 9 3 18
OMIT 10 3 18
OMIT 13 3 18
OMIT -4 4 18
OMIT -3 4 18
OMIT -2 4 18
OMIT -1 4 18
OMIT 2 4 18
OMIT 3 4 18
OMIT 4 4 18
OMIT 5 4 18
OMIT 6 4 18
OMIT 7 4 18
OMIT 9 4 18
OMIT 10 4 18
OMIT 12 4 18
OMIT -2 5 18
OMIT 3 5 18
OMIT 5 5 18
OMIT 6 5 18
OMIT 7 5 18
OMIT 9 5 18
OMIT 10 5 18
OMIT 12 5 18
OMIT 13 5 18
OMIT 14 5 18
OMIT 6 6 18
OMIT 8 6 18
OMIT -2 7 18
OMIT -1 7 18
OMIT 9 7 18
OMIT 12 7 18
OMIT 0 8 18
OMIT 3 8 18
OMIT 10 8 18
OMIT 12 8 18
OMIT 1 9 18
OMIT 4 9 18
OMIT 9 9 18
OMIT 10 9 18
OMIT 12 9 18
OMIT 7 10 18
OMIT 9 10 18
OMIT 5 11 18
OMIT 7 11 18
OMIT 8 11 18
OMIT 9 11 18
OMIT 8 12 18
OMIT 0 -9 19
OMIT 3 -9 19
OMIT 2 -8 19
OMIT 3 -8 19
OMIT 6 -8 19
OMIT -1 -7 19
OMIT 1 -7 19
OMIT 2 -7 19
OMIT 3 -7 19
OMIT 4 -7 19
OMIT 5 -7 19
OMIT 6 -7 19
OMIT 9 -7 19
OMIT -2 -6 19
OMIT -1 -6 19
OMIT 2 -6 19
OMIT 5 -6 19
OMIT 6 -6 19
OMIT 7 -6 19
OMIT -2 -5 19
OMIT -1 -5 19
OMIT 0 -5 19
OMIT 1 -5 19
OMIT 4 -5 19
OMIT 6 -5 19
OMIT 7 -5 19
OMIT 8 -5 19
OMIT 9 -5 19
OMIT 10 -5 19
OMIT -1 -4 19
OMIT 0 -4 19
OMIT 3 -4 19
OMIT 8 -4 19
OMIT 9 -4 19
OMIT 10 -4 19
OMIT 11 -4 19
OMIT -2 -3 19
OMIT -1 -3 19
OMIT 2 -3 19
OMIT 3 -3 19
OMIT 4 -3 19
OMIT 6 -3 19
OMIT 7 -3 19
OMIT 8 -3 19
OMIT 9 -3 19
OMIT 11 -3 19
OMIT 12 -3 19
OMIT -1 -2 19
OMIT 0 -2 19
OMIT 1 -2 19
OMIT 2 -2 19
OMIT 3 -2 19
OMIT 4 -2 19
OMIT 6 -2 19
OMIT 7 -2 19
OMIT 9 -2 19
OMIT 10 -2 19
OMIT -4 -1 19
OMIT 0 -1 19
OMIT 1 -1 19
OMIT 2 -1 19
OMIT 3 -1 19
OMIT 4 -1 19
OMIT 5 -1 19
OMIT 6 -1 19
OMIT 7 -1 19
OMIT 9 -1 19
OMIT 11 -1 19
OMIT -4 0 19
OMIT -3 0 19
OMIT -2 0 19
OMIT -1 0 19
OMIT 1 0 19
OMIT 3 0 19
OMIT 4 0 19
OMIT 5 0 19
OMIT 6 0 19
OMIT 7 0 19
OMIT 8 0 19
OMIT 10 0 19
OMIT 12 0 19
OMIT -3 1 19
OMIT -1 1 19
OMIT 0 1 19
OMIT 1 1 19
OMIT 3 1 19
OMIT 5 1 19
OMIT 7 1 19
OMIT 8 1 19
OMIT 9 1 19
OMIT 10 1 19
OMIT 11 1 19
OMIT 13 1 19
OMIT -3 2 19
OMIT -2 2 19
OMIT 0 2 19
OMIT 1 2 19
OMIT 2 2 19
OMIT 3 2 19
OMIT 4 2 19
OMIT 5 2 19
OMIT 8 2 19
OMIT 9 2 19
OMIT 10 2 19
OMIT 12 2 19
OMIT -3 3 19
OMIT 0 3 19
OMIT 2 3 19
OMIT 3 3 19
OMIT 4 3 19
OMIT 5 3 19
OMIT 6 3 19
OMIT 7 3 19
OMIT 8 3 19
OMIT 9 3 19
OMIT 10 3 19
OMIT 12 3 19
OMIT 2 4 19
OMIT 4 4 19
OMIT 8 4 19
OMIT 10 4 19
OMIT 11 4 19
OMIT 12 4 19
OMIT 5 5 19
OMIT 6 5 19
OMIT 9 5 19
OMIT 10 5 19
OMIT 12 5 19
OMIT 13 5 19
OMIT 3 6 19
OMIT 4 6 19
OMIT 5 6 19
OMIT 6 6 19
OMIT 7 6 19
OMIT 9 6 19
OMIT 10 6 19
OMIT 12 6 19
OMIT 13 6 19
OMIT 3 7 19
OMIT 11 7 19
OMIT 3 8 19
OMIT 4 8 19
OMIT 8 8 19
OMIT 9 8 19
OMIT 11 8 19
OMIT 6 9 19
OMIT 9 9 19
OMIT 12 9 19
OMIT 4 10 19
OMIT 6 10 19
OMIT 6 11 19
OMIT 10 11 19
OMIT 2 -8 20
OMIT 0 -7 20
OMIT 3 -7 20
OMIT -1 -6 20
OMIT 0 -6 20
OMIT 2 -6 20
OMIT 5 -6 20
OMIT 6 -6 20
OMIT -1 -5 20
OMIT 0 -5 20
OMIT 1 -5 20
OMIT 2 -5 20
OMIT 5 -5 20
OMIT 7 -5 20
OMIT 9 -5 20
OMIT -2 -4 20
OMIT -1 -4 20
OMIT 0 -4 20
OMIT 2 -4 20
OMIT 4 -4 20
OMIT 5 -4 20
OMIT 6 -4 20
OMIT 7 -4 20
OMIT 9 -4 20
OMIT 10 -4 20
OMIT -2 -3 20
OMIT 0 -3 20
OMIT 1 -3 20
OMIT 2 -3 20
OMIT 3 -3 20
OMIT 4 -3 20
OMIT 5 -3 20
OMIT 8 -3 20
OMIT 9 -3 20
OMIT -1 -2 20
OMIT 1 -2 20
OMIT 3 -2 20
OMIT 4 -2 20
OMIT 5 -2 20
OMIT 6 -2 20
OMIT 7 -2 20
OMIT 8 -2 20
OMIT 9 -2 20
OMIT 10 -2 20
OMIT -3 -1 20
OMIT -2 -1 20
OMIT -1 -1 20
OMIT 2 -1 20
OMIT 3 -1 20
OMIT 4 -1 20
OMIT 7 -1 20
OMIT 10 -1 20
OMIT 11 -1 20
OMIT 12 -1 20
OMIT -1 0 20
OMIT 1 0 20
OMIT 3 0 20
OMIT 6 0 20
OMIT 7 0 20
OMIT 8 0 20
OMIT 9 0 20
OMIT 10 0 20
OMIT 11 0 20
OMIT -1 1 20
OMIT 0 1 20
OMIT 1 1 20
OMIT 4 1 20
OMIT 5 1 20
OMIT 7 1 20
OMIT 9 1 20
OMIT -1 2 20
OMIT 0 2 20
OMIT 1 2 20
OMIT 4 2 20
OMIT 5 2 20
OMIT 6 2 20
OMIT 7 2 20
OMIT 9 2 20
OMIT 10 2 20
OMIT 12 2 20
OMIT 2 3 20
OMIT 3 3 20
OMIT 7 3 20
OMIT 8 3 20
OMIT 9 3 20
OMIT 10 3 20
OMIT 11 3 20
OMIT 13 3 20
OMIT 2 4 20
OMIT 8 4 20
OMIT 9 4 20
OMIT 10 4 20
OMIT 12 4 20
OMIT 13 4 20
OMIT 3 5 20
OMIT 6 5 20
OMIT 8 5 20
OMIT 10 5 20
OMIT 12 5 20
OMIT 13 5 20
OMIT 4 6 20
OMIT 7 6 20
OMIT 8 6 20
OMIT 10 6 20
OMIT 11 6 20
OMIT 5 7 20
OMIT 6 7 20
OMIT 7 7 20
OMIT 10 7 20
OMIT 12 7 20
OMIT 5 8 20
OMIT 10 8 20
OMIT 11 9 20
OMIT 8 10 20
OMIT 4 -7 21
OMIT 2 -6 21
OMIT 3 -6 21
OMIT 4 -6 21
OMIT 5 -6 21
OMIT 7 -6 21
OMIT 0 -5 21
OMIT 3 -5 21
OMIT 4 -5 21
OMIT 5 -5 21
OMIT 7 -5 21
OMIT 8 -5 21
OMIT -1 -4 21
OMIT 2 -4 21
OMIT 3 -4 21
OMIT 6 -4 21
OMIT 8 -4 21
OMIT -1 -3 21
OMIT 1 -3 21
OMIT 6 -3 21
OMIT 7 -3 21
OMIT 9 -3 21
OMIT 10 -3 21
OMIT -2 -2 21
OMIT 0 -2 21
OMIT 1 -2 21
OMIT 2 -2 21
OMIT 3 -2 21
OMIT 5 -2 21
OMIT 6 -2 21
OMIT 9 -2 21
OMIT 10 -2 21
OMIT -1 -1 21
OMIT 0 -1 21
OMIT 1 -1 21
OMIT 3 -1 21
OMIT 4 -1 21
OMIT 5 -1 21
OMIT 6 -1 21
OMIT 9 -1 21
OMIT 0 0 21
OMIT 1 0 21
OMIT 3 0 21
OMIT 4 0 21
OMIT 5 0 21
OMIT 6 0 21
OMIT 7 0 21
OMIT 8 0 21
OMIT 9 0 21
OMIT 10 0 21
OMIT 11 0 21
OMIT 5 1 21
OMIT 6 1 21
OMIT 7 1 21
OMIT 8 1 21
OMIT 9 1 21
OMIT 11 1 21
OMIT 3 2 21
OMIT 6 2 21
OMIT 7 2 21
OMIT 8 2 21
OMIT 9 2 21
OMIT 10 2 21
OMIT -1 3 21
OMIT 0 3 21
OMIT 5 3 21
OMIT 6 3 21
OMIT 7 3 21
OMIT 9 3 21
OMIT 4 4 21
OMIT 5 4 21
OMIT 6 4 21
OMIT 7 4 21
OMIT 9 4 21
OMIT 10 4 21
OMIT 12 4 21
OMIT 3 5 21
OMIT 9 5 21
OMIT 10 5 21
OMIT 12 5 21
OMIT 4 7 21
OMIT 8 7 21
OMIT 9 7 21
OMIT 7 8 21
OMIT 7 9 21
OMIT 4 -6 22
OMIT 4 -5 22
OMIT 2 -4 22
OMIT 4 -4 22
OMIT 5 -4 22
OMIT 6 -4 22
OMIT 7 -4 22
OMIT 3 -3 22
OMIT 5 -3 22
OMIT 7 -3 22
OMIT 0 -2 22
OMIT 3 -2 22
OMIT 4 -2 22
OMIT 5 -2 22
OMIT 6 -2 22
OMIT 8 -2 22
OMIT 0 -1 22
OMIT 4 -1 22
OMIT 5 -1 22
OMIT 7 -1 22
OMIT 9 -1 22
OMIT 10 -1 22
OMIT 0 0 22
OMIT 2 0 22
OMIT 3 0 22
OMIT 5 0 22
OMIT 6 0 22
OMIT 9 0 22
OMIT 10 0 22
OMIT 3 1 22
OMIT 4 1 22
OMIT 5 1 22
OMIT 6 1 22
OMIT 7 1 22
OMIT 8 1 22
OMIT 9 1 22
OMIT 3 2 22
OMIT 4 2 22
OMIT 5 2 22
OMIT 7 2 22
OMIT 8 2 22
OMIT 9 2 22
OMIT 11 2 22
OMIT 5 3 22
OMIT 6 3 22
OMIT 7 3 22
OMIT 8 3 22
OMIT 10 3 22
OMIT 11 3 22
OMIT 7 4 22
OMIT 8 4 22
OMIT 9 4 22
OMIT 10 4 22
OMIT 7 5 22
OMIT 6 6 22
OMIT 10 6 22
OMIT 9 7 22
OMIT 6 -3 23
OMIT 2 -2 23
OMIT 4 -2 23
OMIT 5 -2 23
OMIT 6 -2 23
OMIT 7 -2 23
OMIT 2 -1 23
OMIT 4 -1 23
OMIT 6 -1 23
OMIT 7 -1 23
OMIT 6 0 23
OMIT 5 1 23
OMIT 7 1 23
OMIT 9 1 23
OMIT 3 2 23
OMIT 5 2 23
OMIT 6 2 23
OMIT 7 2 23
OMIT 8 2 23
OMIT 5 3 23
OMIT 7 3 23
OMIT 8 3 23
OMIT 9 3 23
OMIT 6 4 23
OMIT 7 4 23
OMIT 8 4 23
OMIT 9 4 23
WGHT 0.00823 0
FVAR 1.017586
REM <olex2.extras>
REM <HklSrc "%.\\992fb5bb932cac316ac1719256e18353.hkl">
REM </olex2.extras>

S     5     0.18753  0.96553  0.11532  11.00000  0.01262  0.02374  0.01514 =
 0.00505 -0.00616 -0.00527 
O1    4     0.86021  0.76707  0.44883  11.00000  0.01116  0.03554  0.01730 =
 0.01014 -0.00451 -0.01346 
O2    4     0.60582  0.69588  0.61257  11.00000  0.01037  0.02505  0.01526 =
 0.00369 -0.00319 -0.00617 
N1    3     0.26686  0.82152  0.33812  11.00000  0.01162  0.01854  0.01279 =
 0.00351 -0.00541 -0.00561 
N3    3     0.52624  0.90610  0.17898  11.00000  0.01293  0.01987  0.01326 =
 0.00425 -0.00688 -0.00322 
C2    1     0.34086  0.89413  0.21295  11.00000  0.01207  0.01919  0.01424 =
 -0.00259 -0.00248 -0.00487 
C4    1     0.67579  0.82038  0.24806  11.00000  0.01013  0.02367  0.01217 =
 0.00575 -0.00595 -0.00756 
C4A   1     0.82576  0.64967  0.16372  11.00000  0.01661  0.03034  0.01291 =
 0.00356 -0.00648  0.00007 
C5    1     0.56472  0.78440  0.39478  11.00000  0.01069  0.01797  0.01081 =
 0.00218 -0.00618 -0.00425 
C5A   1     0.68923  0.74989  0.48659  11.00000  0.01112  0.01991  0.01339 =
 0.00198 -0.00523 -0.00394 
C6    1     0.36943  0.78066  0.43403  11.00000  0.01026  0.01021  0.01293 =
 0.00189 -0.00532 -0.00340 
C6A   1     0.24146  0.73366  0.57164  11.00000  0.01095  0.03827  0.01240 =
 0.00864 -0.00412 -0.01099 
C7    1     0.73207  0.64890  0.70152  11.00000  0.01432  0.02046  0.01856 =
 -0.00024 -0.00699 -0.00480 
C8    1     0.60468  0.60173  0.83887  11.00000  0.02244  0.02731  0.01799 =
 0.00255 -0.00628 -0.00924 
H1    2     0.10934  0.83744  0.37511  11.00000  0.02152 
H3    2     0.58026  0.96209  0.07931  11.00000  0.02009 
H4    2     0.75813  0.90395  0.24760  11.00000  0.01004 
H4Aa  2     0.92229  0.58201  0.21072  11.00000  0.01772 
H4Ab  2     0.87636  0.68082  0.05987  11.00000  0.00521 
H4Ac  2     0.73532  0.52167  0.17738  11.00000  0.06550 
H6Aa  2     0.17355  0.84112  0.65355  11.00000  0.07063 
H6Ab  2     0.10176  0.71847  0.58716  11.00000  0.04178 
H6Ac  2     0.28908  0.65626  0.64604  11.00000  0.13200 
H7a   2     0.77311  0.78135  0.71732  11.00000  0.02797 
H7b   2     0.87820  0.54816  0.64873  11.00000  0.00341 
H8a   2     0.47010  0.71094  0.88953  11.00000  0.02826 
H8b   2     0.56612  0.46012  0.83010  11.00000  0.04167 
H8c   2     0.66137  0.58352  0.91575  11.00000  0.06136 
HKLF 4

END
Q1 1 0.75 0.6 0.138889 11 0.05 0.19
Q2 1 0.333333 0.6 0.583333 11 0.05 0.18
Q3 1 0.208333 0.96 0.166667 11 0.05 0.17
Q4 1 0.958333 0.72 0.083333 11 0.05 0.17
Q5 1 0.958333 0.64 0.25 11 0.05 0.15
Q6 1 0.541667 0.52 0.805556 11 0.05 0.13
Q7 1 0.541667 0.96 0.527778 11 0.05 0.13
Q8 1 0.291667 0.88 0.25 11 0.05 0.12
Q9 1 0.166667 1.12 0.194444 11 0.05 0.12
Q10 1 0.125 1 0.527778 11 0.05 0.12
Q11 1 0.5 1.08 0.25 11 0.05 0.12
Q12 1 0.291667 0.96 0.611111 11 0.05 0.12
Q13 1 0.083333 0.84 0.833333 11 0.05 0.12
Q14 1 0.125 0.84 0.583333 11 0.05 0.12
Q15 1 0.375 1 0.416667 11 0.05 0.12
Q16 1 0.625 0.84 0.194444 11 0.05 0.11
Q17 1 0 1.04 0.416667 11 0.05 0.11
Q18 1 0.958333 0.76 0.75 11 0.05 0.11
Q19 1 0.5 0.36 0.694444 11 0.05 0.11
Q20 1 0.458333 0.84 0.833333 11 0.05 0.11

  REM The information below was added by Olex2.
  REM
  REM R1 = 0.0256 for 893 Fo > 4sig(Fo) and 0.0256 for all 893 data
  REM 183 parameters refined using 0 restraints
  REM Highest difference peak 0.1875, deepest hole -0.2596
  REM Mean Shift 0.0289, Max Shift 0.1772.

  REM +++ Tabular Listing of Refinement Information +++
  REM R1_all = 0.0256
  REM R1_gt = 0.0256
  REM wR_ref = 0.0190
  REM GOOF = 1.0767
  REM Shift_max = 0.1772
  REM Shift_mean = 0.0289
  REM Reflections_all = 893
  REM Reflections_gt = 893
  REM Parameters = 183
  REM Hole = -0.2596
  REM Peak = 0.1875
  REM Flack = n/a

  
;
_cod_data_source_file            19_TAAM_iso_0.8.cif
_cod_data_source_block           19_TAAM_iso_0.8
_cod_database_code               2022016
_olex2_refinement_description
;
;
_iucr_refine_fcf_details
;
data_ethyl
_computing_structure_refinement   'olex2.refine (Bourhis et al., 2015)'
_shelx_refln_list_code            4
loop_
  _space_group_symop_id
  _space_group_symop_operation_xyz
  1  x,y,z
  2  -x,-y,-z

_space_group_crystal_system       triclinic
_space_group_IT_number            2
_space_group_name_H-M_alt         'P -1'
_space_group_name_Hall            '-P 1'
_symmetry_space_group_name_H-M    'P -1'
_symmetry_space_group_name_Hall   '-P 1'
_symmetry_Int_Tables_number       2
_cell_length_a                    7.2934
_cell_length_b                    7.8145
_cell_length_c                    10.2181
_cell_angle_alpha                 87.055
_cell_angle_beta                  70.569
_cell_angle_gamma                 72.898
_cell_volume                      524.221038
loop_
  _refln_index_h
  _refln_index_k
  _refln_index_l
  _refln_F_squared_calc
  _refln_F_squared_meas
  _refln_F_squared_sigma
  _refln_F_squared_weight
  _refln_observed_status
-8 -2 1 24.980 24.617 0.058 158.321 o
-7 -4 2 55.337 55.626 0.077 33.433 o
-7 -4 3 61.392 70.431 9.010 0.088 o
-7 -3 1 139.779 119.973 12.941 0.042 o
-7 -2 2 174.244 172.490 43.719 0.004 o
-7 -1 1 59.386 60.194 0.087 28.794 o
-7 -1 2 260.025 260.681 19.073 0.019 o
-7 0 1 184.276 175.744 44.134 0.004 o
-7 0 3 138.613 142.340 12.815 0.043 o
-7 1 2 52.298 51.686 0.077 37.718 o
-7 1 3 122.916 122.465 0.116 6.921 o
-6 -7 1 93.131 91.648 20.561 0.017 o
-6 -7 3 12.377 12.294 3.766 0.504 o
-6 -6 1 22.964 21.768 5.012 0.285 o
-6 -4 5 72.061 75.849 18.706 0.020 o
-6 -3 1 241.141 237.464 34.747 0.006 o
-6 -3 3 55.186 43.265 7.060 0.143 o
-6 -3 4 166.419 173.195 57.944 0.002 o
-6 -2 2 40.359 38.591 13.347 0.040 o
-6 -1 4 69.154 57.973 24.530 0.012 o
-6 -1 6 79.979 80.880 28.972 0.009 o
-6 0 1 564.035 509.280 99.364 0.001 o
-6 0 4 50.373 50.460 0.077 40.207 o
-6 1 1 795.920 807.682 219.734 0.000 o
-6 1 2 8.058 8.064 0.029 1366.250 o
-6 1 4 238.782 220.728 17.547 0.023 o
-6 2 2 320.133 300.962 113.638 0.001 o
-6 3 1 18.743 18.774 0.048 273.712 o
-6 3 2 416.724 426.884 113.155 0.001 o
-6 4 1 15.718 15.703 0.039 392.980 o
-5 -9 1 352.690 358.635 83.382 0.001 o
-5 -8 1 28.943 33.134 6.181 0.187 o
-5 -8 2 292.788 299.107 1.854 0.767 o
-5 -7 2 585.793 644.454 141.760 0.000 o
-5 -7 4 17.003 17.093 0.048 325.625 o
-5 -6 1 5.922 5.939 0.261 101.740 o
-5 -6 3 557.743 591.870 188.106 0.000 o
-5 -5 3 485.841 493.172 2.385 0.328 o
-5 -5 5 12.891 11.550 3.650 0.537 o
-5 -5 7 416.326 432.668 91.581 0.001 o
-5 -4 4 358.621 377.795 43.835 0.004 o
-5 -4 7 159.892 174.750 58.205 0.002 o
-5 -3 4 447.300 454.842 116.806 0.001 o
-5 -2 2 82.146 84.106 19.701 0.018 o
-5 -2 5 352.841 346.139 141.847 0.000 o
-5 -2 6 87.180 101.788 10.835 0.061 o
-5 -2 7 15.211 15.317 0.039 415.291 o
-5 -1 1 1.753 1.661 0.135 387.402 o
-5 -1 4 44.368 43.970 0.068 52.208 o
-5 -1 5 111.946 116.245 24.317 0.012 o
-5 0 3 185.073 197.444 76.959 0.001 o
-5 0 4 158.651 157.048 55.172 0.002 o
-5 0 6 99.564 90.624 10.227 0.068 o
-5 0 7 231.000 248.174 52.439 0.003 o
-5 2 2 15.826 15.742 0.039 389.106 o
-5 4 1 92.852 91.339 31.821 0.007 o
-5 4 2 15.680 15.742 0.039 393.542 o
-5 4 4 6.518 6.509 0.029 1927.240 o
-5 5 1 293.224 291.352 20.165 0.017 o
-4 -9 1 264.954 295.949 20.319 0.017 o
-4 -9 2 39.173 35.008 0.637 14.234 o
-4 -7 1 570.495 587.698 132.769 0.000 o
-4 -7 2 539.788 555.104 78.437 0.001 o
-4 -7 3 24.892 25.418 0.058 155.891 o
-4 -7 4 145.188 146.985 40.358 0.004 o
-4 -7 5 19.721 17.180 4.452 0.361 o
-4 -6 1 206.625 218.980 49.262 0.003 o
-4 -6 2 35.310 27.803 5.659 0.223 o
-4 -6 3 103.956 126.173 36.186 0.005 o
-4 -6 6 13.279 8.595 3.148 0.722 o
-4 -5 1 272.474 268.368 19.353 0.019 o
-4 -5 2 951.431 948.545 6.615 0.068 o
-4 -5 3 1283.120 1315.880 50.643 0.003 o
-4 -5 7 31.100 41.169 13.781 0.038 o
-4 -4 3 72.900 67.573 17.654 0.023 o
-4 -4 4 323.198 319.301 97.868 0.001 o
-4 -4 5 194.352 195.339 46.529 0.003 o
-4 -3 1 268.461 290.435 56.737 0.002 o
-4 -3 3 1238.220 1192.320 192.819 0.000 o
-4 -3 4 1077.820 1122.920 115.154 0.001 o
-4 -2 1 741.455 697.289 87.911 0.001 o
-4 -2 2 13.574 13.646 0.039 510.706 o
-4 -2 3 138.146 140.427 52.179 0.003 o
-4 -2 5 428.002 442.104 69.996 0.001 o
-4 -2 6 122.097 118.573 46.770 0.003 o
-4 -1 1 23.648 28.373 11.444 0.055 o
-4 -1 2 456.035 506.856 220.004 0.000 o
-4 -1 4 987.362 912.513 298.441 0.000 o
-4 -1 5 1175.230 1187.140 122.098 0.000 o
-4 -1 7 168.780 169.815 1.400 1.836 o
-4 -1 8 5.287 5.283 0.029 2620.590 o
-4 0 2 523.152 511.221 148.105 0.000 o
-4 0 6 303.209 308.272 58.446 0.002 o
-4 1 3 258.348 262.593 88.751 0.001 o
-4 1 5 405.888 369.703 43.361 0.004 o
-4 1 6 591.986 596.061 2.617 0.233 o
-4 2 1 51.050 49.475 7.552 0.125 o
-4 2 3 624.295 636.033 222.080 0.000 o
-4 2 7 261.758 261.028 1.738 0.935 o
-4 3 4 197.477 205.064 32.294 0.007 o
-4 3 6 187.008 178.603 15.790 0.028 o
-4 3 7 329.964 332.290 99.838 0.001 o
-4 4 4 220.054 217.387 64.917 0.002 o
-4 4 6 17.301 16.611 4.809 0.309 o
-4 5 4 6.234 6.258 0.029 2058.040 o
-4 5 5 83.555 85.989 19.913 0.018 o
-4 6 3 23.258 20.638 4.877 0.301 o
-3 -9 1 3.160 3.081 0.193 188.551 o
-3 -8 2 123.526 118.457 36.234 0.005 o
-3 -7 3 17.812 17.180 4.452 0.361 o
-3 -6 1 40.803 27.803 5.659 0.223 o
-3 -6 3 285.962 286.611 38.175 0.005 o
-3 -6 6 70.979 62.638 8.498 0.099 o
-3 -6 8 98.567 102.986 22.888 0.014 o
-3 -5 2 279.597 282.265 1.806 0.833 o
-3 -5 8 74.706 70.972 0.908 6.018 o
-3 -5 9 18.005 21.179 4.945 0.293 o
-3 -4 1 85.014 83.806 0.097 14.483 o
-3 -4 4 161.899 164.677 42.724 0.004 o
-3 -4 6 127.551 113.706 24.047 0.012 o
-3 -4 7 59.047 50.691 15.288 0.031 o
-3 -3 2 128.410 129.331 48.847 0.003 o
-3 -3 3 1149.980 1229.700 120.504 0.000 o
-3 -3 6 6.656 6.722 0.280 87.893 o
-3 -3 8 34.789 35.008 0.068 82.382 o
-3 -3 9 36.148 36.225 12.931 0.043 o
-3 -2 1 439.993 449.810 138.931 0.000 o
-3 -2 3 1.880 1.777 0.145 337.468 o
-3 -2 4 298.568 297.987 94.545 0.001 o
-3 -2 5 220.352 235.156 67.514 0.002 o
-3 -2 8 130.086 119.036 48.036 0.003 o
-3 -2 10 93.392 94.661 21.942 0.015 o
-3 -1 1 70.106 69.176 8.933 0.089 o
-3 -1 4 1093.200 1158.820 263.201 0.000 o
-3 -1 6 4.792 5.012 0.241 119.536 o
-3 0 1 667.942 713.263 60.223 0.002 o
-3 0 2 122.590 122.223 0.116 6.954 o
-3 0 3 265.252 263.288 71.445 0.001 o
-3 0 7 115.659 116.130 0.116 7.764 o
-3 0 9 15.159 15.066 0.039 421.260 o
-3 1 1 1416.490 1424.380 8.103 0.035 o
-3 1 3 93.411 85.187 29.735 0.008 o
-3 1 5 1338.570 1366.220 11.908 0.027 o
-3 2 3 40.865 38.996 6.702 0.159 o
-3 2 4 67.143 54.583 15.867 0.028 o
-3 3 3 2.226 2.530 0.174 234.088 o
-3 3 5 5.905 9.696 3.341 0.641 o
-3 3 6 555.838 553.076 27.784 0.009 o
-3 4 2 48.520 53.241 16.456 0.026 o
-3 5 1 80.745 76.786 29.175 0.008 o
-3 5 3 112.946 117.752 11.656 0.052 o
-3 6 1 57.206 71.155 27.176 0.010 o
-3 6 5 20.465 23.042 5.157 0.269 o
-3 7 2 81.987 83.314 19.604 0.019 o
-2 -9 4 20.733 20.638 5.369 0.248 o
-2 -8 1 117.508 123.411 36.978 0.005 o
-2 -8 5 140.045 149.476 40.696 0.004 o
-2 -7 1 165.813 157.048 28.257 0.009 o
-2 -7 3 58.261 60.030 24.964 0.011 o
-2 -7 5 55.331 56.022 8.035 0.111 o
-2 -7 6 344.058 345.337 121.731 0.000 o
-2 -6 1 310.162 263.984 88.983 0.001 o
-2 -6 2 315.137 308.842 39.634 0.005 o
-2 -6 7 36.017 34.313 6.287 0.181 o
-2 -5 1 257.176 265.558 89.243 0.001 o
-2 -5 2 134.381 132.402 24.713 0.012 o
-2 -5 7 357.473 332.483 139.027 0.000 o
-2 -4 2 920.930 886.110 134.256 0.000 o
-2 -4 3 523.441 536.292 226.301 0.000 o
-2 -4 4 28.712 33.685 6.229 0.184 o
-2 -4 7 221.601 231.052 1.632 1.176 o
-2 -4 9 32.436 34.824 6.335 0.178 o
-2 -3 2 353.887 354.579 2.018 0.570 o
-2 -3 6 230.430 210.482 63.874 0.002 o
-2 -3 8 229.014 202.611 47.389 0.003 o
-2 -2 1 293.348 294.848 1.845 0.774 o
-2 -2 2 365.988 347.732 102.126 0.001 o
-2 -2 3 554.573 557.886 230.811 0.000 o
-2 -2 4 497.248 494.128 145.613 0.000 o
-2 -2 8 272.724 267.132 71.957 0.001 o
-2 -1 1 412.071 408.670 132.422 0.000 o
-2 -1 2 425.098 460.124 140.514 0.000 o
-2 -1 3 501.581 421.794 178.642 0.000 o
-2 -1 4 4.816 4.819 0.019 3680.780 o
-2 -1 9 87.251 70.518 27.050 0.010 o
-2 -1 10 42.394 42.280 0.068 56.773 o
-2 0 1 37.331 26.075 5.485 0.237 o
-2 0 2 528.333 504.442 219.483 0.000 o
-2 0 4 504.236 549.551 128.385 0.000 o
-2 0 5 242.434 235.485 1.651 1.079 o
-2 0 6 23.601 25.418 5.418 0.244 o
-2 0 7 347.058 350.745 22.125 0.014 o
-2 0 8 100.829 103.961 43.796 0.004 o
-2 0 10 11.319 11.550 3.650 0.537 o
-2 1 1 76.924 64.608 17.267 0.024 o
-2 1 2 296.680 298.914 38.987 0.005 o
-2 1 8 144.624 136.507 13.800 0.037 o
-2 2 1 563.589 611.358 55.761 0.002 o
-2 2 3 858.034 837.871 161.635 0.000 o
-2 2 5 26.999 27.688 5.650 0.224 o
-2 2 6 10.331 10.343 0.039 820.285 o
-2 2 9 22.288 22.328 0.048 198.734 o
-2 3 1 438.907 432.668 69.243 0.001 o
-2 3 3 210.471 228.290 17.847 0.022 o
-2 3 4 250.007 262.593 36.543 0.005 o
-2 3 5 201.201 192.345 75.955 0.001 o
-2 4 1 178.382 179.318 73.338 0.001 o
-2 4 4 244.926 234.664 100.349 0.001 o
-2 5 3 25.446 24.665 10.671 0.063 o
-2 6 1 278.224 251.738 35.781 0.006 o
-2 6 3 15.641 15.828 0.039 393.427 o
-2 6 5 175.674 174.895 72.430 0.001 o
-1 -9 2 49.735 50.382 0.077 40.911 o
-1 -9 4 38.789 39.875 13.559 0.039 o
-1 -8 6 1.906 1.758 0.145 337.425 o
-1 -7 3 59.668 55.221 7.977 0.112 o
-1 -7 4 139.540 136.004 51.348 0.003 o
-1 -7 5 147.679 144.522 1.294 2.287 o
-1 -7 6 42.804 47.089 14.737 0.033 o
-1 -7 7 11.392 11.405 0.039 695.695 o
-1 -6 1 146.491 138.525 25.273 0.011 o
-1 -6 2 417.880 425.107 68.635 0.002 o
-1 -6 4 168.362 168.424 1.391 1.857 o
-1 -6 8 44.598 53.560 15.722 0.029 o
-1 -5 1 452.608 372.387 105.690 0.001 o
-1 -5 4 148.799 143.499 39.875 0.004 o
-1 -5 5 173.156 165.923 29.049 0.008 o
-1 -5 7 198.839 199.106 1.516 1.438 o
-1 -4 2 582.003 626.057 163.904 0.000 o
-1 -4 3 1228.260 1276.840 353.024 0.000 o
-1 -4 5 293.741 310.725 20.821 0.016 o
-1 -4 6 101.154 95.704 32.565 0.007 o
-1 -4 7 46.300 46.722 0.734 10.455 o
-1 -4 8 35.383 36.746 6.509 0.169 o
-1 -3 1 417.092 428.883 2.221 0.423 o
-1 -3 2 167.364 145.816 25.940 0.011 o
-1 -3 6 110.193 109.292 12.352 0.047 o
-1 -3 7 214.104 208.618 32.574 0.007 o
-1 -3 9 105.156 105.941 0.106 9.369 o
-1 -3 11 87.940 88.394 0.097 13.381 o
-1 -2 1 2137.760 2327.940 67.360 0.001 o
-1 -2 2 386.690 399.167 2.144 0.479 o
-1 -2 3 751.867 775.060 62.782 0.002 o
-1 -2 4 3495.550 3764.460 92.237 0.001 o
-1 -2 6 50.731 44.907 7.195 0.138 o
-1 -2 8 102.251 106.385 34.332 0.006 o
-1 -2 10 117.269 120.215 12.950 0.042 o
-1 -2 11 5.055 4.732 0.232 129.283 o
-1 -1 1 656.550 566.799 232.655 0.000 o
-1 -1 2 1144.780 1180.490 7.378 0.049 o
-1 -1 3 447.839 476.387 119.539 0.001 o
-1 -1 4 700.275 725.074 2.888 0.169 o
-1 -1 5 149.177 124.493 23.960 0.012 o
-1 -1 6 110.663 126.531 12.081 0.049 o
-1 -1 9 247.533 241.289 1.671 1.042 o
-1 0 1 1523.240 1643.800 400.558 0.000 o
-1 0 2 666.292 702.978 202.148 0.000 o
-1 0 3 101.656 86.588 9.995 0.071 o
-1 0 4 926.339 975.856 308.620 0.000 o
-1 0 5 2045.980 2123.320 410.708 0.000 o
-1 0 9 80.024 82.145 29.194 0.008 o
-1 0 11 170.400 170.520 43.468 0.004 o
-1 1 1 91.477 88.085 20.155 0.018 o
-1 1 2 1092.390 1079.090 148.163 0.000 o
-1 1 3 218.949 219.772 49.349 0.003 o
-1 1 5 611.680 629.012 137.356 0.000 o
-1 1 6 134.933 113.020 45.670 0.003 o
-1 1 9 49.902 37.142 13.086 0.042 o
-1 2 1 740.911 773.862 241.974 0.000 o
-1 2 2 836.236 970.167 40.136 0.004 o
-1 2 3 723.668 740.187 178.217 0.000 o
-1 2 4 62.957 62.126 0.087 26.157 o
-1 2 5 177.084 177.599 72.990 0.001 o
-1 2 6 1471.090 1507.840 221.008 0.000 o
-1 2 9 14.414 14.447 0.039 459.275 o
-1 3 1 286.070 298.731 20.416 0.017 o
-1 3 3 124.318 126.531 36.234 0.005 o
-1 4 3 388.697 411.924 45.766 0.003 o
-1 4 5 22.732 22.579 5.099 0.275 o
-1 4 6 48.996 48.577 0.077 42.699 o
-1 4 7 386.823 398.095 152.123 0.000 o
-1 5 1 50.688 56.264 16.108 0.028 o
-1 5 3 70.882 69.890 0.898 6.259 o
-1 5 4 190.513 194.441 31.444 0.007 o
-1 5 7 182.361 184.533 16.050 0.028 o
-1 6 7 15.455 15.577 0.039 403.137 o
-1 7 5 43.431 44.472 14.322 0.035 o
-1 8 4 2.364 7.533 2.945 0.825 o
0 -8 4 123.508 121.982 35.578 0.006 o
0 -8 6 133.955 140.167 39.412 0.005 o
0 -7 1 9.023 8.943 0.029 1132.480 o
0 -7 7 23.944 26.625 5.543 0.233 o
0 -6 1 28.075 24.192 10.565 0.064 o
0 -6 6 68.994 69.446 27.746 0.009 o
0 -6 8 99.614 94.758 32.410 0.007 o
0 -5 3 250.880 262.767 36.553 0.005 o
0 -5 5 172.955 148.945 14.418 0.034 o
0 -4 1 249.067 281.183 55.819 0.002 o
0 -4 2 161.626 162.755 41.102 0.004 o
0 -4 4 83.890 55.945 16.060 0.028 o
0 -3 1 67.479 68.461 0.087 22.442 o
0 -3 2 467.046 545.022 77.722 0.001 o
0 -3 3 42.882 43.477 0.068 54.946 o
0 -3 4 489.234 505.408 147.265 0.000 o
0 -3 7 456.970 463.118 2.308 0.365 o
0 -3 10 21.703 20.927 4.916 0.296 o
0 -3 11 50.171 63.661 17.132 0.024 o
0 -2 1 345.115 360.258 144.715 0.000 o
0 -2 3 613.125 628.742 2.694 0.216 o
0 -2 4 29.945 30.054 0.058 111.426 o
0 -2 7 8.626 9.599 3.322 0.648 o
0 -2 8 174.075 168.559 1.391 1.815 o
0 -2 9 92.389 93.203 20.734 0.017 o
0 -2 10 7.403 7.407 0.029 1572.380 o
0 -1 1 188.899 211.882 15.635 0.029 o
0 -1 3 303.658 315.670 78.225 0.001 o
0 -1 4 152.764 138.139 50.489 0.003 o
0 -1 5 417.514 391.055 65.834 0.002 o
0 -1 6 18.468 14.370 4.075 0.431 o
0 -1 8 512.579 524.664 125.449 0.000 o
0 -1 11 9.922 9.435 3.303 0.656 o
0 0 1 1077.590 1079.090 42.328 0.004 o
0 0 2 123.553 101.025 43.178 0.004 o
0 0 3 1439.580 1579.570 179.250 0.000 o
0 0 4 1323.610 1395.750 168.501 0.000 o
0 0 5 42.132 42.415 0.068 57.109 o
0 0 7 112.995 129.698 36.688 0.005 o
0 0 8 9.155 9.107 0.029 1101.810 o
0 1 0 1046.240 1087.210 254.944 0.000 o
0 1 1 2171.490 2172.590 215.233 0.000 o
0 1 4 817.639 787.363 3.013 0.134 o
0 1 6 197.123 191.602 1.487 1.493 o
0 1 9 505.319 523.921 27.041 0.010 o
0 2 0 1902.260 1989.420 153.272 0.000 o
0 2 1 17737.500 14417.800 219.202 0.000 o
0 2 2 996.624 982.915 40.397 0.004 o
0 2 3 50.594 51.686 0.077 39.363 o
0 2 4 311.606 352.764 42.357 0.004 o
0 2 5 442.066 431.780 46.857 0.003 o
0 2 10 101.015 102.117 21.700 0.015 o
0 2 11 26.383 22.936 5.147 0.270 o
0 3 0 107.257 108.172 44.675 0.004 o
0 3 1 1155.020 1174.590 80.967 0.001 o
0 3 2 1010.890 1008.670 40.928 0.004 o
0 3 3 213.665 227.160 82.541 0.001 o
0 3 4 368.338 332.483 41.121 0.004 o
0 3 5 490.649 495.325 2.385 0.324 o
0 3 8 20.419 20.387 0.048 234.374 o
0 3 10 175.998 188.057 75.105 0.001 o
0 4 1 565.536 543.525 177.753 0.000 o
0 4 3 53.037 42.908 14.071 0.036 o
0 4 6 429.396 414.551 24.047 0.012 o
0 4 9 80.762 85.187 9.908 0.073 o
0 5 0 116.944 114.285 1.149 3.206 o
0 5 3 208.075 219.135 49.281 0.003 o
0 5 5 69.262 63.835 25.737 0.011 o
0 5 6 244.150 253.109 87.129 0.001 o
0 5 9 24.608 24.829 0.058 160.427 o
0 6 1 317.255 302.082 1.864 0.710 o
0 6 2 131.210 123.769 13.144 0.041 o
0 6 3 1200.100 1173.130 305.278 0.000 o
0 6 4 77.873 70.972 27.137 0.010 o
0 6 7 117.868 119.394 1.169 3.093 o
0 7 0 76.911 77.066 0.097 17.437 o
0 7 5 64.164 63.401 0.087 25.187 o
0 7 7 125.897 124.010 1.198 2.867 o
0 8 2 93.449 94.970 1.043 4.247 o
1 -8 0 58.768 57.394 8.131 0.108 o
1 -8 1 130.290 122.223 36.804 0.005 o
1 -8 4 119.447 117.288 24.423 0.012 o
1 -7 4 163.803 173.195 72.073 0.001 o
1 -7 5 494.329 475.450 121.760 0.000 o
1 -7 8 42.310 42.212 0.068 56.977 o
1 -6 3 144.754 171.785 43.632 0.004 o
1 -6 5 214.246 212.983 1.564 1.291 o
1 -6 6 424.878 419.148 4.394 0.228 o
1 -5 1 171.182 151.717 27.774 0.009 o
1 -5 5 170.520 191.602 46.085 0.003 o
1 -5 6 688.023 654.034 170.269 0.000 o
1 -5 7 218.932 230.569 83.159 0.001 o
1 -4 2 224.702 228.773 34.110 0.006 o
1 -4 3 64.803 57.075 24.337 0.012 o
1 -4 4 98.831 98.988 0.106 10.627 o
1 -4 5 259.880 265.732 89.272 0.001 o
1 -4 7 484.887 486.286 97.095 0.001 o
1 -4 8 206.339 200.477 47.138 0.003 o
1 -4 10 87.439 88.799 10.121 0.070 o
1 -3 2 457.074 466.131 71.870 0.001 o
1 -3 3 126.868 145.304 38.832 0.005 o
1 -3 6 391.007 448.217 138.679 0.000 o
1 -3 7 1144.560 1109.640 329.103 0.000 o
1 -2 0 499.483 553.839 78.340 0.001 o
1 -2 3 154.898 135.753 37.538 0.005 o
1 -2 5 100.048 98.138 0.106 10.517 o
1 -2 7 126.917 129.331 13.433 0.039 o
1 -2 8 694.573 674.797 114.372 0.001 o
1 -2 9 109.507 112.566 45.573 0.003 o
1 -2 10 98.238 103.421 33.859 0.006 o
1 -1 0 446.301 451.413 161.992 0.000 o
1 -1 2 618.463 669.785 169.525 0.000 o
1 -1 3 1599.270 1629.460 95.366 0.001 o
1 -1 6 190.264 187.169 1.468 1.563 o
1 -1 8 545.638 516.089 124.416 0.000 o
1 -1 10 54.487 45.843 14.544 0.034 o
1 -1 12 96.682 94.555 20.889 0.016 o
1 0 0 1599.680 1535.490 50.498 0.003 o
1 0 1 232.770 239.290 68.104 0.002 o
1 0 2 2.528 2.530 0.019 8880.590 o
1 0 3 14.155 14.206 0.039 474.173 o
1 0 4 668.911 687.690 228.107 0.000 o
1 0 5 22.251 22.077 0.048 200.555 o
1 0 7 277.362 252.086 104.000 0.001 o
1 0 8 66.984 71.880 9.107 0.086 o
1 0 9 270.205 261.724 71.233 0.001 o
1 0 10 244.613 238.788 68.036 0.002 o
1 0 12 86.388 86.385 0.097 13.905 o
1 1 0 584.133 625.516 136.970 0.000 o
1 1 2 56.305 56.099 0.077 32.511 o
1 1 4 540.631 510.980 172.345 0.000 o
1 1 9 442.737 407.579 110.567 0.001 o
1 1 10 163.513 187.468 16.176 0.027 o
1 2 0 3762.010 3506.800 273.448 0.000 o
1 2 1 2888.350 2924.620 365.869 0.000 o
1 2 2 1444.080 1621.240 224.842 0.000 o
1 2 3 195.044 195.040 1.497 1.486 o
1 2 5 39.990 39.943 0.068 63.458 o
1 2 6 105.750 105.284 44.076 0.004 o
1 2 7 26.613 32.149 6.084 0.193 o
1 2 10 94.951 84.598 19.749 0.018 o
1 2 11 93.190 94.864 10.459 0.065 o
1 2 12 30.811 30.469 0.058 106.547 o
1 3 0 553.630 618.553 243.037 0.000 o
1 3 1 25.638 26.297 11.009 0.059 o
1 3 3 265.237 309.779 134.198 0.000 o
1 3 5 229.022 228.618 50.334 0.003 o
1 3 7 29.666 29.581 0.058 113.888 o
1 3 8 240.062 234.664 83.893 0.001 o
1 3 9 63.864 67.399 8.817 0.092 o
1 3 11 211.799 221.047 65.457 0.002 o
1 4 0 227.439 234.500 18.088 0.022 o
1 4 1 1038.120 1055.930 76.766 0.001 o
1 4 2 1103.230 1102.850 328.089 0.000 o
1 4 3 288.466 336.810 21.681 0.015 o
1 4 10 1.114 1.043 0.222 144.878 o
1 4 11 17.372 12.670 3.824 0.489 o
1 5 1 196.739 247.334 35.462 0.006 o
1 5 2 114.399 125.690 36.118 0.005 o
1 5 4 199.339 222.167 33.617 0.006 o
1 6 0 124.371 123.170 0.116 6.789 o
1 6 1 101.645 101.460 32.449 0.007 o
1 6 2 678.030 679.259 5.601 0.114 o
1 6 3 410.862 436.029 136.787 0.000 o
1 7 2 31.394 42.560 14.013 0.036 o
1 7 8 3.327 3.631 0.203 170.766 o
1 8 0 136.034 136.758 1.255 2.526 o
1 8 3 167.764 163.441 15.104 0.031 o
1 8 5 131.930 116.593 47.543 0.003 o
1 9 1 130.028 115.782 11.550 0.053 o
2 -8 0 139.878 142.977 1.284 2.391 o
2 -8 1 93.949 93.715 1.043 4.249 o
2 -7 1 36.762 36.621 0.068 74.663 o
2 -7 3 55.371 62.889 8.518 0.098 o
2 -7 4 95.294 79.731 10.546 0.064 o
2 -7 5 120.408 121.277 24.839 0.012 o
2 -7 6 206.063 193.543 31.377 0.007 o
2 -7 7 102.572 94.449 21.913 0.015 o
2 -6 1 195.976 194.142 1.497 1.483 o
2 -6 2 424.907 411.924 178.719 0.000 o
2 -6 3 57.135 56.911 0.077 31.604 o
2 -5 0 213.748 227.160 50.170 0.003 o
2 -5 1 345.276 354.579 2.018 0.582 o
2 -5 2 143.296 147.120 1.304 2.298 o
2 -5 5 165.952 141.702 26.847 0.010 o
2 -5 6 614.256 618.283 138.853 0.000 o
2 -5 9 11.556 11.589 0.039 678.250 o
2 -4 1 68.522 79.152 28.663 0.009 o
2 -4 2 619.883 650.190 194.412 0.000 o
2 -4 3 682.365 686.280 118.158 0.001 o
2 -4 5 312.199 356.395 22.299 0.014 o
2 -4 7 196.831 194.142 76.312 0.001 o
2 -3 0 216.604 228.618 17.856 0.022 o
2 -3 3 574.617 583.796 158.274 0.000 o
2 -3 4 159.725 159.617 14.921 0.032 o
2 -3 5 223.853 226.021 1.613 1.190 o
2 -3 6 175.089 158.265 28.373 0.009 o
2 -3 7 1243.760 1255.820 45.670 0.003 o
2 -3 8 288.152 271.536 72.556 0.001 o
2 -3 9 86.250 87.186 20.058 0.018 o
2 -2 0 78.603 78.205 0.097 16.788 o
2 -2 1 1286.480 1256.960 83.758 0.001 o
2 -2 2 41.160 62.976 8.518 0.098 o
2 -2 3 895.319 887.703 70.392 0.001 o
2 -2 4 1971.690 2116.400 261.830 0.000 o
2 -2 8 579.157 565.525 79.161 0.001 o
2 -2 10 22.941 22.782 0.048 189.305 o
2 -1 0 392.228 368.051 125.671 0.000 o
2 -1 1 642.268 669.225 141.683 0.000 o
2 -1 2 161.492 147.246 39.093 0.005 o
2 -1 3 783.931 759.888 210.173 0.000 o
2 -1 4 766.775 748.386 267.335 0.000 o
2 -1 5 365.293 355.188 82.976 0.001 o
2 -1 6 404.010 393.614 2.134 0.464 o
2 -1 7 298.794 292.453 112.025 0.001 o
2 -1 8 2205.860 2120.360 217.570 0.000 o
2 -1 10 90.276 91.861 0.106 12.563 o
2 0 0 2389.410 2383.710 487.599 0.000 o
2 0 1 601.991 548.547 153.417 0.000 o
2 0 2 359.174 380.722 43.999 0.004 o
2 0 4 1017.780 947.221 39.663 0.004 o
2 0 5 1191.000 1284.140 200.110 0.000 o
2 0 6 130.369 111.204 45.293 0.003 o
2 0 7 205.669 206.600 1.545 1.361 o
2 0 9 562.572 521.719 149.621 0.000 o
2 1 0 5.601 5.582 0.029 2419.010 o
2 1 1 1604.310 1579.990 307.335 0.000 o
2 1 2 2354.970 2308.290 479.816 0.000 o
2 1 5 1114.630 1163.220 190.453 0.000 o
2 1 6 309.231 311.865 39.827 0.004 o
2 1 8 136.235 131.784 25.891 0.011 o
2 1 9 1707.470 1739.180 331.401 0.000 o
2 1 11 9.735 14.950 4.153 0.415 o
2 2 0 56.017 44.974 14.399 0.035 o
2 2 1 1328.630 1360.280 245.557 0.000 o
2 2 2 140.553 141.316 0.126 5.268 o
2 2 3 938.191 993.722 277.581 0.000 o
2 2 5 142.605 141.441 0.126 5.166 o
2 2 6 1081.860 1095.730 7.108 0.055 o
2 2 10 623.586 566.287 232.549 0.000 o
2 3 0 3.088 3.081 0.019 7033.360 o
2 3 2 97.748 114.285 34.438 0.006 o
2 3 3 372.201 374.879 106.038 0.001 o
2 3 4 1.668 1.671 0.010 25397.000 o
2 3 6 371.419 375.507 126.936 0.000 o
2 3 7 232.329 217.870 49.137 0.003 o
2 3 10 1090.970 1115.380 258.218 0.000 o
2 4 1 282.969 258.952 105.410 0.001 o
2 4 2 1028.180 943.262 303.424 0.000 o
2 4 3 58.405 58.292 24.597 0.012 o
2 4 4 164.138 161.664 69.629 0.001 o
2 4 7 347.487 339.774 120.746 0.000 o
2 4 11 229.732 212.201 32.854 0.007 o
2 5 3 124.905 111.320 45.322 0.003 o
2 5 4 227.493 209.545 48.190 0.003 o
2 5 7 280.360 269.768 19.402 0.019 o
2 5 8 138.281 133.513 50.875 0.003 o
2 5 11 569.075 573.212 30.855 0.007 o
2 6 2 100.391 93.406 31.135 0.007 o
2 6 6 31.547 31.241 0.058 101.777 o
2 7 0 119.669 119.394 1.169 3.067 o
2 7 1 63.978 63.149 9.387 0.081 o
2 7 8 47.459 43.120 14.100 0.036 o
2 8 0 177.352 154.373 41.362 0.004 o
2 8 4 152.732 150.655 27.678 0.009 o
2 8 7 36.865 37.403 0.068 73.404 o
2 9 3 28.148 28.200 0.058 125.387 o
3 -7 0 27.603 25.640 5.437 0.242 o
3 -7 2 115.703 112.344 46.664 0.003 o
3 -7 6 15.267 11.994 3.718 0.517 o
3 -6 1 151.516 151.051 54.110 0.002 o
3 -6 3 89.179 87.283 31.097 0.007 o
3 -6 6 188.866 185.411 1.458 1.586 o
3 -5 3 114.957 113.483 46.906 0.003 o
3 -5 5 2.872 2.511 0.174 232.977 o
3 -5 10 53.848 54.661 7.938 0.113 o
3 -4 2 502.075 527.368 175.088 0.000 o
3 -4 3 4.659 4.520 0.232 129.791 o
3 -3 0 283.769 288.426 74.777 0.001 o
3 -3 2 885.924 884.188 293.767 0.000 o
3 -3 6 91.089 97.713 31.850 0.007 o
3 -3 7 57.942 45.766 7.262 0.135 o
3 -3 9 101.933 110.635 35.017 0.006 o
3 -3 11 69.561 76.505 9.397 0.081 o
3 -2 1 180.338 177.029 44.289 0.004 o
3 -2 2 53.483 53.637 0.077 35.776 o
3 -2 3 1069.020 1112.150 42.975 0.004 o
3 -2 7 93.520 95.289 11.531 0.054 o
3 -2 8 388.878 381.977 65.061 0.002 o
3 -2 11 145.826 128.597 49.928 0.003 o
3 -1 3 1826.330 1889.180 14.003 0.017 o
3 0 0 174.003 159.887 13.578 0.038 o
3 0 3 242.050 266.784 89.456 0.001 o
3 0 4 2834.350 2767.100 242.902 0.000 o
3 0 5 10.930 10.942 0.039 746.443 o
3 0 6 134.894 156.913 41.700 0.004 o
3 0 7 143.286 138.013 39.112 0.005 o
3 1 0 1934.160 2050.720 160.476 0.000 o
3 1 1 126.361 117.057 23.236 0.013 o
3 1 2 135.013 102.551 43.497 0.004 o
3 1 4 2410.700 2377.420 225.151 0.000 o
3 1 5 29.901 29.822 0.058 112.184 o
3 2 0 681.082 785.557 213.698 0.000 o
3 2 5 1253.540 1213.560 269.343 0.000 o
3 2 8 83.827 80.117 28.837 0.009 o
3 2 11 0.530 0.734 0.183 212.494 o
3 3 0 269.235 245.306 52.140 0.003 o
3 3 1 2531.150 2564.760 505.775 0.000 o
3 3 2 104.133 116.593 23.187 0.013 o
3 3 4 109.491 97.607 10.613 0.063 o
3 3 5 1228.370 1252.020 7.600 0.044 o
3 3 6 28.576 37.528 6.577 0.165 o
3 3 12 17.198 11.550 3.650 0.537 o
3 4 1 758.430 799.165 66.790 0.002 o
3 4 4 61.172 71.426 18.156 0.022 o
3 4 6 698.308 652.383 194.740 0.000 o
3 4 8 70.593 76.032 9.368 0.081 o
3 4 9 128.207 127.747 48.547 0.003 o
3 4 10 76.380 76.882 0.097 17.622 o
3 5 0 138.363 130.432 36.794 0.005 o
3 5 2 744.263 776.257 275.254 0.000 o
3 5 4 95.563 93.406 10.382 0.066 o
3 5 6 407.525 410.408 2.173 0.447 o
3 5 11 11.182 11.193 0.039 718.205 o
3 6 0 10.905 10.942 0.039 748.381 o
3 6 1 223.879 199.868 31.879 0.007 o
3 6 2 334.319 324.313 40.609 0.004 o
3 6 3 15.292 15.403 0.039 411.200 o
3 6 7 153.113 128.472 25.563 0.011 o
3 6 9 19.768 19.672 0.048 249.294 o
3 6 10 21.390 21.719 0.048 212.784 o
3 7 3 356.487 347.133 82.029 0.001 o
3 7 5 149.369 151.978 14.563 0.034 o
3 7 6 54.506 46.133 7.291 0.134 o
3 7 7 151.601 148.424 40.561 0.004 o
3 8 3 84.820 91.754 21.604 0.015 o
4 -7 3 84.648 81.373 9.686 0.076 o
4 -6 4 67.877 56.022 24.114 0.012 o
4 -6 5 45.759 40.967 6.876 0.151 o
4 -5 0 45.758 45.911 0.077 48.332 o
4 -5 3 3.960 4.124 0.222 141.973 o
4 -5 4 297.379 290.068 95.106 0.001 o
4 -5 5 52.991 43.333 7.774 0.118 o
4 -5 7 52.347 57.239 24.375 0.012 o
4 -5 8 53.274 52.391 7.774 0.118 o
4 -5 9 49.157 63.487 9.416 0.081 o
4 -4 1 299.120 300.218 1.864 0.750 o
4 -4 2 336.489 343.145 21.884 0.015 o
4 -4 5 378.380 343.744 21.903 0.015 o
4 -4 9 81.252 67.312 9.696 0.076 o
4 -3 2 71.165 76.505 9.397 0.081 o
4 -3 5 486.052 462.201 48.480 0.003 o
4 -3 10 128.506 129.080 1.217 2.751 o
4 -3 11 382.604 370.321 105.391 0.001 o
4 -2 1 57.228 57.239 0.077 31.419 o
4 -2 2 281.225 278.122 91.339 0.001 o
4 -2 3 147.088 128.839 25.602 0.011 o
4 -2 4 202.911 231.216 83.275 0.001 o
4 -2 7 70.564 63.835 9.435 0.080 o
4 -2 10 31.253 29.407 11.647 0.053 o
4 -1 1 178.141 162.340 42.415 0.004 o
4 -1 3 113.334 112.914 0.116 8.122 o
4 -1 4 26.413 26.509 0.058 141.113 o
4 -1 6 938.915 907.327 232.897 0.000 o
4 -1 10 198.413 201.694 32.024 0.007 o
4 0 1 88.486 92.064 30.913 0.007 o
4 0 2 22.744 13.887 3.998 0.447 o
4 0 3 383.594 409.317 132.528 0.000 o
4 0 7 484.222 478.502 2.347 0.337 o
4 0 9 149.540 140.930 14.023 0.036 o
4 0 12 55.121 54.825 0.077 33.920 o
4 1 0 206.838 202.766 47.398 0.003 o
4 1 1 3.177 3.177 0.019 6773.320 o
4 1 2 281.745 280.102 109.630 0.001 o
4 1 3 21.722 25.099 5.379 0.247 o
4 1 5 9.081 8.469 3.129 0.731 o
4 1 7 381.341 343.145 121.345 0.000 o
4 1 12 29.814 28.142 11.396 0.055 o
4 2 2 381.709 323.734 117.858 0.001 o
4 2 3 148.182 132.769 24.752 0.012 o
4 2 4 402.665 410.843 45.708 0.003 o
4 2 6 486.537 510.256 99.451 0.001 o
4 2 9 39.143 31.966 12.139 0.049 o
4 2 10 146.158 145.565 53.115 0.003 o
4 2 11 82.469 84.994 9.899 0.073 o
4 3 0 36.556 27.012 11.164 0.057 o
4 3 1 142.400 166.473 29.098 0.008 o
4 3 3 385.806 343.348 141.277 0.000 o
4 3 9 27.191 27.128 0.058 134.153 o
4 4 0 163.762 188.057 45.650 0.003 o
4 4 1 292.604 298.731 20.416 0.017 o
4 4 5 264.683 246.484 69.127 0.001 o
4 4 7 238.225 234.171 18.079 0.022 o
4 4 8 10.402 10.343 0.039 814.111 o
4 5 2 376.135 371.769 147.004 0.000 o
4 5 5 16.610 16.524 0.048 341.630 o
4 6 0 27.986 42.067 6.963 0.147 o
4 6 2 159.119 172.770 57.867 0.002 o
4 6 6 135.966 126.415 37.432 0.005 o
4 6 7 34.326 34.062 0.058 86.498 o
4 6 8 231.256 232.365 1.642 1.131 o
4 6 10 1.628 1.777 0.145 338.107 o
4 7 0 123.997 121.036 24.810 0.012 o
4 7 1 52.843 55.858 16.050 0.028 o
4 7 6 17.127 17.007 0.048 323.814 o
4 7 8 67.972 58.707 16.456 0.026 o
4 8 0 208.220 218.980 17.480 0.023 o
4 8 4 46.567 47.456 7.398 0.130 o
4 9 0 228.888 230.077 17.914 0.022 o
4 9 1 68.073 76.689 19.749 0.018 o
5 -5 0 55.118 53.405 7.851 0.116 o
5 -5 2 59.712 71.696 18.185 0.022 o
5 -5 3 97.306 89.205 31.444 0.007 o
5 -4 0 157.515 155.445 14.727 0.033 o
5 -4 2 483.745 485.813 191.718 0.000 o
5 -4 4 85.872 68.992 26.761 0.010 o
5 -4 5 50.474 49.397 0.753 9.707 o
5 -4 8 199.359 187.468 74.989 0.001 o
5 -3 0 635.172 649.370 251.757 0.000 o
5 -3 3 308.568 324.313 98.630 0.001 o
5 -3 4 122.102 119.394 1.169 3.033 o
5 -2 0 268.998 243.298 18.426 0.021 o
5 -2 1 485.580 470.776 142.127 0.000 o
5 -2 3 1263.330 1246.710 121.335 0.000 o
5 -2 5 132.728 116.477 24.337 0.012 o
5 -2 10 4.472 8.469 3.129 0.731 o
5 -1 1 740.512 738.729 5.833 0.101 o
5 -1 4 363.380 363.116 145.285 0.000 o
5 -1 5 260.603 268.889 89.804 0.001 o
5 -1 9 107.076 106.723 34.390 0.006 o
5 -1 10 218.999 221.047 1.593 1.233 o
5 -1 12 287.896 281.898 55.897 0.002 o
5 0 0 140.879 132.769 13.607 0.038 o
5 0 1 197.884 204.446 78.311 0.001 o
5 0 2 196.961 196.691 1.507 1.462 o
5 0 4 1734.220 1709.310 235.311 0.000 o
5 0 8 159.663 174.045 58.089 0.002 o
5 1 2 1041.880 1033.370 144.986 0.000 o
5 1 5 665.223 640.649 250.058 0.000 o
5 1 6 343.573 336.607 100.485 0.001 o
5 1 8 149.651 137.134 51.561 0.003 o
5 1 9 105.163 101.141 43.197 0.004 o
5 2 2 204.297 182.060 44.916 0.004 o
5 2 3 172.346 166.058 70.576 0.001 o
5 2 4 78.100 69.890 17.953 0.022 o
5 2 5 1530.370 1497.850 303.395 0.000 o
5 2 9 440.216 442.780 183.036 0.000 o
5 3 1 168.536 168.559 71.107 0.001 o
5 3 3 272.242 284.245 74.226 0.001 o
5 3 9 84.252 72.247 27.379 0.010 o
5 3 10 71.887 72.334 0.087 19.937 o
5 4 1 136.667 125.806 12.043 0.049 o
5 4 2 246.406 200.622 47.157 0.003 o
5 4 3 117.565 116.245 0.116 7.594 o
5 4 4 1.991 2.192 0.155 296.304 o
5 4 6 1036.690 1016.530 143.798 0.000 o
5 4 9 19.147 17.364 4.471 0.358 o
5 4 10 307.113 311.672 77.732 0.001 o
5 5 2 171.327 174.895 58.224 0.002 o
5 5 4 116.152 122.812 23.805 0.013 o
5 5 7 150.803 148.298 1.304 2.221 o
5 5 10 127.369 121.036 24.810 0.012 o
5 5 11 53.390 49.629 7.562 0.125 o
5 6 7 448.898 440.076 47.311 0.003 o
5 6 8 3.952 4.616 0.232 130.409 o
5 7 1 70.110 68.374 0.087 21.367 o
5 7 6 110.224 111.658 34.042 0.006 o
5 7 8 15.603 12.033 3.728 0.515 o
5 8 4 33.337 27.407 11.241 0.057 o
5 9 1 31.385 31.299 0.058 102.325 o
5 9 2 45.082 48.943 15.780 0.029 o
5 9 4 9.091 9.107 0.029 1110.850 o
6 -5 3 39.200 35.838 6.432 0.173 o
6 -5 4 48.953 45.988 14.563 0.034 o
6 -4 2 63.662 59.364 24.819 0.012 o
6 -4 7 54.243 58.456 8.209 0.106 o
6 -4 8 45.402 43.400 14.148 0.036 o
6 -3 2 30.302 30.469 0.058 108.824 o
6 -3 4 111.190 100.166 33.318 0.006 o
6 -3 5 192.592 182.060 59.412 0.002 o
6 -3 8 14.740 12.632 3.815 0.492 o
6 -2 1 7.924 9.667 3.341 0.641 o
6 -2 2 504.163 482.269 49.523 0.003 o
6 -2 3 283.995 260.333 71.039 0.001 o
6 -2 8 141.113 134.256 38.571 0.005 o
6 -1 2 445.738 464.277 94.864 0.001 o
6 0 0 66.803 75.289 9.319 0.082 o
6 0 3 1388.250 1383.340 331.508 0.000 o
6 0 8 87.731 88.896 31.386 0.007 o
6 0 9 47.895 47.978 0.077 44.317 o
6 1 0 668.225 618.022 165.517 0.000 o
6 1 3 431.428 451.182 139.143 0.000 o
6 1 7 225.994 225.055 66.047 0.002 o
6 1 9 143.457 148.298 26.152 0.010 o
6 2 0 506.678 495.798 2.395 0.313 o
6 2 2 67.989 60.281 16.678 0.026 o
6 2 4 1434.850 1450.030 339.407 0.000 o
6 2 5 698.190 672.286 144.783 0.000 o
6 2 6 6.197 6.210 0.270 94.547 o
6 2 9 36.426 36.746 0.068 75.374 o
6 2 10 71.338 60.281 25.012 0.011 o
6 3 0 1.137 1.053 0.222 144.870 o
6 3 1 581.837 551.560 52.961 0.003 o
6 3 4 589.987 573.724 28.296 0.009 o
6 3 6 98.108 84.695 29.648 0.008 o
6 3 8 208.963 203.982 1.536 1.359 o
6 4 0 44.059 44.404 15.027 0.032 o
6 4 3 44.787 35.462 12.786 0.044 o
6 4 4 33.738 33.878 0.058 88.735 o
6 4 5 1623.650 1621.240 276.731 0.000 o
6 4 6 390.550 397.458 152.007 0.000 o
6 4 9 18.319 21.323 4.954 0.291 o
6 5 2 155.485 150.925 1.323 2.133 o
6 5 4 48.778 48.799 0.077 42.820 o
6 5 5 168.404 169.960 1.400 1.839 o
6 5 6 84.607 88.693 11.125 0.058 o
6 6 0 110.081 106.057 22.115 0.015 o
6 6 1 119.439 122.938 35.722 0.006 o
6 6 4 144.834 128.964 49.996 0.003 o
6 6 6 851.744 837.871 161.635 0.000 o
6 6 7 349.654 363.329 145.333 0.000 o
6 7 0 17.578 20.435 4.858 0.303 o
6 7 3 94.849 93.618 20.783 0.017 o
6 7 7 56.102 55.539 8.006 0.111 o
6 8 4 2.495 2.839 0.183 209.772 o
6 8 5 72.199 71.696 9.097 0.086 o
6 8 7 410.050 418.936 68.133 0.002 o
7 -3 0 119.836 127.863 13.356 0.040 o
7 -3 7 35.870 32.825 12.303 0.047 o
7 -2 1 162.585 160.843 69.456 0.001 o
7 -2 5 141.735 138.651 39.199 0.005 o
7 -2 7 102.530 103.092 0.106 9.861 o
7 -1 1 249.965 253.109 70.045 0.001 o
7 -1 4 56.063 62.551 16.987 0.025 o
7 -1 6 145.446 147.506 0.135 4.887 o
7 0 4 9.191 9.174 0.029 1092.170 o
7 0 6 232.134 228.773 1.622 1.146 o
7 0 7 115.772 120.331 24.742 0.012 o
7 0 9 22.724 24.192 5.283 0.256 o
7 0 10 303.152 285.877 38.127 0.005 o
7 1 0 117.580 105.168 44.047 0.004 o
7 1 1 59.519 60.030 8.325 0.103 o
7 1 2 255.100 274.018 55.105 0.002 o
7 1 3 35.466 31.599 12.072 0.049 o
7 1 4 52.990 52.932 0.077 36.517 o
7 2 0 222.393 202.766 47.398 0.003 o
7 2 3 105.348 111.426 1.130 3.479 o
7 2 7 241.044 227.643 50.228 0.003 o
7 3 1 148.282 129.447 24.433 0.012 o
7 3 2 40.319 40.010 0.068 62.726 o
7 3 3 227.301 240.622 84.956 0.001 o
7 3 4 28.974 29.407 0.058 117.763 o
7 3 7 152.866 140.427 26.722 0.010 o
7 3 8 137.660 138.013 39.112 0.005 o
7 4 0 207.943 202.148 62.599 0.002 o
7 4 1 398.947 398.742 109.360 0.001 o
7 4 3 51.137 55.945 8.035 0.111 o
7 4 5 103.743 100.919 32.362 0.007 o
7 4 7 19.276 19.295 0.048 260.145 o
7 4 8 96.254 97.076 0.106 11.143 o
7 5 0 92.348 87.785 30.189 0.008 o
7 5 2 252.677 238.623 18.243 0.021 o
7 5 4 190.105 198.352 46.886 0.003 o
7 5 5 103.431 103.092 0.106 9.748 o
7 5 9 30.768 30.527 0.058 106.611 o
7 6 0 28.989 31.058 11.966 0.050 o
7 6 2 248.875 241.955 85.187 0.001 o
7 6 4 62.124 73.251 9.194 0.084 o
7 6 6 151.202 144.918 14.216 0.035 o
7 7 3 141.406 145.565 1.294 2.343 o
7 7 6 61.239 62.386 16.968 0.025 o
7 8 3 214.028 225.383 66.095 0.002 o
7 8 4 61.112 52.700 8.576 0.097 o
8 -2 4 366.899 362.508 42.937 0.004 o
8 -1 5 131.700 125.690 36.118 0.005 o
8 -1 7 72.844 72.334 0.917 5.969 o
8 0 1 293.454 295.032 57.181 0.002 o
8 0 3 85.098 84.395 0.097 14.399 o
8 0 5 256.011 261.898 1.738 0.951 o
8 0 8 566.534 560.677 208.512 0.000 o
8 1 0 280.120 268.542 54.554 0.002 o
8 1 1 56.672 66.085 27.060 0.010 o
8 1 2 39.540 39.334 0.068 65.017 o
8 1 4 144.103 137.385 51.609 0.003 o
8 1 5 79.558 72.981 9.174 0.085 o
8 1 6 64.499 57.973 8.180 0.107 o
8 1 8 183.192 177.599 44.366 0.004 o
8 1 9 59.188 53.878 8.672 0.095 o
8 2 2 301.105 289.885 74.960 0.001 o
8 2 6 320.818 321.029 136.613 0.000 o
8 2 9 672.783 642.001 195.909 0.000 o
8 3 1 242.122 245.306 52.140 0.003 o
8 3 4 57.944 62.464 16.978 0.025 o
8 4 1 61.812 56.747 16.176 0.027 o
8 4 3 194.715 192.345 16.379 0.026 o
8 4 4 24.602 24.617 0.058 161.328 o
8 4 5 193.499 198.198 61.981 0.002 o
8 4 7 147.961 148.684 53.685 0.002 o
8 5 2 132.761 136.758 51.493 0.003 o
8 6 1 137.266 148.163 27.446 0.009 o
8 6 5 7.165 9.136 3.573 0.561 o
9 3 2 25.597 25.747 0.058 149.410 o
9 3 4 49.422 48.721 14.988 0.032 o
9 4 3 65.961 65.303 0.087 23.837 o
9 4 4 75.061 87.689 20.116 0.018 o
;
_olex2_submission_special_instructions 'No special instructions were received'
loop_
_space_group_symop_id
_space_group_symop_operation_xyz
1 x,y,z
2 -x,-y,-z
loop_
_atom_site_label
_atom_site_type_symbol
_atom_site_fract_x
_atom_site_fract_y
_atom_site_fract_z
_atom_site_U_iso_or_equiv
_atom_site_adp_type
_atom_site_occupancy
_atom_site_refinement_flags_posn
S S 0.18753(5) 0.96553(4) 0.11532(4) 0.01694(11) Uani 1.000000 .
O1 O 0.86021(14) 0.76707(18) 0.44883(9) 0.0202(2) Uani 1.000000 .
O2 O 0.60582(12) 0.69588(11) 0.61257(9) 0.0171(2) Uani 1.000000 .
N1 N 0.26686(15) 0.82152(14) 0.33812(10) 0.0138(2) Uani 1.000000 .
N3 N 0.52624(16) 0.90610(16) 0.17898(10) 0.0152(2) Uani 1.000000 .
C2 C 0.34086(16) 0.89413(19) 0.21295(14) 0.0155(2) Uani 1.000000 .
C4 C 0.67579(17) 0.82038(19) 0.24806(12) 0.0143(3) Uani 1.000000 .
C4A C 0.82576(17) 0.6497(2) 0.16372(11) 0.0212(3) Uani 1.000000 .
C5 C 0.56472(17) 0.78440(16) 0.39478(13) 0.0125(2) Uani 1.000000 .
C5A C 0.6892(2) 0.74989(18) 0.48659(14) 0.0147(2) Uani 1.000000 .
C6 C 0.36943(17) 0.78066(17) 0.43403(10) 0.0107(2) Uani 1.000000 .
C6A C 0.2415(2) 0.7337(2) 0.57164(12) 0.0199(3) Uani 1.000000 .
C7 C 0.7321(2) 0.64890(18) 0.70152(14) 0.0174(3) Uani 1.000000 .
C8 C 0.6047(2) 0.6017(2) 0.83887(11) 0.0223(3) Uani 1.000000 .
H1 H 0.109(2) 0.837(2) 0.3751(15) 0.022(4) Uiso 1.000000 .
H3 H 0.580(3) 0.962(2) 0.0793(16) 0.020(4) Uiso 1.000000 .
H4 H 0.7581(19) 0.904(2) 0.2476(13) 0.010(4) Uiso 1.000000 .
H4Aa H 0.922(2) 0.582(2) 0.2107(16) 0.018(4) Uiso 1.000000 .
H4Ab H 0.8764(18) 0.6808(18) 0.0599(14) 0.005(3) Uiso 1.000000 .
H4Ac H 0.735(5) 0.522(4) 0.177(2) 0.065(6) Uiso 1.000000 .
H6Aa H 0.174(4) 0.841(4) 0.654(3) 0.071(8) Uiso 1.000000 .
H6Ab H 0.102(3) 0.718(3) 0.5872(19) 0.042(6) Uiso 1.000000 .
H6Ac H 0.289(6) 0.656(5) 0.646(3) 0.132(14) Uiso 1.000000 .
H7a H 0.773(3) 0.781(3) 0.7173(17) 0.028(5) Uiso 1.000000 .
H7b H 0.8782(18) 0.5482(19) 0.6487(13) 0.003(3) Uiso 1.000000 .
H8a H 0.470(3) 0.711(2) 0.8895(19) 0.028(4) Uiso 1.000000 .
H8b H 0.566(3) 0.460(3) 0.8301(19) 0.042(7) Uiso 1.000000 .
H8c H 0.661(4) 0.584(3) 0.916(2) 0.061(7) Uiso 1.000000 .
loop_
_atom_site_aniso_label
_atom_site_aniso_U_11
_atom_site_aniso_U_22
_atom_site_aniso_U_33
_atom_site_aniso_U_12
_atom_site_aniso_U_13
_atom_site_aniso_U_23
S 0.01262(17) 0.0237(2) 0.01514(16) -0.00527(14) -0.00616(11) 0.00505(11)
O1 0.0112(4) 0.0355(5) 0.0173(5) -0.0135(5) -0.0045(3) 0.0101(4)
O2 0.0104(4) 0.0250(5) 0.0153(4) -0.0062(4) -0.0032(4) 0.0037(4)
N1 0.0116(5) 0.0185(5) 0.0128(4) -0.0056(4) -0.0054(4) 0.0035(4)
N3 0.0129(5) 0.0199(5) 0.0133(4) -0.0032(4) -0.0069(5) 0.0043(4)
C2 0.0121(5) 0.0192(6) 0.0142(6) -0.0049(5) -0.0025(4) -0.0026(5)
C4 0.0101(6) 0.0237(6) 0.0122(7) -0.0076(5) -0.0060(4) 0.0058(4)
C4A 0.0166(7) 0.0303(5) 0.0129(7) 0.0001(6) -0.0065(5) 0.0036(5)
C5 0.0107(6) 0.0180(5) 0.0108(5) -0.0042(5) -0.0062(4) 0.0022(5)
C5A 0.0111(5) 0.0199(6) 0.0134(5) -0.0039(5) -0.0052(4) 0.0020(4)
C6 0.0103(4) 0.0102(5) 0.0129(6) -0.0034(4) -0.0053(5) 0.0019(4)
C6A 0.0109(5) 0.0383(8) 0.0124(5) -0.0110(4) -0.0041(5) 0.0086(5)
C7 0.0143(5) 0.0205(7) 0.0186(6) -0.0048(6) -0.0070(4) -0.0002(6)
C8 0.0224(6) 0.0273(7) 0.0180(6) -0.0092(6) -0.0063(5) 0.0025(5)
loop_
_atom_type_symbol
_atom_type_description
_atom_type_scat_dispersion_real
_atom_type_scat_dispersion_imag
_atom_type_scat_source
_atom_type_scat_dispersion_source
C C 0.00347 0.00161
'Clementi & Roetti, C., At. Data Nucl. Data Tables 1974, 14, (177-478); Clementi & Raimondi, J. Chem. Phys., 1963, 38, (2686-2689)'
'Henke, Gullikson and Davis, At. Data and Nucl. Data Tables, 1993, 54, 2'
H H 0.00000 0.00000
'Clementi & Roetti, C., At. Data Nucl. Data Tables 1974, 14, (177-478); Clementi & Raimondi, J. Chem. Phys., 1963, 38, (2686-2689)'
'Henke, Gullikson and Davis, At. Data and Nucl. Data Tables, 1993, 54, 2'
N N 0.00653 0.00323
'Clementi & Roetti, C., At. Data Nucl. Data Tables 1974, 14, (177-478); Clementi & Raimondi, J. Chem. Phys., 1963, 38, (2686-2689)'
'Henke, Gullikson and Davis, At. Data and Nucl. Data Tables, 1993, 54, 2'
O O 0.01158 0.00611
'Clementi & Roetti, C., At. Data Nucl. Data Tables 1974, 14, (177-478); Clementi & Raimondi, J. Chem. Phys., 1963, 38, (2686-2689)'
'Henke, Gullikson and Davis, At. Data and Nucl. Data Tables, 1993, 54, 2'
loop_
_geom_angle_atom_site_label_1
_geom_angle_atom_site_label_2
_geom_angle_atom_site_label_3
_geom_angle
_geom_angle_site_symmetry_1
_geom_angle_site_symmetry_3
_geom_angle_publ_flag
C7 O2 C5A 116.94(9) . . ?
C6 N1 C2 123.21(10) . . ?
C4 N3 C2 126.11(12) . . ?
N1 C2 S 118.72(9) . . ?
N3 C2 S 124.45(12) . . ?
N3 C2 N1 116.81(12) . . ?
C4A C4 N3 109.67(9) . . ?
C5 C4 N3 109.07(10) . . ?
C5 C4 C4A 112.63(11) . . ?
C5A C5 C4 113.97(10) . . ?
C6 C5 C4 121.39(10) . . ?
C6 C5 C5A 124.62(13) . . ?
O2 C5A O1 121.88(13) . . ?
C5 C5A O1 122.01(14) . . ?
C5 C5A O2 116.10(11) . . ?
C5 C6 N1 118.81(10) . . ?
C6A C6 N1 112.72(9) . . ?
C6A C6 C5 128.45(12) . . ?
C8 C7 O2 107.57(12) . . ?
loop_
_geom_bond_atom_site_label_1
_geom_bond_atom_site_label_2
_geom_bond_distance
_geom_bond_site_symmetry_2
_geom_bond_publ_flag
S C2 1.6956(14) . ?
O1 C5A 1.2227(19) . ?
O2 C5A 1.3340(13) . ?
O2 C7 1.4602(15) . ?
N1 C2 1.3767(15) . ?
N1 C6 1.3918(16) . ?
N3 C2 1.3100(15) . ?
N3 C4 1.4733(15) . ?
C4 C4A 1.5335(15) . ?
C4 C5 1.5051(15) . ?
C5 C5A 1.4746(18) . ?
C5 C6 1.3541(14) . ?
C6 C6A 1.5029(14) . ?
C7 C8 1.4998(18) . ?
loop_
_refln_index_h
_refln_index_k
_refln_index_l
_refln_F_squared_meas
_refln_F_squared_sigma
1 0 0 1589.97 52.29
2 0 0 2468.29 504.9
3 0 0 165.56 14.06
4 0 0 83.65 89.95
5 0 0 137.48 14.09
6 0 0 77.96 9.65
7 0 0 1.39 5.74
8 0 0 29.91 41.84
9 0 0 24.61 22.23
11 0 0 13.6 49.44
12 0 0 3.08 2.11
13 0 0 3.76 4.66
14 0 0 16.93 48.36
15 0 0 5.6 15.53
-14 1 0 0.97 0.21
-13 1 0 4.38 0.23
-12 1 0 16.84 0.45
-11 1 0 26.21 12.31
-10 1 0 19.83 29.68
-9 1 0 4.04 22.22
-8 1 0 14.34 0.04
-7 1 0 3.55 29.26
-6 1 0 12.3 38.21
-4 1 0 2.27 22.22
-3 1 0 54.81 48.54
-2 1 0 381.11 130.13
-1 1 0 467.43 167.74
0 1 0 1125.79 263.99
1 1 0 647.71 141.83
2 1 0 5.78 0.03
3 1 0 2123.48 166.17
4 1 0 209.96 49.08
5 1 0 75 47.32
6 1 0 639.95 171.39
7 1 0 108.9 45.61
8 1 0 278.07 56.49
9 1 0 44.94 65.93
10 1 0 7.98 0.31
11 1 0 8.87 3.25
12 1 0 35.14 58.95
13 1 0 21.93 15.86
14 1 0 2.74 5.74
15 1 0 3.7 10.04
-13 2 0 16.39 22.56
-12 2 0 18.21 23.78
-11 2 0 24.78 16.86
-10 2 0 106.86 23.72
-8 2 0 216.02 114.03
-7 2 0 23.22 48.36
-5 2 0 251.93 19.08
-4 2 0 103.61 77.86
-3 2 0 156.96 110.89
-2 2 0 80.98 0.1
-1 2 0 573.49 81.12
0 2 0 2060.01 158.71
1 2 0 3631.23 283.15
2 2 0 46.57 14.91
3 2 0 813.43 221.28
4 2 0 32.04 49.48
5 2 0 23.59 48.36
6 2 0 513.39 2.48
7 2 0 209.96 49.08
8 2 0 12.46 15.43
9 2 0 34.56 51.39
11 2 0 45.83 36.99
12 2 0 26.32 23.55
13 2 0 10.11 50.53
14 2 0 15.6 17.7
-14 3 0 1.69 1.56
-12 3 0 1.52 6.11
-11 3 0 19.11 10.03
-9 3 0 0.92 1.26
-8 3 0 29.26 12.41
-7 3 0 132.4 13.83
-6 3 0 10.71 29.26
-5 3 0 672.41 260.69
-4 3 0 3.39 6.24
-3 3 0 298.66 77.43
-2 3 0 236.73 18.49
-1 3 0 6.68 5.65
0 3 0 112.01 46.26
1 3 0 640.5 251.66
2 3 0 3.19 0.02
3 3 0 254.01 53.99
4 3 0 27.97 11.56
5 3 0 17.11 38.21
6 3 0 1.09 0.23
7 3 0 69.15 36.35
8 3 0 8.29 21.49
9 3 0 388.18 23.68
10 3 0 200.25 125.26
11 3 0 6.15 22.22
12 3 0 3.51 39.17
13 3 0 4.33 2.5
14 3 0 21.42 26.3
15 3 0 1.07 2.89
-12 4 0 9.16 22.22
-11 4 0 1.39 1.55
-10 4 0 9.03 30.1
-9 4 0 49.75 31.6
-7 4 0 71.91 37.99
-6 4 0 2.53 30.1
-5 4 0 160.96 15.25
-4 4 0 6.23 8.19
-3 4 0 45.9 59.23
-2 4 0 293.02 151.52
-1 4 0 3.45 9.55
0 4 0 172.52 86.12
1 4 0 242.82 18.73
2 4 0 16.04 13.13
3 4 0 210.75 112.63
4 4 0 194.73 47.27
6 4 0 45.98 15.56
7 4 0 209.32 64.82
8 4 0 76.42 85.98
9 4 0 61.9 18.05
10 4 0 86.38 20.31
11 4 0 20.37 5.42
13 4 0 2.42 1.87
15 4 0 20.02 5.87
-13 5 0 6.21 8.44
-12 5 0 8.7 30.1
-11 5 0 2.83 30.1
-10 5 0 19.2 29.21
-9 5 0 1.21 30.95
-8 5 0 7.08 15.53
-6 5 0 92.89 74.78
-5 5 0 55.3 8.13
-4 5 0 47.54 0.08
-3 5 0 20.17 14.72
-2 5 0 235.22 51.95
-1 5 0 36.65 33.08
0 5 0 118.34 1.19
1 5 0 358.62 167.62
2 5 0 24.72 21.73
3 5 0 135.06 38.1
4 5 0 295.08 152.05
5 5 0 6.68 39.17
6 5 0 301.5 172.67
7 5 0 90.9 31.26
8 5 0 40.31 41.63
9 5 0 44.87 36.6
10 5 0 55.05 17.03
11 5 0 19.15 49.44
12 5 0 19.3 39.17
14 5 0 0.85 10.53
15 5 0 15.56 5.17
16 5 0 4.4 7.11
-11 6 0 1.18 0.24
-10 6 0 26.94 40.27
-9 6 0 1.01 10.53
-8 6 0 3.45 10.04
-6 6 0 55.3 48.76
-5 6 0 25.05 43.75
-4 6 0 90.8 52.06
-3 6 0 1.06 1.35
-2 6 0 127.42 99.91
0 6 0 10.46 7.07
1 6 0 127.54 0.12
2 6 0 6.29 14.93
3 6 0 11.33 0.04
4 6 0 43.56 7.21
6 6 0 109.82 22.9
7 6 0 32.16 12.39
8 6 0 10.5 17.7
9 6 0 111.66 93.53
10 6 0 66.72 54.45
11 6 0 179.63 16.11
12 6 0 25.76 44.93
13 6 0 11.14 0.04
14 6 0 9 17.04
-11 7 0 16.39 13.27
-10 7 0 21.21 35.74
-9 7 0 5.96 8.27
-8 7 0 2.67 39.17
-7 7 0 22.28 5.16
-6 7 0 0.92 1.26
-4 7 0 77.19 9.6
-3 7 0 26.55 5.63
-2 7 0 78.25 68.63
-1 7 0 34.18 44.72
0 7 0 79.8 0.1
1 7 0 127.92 112.47
2 7 0 123.63 1.21
4 7 0 125.33 25.69
5 7 0 10.93 18.06
6 7 0 21.16 5.03
7 7 0 14.3 20.66
8 7 0 22.65 31.72
9 7 0 20.52 25.24
10 7 0 8.1 9.64
11 7 0 4.4 10.04
12 7 0 16.66 31.67
14 7 0 23.28 50.53
-10 8 0 2.83 10.04
-9 8 0 3.83 4.49
-8 8 0 2.22 1.79
-7 8 0 17.33 31.85
-6 8 0 11.7 0.37
-5 8 0 30.03 0.6
-4 8 0 92.89 64.25
-3 8 0 32.66 37.47
-2 8 0 148.05 1.33
-1 8 0 59.43 8.42
1 8 0 141.61 1.3
2 8 0 159.85 42.83
3 8 0 53.76 40.06
4 8 0 226.75 18.1
5 8 0 8.32 9.77
6 8 0 5.17 15.53
7 8 0 69.79 63.9
8 8 0 9.6 7.11
10 8 0 43.06 50.91
11 8 0 11.29 22.4
12 8 0 12.73 8.19
13 8 0 7.86 12.56
14 8 0 0.99 40.15
15 8 0 7.4 23.7
-10 9 0 1.37 2.89
-9 9 0 4 30.1
-8 9 0 2.65 30.1
-7 9 0 1.62 3.06
-6 9 0 4.87 10.04
-4 9 0 16.39 17.7
-3 9 0 5.12 30.1
-2 9 0 6.88 38.21
-1 9 0 28.32 17.45
0 9 0 4.71 49.44
2 9 0 24.94 38.2
3 9 0 13.97 20.42
4 9 0 238.24 18.55
5 9 0 4.78 5.02
6 9 0 104.95 34.7
7 9 0 23.97 27.28
8 9 0 1.42 10.53
9 9 0 4.38 49.44
10 9 0 43.92 44.18
11 9 0 11.51 7.42
12 9 0 4.24 39.17
13 9 0 14.25 39.17
14 9 0 6.18 5.7
15 9 0 8.23 6.58
-9 10 0 2.74 22.22
-8 10 0 9.6 49.44
-7 10 0 15.26 30.95
-6 10 0 15.48 17.2
-5 10 0 12.89 8.24
-4 10 0 3.06 5.92
-3 10 0 12.5 19.31
-2 10 0 38.25 61.5
-1 10 0 85.87 30.38
1 10 0 15.91 13.08
2 10 0 60.87 0.09
3 10 0 20.12 48.36
4 10 0 25.21 11.52
5 10 0 43.92 36.94
6 10 0 12.04 39.17
7 10 0 35.73 20.25
8 10 0 1.32 2.89
9 10 0 6.15 39.17
10 10 0 15.6 39.17
11 10 0 3.59 2.28
12 10 0 1.99 15.53
13 10 0 7.58 15.53
-7 11 0 4.59 7.26
-5 11 0 0.98 1.3
-4 11 0 5.94 10.92
-3 11 0 21.01 48.36
-2 11 0 6.85 0.29
-1 11 0 33.16 31.46
0 11 0 0.89 2.89
1 11 0 21.32 30.27
4 11 0 66.19 0.89
5 11 0 190.63 1.51
7 11 0 42.56 29.23
10 11 0 16.44 23.48
12 11 0 21.47 25.82
14 11 0 8.1 49.44
-7 12 0 0.98 1.3
-5 12 0 8.35 40.15
-4 12 0 6.4 3.04
-3 12 0 2.1 0.16
-1 12 0 5.42 30.1
1 12 0 3.8 10.04
3 12 0 13.89 12.62
5 12 0 51 55.4
6 12 0 1.39 23.7
8 12 0 17.15 14.93
11 12 0 16.75 14.31
12 12 0 1.19 2.89
13 12 0 5.39 5.33
14 12 0 3.55 0.21
-6 13 0 1.1 50.53
-5 13 0 1.11 10.53
-3 13 0 3.19 30.1
-2 13 0 3.78 39.17
-1 13 0 3.1 5.96
0 13 0 8.26 49.44
1 13 0 1.99 6.11
2 13 0 40.87 0.7
4 13 0 23.59 27.07
5 13 0 3.31 16.14
6 13 0 3.8 4.69
8 13 0 23.91 38.47
11 13 0 28.55 37.37
12 13 0 2.44 10.04
13 13 0 5.27 22.22
-6 14 0 3.11 10.53
-5 14 0 0.83 6.11
-2 14 0 3.83 6.63
0 14 0 9.13 6.93
2 14 0 7.02 16.14
3 14 0 1.54 10.53
6 14 0 4.45 51.64
7 14 0 1.38 3.16
8 14 0 7.8 0.31
10 14 0 6.23 8.46
-2 15 0 1.5 16.14
0 15 0 6.62 6.19
3 15 0 1.43 1.57
4 15 0 4.99 39.17
5 15 0 8.35 6.63
12 15 0 3.74 11.04
-3 16 0 1.54 41.13
0 16 0 2.26 49.44
3 16 0 2.41 5.74
5 16 0 3.62 30.95
10 16 0 1.69 1.71
11 16 0 3 5.87
1 17 0 1.18 16.14
3 17 0 2.81 3.85
6 17 0 1.82 10.53
8 17 0 2.32 22.95
5 18 0 1.62 16.77
-9 -17 1 7.4 31.82
-7 -17 1 3.37 30.95
-10 -16 1 5.94 53.88
-9 -16 1 3.19 6.25
-6 -16 1 2.24 3.6
-5 -16 1 2.78 2.19
-3 -16 1 3.37 30.95
-1 -16 1 2.91 3.91
-11 -15 1 3.13 15.53
-8 -15 1 4.29 5.2
-6 -15 1 7.89 3.38
-3 -15 1 10.89 39.17
-1 -15 1 4.29 7.01
3 -15 1 1.88 22.22
-13 -14 1 1.84 0.15
-12 -14 1 5.22 10.53
-11 -14 1 3.93 0.22
-10 -14 1 6.59 8.7
-6 -14 1 1.97 50.53
-5 -14 1 4.87 30.95
-4 -14 1 3.21 6.07
-3 -14 1 3.53 30.1
0 -14 1 7.58 50.53
1 -14 1 4.63 7.53
3 -14 1 1.17 16.77
5 -14 1 0.85 1.21
-13 -13 1 1.09 22.95
-12 -13 1 7.7 49.44
-6 -13 1 7.31 30.1
-5 -13 1 15.6 0.43
-4 -13 1 12.38 30.1
-3 -13 1 3.64 6.67
-2 -13 1 2.55 50.53
0 -13 1 23.38 16.38
1 -13 1 1.22 2.89
2 -13 1 4.87 15.53
5 -13 1 2.49 0.17
6 -13 1 6.4 5.81
-14 -12 1 13.6 49.44
-12 -12 1 1.32 16.14
-10 -12 1 10.29 14.72
-8 -12 1 26.15 34.09
-6 -12 1 24.02 32.67
-4 -12 1 3.08 49.44
-2 -12 1 15.56 26.3
-1 -12 1 8.45 6.67
0 -12 1 30.09 53.95
2 -12 1 24.67 11.4
4 -12 1 1.02 16.14
6 -12 1 8.96 0.65
7 -12 1 2.8 22.22
8 -12 1 1.63 6.11
-13 -11 1 7.14 30.1
-12 -11 1 5.6 22.22
-11 -11 1 59.27 0.84
-8 -11 1 39.76 0.69
-6 -11 1 2.62 0.35
-5 -11 1 5.62 2.85
-4 -11 1 48.53 0.76
-2 -11 1 64.42 18.42
-1 -11 1 8.58 22.22
0 -11 1 7.58 6.32
1 -11 1 1.03 40.15
2 -11 1 6.76 8.81
3 -11 1 4.52 49.44
4 -11 1 1.94 1.83
5 -11 1 5.49 15.53
7 -11 1 3.35 0.2
-15 -10 1 1.02 2.89
-14 -10 1 3.43 22.22
-13 -10 1 14.34 30.1
-11 -10 1 48.53 54.05
-8 -10 1 44.65 44.54
-7 -10 1 1.37 0.26
-5 -10 1 201.34 49.62
-3 -10 1 64.95 9.69
-2 -10 1 1.29 6.11
-1 -10 1 11.44 14.78
0 -10 1 7.02 48.36
1 -10 1 48.22 23.52
3 -10 1 23.07 10.5
4 -10 1 19.39 0.05
5 -10 1 22.34 26.34
6 -10 1 3.06 4.01
8 -10 1 0.92 22.95
9 -10 1 1.55 0.27
-14 -9 1 5.02 0.24
-12 -9 1 11.51 0.37
-11 -9 1 1.75 15.53
-10 -9 1 14.71 12.99
-9 -9 1 5.81 2.9
-7 -9 1 46.05 22.99
-6 -9 1 19.11 28.66
-5 -9 1 371.36 86.34
-4 -9 1 306.45 21.04
-3 -9 1 3.19 0.2
-1 -9 1 9.97 38.21
0 -9 1 25.6 38.7
1 -9 1 54.49 72.6
2 -9 1 0.97 6.11
3 -9 1 71.07 46.98
4 -9 1 2.78 39.17
5 -9 1 14.84 5.05
6 -9 1 2.78 15.53
7 -9 1 3.8 39.17
8 -9 1 13.6 4.03
9 -9 1 2.6 16.14
10 -9 1 3.8 2.34
-15 -8 1 1.17 16.14
-13 -8 1 12.34 23.42
-12 -8 1 3.11 5.98
-11 -8 1 4.45 0.23
-10 -8 1 32.29 56.5
-9 -8 1 19.88 49.44
-7 -8 1 89.76 62.12
-6 -8 1 7.95 39.17
-5 -8 1 34.31 6.4
-4 -8 1 53.68 48.04
-3 -8 1 15.78 21.7
-2 -8 1 127.79 38.29
-1 -8 1 51.39 39.17
1 -8 1 126.56 38.11
2 -8 1 97.04 1.08
3 -8 1 5.49 15.53
4 -8 1 10.82 30.1
5 -8 1 46.79 23.17
6 -8 1 30.09 23.98
7 -8 1 30.57 0.6
8 -8 1 23.01 37.22
9 -8 1 1.84 3.26
11 -8 1 1.01 10.53
-15 -7 1 6.88 49.44
-14 -7 1 17.2 50.53
-13 -7 1 18.12 19.07
-12 -7 1 7.02 49.44
-11 -7 1 3.41 30.1
-10 -7 1 96.51 76.22
-9 -7 1 1.43 15.53
-8 -7 1 19.78 4.86
-7 -7 1 44.8 65.82
-6 -7 1 94.9 21.29
-5 -7 1 49.14 45.96
-4 -7 1 608.55 137.48
-3 -7 1 121.21 60.15
-2 -7 1 162.62 29.26
0 -7 1 9.26 0.03
1 -7 1 112.93 92.9
2 -7 1 37.92 0.07
4 -7 1 95.65 53.44
5 -7 1 13.12 39.17
6 -7 1 45.68 15.51
7 -7 1 5.67 49.44
8 -7 1 11.18 30.1
9 -7 1 17.56 27.93
11 -7 1 2.48 39.17
12 -7 1 2.55 50.53
-15 -6 1 4.13 4.66
-13 -6 1 4.97 39.17
-12 -6 1 12.69 49.44
-11 -6 1 21.11 30.63
-10 -6 1 50.06 69.59
-9 -6 1 23.81 49.44
-8 -6 1 19.06 49.44
-7 -6 1 29.2 35.43
-6 -6 1 22.54 5.19
-5 -6 1 6.15 0.27
-4 -6 1 226.75 51.01
-3 -6 1 28.79 5.86
-2 -6 1 273.35 92.14
-1 -6 1 143.44 26.17
0 -6 1 25.05 10.94
1 -6 1 45.98 59.28
2 -6 1 201.03 1.55
3 -6 1 156.41 56.03
4 -6 1 111.43 92.28
5 -6 1 232.54 151.64
6 -6 1 31.43 18.99
7 -6 1 5.52 2.82
9 -6 1 7.89 3.38
11 -6 1 6.62 22.22
12 -6 1 3.68 6.5
-14 -5 1 36.32 0.07
-13 -5 1 5.27 10.28
-12 -5 1 38.19 41.19
-10 -5 1 27 11.92
-9 -5 1 28.2 34.82
-8 -5 1 25.54 27.61
-7 -5 1 51.94 47.25
-6 -5 1 15.13 38.21
-5 -5 1 1.41 16.14
-4 -5 1 277.89 20.04
-2 -5 1 274.98 92.41
-1 -5 1 385.6 109.44
0 -5 1 86.48 81.29
1 -5 1 157.1 28.76
2 -5 1 367.16 2.09
3 -5 1 108.22 103.45
4 -5 1 138.51 90.02
5 -5 1 9.03 21.49
7 -5 1 67.44 63.71
8 -5 1 12.38 15.38
9 -5 1 9.73 17.39
10 -5 1 48.53 8.37
11 -5 1 31.43 12.25
-15 -4 1 0.99 40.15
-14 -4 1 3.31 22.95
-13 -4 1 1.33 0.25
-12 -4 1 22.39 16.03
-11 -4 1 105.62 12.35
-10 -4 1 110.97 47.2
-9 -4 1 92.58 1.05
-8 -4 1 0.81 15.53
-7 -4 1 126.68 99.62
-6 -4 1 46.35 66.95
-5 -4 1 92.37 73.51
-4 -4 1 35.08 38.83
-3 -4 1 86.78 0.1
-2 -4 1 1.06 30.1
-1 -4 1 223.63 148.71
0 -4 1 291.16 57.8
1 -4 1 120.61 108.01
2 -4 1 81.96 29.68
3 -4 1 130.52 112.36
4 -4 1 310.87 1.93
5 -4 1 21.47 15.19
6 -4 1 320.97 178.15
7 -4 1 16.79 48.36
9 -4 1 14.96 39.17
10 -4 1 49.22 69
11 -4 1 10.96 39.17
13 -4 1 13 8.28
-15 -3 1 19.49 0.48
-14 -3 1 1.76 49.44
-12 -3 1 11 0.04
-11 -3 1 18.4 49.44
-10 -3 1 25.54 28.17
-9 -3 1 56.85 9.06
-8 -3 1 40.38 48.61
-7 -3 1 124.23 13.4
-6 -3 1 245.89 35.98
-5 -3 1 7.52 11.99
-4 -3 1 300.74 58.75
-3 -3 1 323.32 159.16
-2 -3 1 33.86 38.15
-1 -3 1 444.1 2.3
0 -3 1 70.89 0.09
1 -3 1 0.5 39.17
2 -3 1 83.06 79.67
3 -3 1 42.92 50.11
4 -3 1 3.76 2.33
5 -3 1 18.63 23.58
6 -3 1 169.24 129.36
7 -3 1 4.95 9.72
8 -3 1 1.15 2.63
9 -3 1 3.17 6.03
10 -3 1 6.65 30.1
11 -3 1 2.21 0.16
12 -3 1 22.65 31.72
13 -3 1 7.08 11.92
14 -3 1 6.85 0.29
-15 -2 1 30.09 24.58
-14 -2 1 1.14 2.89
-13 -2 1 7.58 22.95
-12 -2 1 1.18 30.95
-11 -2 1 13.93 16.72
-10 -2 1 38.73 21.08
-9 -2 1 137.48 1.28
-8 -2 1 25.49 0.06
-7 -2 1 313.19 175.98
-6 -2 1 86.17 40.58
-5 -2 1 3.45 6.29
-4 -2 1 722.03 91.03
-3 -2 1 465.77 143.86
-2 -2 1 305.31 1.91
-1 -2 1 2410.54 69.75
0 -2 1 373.04 149.85
1 -2 1 6.85 38.21
2 -2 1 1301.56 86.73
3 -2 1 183.31 45.86
4 -2 1 59.27 0.08
5 -2 1 487.48 147.17
6 -2 1 10.01 3.46
7 -2 1 166.55 71.92
8 -2 1 3.7 0.21
9 -2 1 65.3 71.53
10 -2 1 3.49 15.53
11 -2 1 8.29 6.61
12 -2 1 19.88 14.62
-14 -1 1 9.23 16.93
-12 -1 1 4.75 22.22
-10 -1 1 80.78 79.55
-9 -1 1 234.55 35.14
-8 -1 1 12.57 15.5
-7 -1 1 62.33 0.09
-6 -1 1 4.9 7.5
-5 -1 1 1.72 0.14
-4 -1 1 29.38 11.85
-3 -1 1 71.63 9.25
-2 -1 1 423.17 137.12
-1 -1 1 586.91 240.91
0 -1 1 219.4 16.19
1 -1 1 198.4 138.53
2 -1 1 692.97 146.71
3 -1 1 53.84 32.07
4 -1 1 168.1 43.92
5 -1 1 764.94 6.04
6 -1 1 35.99 52.44
7 -1 1 262.09 72.53
8 -1 1 11.59 18.6
9 -1 1 33.04 19.47
10 -1 1 10.36 49.44
11 -1 1 4.54 7.22
12 -1 1 21.42 25.79
15 -1 1 4.75 0.24
-14 0 1 20.37 5.42
-13 0 1 9.97 3.8
-12 0 1 38.52 34.59
-11 0 1 42.92 50.83
-10 0 1 1.15 30.1
-9 0 1 27.86 12.11
-8 0 1 25.05 21.88
-7 0 1 181.98 45.7
-6 0 1 527.35 102.89
-5 0 1 29.02 41.21
-4 0 1 25.05 21.88
-3 0 1 738.57 62.36
-2 0 1 27 5.68
-1 0 1 1702.12 414.77
0 0 1 1117.38 43.83
1 0 1 247.78 70.52
2 0 1 568.01 158.86
3 0 1 165.98 126.71
4 0 1 95.33 32.01
5 0 1 211.7 81.09
7 0 1 10.78 10.76
8 0 1 305.5 59.21
9 0 1 0.77 50.53
10 0 1 155.19 42.2
11 0 1 14.59 4.59
12 0 1 18.21 0.47
13 0 1 12.73 8.58
15 0 1 4.15 10.04
-14 1 1 4.36 22.22
-13 1 1 4.24 4.73
-12 1 1 46.2 8.17
-11 1 1 4.22 4.71
-10 1 1 27.91 17.9
-9 1 1 6.21 30.1
-8 1 1 223.14 148.54
-7 1 1 0.84 39.17
-6 1 1 836.34 227.53
-4 1 1 1.11 49.44
-3 1 1 1474.92 8.39
-2 1 1 66.9 17.88
-1 1 1 91.21 20.87
0 1 1 2249.68 222.87
1 1 1 66.1 44.42
2 1 1 1636.05 318.24
3 1 1 121.21 24.06
4 1 1 3.29 0.02
5 1 1 9.26 29.26
6 1 1 20.81 29.91
7 1 1 62.16 8.62
8 1 1 68.43 28.02
9 1 1 3.21 22.22
10 1 1 57.18 75.19
11 1 1 52.49 0.79
12 1 1 35.99 59
13 1 1 28.32 29.66
14 1 1 1.81 3.08
15 1 1 5.34 7.83
-14 2 1 5.02 0.24
-13 2 1 0.91 40.15
-11 2 1 1.66 0.28
-10 2 1 2.02 0.47
-9 2 1 10.53 0.35
-8 2 1 9.67 13.59
-7 2 1 16.26 38.21
-6 2 1 10.29 48.36
-5 2 1 22.34 48.36
-4 2 1 51.23 7.82
-2 2 1 633.05 57.74
-1 2 1 801.32 250.56
0 2 1 14929.36 226.98
1 2 1 3028.39 378.85
2 2 1 1408.54 254.27
3 2 1 8.45 48.36
4 2 1 8.29 29.26
5 2 1 106.19 67.56
6 2 1 10.18 38.21
7 2 1 14.38 20.72
11 2 1 8.29 21.49
13 2 1 8.1 15.86
14 2 1 8.2 39.17
15 2 1 24.18 38.15
-14 3 1 2.72 30.1
-13 3 1 2.78 39.17
-12 3 1 7.11 22.22
-11 3 1 42.2 35.49
-10 3 1 19.44 39.17
-9 3 1 26.49 5.62
-8 3 1 19.68 39.27
-7 3 1 4.75 9.55
-6 3 1 19.44 0.05
-5 3 1 48.53 68.51
-3 3 1 36.91 39.84
-2 3 1 448.02 71.7
-1 3 1 309.33 21.14
0 3 1 1216.27 83.84
1 3 1 27.23 11.4
2 3 1 2.89 21.49
3 3 1 2655.76 523.72
4 3 1 172.38 30.13
5 3 1 174.54 73.63
6 3 1 571.13 54.84
7 3 1 134.04 25.3
8 3 1 254.01 53.99
9 3 1 20.86 25.46
10 3 1 11.33 48.36
11 3 1 13.44 24.44
12 3 1 50.61 0.78
13 3 1 19.63 24.69
14 3 1 2.7 30.1
15 3 1 3.06 15.53
16 3 1 2.22 2.28
-13 4 1 4.36 10.53
-12 4 1 1.55 30.95
-11 4 1 19.88 34.59
-10 4 1 14.17 24.68
-9 4 1 6.48 0.28
-8 4 1 73.77 66.64
-6 4 1 16.26 0.04
-5 4 1 94.58 32.95
-4 4 1 2.21 39.17
-3 4 1 208.22 143.49
-2 4 1 185.68 75.94
0 4 1 562.81 184.06
1 4 1 1093.4 79.49
2 4 1 268.14 109.15
3 4 1 827.52 69.16
4 4 1 309.33 21.14
5 4 1 130.27 12.47
6 4 1 340.04 163.22
7 4 1 412.89 113.24
8 4 1 58.76 16.75
9 4 1 17.11 13.56
10 4 1 38.93 34.77
11 4 1 60.36 51.79
12 4 1 6.21 0.27
13 4 1 28.61 12.27
14 4 1 15.52 8.61
16 4 1 1.81 10.53
-12 5 1 1.69 1.56
-11 5 1 6.94 3.17
-9 5 1 6.74 11.63
-8 5 1 10.08 48.36
-7 5 1 86.58 61.01
-6 5 1 3.33 4.19
-5 5 1 301.69 20.88
-3 5 1 79.51 30.21
-2 5 1 65.21 52.95
-1 5 1 58.26 16.68
0 5 1 22.49 41.46
1 5 1 256.11 36.72
3 5 1 7.7 29.26
4 5 1 5.52 22.22
6 5 1 10.15 39.17
7 5 1 78.34 38.69
8 5 1 7.31 14.93
9 5 1 266.17 37.44
10 5 1 293.4 95.46
12 5 1 0.74 2.89
13 5 1 3.78 2.34
14 5 1 16.7 0.45
16 5 1 12.11 12.17
-11 6 1 4.22 10.53
-10 6 1 1.59 30.1
-9 6 1 14.46 48.36
-8 6 1 14.13 12.73
-7 6 1 37.71 14.09
-6 6 1 10.5 0.35
-5 6 1 145.01 53.95
-3 6 1 73.68 28.14
-2 6 1 260.67 37.05
-1 6 1 14.84 12.63
0 6 1 312.8 1.93
1 6 1 105.06 33.6
2 6 1 2.19 1.78
3 6 1 206.96 33.01
4 6 1 161.37 112.44
5 6 1 1.44 2.89
6 6 1 127.3 36.99
7 6 1 181.1 89.7
8 6 1 153.42 28.42
9 6 1 56.03 58.08
10 6 1 70.8 0.92
11 6 1 11.66 19.03
12 6 1 2.32 5.74
13 6 1 0.82 30.95
15 6 1 17.52 39.17
16 6 1 20.17 50.53
-10 7 1 4.45 39.17
-8 7 1 1.52 1.62
-7 7 1 8.9 22.22
-6 7 1 29.91 35.86
-5 7 1 9.53 29.26
-4 7 1 4.38 49.44
-3 7 1 2.02 39.17
-2 7 1 71.07 46.06
0 7 1 94.16 74.23
1 7 1 43.71 36.84
2 7 1 65.39 9.72
3 7 1 80.88 39.31
4 7 1 57.84 16.62
5 7 1 70.8 0.09
6 7 1 180.95 119.06
8 7 1 50.45 54.33
9 7 1 9.26 0.33
10 7 1 28.32 29.66
11 7 1 34.69 19.95
12 7 1 12.69 4.28
13 7 1 2.87 3.89
15 7 1 6.99 15.53
16 7 1 6.21 8.44
-10 8 1 19.2 29.21
-8 8 1 1.06 30.95
-6 8 1 35.01 26.51
-5 8 1 13.2 20.25
-4 8 1 77.48 77.91
-3 8 1 0.72 50.53
-2 8 1 91.21 62.62
0 8 1 14.42 29.26
1 8 1 77.67 86.67
2 8 1 3.27 2.17
3 8 1 13.84 8.13
4 8 1 31.49 18.4
5 8 1 1.96 5.74
6 8 1 37.11 53.26
7 8 1 8.04 9.61
9 8 1 69.61 73.85
10 8 1 44.21 37.06
11 8 1 147.92 54.49
12 8 1 12.19 8.01
13 8 1 15.82 17.39
14 8 1 3.91 39.17
16 8 1 1.12 30.95
-10 9 1 9.7 3.74
-8 9 1 5.78 5.52
-7 9 1 7.73 15.53
-6 9 1 3.96 6.74
-5 9 1 3.96 10.04
-4 9 1 25.43 28.1
-3 9 1 3.57 30.1
-2 9 1 43.71 51.29
-1 9 1 1.39 1.42
0 9 1 10.15 29.26
1 9 1 119.89 11.96
2 9 1 23.75 37.28
3 9 1 32.1 18.57
4 9 1 79.41 20.45
5 9 1 32.41 0.06
7 9 1 13.8 20.71
8 9 1 2.34 3.68
9 9 1 43.13 14.35
11 9 1 13.89 8.55
12 9 1 11.55 0.74
14 9 1 23.17 15.78
-9 10 1 1.61 40.15
-7 10 1 4.04 0.44
-6 10 1 6.45 11.66
-5 10 1 13.8 4.47
-4 10 1 11.92 49.44
-3 10 1 7.67 0.3
-2 10 1 25.43 44.09
-1 10 1 12.54 38.21
0 10 1 2.53 0.17
1 10 1 26.83 50.94
2 10 1 26.6 28.18
3 10 1 23.86 26.69
4 10 1 58.34 8.35
5 10 1 20.02 24.94
6 10 1 4.8 2.63
7 10 1 28.55 23.94
10 10 1 7.11 49.44
11 10 1 4.61 4.93
12 10 1 3.7 6.52
13 10 1 4.22 0.22
14 10 1 1.55 50.53
15 10 1 5.62 30.1
-9 11 1 3.72 6.53
-7 11 1 4.31 0.23
-6 11 1 2.62 1.94
-4 11 1 11.62 0.37
-1 11 1 25.6 11.06
0 11 1 6.23 15.53
2 11 1 15.65 22.05
3 11 1 5.44 22.95
4 11 1 111.89 15.03
5 11 1 7.05 39.17
6 11 1 67.44 37.69
7 11 1 17.42 14.14
8 11 1 4.66 22.22
10 11 1 27.57 29.26
11 11 1 5.27 10.28
12 11 1 1.18 0.24
13 11 1 12.23 4.2
14 11 1 3.04 4
15 11 1 6.68 8.75
-7 12 1 3.83 6.63
-6 12 1 0.8 0.2
-5 12 1 9 10.16
-4 12 1 1.5 6.11
-2 12 1 3.49 4.29
-1 12 1 24.78 16.86
0 12 1 5.29 0.25
1 12 1 1.08 6.11
2 12 1 9.36 10.36
3 12 1 1.02 30.95
4 12 1 15.65 39.17
5 12 1 11.48 7.77
6 12 1 31.92 43.83
7 12 1 8.54 6.71
8 12 1 6.34 9.08
9 12 1 4.82 3.12
10 12 1 8.45 3.49
11 12 1 7.02 15.53
12 12 1 2.89 2.04
13 12 1 1.85 22.95
14 12 1 2.56 10.04
-5 13 1 1.47 15.53
-4 13 1 1.46 10.53
-3 13 1 8.32 12.92
-2 13 1 2.08 0.16
-1 13 1 6.57 30.1
1 13 1 3.98 49.44
4 13 1 25.49 50.2
5 13 1 63.46 70.51
7 13 1 10.5 10.98
10 13 1 6.29 3.01
12 13 1 15.05 0.42
13 13 1 0.9 22.95
14 13 1 5.62 22.22
-5 14 1 1.29 22.95
-4 14 1 5.12 39.17
-2 14 1 0.85 10.53
-1 14 1 2.69 0.18
1 14 1 4.27 0.23
3 14 1 1.24 2.89
5 14 1 16.35 22.53
8 14 1 9.5 39.17
9 14 1 1.33 11.04
11 14 1 7.49 39.17
12 14 1 1.61 22.95
13 14 1 2.21 39.17
-2 15 1 0.89 16.14
-1 15 1 1.04 50.53
2 15 1 9.63 14.24
3 15 1 1.24 50.53
4 15 1 8.32 16.08
5 15 1 5.24 40.15
8 15 1 5.57 32.69
9 15 1 1.63 51.64
11 15 1 9.03 6.9
12 15 1 1.12 2.89
-2 16 1 1.58 50.53
0 16 1 3.41 4.24
2 16 1 2.22 5.74
6 16 1 1.78 1.89
8 16 1 1.41 16.77
10 16 1 1.3 41.13
0 17 1 1 40.15
5 17 1 4.99 10.04
-8 -17 2 2.03 31.82
-5 -17 2 1.32 31.82
-4 -17 2 2.02 10.53
-10 -16 2 1.5 30.95
-9 -16 2 5.12 22.22
-8 -16 2 5.73 30.1
-4 -16 2 1.5 1.74
-1 -16 2 1.42 22.95
-10 -15 2 4.95 39.17
-9 -15 2 16.7 11.16
-7 -15 2 12.73 5.07
-5 -15 2 3.76 2.54
-3 -15 2 1.58 3.02
-2 -15 2 3.91 4.54
1 -15 2 3.91 40.15
2 -15 2 6.34 3.03
4 -15 2 1.37 30.1
-10 -14 2 5.67 17.41
-9 -14 2 7.95 0.31
-7 -14 2 2.14 0.32
-6 -14 2 5.14 49.44
-5 -14 2 9.6 39.17
-3 -14 2 6.88 0.29
-2 -14 2 5.29 5.78
-1 -14 2 10.71 0.36
1 -14 2 4.56 39.17
4 -14 2 1.44 2.89
5 -14 2 2.55 49.44
6 -14 2 2.6 39.17
-13 -13 2 1.08 16.14
-11 -13 2 3.62 2.29
-10 -13 2 2.31 0.33
-8 -13 2 6.62 8.72
-6 -13 2 21.11 16.07
-3 -13 2 19.2 19.63
-2 -13 2 5.34 10.61
-1 -13 2 6.88 6.02
1 -13 2 9.06 30.1
2 -13 2 5.49 30.1
3 -13 2 1.69 6.11
5 -13 2 4.71 30.1
6 -13 2 1.46 40.15
-14 -12 2 2.31 0.33
-13 -12 2 1.28 1.48
-12 -12 2 20.91 6
-11 -12 2 3.55 10.04
-10 -12 2 16.44 39.17
-9 -12 2 4.24 40.15
-8 -12 2 1.88 22.95
-7 -12 2 1.97 6.11
-6 -12 2 15.01 30.1
-5 -12 2 9.67 22.95
-4 -12 2 14.09 20.92
-3 -12 2 13.52 16.47
0 -12 2 39.21 54.74
1 -12 2 9.23 3.65
3 -12 2 4.24 2.48
4 -12 2 1.06 1.35
5 -12 2 2.78 0.18
7 -12 2 3.25 16.14
-14 -11 2 26.49 28.68
-12 -11 2 15.05 17.38
-11 -11 2 1.37 30.95
-9 -11 2 3.25 22.95
-8 -11 2 1.07 3.16
-7 -11 2 4.52 4.88
-6 -11 2 20.42 49.44
-5 -11 2 3.43 10.53
-4 -11 2 48.22 46.29
-3 -11 2 6.29 49.44
-1 -11 2 17.65 9.18
0 -11 2 50.45 62.87
1 -11 2 21.06 30.59
2 -11 2 23.54 42.94
3 -11 2 1.16 0.24
4 -11 2 6.1 49.44
5 -11 2 3.19 22.22
6 -11 2 12.15 11.81
7 -11 2 5.86 22.95
8 -11 2 1.42 22.95
-14 -10 2 18.02 19.95
-12 -10 2 6.79 39.17
-11 -10 2 2.94 5.81
-10 -10 2 24.88 27.8
-8 -10 2 53.76 72.91
-7 -10 2 1.81 0.29
-6 -10 2 33.86 38.79
-5 -10 2 1.59 50.53
-4 -10 2 2.22 6.11
-3 -10 2 1.22 30.95
-2 -10 2 20.22 34.4
-1 -10 2 24.18 22.03
0 -10 2 35.73 45.72
1 -10 2 3.96 10.04
2 -10 2 34.11 19.79
4 -10 2 1.08 0.23
6 -10 2 14.09 20.92
7 -10 2 7.29 0.29
-15 -9 2 3.66 6.48
-13 -9 2 9.16 13.23
-12 -9 2 2.1 15.53
-11 -9 2 121.81 73.57
-10 -9 2 1.88 3.15
-9 -9 2 3.89 49.44
-8 -9 2 77.57 87.58
-7 -9 2 3.83 49.44
-6 -9 2 20.81 48.36
-4 -9 2 36.25 0.66
-3 -9 2 31 36.5
-2 -9 2 102.83 89.76
-1 -9 2 52.17 0.08
0 -9 2 38.73 47.6
1 -9 2 2.67 39.17
2 -9 2 45.09 0.07
3 -9 2 43.49 15.13
4 -9 2 13.6 8.46
5 -9 2 44 15.22
7 -9 2 7.98 12.66
8 -9 2 2.56 39.17
-15 -8 2 2.6 5.74
-14 -8 2 4.52 10.04
-13 -8 2 20.12 29.9
-12 -8 2 4.18 6.92
-11 -8 2 52.49 48.29
-10 -8 2 16.13 21.94
-9 -8 2 1.73 30.95
-8 -8 2 38.52 61.04
-6 -8 2 1.01 1.32
-5 -8 2 309.72 1.92
-4 -8 2 41.99 36.11
-3 -8 2 122.66 37.52
-2 -8 2 7.17 8.78
-1 -8 2 8.48 38.21
0 -8 2 8.61 9.62
1 -8 2 55.46 73.24
2 -8 2 11 48.36
3 -8 2 26.89 45.33
4 -8 2 1.54 10.53
5 -8 2 53.6 24.8
7 -8 2 11.48 18.88
8 -8 2 3.91 39.17
10 -8 2 9.5 22.22
11 -8 2 1.25 50.53
-14 -7 2 1.07 30.95
-13 -7 2 3.59 22.22
-12 -7 2 6.88 6.02
-11 -7 2 2.85 0.18
-10 -7 2 30.39 42.17
-9 -7 2 9.87 3.43
-8 -7 2 9.87 30.1
-7 -7 2 86.48 20.32
-6 -7 2 58.85 42.75
-5 -7 2 667.32 146.79
-4 -7 2 574.8 81.22
-3 -7 2 1.65 22.22
-2 -7 2 8.7 49.44
-1 -7 2 24.45 16.21
0 -7 2 96.51 44.01
1 -7 2 142 79.43
2 -7 2 4.2 10.04
3 -7 2 116.33 48.32
4 -7 2 24.78 48.95
5 -7 2 12.57 29.26
6 -7 2 18.54 33.4
7 -7 2 18.87 9.97
8 -7 2 25.76 22.74
9 -7 2 5.02 5.14
10 -7 2 8.67 39.17
12 -7 2 1.88 3.3
-14 -6 2 2.96 10.04
-13 -6 2 10.36 21.49
-10 -6 2 44.87 51.97
-9 -6 2 1.82 39.17
-8 -6 2 11.18 38.21
-7 -6 2 74.05 66.77
-6 -6 2 21.52 30.41
-5 -6 2 36.12 32.84
-4 -6 2 28.79 5.86
-3 -6 2 113.05 92.95
-2 -6 2 319.8 41.04
-1 -6 2 440.19 71.07
0 -6 2 43.13 57.41
1 -6 2 127.54 75.28
2 -6 2 426.54 185.06
3 -6 2 41.85 35.35
4 -6 2 26.77 16.96
5 -6 2 15.48 25.79
6 -6 2 139.8 117.57
7 -6 2 34.63 45.65
8 -6 2 119.17 25.05
9 -6 2 7.58 22.22
11 -6 2 9.1 39.17
12 -6 2 2.02 0.31
-15 -5 2 2.46 10.04
-14 -5 2 13.2 4.37
-13 -5 2 12.61 23.67
-12 -5 2 4.63 30.1
-11 -5 2 4.68 49.44
-10 -5 2 102.83 23.27
-8 -5 2 25.54 11.05
-7 -5 2 16.61 26.72
-6 -5 2 139.02 103.07
-5 -5 2 20.66 48.36
-4 -5 2 982.2 6.85
-3 -5 2 292.28 1.87
-2 -5 2 137.1 25.59
-1 -5 2 43.35 21.58
0 -5 2 1.03 15.53
1 -5 2 65.3 52.98
2 -5 2 152.34 1.35
3 -5 2 20.27 48.36
4 -5 2 73.3 37.42
5 -5 2 74.24 18.83
6 -5 2 27.11 22.76
7 -5 2 3.64 30.1
8 -5 2 18.26 5.14
9 -5 2 9.9 21.49
10 -5 2 1.96 30.1
11 -5 2 8.01 39.17
12 -5 2 1.15 0.23
-15 -4 2 1.91 3.17
-13 -4 2 13.08 8.3
-12 -4 2 15.13 17.43
-11 -4 2 49.68 54.68
-10 -4 2 88.21 21.55
-9 -4 2 47.7 0.08
-8 -4 2 50.68 54.46
-7 -4 2 57.6 0.08
-6 -4 2 18.02 9.28
-5 -4 2 34.5 32.09
-4 -4 2 437.67 208.04
-3 -4 2 10.71 29.26
-2 -4 2 917.55 139.02
-1 -4 2 648.27 169.72
0 -4 2 168.53 42.56
1 -4 2 236.89 35.32
2 -4 2 673.26 201.31
3 -4 2 546.08 181.3
4 -4 2 355.32 22.66
5 -4 2 503.05 198.52
6 -4 2 61.47 25.7
7 -4 2 28.85 41.08
9 -4 2 29.61 24.38
10 -4 2 3.59 22.22
11 -4 2 15.86 30.9
12 -4 2 8.17 0.31
13 -4 2 1.58 30.95
14 -4 2 5.02 30.1
-14 -3 2 20.47 0.49
-13 -3 2 10.01 17.63
-12 -3 2 16.39 39.17
-11 -3 2 3.8 2.34
-10 -3 2 12.77 29.26
-9 -3 2 0.86 50.53
-8 -3 2 44.72 43.85
-7 -3 2 32.48 37.36
-6 -3 2 133.41 88.35
-5 -3 2 7.61 12.36
-4 -3 2 55.54 48.86
-3 -3 2 133.92 50.58
-2 -3 2 367.16 2.09
-1 -3 2 150.99 26.86
0 -3 2 564.36 80.48
1 -3 2 482.67 74.42
2 -3 2 296.96 171.36
3 -3 2 915.56 304.19
4 -3 2 79.22 9.73
5 -3 2 8.42 6.66
6 -3 2 31.55 0.06
7 -3 2 81.37 50.27
8 -3 2 4.2 10.04
9 -3 2 38.86 61.31
10 -3 2 35.79 39.23
11 -3 2 104.5 79.31
12 -3 2 1.68 6.11
13 -3 2 3.7 10.04
-15 -2 2 3.74 15.53
-14 -2 2 1.82 0.15
-12 -2 2 19.11 29.14
-11 -2 2 100.74 55.94
-10 -2 2 109.48 45.73
-9 -2 2 125.82 62.51
-7 -2 2 178.61 45.27
-6 -2 2 39.96 13.82
-5 -2 2 87.09 20.4
-4 -2 2 14.13 0.04
-3 -2 2 78.64 87.21
-2 -2 2 360.07 105.75
-1 -2 2 413.33 2.22
0 -2 2 275.7 165.11
2 -2 2 65.21 8.82
3 -2 2 55.54 0.08
4 -2 2 287.99 94.58
5 -2 2 72.84 55.96
6 -2 2 499.38 51.28
7 -2 2 8.77 29.26
8 -2 2 2.91 2.05
9 -2 2 13.97 12.25
10 -2 2 37.31 33.38
11 -2 2 12.85 30.1
13 -2 2 19.3 24.48
14 -2 2 2.02 40.15
15 -2 2 5.44 0.25
-15 -1 2 18.58 5.18
-14 -1 2 9.06 30.1
-13 -1 2 2.02 3.42
-12 -1 2 6.68 8.75
-11 -1 2 2.67 5.74
-10 -1 2 53.6 16
-9 -1 2 63.29 60.85
-7 -1 2 269.93 19.75
-6 -1 2 97.26 53.88
-5 -1 2 21.52 30.41
-4 -1 2 524.84 227.81
-3 -1 2 196.41 124.05
-2 -1 2 476.45 145.5
-1 -1 2 1222.38 7.64
0 -1 2 147.52 92.91
1 -1 2 693.55 175.54
2 -1 2 152.47 40.48
3 -1 2 232.54 151.64
4 -1 2 137.1 63.97
5 -1 2 18.21 9.33
6 -1 2 480.75 98.23
7 -1 2 1.71 22.22
8 -1 2 11.29 22.03
9 -1 2 30.21 24.03
10 -1 2 20.57 50.53
11 -1 2 3.08 22.22
12 -1 2 85.36 21.2
13 -1 2 13.56 48.36
14 -1 2 26.55 22.52
-14 0 2 2.72 39.17
-13 0 2 2.24 10.04
-11 0 2 13.44 39.17
-10 0 2 37.71 27.51
-9 0 2 64.86 0.88
-8 0 2 1.32 0.13
-7 0 2 127.17 61.62
-6 0 2 24.18 16.12
-5 0 2 4.11 4.65
-4 0 2 529.36 153.36
-3 0 2 126.56 0.12
-2 0 2 522.34 227.27
-1 0 2 727.92 209.32
0 0 2 104.61 44.71
1 0 2 2.62 0.02
2 0 2 394.23 45.56
3 0 2 24.29 10.77
4 0 2 14.38 4.14
5 0 2 203.67 1.56
6 0 2 61.47 34.27
7 0 2 84.76 50.3
8 0 2 15.65 17.29
9 0 2 108.22 11.37
10 0 2 18.73 5.2
12 0 2 47.24 60.09
13 0 2 16.39 18.58
14 0 2 4.75 10.04
15 0 2 1.54 2.98
-14 1 2 11.62 49.44
-12 1 2 17.38 9.57
-10 1 2 22.28 25.79
-9 1 2 187.03 121.05
-8 1 2 4.8 0.02
-7 1 2 53.52 0.08
-6 1 2 8.35 0.03
-5 1 2 1.51 10.53
-4 1 2 80.98 49.17
-3 1 2 178.61 89.08
-2 1 2 309.52 40.37
-1 1 2 1117.38 153.42
0 1 2 28.38 23.28
1 1 2 58.09 0.08
2 1 2 2390.19 496.84
3 1 2 106.19 45.04
4 1 2 290.04 113.52
5 1 2 1070.04 150.13
6 1 2 31.92 37.04
7 1 2 283.74 57.06
8 1 2 40.73 0.07
9 1 2 30.75 24.24
10 1 2 20.52 30.19
11 1 2 3.91 2.38
12 1 2 13.48 24.47
13 1 2 2.55 10.04
14 1 2 2.81 49.44
15 1 2 3.76 4.45
-14 2 2 12.04 11.37
-12 2 2 32.91 31.35
-11 2 2 4.02 22.22
-10 2 2 18.68 5.19
-9 2 2 9.6 22.22
-7 2 2 26.94 39.7
-6 2 2 311.64 117.67
-5 2 2 16.3 0.04
-4 2 2 2.37 39.17
-3 2 2 169.1 129.31
-2 2 2 46.05 44.49
-1 2 2 1004.59 41.56
0 2 2 1017.79 41.83
1 2 2 1678.76 232.82
2 2 2 146.33 0.13
3 2 2 35.79 52.3
4 2 2 335.22 122.04
5 2 2 188.52 46.51
6 2 2 62.42 17.27
7 2 2 99.43 54.48
8 2 2 300.17 77.62
9 2 2 66.54 26.74
10 2 2 268.31 91.29
11 2 2 0.95 6.11
12 2 2 53.12 32.66
13 2 2 29.02 47.68
14 2 2 3.15 10.04
15 2 2 16.84 39.17
16 2 2 8.64 7.07
-13 3 2 2.78 15.53
-12 3 2 15.35 17.55
-11 3 2 2.11 39.17
-10 3 2 7.46 3.28
-9 3 2 8.01 3.4
-8 3 2 149.65 81.54
-6 3 2 442.03 117.17
-5 3 2 11.96 18.9
-3 3 2 463.89 214.18
-2 3 2 2.46 22.22
-1 3 2 2.89 38.21
0 3 2 1044.46 42.38
1 3 2 27.68 40.25
2 3 2 118.34 35.66
3 3 2 120.73 24.01
4 3 2 2.44 10.04
5 3 2 4.63 29.26
6 3 2 5.07 48.36
7 3 2 41.43 0.07
8 3 2 15.13 21.25
9 3 2 26.66 0.06
10 3 2 17.61 9.17
11 3 2 27.23 39.91
12 3 2 47.7 15.85
13 3 2 28.03 35.29
15 3 2 11.92 7.92
16 3 2 5.09 16.14
-12 4 2 2.14 5.74
-11 4 2 4.15 0.45
-9 4 2 35.4 52.67
-8 4 2 11.92 0.38
-7 4 2 52.57 71.31
-6 4 2 28.03 52.07
-5 4 2 16.3 0.04
-4 4 2 88.21 93.4
-3 4 2 55.13 17.04
-2 4 2 123.5 110.51
0 4 2 5625.13 6925.38
1 4 2 1141.98 339.73
2 4 2 976.73 314.19
3 4 2 10.89 21.64
4 4 2 1.27 49.44
5 4 2 207.74 48.83
6 4 2 14.34 20.69
7 4 2 58.68 33.48
9 4 2 3.19 22.22
11 4 2 34.05 26.14
13 4 2 16.66 31.22
14 4 2 9.03 16.42
15 4 2 30.33 30.69
16 4 2 5.07 22.22
-12 5 2 2.96 40.15
-11 5 2 10.64 7.49
-10 5 2 1.1 10.53
-9 5 2 14.54 49.44
-8 5 2 1.06 50.53
-6 5 2 0.97 0.11
-5 5 2 7.46 38.21
-4 5 2 21.52 35.48
-3 5 2 3.74 2.11
-2 5 2 25.93 16.69
-1 5 2 172.52 116.26
0 5 2 91.84 42.94
1 5 2 130.15 37.4
2 5 2 15.65 8.65
3 5 2 803.8 285.02
4 5 2 384.96 152.22
5 5 2 181.1 60.29
6 5 2 156.28 1.37
7 5 2 247.09 18.89
8 5 2 141.61 53.32
9 5 2 61.05 43.54
11 5 2 3.74 30.1
12 5 2 14.75 13.01
13 5 2 25.05 49.77
15 5 2 6.99 22.22
16 5 2 1.63 6.11
-11 6 2 15.01 8.47
-10 6 2 5.44 7.9
-9 6 2 1.72 0.14
-8 6 2 41.15 49.07
-7 6 2 4.06 22.22
-6 6 2 15.43 0.43
-5 6 2 74.15 0.09
-3 6 2 125.21 97.82
-2 6 2 40.59 55.69
-1 6 2 4.82 22.22
0 6 2 128.16 13.61
1 6 2 703.36 5.8
2 6 2 96.72 32.24
3 6 2 335.82 42.05
4 6 2 178.9 59.92
5 6 2 26.6 39.45
6 6 2 184.35 105.34
7 6 2 250.54 88.21
8 6 2 39.62 55.02
9 6 2 5.75 39.17
10 6 2 46.72 0.75
11 6 2 18.02 28.3
12 6 2 2.46 3.6
13 6 2 12.5 11.59
14 6 2 10.08 49.44
16 6 2 1.58 3.02
-11 7 2 5.12 10.13
-10 7 2 2.27 49.44
-8 7 2 8.87 10.41
-7 7 2 12.69 15.96
-6 7 2 27.86 6.34
-5 7 2 115.38 58.69
-4 7 2 27.63 17.81
-3 7 2 86.27 20.3
-2 7 2 8.32 21.49
0 7 2 109.25 69.67
1 7 2 44.07 14.51
2 7 2 93 64.28
3 7 2 21.27 35.78
5 7 2 20.47 48.36
7 7 2 32.35 49.72
8 7 2 52.57 0.08
9 7 2 178.17 74.39
10 7 2 357.8 148.82
12 7 2 2.11 22.22
13 7 2 7.4 6.54
14 7 2 17.93 18.97
16 7 2 19.44 24.09
-9 8 2 7.05 40.15
-8 8 2 2.48 2.06
-7 8 2 6.59 5.89
-6 8 2 1.3 6.11
-5 8 2 25.27 6.04
-3 8 2 9.8 3.42
-2 8 2 69.24 63.65
-1 8 2 18.68 18.89
0 8 2 98.34 1.08
2 8 2 8.7 6.45
3 8 2 18.54 23.52
4 8 2 22.03 25.64
5 8 2 2.24 22.22
6 8 2 33.1 25.15
7 8 2 57.1 49.54
8 8 2 110.74 24.15
9 8 2 6.07 11.04
10 8 2 57.35 33.93
11 8 2 13.97 20.83
15 8 2 3.78 4.46
16 8 2 23.59 16.45
-10 9 2 6.51 8.64
-9 9 2 2.16 6.11
-8 9 2 4.71 49.44
-7 9 2 2.18 3.55
-6 9 2 10.46 39.17
-5 9 2 13.16 30.1
-4 9 2 8.45 12.71
-2 9 2 69.43 54.63
0 9 2 57.93 58.22
1 9 2 33.8 50.82
2 9 2 15.6 12.95
3 9 2 63.98 62.06
4 9 2 39.41 61.74
5 9 2 50.68 16.34
6 9 2 106.07 67.53
7 9 2 3.08 2.11
8 9 2 16.52 0.44
9 9 2 4.31 2.5
10 9 2 39.89 55.91
11 9 2 39.96 21.41
12 9 2 11.62 30.1
13 9 2 4.09 39.17
15 9 2 3.85 22.22
16 9 2 4.18 30.1
-9 10 2 4.59 40.15
-6 10 2 4.75 22.95
-5 10 2 4.61 2.58
-4 10 2 10.71 14.66
-3 10 2 5.62 15.53
-2 10 2 26.83 23.21
-1 10 2 16.08 38.21
0 10 2 1.68 15.53
1 10 2 27.8 51.85
2 10 2 2.83 2.02
3 10 2 31.61 6.14
4 10 2 1.22 2.89
5 10 2 30.51 30.78
6 10 2 12.11 0.38
8 10 2 1.93 3.34
9 10 2 46.05 60.06
10 10 2 8.29 12.9
11 10 2 131.9 76.55
12 10 2 2.81 49.44
13 10 2 19.83 24.82
14 10 2 2.53 15.53
-8 11 2 1.44 16.14
-7 11 2 3.17 6.03
-4 11 2 7.2 9.09
-3 11 2 0.85 10.53
-2 11 2 4.42 10.04
0 11 2 13.2 3.97
1 11 2 45.83 44.38
2 11 2 6.54 8.66
3 11 2 10.22 17.81
4 11 2 18.12 4.65
5 11 2 15.6 4.75
6 11 2 4.99 15.53
7 11 2 5.86 5.55
9 11 2 17.02 9.92
10 11 2 1.57 6.11
11 11 2 4.97 49.44
12 11 2 1.35 40.15
14 11 2 10.22 49.44
-7 12 2 2.8 49.44
-6 12 2 4.63 0.24
-4 12 2 4.15 49.44
-2 12 2 15.3 39.17
-1 12 2 6.88 11.75
0 12 2 9.67 10.53
1 12 2 13.36 49.44
2 12 2 3.23 30.1
3 12 2 13.44 12.42
4 12 2 33.61 38.64
5 12 2 12.19 39.17
7 12 2 22.03 36.41
8 12 2 2.39 0.34
10 12 2 2.78 0.55
11 12 2 2.11 1.91
12 12 2 2.83 3.86
13 12 2 3.23 39.17
14 12 2 2.67 3.75
15 12 2 3.7 2.31
-1 13 2 2.22 30.1
0 13 2 8.9 39.17
1 13 2 1.23 30.95
3 13 2 1.19 30.95
4 13 2 29.2 24.21
6 13 2 39.48 21.28
7 13 2 1.69 1.85
8 13 2 11.18 15.71
10 13 2 8.93 6.86
11 13 2 4.56 50.53
13 13 2 3.29 10.04
-5 14 2 1.82 0.15
-1 14 2 7.17 3.22
0 14 2 1.22 30.95
2 14 2 3.31 49.44
4 14 2 5.47 15.53
5 14 2 5.62 15.53
6 14 2 16.61 52.76
8 14 2 1.62 51.64
10 14 2 4.63 5.18
11 14 2 5.19 7.72
12 14 2 1.18 16.14
-2 15 2 1.85 22.22
-1 15 2 1.52 6.11
1 15 2 3.51 39.17
4 15 2 5.24 49.44
5 15 2 14.59 5.01
7 15 2 4.4 40.15
10 15 2 2.05 30.95
12 15 2 7.31 9.46
5 16 2 2.37 0.17
8 16 2 2.13 0.32
9 16 2 1.32 0.38
11 16 2 1.71 0.43
2 17 2 3.39 6.24
3 17 2 0.9 10.53
4 17 2 2.32 15.53
8 17 2 1.82 40.15
-4 -17 3 3.35 2.6
-2 -17 3 1.73 16.14
0 -17 3 2.44 15.53
-10 -16 3 1.75 49.44
-9 -16 3 5.67 3.64
-8 -16 3 1.62 16.77
-5 -16 3 2.6 40.15
-3 -16 3 1.85 0.45
-2 -16 3 2.41 39.17
3 -16 3 2.87 6.11
-10 -15 3 2.78 50.53
-9 -15 3 1.99 40.15
-8 -15 3 4.4 7.34
-6 -15 3 3.41 4.44
-4 -15 3 1.78 6.5
-3 -15 3 1.76 1.89
1 -15 3 10.11 39.17
3 -15 3 5.22 30.95
-12 -14 3 1.62 0.28
-10 -14 3 4.24 40.15
-9 -14 3 16.52 19.1
-8 -14 3 21.47 26.33
-7 -14 3 1.48 23.7
-4 -14 3 4.13 22.95
-1 -14 3 9.63 7.12
0 -14 3 3.21 4.31
4 -14 3 2.94 22.22
-11 -13 3 1.46 22.95
-10 -13 3 3.59 30.95
-9 -13 3 27.17 40.44
-8 -13 3 4.29 4.98
-7 -13 3 35.53 46.25
-5 -13 3 24.83 5.99
-3 -13 3 2.55 10.53
-2 -13 3 34.69 58.57
0 -13 3 10.43 18
1 -13 3 7.64 15.53
2 -13 3 15.39 17.58
4 -13 3 9.06 39.17
6 -13 3 4.75 5
-13 -12 3 2.14 30.1
-10 -12 3 7.49 0.3
-9 -12 3 12.57 39.17
-7 -12 3 2.39 16.14
-6 -12 3 11.81 41.13
-5 -12 3 15.95 4.8
-3 -12 3 11.36 11.42
-2 -12 3 20.47 5.44
-1 -12 3 9.94 39.17
0 -12 3 1.54 40.15
1 -12 3 9.7 17.36
4 -12 3 2.05 30.95
5 -12 3 2.98 30.1
6 -12 3 6.88 0.29
7 -12 3 1.18 0.24
-13 -11 3 3.68 6.5
-12 -11 3 4.42 30.1
-11 -11 3 2.96 22.22
-10 -11 3 10.08 17.69
-8 -11 3 12.19 16.02
-6 -11 3 62.76 70.12
-5 -11 3 5.29 49.44
-4 -11 3 3.02 22.95
-3 -11 3 34.95 58.79
-2 -11 3 19.39 0.48
-1 -11 3 36.65 0.66
1 -11 3 55.3 41.44
2 -11 3 4.71 2.61
3 -11 3 2 3.4
4 -11 3 4.75 2.62
5 -11 3 14.25 50.53
6 -11 3 3.25 49.44
7 -11 3 5.55 49.44
8 -11 3 2.53 10.53
9 -11 3 3.31 22.95
-14 -10 3 4.63 30.1
-12 -10 3 39.89 13.8
-10 -10 3 31 0.61
-9 -10 3 5.94 8.25
-7 -10 3 15.91 40.15
-6 -10 3 14.13 0.41
-5 -10 3 1.16 16.77
-4 -10 3 25.43 0.55
-3 -10 3 8.42 6.66
-2 -10 3 1.42 50.53
-1 -10 3 0.89 40.15
0 -10 3 53.68 8.01
1 -10 3 54.49 0.08
4 -10 3 7.98 30.1
5 -10 3 1.15 16.14
7 -10 3 19.3 34.08
8 -10 3 2.78 0.18
9 -10 3 3.19 6.25
-14 -9 3 41.85 50.19
-12 -9 3 15.86 0.87
-9 -9 3 18.12 0.47
-8 -9 3 1.76 1.74
-7 -9 3 22.39 5.17
-6 -9 3 36.45 40.24
-5 -9 3 2.16 39.17
-4 -9 3 70.06 28.36
-3 -9 3 21.77 20.4
-2 -9 3 5.78 30.1
-1 -9 3 54.73 64.67
0 -9 3 115.85 59.99
1 -9 3 39 34.12
2 -9 3 42.63 0.71
4 -9 3 4.99 10.04
5 -9 3 3.35 22.22
6 -9 3 34.31 39.04
7 -9 3 11.04 0.36
11 -9 3 2.16 6.11
-14 -8 3 17.38 23.23
-13 -8 3 2.58 10.04
-12 -8 3 6.51 30.1
-11 -8 3 12.42 15.4
-10 -8 3 14.3 8.26
-9 -8 3 10.68 48.36
-8 -8 3 60.7 68.96
-7 -8 3 37.38 54.12
-6 -8 3 68.61 72.41
-5 -8 3 16.88 13.47
-4 -8 3 43.35 28.78
-3 -8 3 20.61 35.23
-1 -8 3 158.33 111.38
0 -8 3 41.99 63.73
1 -8 3 47.24 52.58
2 -8 3 137.61 103.83
4 -8 3 33.16 50.34
5 -8 3 23.33 16.36
6 -8 3 13.36 12.38
7 -8 3 47.09 53.24
8 -8 3 4.54 15.53
10 -8 3 6.43 15.53
-15 -7 3 5.78 49.44
-13 -7 3 11.74 11.6
-12 -7 3 1.84 39.17
-11 -7 3 137.61 39.74
-10 -7 3 9.43 16.78
-9 -7 3 1.75 49.44
-8 -7 3 68.07 9.92
-7 -7 3 2.34 10.04
-6 -7 3 12.73 3.9
-5 -7 3 2.1 30.1
-4 -7 3 26.32 0.06
-3 -7 3 17.79 4.61
-2 -7 3 62.16 25.85
-1 -7 3 57.18 8.26
0 -7 3 10.93 21.67
2 -7 3 65.12 8.82
3 -7 3 25.93 33.39
4 -7 3 84.26 10.03
5 -7 3 53.28 72.59
6 -7 3 24.34 22.1
7 -7 3 19.39 34.17
9 -7 3 1.47 50.53
10 -7 3 3.45 10.04
12 -7 3 5.42 39.17
-15 -6 3 2.78 0.18
-13 -6 3 26.27 11.2
-12 -6 3 24.18 0.05
-11 -6 3 68.79 27.19
-10 -6 3 33.16 50.97
-9 -6 3 5.29 15.53
-8 -6 3 73.96 46.99
-6 -6 3 37.71 53.69
-5 -6 3 612.87 194.78
-4 -6 3 130.65 37.47
-3 -6 3 296.78 39.53
-1 -6 3 16.93 22.48
0 -6 3 83.56 69.92
1 -6 3 177.88 45.18
2 -6 3 58.93 0.08
3 -6 3 90.38 32.2
4 -6 3 3.51 15.53
5 -6 3 86.78 51.92
6 -6 3 10.25 0.35
7 -6 3 14.92 8.86
8 -6 3 20.02 5.38
10 -6 3 19.93 29.76
11 -6 3 1.88 3.3
12 -6 3 3.64 10.04
-10 -5 3 14.92 4.64
-9 -5 3 32.66 56.83
-8 -5 3 6.26 21.49
-7 -5 3 16.66 13.38
-6 -5 3 161.37 70.8
-5 -5 3 510.67 2.47
-4 -5 3 1362.57 52.44
-3 -5 3 1.97 1.69
-2 -5 3 1.04 49.44
-1 -5 3 6.91 14.93
0 -5 3 272.09 37.85
1 -5 3 54.16 56.3
2 -5 3 133.92 115.07
3 -5 3 117.51 48.57
4 -5 3 4.27 0.23
5 -5 3 92.37 32.56
6 -5 3 37.11 6.66
8 -5 3 107.31 1.13
10 -5 3 52.02 40.19
12 -5 3 8.9 0.33
-14 -4 3 4.56 39.17
-13 -4 3 7.05 8.7
-12 -4 3 3.45 22.22
-10 -4 3 77 87.26
-8 -4 3 17.7 32.18
-7 -4 3 72.93 9.33
-6 -4 3 20.57 24.78
-5 -4 3 12.11 11.41
-4 -4 3 69.97 18.28
-3 -4 3 88.73 61.76
-2 -4 3 555.32 234.33
-1 -4 3 1322.14 365.55
0 -4 3 5.89 29.26
1 -4 3 59.1 25.2
2 -4 3 710.63 122.35
3 -4 3 4.68 0.24
4 -4 3 38.32 54.12
5 -4 3 42.99 50.15
6 -4 3 148.85 94.66
7 -4 3 45.24 58.8
8 -4 3 155.59 42.26
9 -4 3 2.34 10.04
11 -4 3 7.98 40.15
12 -4 3 2.96 2.07
13 -4 3 3.55 6.59
-14 -3 3 14.17 0.41
-13 -3 3 11.55 15.23
-12 -3 3 7.4 14.93
-11 -3 3 1.52 5.74
-10 -3 3 101.84 89.32
-9 -3 3 12.15 11.81
-8 -3 3 94.16 95.43
-7 -3 3 5.17 9.93
-6 -3 3 44.8 7.31
-5 -3 3 99.32 77.32
-4 -3 3 1234.63 199.66
-3 -3 3 1273.33 124.78
-2 -3 3 256.98 159.41
-1 -3 3 379.83 172.5
0 -3 3 45.02 0.07
1 -3 3 150.46 40.21
2 -3 3 604.51 163.89
4 -3 3 123.87 86.35
5 -3 3 335.82 102.13
6 -3 3 90.28 42.57
7 -3 3 13.56 12.07
8 -3 3 51.78 47.18
9 -3 3 48.61 8.38
10 -3 3 1.68 30.1
11 -3 3 49.83 23.91
12 -3 3 5.96 10.94
13 -3 3 3.64 6.46
14 -3 3 14.17 49.44
-14 -2 3 1.08 6.11
-13 -2 3 6.94 30.1
-12 -2 3 6.26 11.21
-11 -2 3 43.2 7.9
-10 -2 3 32.1 0.06
-9 -2 3 84.26 41.12
-8 -2 3 17.33 9.55
-7 -2 3 8.96 21.49
-6 -2 3 28.85 29.35
-5 -2 3 41.92 49.53
-4 -2 3 145.41 54.03
-3 -2 3 1.84 0.15
-2 -2 3 577.68 239
-1 -2 3 802.56 65.01
0 -2 3 651.05 2.79
1 -2 3 140.57 38.87
2 -2 3 919.2 72.89
3 -2 3 1151.61 44.5
4 -2 3 133.41 26.51
5 -2 3 1290.94 125.64
6 -2 3 269.57 73.56
8 -2 3 2.94 39.17
9 -2 3 21.67 49.44
10 -2 3 7.58 12.04
11 -2 3 40.45 21.54
13 -2 3 13.36 12.38
14 -2 3 9 13.77
-14 -1 3 11.33 49.44
-13 -1 3 20.12 5.88
-12 -1 3 13.6 12.09
-11 -1 3 8.67 9.65
-10 -1 3 19.63 24.69
-9 -1 3 4.71 15.53
-8 -1 3 42.77 35.73
-7 -1 3 86.99 50.96
-6 -1 3 118.46 59.47
-5 -1 3 26.43 22.47
-4 -1 3 44.65 21.91
-3 -1 3 41.15 63.08
-2 -1 3 436.76 184.98
-1 -1 3 493.29 123.78
0 -1 3 326.87 81
1 -1 3 1687.27 98.75
2 -1 3 786.85 217.63
3 -1 3 1956.21 14.5
4 -1 3 116.92 0.12
5 -1 3 2.02 39.17
6 -1 3 48.68 30.5
7 -1 3 172.81 116.36
8 -1 3 9.73 38.21
9 -1 3 33.67 25.36
10 -1 3 40.45 0.07
11 -1 3 106.97 102.85
12 -1 3 10.36 3.87
13 -1 3 0.97 22.95
14 -1 3 1.18 16.14
15 -1 3 4.31 7.26
-14 0 3 1.21 2.89
-12 0 3 1.78 30.1
-11 0 3 36.85 0.66
-10 0 3 87.91 1.02
-9 0 3 45.75 8.13
-8 0 3 44.43 65.56
-7 0 3 147.39 13.27
-6 0 3 8.45 21.49
-5 0 3 204.45 79.69
-3 0 3 272.63 73.98
-2 0 3 56.11 40.93
-1 0 3 89.66 10.35
0 0 3 1635.61 185.61
1 0 3 14.71 0.04
2 0 3 71.07 82.91
3 0 3 276.25 92.63
4 0 3 423.84 137.23
5 0 3 24.78 10.88
6 0 3 1432.42 343.27
7 0 3 2.53 3.65
8 0 3 87.39 0.1
9 0 3 64.86 26.4
10 0 3 26.94 34.6
11 0 3 46.72 15.69
12 0 3 1.39 1.55
13 0 3 25.88 11.67
14 0 3 15.69 39.17
15 0 3 8.45 6.67
-14 1 3 6.15 22.22
-12 1 3 3.62 49.44
-11 1 3 4.9 5.08
-10 1 3 21.87 0.51
-9 1 3 38.59 33.94
-7 1 3 126.81 0.12
-6 1 3 24.78 27.2
-4 1 3 271.91 91.9
-3 1 3 88.21 30.79
-2 1 3 81.18 39.38
-1 1 3 227.57 51.1
0 1 3 96.72 64.48
1 1 3 55.87 65.34
2 1 3 2.02 3.1
3 1 3 25.82 22.21
4 1 3 25.99 5.57
6 1 3 467.19 144.08
7 1 3 32.72 12.5
8 1 3 44.14 65.34
9 1 3 14.34 20.69
10 1 3 1.93 3.18
11 1 3 1.24 2.89
12 1 3 108.9 35.35
13 1 3 1 40.15
14 1 3 51.31 48.53
15 1 3 1.62 16.14
16 1 3 4.95 7.53
-13 2 3 5.67 2.86
-11 2 3 14.13 0.41
-10 2 3 6.18 11.14
-9 2 3 54.08 0.08
-8 2 3 4.54 0.23
-7 2 3 114.92 23.43
-6 2 3 36.91 53.11
-5 2 3 22.54 48.36
-4 2 3 658.6 229.96
-3 2 3 40.38 6.94
-2 2 3 867.6 167.37
-1 2 3 766.45 184.54
0 2 3 53.52 0.08
1 2 3 201.96 1.55
2 2 3 1028.98 287.43
3 2 3 0.49 39.17
4 2 3 137.48 25.63
5 2 3 171.95 73.08
6 2 3 61.64 51.48
7 2 3 115.38 1.17
8 2 3 4.24 14.93
9 2 3 112.7 92.81
10 2 3 3.74 6.55
12 2 3 72.18 83.56
13 2 3 29.2 0.06
14 2 3 2.13 3.51
15 2 3 0.98 1.3
16 2 3 13.08 8.3
-12 3 3 5.96 15.53
-11 3 3 3.47 0.41
-10 3 3 7.4 3.27
-9 3 3 42.49 50.57
-8 3 3 17.42 13.68
-7 3 3 20.22 34.4
-6 3 3 1.25 49.44
-5 3 3 45.02 51.32
-4 3 3 7.7 15.17
-3 3 3 2.62 0.18
-2 3 3 236.39 18.48
-1 3 3 131.02 37.52
0 3 3 235.22 85.47
1 3 3 320.77 138.96
2 3 3 388.18 109.8
3 3 3 192.44 122.79
4 3 3 355.53 146.29
5 3 3 294.33 76.86
6 3 3 143.57 106.06
7 3 3 249.16 87.97
8 3 3 1.55 30.1
9 3 3 107.31 56.6
10 3 3 9.94 0.34
11 3 3 8.13 15.89
12 3 3 18.35 14.04
13 3 3 9.6 17.26
15 3 3 7.86 22.22
16 3 3 6.43 0.28
-12 4 3 23.38 42.8
-11 4 3 2.46 3.6
-10 4 3 8.8 6.48
-9 4 3 5.89 15.53
-8 4 3 3.78 2.34
-7 4 3 9.7 39.17
-6 4 3 189.73 16.56
-5 4 3 8.7 48.36
-4 4 3 0.7 22.95
-3 4 3 140.96 105.09
-1 4 3 426.54 47.39
0 4 3 44.43 14.57
1 4 3 348.76 22.45
2 4 3 60.36 25.47
3 4 3 21.67 10.17
4 4 3 18.92 14.26
5 4 3 120.37 0.12
6 4 3 36.72 13.24
7 4 3 57.93 8.32
8 4 3 199.17 16.96
9 4 3 67.62 0.09
10 4 3 179.04 133.06
12 4 3 31.36 30.6
13 4 3 24.34 16.71
14 4 3 6.02 10.99
15 4 3 15.26 21.77
16 4 3 19.39 34.17
-12 5 3 9.2 3.98
-10 5 3 14.54 25.42
-8 5 3 39.48 0.07
-7 5 3 23.49 21.71
-6 5 3 225.92 34.49
-5 5 3 65.3 79.47
-4 5 3 25.27 32.96
-3 5 3 121.93 12.07
-2 5 3 25.54 11.05
-1 5 3 72.37 0.93
0 5 3 226.91 51.03
1 5 3 268.85 127.21
2 5 3 115.27 46.93
3 5 3 22.28 30.95
4 5 3 48.83 30.55
5 5 3 19.83 9.73
6 5 3 6.54 22.22
7 5 3 118.46 59.47
8 5 3 9.2 30.1
9 5 3 66.1 44.42
10 5 3 24.4 32.92
11 5 3 29.67 24.41
12 5 3 76.04 67.66
13 5 3 48.61 1.52
14 5 3 5.75 8.13
15 5 3 18.3 33.19
16 5 3 4.54 10.04
-11 6 3 0.9 10.53
-9 6 3 10.64 11.05
-7 6 3 22.49 26.43
-5 6 3 1.63 1.54
-4 6 3 21.37 5.05
-3 6 3 5.96 29.26
-2 6 3 16.39 0.04
-1 6 3 1.01 49.44
0 6 3 1214.75 316.11
1 6 3 451.5 141.64
2 6 3 199.02 124.87
3 6 3 15.95 0.04
4 6 3 16.04 13.13
5 6 3 39.34 47.98
6 6 3 5.39 30.1
7 6 3 54.65 48.47
8 6 3 41.57 56.36
10 6 3 5.96 30.1
11 6 3 17.11 27.57
12 6 3 9.53 17.2
13 6 3 7.17 11.99
15 6 3 30.51 7.24
16 6 3 2.27 0.16
-11 7 3 8.87 10.09
-9 7 3 14.92 13.09
-6 7 3 6.07 39.17
-5 7 3 23.43 49.44
-4 7 3 30.88 49.18
-3 7 3 19.15 14.35
-2 7 3 7.4 38.21
-1 7 3 96.94 43.04
0 7 3 59.01 58.76
1 7 3 16.44 26.58
2 7 3 36.32 59.27
3 7 3 359.45 84.94
4 7 3 178.75 132.95
5 7 3 94.69 54.23
6 7 3 96.94 21.52
7 7 3 150.73 1.34
8 7 3 94.16 42.41
9 7 3 28.55 53.14
10 7 3 1 0.22
12 7 3 13.36 15.98
13 7 3 10.01 49.44
15 7 3 2.39 10.04
16 7 3 2.1 0.32
-8 8 3 5.52 30.95
-6 8 3 13.52 16.47
-5 8 3 5.6 0.26
-4 8 3 17.56 5.04
-3 8 3 39.41 61.74
-2 8 3 70.43 55.02
-1 8 3 1.34 10.04
0 8 3 59.69 42.21
1 8 3 169.24 15.64
2 8 3 132.78 101.99
3 8 3 95.01 22.37
4 8 3 192.75 138.06
5 8 3 23.54 42.41
6 8 3 52.25 63.19
7 8 3 233.38 68.44
8 8 3 44.87 44.65
9 8 3 4.33 7.05
10 8 3 88.62 21.6
11 8 3 2.11 1.75
13 8 3 12.04 3.79
14 8 3 4.8 15.53
16 8 3 3.85 0.21
-9 9 3 1.22 30.95
-8 9 3 3.87 2.36
-7 9 3 6.13 8.38
-6 9 3 5.39 2.79
-5 9 3 29.85 36.42
-4 9 3 6.26 15.53
-3 9 3 12.54 19.73
-2 9 3 1.69 15.53
-1 9 3 1.73 3.02
0 9 3 38.32 60.88
1 9 3 7.14 8.76
2 9 3 29.2 0.06
5 9 3 0.84 2.89
6 9 3 1.85 0.15
7 9 3 20.27 39.36
8 9 3 24.72 5.98
9 9 3 62.94 52.88
10 9 3 233.21 151.86
11 9 3 6.54 11.46
12 9 3 5.65 49.44
13 9 3 3.96 2.39
14 9 3 5.96 39.17
15 9 3 2.1 1.74
16 9 3 14.8 49.44
-8 10 3 3.23 39.17
-6 10 3 3.19 22.22
-5 10 3 12.04 4.17
-4 10 3 1.42 10.53
-3 10 3 13.56 24.55
-2 10 3 38.12 7.42
-1 10 3 28.26 0.06
0 10 3 70.98 0.92
1 10 3 4.31 49.44
2 10 3 9.4 30.1
3 10 3 14.09 0.04
4 10 3 9.26 13.3
5 10 3 10.08 49.44
6 10 3 23.86 0.53
7 10 3 18.77 14.68
8 10 3 81.77 20.75
9 10 3 2.6 2.11
10 10 3 29.26 18.32
11 10 3 2.6 1.94
13 10 3 2.08 39.17
-7 11 3 4.42 0.23
-6 11 3 5.02 5.14
-5 11 3 1.17 2.89
-2 11 3 8.7 9.99
-1 11 3 6.4 3.04
0 11 3 8.87 38.21
1 11 3 1.41 0.26
2 11 3 11.66 0.37
3 11 3 17.7 49.44
5 11 3 41.99 14.87
6 11 3 18.35 9.36
7 11 3 20.52 40.09
8 11 3 2.67 30.95
10 11 3 18.44 19.24
11 11 3 36.58 46.93
12 11 3 1.46 10.53
13 11 3 8.04 9.61
15 11 3 0.91 2.89
-6 12 3 2.39 3.55
-5 12 3 3.02 2.09
-4 12 3 5.24 15.53
-3 12 3 2.29 5.74
-2 12 3 7.26 3.24
-1 12 3 2.62 39.17
0 12 3 2.51 0.17
1 12 3 20.12 5.39
3 12 3 16.35 0.44
5 12 3 12.42 15.4
9 12 3 22.7 49.44
10 12 3 2.22 6.11
11 12 3 59.86 26.21
13 12 3 9.26 49.44
-6 13 3 2.8 5.74
-3 13 3 2.89 5.76
-2 13 3 0.91 40.15
0 13 3 1.12 30.95
1 13 3 17.06 4.97
3 13 3 10.32 49.44
4 13 3 3.17 6.03
5 13 3 12.69 39.17
7 13 3 2.89 50.53
8 13 3 1.48 23.7
9 13 3 8.48 3.5
10 13 3 5.24 0.25
14 13 3 6.15 22.22
-5 14 3 1 40.15
-2 14 3 2.29 15.53
-1 14 3 1.38 10.53
0 14 3 3.89 10.04
4 14 3 7.43 30.1
5 14 3 5.86 2.91
7 14 3 3.66 32.69
8 14 3 3.21 4.31
13 14 3 1.16 0.24
0 15 3 4.92 30.1
4 15 3 11.44 39.17
6 15 3 17.98 9.73
8 15 3 4.36 16.14
10 15 3 5.57 0.26
11 15 3 2.67 0.36
4 16 3 1.44 0.26
6 16 3 7.46 22.22
10 16 3 1.59 51.64
11 16 3 3.68 10.53
4 17 3 2.41 5.74
5 17 3 3.17 15.53
-7 -17 4 1.3 41.13
-8 -16 4 4.92 10.04
-4 -16 4 2 0.31
-3 -16 4 1.94 6.5
-11 -15 4 2.24 0.33
-10 -15 4 5.22 22.22
-9 -15 4 14.63 17.55
-5 -15 4 3.39 50.53
-4 -15 4 3.72 10.53
-3 -15 4 6.99 30.1
-2 -15 4 5.49 7.94
0 -15 4 6.4 55.02
-11 -14 4 1.24 30.95
-10 -14 4 1.82 22.22
-9 -14 4 10.22 24.46
-8 -14 4 5.07 7.63
-7 -14 4 3.33 2.39
-5 -14 4 7.37 3.86
-3 -14 4 6.65 15.53
-2 -14 4 2.36 40.15
3 -14 4 8.77 3.56
-12 -13 4 2.78 39.17
-10 -13 4 3.87 30.1
-9 -13 4 6.29 42.13
-8 -13 4 18.77 1.42
-7 -13 4 2.02 10.53
-6 -13 4 13.64 25.83
-5 -13 4 2.7 6.11
-4 -13 4 5.12 0.74
-3 -13 4 4.54 10.53
-1 -13 4 4.02 30.1
1 -13 4 40.93 49.64
3 -13 4 20.22 0.49
6 -13 4 3.68 10.53
-13 -12 4 0.85 1.21
-10 -12 4 6.91 30.1
-9 -12 4 22.96 38.75
-8 -12 4 62.59 3.46
-6 -12 4 2.24 11.56
-4 -12 4 4.73 49.44
-2 -12 4 2.62 2.12
-1 -12 4 10.57 39.17
0 -12 4 29.02 53.57
4 -12 4 5.47 10.48
5 -12 4 1.59 50.53
6 -12 4 6.96 15.53
8 -12 4 1.76 30.95
-12 -11 4 1.18 0.24
-11 -11 4 1.71 40.15
-10 -11 4 1.1 10.53
-9 -11 4 43.85 30.39
-8 -11 4 12.23 23.69
-7 -11 4 61.56 43.73
-5 -11 4 56.77 17.29
-4 -11 4 3.11 10.53
-3 -11 4 6.37 15.53
-2 -11 4 95.44 22.42
0 -11 4 20.66 14.9
1 -11 4 33.23 19.53
2 -11 4 53.44 16.78
4 -11 4 21.93 20.98
6 -11 4 7.73 3.34
8 -11 4 2.39 3.72
-14 -10 4 3.53 39.17
-13 -10 4 4.85 10.04
-11 -10 4 0.88 22.95
-10 -10 4 3.04 15.53
-9 -10 4 9.67 22.22
-7 -10 4 9.4 30.1
-6 -10 4 14.25 16.92
-5 -10 4 61.64 35.18
-4 -10 4 12.46 23.53
-2 -10 4 117.74 60.47
-1 -10 4 13.32 0.4
0 -10 4 13.28 3.98
1 -10 4 81.77 50.39
3 -10 4 11.55 30.1
4 -10 4 16.04 13.57
5 -10 4 5.22 7.99
6 -10 4 31.36 19.58
8 -10 4 1.94 0.46
10 -10 4 8.13 6.86
-13 -9 4 7.49 9.27
-12 -9 4 4.75 10.04
-10 -9 4 12.81 38.21
-9 -9 4 3.85 49.44
-8 -9 4 20.47 15.82
-7 -9 4 1.72 0.29
-6 -9 4 92.58 1.05
-5 -9 4 16.61 49.44
-4 -9 4 1.54 2.98
-3 -9 4 18.63 5.19
-2 -9 4 21.37 5.56
-1 -9 4 41.29 14.04
0 -9 4 12.46 7.71
1 -9 4 143.7 119.2
2 -9 4 55.3 8.94
4 -9 4 6.02 2.95
5 -9 4 2.42 40.15
6 -9 4 12.08 39.17
7 -9 4 6.18 11.14
9 -9 4 18.4 29.06
11 -9 4 1.33 51.64
-14 -8 4 8.17 15.93
-13 -8 4 1.66 10.04
-12 -8 4 58.18 0.83
-10 -8 4 49.14 16.09
-9 -8 4 21.37 30.31
-7 -8 4 72.28 84.54
-6 -8 4 26.27 34.16
-4 -8 4 49.45 69.16
-3 -8 4 41.22 21.05
-2 -8 4 1.07 30.95
-1 -8 4 24.83 10.89
0 -8 4 126.31 36.84
1 -8 4 121.45 25.29
2 -8 4 10.6 38.21
4 -8 4 21.77 40.79
5 -8 4 7.08 9.01
7 -8 4 60.28 34.78
8 -8 4 8.39 3.48
9 -8 4 5.24 0.25
11 -8 4 7.23 6.17
12 -8 4 6.68 30.1
-14 -7 4 38.86 35.42
-13 -7 4 4.95 49.44
-12 -7 4 12.11 48.36
-11 -7 4 1.24 30.95
-10 -7 4 7.26 3.24
-9 -7 4 35.6 58.68
-8 -7 4 9.63 17.3
-7 -7 4 89.24 73.29
-6 -7 4 13.48 8.02
-5 -7 4 17.7 0.05
-4 -7 4 152.2 41.79
-3 -7 4 11.25 7.33
-2 -7 4 14.05 48.36
-1 -7 4 140.83 53.17
0 -7 4 87.91 61.47
1 -7 4 179.34 74.63
2 -7 4 82.56 10.92
3 -7 4 15.48 38.21
4 -7 4 49.91 47.09
5 -7 4 2.02 10.04
6 -7 4 11.22 10.98
7 -7 4 59.1 16.8
8 -7 4 1.11 22.95
9 -7 4 1.12 2.89
10 -7 4 5.86 15.53
12 -7 4 9.4 22.22
-14 -6 4 13.16 30.95
-13 -6 4 0.83 0.2
-12 -6 4 9.7 21.49
-11 -6 4 30.63 0.6
-10 -6 4 11.96 23.05
-9 -6 4 12.54 4.26
-8 -6 4 70.34 19.25
-7 -6 4 36.19 52.59
-6 -6 4 62.76 43.29
-5 -6 4 21.62 40.65
-4 -6 4 44.65 43.81
-3 -6 4 13.2 15.88
-2 -6 4 10.85 49.44
-1 -6 4 174.4 1.44
0 -6 4 14.09 20.51
1 -6 4 65.12 71.43
2 -6 4 155.32 69.46
4 -6 4 58.01 24.97
5 -6 4 16.7 31.26
6 -6 4 7.08 0.29
7 -6 4 47.54 8.29
8 -6 4 1.14 10.53
10 -6 4 7.64 40.15
11 -6 4 4.33 30.95
12 -6 4 5.6 5.69
13 -6 4 4.95 11.04
-13 -5 4 9.5 0.34
-12 -5 4 1.08 0.23
-11 -5 4 144.22 106.3
-10 -5 4 36.25 59.22
-9 -5 4 11.77 15
-8 -5 4 82.76 30.82
-7 -5 4 16.7 13.4
-6 -5 4 82.16 49.53
-5 -5 4 13.89 8.14
-4 -5 4 11.22 48.36
-3 -5 4 80.29 88.12
-2 -5 4 26.66 50.78
-1 -5 4 148.59 41.29
0 -5 4 29.44 17.79
1 -5 4 3.89 10.04
2 -5 4 296.02 133.49
3 -5 4 44.51 51.76
4 -5 4 300.36 98.48
5 -5 4 153.56 69.06
6 -5 4 47.62 15.08
7 -5 4 57.6 50.59
8 -5 4 15.48 17.62
9 -5 4 3.15 6.02
10 -5 4 19.73 48.36
12 -5 4 10.15 17.75
13 -5 4 21.37 5.56
-13 -4 4 11.77 11.62
-12 -4 4 38.39 41.3
-11 -4 4 23.38 11.1
-10 -4 4 68.52 0.09
-8 -4 4 27.86 40.37
-7 -4 4 1.28 39.17
-6 -4 4 37.92 33.64
-5 -4 4 391.2 45.39
-4 -4 4 330.63 101.34
-3 -4 4 170.52 44.24
-2 -4 4 34.88 6.45
-1 -4 4 4.78 2.39
0 -4 4 57.93 16.63
1 -4 4 102.5 0.11
2 -4 4 128.91 88.09
3 -4 4 5.22 5.24
4 -4 4 13.8 30.1
5 -4 4 71.44 27.71
6 -4 4 2 3.25
7 -4 4 88.01 62.53
8 -4 4 24.02 10.71
9 -4 4 23.7 16.49
10 -4 4 58.93 76.34
12 -4 4 27 23.28
13 -4 4 1.25 30.95
-14 -3 4 4.92 30.1
-13 -3 4 0.83 22.95
-10 -3 4 32.54 56.72
-9 -3 4 46.5 44.71
-8 -3 4 21.06 0.5
-7 -3 4 9.9 13.76
-6 -3 4 179.34 60
-5 -3 4 470.98 120.95
-4 -3 4 1162.76 119.24
-2 -3 4 10.53 7.09
-1 -3 4 2.18 49.44
0 -3 4 523.34 152.49
1 -3 4 115.03 82.04
2 -3 4 165.28 15.45
3 -3 4 160.82 126.1
4 -3 4 92.26 95.51
5 -3 4 123.63 1.21
6 -3 4 103.72 34.5
8 -3 4 122.41 61.66
10 -3 4 54.57 16.95
11 -3 4 1.32 16.14
12 -3 4 12.93 24.75
-14 -2 4 6.21 11.16
-13 -2 4 0.99 2.89
-11 -2 4 3.8 22.22
-10 -2 4 44.21 7.99
-9 -2 4 33.48 25.29
-8 -2 4 17.75 27.62
-7 -2 4 2.26 15.53
-6 -2 4 85.46 60.61
-4 -2 4 3.98 30.1
-3 -2 4 308.56 97.9
-2 -2 4 511.66 150.78
-1 -2 4 3898.03 95.51
0 -2 4 31.12 0.06
1 -2 4 13.44 8.01
2 -2 4 2191.49 271.12
3 -2 4 17.24 48.36
4 -2 4 239.42 86.23
5 -2 4 10.96 7.24
6 -2 4 202.74 94.91
7 -2 4 6.82 5.71
8 -2 4 375.37 44.46
9 -2 4 5.65 2.86
10 -2 4 12.19 19.46
11 -2 4 43.2 22.98
12 -2 4 3.93 0.22
13 -2 4 30.45 24.12
14 -2 4 1.62 30.95
15 -2 4 5.07 10.09
-14 -1 4 3.39 49.44
-13 -1 4 5.57 10.57
-12 -1 4 1.78 1.6
-11 -1 4 1.41 15.53
-10 -1 4 52.09 71.77
-9 -1 4 8.39 16.14
-8 -1 4 42.63 14.98
-6 -1 4 60.03 25.4
-5 -1 4 45.53 0.07
-4 -1 4 944.89 309.03
-3 -1 4 1199.94 272.54
-2 -1 4 4.99 0.02
-1 -1 4 750.8 2.99
0 -1 4 143.04 52.28
1 -1 4 1.84 9.55
2 -1 4 774.94 276.82
3 -1 4 209.8 112.38
4 -1 4 27.45 0.06
5 -1 4 376 150.44
7 -1 4 64.77 17.59
8 -1 4 27.68 34.5
9 -1 4 18.3 9.82
10 -1 4 11.36 39.17
11 -1 4 73.58 75.93
13 -1 4 13.84 4.88
14 -1 4 8.58 6.72
15 -1 4 1.81 0.29
-13 0 4 12.46 49.44
-12 0 4 0.79 10.53
-11 0 4 53.52 24.78
-10 0 4 25.76 0.55
-9 0 4 78.73 68.84
-8 0 4 33.23 18.9
-7 0 4 20.61 34.73
-6 0 4 52.25 0.08
-5 0 4 162.62 57.13
-4 0 4 54.08 72.33
-3 0 4 68.88 54.42
-2 0 4 569.05 132.94
-1 0 4 1010.48 319.57
0 0 4 1445.27 174.48
1 0 4 712.09 236.2
2 0 4 980.83 41.07
3 0 4 2865.28 251.52
4 0 4 177.44 88.79
5 0 4 1769.96 243.66
6 0 4 330.63 180.82
7 0 4 9.5 0.03
8 0 4 3.7 10.04
9 0 4 48 37.85
10 0 4 10.22 39.17
11 0 4 52.65 72.15
13 0 4 5.07 39.17
14 0 4 14.59 5.01
-13 1 4 9.13 16.51
-11 1 4 6.88 30.1
-10 1 4 0.83 50.53
-8 1 4 27 39.75
-7 1 4 21.21 40.27
-6 1 4 228.56 18.17
-5 1 4 9.16 6.62
-4 1 4 14.38 8.29
-3 1 4 74.05 65.82
-2 1 4 165.84 113.99
-1 1 4 10.53 10.64
0 1 4 815.3 3.12
1 1 4 529.11 178.46
2 1 4 23.81 21.33
3 1 4 2461.77 233.14
4 1 4 5.86 29.26
5 1 4 44.29 29.09
6 1 4 103.5 88.94
7 1 4 54.81 0.08
8 1 4 142.26 53.44
9 1 4 16.08 38.21
10 1 4 1.58 30.1
11 1 4 158.74 1.38
12 1 4 28.32 34.89
13 1 4 6.62 16.14
15 1 4 1.55 0.27
16 1 4 11.77 49.44
-12 2 4 1.55 6.11
-11 2 4 30.57 18.73
-10 2 4 68.52 9.95
-9 2 4 42.27 14.21
-8 2 4 33.67 31.7
-7 2 4 89.45 82.68
-6 2 4 6.34 8.26
-5 2 4 81.47 49.32
-3 2 4 56.52 16.43
-2 2 4 1.51 2.82
-1 2 4 64.33 0.09
0 2 4 365.28 43.86
1 2 4 0.9 49.44
2 2 4 45.61 44.28
3 2 4 1.65 10.04
4 2 4 425.42 47.33
5 2 4 72.37 18.59
6 2 4 1501.48 351.45
7 2 4 12.15 11.43
8 2 4 91.95 73.35
9 2 4 17.84 18.46
10 2 4 14.05 16.38
11 2 4 31.06 12.79
13 2 4 18.63 28.77
14 2 4 14.21 16.48
15 2 4 1.96 50.53
16 2 4 1.91 22.95
-12 3 4 1.29 40.15
-10 3 4 28.61 17.54
-9 3 4 7.4 0.03
-8 3 4 25.65 0.06
-7 3 4 82.26 0.1
-5 3 4 29.38 41.46
-4 3 4 212.34 33.44
-3 3 4 3.39 6.24
-2 3 4 271.91 37.84
-1 3 4 40.17 34.63
0 3 4 344.28 42.58
2 3 4 1.73 0.01
3 3 4 101.07 10.99
4 3 4 134.42 114.02
5 3 4 39 27.3
6 3 4 594.08 29.3
7 3 4 30.45 0.06
8 3 4 64.68 17.58
9 3 4 50.45 15.52
10 3 4 4.99 15.53
11 3 4 1.46 10.04
12 3 4 189.27 136.81
13 3 4 0.81 40.15
14 3 4 73.4 38.38
15 3 4 1.59 6.11
16 3 4 7.43 15.53
-11 4 4 10.39 39.17
-10 4 4 12.08 49.44
-9 4 4 10.57 30.1
-8 4 4 1.38 10.04
-7 4 4 15.01 17.36
-6 4 4 5.6 2.84
-5 4 4 6.74 0.03
-4 4 4 225.1 67.22
-3 4 4 3.39 15.53
-2 4 4 242.99 103.91
-1 4 4 59.86 59.18
0 4 4 51.23 39.11
1 4 4 10.53 10.64
2 4 4 167.4 72.1
3 4 4 73.96 18.8
4 4 4 16.88 31.43
5 4 4 2.27 0.16
6 4 4 35.08 0.06
7 4 4 15.6 48.36
8 4 4 25.49 0.06
9 4 4 90.8 20.83
10 4 4 25.38 49.54
11 4 4 20.47 20.27
12 4 4 51.07 0.08
13 4 4 81.87 10.88
14 4 4 2.51 3.64
15 4 4 2.76 2
16 4 4 7.34 9.18
-12 5 4 6.02 40.15
-11 5 4 2.41 1.87
-10 5 4 0.99 40.15
-9 5 4 27.17 17.66
-8 5 4 4.13 0.22
-7 5 4 21.32 20.68
-6 5 4 4.4 30.1
-5 5 4 41.71 42.34
-4 5 4 6.48 0.03
-3 5 4 14.5 16.65
-2 5 4 86.99 50.96
-1 5 4 201.34 32.56
0 5 4 34.43 19.24
1 5 4 230.05 34.81
2 5 4 216.98 49.9
3 5 4 96.72 10.75
4 5 4 163.04 113.02
5 5 4 127.17 24.65
6 5 4 50.53 0.08
7 5 4 205.39 48.55
8 5 4 3.35 22.22
9 5 4 88.93 11.34
10 5 4 3.31 49.44
11 5 4 6.37 3.03
12 5 4 1.9 22.22
13 5 4 6.45 11.66
14 5 4 3.98 10.53
15 5 4 9.5 13.81
16 5 4 10.5 30.1
-10 6 4 6.82 5.99
-8 6 4 0.86 0.2
-6 6 4 31.12 24.38
-5 6 4 49.37 69.1
-3 6 4 17.84 48.36
-2 6 4 25.49 22.07
-1 6 4 139.8 117.57
0 6 4 73.49 28.1
1 6 4 364.44 189.83
2 6 4 40.52 27.82
3 6 4 106.07 79.91
4 6 4 31.92 30.87
5 6 4 55.13 33.27
6 6 4 133.54 51.77
7 6 4 75.85 9.52
8 6 4 44.14 58.08
9 6 4 121.45 85.5
10 6 4 110.62 93.1
11 6 4 6.48 5.84
12 6 4 40.87 0.07
13 6 4 26.77 16.96
14 6 4 18.35 0.47
15 6 4 19.11 24.36
16 6 4 23.07 27.29
-10 7 4 2.21 50.53
-8 7 4 17.61 18.8
-7 7 4 4.59 10.04
-6 7 4 66.45 0.09
-5 7 4 22.96 11
-4 7 4 1.63 30.1
-3 7 4 24.88 0.05
-2 7 4 1.85 22.22
-1 7 4 13.93 8.16
0 7 4 48.15 60.66
1 7 4 69.43 54.63
3 7 4 4.29 49.44
4 7 4 6.37 21.49
5 7 4 1.68 30.1
6 7 4 22.49 36.28
7 7 4 25.27 21.97
8 7 4 2.58 39.17
9 7 4 39.14 14.36
10 7 4 0.87 40.15
11 7 4 14.46 12.88
12 7 4 66.72 18.74
13 7 4 20.71 34.81
14 7 4 19.39 19.73
15 7 4 11.44 30.1
-9 8 4 9.1 30.95
-7 8 4 20.76 20.42
-6 8 4 0.83 50.53
-4 8 4 33.92 7
-3 8 4 6.59 0.28
-1 8 4 7.8 3.05
0 8 4 388.39 174.44
1 8 4 221.67 148.05
2 8 4 156 28.66
3 8 4 3.64 6.46
4 8 4 49.14 7.66
5 8 4 28.38 11.64
6 8 4 2.94 0.19
7 8 4 54.57 8.88
8 8 4 21.16 35.69
10 8 4 1.42 22.95
11 8 4 19.39 0.48
12 8 4 14.3 21.48
13 8 4 3.41 10.04
15 8 4 20.76 5.98
16 8 4 2.46 1.88
-9 9 4 2.37 39.17
-8 9 4 2.87 15.53
-5 9 4 2.48 5.74
-4 9 4 22.28 25.79
-2 9 4 2.91 10.04
-1 9 4 21.16 15.58
0 9 4 0.77 50.53
1 9 4 21.52 10.14
2 9 4 15.35 21.4
3 9 4 37.58 46.89
4 9 4 140.57 91.99
5 9 4 9.43 0.03
6 9 4 9.87 6.87
7 9 4 105.51 68.47
8 9 4 24.5 16.77
9 9 4 43.63 0.72
10 9 4 4.97 15.53
11 9 4 4.71 10.04
12 9 4 4.15 22.22
13 9 4 2.94 15.53
15 9 4 3.87 0.21
16 9 4 1.41 0.26
-8 10 4 3.8 2.34
-6 10 4 8.35 16.11
-5 10 4 2.41 10.04
-4 10 4 4.59 39.17
-3 10 4 11 49.44
-2 10 4 14.84 13.05
0 10 4 15.13 4.68
1 10 4 89.45 51.67
2 10 4 52.73 40.47
3 10 4 31.73 30.78
4 10 4 56.36 0.82
5 10 4 2.05 30.1
6 10 4 25.21 27.43
7 10 4 89.86 21.75
8 10 4 21.67 10.68
9 10 4 9.2 49.44
10 10 4 44.29 15.27
11 10 4 1.87 39.17
13 10 4 4.49 7.18
14 10 4 2.42 15.53
16 10 4 1.72 0.29
-6 11 4 3.93 22.22
-5 11 4 3.31 4.18
-4 11 4 7.29 49.44
-3 11 4 5.75 5.5
-1 11 4 1.52 5.74
0 11 4 19.59 14.99
1 11 4 1.12 2.63
2 11 4 27.8 29.38
3 11 4 0.96 30.95
4 11 4 1.48 10.53
5 11 4 4.99 22.22
6 11 4 1.14 2.89
7 11 4 1.65 3.23
8 11 4 21.77 31.1
9 11 4 18.21 0.47
10 11 4 142.91 53.56
11 11 4 4.06 22.22
12 11 4 5.07 5.17
13 11 4 4.68 0.24
14 11 4 2.1 49.44
15 11 4 3.25 50.53
-5 12 4 1.34 40.15
-3 12 4 0.82 1.19
-2 12 4 6.4 0.28
-1 12 4 11.07 11.27
0 12 4 9.29 7
1 12 4 10.6 3.56
4 12 4 1.38 50.53
5 12 4 3.19 2.15
6 12 4 1.39 22.95
7 12 4 4.11 4.87
8 12 4 23.65 21.79
10 12 4 11.77 4.12
11 12 4 1.33 3.16
13 12 4 2.78 22.22
14 12 4 1.19 16.14
-6 13 4 1.42 2.89
-5 13 4 2 0.15
-3 13 4 1.71 3
-2 13 4 3.85 49.44
-1 13 4 3.11 49.44
0 13 4 1.82 10.04
1 13 4 1.63 1.54
2 13 4 3.37 4.41
3 13 4 10.5 49.44
5 13 4 17.29 9.54
6 13 4 4.31 7.03
7 13 4 9.77 22.22
10 13 4 10.43 49.44
11 13 4 25.49 28.14
13 13 4 3.78 30.95
-3 14 4 1.48 10.04
-1 14 4 2.74 0.18
0 14 4 0.92 10.53
1 14 4 4.66 15.53
2 14 4 2.62 1.94
3 14 4 6.02 30.1
4 14 4 1.75 50.53
5 14 4 7.89 3.38
9 14 4 8.58 49.44
11 14 4 25.76 11.65
13 14 4 3.85 22.22
1 15 4 4.47 7.16
3 15 4 1.54 40.15
5 15 4 2.63 30.1
7 15 4 1.57 23.7
9 15 4 1.52 51.64
10 15 4 5.14 15.53
0 16 4 3.23 30.95
4 16 4 3.43 30.1
5 16 4 2.18 22.22
8 16 4 3.33 30.95
1 17 4 1.43 40.15
4 17 4 2.94 22.22
6 17 4 5.47 39.17
8 17 4 1.79 11.04
10 17 4 2.22 6.11
6 18 4 1.44 0.39
-6 -17 5 1.38 23.7
-5 -17 5 2.32 40.15
-9 -16 5 1.55 31.82
-7 -16 5 1.42 3.16
-6 -16 5 3.06 22.95
-4 -16 5 4.97 7.8
-7 -15 5 1.39 6.5
-6 -15 5 4.59 0.47
-3 -15 5 8.9 39.17
-1 -15 5 1.71 41.13
-11 -14 5 1.44 30.95
-10 -14 5 2.24 10.04
-9 -14 5 1.5 16.77
-8 -14 5 8.29 0.31
-6 -14 5 3.15 22.95
-4 -14 5 1.99 16.77
-3 -14 5 7.52 50.53
-1 -14 5 4.36 41.13
1 -14 5 4.78 30.95
5 -14 5 3.49 22.22
-11 -13 5 6.15 0.27
-10 -13 5 8.42 22.22
-9 -13 5 39.62 49.52
-6 -13 5 1.37 3.16
-5 -13 5 12.46 0.39
-4 -13 5 6.82 3.14
-3 -13 5 18.92 49.44
-2 -13 5 7.95 49.44
-1 -13 5 1.55 50.53
0 -13 5 10.18 14.3
1 -13 5 1.59 31.82
3 -13 5 4.63 30.1
5 -13 5 1.99 16.14
-12 -12 5 1.66 2.96
-11 -12 5 4.59 0.23
-10 -12 5 1.12 10.53
-9 -12 5 20.17 17.18
-8 -12 5 6.13 5.68
-7 -12 5 6.23 49.44
-6 -12 5 2.78 2.19
-5 -12 5 27.11 29.02
-3 -12 5 37.18 20.66
-2 -12 5 5.39 30.95
-1 -12 5 2.63 40.15
0 -12 5 16.57 22.68
1 -12 5 6.05 39.17
3 -12 5 34.37 32.67
4 -12 5 1.14 10.53
5 -12 5 4.29 7.01
-13 -11 5 1.44 50.53
-12 -11 5 1.37 16.14
-10 -11 5 2.06 3.3
-9 -11 5 14.54 48.36
-8 -11 5 37.05 27.27
-6 -11 5 43.42 22.32
-5 -11 5 16.21 18.48
-3 -11 5 7.55 3.3
-2 -11 5 1.88 40.15
-1 -11 5 1.97 6.11
1 -11 5 48.68 23.64
2 -11 5 14.8 13.03
3 -11 5 43.35 0.72
4 -11 5 6.07 39.17
5 -11 5 3.19 2.34
6 -11 5 9.1 10.55
7 -11 5 4.04 22.22
8 -11 5 1.99 1.85
-13 -10 5 2.51 0.17
-10 -10 5 21.67 5.6
-9 -10 5 34.11 51.7
-8 -10 5 151.26 55.1
-6 -10 5 3.62 10.53
-5 -10 5 2.13 3.51
-4 -10 5 20.81 30.41
-2 -10 5 16.84 39.17
-1 -10 5 28.03 52.65
0 -10 5 69.15 63.61
1 -10 5 1.24 30.95
4 -10 5 27 17.6
5 -10 5 2.02 22.95
6 -10 5 21.82 0.51
8 -10 5 3.53 30.1
9 -10 5 2.67 6.11
10 -10 5 1.47 6.5
-12 -9 5 1.08 6.11
-11 -9 5 8.17 15.93
-9 -9 5 18.92 28.99
-8 -9 5 37.11 7.32
-7 -9 5 72.37 10.23
-6 -9 5 5.78 30.1
-5 -9 5 177.29 1.46
-3 -9 5 1.41 16.14
-2 -9 5 246.92 89.29
-1 -9 5 22.8 16.18
0 -9 5 93.74 11.64
1 -9 5 66.63 45.49
2 -9 5 82.86 10.94
3 -9 5 10.82 7.55
4 -9 5 55.95 25.34
5 -9 5 5.37 2.78
6 -9 5 35.47 39.7
8 -9 5 12.61 8.54
9 -9 5 1.85 0.3
11 -9 5 1.78 1.75
-14 -8 5 5.67 30.1
-13 -8 5 5.55 15.53
-11 -8 5 2.91 2.05
-10 -8 5 5.7 8.09
-9 -8 5 6.57 8.68
-7 -8 5 10.46 39.17
-6 -8 5 17.33 14.1
-5 -8 5 83.75 0.1
-4 -8 5 12.81 23.86
-3 -8 5 1.1 10.53
-2 -8 5 154.78 42.14
0 -8 5 11.7 38.21
1 -8 5 140.96 79.14
2 -8 5 4.95 7.53
3 -8 5 31.98 43.26
4 -8 5 4.18 4.69
5 -8 5 3.57 10.04
6 -8 5 37.51 20.75
7 -8 5 7.76 15.53
8 -8 5 4.33 22.95
10 -8 5 9 13.44
11 -8 5 8.51 0.32
-13 -7 5 18.73 9.46
-12 -7 5 6.59 30.1
-11 -7 5 0.92 10.53
-10 -7 5 23.7 5.85
-9 -7 5 3.02 10.04
-8 -7 5 13.72 20.64
-7 -7 5 2.76 5.74
-6 -7 5 133.92 89.78
-5 -7 5 76.04 66.7
-4 -7 5 17.79 4.61
-3 -7 5 12.46 38.21
-2 -7 5 58.01 8.32
-1 -7 5 149.65 1.34
0 -7 5 44.94 29.3
1 -7 5 492.32 126.08
2 -7 5 125.58 25.72
3 -7 5 10.89 14.42
4 -7 5 36.78 20.54
5 -7 5 5.81 49.44
6 -7 5 33.04 12.56
7 -7 5 34.56 13.49
8 -7 5 2.22 6.11
9 -7 5 55.13 65.72
10 -7 5 1.21 30.95
11 -7 5 1.68 50.53
12 -7 5 3.1 39.17
-14 -6 5 3.25 4.14
-13 -6 5 4.47 49.44
-12 -6 5 39.14 55.37
-11 -6 5 4.75 10.04
-10 -6 5 49.14 8.43
-9 -6 5 13.04 16.18
-8 -6 5 8.23 9.72
-7 -6 5 95.22 10.66
-5 -6 5 14.01 48.36
-4 -6 5 14.3 16.53
-3 -6 5 20.52 48.36
-2 -6 5 16.26 13.22
-1 -6 5 18.3 48.36
0 -6 5 37.92 20.19
1 -6 5 220.54 1.62
3 -6 5 36.32 19.76
4 -6 5 42.42 7.12
5 -6 5 3.64 6.46
6 -6 5 23.22 32.12
7 -6 5 120.49 73.17
8 -6 5 93.84 86.8
9 -6 5 22.49 11.4
10 -6 5 7.7 49.44
11 -6 5 2.89 22.22
12 -6 5 24.83 1.09
-14 -5 5 36.78 13.92
-13 -5 5 4.68 22.22
-12 -5 5 12.08 18.99
-10 -5 5 12.23 19.49
-9 -5 5 65.3 35.32
-8 -5 5 22.08 5.13
-7 -5 5 109.59 68.64
-6 -5 5 8.13 15.58
-5 -5 5 11.96 3.78
-4 -5 5 184.35 105.34
-3 -5 5 27.11 39.83
-2 -5 5 22.03 35.9
-1 -5 5 171.81 30.08
0 -5 5 154.23 14.93
1 -5 5 198.4 47.72
2 -5 5 146.73 27.8
3 -5 5 2.6 0.18
4 -5 5 44.87 8.05
6 -5 5 16.44 9.3
7 -5 5 58.59 0.84
8 -5 5 8.74 13.24
9 -5 5 1.62 50.53
10 -5 5 7.23 0.29
11 -5 5 0.99 40.15
12 -5 5 12.89 20.01
13 -5 5 2.41 2.03
14 -5 5 8.07 0.31
-14 -4 5 5.14 39.17
-13 -4 5 1.73 0.14
-12 -4 5 3.45 22.22
-11 -4 5 23.91 49.44
-9 -4 5 14.3 25.2
-8 -4 5 27.51 34.39
-7 -4 5 100.3 0.11
-6 -4 5 78.54 19.37
-5 -4 5 125.82 73.54
-4 -4 5 202.27 48.18
-2 -4 5 215.21 97.79
-1 -4 5 321.75 21.56
0 -4 5 4 4.59
1 -4 5 275.16 92.44
2 -4 5 369.04 23.09
3 -4 5 6.48 38.21
4 -4 5 355.94 22.68
5 -4 5 51.15 0.78
6 -4 5 3.29 30.1
7 -4 5 142.39 1.3
8 -4 5 10.6 11.03
9 -4 5 11.22 49.44
10 -4 5 47.85 46.11
11 -4 5 12.3 49.44
12 -4 5 2.92 10.04
13 -4 5 14.09 20.92
-14 -3 5 1.55 5.74
-13 -3 5 7.98 48.36
-12 -3 5 1.27 49.44
-11 -3 5 86.48 41.66
-10 -3 5 36.38 0.07
-8 -3 5 63.11 61.64
-7 -3 5 7.58 15.05
-6 -3 5 48.99 22.94
-5 -3 5 4.97 9.74
-4 -3 5 21.82 15.31
-3 -3 5 5.07 7.38
-1 -3 5 47.77 37.76
1 -3 5 26.72 22.59
2 -3 5 234.04 1.67
4 -3 5 478.6 50.2
5 -3 5 33.29 56.74
6 -3 5 188.52 61.52
7 -3 5 53.92 65
8 -3 5 1.29 6.11
9 -3 5 38.8 34.71
10 -3 5 21.06 35.61
11 -3 5 13.12 50.53
12 -3 5 8.39 16.14
13 -3 5 20.61 5.95
-13 -2 5 4.68 30.1
-12 -2 5 53.04 0.8
-11 -2 5 13.89 4.48
-10 -2 5 62.94 0.87
-9 -2 5 2.85 15.53
-8 -2 5 39.41 0.07
-7 -2 5 5.81 38.21
-6 -2 5 115.97 82.38
-5 -2 5 358.42 146.88
-4 -2 5 457.79 72.48
-3 -2 5 243.5 69.91
-2 -2 5 1.15 30.1
-1 -2 5 15.86 21.76
0 -2 5 223.63 99.68
1 -2 5 101.62 0.11
2 -2 5 376 171.63
3 -2 5 2.06 3.3
4 -2 5 10.36 17.58
5 -2 5 120.61 25.2
6 -2 5 3.93 4.55
7 -2 5 143.57 40.59
8 -2 5 47.85 0.08
9 -2 5 44.14 51.55
10 -2 5 68.25 82.15
12 -2 5 26.43 17.42
-14 -1 5 2.67 3.93
-13 -1 5 1.51 2.96
-12 -1 5 2.06 22.22
-11 -1 5 1.65 22.22
-10 -1 5 7.05 39.17
-9 -1 5 60.62 51.9
-7 -1 5 16.39 13.27
-6 -1 5 115.74 70.54
-5 -1 5 120.37 25.18
-4 -1 5 1229.26 126.43
-2 -1 5 27.86 51.91
-1 -1 5 128.91 24.81
0 -1 5 404.93 68.17
1 -1 5 4.9 2.42
2 -1 5 367.79 85.92
3 -1 5 18.73 18.91
4 -1 5 25.16 43.85
5 -1 5 278.43 92.99
6 -1 5 34.56 38.55
7 -1 5 83.75 40
8 -1 5 130.15 37.4
9 -1 5 24.61 33.07
10 -1 5 125.82 62.51
11 -1 5 3.57 39.17
12 -1 5 45.75 15.52
15 -1 5 4.11 15.53
-13 0 5 1.01 1.32
-12 0 5 3.31 39.17
-11 0 5 7.58 3.01
-10 0 5 42.92 57.27
-9 0 5 35.14 6.48
-8 0 5 4.82 5.04
-7 0 5 1.5 1.47
-6 0 5 22.96 20.94
-4 0 5 36.72 33.11
-3 0 5 156.82 124.53
-2 0 5 243.84 1.71
-1 0 5 2198.66 425.28
0 0 5 43.92 0.07
1 0 5 22.86 0.05
2 0 5 1329.7 207.21
3 0 5 11.33 0.04
4 0 5 206.8 127.29
5 0 5 4.22 4.71
6 0 5 101.07 54.93
7 0 5 18.3 23.37
8 0 5 271.19 1.8
9 0 5 2.55 1.92
10 0 5 9.9 3.78
11 0 5 31.12 31.09
13 0 5 35.92 7.2
15 0 5 9.1 7.25
-13 1 5 3.66 0.21
-12 1 5 6.1 2.97
-11 1 5 9.63 3.73
-10 1 5 13.44 24.04
-9 1 5 31.61 6.76
-8 1 5 44.65 29.21
-7 1 5 5.04 14.93
-6 1 5 0.59 40.15
-5 1 5 74.71 47.23
-4 1 5 382.82 44.9
-3 1 5 1414.69 12.33
-2 1 5 5.17 2.48
-1 1 5 651.33 142.23
1 1 5 20.66 9.93
2 1 5 1204.49 197.21
3 1 5 30.88 0.06
4 1 5 8.77 3.24
5 1 5 663.38 258.93
6 1 5 1.62 30.1
7 1 5 75.66 85.55
8 1 5 75.57 9.5
9 1 5 38.93 54.55
10 1 5 31.73 7.39
11 1 5 160.26 29.05
12 1 5 0.91 16.14
13 1 5 25.21 27.98
14 1 5 14.88 39.17
16 1 5 3.83 6.63
-13 2 5 3.89 39.17
-11 2 5 13.68 49.44
-10 2 5 1.71 3
-9 2 5 37.98 20.88
-8 2 5 2.92 39.17
-6 2 5 36.32 52.68
-5 2 5 43.2 28.73
-4 2 5 6.91 48.36
-3 2 5 26.27 39.2
-2 2 5 28.67 5.85
-1 2 5 183.9 75.58
0 2 5 447.1 48.52
1 2 5 41.36 0.07
2 2 5 146.46 0.13
3 2 5 1256.62 278.9
4 2 5 2.63 39.17
5 2 5 1551 314.16
6 2 5 696.14 149.92
7 2 5 8.04 49.44
8 2 5 3.76 15.53
9 2 5 2.83 15.53
10 2 5 64.68 26.37
11 2 5 35.27 52.57
12 2 5 19.73 49.44
13 2 5 7.46 22.22
14 2 5 16.93 39.17
15 2 5 1.73 3.17
16 2 5 16.79 31.79
-11 3 5 4.09 0.22
-10 3 5 3.06 4.01
-8 3 5 27.45 40.65
-7 3 5 28.96 41.17
-6 3 5 145.54 40.87
-5 3 5 8.04 29.26
-4 3 5 4.29 14.93
-3 3 5 10.04 3.46
-2 3 5 199.17 78.65
-1 3 5 32.54 31.17
0 3 5 512.9 2.47
1 3 5 236.73 52.12
2 3 5 41.36 35.14
3 3 5 1296.44 7.87
5 3 5 0.98 30.95
6 3 5 148.72 107.94
7 3 5 52.41 31.64
8 3 5 131.02 88.81
10 3 5 2.37 39.17
11 3 5 83.75 80
12 3 5 32.98 38.28
13 3 5 1.52 6.11
16 3 5 8.51 49.44
-11 4 5 8.9 30.1
-10 4 5 27.34 40.57
-9 4 5 2.94 22.22
-8 4 5 45.53 8.11
-7 4 5 14.3 21.07
-6 4 5 51.15 47.67
-5 4 5 42.2 0.07
-4 4 5 7.92 29.26
-3 4 5 124.36 62.15
-2 4 5 2.16 1.77
-1 4 5 23.38 5.28
0 4 5 381.75 194.29
1 4 5 3.23 4.13
2 4 5 218.92 98.63
3 4 5 22.34 48.36
4 4 5 255.23 71.58
5 4 5 2.78 22.22
6 4 5 1678.76 286.55
7 4 5 104.5 33.51
8 4 5 205.23 64.18
9 4 5 17.33 22.75
10 4 5 1.37 30.1
11 4 5 66.01 79.9
13 4 5 3.66 49.44
14 4 5 20.42 40.49
16 4 5 1.72 3.15
-10 5 5 8.26 0.31
-9 5 5 2.63 40.15
-8 5 5 4.75 30.1
-7 5 5 16.35 4.86
-5 5 5 1.63 49.44
-4 5 5 89.04 20.62
-3 5 5 3.96 6.52
-2 5 5 89.24 51.62
0 5 5 66.1 26.65
1 5 5 25.27 43.94
3 5 5 11.4 18.45
4 5 5 17.11 0.05
5 5 5 92.47 63.05
6 5 5 175.99 1.45
7 5 5 106.75 0.11
8 5 5 32.48 43.59
9 5 5 12.85 39.17
10 5 5 1.04 6.11
11 5 5 3.87 0.21
12 5 5 119.53 48.98
13 5 5 17.93 0.46
14 5 5 53.28 72.59
15 5 5 10.78 18.3
16 5 5 7.49 22.22
-11 6 5 9.67 0.34
-10 6 5 2.44 10.04
-9 6 5 4.59 5.15
-8 6 5 4.06 22.22
-7 6 5 17.38 32.34
-6 6 5 3.39 0.2
-5 6 5 25.43 5.51
-4 6 5 148.85 107.99
-3 6 5 23.86 5.34
-2 6 5 181.1 75
-1 6 5 26.32 50.46
0 6 5 63.55 52.27
1 6 5 73.49 56.21
2 6 5 59.1 58.8
3 6 5 112.58 59.13
4 6 5 23.7 10.64
6 6 5 15.73 13.44
7 6 5 36.58 46.27
8 6 5 9.46 3.7
9 6 5 88.62 73.04
10 6 5 12.85 16.06
11 6 5 24.07 27.34
12 6 5 35.27 52.57
13 6 5 72.84 38.24
15 6 5 1.09 41.13
16 6 5 5.34 5.56
-9 7 5 2.42 0.34
-8 7 5 2.78 22.22
-7 7 5 3.17 15.53
-6 7 5 1.37 50.53
-5 7 5 33.61 32.31
-4 7 5 9 39.17
-2 7 5 16.61 48.36
-1 7 5 46.05 14.83
0 7 5 65.65 0.09
1 7 5 88.93 61.83
2 7 5 10.78 29.26
3 7 5 157.37 15.08
4 7 5 33.86 57.23
5 7 5 3.45 30.1
6 7 5 57.6 33.17
7 7 5 83.16 39.86
8 7 5 13.52 4.02
9 7 5 86.38 61.95
10 7 5 3.96 39.17
11 7 5 20.66 10.93
13 7 5 5.57 5.42
15 7 5 9.87 22.22
16 7 5 22.49 0.05
-10 8 5 2.56 10.04
-6 8 5 10.96 3.98
-5 8 5 9.87 21.49
-4 8 5 2.89 49.44
-3 8 5 24.88 6
-2 8 5 4.02 4.6
-1 8 5 67.98 27.93
0 8 5 11.51 48.36
1 8 5 120.73 49.23
2 8 5 22.6 41.55
3 8 5 18.68 23.61
4 8 5 1.29 22.22
5 8 5 34.76 19.33
6 8 5 74.24 9.42
7 8 5 21.42 48.36
8 8 5 6.59 3.09
9 8 5 46.57 23.12
10 8 5 36.58 0.66
11 8 5 1.68 1.7
12 8 5 19.78 29.65
13 8 5 17.47 39.17
14 8 5 17.61 27.97
15 8 5 7.52 9.29
16 8 5 26.38 0.06
-7 9 5 5.99 22.22
-6 9 5 14.13 12.73
-5 9 5 21.87 15.84
-4 9 5 5.19 30.1
-3 9 5 1.11 10.04
-2 9 5 13.48 16.45
-1 9 5 7.17 0.29
0 9 5 2.65 3.74
1 9 5 74.43 84.85
3 9 5 3.51 2.25
4 9 5 24.61 10.84
5 9 5 2.56 10.04
6 9 5 46.72 8.22
7 9 5 16.08 9.2
8 9 5 7.17 9.07
9 9 5 29.32 30.18
11 9 5 6.85 30.1
12 9 5 67.8 46.79
13 9 5 11.33 22.43
14 9 5 23.12 6.3
15 9 5 6.71 49.44
-7 10 5 2.55 3.84
-4 10 5 5.62 2.85
-1 10 5 1.23 15.53
0 10 5 78.44 20.32
1 10 5 57.76 58.97
2 10 5 27.74 0.58
3 10 5 12.04 0.04
4 10 5 20.96 25.02
6 10 5 3.33 30.1
7 10 5 14.34 30.1
8 10 5 28.38 52.97
10 10 5 3.83 6.63
11 10 5 3.87 30.1
12 10 5 12.69 4.28
15 10 5 11.4 19.19
16 10 5 1.32 0.25
-6 11 5 1.66 3.1
-5 11 5 1.97 30.1
-4 11 5 12.54 49.44
-2 11 5 1.01 30.95
-1 11 5 6.65 3.1
0 11 5 1.73 0.14
1 11 5 5.19 7.72
2 11 5 12.54 39.17
3 11 5 8.77 16.5
4 11 5 47.09 68.24
5 11 5 1.41 30.95
6 11 5 9.2 30.1
7 11 5 48.53 23.6
8 11 5 11.07 50.53
9 11 5 22.03 2.05
10 11 5 2.74 3.98
11 11 5 8.32 3.47
12 11 5 5.52 15.53
14 11 5 1.78 16.77
15 11 5 2.62 6.11
-6 12 5 2.41 39.17
-4 12 5 2.94 15.53
-3 12 5 1.11 10.53
-2 12 5 10.96 22.22
0 12 5 9.53 17.2
1 12 5 13.48 4.41
2 12 5 19.78 29.65
3 12 5 1.72 3.15
4 12 5 31.92 24.69
6 12 5 3.1 15.53
7 12 5 49.06 0.77
8 12 5 6.91 12.06
9 12 5 17.29 0.45
10 12 5 22.49 21.25
11 12 5 8.13 9.66
13 12 5 3.06 49.44
-3 13 5 0.95 22.95
0 13 5 4.11 2.44
2 13 5 3.17 39.17
3 13 5 2.03 30.1
6 13 5 1.11 50.53
7 13 5 1.37 16.14
8 13 5 3.55 0.62
9 13 5 5.78 22.22
10 13 5 49.06 54.34
11 13 5 4.38 50.53
12 13 5 3.45 2.23
13 13 5 1.66 10.53
-3 14 5 0.85 1.21
-2 14 5 1.52 5.74
-1 14 5 6.57 15.53
0 14 5 3.06 5.92
1 14 5 5.62 10.62
5 14 5 2.72 39.17
8 14 5 8.17 16.24
10 14 5 4.8 5.27
13 14 5 1.72 11.04
14 14 5 1.29 41.13
-1 15 5 1.01 30.95
2 15 5 1.33 2.89
3 15 5 2.02 22.95
4 15 5 1.44 2.89
5 15 5 4.66 22.22
7 15 5 4.87 22.95
10 15 5 2.69 16.14
11 15 5 10.01 3.8
1 16 5 2.31 3.49
2 16 5 1.17 2.89
3 16 5 1.72 10.53
5 16 5 1.41 16.14
9 16 5 2.31 10.53
11 16 5 6.02 8.58
5 17 5 1.03 16.14
8 17 5 2.14 0.32
-7 -16 6 1.73 31.82
-9 -15 6 5.09 49.44
-6 -15 6 4.18 4.91
-5 -15 6 3.8 4.69
-4 -15 6 19.35 30.28
-9 -14 6 3.19 22.22
-8 -14 6 1.76 6.5
-6 -14 6 10.29 8.06
-4 -14 6 14.59 30.1
-3 -14 6 2.85 31.82
-1 -14 6 3.17 40.15
1 -14 6 2.36 2.01
2 -14 6 18.4 12.65
-9 -13 6 0.99 16.14
-6 -13 6 3.85 10.53
-5 -13 6 1.62 51.64
-3 -13 6 18.73 39.17
-2 -13 6 4.87 0.48
-1 -13 6 9.94 22.95
2 -13 6 9.1 17.14
4 -13 6 2.63 30.95
-12 -12 6 2 3.25
-11 -12 6 5.52 30.1
-10 -12 6 3.62 2.29
-9 -12 6 10.18 22.22
-8 -12 6 11.33 7.72
-7 -12 6 2.91 10.53
-6 -12 6 4.38 40.15
-4 -12 6 3.35 2.4
-3 -12 6 21.57 5.58
-1 -12 6 7.49 30.1
0 -12 6 3.33 16.14
1 -12 6 7.17 1.17
3 -12 6 5.04 7.85
5 -12 6 8.64 10.28
8 -12 6 4.78 49.44
-11 -11 6 14.54 39.17
-10 -11 6 4.9 22.22
-9 -11 6 82.96 60.71
-7 -11 6 4.33 2.73
-5 -11 6 21.06 11.54
-3 -11 6 55.46 57.78
-2 -11 6 4.63 30.95
-1 -11 6 14.46 39.17
0 -11 6 28.32 41.29
1 -11 6 5.42 10.43
2 -11 6 2.8 6.11
3 -11 6 14.38 13.26
4 -11 6 9.03 3.61
5 -11 6 10.18 0.35
6 -11 6 2.27 50.53
7 -11 6 3.04 2.29
-12 -10 6 1.35 6.11
-11 -10 6 3.06 5.92
-9 -10 6 20.07 10.28
-8 -10 6 10.53 10.99
-7 -10 6 12.19 0.76
-6 -10 6 12.04 30.1
-5 -10 6 31.24 43.37
-4 -10 6 4.99 0.24
-3 -10 6 52.49 72.04
-2 -10 6 1.41 51.64
-1 -10 6 5.24 7.76
0 -10 6 29.67 18.45
1 -10 6 3.17 40.15
2 -10 6 7.98 22.22
3 -10 6 35.53 52.76
4 -10 6 10.6 30.1
5 -10 6 4.99 15.53
7 -10 6 2.08 22.95
9 -10 6 1.96 30.95
-13 -9 6 0.79 1.17
-10 -9 6 4.24 0.45
-9 -9 6 17.24 32.22
-8 -9 6 92.05 42.99
-6 -9 6 111.54 105.02
-5 -9 6 21.67 15.77
-4 -9 6 2.36 2.01
-3 -9 6 24.29 11.31
-2 -9 6 1.43 16.77
0 -9 6 25.82 17.21
1 -9 6 88.42 31.85
2 -9 6 42.13 7.8
3 -9 6 116.8 83.85
4 -9 6 4.61 7.51
5 -9 6 13.68 49.44
6 -9 6 36.32 40.17
7 -9 6 7.05 49.44
8 -9 6 11.25 4.03
-13 -8 6 1.44 30.1
-11 -8 6 1.01 30.95
-10 -8 6 22.18 49.44
-9 -8 6 15.86 22.2
-8 -8 6 223.47 99.65
-7 -8 6 13.76 8.51
-6 -8 6 12.23 0.38
-4 -8 6 12.34 0.38
-3 -8 6 13.84 20.74
-2 -8 6 13.24 24.26
-1 -8 6 1.82 0.15
0 -8 6 145.14 40.81
1 -8 6 36.52 39.62
2 -8 6 9.13 6.6
4 -8 6 21.72 40.74
5 -8 6 39.69 55.76
6 -8 6 51.54 16.48
7 -8 6 20.52 25.74
8 -8 6 26.32 22.99
9 -8 6 2.21 0.32
10 -8 6 11.62 11.55
-12 -7 6 3.64 10.04
-11 -7 6 13.04 12.23
-10 -7 6 0.9 50.53
-9 -7 6 8.64 48.36
-8 -7 6 34.18 45.36
-7 -7 6 84.56 91.44
-6 -7 6 1.37 30.95
-5 -7 6 302.07 58.88
-3 -7 6 3.23 30.1
-2 -7 6 357.59 126.05
-1 -7 6 48.76 15.26
0 -7 6 90.17 62.26
1 -7 6 137.35 116.54
2 -7 6 200.41 32.49
3 -7 6 12.42 3.85
4 -7 6 82.16 90.14
5 -7 6 8.17 6.56
6 -7 6 27.86 23.65
8 -7 6 10.01 30.95
9 -7 6 1.78 50.53
10 -7 6 2.36 22.22
11 -7 6 2.41 10.53
12 -7 6 1.44 16.14
-13 -6 6 11.4 11.07
-11 -6 6 16.3 9.27
-10 -6 6 5.14 39.17
-8 -6 6 2.21 10.04
-7 -6 6 29.08 41.84
-5 -6 6 235.38 152.56
-4 -6 6 8.9 3.26
-3 -6 6 64.86 8.8
-2 -6 6 355.53 187.5
-1 -6 6 5.52 5.39
0 -6 6 71.91 28.73
1 -6 6 434.02 4.55
2 -6 6 54.57 57.31
3 -6 6 191.99 1.51
4 -6 6 4.04 22.22
6 -6 6 112.01 1.16
7 -6 6 3.39 49.44
8 -6 6 2.34 30.95
9 -6 6 14.5 4.58
10 -6 6 18.21 19.58
11 -6 6 25.88 12.23
12 -6 6 2.46 30.95
13 -6 6 6.74 30.1
-13 -5 6 19.25 24.93
-12 -5 6 1.07 16.14
-11 -5 6 1.93 3.18
-10 -5 6 8.54 30.1
-9 -5 6 5.57 22.22
-8 -5 6 13.48 8.43
-6 -5 6 80.49 40.19
-5 -5 6 69.06 54.49
-2 -5 6 22.96 15.71
-1 -5 6 118.1 96.19
0 -5 6 172.38 116.21
1 -5 6 677.24 176.31
2 -5 6 640.22 143.78
3 -5 6 22.44 31.06
4 -5 6 6.85 8.58
5 -5 6 8.67 49.44
6 -5 6 52.97 8.75
7 -5 6 14.8 25.22
8 -5 6 3.43 0.2
9 -5 6 86.88 72.32
10 -5 6 4.87 22.22
11 -5 6 6.94 22.22
12 -5 6 2.24 40.15
14 -5 6 1.39 41.13
-13 -4 6 7.76 15.53
-12 -4 6 33.29 44.76
-11 -4 6 4.97 15.53
-10 -4 6 65.21 18.53
-9 -4 6 24.5 38.41
-8 -4 6 25.99 33.98
-7 -4 6 147.79 120.89
-5 -4 6 18.77 14.2
-4 -4 6 28.55 17.52
-3 -4 6 117.74 24.9
-2 -4 6 45.38 22.08
-1 -4 6 99.1 33.72
0 -4 6 48.22 37.94
1 -4 6 271.01 127.72
2 -4 6 3.41 39.17
3 -4 6 29.67 17.86
4 -4 6 107.77 68.06
5 -4 6 3.15 49.44
6 -4 6 34.88 58.73
7 -4 6 198.56 93.93
8 -4 6 201.18 48.05
9 -4 6 18.07 39.17
10 -4 6 16.7 13.84
11 -4 6 16.97 18.01
12 -4 6 43.2 37.35
13 -4 6 2.1 50.53
14 -4 6 11.29 41.13
-13 -3 6 6.37 8.55
-12 -3 6 4.95 22.22
-11 -3 6 1.03 40.15
-10 -3 6 28.15 52.76
-9 -3 6 29.44 36.17
-8 -3 6 101.73 33.06
-7 -3 6 93.63 84.59
-6 -3 6 9.84 17.14
-5 -3 6 71.17 73.75
-4 -3 6 201.34 125.59
-3 -3 6 6.96 0.29
-2 -3 6 217.95 66.14
-1 -3 6 113.17 12.79
0 -3 6 51.23 39.11
1 -3 6 464.12 143.6
2 -3 6 163.88 29.38
3 -3 6 101.18 32.98
4 -3 6 154.1 96.31
5 -3 6 15.56 8.62
6 -3 6 14.84 38.21
7 -3 6 80.59 40.22
8 -3 6 71.26 47.04
10 -3 6 20.07 15.67
11 -3 6 5.14 15.53
12 -3 6 44.87 59.29
14 -3 6 30.21 18.62
-12 -2 6 1.39 22.22
-11 -2 6 27.34 0.57
-10 -2 6 1.18 0.24
-9 -2 6 3.33 10.04
-8 -2 6 36.85 7.3
-7 -2 6 51.7 63.64
-6 -2 6 74.15 84.69
-5 -2 6 105.4 11.22
-4 -2 6 122.78 48.43
-3 -2 6 39.07 20.49
-2 -2 6 165.84 85.84
-1 -2 6 46.5 7.45
0 -2 6 67.44 71.79
1 -2 6 83.06 59.75
2 -2 6 261.03 143
3 -2 6 6.05 21.49
4 -2 6 295.27 133.32
5 -2 6 12.89 12.16
6 -2 6 2.56 22.22
7 -2 6 66.99 63.5
8 -2 6 8.83 38.21
9 -2 6 16.04 31.07
10 -2 6 39.27 41.77
11 -2 6 54.73 33.95
12 -2 6 12.42 8.09
13 -2 6 6.37 11.31
15 -2 6 3.15 23.7
-13 -1 6 1.25 2.89
-12 -1 6 7.64 3.63
-11 -1 6 37.45 6.69
-10 -1 6 51.54 24.32
-9 -1 6 1.41 0.13
-8 -1 6 44.07 21.76
-7 -1 6 51.78 7.86
-6 -1 6 83.75 30
-5 -1 6 2.67 30.1
-4 -1 6 146.86 94.02
-3 -1 6 5.19 0.25
-2 -1 6 21.77 20.4
-1 -1 6 131.02 12.51
0 -1 6 14.88 4.22
1 -1 6 193.81 1.52
2 -1 6 407.58 2.21
3 -1 6 21.67 25.43
4 -1 6 939.52 241.16
5 -1 6 64.77 43.97
6 -1 6 236.73 153
7 -1 6 152.74 0.14
8 -1 6 14.34 12.41
9 -1 6 94.8 43.62
10 -1 6 49.06 39.04
11 -1 6 15.65 8.65
12 -1 6 11.22 30.1
13 -1 6 37.65 41.57
14 -1 6 3.64 2.29
15 -1 6 5.12 16.14
-12 0 6 24.23 11.3
-10 0 6 42.99 21.49
-8 0 6 3.13 39.17
-7 0 6 6.23 10.91
-6 0 6 30.03 41.92
-5 0 6 93.84 10.59
-4 0 6 319.21 60.52
-3 0 6 29.91 29.88
-2 0 6 26.32 5.61
-1 0 6 47.17 30.02
0 0 6 11.18 38.21
1 0 6 13.28 11.95
2 0 6 115.15 46.9
3 0 6 162.48 43.18
4 0 6 14.63 25.08
5 0 6 4.68 4.97
6 0 6 30.75 54.54
7 0 6 236.89 1.68
9 0 6 192.14 137.84
10 0 6 58.18 0.83
11 0 6 17.2 5.44
12 0 6 75.47 86.39
14 0 6 5.96 49.44
16 0 6 15.86 56.18
-12 1 6 1.29 1.49
-10 1 6 10.25 10.85
-9 1 6 59.43 42.96
-7 1 6 11.89 4.14
-6 1 6 61.64 68.64
-5 1 6 94.9 85.16
-4 1 6 617.21 2.71
-3 1 6 9.56 10.14
-2 1 6 2.94 22.22
-1 1 6 117.03 47.29
0 1 6 198.4 1.54
1 1 6 2.76 5.74
2 1 6 322.93 41.24
3 1 6 47.24 67.6
4 1 6 68.61 54.31
5 1 6 348.55 104.05
6 1 6 48 68.89
7 1 6 65.39 35.35
8 1 6 60.03 8.47
9 1 6 16 30.59
10 1 6 78.06 78.2
11 1 6 9.23 16.93
12 1 6 50.22 61.95
13 1 6 1.35 1.53
14 1 6 5.02 0.24
15 1 6 3.1 16.14
-11 2 6 7.14 22.22
-10 2 6 5.02 15.53
-9 2 6 62.68 9.52
-8 2 6 1.38 2.7
-7 2 6 15.22 4.26
-6 2 6 22.54 25.94
-5 2 6 11.22 10.98
-4 2 6 1.87 22.22
-3 2 6 165.7 126.6
-2 2 6 10.71 0.04
-1 2 6 1561.34 228.85
0 2 6 22.6 10.39
1 2 6 109.02 45.64
2 2 6 1134.61 7.36
4 2 6 528.36 102.98
5 2 6 74.71 37.78
6 2 6 6.43 0.28
8 2 6 332.42 141.46
10 2 6 61.82 18.9
11 2 6 49.6 46.95
12 2 6 1.46 22.95
13 2 6 65.04 53.76
14 2 6 3.43 10.04
15 2 6 16.21 39.17
-12 3 6 1.54 10.53
-11 3 6 3.37 30.1
-10 3 6 2.41 1.87
-9 3 6 5.42 39.17
-8 3 6 8.87 3.58
-7 3 6 1.79 10.04
-6 3 6 5.19 0.02
-5 3 6 15.65 4.32
-4 3 6 184.94 16.35
-3 3 6 572.7 28.77
-2 3 6 15.26 29.88
-1 3 6 198.86 94
0 3 6 27.06 28.42
1 3 6 1.01 30.1
2 3 6 388.83 131.44
3 3 6 38.86 6.81
4 3 6 95.54 74.77
5 3 6 222.49 132.03
6 3 6 87.7 30.7
7 3 6 49.22 46
8 3 6 23.81 15.99
9 3 6 2.34 3.51
10 3 6 39.41 55.57
11 3 6 88.52 62.72
12 3 6 15.86 30.9
13 3 6 23.01 37.22
14 3 6 3.66 50.53
15 3 6 2.18 49.44
16 3 6 7.05 6.09
-11 4 6 8.26 22.22
-10 4 6 0.94 16.14
-9 4 6 21.21 25.17
-8 4 6 11.59 4.09
-6 4 6 54 16.06
-5 4 6 51.86 48
-4 4 6 17.2 4.98
-3 4 6 45.61 44.28
-2 4 6 30.63 48.38
-1 4 6 50.3 0.08
0 4 6 429.26 24.9
1 4 6 31.92 37.04
2 4 6 1.82 22.22
3 4 6 675.53 201.65
4 4 6 2.72 30.1
5 4 6 1052.6 148.9
6 4 6 411.56 157.4
7 4 6 3.76 15.53
8 4 6 4.73 10.04
9 4 6 2.19 1.78
10 4 6 50.37 16.29
11 4 6 20.96 25.52
12 4 6 17.38 27.79
13 4 6 1.24 30.95
14 4 6 28.2 23.79
15 4 6 2.02 22.95
16 4 6 21.01 25.55
-9 5 6 0.77 22.95
-8 5 6 6.32 5.77
-6 5 6 105.29 68.4
-5 5 6 4.2 10.04
-4 5 6 43.71 50.57
-2 5 6 46.5 22.35
-1 5 6 12.27 7.65
0 5 6 262.09 90.22
2 5 6 14.63 20.9
3 5 6 424.97 2.25
4 5 6 29.85 53.73
5 5 6 28.32 40.71
6 5 6 91.84 11.52
7 5 6 3.31 6.16
8 5 6 162.07 126.59
9 5 6 17.65 5.05
10 5 6 3.08 22.22
11 5 6 52.25 16.59
12 5 6 45.46 52.31
13 5 6 5.34 10.35
15 5 6 1.72 3.15
16 5 6 9 49.44
-10 6 6 17.42 0.46
-9 6 6 2.18 49.44
-8 6 6 19.59 10.16
-7 6 6 5.22 49.44
-6 6 6 10.53 39.17
-5 6 6 6.43 8.31
-3 6 6 36.12 6.57
-2 6 6 1.38 10.04
-1 6 6 8.64 9.64
0 6 6 70.52 45.88
1 6 6 10.15 38.21
2 6 6 32.35 0.06
3 6 6 4.02 30.1
4 6 6 130.9 38.76
6 6 6 867.6 167.37
7 6 6 150.06 14.72
8 6 6 81.96 60.35
11 6 6 35.4 7.15
14 6 6 4.18 30.1
-10 7 6 3.08 10.04
-8 7 6 7.02 39.17
-7 7 6 3.49 2.25
-6 7 6 2.41 10.04
-5 7 6 10.11 14.25
-4 7 6 28.79 11.73
-3 7 6 39.41 21.27
-2 7 6 54.49 24.2
-1 7 6 12.54 29.26
0 7 6 73.58 46.87
1 7 6 2.11 15.53
2 7 6 3.35 22.22
3 7 6 47.77 7.55
4 7 6 17.61 0.05
5 7 6 115.62 35.25
6 7 6 102.17 66.27
7 7 6 64.6 17.57
8 7 6 23.97 21.4
9 7 6 28.03 41.08
10 7 6 3.29 2.18
11 7 6 15.01 49.44
12 7 6 89.76 94.21
13 7 6 32.48 31.76
14 7 6 36.45 40.24
15 7 6 10.08 17.69
16 7 6 6.34 5.78
-7 8 6 1.08 16.14
-5 8 6 4.8 2.63
-4 8 6 21.01 20.54
-3 8 6 18.44 19.24
-2 8 6 23.33 37.47
0 8 6 26.55 5.63
1 8 6 7.29 38.21
3 8 6 57.68 66.39
4 8 6 8.32 29.26
5 8 6 9.06 16.45
6 8 6 0.9 50.53
7 8 6 5.86 15.53
8 8 6 14.96 30.1
9 8 6 40.03 62.92
10 8 6 33.29 51.07
11 8 6 23.22 32.12
12 8 6 7.05 6.38
13 8 6 75.09 29.35
15 8 6 1.84 10.53
-9 9 6 2.08 10.53
-8 9 6 1.5 1.6
-7 9 6 4.4 7.11
-5 9 6 18.3 23.84
-4 9 6 3.68 49.44
-3 9 6 1.52 30.1
-2 9 6 5.62 8.03
-1 9 6 38.93 55.23
0 9 6 27.91 52.54
1 9 6 47.92 60.52
2 9 6 3.37 30.1
3 9 6 58.26 16.68
4 9 6 9.2 29.26
5 9 6 5.04 7.61
6 9 6 23.81 5.33
7 9 6 42.99 28.66
8 9 6 9.6 3.72
9 9 6 33.54 25.95
10 9 6 5.89 15.53
11 9 6 4.4 30.1
12 9 6 2.32 2
15 9 6 6.21 8.44
16 9 6 22.18 26.25
-5 10 6 7.05 49.44
-4 10 6 4.61 22.22
-3 10 6 2.91 10.04
-2 10 6 6.4 49.44
-1 10 6 12.19 8.01
0 10 6 22.91 10.98
1 10 6 50.3 55.02
2 10 6 29.73 12.51
3 10 6 20.76 30.37
5 10 6 4.63 39.17
6 10 6 79.7 79.02
7 10 6 2.72 39.17
8 10 6 2.72 30.95
9 10 6 22.44 26.4
10 10 6 9.84 40.15
11 10 6 2.24 39.17
12 10 6 18.96 49.44
13 10 6 7.95 0.31
14 10 6 24.72 38.58
15 10 6 3.1 15.53
16 10 6 23.38 11.1
-6 11 6 3.51 49.44
-5 11 6 3.39 22.22
-2 11 6 1.35 1.4
0 11 6 2.27 10.04
1 11 6 11.22 3.66
2 11 6 2.51 15.53
4 11 6 5.12 30.1
6 11 6 22.75 49.44
8 11 6 6.62 49.44
9 11 6 5.78 22.22
11 11 6 1.88 22.95
12 11 6 34.56 52.04
14 11 6 16.39 26.99
-4 12 6 5.6 2.84
-3 12 6 1.19 16.14
-2 12 6 1.25 50.53
0 12 6 20.91 40.48
1 12 6 21.93 0.51
2 12 6 15.73 9.1
3 12 6 7.95 6.47
4 12 6 14.88 39.17
5 12 6 1.71 0.29
7 12 6 9 30.1
8 12 6 8.2 30.95
10 12 6 1.88 41.13
12 12 6 6.1 11.06
15 12 6 6.62 15.53
-4 13 6 2.58 39.17
-2 13 6 1.07 2.89
1 13 6 2.62 5.74
2 13 6 1.42 22.95
4 13 6 10.5 11.33
6 13 6 2.63 30.1
7 13 6 20.76 15.44
9 13 6 16.35 18.11
11 13 6 11.7 11.96
12 13 6 3.83 4.49
-2 14 6 1.65 39.17
0 14 6 2.32 39.17
1 14 6 5.29 30.1
2 14 6 4.31 7.03
4 14 6 5.47 0.26
6 14 6 1.19 2.89
7 14 6 13.56 20.52
9 14 6 7.67 22.22
10 14 6 4.8 10.53
11 14 6 6.48 5.84
13 14 6 1.24 31.82
0 15 6 0.98 1.3
1 15 6 1.03 0.22
2 15 6 1.27 22.95
3 15 6 0.97 6.11
6 15 6 1.27 50.53
9 15 6 1.54 11.04
10 15 6 17.98 15.29
12 15 6 2.76 39.17
1 16 6 1.84 10.53
10 16 6 2 11.04
3 17 6 1.19 16.14
4 17 6 0.98 1.3
7 17 6 1.59 16.77
-7 -16 7 4.22 33.58
-6 -16 7 1.5 31.82
-7 -15 7 1.82 23.7
-5 -15 7 1.79 41.13
-4 -15 7 1.88 3.45
-10 -14 7 7.76 12.79
-7 -14 7 2.62 2.12
-6 -14 7 2.55 30.95
-5 -14 7 1.9 0.45
-4 -14 7 6.74 3.12
-3 -14 7 13.76 17.84
-1 -14 7 1.65 23.7
4 -14 7 2.92 0.37
-9 -13 7 10.22 0.35
-7 -13 7 3.51 2.46
-6 -13 7 10.39 42.13
-4 -13 7 52.65 57.09
-2 -13 7 10.25 2.8
3 -13 7 10.82 1.44
7 -13 7 9.3 35.4
-11 -12 7 1.65 40.15
-9 -12 7 4.2 4.7
-8 -12 7 3.98 50.53
-6 -12 7 13.44 0.4
-4 -12 7 27.86 18.46
-3 -12 7 3.93 6.94
-2 -12 7 10.5 14.52
-1 -12 7 7.86 22.95
2 -12 7 20.17 18.16
3 -12 7 2.22 2.12
6 -12 7 2.22 6.11
-12 -11 7 6.79 50.53
-10 -11 7 3.43 2.23
-6 -11 7 4.47 22.95
-5 -11 7 2.24 0.33
-3 -11 7 61.13 44.43
-2 -11 7 10.71 11.09
-1 -11 7 46.94 38.18
2 -11 7 29.85 18.51
4 -11 7 8.54 30.1
5 -11 7 4.45 2.77
6 -11 7 2.51 6.11
7 -11 7 1.28 1.61
8 -11 7 15.22 26.43
-12 -10 7 6.65 50.53
-11 -10 7 7.58 6.32
-9 -10 7 24.61 33.61
-8 -10 7 3.55 6.39
-7 -10 7 11.33 15.08
-6 -10 7 3.57 23.7
-3 -10 7 28.2 35.4
-2 -10 7 9.67 30.1
-1 -10 7 23.07 16.27
1 -10 7 37.65 7.38
3 -10 7 4.06 4.85
4 -10 7 17.02 18.48
5 -10 7 21.06 20.56
6 -10 7 10.96 22.22
7 -10 7 1.54 41.13
8 -10 7 8.8 3.89
9 -10 7 2.1 16.14
10 -10 7 5.24 51.64
-13 -9 7 3.41 15.53
-11 -9 7 20.57 30.23
-10 -9 7 3.93 49.44
-9 -9 7 113.28 82.58
-7 -9 7 2.65 4.09
-6 -9 7 6.82 23.7
-5 -9 7 28.2 47.01
-4 -9 7 1.35 1.65
-3 -9 7 62.51 35.42
-2 -9 7 3.11 2.31
-1 -9 7 7.98 12.66
0 -9 7 37.18 20.66
1 -9 7 4.78 15.53
2 -9 7 3.35 10.53
3 -9 7 13.8 51.64
4 -9 7 21.87 15.84
5 -9 7 4.63 5.18
6 -9 7 7.73 12.46
7 -9 7 3.02 2.28
8 -9 7 3.72 6.53
9 -9 7 1.22 0.24
11 -9 7 8.07 12.73
-13 -8 7 2.36 1.85
-11 -8 7 2.24 10.53
-9 -8 7 28.15 46.96
-8 -8 7 2.76 2
-7 -8 7 5.32 22.22
-6 -8 7 72.37 38.11
-5 -8 7 36.52 33.68
-4 -8 7 46.27 0.74
-3 -8 7 124.36 38.99
-1 -8 7 41.36 14.05
0 -8 7 119.65 37.05
2 -8 7 70.61 83.56
3 -8 7 69.52 0.91
4 -8 7 25.27 39
5 -8 7 23.59 32.38
6 -8 7 2.56 6.11
7 -8 7 10.96 18.45
9 -8 7 4.24 39.17
10 -8 7 3.53 15.53
11 -8 7 4.11 2.44
-10 -7 7 2.44 30.1
-9 -7 7 23.07 42.51
-8 -7 7 101.95 33.1
-7 -7 7 4.66 15.53
-6 -7 7 129.4 88.26
-5 -7 7 85.77 31.37
-3 -7 7 20.81 19.94
-2 -7 7 3.23 10.04
-1 -7 7 11.81 0.04
0 -7 7 27.57 5.74
1 -7 7 18.12 23.26
2 -7 7 97.8 22.69
3 -7 7 114.56 12.87
4 -7 7 44.51 37.18
5 -7 7 46.5 30.55
6 -7 7 30.27 36.68
7 -7 7 55.05 8.92
8 -7 7 22.28 42.3
9 -7 7 8.17 30.1
10 -7 7 5.47 40.15
11 -7 7 1.75 50.53
-13 -6 7 2.98 30.1
-12 -6 7 0.82 30.95
-11 -6 7 7.26 8.83
-10 -6 7 25.27 39
-9 -6 7 5.91 49.44
-8 -6 7 287.25 57.41
-7 -6 7 25.88 6.11
-6 -6 7 5.99 2.67
-5 -6 7 7.55 39.17
-4 -6 7 44.36 21.83
-3 -6 7 38.39 40.62
-2 -6 7 35.53 6.51
-1 -6 7 1.75 1.73
0 -6 7 177.88 88.9
1 -6 7 45.83 22.19
3 -6 7 3.85 30.1
4 -6 7 45.68 44.31
5 -6 7 67.62 36.84
6 -6 7 89.76 83.86
7 -6 7 39.69 62.64
8 -6 7 25.49 45.24
9 -6 7 4.06 49.44
10 -6 7 12.77 4.3
11 -6 7 2.74 15.53
12 -6 7 1.65 22.95
13 -6 7 3.64 10.53
-11 -5 7 27.06 45.47
-9 -5 7 2.92 30.1
-8 -5 7 31.36 18.97
-7 -5 7 41.5 56.31
-6 -5 7 22.7 48.36
-5 -5 7 448.02 94.83
-4 -5 7 42.63 14.27
-3 -5 7 72 83.45
-2 -5 7 344.28 143.96
-1 -5 7 206.17 1.57
0 -5 7 199.94 94.26
1 -5 7 238.75 86.11
2 -5 7 145.28 93.51
3 -5 7 76.52 77.43
4 -5 7 59.27 25.24
5 -5 7 85.26 61.55
6 -5 7 53.68 24.82
7 -5 7 10.04 17.66
8 -5 7 45.46 22.84
9 -5 7 12.85 49.44
10 -5 7 25.71 28.26
11 -5 7 20.57 10.9
13 -5 7 23.38 19.02
-13 -4 7 10.93 21.67
-11 -4 7 14.59 21.28
-10 -4 7 11.4 49.44
-9 -4 7 1.47 15.53
-7 -4 7 37.45 27.42
-6 -4 7 1.24 2.63
-5 -4 7 180.95 60.27
-4 -4 7 3.35 2.2
-3 -4 7 52.49 15.83
-2 -4 7 239.25 1.69
-1 -4 7 48.38 0.76
0 -4 7 45.09 58.7
1 -4 7 503.54 100.54
2 -4 7 201.03 79.02
3 -4 7 187.92 136.32
4 -4 7 28.03 28.93
5 -4 7 1.97 49.44
6 -4 7 60.53 8.5
7 -4 7 16.88 22.9
8 -4 7 4.24 10.04
9 -4 7 5.04 49.44
10 -4 7 8.23 30.95
11 -4 7 30.03 7.78
13 -4 7 17.33 32.3
-13 -3 7 22.86 37.09
-11 -3 7 5.37 22.22
-10 -3 7 12.3 19.55
-9 -3 7 2.03 5.74
-7 -3 7 7.02 22.22
-6 -3 7 31.43 49.01
-5 -3 7 119.77 96.87
-4 -3 7 4.11 2.44
-3 -3 7 6.94 49.44
-2 -3 7 79.61 87.75
-1 -3 7 216.02 33.73
0 -3 7 479.55 2.39
1 -3 7 1149.01 340.78
2 -3 7 1300.38 47.29
3 -3 7 47.39 7.52
4 -3 7 33.54 18.99
5 -3 7 20.66 48.36
6 -3 7 144.88 78.92
7 -3 7 33.99 12.74
8 -3 7 13 3.94
9 -3 7 154.64 55.71
10 -3 7 3.7 0.21
11 -3 7 6.02 3.22
12 -3 7 9.4 13.73
14 -3 7 4.87 5.07
-13 -2 7 3.27 2.17
-12 -2 7 8.29 9.44
-11 -2 7 5.52 15.53
-10 -2 7 36.32 52.68
-9 -2 7 2.55 3.66
-8 -2 7 52.89 8.74
-7 -2 7 53.12 24.69
-6 -2 7 37.31 0.67
-5 -2 7 15.86 0.04
-3 -2 7 24.83 21.78
-2 -2 7 79.12 38.88
-1 -2 7 15.05 12.72
0 -2 7 9.94 3.44
1 -2 7 133.92 13.91
2 -2 7 23.59 15.92
3 -2 7 98.67 11.94
4 -2 7 66.1 9.77
5 -2 7 146.6 80.71
6 -2 7 99.97 87.41
7 -2 7 106.75 0.11
8 -2 7 584.53 5.28
9 -2 7 11.74 7.86
10 -2 7 72.65 0.09
11 -2 7 6.74 6.52
12 -2 7 75.57 48.45
14 -2 7 36.72 53.63
-13 -1 7 3.47 40.15
-12 -1 7 6.48 22.22
-10 -1 7 29.38 24.28
-9 -1 7 19.49 24.6
-8 -1 7 72.37 66
-7 -1 7 51.15 0.78
-6 -1 7 2.27 22.22
-5 -1 7 31.36 24.48
-4 -1 7 175.84 1.45
-3 -1 7 4.47 30.1
-2 -1 7 121.21 109.48
-1 -1 7 26.27 22.4
0 -1 7 133.92 101.16
1 -1 7 264.21 126.11
2 -1 7 302.83 116
3 -1 7 68.88 81.62
4 -1 7 181.1 133.82
5 -1 7 11.89 18.84
6 -1 7 6.85 29.26
7 -1 7 33.04 31.4
8 -1 7 74.9 0.95
9 -1 7 10.36 3.52
10 -1 7 24.13 5.9
11 -1 7 13.16 11.89
12 -1 7 30.15 30.6
13 -1 7 1.12 31.82
14 -1 7 34.31 7.04
15 -1 7 1.96 50.53
-13 0 7 1.63 30.95
-11 0 7 4.27 7
-10 0 7 9.67 3.74
-8 0 7 6.65 3.1
-7 0 7 72.93 46.66
-6 0 7 39.07 20.49
-5 0 7 256.98 54.3
-4 0 7 158.47 82.54
-3 0 7 120.25 0.12
-2 0 7 363.19 22.91
-1 0 7 47.62 22.62
0 0 7 134.3 37.99
1 0 7 261.03 107.69
2 0 7 213.93 1.6
3 0 7 142.91 40.5
4 0 7 495.48 2.43
6 0 7 46.05 66.74
7 0 7 124.6 25.62
8 0 7 16.52 8.88
9 0 7 99.32 54.45
10 0 7 70.52 46.8
11 0 7 129.78 113.28
12 0 7 13.72 20.64
13 0 7 7.86 15.62
14 0 7 2.03 3.58
15 0 7 8.04 12.7
-12 1 7 1.72 39.17
-11 1 7 11.04 0.36
-10 1 7 17.2 14.05
-9 1 7 1.16 0.24
-8 1 7 30.63 24.8
-7 1 7 22.39 5.69
-6 1 7 21.01 10.02
-5 1 7 5.94 5.33
-4 1 7 40.31 62.44
-3 1 7 25.16 43.85
-2 1 7 6.18 49.44
-1 1 7 6.71 48.36
0 1 7 21.87 35.78
1 1 7 148.85 94.66
2 1 7 28.55 40.87
3 1 7 140.18 65.98
4 1 7 355.32 125.65
5 1 7 1.42 2.89
6 1 7 233.04 68.39
7 1 7 86.48 40.65
8 1 7 3.47 4.28
9 1 7 169.38 44.09
10 1 7 6.18 11.14
11 1 7 51.94 17.33
12 1 7 16.04 39.17
13 1 7 28.79 7.04
15 1 7 6.85 22.95
16 1 7 8.2 22.22
-12 2 7 16.7 22.78
-10 2 7 27.45 12.02
-9 2 7 1.48 2.8
-7 2 7 11.48 49.44
-6 2 7 32.91 0.63
-5 2 7 56.93 49.47
-4 2 7 270.29 1.8
-3 2 7 53.6 32
-2 2 7 6.68 14.93
-1 2 7 145.41 67.2
0 2 7 31.55 36.83
1 2 7 33.29 6.3
2 2 7 83.36 89.79
3 2 7 49.22 38.33
4 2 7 17.42 27.37
5 2 7 22.96 41.89
6 2 7 15.01 29.63
7 2 7 235.72 52.01
9 2 7 153.42 55.49
10 2 7 33.8 0.06
11 2 7 7.67 49.44
12 2 7 74.34 38.63
14 2 7 7.11 6.12
16 2 7 11.22 39.17
-11 3 7 1.75 49.44
-9 3 7 28.44 6.41
-8 3 7 12.3 29.26
-7 3 7 19.83 39.41
-6 3 7 4.59 4.91
-5 3 7 4.13 30.1
-4 3 7 344.08 103.38
-2 3 7 103.28 66.63
-1 3 7 108.45 58.04
1 3 7 30.63 0.06
2 3 7 225.6 50.88
3 3 7 2.87 15.53
4 3 7 6.48 14.93
5 3 7 193.05 122.98
6 3 7 6.82 11.7
7 3 7 145.41 27.67
8 3 7 5.47 38.21
9 3 7 49.37 53.75
10 3 7 89.66 32.08
11 3 7 23.59 16.98
12 3 7 111.66 60.04
13 3 7 2.62 5.74
14 3 7 21.06 40.62
15 3 7 5.89 15.53
-11 4 7 6.23 11.19
-10 4 7 3.21 22.22
-9 4 7 28.96 29.99
-8 4 7 1.96 5.74
-7 4 7 1.47 0.13
-6 4 7 1.87 22.22
-5 4 7 1.69 5.74
-4 4 7 2.31 10.04
-3 4 7 62.68 43.26
-2 4 7 2.39 15.53
-1 4 7 412.22 157.52
0 4 7 26.77 23.18
1 4 7 13.76 12.16
2 4 7 351.83 125.03
3 4 7 5.07 22.22
4 4 7 242.48 18.72
5 4 7 7.43 6.26
6 4 7 7.49 15.53
7 4 7 19.98 0.05
8 4 7 153.96 55.59
9 4 7 0.84 40.15
10 4 7 40.31 0.69
11 4 7 12.5 39.17
12 4 7 3.62 0.21
13 4 7 34.76 0.64
14 4 7 12.73 39.17
15 4 7 11.22 30.1
16 4 7 3.55 30.1
-9 5 7 6.05 5.64
-8 5 7 5.34 7.83
-7 5 7 8.35 49.44
-6 5 7 3.27 39.17
-5 5 7 3.51 2.25
-4 5 7 21.72 49.44
-3 5 7 343.27 42.52
-2 5 7 30.09 29.97
-1 5 7 191.08 16.62
0 5 7 2.63 30.1
1 5 7 3.06 5.92
2 5 7 279.34 20.09
3 5 7 3.37 22.22
4 5 7 141.48 92.28
5 5 7 153.56 1.35
6 5 7 60.87 76.73
7 5 7 37.92 20.19
8 5 7 61.05 76.84
10 5 7 56.36 41.84
11 5 7 69.97 10.05
12 5 7 17.06 0.45
13 5 7 26.72 52.53
14 5 7 6.26 0.27
15 5 7 2.13 0.32
16 5 7 10.43 40.15
-9 6 7 3.49 39.17
-8 6 7 0.99 2.89
-6 6 7 14.84 8.84
-5 6 7 1.01 30.95
-4 6 7 22.49 15.55
-3 6 7 0.73 40.15
-1 6 7 16.13 0.04
0 6 7 123.63 1.21
1 6 7 7.29 8.85
2 6 7 0.91 15.53
3 6 7 133.03 26.47
4 6 7 35.27 0.06
5 6 7 455.69 48.99
6 6 7 376.22 150.49
7 6 7 31.36 18.36
8 6 7 1.23 16.14
9 6 7 17.47 0.46
10 6 7 39 14.33
11 6 7 1.37 16.14
12 6 7 32.23 50.25
14 6 7 23.38 1.06
15 6 7 10.01 30.95
16 6 7 21.82 0.51
-8 7 7 5.6 30.1
-6 7 7 42.06 50.32
-5 7 7 0.88 50.53
-4 7 7 8.1 0.31
-2 7 7 51.31 0.08
-1 7 7 5.34 10.1
0 7 7 128.41 1.24
2 7 7 4 48.36
3 7 7 153.69 42
4 7 7 5.49 2.56
5 7 7 14.01 8.18
6 7 7 57.51 8.29
7 7 7 5.49 2.82
8 7 7 60.45 8.5
9 7 7 19.06 43.14
11 7 7 20.07 24.97
12 7 7 27.4 40.04
13 7 7 1.28 40.15
14 7 7 1.84 22.95
15 7 7 2.58 2.11
16 7 7 1.75 16.14
-8 8 7 6.07 2.96
-6 8 7 10.11 49.44
-4 8 7 1.37 15.53
-3 8 7 37.78 60.45
-1 8 7 40.45 56.29
0 8 7 27.63 11.49
1 8 7 19.68 33.94
2 8 7 38.73 0.07
3 8 7 1.12 50.53
4 8 7 31.79 49.29
5 8 7 14.54 25
6 8 7 433.8 70.55
7 8 7 179.19 16.09
8 8 7 62.68 17.3
10 8 7 1.18 31.82
11 8 7 39.41 48.71
12 8 7 4.04 10.53
13 8 7 1.43 6.11
-4 9 7 7.64 6.04
-3 9 7 10.75 48.36
-2 9 7 2.8 10.04
-1 9 7 5.67 21.49
0 9 7 5.94 7.99
1 9 7 7.11 11.95
3 9 7 4.4 2.52
5 9 7 46.05 66.74
6 9 7 6.71 3.11
7 9 7 42.92 7.16
8 9 7 3.17 15.53
9 9 7 7.43 6.26
10 9 7 8.26 36.32
11 9 7 5.44 39.17
12 9 7 25.82 38.87
13 9 7 32.29 19.25
14 9 7 12.23 49.44
15 9 7 11.36 30.1
16 9 7 5.32 15.53
-7 10 7 1.75 30.95
-5 10 7 5.99 2.94
-4 10 7 5.55 5.4
-3 10 7 10.11 0.35
-2 10 7 11.48 7.77
0 10 7 19.49 49.44
1 10 7 8.67 0.03
2 10 7 1.33 2.65
3 10 7 36.12 53.2
4 10 7 7.29 9.14
5 10 7 1.96 15.53
6 10 7 1.39 1.55
7 10 7 12.65 19.82
8 10 7 10.01 22.22
9 10 7 24.99 27.86
10 10 7 19.54 5.31
11 10 7 9.94 14.12
12 10 7 3.06 22.22
13 10 7 39.76 42.03
-6 11 7 0.96 30.95
-5 11 7 3.83 2.56
-4 11 7 9 13.11
-1 11 7 6.23 30.1
0 11 7 21.27 30.74
1 11 7 5.75 2.88
2 11 7 4.42 15.53
3 11 7 19.06 29.1
6 11 7 12.46 4.24
7 11 7 4.27 10.04
8 11 7 15.05 21.62
9 11 7 7.2 9.38
10 11 7 11.25 0.37
12 11 7 2.67 30.95
15 11 7 2.49 2.07
-4 12 7 1.52 30.1
-3 12 7 4.22 22.22
-2 12 7 1.88 0.15
-1 12 7 4.49 4.86
0 12 7 4.06 6.83
1 12 7 10.22 14.32
2 12 7 8.58 13.12
3 12 7 1.22 0.24
5 12 7 2.16 1.77
6 12 7 28.9 0.59
8 12 7 1.42 10.53
10 12 7 2.34 31.82
12 12 7 7.17 15.53
13 12 7 2.8 2.19
14 12 7 15.82 39.17
-3 13 7 1.27 2.89
-2 13 7 1.44 15.53
1 13 7 5.65 39.17
4 13 7 5.44 7.9
6 13 7 12.81 8.21
8 13 7 3.02 22.22
9 13 7 2.19 30.95
12 13 7 16.79 13.88
14 13 7 6.48 8.62
-3 14 7 1.59 49.44
-1 14 7 1.27 50.53
0 14 7 5.49 16.14
1 14 7 3.76 49.44
2 14 7 2.65 5.74
3 14 7 3.91 15.53
4 14 7 2.69 0.18
5 14 7 4.56 10.04
7 14 7 1.62 0.28
8 14 7 4.11 2.44
10 14 7 1.75 51.64
4 15 7 1.1 1.38
6 15 7 1.99 30.95
7 15 7 8.26 0.31
9 15 7 6.23 16.14
12 15 7 3.72 2.32
0 16 7 1.61 3.05
4 16 7 1.62 30.95
7 16 7 3.33 30.1
9 16 7 3.83 50.53
-8 -15 8 1.46 23.7
-7 -15 8 2.96 6.11
-5 -15 8 2.56 2.1
-7 -14 8 5.12 0.99
-6 -14 8 6.18 15.53
-10 -13 8 10.11 8.69
-7 -13 8 3.33 4.59
-6 -13 8 1.41 51.64
-5 -13 8 3.96 22.95
-4 -13 8 11.81 0.38
-3 -13 8 27.34 40.57
1 -13 8 16 25.35
4 -13 8 9.94 14.81
6 -13 8 10.29 7.36
-11 -12 8 2.98 16.14
-10 -12 8 12.54 15.86
-7 -12 8 3.98 51.64
-6 -12 8 3.23 30.95
-5 -12 8 16.93 4.95
-4 -12 8 9.7 51.64
-3 -12 8 62.51 44.06
3 -12 8 16.79 12.09
4 -12 8 9.77 30.1
5 -12 8 6.59 5.89
7 -12 8 1.55 6.5
-11 -11 8 1.41 51.64
-10 -11 8 1.17 2.89
-9 -11 8 15.6 0.43
-7 -11 8 10.39 22.22
-6 -11 8 18.07 9.75
-4 -11 8 73.02 84.97
-3 -11 8 1.87 23.7
-2 -11 8 20.76 5.48
2 -11 8 9.7 9.53
3 -11 8 31.55 43.58
4 -11 8 10.29 22.95
6 -11 8 3.08 4.22
7 -11 8 19.15 14.83
8 -11 8 1.55 31.82
9 -11 8 7.29 12.09
-9 -10 8 11 18.48
-8 -10 8 12.54 4.26
-7 -10 8 1.9 10.53
-6 -10 8 15.69 13.85
-4 -10 8 65.39 36.23
-3 -10 8 15.82 39.17
-2 -10 8 46.94 30.7
-1 -10 8 42.49 57.69
2 -10 8 42.13 50.36
3 -10 8 5.94 8.25
4 -10 8 7.34 0.3
5 -10 8 11.59 15.25
6 -10 8 12.96 16.13
9 -10 8 5.57 3.61
-12 -9 8 8.45 3.49
-10 -9 8 9.7 49.44
-8 -9 8 4.56 7.24
-5 -9 8 9.73 22.95
-4 -9 8 2.22 16.77
-3 -9 8 60.96 77.64
-2 -9 8 51.46 17.25
-1 -9 8 70.8 74.48
0 -9 8 15.35 0.43
1 -9 8 27.28 14.27
2 -9 8 31.49 6.74
3 -9 8 6.34 3.03
4 -9 8 47.92 31.77
6 -9 8 25.88 17.79
7 -9 8 5.04 2.7
8 -9 8 18.12 9.77
9 -9 8 6.07 22.22
10 -9 8 5.44 2.8
-12 -8 8 15.39 14.15
-11 -8 8 11.55 22.65
-9 -8 8 44.51 8.02
-8 -8 8 2.69 5.74
-7 -8 8 12.93 0.04
-6 -8 8 6.79 49.44
-4 -8 8 1.85 0.3
-3 -8 8 33.29 57.37
-2 -8 8 15.39 21.86
-1 -8 8 16.17 13.62
0 -8 8 2.78 0.18
1 -8 8 35.01 39.44
2 -8 8 1.18 16.14
3 -8 8 9.33 0.33
4 -8 8 35.6 20.21
5 -8 8 25.71 22.72
6 -8 8 16.04 9.19
8 -8 8 15.22 39.17
9 -8 8 2.98 50.53
10 -8 8 7.86 22.22
12 -8 8 10.57 7.82
-12 -7 8 2.62 2.12
-11 -7 8 18.73 38.21
-9 -7 8 146.6 1.32
-8 -7 8 4.75 10.04
-7 -7 8 23.12 36.78
-6 -7 8 36.38 0.07
-5 -7 8 3.25 22.22
-4 -7 8 44.14 7.99
-3 -7 8 59.1 9.24
-2 -7 8 3.85 4.5
-1 -7 8 35.53 58.62
0 -7 8 50.53 46.61
1 -7 8 43.71 0.07
2 -7 8 35.27 38.94
3 -7 8 5.7 8.09
4 -7 8 95.33 11.74
5 -7 8 12.27 23.73
6 -7 8 23.01 5.77
7 -7 8 30.45 0.6
8 -7 8 2.24 10.53
10 -7 8 5.22 22.22
11 -7 8 12.61 12.81
12 -7 8 14.63 5.43
-13 -6 8 5.27 2.76
-9 -6 8 14.21 25.13
-8 -6 8 1.61 2.91
-7 -6 8 2.46 10.04
-6 -6 8 70.52 55.06
-5 -6 8 6.02 10.99
-4 -6 8 52.65 47.57
-3 -6 8 106.64 23.7
-2 -6 8 4.8 49.44
-1 -6 8 55.46 16.28
0 -6 8 98.12 33.56
1 -6 8 15.39 17.15
2 -6 8 68.25 37.01
3 -6 8 18.73 38.21
4 -6 8 39.69 28.22
5 -6 8 10.85 30.1
7 -6 8 27.4 34.89
8 -6 8 4.4 7.11
10 -6 8 3.74 0.21
12 -6 8 3.93 22.95
-13 -5 8 1.47 16.14
-10 -5 8 2.7 39.17
-9 -5 8 9.8 7.18
-8 -5 8 143.7 119.2
-7 -5 8 15.39 0.86
-6 -5 8 161.93 70.92
-5 -5 8 63.02 61.59
-3 -5 8 73.49 0.94
-1 -5 8 62.68 34.61
0 -5 8 84.06 51.09
1 -5 8 6.88 5.73
2 -5 8 152.47 122.79
3 -5 8 235.89 119.16
4 -5 8 54.25 8.05
5 -5 8 135.18 64.8
6 -5 8 63.55 47.04
7 -5 8 106.19 23.65
8 -5 8 42.63 29.25
9 -5 8 11.4 11.44
10 -5 8 4.52 30.1
12 -5 8 5.75 8.39
-13 -4 8 0.95 50.53
-12 -4 8 3.53 10.04
-11 -4 8 6.02 22.22
-10 -4 8 4.92 5.09
-8 -4 8 180.8 104.32
-7 -4 8 89.24 11.36
-6 -4 8 3.39 6.24
-4 -4 8 6.79 30.1
-3 -4 8 72.74 74.56
-2 -4 8 0.92 10.53
-1 -4 8 38.05 6.74
0 -4 8 140.05 104.75
1 -4 8 207.59 48.81
2 -4 8 22.23 36.07
3 -4 8 1.76 5.74
5 -4 8 194.12 77.65
6 -4 8 44.94 14.65
7 -4 8 199.17 100.24
8 -4 8 52.41 71.99
10 -4 8 60.62 9.36
11 -4 8 11.18 11.33
12 -4 8 1.12 30.95
13 -4 8 16.39 7.52
-11 -3 8 23.43 0.53
-9 -3 8 4.09 30.1
-8 -3 8 11.7 30.1
-7 -3 8 45.75 44.35
-6 -3 8 9.7 3.74
-5 -3 8 443.87 209.5
-4 -3 8 62.85 51.98
-3 -3 8 36.25 0.07
-2 -3 8 209.8 49.07
-1 -3 8 122.66 61.72
0 -3 8 96.61 65.52
1 -3 8 280.26 148.18
2 -3 8 281.17 75.13
3 -3 8 44.94 29.3
4 -3 8 48.83 30.55
5 -3 8 47.47 67.76
6 -3 8 13.08 3.95
7 -3 8 8.45 6.67
8 -3 8 25.76 27.73
9 -3 8 15.56 13.36
10 -3 8 54.65 8.89
11 -3 8 17.33 28.21
12 -3 8 3.72 11.04
13 -3 8 31.36 50.18
-11 -2 8 21.62 36.58
-10 -2 8 11.62 11.55
-8 -2 8 1.32 15.53
-7 -2 8 35.47 0.65
-6 -2 8 60.11 9.32
-5 -2 8 193.51 16.72
-4 -2 8 49.45 30.74
-3 -2 8 123.26 49.74
-2 -2 8 276.61 74.51
-1 -2 8 110.16 35.55
0 -2 8 174.54 1.44
1 -2 8 698.74 118.43
2 -2 8 585.59 81.97
3 -2 8 395.53 67.37
4 -2 8 62.85 51.98
6 -2 8 139.02 39.94
7 -2 8 13.04 7.89
8 -2 8 3.59 6.42
9 -2 8 21.37 0.51
10 -2 8 2.91 30.1
11 -2 8 56.52 50.11
12 -2 8 1.68 6.11
13 -2 8 30.45 30.75
-12 -1 8 1.3 0.25
-10 -1 8 1.76 1.6
-9 -1 8 0.81 16.14
-7 -1 8 0.74 16.14
-6 -1 8 7.83 3.06
-5 -1 8 23.54 0.05
-4 -1 8 5.47 0.03
-3 -1 8 5.78 2.63
-2 -1 8 8.13 48.36
-1 -1 8 48.99 22.94
0 -1 8 543.28 129.9
1 -1 8 534.4 128.83
2 -1 8 2195.59 225.29
4 -1 8 4.61 39.17
5 -1 8 84.36 90.33
6 -1 8 97.26 43.11
7 -1 8 2.29 30.1
8 -1 8 44.51 21.87
9 -1 8 69.88 36.54
10 -1 8 30.27 18.64
11 -1 8 4.45 16.14
12 -1 8 6.51 49.44
13 -1 8 2.26 6.11
14 -1 8 8.61 30.1
-12 0 8 5.37 10.38
-11 0 8 4.22 39.17
-10 0 8 40.93 56.63
-9 0 8 1.3 6.11
-8 0 8 56.28 73.78
-7 0 8 37.38 26.72
-6 0 8 21.01 25.55
-5 0 8 18.87 9.49
-4 0 8 9.97 48.36
-3 0 8 18.49 18.8
-2 0 8 107.65 45.35
-1 0 8 32.29 18.63
0 0 8 9.43 0.03
1 0 8 74.43 9.43
2 0 8 1.21 30.95
3 0 8 97.04 54.9
4 0 8 145.93 120.13
5 0 8 180.22 60.15
6 0 8 92.05 32.5
7 0 8 83.86 70.05
8 0 8 580.57 215.91
10 0 8 66.9 81.33
11 0 8 18.21 0.47
12 0 8 88.21 31.82
14 0 8 39.76 0.69
-11 1 8 3.21 4.11
-10 1 8 18.12 33.02
-8 1 8 73.96 47.93
-7 1 8 9.26 22.22
-6 1 8 27.17 17.66
-5 1 8 53.04 48.55
-4 1 8 58.01 33.29
-3 1 8 111.08 80.62
-2 1 8 141.35 14.29
-1 1 8 10.25 38.21
0 1 8 4.27 7
1 1 8 189.27 91.71
2 1 8 136.46 26.81
3 1 8 295.84 152.24
4 1 8 117.27 59.17
5 1 8 142 53.39
6 1 8 51.78 23.59
7 1 8 5.47 38.21
8 1 8 183.9 45.94
9 1 8 1.55 16.14
10 1 8 12.46 3.86
11 1 8 77.09 68.12
12 1 8 28.79 48.08
13 1 8 14.8 0.42
14 1 8 45.98 45.2
15 1 8 1.79 23.7
16 1 8 19.68 37.33
-11 2 8 3.33 30.1
-10 2 8 2.89 0.19
-9 2 8 0.95 0.21
-8 2 8 18.12 49.44
-7 2 8 28.2 29.6
-6 2 8 30.03 5.99
-5 2 8 135.57 77.61
-4 2 8 38.25 47.31
-3 2 8 93.21 84.4
-2 2 8 89.35 51.64
0 2 8 51.39 70.5
1 2 8 93.21 52.75
2 2 8 35.08 19.42
3 2 8 82.96 29.86
4 2 8 165.42 113.84
5 2 8 5.44 39.17
6 2 8 3.66 30.1
7 2 8 40.93 20.97
8 2 8 18.82 23.7
9 2 8 96.61 33.3
10 2 8 16.44 18.16
11 2 8 186.73 2.99
12 2 8 60.79 17.89
13 2 8 1.58 10.53
15 2 8 2.6 0.35
16 2 8 3.66 50.53
-11 3 8 1.65 40.15
-10 3 8 14.34 12.41
-8 3 8 9.06 29.26
-7 3 8 46.87 44.89
-6 3 8 9.03 13.14
-5 3 8 28.32 0.06
-4 3 8 60.7 43.42
-3 3 8 17.7 13.79
-2 3 8 35.66 58.73
-1 3 8 41.78 49.44
0 3 8 21.11 0.05
1 3 8 242.99 86.87
2 3 8 4.52 30.1
3 3 8 187.77 91.34
4 3 8 215.37 145.93
6 3 8 211.22 1.59
7 3 8 142.91 40.5
8 3 8 5.65 39.17
9 3 8 209.16 33.19
10 3 8 2.65 3.74
11 3 8 33.92 32.46
12 3 8 11.66 40.15
13 3 8 44.29 44.36
15 3 8 12.11 39.17
-10 4 8 7.61 22.22
-8 4 8 2.8 2.01
-7 4 8 0.79 30.95
-5 4 8 17.2 39.17
-4 4 8 92.68 22.09
-2 4 8 15.73 26.01
-1 4 8 56.52 41.08
0 4 8 20.07 34.27
1 4 8 56.52 41.08
3 4 8 78.73 9.7
4 4 8 10.71 0.04
5 4 8 2.41 10.04
6 4 8 77.38 86.51
7 4 8 100.52 0.11
8 4 8 57.1 74.31
9 4 8 145.01 80.27
10 4 8 5.02 22.22
11 4 8 24.56 33.03
12 4 8 98.45 22.77
13 4 8 1.41 50.53
14 4 8 23.22 5.79
-9 5 8 17.56 23.35
-8 5 8 4.78 22.22
-7 5 8 3.7 2.31
-6 5 8 3 15.53
-5 5 8 11.18 18.64
-4 5 8 134.3 26.59
-3 5 8 3.02 49.44
-2 5 8 37.92 33.64
-1 5 8 36.25 32.9
1 5 8 0.62 2.89
2 5 8 138.25 52.68
4 5 8 9.36 6.69
5 5 8 69.61 82.05
6 5 8 1.96 5.74
7 5 8 49.06 53.58
9 5 8 11 0.04
10 5 8 41.92 36.08
11 5 8 22.6 5.71
12 5 8 74.71 38.73
13 5 8 15.86 0.44
14 5 8 25.93 40.06
-9 6 8 13.6 24.58
-8 6 8 8.01 3.4
-7 6 8 6.21 30.1
-5 6 8 10.68 29.26
-4 6 8 2.62 22.22
-3 6 8 17.47 27.4
-2 6 8 17.33 9.55
-1 6 8 168.81 115
0 6 8 19.78 48.36
1 6 8 31.18 24.41
2 6 8 228.23 117.21
3 6 8 21.11 10.04
4 6 8 240.61 1.7
5 6 8 4.78 0.24
6 6 8 45.09 51.36
7 6 8 2.94 39.17
8 6 8 110.05 47
9 6 8 2.21 49.44
10 6 8 70.34 37.58
11 6 8 1.35 16.14
12 6 8 8.93 30.1
13 6 8 24.02 50.53
14 6 8 13 8.28
15 6 8 11.36 30.1
-8 7 8 1.29 1.49
-7 7 8 1.18 2.89
-4 7 8 17.33 49.44
-3 7 8 75.66 67.49
-2 7 8 18.68 33.53
-1 7 8 35.66 13.7
0 7 8 18.12 9.3
1 7 8 3.76 0.21
2 7 8 44.65 14.6
3 7 8 21.72 40.74
4 7 8 60.79 17.04
5 7 8 12.46 3.86
6 7 8 75.09 37.88
7 7 8 4.75 22.22
8 7 8 15.35 49.44
9 7 8 11.66 19.03
10 7 8 22.86 37.09
11 7 8 14.88 30.1
12 7 8 15.26 49.44
13 7 8 11.22 39.17
14 7 8 2.24 0.33
15 7 8 4.24 39.17
-8 8 8 2.51 49.44
-7 8 8 1.43 1.57
-6 8 8 11.44 22.95
-4 8 8 13.24 24.26
-3 8 8 2.14 0.16
-1 8 8 1.18 30.1
0 8 8 78.73 59.15
1 8 8 6.62 8.44
2 8 8 2.36 3.52
3 8 8 66.1 0.09
4 8 8 10.71 7.15
5 8 8 217.46 146.64
6 8 8 135.44 64.86
7 8 8 23.38 37.52
8 8 8 2.58 10.04
9 8 8 11.36 18.79
10 8 8 9.16 13.56
12 8 8 16.35 31.37
14 8 8 19.35 49.44
15 8 8 8.13 30.1
16 8 8 14.46 11.64
-6 9 8 11.29 18.73
-5 9 8 5.14 22.22
-4 9 8 6.99 30.1
-3 9 8 1.87 3.13
-2 9 8 6.74 8.51
-1 9 8 13.84 8.54
0 9 8 27.74 46.62
1 9 8 20.61 0.5
2 9 8 3.35 30.1
3 9 8 28.2 0.58
4 9 8 17.56 5.04
5 9 8 15.13 13.18
6 9 8 7.11 6.12
7 9 8 30.03 13.17
8 9 8 15.69 49.44
9 9 8 27.45 6.3
11 9 8 8.17 49.44
12 9 8 29.61 18.43
13 9 8 1.75 1.73
14 9 8 4.54 2.56
-6 10 8 1.08 40.15
-3 10 8 9.94 21.49
-1 10 8 10.22 22.22
0 10 8 0.81 40.15
1 10 8 4.63 39.17
2 10 8 3.08 2.11
3 10 8 3.57 10.53
4 10 8 15.82 9.13
5 10 8 1.58 30.95
6 10 8 144.09 93.13
7 10 8 86.58 31.52
8 10 8 10.5 0.35
9 10 8 1.54 2.98
11 10 8 13.04 20.52
12 10 8 5.91 5.58
14 10 8 1.24 51.64
-3 11 8 10.11 39.17
-1 11 8 4.02 22.22
0 11 8 5.14 30.1
1 11 8 1.33 2.89
2 11 8 2.89 39.17
3 11 8 4.33 4.78
5 11 8 26.77 34.49
6 11 8 0.99 16.14
7 11 8 14.05 39.17
8 11 8 2.21 50.53
9 11 8 5.91 15.53
12 11 8 11.07 11.64
13 11 8 20.66 40.24
14 11 8 6.02 8.31
-3 12 8 1.22 16.14
0 12 8 5.12 15.53
2 12 8 3.08 2.11
3 12 8 5.02 30.1
4 12 8 14.38 48.36
6 12 8 5.22 10.23
7 12 8 4.24 0.23
8 12 8 5.49 0.26
9 12 8 3.13 6.19
10 12 8 13.8 36.32
13 12 8 20.66 30.3
-4 13 8 2.27 3.63
-3 13 8 0.79 30.95
-2 13 8 0.8 0.2
-1 13 8 3.76 49.44
0 13 8 7.14 6.13
1 13 8 1.65 3.09
2 13 8 1.46 10.53
3 13 8 3.17 22.22
6 13 8 6.4 30.1
8 13 8 5.32 22.22
0 14 8 1.94 6.11
1 14 8 1.84 10.53
2 14 8 4.52 22.95
6 14 8 13.68 4.45
7 14 8 2.76 0.18
8 14 8 1.18 2.89
0 15 8 1.04 6.11
1 15 8 0.97 0.21
6 15 8 2.21 39.17
1 16 8 1.23 0.24
2 16 8 1.29 1.49
3 16 8 2.53 16.14
5 16 8 2.16 40.15
7 16 8 1.3 6.11
7 17 8 2.39 3.55
2 -14 9 14.05 47.29
-8 -13 9 4.02 30.95
-7 -13 9 4.75 5.24
-6 -13 9 4.02 7.01
-5 -13 9 2.53 0.52
0 -13 9 17.2 26.28
2 -13 9 11.55 3009.73
-10 -12 9 8.04 9.61
-9 -12 9 16.26 18.07
-7 -12 9 8.64 10.92
-6 -12 9 14.59 25.46
0 -12 9 25.88 55.02
6 -12 9 1.84 0.44
8 -12 9 2.85 4.06
-10 -11 9 8.96 0.33
-9 -11 9 8.67 22.22
-7 -11 9 1.85 11.04
-6 -11 9 6.15 39.17
-5 -11 9 6.91 22.22
-4 -11 9 12.85 0.39
-3 -11 9 101.84 12.13
1 -11 9 29.02 15.31
4 -11 9 15.3 45.19
6 -11 9 23.91 30.46
8 -11 9 2 0.46
-11 -10 9 1.33 0.25
-10 -10 9 17.88 5.08
-7 -10 9 9.13 14.53
-6 -10 9 7.89 0.31
-5 -10 9 38.39 54.84
-4 -10 9 10.6 30.1
-3 -10 9 110.05 12.61
1 -10 9 16 11.36
3 -10 9 28.67 20.48
4 -10 9 9.26 16.3
5 -10 9 13.36 14.78
9 -10 9 10.89 14.79
-11 -9 9 5.14 30.1
-9 -9 9 18.63 14.62
-7 -9 9 33.1 32.06
-6 -9 9 8.26 13.5
-5 -9 9 7.34 30.1
-4 -9 9 96.94 33.35
-3 -9 9 4.92 10.53
-2 -9 9 78.06 42.48
0 -9 9 48.83 31.31
2 -9 9 7.26 6.77
3 -9 9 96.51 97.69
4 -9 9 17.24 2.72
7 -9 9 58.68 76.17
8 -9 9 8.8 0.32
9 -9 9 25.99 17.27
11 -9 9 3.51 15.53
-12 -8 9 1.15 30.95
-11 -8 9 2.63 3.72
-9 -8 9 11.85 51.64
-8 -8 9 28.9 35.84
-6 -8 9 3.55 39.17
-4 -8 9 71.54 10.17
-3 -8 9 12.69 8.17
-2 -8 9 98.77 22.81
-1 -8 9 27 11.92
0 -8 9 26.43 39.89
1 -8 9 4.8 49.44
2 -8 9 15.82 39.17
3 -8 9 20.02 5.38
4 -8 9 2.08 3.47
6 -8 9 46.2 60.16
7 -8 9 2.13 40.15
9 -8 9 5.04 22.22
11 -8 9 6.02 0.54
-12 -7 9 14.67 4.6
-10 -7 9 23.97 37.98
-8 -7 9 11.81 11.64
-5 -7 9 8.74 16.47
-3 -7 9 97.48 33.44
-2 -7 9 84.06 22.04
-1 -7 9 136.97 78.01
0 -7 9 16.88 48.36
1 -7 9 55.46 73.24
2 -7 9 78.93 68.93
3 -7 9 5.12 39.17
4 -7 9 143.83 94.36
6 -7 9 46.27 37.91
7 -7 9 12.77 49.44
8 -7 9 46.05 30.4
9 -7 9 8.01 30.1
10 -7 9 11.04 19.6
12 -7 9 6.82 15.53
-12 -6 9 20.02 50.53
-11 -6 9 3.43 30.1
-10 -6 9 3.35 2.2
-9 -6 9 31.24 49.47
-8 -6 9 1.55 30.95
-7 -6 9 22.28 0.52
-6 -6 9 1.02 31.82
-5 -6 9 13.56 24.55
-4 -6 9 11.29 18.73
-3 -6 9 1.38 2.89
-2 -6 9 75 9.46
-1 -6 9 5.91 49.44
0 -6 9 3.72 10.04
1 -6 9 111.77 105.13
2 -6 9 5.12 2.72
3 -6 9 8.01 0.31
4 -6 9 140.31 104.85
5 -6 9 10.22 30.1
6 -6 9 77.28 51.88
7 -6 9 17.7 0.92
8 -6 9 9.23 0.33
9 -6 9 29.32 39.05
10 -6 9 22.23 18.55
12 -6 9 33.92 2.55
-12 -5 9 1.72 10.53
-11 -5 9 13.89 0.41
-9 -5 9 132.4 64.13
-8 -5 9 2.6 22.22
-7 -5 9 19.01 29.06
-6 -5 9 44.8 8.05
-4 -5 9 34.88 20.01
-3 -5 9 21.93 5.12
-1 -5 9 12.81 23.46
0 -5 9 55.22 64.96
1 -5 9 41.29 42.13
2 -5 9 12 0.04
4 -5 9 65.74 9.75
6 -5 9 32.1 13
7 -5 9 26.6 11.84
8 -5 9 21.47 41.01
10 -5 9 1.55 31.82
11 -5 9 5.96 15.53
12 -5 9 19.15 30.13
-9 -4 9 21.27 15.62
-7 -4 9 7.11 6.12
-6 -4 9 107.43 46.44
-4 -4 9 108.34 46.63
-3 -4 9 178.61 132.9
-2 -4 9 36.06 6.56
-1 -4 9 202.74 94.91
0 -4 9 125.21 110.05
1 -4 9 92.79 64.21
2 -4 9 154.37 82.82
3 -4 9 18.96 28.55
4 -4 9 69.7 10.04
5 -4 9 51.23 31.29
7 -4 9 84.66 65.35
10 -4 9 9.13 52.76
12 -4 9 3.35 6.4
-10 -3 9 0.94 16.14
-9 -3 9 9.4 13.73
-8 -3 9 67.53 54.78
-7 -3 9 29.2 30.11
-6 -3 9 64.77 71.24
-5 -3 9 106.3 23.66
-3 -3 9 37.51 13.39
-2 -3 9 38.86 54.5
-1 -3 9 109.7 0.11
0 -3 9 6.79 5.7
1 -3 9 36.19 26.29
2 -3 9 90.28 20.77
3 -3 9 114.56 36.26
4 -3 9 176.13 117.47
5 -3 9 153.69 82.64
6 -3 9 1.9 10.04
7 -3 9 207.59 143.27
8 -3 9 17.61 39.17
9 -3 9 58.34 75.96
10 -3 9 9.23 22.95
11 -3 9 9.06 10.86
-12 -2 9 4.95 50.53
-11 -2 9 10.53 39.17
-10 -2 9 1.42 50.53
-9 -2 9 0.94 2.89
-8 -2 9 127.42 50.57
-7 -2 9 59.52 34.56
-6 -2 9 0.88 6.11
-5 -2 9 7.95 0.31
-4 -2 9 11.36 48.36
-3 -2 9 83.65 49.97
-2 -2 9 7.89 22.22
-1 -2 9 26.89 22.66
0 -2 9 96.51 21.47
1 -2 9 116.56 47.19
2 -2 9 11.25 38.21
3 -2 9 9.6 21.49
4 -2 9 2.02 39.17
5 -2 9 177.73 88.86
6 -2 9 34.43 57.71
7 -2 9 183.46 134.69
8 -2 9 36.38 20.43
10 -2 9 66.54 37.44
11 -2 9 14.13 12.73
13 -2 9 11.14 10.21
-12 -1 9 1.52 50.53
-11 -1 9 18.16 9.78
-10 -1 9 6.74 30.1
-9 -1 9 15.86 0.87
-8 -1 9 1.66 50.53
-7 -1 9 6.51 49.44
-6 -1 9 35.01 0.65
-5 -1 9 293.58 1.87
-4 -1 9 225.6 100.12
-3 -1 9 59.01 50.37
-2 -1 9 73.02 28.01
-1 -1 9 249.85 1.73
0 -1 9 148.19 119.72
1 -1 9 357.59 188.04
2 -1 9 53.52 71.95
3 -1 9 39.82 48.27
5 -1 9 110.51 35.61
6 -1 9 4.92 2.42
7 -1 9 45.16 36.72
8 -1 9 66.99 35.78
9 -1 9 11.4 11.81
10 -1 9 177.44 16.01
11 -1 9 29.85 37.02
12 -1 9 21.67 49.44
13 -1 9 55.22 44.66
15 -1 9 10.36 9.85
-11 0 9 8.13 30.95
-10 0 9 8.51 6.7
-7 0 9 26.89 6.23
-6 0 9 46.42 37.97
-5 0 9 53.44 39.94
-4 0 9 68.16 27.06
-3 0 9 15.6 0.04
-2 0 9 81.08 68.88
-1 0 9 85.06 30.23
0 0 9 58.76 33.51
1 0 9 271.01 73.76
2 0 9 540.23 154.93
3 0 9 107.65 91.84
4 0 9 145.93 14.52
5 0 9 8.48 48.36
6 0 9 49.68 0.08
7 0 9 25.05 5.47
11 0 9 17.84 20.77
13 0 9 42.49 1.42
16 0 9 11.04 13.79
-11 1 9 1.68 50.53
-10 1 9 3.66 30.1
-9 1 9 1.68 1.7
-8 1 9 12.46 23.53
-5 1 9 25.16 22.47
-3 1 9 25.43 44.09
-2 1 9 39.21 27.37
-1 1 9 38.46 13.55
0 1 9 542.51 28
1 1 9 422.04 114.49
2 1 9 1800.89 343.16
5 1 9 104.73 44.73
6 1 9 153.56 27.08
7 1 9 6.65 5.64
8 1 9 55.79 8.98
9 1 9 54.89 41.29
10 1 9 11.7 4.49
11 1 9 3.8 22.95
12 1 9 20.96 26.52
13 1 9 2.58 10.53
14 1 9 12.11 30.1
-11 2 9 1.19 16.14
-10 2 9 11.51 0.37
-9 2 9 1.51 22.95
-8 2 9 28.5 40.83
-6 2 9 21.06 25.08
-5 2 9 2.56 10.04
-4 2 9 2.96 2.07
-3 2 9 0.86 6.11
-2 2 9 23.12 0.05
-1 2 9 14.96 0.04
0 2 9 32.6 56.15
2 2 9 13.72 30.1
3 2 9 101.07 67.01
4 2 9 33.1 12.57
5 2 9 458.49 189.53
6 2 9 38.05 0.07
8 2 9 664.78 202.86
9 2 9 9.43 3.69
10 2 9 131.78 40.14
11 2 9 6.21 11.16
12 2 9 54.33 0.81
13 2 9 10.43 14.82
14 2 9 42.56 43.49
16 2 9 5.57 22.95
-11 3 9 1.57 40.15
-10 3 9 8.96 49.44
-8 3 9 22.8 5.74
-7 3 9 4.73 2.61
-6 3 9 3.49 49.44
-5 3 9 25.82 11.66
-4 3 9 34.88 0.65
-3 3 9 44.65 15.33
-2 3 9 39.07 34.15
-1 3 9 8.26 48.36
0 3 9 34.31 51.2
1 3 9 69.79 9.13
2 3 9 135.95 76.45
3 3 9 198.86 124.82
4 3 9 28.09 0.06
5 3 9 74.81 28.35
6 3 9 3.25 4.14
8 3 9 91.74 84.78
9 3 9 14.63 8.36
10 3 9 4.31 49.44
11 3 9 64.51 28.09
13 3 9 18.87 49.44
14 3 9 20.12 20.59
16 3 9 23.54 56.18
-10 4 9 2.13 0.32
-9 4 9 3.93 15.53
-8 4 9 2.53 49.44
-7 4 9 21.16 20.61
-6 4 9 2.46 1.88
-5 4 9 143.44 119.09
-4 4 9 7.8 49.44
-3 4 9 133.41 114.86
-2 4 9 67.44 0.09
-1 4 9 2.89 22.22
0 4 9 88.21 10.26
1 4 9 96.83 75.27
3 4 9 132.28 50.27
4 4 9 78.54 58.1
5 4 9 17.98 4.63
6 4 9 22.08 5.13
7 4 9 53.76 32.05
8 4 9 3.37 4.21
9 4 9 186.73 16.43
10 4 9 3.57 10.04
11 4 9 214.57 100.84
12 4 9 62.25 64.66
-10 5 9 1.88 3.3
-8 5 9 5.52 30.1
-7 5 9 11.81 19.15
-5 5 9 4.87 0.24
-4 5 9 3.29 22.22
-3 5 9 16.35 31.37
-2 5 9 2.53 30.1
-1 5 9 0.77 22.95
0 5 9 25.71 0.06
1 5 9 69.15 36.35
2 5 9 31.98 24.72
3 5 9 93.52 95.11
4 5 9 16.61 26.72
5 5 9 15.52 30.13
6 5 9 103.72 100.16
7 5 9 31.61 0.06
8 5 9 40.24 20.8
9 5 9 121.69 49.42
10 5 9 12.38 30.1
11 5 9 26.27 47.6
12 5 9 13.24 14.31
13 5 9 18.77 17.04
-8 6 9 3.87 0.21
-5 6 9 10.43 18.35
-4 6 9 67.17 9.85
-3 6 9 1.82 40.15
-2 6 9 15.65 17.72
-1 6 9 60.96 42.66
0 6 9 15.13 0.04
1 6 9 38.93 34.09
3 6 9 20.37 0.05
4 6 9 14.38 24.86
6 6 9 44.65 51.11
7 6 9 38.73 61.2
8 6 9 37.71 26.84
9 6 9 40.38 8.33
12 6 9 78.83 81.5
14 6 9 20.76 37.84
-8 7 9 8.8 16.53
-4 7 9 43.71 7.95
-3 7 9 2.24 22.95
-2 7 9 48.68 45.75
-1 7 9 3.64 0.21
0 7 9 21.27 5.04
2 7 9 58.59 8.36
3 7 9 22.13 20.56
4 7 9 27.51 34.39
5 7 9 1.58 10.53
6 7 9 23.01 36.69
7 7 9 18.16 39.17
8 7 9 6.96 15.53
9 7 9 14.67 8.79
10 7 9 28.61 55.53
11 7 9 36.38 9.89
12 7 9 67.71 21.58
13 7 9 23.33 24.28
14 7 9 24.99 41.52
-8 8 9 1.37 2.89
-5 8 9 1.46 40.15
-3 8 9 3.37 4.21
-2 8 9 1.78 15.53
-1 8 9 20.17 15.21
0 8 9 4.24 10.04
1 8 9 0.98 30.95
2 8 9 65.83 79.8
3 8 9 16.93 4.95
4 8 9 61.47 69.4
5 8 9 1.62 0.28
6 8 9 21.72 25.97
7 8 9 17.47 18.27
8 8 9 45.02 0.07
9 8 9 1.07 31.82
10 8 9 27.63 37.33
-7 9 9 3.06 0.38
-5 9 9 1.82 22.95
-3 9 9 27.68 46.57
-2 9 9 10.57 14.57
-1 9 9 24.13 16.64
0 9 9 4.29 49.44
1 9 9 10.36 10.55
2 9 9 19.54 19.8
3 9 9 8.23 49.44
4 9 9 33.42 25.9
5 9 9 7.46 15.53
6 9 9 35.86 33.37
7 9 9 4.11 6.87
8 9 9 13.6 24.58
9 9 9 17.06 18.51
10 9 9 11.14 17.15
-4 10 9 2.65 40.15
-1 10 9 1.01 30.95
0 10 9 6.99 30.1
1 10 9 10.78 3.95
2 10 9 1.24 50.53
3 10 9 7.58 30.1
4 10 9 5.39 2.79
5 10 9 63.9 70.75
6 10 9 83.65 10.99
7 10 9 17.47 18.73
8 10 9 15.52 0.43
9 10 9 15.18 0.85
12 10 9 14.8 3.36
-2 11 9 4.49 30.1
-1 11 9 4.36 2.51
0 11 9 8.39 16.14
1 11 9 5.49 15.53
3 11 9 10.68 7.5
4 11 9 2.63 0.18
5 11 9 5.12 39.17
6 11 9 1.78 1.75
7 11 9 10.43 14.47
9 11 9 6.79 11.68
12 11 9 16.08 21.04
-3 12 9 4.78 30.1
-2 12 9 1.18 30.95
-1 12 9 8.13 22.22
1 12 9 3.78 39.17
2 12 9 3.31 49.44
3 12 9 1.81 0.29
4 12 9 1.42 22.95
5 12 9 1.46 10.53
6 12 9 40.93 21.67
7 12 9 42.99 50.15
8 12 9 4.4 7.11
9 12 9 1.61 23.7
-3 13 9 1.39 22.95
5 13 9 3.68 2.31
7 13 9 3.35 30.1
0 14 9 3.66 30.1
2 14 9 1.52 50.53
3 14 9 2.03 5.74
4 14 9 5.14 49.44
6 14 9 1.44 0.26
7 14 9 2.81 2.02
8 14 9 2.32 16.14
0 15 9 2.02 39.17
2 15 9 1.41 16.14
6 15 9 1.69 16.14
8 15 9 2.21 23.7
2 16 9 1.25 50.53
6 16 9 2.94 0.19
7 16 9 1.94 0.3
-9 -13 10 2.85 30.95
2 -13 10 21.01 56.18
5 -13 10 1.57 23.7
-9 -12 10 3.21 39.17
-8 -12 10 3.98 40.15
-6 -12 10 2.02 0.47
2 -12 10 25.71 55.02
7 -12 10 3.31 50.53
8 -12 10 6.43 6.37
-10 -11 10 7.92 7.07
-8 -11 10 13.52 49.44
-6 -11 10 15.6 22.02
-5 -11 10 4.97 50.53
0 -11 10 46.5 49.18
2 -11 10 34.56 16.7
5 -11 10 11.4 10.33
8 -11 10 9.1 49.44
-11 -10 10 6.43 39.17
-10 -10 10 8.54 6.71
-9 -10 10 34.63 58.52
-6 -10 10 21.52 11.15
0 -10 10 31.86 9.25
3 -10 10 11.11 36.32
5 -10 10 14.96 45.19
7 -10 10 4.92 10.53
8 -10 10 4.47 23.7
9 -10 10 2.21 0.49
-11 -9 10 2.91 2.05
-10 -9 10 6.99 15.53
-9 -9 10 14.01 4.5
-7 -9 10 4.54 40.15
-6 -9 10 8.54 49.44
-5 -9 10 19.25 29.72
-4 -9 10 22.18 41.69
-3 -9 10 198.4 96.97
0 -9 10 6.45 15.53
1 -9 10 73.77 38.48
3 -9 10 27.97 46.81
4 -9 10 27.34 52
5 -9 10 4.52 0.46
6 -9 10 38.52 41.37
7 -9 10 3.13 6.19
8 -9 10 3.17 4.67
11 -9 10 3.31 4.18
-10 -8 10 13.68 0.81
-8 -8 10 2.24 40.15
-7 -8 10 5.44 0.25
-5 -8 10 78.73 0.97
-3 -8 10 236.89 68.96
-2 -8 10 61.64 0.86
-1 -8 10 3.93 30.95
0 -8 10 28.38 52.97
1 -8 10 25.76 33.83
2 -8 10 4.4 30.1
3 -8 10 88.83 12.36
4 -8 10 5.62 22.95
5 -8 10 46.27 33.45
6 -8 10 5.12 11.04
7 -8 10 9.2 16.9
8 -8 10 7.26 6.18
9 -8 10 32.66 39.97
10 -8 10 5.39 10.66
11 -8 10 5.57 10.57
-11 -7 10 2.89 49.44
-9 -7 10 24.88 43.61
-8 -7 10 1.85 22.95
-7 -7 10 36.85 54.39
-6 -7 10 3.72 6.53
-5 -7 10 4.95 10.04
-4 -7 10 67.8 9.9
-2 -7 10 100.3 77.7
0 -7 10 92.68 43.13
1 -7 10 13.24 0.4
3 -7 10 105.62 12.35
4 -7 10 78.44 0.97
5 -7 10 1.11 51.64
7 -7 10 62.59 54.47
8 -7 10 30.63 38.71
9 -7 10 26.55 52.92
10 -7 10 8.1 23.7
11 -7 10 5.14 40.15
-11 -6 10 3.91 4.54
-10 -6 10 1.81 3.23
-9 -6 10 9.8 22.22
-8 -6 10 57.35 0.08
-7 -6 10 3.91 49.44
-5 -6 10 4.02 10.04
-4 -6 10 140.31 78.96
-3 -6 10 6.76 6.25
-2 -6 10 275.7 19.96
-1 -6 10 33.1 57.21
0 -6 10 63.55 9.58
1 -6 10 28.73 46.86
2 -6 10 24.02 49.44
3 -6 10 44.07 7.98
4 -6 10 18.3 0.93
5 -6 10 10.57 3.91
6 -6 10 123.38 25.49
7 -6 10 5.94 8.25
8 -6 10 1.66 3.24
9 -6 10 8.07 0.31
11 -6 10 9.97 32.69
-12 -5 10 10.5 18.06
-11 -5 10 1.09 6.11
-10 -5 10 21.57 30.96
-9 -5 10 10.71 49.44
-8 -5 10 22.44 16.56
-7 -5 10 3.59 10.04
-6 -5 10 3.21 40.15
-5 -5 10 16.7 27.24
-3 -5 10 23.33 42.75
-2 -5 10 132.4 76.7
-1 -5 10 72.56 65.16
0 -5 10 88.32 62.64
1 -5 10 85.67 80.91
2 -5 10 32.6 56.15
3 -5 10 56.6 8.22
4 -5 10 248.64 105.11
5 -5 10 42.49 14.96
6 -5 10 121.33 61.39
7 -5 10 66.9 12.51
8 -5 10 36.85 55.72
9 -5 10 25.54 1.66
10 -5 10 8.32 16.39
11 -5 10 7.52 22.22
12 -5 10 13.4 21.2
-12 -4 10 25.05 0.55
-11 -4 10 1.37 16.77
-10 -4 10 3.21 49.44
-9 -4 10 25.99 34.54
-7 -4 10 22.7 0.52
-6 -4 10 4.85 5.05
-5 -4 10 11.4 0.37
-4 -4 10 8.48 30.1
-2 -4 10 37.31 26.7
0 -4 10 1.5 6.11
1 -4 10 91.95 10.48
2 -4 10 10.11 6.95
3 -4 10 12.54 19.34
4 -4 10 130.15 100.98
5 -4 10 2.31 0.17
6 -4 10 55.54 57.01
7 -4 10 21.32 30.77
8 -4 10 9.63 10.51
9 -4 10 37.31 14.02
10 -4 10 17.29 5.45
12 -4 10 35.53 16.94
13 -4 10 16.7 45.19
-11 -3 10 3.43 30.1
-10 -3 10 0.96 2.89
-9 -3 10 101.51 78.17
-8 -3 10 15.09 4.67
-7 -3 10 52.41 24.52
-6 -3 10 32.98 19.45
-5 -3 10 39.27 7.53
-4 -3 10 61.3 60.75
-2 -3 10 15.78 17.36
-1 -3 10 38.39 60.93
0 -3 10 21.67 5.09
1 -3 10 172.67 101.95
2 -3 10 17.02 18.03
3 -3 10 17.93 23.14
4 -3 10 133.66 1.26
5 -3 10 3.02 30.1
6 -3 10 89.55 93.07
7 -3 10 106.19 34.91
8 -3 10 50.06 23.97
9 -3 10 24.88 11.45
10 -3 10 6.65 31.82
11 -3 10 2.51 3.81
12 -3 10 40.73 10.46
15 -3 10 24.23 30.12
-9 -2 10 7.05 11.9
-7 -2 10 5.47 22.22
-6 -2 10 34.88 13.55
-5 -2 10 6.59 15.53
-4 -2 10 36.91 0.07
-3 -2 10 98.02 22.72
-2 -2 10 72.93 65.32
-1 -2 10 124.48 13.41
0 -2 10 7.67 0.03
1 -2 10 107.09 35.06
2 -2 10 23.59 0.05
3 -2 10 0.92 22.95
4 -2 10 30.45 12.06
5 -2 10 8.77 3.24
6 -2 10 10.85 7.2
7 -2 10 64.25 70.07
8 -2 10 45.46 8.1
9 -2 10 5.83 8.44
11 -2 10 1.85 11.04
14 -2 10 11.18 21.19
15 -2 10 11.14 2.92
-8 -1 10 52.81 0.79
-7 -1 10 33.48 25.29
-6 -1 10 52.65 23.79
-5 -1 10 40.66 14.63
-4 -1 10 7.2 9.09
-3 -1 10 79.9 68.37
-2 -1 10 43.78 0.07
-1 -1 10 151.26 81.98
0 -1 10 10.89 21.64
1 -1 10 47.47 15.06
2 -1 10 95.12 0.11
3 -1 10 183.6 90.32
4 -1 10 208.85 33.16
5 -1 10 228.89 1.65
7 -1 10 203.2 126.17
8 -1 10 22.28 41.27
9 -1 10 43.85 51.38
10 -1 10 8.96 3.6
11 -1 10 4.87 39.17
-11 0 10 2.29 15.53
-10 0 10 2.53 49.44
-8 0 10 32.98 1.25
-7 0 10 62.33 18.12
-5 0 10 1.39 1.42
-3 0 10 24.83 32.67
-2 0 10 11.96 3.78
-1 0 10 58.59 66.92
0 0 10 17.47 9.13
1 0 10 247.26 70.45
2 0 10 28.73 35.14
3 0 10 5.27 5.02
4 0 10 123.75 109.4
5 0 10 120.73 97.25
6 0 10 2.02 3.26
7 0 10 296.02 39.48
8 0 10 26.72 45.18
9 0 10 15.86 22.2
10 0 10 135.06 116.83
11 0 10 5.42 2.8
12 0 10 35.73 14.37
13 0 10 12.81 20.73
14 0 10 1.52 6.5
-11 1 10 8.58 49.44
-10 1 10 2.81 3.85
-9 1 10 4.24 49.44
-7 1 10 10.15 39.17
-6 1 10 15.56 39.17
-5 1 10 162.21 43.14
-4 1 10 135.31 64.83
-3 1 10 6.15 2.71
-2 1 10 45.83 59.18
-1 1 10 84.96 80.58
0 1 10 62.76 60.6
1 1 10 194.12 16.75
2 1 10 49.75 30.83
3 1 10 0.82 10.53
4 1 10 3.53 10.04
5 1 10 17.75 13.81
6 1 10 0.65 6.11
7 1 10 22.91 36.61
8 1 10 22.03 26.16
9 1 10 2.39 10.53
10 1 10 164.58 2.8
11 1 10 2.89 0.37
12 1 10 40.38 14.58
13 1 10 32.29 0.62
14 1 10 1.71 41.13
15 1 10 15.78 23
-10 2 10 6.54 51.64
-9 2 10 1.03 6.5
-8 2 10 0.92 50.53
-7 2 10 4.95 22.22
-6 2 10 84.46 1
-5 2 10 20.32 34.97
-4 2 10 104.84 12.31
-3 2 10 21.11 40.67
-2 2 10 44.94 29.3
-1 2 10 128.91 74.44
0 2 10 105.74 22.47
1 2 10 87.6 20.45
2 2 10 586.38 240.8
3 2 10 60.7 68.11
4 2 10 150.73 55
6 2 10 62.42 25.9
7 2 10 42.35 21.33
8 2 10 12.42 39.17
9 2 10 1.01 50.53
11 2 10 18.58 14.6
13 2 10 62.59 52.74
15 2 10 9.43 22.22
16 2 10 12.15 43.14
-8 3 10 2.55 30.1
-7 3 10 7.14 11.97
-3 3 10 6.29 39.17
-1 3 10 1.88 39.17
0 3 10 194.73 77.77
1 3 10 62.76 69.26
2 3 10 1154.95 267.38
3 3 10 30.51 30.18
4 3 10 29.73 23.83
5 3 10 74.9 0.09
6 3 10 32.66 43.72
7 3 10 62.76 34.63
8 3 10 27.11 51.21
9 3 10 1.27 10.53
10 3 10 14.88 38.21
12 3 10 6.94 30.1
13 3 10 10.01 15.21
14 3 10 4.82 5.28
-10 4 10 8.48 10.18
-9 4 10 1.52 6.11
-8 4 10 16.17 22.41
-6 4 10 4.09 10.04
-5 4 10 7.76 6.39
-3 4 10 3.89 10.04
-2 4 10 21.72 20.88
-1 4 10 2.03 49.44
0 4 10 14.59 8.35
1 4 10 1.08 0.23
3 4 10 79.61 0.1
4 4 10 34.69 25.74
5 4 10 322.73 80.49
6 4 10 7.43 9.24
8 4 10 401.64 113.88
9 4 10 15.73 9.1
10 4 10 87.91 11.27
11 4 10 9.53 2.36
12 4 10 34.63 16.72
14 4 10 26.1 42.43
-9 5 10 3.51 39.17
-8 5 10 7.58 9.33
-6 5 10 10.85 30.1
-5 5 10 13.64 8.07
-3 5 10 63.72 0.09
-2 5 10 7.73 6.69
-1 5 10 45.09 29.35
0 5 10 4.82 22.22
1 5 10 31.55 18.41
2 5 10 19.88 24.36
3 5 10 232.37 118.27
5 5 10 125.33 25.69
6 5 10 1.84 39.17
7 5 10 3.74 6.55
8 5 10 117.51 84.1
9 5 10 7.8 3.36
10 5 10 2.67 40.15
11 5 10 83.26 13.96
13 5 10 21.37 18.18
14 5 10 15.86 16.1
16 5 10 22.65 24.44
-8 6 10 5.19 22.95
-7 6 10 9.2 50.53
-6 6 10 2 40.15
-5 6 10 39.82 62.75
-3 6 10 38.05 54.6
-2 6 10 2.27 22.22
-1 6 10 3.17 4.09
0 6 10 17.98 0.05
1 6 10 12.65 11.66
2 6 10 8.83 21.49
3 6 10 22.49 0.05
4 6 10 1.84 0.15
5 6 10 4.18 10.04
7 6 10 13.56 8.45
8 6 10 3.23 15.53
9 6 10 97.15 87.24
10 6 10 4.36 2.51
11 6 10 125.33 66.06
12 6 10 103.39 4.44
-7 7 10 9.67 7.13
-6 7 10 1.12 11.04
-5 7 10 5.78 2.89
-4 7 10 3.57 39.17
-3 7 10 9.33 39.17
-2 7 10 9.33 16.69
-1 7 10 2.18 10.04
0 7 10 29.26 35.46
1 7 10 44.58 51.07
2 7 10 23.07 49.44
3 7 10 37.25 14.01
4 7 10 10.46 22.22
5 7 10 3.29 6.14
6 7 10 70.34 27.49
7 7 10 24.07 16.62
8 7 10 31.3 31.18
9 7 10 68.52 37.09
10 7 10 8.74 0.32
13 7 10 14.8 15.55
-7 8 10 1.08 16.14
-5 8 10 6.62 11.53
-4 8 10 15.01 50.53
-2 8 10 6.02 2.95
-1 8 10 4.73 2.61
0 8 10 26.21 50.91
1 8 10 6.05 29.26
2 8 10 12.04 11.37
3 8 10 16.08 17.97
4 8 10 1.17 16.14
5 8 10 16.84 13.9
6 8 10 30.33 12.64
8 8 10 48.61 61.71
9 8 10 7.92 39.17
12 8 10 60.28 63.63
13 8 10 12.81 36.32
14 8 10 20.81 3.49
-5 9 10 1.08 16.14
-4 9 10 15.56 39.17
-2 9 10 12.15 0.38
0 9 10 2.89 5.76
1 9 10 4.78 49.44
2 9 10 38.86 41.56
3 9 10 7.46 0.3
4 9 10 10.01 7.61
6 9 10 3.57 0.21
9 9 10 1.22 16.77
10 9 10 12.73 39.17
11 9 10 25.88 42.24
12 9 10 27.51 14.9
13 9 10 25.71 31.03
-5 10 10 3.19 6.25
-2 10 10 3.59 22.22
-1 10 10 3.74 6.55
0 10 10 2.83 30.1
1 10 10 4 4.59
2 10 10 26.6 23.11
3 10 10 24.72 48.9
4 10 10 29.26 47.29
5 10 10 3.19 10.04
6 10 10 17.38 9.57
7 10 10 5.07 10.09
8 10 10 16.08 0.44
9 10 10 4.99 10.04
10 10 10 13.64 12.92
-5 11 10 1.17 16.14
-4 11 10 2.16 22.95
-3 11 10 4.38 39.17
-2 11 10 1.37 2.89
-1 11 10 3.08 22.22
0 11 10 3.91 10.04
1 11 10 2.08 22.22
3 11 10 2.87 39.17
4 11 10 3.8 39.17
6 11 10 16.75 39.17
9 11 10 12.04 49.44
-4 12 10 1.19 16.14
0 12 10 2.21 39.17
1 12 10 3.17 6.03
3 12 10 5.37 10.38
4 12 10 1.42 22.95
5 12 10 28.38 12.22
6 12 10 26.21 28.53
7 12 10 7.37 9.2
8 12 10 10.29 3.86
9 12 10 3.59 49.44
-1 13 10 1.76 5.74
1 13 10 3.93 30.1
3 13 10 1.01 30.95
4 13 10 2.39 3.55
5 13 10 1.22 16.14
7 13 10 5.02 15.53
9 13 10 2.36 22.95
3 14 10 1.09 22.95
6 14 10 11.48 4.44
7 14 10 8.87 10.09
5 15 10 1.41 30.95
4 16 10 1.38 22.95
1 -13 11 13.68 4.04
-6 -12 11 5.67 8.33
-5 -12 11 4.11 41.13
7 -12 11 9.5 4.38
-7 -11 11 4.33 22.95
2 -11 11 43.13 4.31
8 -11 11 1.68 16.77
-9 -10 11 1.37 2.89
-8 -10 11 6.57 39.17
-4 -10 11 17.52 45.19
0 -10 11 11.11 10.56
2 -10 11 63.55 47.91
4 -10 11 10.6 20.99
5 -10 11 4.18 30.95
8 -10 11 22.18 21.62
-10 -9 11 15.3 4.7
-9 -9 11 2.13 40.15
-8 -9 11 17.29 32.26
-7 -9 11 1.48 10.53
-6 -9 11 17.47 0.46
-4 -9 11 13.84 12.6
-3 -9 11 4.56 5.14
-2 -9 11 4.59 5.15
0 -9 11 32.16 56.4
1 -9 11 3.1 4.23
2 -9 11 32.6 6.86
4 -9 11 11.22 0.37
5 -9 11 17.52 44.16
6 -9 11 3.19 10.53
7 -9 11 3.31 0.4
8 -9 11 7.05 9.29
9 -9 11 3.37 50.53
-11 -8 11 11.51 15.57
-10 -8 11 7.52 30.95
-9 -8 11 57.26 50.44
-7 -8 11 8.17 39.17
-6 -8 11 33.92 45.19
-5 -8 11 8.51 3.51
-3 -8 11 2.48 10.53
-2 -8 11 89.14 62.93
-1 -8 11 5.17 39.17
0 -8 11 59.27 35.33
1 -8 11 2.69 16.14
2 -8 11 9.29 39.17
3 -8 11 36.25 20.4
5 -8 11 40.17 15.24
7 -8 11 8.48 22.22
8 -8 11 7.43 15.53
9 -8 11 1.91 3.47
11 -8 11 2.19 40.15
-11 -7 11 5.39 39.17
-9 -7 11 18.3 14.49
-7 -7 11 1 6.11
-6 -7 11 19.93 24.88
-5 -7 11 15.91 22.23
-4 -7 11 2.02 41.13
-3 -7 11 319.01 81.97
-2 -7 11 32.6 19.34
-1 -7 11 31.55 12.89
0 -7 11 4.97 10.04
1 -7 11 67.98 9.91
2 -7 11 12.96 30.1
3 -7 11 54.49 0.81
4 -7 11 4.24 15.53
5 -7 11 21.98 31.25
6 -7 11 49.22 49.83
7 -7 11 19.49 50.53
8 -7 11 19.78 35.96
10 -7 11 5.17 11.04
11 -7 11 6.15 1.08
12 -7 11 7.92 3.69
-10 -6 11 11.77 19.12
-8 -6 11 5.34 10.35
-7 -6 11 5.37 0.25
-5 -6 11 70.34 0.92
-3 -6 11 204.14 142.08
-2 -6 11 106.41 91.31
-1 -6 11 18.82 5.21
0 -6 11 34.43 32.7
1 -6 11 19.54 14.97
2 -6 11 10.46 14.49
3 -6 11 70.34 20.16
4 -6 11 1.71 22.95
5 -6 11 34.11 38.93
6 -6 11 3.02 22.22
7 -6 11 14.34 27.72
8 -6 11 11.74 19.84
9 -6 11 36.58 23.79
10 -6 11 14.46 21.19
11 -6 11 4.61 10.53
12 -6 11 2.27 50.53
-11 -5 11 4.52 0.23
-9 -5 11 9.53 4.05
-8 -5 11 15.13 30.18
-7 -5 11 28.67 47.39
-6 -5 11 2.55 49.44
-5 -5 11 19.15 4.78
-4 -5 11 42.35 64.71
-3 -5 11 6.94 39.17
-2 -5 11 213.77 49.53
-1 -5 11 12.69 8.17
0 -5 11 278.07 165.82
1 -5 11 28.26 0.06
2 -5 11 3.43 22.22
3 -5 11 190.18 106.99
4 -5 11 94.48 96.66
6 -5 11 1.5 16.14
7 -5 11 84.06 72.13
8 -5 11 88.52 68.88
9 -5 11 57.35 9.93
10 -5 11 13.89 25.65
11 -5 11 16.17 34.49
12 -5 11 4.75 30.95
-11 -4 11 1.5 6.11
-9 -4 11 2.67 3.75
-8 -4 11 44.14 15.25
-6 -4 11 0.87 40.15
-4 -4 11 92.05 84.92
-2 -4 11 264.04 108.31
-1 -4 11 1.08 40.15
0 -4 11 75.47 86.39
1 -4 11 3.23 30.1
2 -4 11 0.74 16.14
3 -4 11 47.09 59.99
6 -4 11 146.73 107.22
7 -4 11 85.16 31.26
8 -4 11 7.34 6.22
11 -4 11 24.67 9.23
-11 -3 11 3.29 10.04
-10 -3 11 26.38 29.18
-9 -3 11 10.46 0.35
-8 -3 11 16.97 4.95
-7 -3 11 2.02 22.22
-5 -3 11 23.7 11.17
-4 -3 11 1.73 49.44
-3 -3 11 10.36 17.93
-2 -3 11 126.31 50.35
-1 -3 11 91.53 0.1
0 -3 11 65.92 17.74
1 -3 11 143.83 106.15
2 -3 11 60.03 50.8
3 -3 11 79.22 9.73
4 -3 11 383.46 109.13
5 -3 11 81.57 30.59
6 -3 11 118.34 47.55
7 -3 11 93.1 32.69
8 -3 11 91.42 1.04
9 -3 11 32.54 6.86
10 -3 11 11.92 16.23
11 -3 11 7.26 12.66
12 -3 11 11.89 8.29
-10 -2 11 2.36 3.52
-9 -2 11 7.4 9.22
-8 -2 11 4.47 7.16
-7 -2 11 19.83 19.95
-6 -2 11 1.47 0.27
-5 -2 11 47.17 37.52
-3 -2 11 28.09 12.16
-2 -2 11 45.53 67.1
-1 -2 11 4.9 0.24
0 -2 11 13.84 8.13
1 -2 11 154.78 96.52
3 -2 11 133.16 51.7
4 -2 11 139.67 90.4
5 -2 11 16.13 21.94
6 -2 11 123.5 72.86
7 -2 11 47.77 60.42
8 -2 11 3.41 30.1
9 -2 11 117.03 36.65
10 -2 11 7.58 3.31
11 -2 11 12.15 4.95
12 -2 11 60.62 64.66
13 -2 11 26.1 55.02
-11 -1 11 3.37 49.44
-9 -1 11 68.34 73.17
-8 -1 11 8.67 39.17
-7 -1 11 31.67 49.81
-6 -1 11 13.52 49.44
-5 -1 11 28.67 0.59
-4 -1 11 12.46 48.36
-1 -1 11 9.03 13.14
0 -1 11 9.77 3.42
1 -1 11 74.15 84.69
2 -1 11 3.55 2.27
3 -1 11 7.2 38.21
4 -1 11 25.54 44.18
6 -1 11 77.96 48.24
7 -1 11 69.33 64.6
8 -1 11 137.48 78.16
9 -1 11 13.89 30.1
12 -1 11 32.23 1.24
15 -1 11 30.21 27.63
-9 0 11 8.48 49.44
-8 0 11 1.44 16.14
-7 0 11 19.49 39.17
-6 0 11 22.39 0.52
-5 0 11 17.42 31.93
-4 0 11 50.84 47.53
-3 0 11 99.32 76.23
-2 0 11 158.06 1.37
-1 0 11 176.57 45.01
0 0 11 1.38 22.22
1 0 11 148.19 106.42
2 0 11 32.1 30.96
3 0 11 0.88 22.95
4 0 11 63.63 78.45
5 0 11 31.18 54.92
6 0 11 26.21 27.97
7 0 11 87.29 51.05
8 0 11 43.63 0.07
9 0 11 5.81 2.9
10 0 11 2.44 30.1
12 0 11 13.04 5.92
13 0 11 15.82 26.51
14 0 11 25.1 40.51
15 0 11 9.94 28.43
-9 1 11 4.47 49.44
-8 1 11 12.85 4.7
-7 1 11 16.21 26.4
-6 1 11 5.22 7.74
-5 1 11 32.85 43.84
-4 1 11 4.02 4.6
-3 1 11 10.46 18.03
-2 1 11 99.32 10.89
-1 1 11 49.14 68.94
0 1 11 19.88 24.36
1 1 11 82.36 49.59
2 1 11 15.48 4.3
3 1 11 20.37 29.59
4 1 11 248.47 122.3
5 1 11 64.95 70.45
6 1 11 47.32 60.13
7 1 11 129.28 13.67
9 1 11 73.58 85.3
10 1 11 6.68 15.53
11 1 11 25.38 17.62
14 1 11 24.72 5.98
15 1 11 4.54 22.95
-10 2 11 2.51 5.74
-8 2 11 20.07 20.07
-7 2 11 22.08 49.44
-3 2 11 13.04 49.44
-1 2 11 27.06 28.42
0 2 11 23.75 5.33
1 2 11 98.23 10.83
2 2 11 16.35 30.93
3 2 11 0.76 0.19
4 2 11 88.01 10.25
5 2 11 29.02 41.21
6 2 11 0.72 22.95
7 2 11 150.86 108.72
8 2 11 17.15 48.36
9 2 11 11.66 11.94
10 2 11 90.28 94.48
12 2 11 28.67 35.69
13 2 11 2.16 2.09
-9 3 11 2.92 0.19
-6 3 11 14.17 12.34
-5 3 11 31.79 6.16
-4 3 11 137.99 78.3
-2 3 11 2.31 22.22
-1 3 11 101.95 45.24
0 3 11 35.53 19.54
1 3 11 228.89 67.78
3 3 11 11.89 11.3
4 3 11 3.68 22.22
5 3 11 20.96 10.01
7 3 11 80.49 59.8
8 3 11 20.17 5.4
9 3 11 3.29 30.1
10 3 11 193.2 3.04
12 3 11 56.85 42.02
13 3 11 36.45 27.71
14 3 11 1.71 41.13
15 3 11 30.94 9.72
-7 4 11 2.81 2.02
-6 4 11 25.6 28.75
-4 4 11 39 48.45
-2 4 11 9.84 17.48
-1 4 11 36.38 13.18
0 4 11 12.93 48.36
1 4 11 13.12 3.96
2 4 11 219.73 34.02
4 4 11 78.64 48.45
5 4 11 4.56 10.04
6 4 11 6.62 5.91
7 4 11 34.82 19.34
9 4 11 18.77 0.47
10 4 11 1.44 0.26
13 4 11 56.93 4.12
15 4 11 18.12 45.19
-9 5 11 1.21 31.82
-8 5 11 4.73 10.04
-7 5 11 5.34 30.1
-3 5 11 19.88 49.44
0 5 11 111.89 104.03
1 5 11 30.63 54.43
2 5 11 593.55 31.95
3 5 11 11.59 0.04
4 5 11 17.61 9.17
5 5 11 51.39 7.83
6 5 11 21.06 35.11
7 5 11 41.07 35.72
8 5 11 15.86 39.17
10 5 11 1.9 10.53
11 5 11 3.19 6.25
12 5 11 11.4 10.33
13 5 11 10.22 20.26
-8 6 11 1.73 3.17
-7 6 11 1.82 3.24
-4 6 11 3.68 22.22
-3 6 11 4.42 5.06
-1 6 11 13.36 24.37
0 6 11 1.58 3.02
1 6 11 10.64 29.26
3 6 11 31.3 42.8
5 6 11 230.38 117.76
6 6 11 5.07 49.44
7 6 11 12.81 49.44
8 6 11 227.24 100.48
9 6 11 32.29 25.46
10 6 11 101.51 56.15
11 6 11 7.55 12.31
14 6 11 13.44 19.23
-6 7 11 1.84 10.53
-5 7 11 5.32 7.81
-3 7 11 12.93 30.1
-1 7 11 9.46 13.78
0 7 11 13.97 49.44
1 7 11 16.21 39.17
2 7 11 18.82 48.36
3 7 11 100.74 66.9
4 7 11 3.17 4.09
5 7 11 32.98 50.83
6 7 11 2.02 22.95
8 7 11 44 15.22
9 7 11 12 0.38
10 7 11 4.4 4.81
11 7 11 28.03 52.65
12 7 11 13.84 23.18
16 7 11 14.46 3.32
-7 8 11 2.34 0.17
-5 8 11 17.79 0.92
-4 8 11 1.24 16.14
-3 8 11 23.75 5.86
-2 8 11 1.22 16.14
-1 8 11 3.89 2.37
0 8 11 20.07 20.07
1 8 11 7.23 2.94
2 8 11 23.43 21.69
3 8 11 11.18 49.44
5 8 11 3.29 49.44
6 8 11 4.63 7.29
7 8 11 5.14 22.22
9 8 11 66.99 9.84
10 8 11 8.23 15.99
11 8 11 82.96 93.56
12 8 11 69.88 76.73
-3 9 11 1.33 10.53
0 9 11 9.9 3.44
1 9 11 0.85 1.21
2 9 11 22.23 15.46
3 9 11 1.68 1.7
5 9 11 3.39 4.23
6 9 11 17.79 14.29
8 9 11 20.91 30.48
9 9 11 13.72 30.1
10 9 11 13.84 0.41
-5 10 11 2.26 1.97
-4 10 11 11.04 7.62
-2 10 11 4.42 10.04
-1 10 11 2.29 1.82
0 10 11 7.61 15.53
1 10 11 1.85 10.04
2 10 11 1.06 10.53
3 10 11 3.98 0.22
4 10 11 1.5 16.14
5 10 11 6.02 39.17
6 10 11 7.23 30.95
8 10 11 11.36 11.42
10 10 11 1.59 6.5
12 10 11 34.56 35.98
13 10 11 10.93 3.61
-4 11 11 2.44 3.76
-3 11 11 1.71 40.15
-2 11 11 4.47 4.85
-1 11 11 0.97 0.21
0 11 11 3.51 49.44
1 11 11 2.05 15.53
2 11 11 9.26 39.17
3 11 11 11.74 4.12
4 11 11 3.02 0.19
5 11 11 6.96 11.82
6 11 11 1.87 0.3
9 11 11 1.37 3.16
10 11 11 3.8 4.69
13 11 11 19.63 8.72
2 12 11 6.59 8.7
3 12 11 7.58 12.34
4 12 11 3.04 2.1
5 12 11 2.18 0.32
6 12 11 3.53 4.31
7 12 11 4.68 2.84
8 12 11 4.68 16.14
9 12 11 2.06 10.53
10 12 11 1.65 23.7
-1 13 11 1.97 49.44
0 13 11 1.28 22.95
1 13 11 1.79 3.22
4 13 11 1.54 22.95
6 13 11 6.99 30.1
9 13 11 5.94 0.27
2 14 11 1.78 50.53
3 14 11 1.11 22.95
5 14 11 6.15 15.53
6 14 11 10.71 40.15
7 14 11 2.19 1.94
8 14 11 7.61 30.1
7 15 11 1.3 41.13
6 16 11 2.34 16.14
7 16 11 3.15 30.1
-7 -13 12 20.57 13.38
-7 -12 12 25.99 33.98
-5 -12 12 14.8 7.57
4 -12 12 22.86 29.78
-8 -11 12 3.64 0.42
-5 -11 12 6.13 30.1
-4 -11 12 19.83 8.27
1 -11 12 19.73 18.45
-9 -10 12 3.39 22.95
-6 -10 12 14.3 16.94
-5 -10 12 4.42 2.76
-4 -10 12 26.43 20.23
1 -10 12 7.31 22.22
2 -10 12 13.56 39.17
3 -10 12 12.34 8.06
5 -10 12 3.87 2.58
7 -10 12 15.56 13.36
9 -10 12 2.76 16.14
-10 -9 12 14.01 13.5
-9 -9 12 1.66 0.28
-7 -9 12 15.39 35.4
-6 -9 12 1.63 6.11
-5 -9 12 4.47 7.16
-4 -9 12 9.84 0.69
-3 -9 12 6.4 11.33
-1 -9 12 21.87 18.4
0 -9 12 8.35 9.79
1 -9 12 1.22 3.16
2 -9 12 79.9 20.51
3 -9 12 19.54 0.48
4 -9 12 3.49 6.53
7 -9 12 4.42 22.95
8 -9 12 1.97 6.11
9 -9 12 12.46 13.11
-8 -8 12 8.13 9.66
-7 -8 12 4.66 2.59
-6 -8 12 6.43 30.1
-4 -8 12 14.5 17.06
-3 -8 12 6.07 30.1
-2 -8 12 3.04 40.15
-1 -8 12 28.15 41.16
0 -8 12 7.26 3.53
1 -8 12 10.25 22.22
2 -8 12 49.37 62.19
3 -8 12 2.89 0.37
4 -8 12 8.1 22.22
5 -8 12 3.89 40.15
8 -8 12 21.42 6.07
9 -8 12 4.38 18.06
-10 -7 12 12.34 30.1
-9 -7 12 9.73 22.22
-8 -7 12 14.34 0.41
-6 -7 12 35.53 40.39
-5 -7 12 1.18 0.36
-4 -7 12 32.04 37.73
-1 -7 12 13.68 30.1
0 -7 12 32.6 56.78
1 -7 12 12.5 8.11
2 -7 12 67.8 72.88
3 -7 12 2.53 50.53
4 -7 12 30.09 13.19
5 -7 12 55.62 17.11
6 -7 12 6.1 5.67
7 -7 12 17.24 14.97
8 -7 12 15.09 21.65
9 -7 12 4.18 31.82
10 -7 12 3.1 0.38
11 -7 12 3.08 25.23
-10 -6 12 1.84 22.22
-9 -6 12 53.2 39.85
-8 -6 12 8.48 30.1
-7 -6 12 4.9 5.08
-6 -6 12 25.71 23.27
-5 -6 12 3.08 10.53
-4 -6 12 2.46 50.53
-3 -6 12 4.92 49.44
-2 -6 12 29.55 54.06
-1 -6 12 13.4 8.4
0 -6 12 33.73 32.37
1 -6 12 1.15 16.77
2 -6 12 21.27 40.82
3 -6 12 12.69 39.17
4 -6 12 24.56 16.79
5 -6 12 49.06 62
6 -6 12 17.61 18.8
7 -6 12 29.44 27.27
8 -6 12 2.65 40.15
9 -6 12 10.64 7.84
10 -6 12 6.96 6.06
12 -6 12 3.59 30.95
-9 -5 12 13.16 30.1
-7 -5 12 4.78 30.1
-6 -5 12 22.86 31.87
-5 -5 12 23.17 6.31
-3 -5 12 319.6 138.7
-2 -5 12 32.72 38.13
-1 -5 12 18.73 19.39
0 -5 12 1.37 0.26
1 -5 12 111.89 105.19
2 -5 12 18.73 9.93
3 -5 12 76.81 67.99
4 -5 12 3.87 6.66
5 -5 12 16.08 8.76
6 -5 12 58.34 9.18
7 -5 12 9.7 17.36
8 -5 12 34.76 3.87
9 -5 12 1.71 0.43
10 -5 12 8.9 3.59
11 -5 12 3.25 50.53
12 -5 12 12.23 0.76
-10 -4 12 3.45 0.2
-8 -4 12 11.33 7.72
-6 -4 12 4.87 0.48
-5 -4 12 43.35 0.72
-4 -4 12 21.11 20.59
-3 -4 12 236.05 102.41
-2 -4 12 137.1 26.87
0 -4 12 95.54 11.75
1 -4 12 1.82 10.04
2 -4 12 93.21 84.4
3 -4 12 90.49 84.2
4 -4 12 3.43 22.22
5 -4 12 90.69 32.26
6 -4 12 16.97 27.01
7 -4 12 0.94 16.14
8 -4 12 59.77 26.19
9 -4 12 39.69 35.8
10 -4 12 44 2.9
11 -4 12 13.52 42.13
12 -4 12 3.59 51.64
-9 -3 12 5.6 15.53
-8 -3 12 12.11 15.97
-7 -3 12 9.63 49.44
-6 -3 12 1.12 10.53
-5 -3 12 2.14 6.11
-4 -3 12 22.18 41.69
-2 -3 12 162.21 126.65
-1 -3 12 32.23 31.64
0 -3 12 211.54 49.27
1 -3 12 151.53 14.8
2 -3 12 1.43 15.53
3 -3 12 91.42 62.69
4 -3 12 187.92 136.32
6 -3 12 3.7 30.1
7 -3 12 38.19 27.01
8 -3 12 84.66 71.39
9 -3 12 27.63 23.55
10 -3 12 31.61 12.9
11 -3 12 15.65 22.05
-10 -2 12 2.69 0.18
-8 -2 12 46.27 67.64
-6 -2 12 4.31 2.5
-5 -2 12 2.83 15.53
-4 -2 12 101.4 1.1
-3 -2 12 8.83 0.32
-2 -2 12 341.05 102.92
-1 -2 12 13.97 48.36
0 -2 12 82.16 70.33
1 -2 12 17.42 18.25
2 -2 12 1.61 22.22
3 -2 12 99.21 77.28
4 -2 12 4.54 15.53
5 -2 12 4.13 22.22
6 -2 12 187.03 31.38
7 -2 12 112.93 94.06
8 -2 12 1.48 2.93
9 -2 12 1.43 6.11
11 -2 12 42.06 14.88
-10 -1 12 8.93 22.22
-9 -1 12 17.24 5.45
-8 -1 12 8.61 3.53
-7 -1 12 10.04 49.44
-6 -1 12 2.41 22.22
-5 -1 12 16.97 31.96
-4 -1 12 6.15 2.98
-3 -1 12 3.39 15.53
-2 -1 12 42.2 43.3
-1 -1 12 12.85 29.26
0 -1 12 87.6 92.05
1 -1 12 97.91 21.63
3 -1 12 142.78 92.71
4 -1 12 228.06 100.67
5 -1 12 291.9 57.88
6 -1 12 107.99 57.92
7 -1 12 213.93 113.48
8 -1 12 57.51 41.44
9 -1 12 39.27 7.53
11 -1 12 25.82 28.87
12 -1 12 4.38 50.53
13 -1 12 22.44 31.58
-10 0 12 0.98 10.53
-9 0 12 6.26 3.28
-8 0 12 1.12 2.89
-7 0 12 15.52 49.44
-5 0 12 28.73 12.3
-3 0 12 7.46 22.22
-2 0 12 7.17 15.53
0 0 12 0.79 1.17
1 0 12 89.45 0.1
3 0 12 78.44 38.71
4 0 12 56.77 0.08
5 0 12 10.85 21.6
6 0 12 51.7 7.86
7 0 12 52.89 0.08
8 0 12 12.77 23.82
9 0 12 86.68 51.89
11 0 12 4.95 5.35
12 0 12 34.05 0.64
13 0 12 33.16 47.83
14 0 12 7.34 30.1
-9 1 12 36.58 0.66
-8 1 12 19.63 20.82
-7 1 12 30.63 55.04
-5 1 12 51.7 40.07
-4 1 12 5.17 7.7
-3 1 12 11.29 7.71
-2 1 12 13.84 24.4
-1 1 12 7.8 22.22
0 1 12 8.17 29.26
1 1 12 93 42.15
2 1 12 19.3 33.6
3 1 12 25.43 27.55
4 1 12 29.14 11.8
5 1 12 1.79 10.04
6 1 12 168.67 72.38
7 1 12 94.37 96.6
8 1 12 240.1 103.29
9 1 12 25.21 32.92
10 1 12 1.34 10.53
11 1 12 1.66 3.1
12 1 12 44.43 1.46
14 1 12 1.59 31.82
15 1 12 42.2 50.4
-9 2 12 1.61 10.53
-8 2 12 1.28 40.15
-7 2 12 3.19 6.05
-6 2 12 1.66 3.1
-5 2 12 5.62 16.14
-4 2 12 5.86 10.84
-3 2 12 36.78 0.66
-2 2 12 109.02 103.83
-1 2 12 30.82 55.2
0 2 12 35.08 25.89
1 2 12 31.55 0.06
2 2 12 1.61 2.91
3 2 12 1.97 49.44
4 2 12 13.84 48.36
6 2 12 33.42 56.85
7 2 12 11.85 3.76
8 2 12 87.6 72.62
10 2 12 1.22 30.95
11 2 12 7.2 9.09
12 2 12 12.89 23.93
13 2 12 2.98 2.26
14 2 12 54.08 24.91
15 2 12 2.46 10.53
16 2 12 16.7 36.32
-8 3 12 7.7 6.37
-7 3 12 10.75 30.1
-6 3 12 7.67 9.38
-5 3 12 9.94 40.15
-4 3 12 14.09 8.61
-3 3 12 12.85 30.1
-2 3 12 74.34 0.94
-1 3 12 30.21 43.25
0 3 12 4.31 10.04
1 3 12 55.62 48.9
2 3 12 19.63 14.53
3 3 12 11.96 3.78
4 3 12 183.01 104.96
5 3 12 36.45 39.58
6 3 12 33.42 31.58
7 3 12 60.11 50.83
8 3 12 3.8 15.53
9 3 12 40.59 8.35
10 3 12 8.74 22.22
11 3 12 19.11 0.48
14 3 12 15.65 28.96
15 3 12 12.23 58.52
-8 4 12 1.71 10.53
-7 4 12 11.14 4.01
-5 4 12 4.66 30.1
-4 4 12 1.19 2.89
-3 4 12 1.59 50.53
-2 4 12 1.25 50.53
-1 4 12 16.13 13.6
1 4 12 128.29 38.37
2 4 12 5.29 5.28
3 4 12 32.29 6.21
4 4 12 113.4 12.8
6 4 12 19.68 15.03
7 4 12 109.82 1.15
8 4 12 2.02 0.31
9 4 12 48.38 23.56
10 4 12 69.61 28.26
11 4 12 4.2 10.53
12 4 12 39.62 38.52
-6 5 12 3.76 10.04
-5 5 12 12.34 30.1
-4 5 12 36.32 7.24
-3 5 12 1.28 40.15
-2 5 12 9 22.22
-1 5 12 24.23 10.76
0 5 12 14.21 20.6
1 5 12 82.86 60.68
2 5 12 4.8 2.63
3 5 12 24.34 26.96
4 5 12 4.8 0.24
6 5 12 1.19 2.89
7 5 12 40.31 27.75
9 5 12 5.47 7.92
10 5 12 75.95 49.52
11 5 12 3.68 30.1
12 5 12 35.47 16.92
13 5 12 15.18 15.75
15 5 12 31.55 52.78
-6 6 12 16.26 9.25
-4 6 12 30.94 55.31
-1 6 12 34.95 45.22
0 6 12 7.95 0.31
2 6 12 126.19 74.88
4 6 12 42.99 36.54
5 6 12 1.75 30.95
6 6 12 1.88 40.15
7 6 12 40.03 34.57
9 6 12 12.5 39.17
13 6 12 56.11 4.09
15 6 12 18.58 36.27
-7 7 12 3.35 2.2
-5 7 12 1.11 51.64
-3 7 12 3.17 4.09
-2 7 12 4.63 15.53
0 7 12 9.23 39.17
1 7 12 2.11 1.75
2 7 12 205.7 32.91
3 7 12 29.02 5.89
4 7 12 27.51 5.73
5 7 12 9.5 30.1
6 7 12 1.04 51.64
7 7 12 25.99 11.7
9 7 12 3.57 6.4
-5 8 12 3.02 0.19
-3 8 12 3.25 0.2
-1 8 12 1.62 15.53
3 8 12 16.66 22.75
5 8 12 76.71 58.38
6 8 12 6.48 11.41
8 8 12 87.91 93.23
9 8 12 16.79 4.93
10 8 12 48.45 31.19
11 8 12 10.82 11.14
-5 9 12 1.27 22.95
-4 9 12 2.62 39.17
-3 9 12 4.59 39.17
-1 9 12 10.18 21.49
0 9 12 3.37 6.22
1 9 12 1.93 22.95
2 9 12 0.99 16.14
3 9 12 44.29 7.27
4 9 12 12.65 8.55
5 9 12 18.58 49.44
6 9 12 2.13 40.15
7 9 12 1.99 16.14
8 9 12 31.86 49.96
9 9 12 9.2 30.1
10 9 12 9.9 14.1
11 9 12 10.18 3.84
12 9 12 15.82 45.19
16 9 12 11.25 6.97
-5 10 12 2.19 2.1
-3 10 12 3.35 0.4
0 10 12 1.99 1.69
2 10 12 9.1 22.22
9 10 12 19.2 15.8
10 10 12 5.75 3.41
11 10 12 27.17 46.71
12 10 12 50.76 28.03
-3 11 12 1.41 6.11
0 11 12 6.02 39.17
2 11 12 6.96 30.1
5 11 12 2.14 30.95
6 11 12 6.34 30.1
8 11 12 6.71 11.6
9 11 12 5.47 15.53
10 11 12 3.89 50.53
0 12 12 2.13 22.22
3 12 12 1.99 16.14
5 12 12 6.99 50.53
7 12 12 2.56 6.11
8 12 12 4.38 40.15
2 13 12 4.99 39.17
3 13 12 3.87 22.22
5 13 12 2.08 0.32
3 14 12 4.33 4.78
5 14 12 1.18 16.77
6 14 12 1.39 1.55
7 14 12 1.24 3.16
6 15 12 2.89 0.37
6 16 12 3.04 30.95
5 -13 13 13.64 7.67
-7 -12 13 14.01 15.54
3 -12 13 22.18 34.48
-7 -11 13 23.59 14.86
2 -11 13 18.4 46.24
6 -11 13 14.01 58.52
-8 -10 13 4.87 5.07
-7 -10 13 23.54 50.53
-5 -10 13 15.91 35.4
0 -10 13 38.86 31.34
2 -10 13 3.89 4.74
3 -10 13 20.52 10.39
4 -10 13 36.25 48.69
6 -10 13 6.59 12.07
7 -10 13 3.06 6.11
8 -10 13 5.44 8.16
-8 -9 13 2.06 40.15
-6 -9 13 1.99 2
-5 -9 13 3.04 4.19
-4 -9 13 50.53 39.61
-3 -9 13 3.31 50.53
-2 -9 13 11.62 50.53
-1 -9 13 14.21 19.36
0 -9 13 9.06 30.1
1 -9 13 41.43 35.87
3 -9 13 34.76 45.74
4 -9 13 4.24 16.14
6 -9 13 2.55 10.53
7 -9 13 14.13 40.15
8 -9 13 5.94 5.59
10 -9 13 12.96 39.17
-6 -8 13 10.36 39.17
-4 -8 13 33.99 13.38
-3 -8 13 3.23 4.32
-1 -8 13 26.66 23.13
1 -8 13 25.99 28.41
2 -8 13 5.27 22.22
3 -8 13 63.02 62.46
7 -8 13 18.12 19.07
9 -8 13 15.22 26
10 -8 13 5.17 39.17
11 -8 13 12.3 30.95
-9 -7 13 2.03 30.95
-7 -7 13 25.82 39.42
-6 -7 13 1.11 51.64
-5 -7 13 9.9 22.95
-4 -7 13 3.23 40.15
-3 -7 13 9.23 40.15
-1 -7 13 30.88 18.82
0 -7 13 17.29 18.63
1 -7 13 2.16 1.93
2 -7 13 96.08 54.63
3 -7 13 19.68 34.42
4 -7 13 1.44 0.26
5 -7 13 3.74 30.1
8 -7 13 1.87 0.45
9 -7 13 20.61 0.5
10 -7 13 1.66 23.7
-8 -6 13 2.1 1.9
-7 -6 13 18.58 24.02
-6 -6 13 3.06 49.44
-5 -6 13 8.07 6.83
-4 -6 13 32.1 50.15
-3 -6 13 3.27 40.15
-2 -6 13 26.83 29.43
-1 -6 13 62.33 52.63
1 -6 13 52.02 47.29
2 -6 13 68.79 47.13
3 -6 13 7.02 30.1
4 -6 13 38.59 55.67
5 -6 13 17.79 14.29
6 -6 13 6.1 16.14
7 -6 13 2.36 22.95
8 -6 13 29.44 55.14
9 -6 13 14.09 31.82
10 -6 13 1.5 51.64
11 -6 13 2.92 0.56
12 -6 13 4.33 7.28
-10 -5 13 9.23 0.66
-9 -5 13 8.54 3.83
-8 -5 13 5.94 10.92
-6 -5 13 24.99 44.8
-4 -5 13 28.85 53.41
-3 -5 13 2.31 10.04
-2 -5 13 2.85 30.95
-1 -5 13 6.88 0.29
1 -5 13 15.82 17.82
2 -5 13 31.24 12.83
4 -5 13 53.6 32.8
5 -5 13 31.86 25.29
6 -5 13 33.86 45.15
7 -5 13 22.03 10.77
9 -5 13 13.97 0.41
10 -5 13 3.68 50.53
12 -5 13 5.89 31.82
-9 -4 13 46.12 67.53
-8 -4 13 6.1 11.33
-7 -4 13 4.95 7.78
-6 -4 13 38.59 61.78
-5 -4 13 10.93 22.22
-4 -4 13 10.75 30.1
-3 -4 13 24.94 44.2
-2 -4 13 16.17 4.83
-1 -4 13 19.83 34.55
0 -4 13 58.85 51.13
2 -4 13 56.44 32.84
3 -4 13 19.25 0.48
4 -4 13 35.73 52.91
5 -4 13 58.18 34.17
6 -4 13 18.87 4.75
7 -4 13 26.83 40.19
8 -4 13 5.04 0.25
9 -4 13 9.53 49.44
10 -4 13 13.89 51.64
12 -4 13 5.49 16.14
-10 -3 13 3.37 22.22
-9 -3 13 5.83 15.53
-8 -3 13 3.96 39.17
-6 -3 13 22.18 10.81
-5 -3 13 3.31 22.22
-4 -3 13 5.73 10.98
-3 -3 13 229.22 1.65
-2 -3 13 86.78 1.02
-1 -3 13 42.77 15.01
1 -3 13 21.93 0.51
2 -3 13 64.25 52.55
3 -3 13 32.85 38.2
4 -3 13 11.4 7.75
5 -3 13 20.96 5.5
6 -3 13 27.97 40.46
7 -3 13 37.92 13.46
8 -3 13 57.1 66.88
9 -3 13 27.34 29.14
10 -3 13 34.63 52.08
12 -3 13 36.06 41.99
-10 -2 13 3.51 16.14
-8 -2 13 13.97 39.17
-7 -2 13 1.22 0.24
-6 -2 13 1.15 0.23
-5 -2 13 15.39 21.86
-4 -2 13 7.26 22.22
-3 -2 13 113.86 1.17
-2 -2 13 105.4 102.09
-1 -2 13 5.29 49.44
0 -2 13 54.57 32.29
2 -2 13 53.6 72
3 -2 13 35.27 38.94
4 -2 13 3.51 40.15
5 -2 13 46.35 7.44
6 -2 13 12.77 11.71
8 -2 13 44.51 43.74
9 -2 13 16.93 13.94
10 -2 13 33.29 13.87
11 -2 13 4.87 39.17
12 -2 13 9 10.16
-10 -1 13 1.11 1.5
-8 -1 13 14.96 26.21
-6 -1 13 7.64 15.53
-5 -1 13 4.11 2.44
-4 -1 13 4.04 0.22
-3 -1 13 6.45 15.53
-2 -1 13 154.91 42.16
-1 -1 13 86.68 51.89
0 -1 13 244.87 53.01
1 -1 13 178.9 1.46
2 -1 13 8.96 22.22
3 -1 13 119.77 108.83
4 -1 13 173.1 87.7
5 -1 13 19.88 24.36
7 -1 13 14.46 48.36
8 -1 13 106.3 68.72
9 -1 13 39.69 27.54
10 -1 13 42.06 50.32
11 -1 13 37.71 48.32
12 -1 13 3.43 6.48
13 -1 13 19.59 41.13
14 -1 13 10.53 57.34
-8 0 13 14.3 4.54
-7 0 13 3.43 30.1
-6 0 13 2.51 0.17
-4 0 13 35.53 32.57
-3 0 13 9.84 7.2
-2 0 13 143.83 40.63
-1 0 13 70.71 45.94
0 0 13 20.42 15.31
1 0 13 1.12 50.53
2 0 13 1.04 6.11
3 0 13 52.97 47.72
4 0 13 16.3 4.41
5 0 13 19.59 14.51
6 0 13 64.25 35.03
7 0 13 234.88 85.41
9 0 13 2.67 30.1
10 0 13 3.27 15.53
11 0 13 43.49 22.34
12 0 13 2.87 40.15
13 0 13 18.54 5.18
14 0 13 4.87 5.31
-9 1 13 7.98 15.74
-8 1 13 4.87 5.07
-7 1 13 1.72 10.53
-5 1 13 19.11 10.03
-3 1 13 3.39 50.53
-2 1 13 18.3 14.02
-1 1 13 22.08 31.32
0 1 13 46.79 30.65
1 1 13 125.09 1.22
3 1 13 105.85 0.11
4 1 13 174.68 44.77
5 1 13 229.22 51.29
6 1 13 51.15 55.49
7 1 13 169.81 72.62
8 1 13 85.56 31.33
9 1 13 34.63 26.36
11 1 13 12.3 8.43
13 1 13 12.65 4.28
-8 2 13 2.32 6.11
-7 2 13 5.47 0.26
-6 2 13 7.02 6.08
-5 2 13 23.7 38.3
-4 2 13 12.57 4.26
-3 2 13 19.39 25.02
-2 2 13 2.24 0.33
-1 2 13 5.96 0.53
0 2 13 24.72 38.58
1 2 13 46.94 67.38
2 2 13 31.61 12.9
3 2 13 102.28 88.41
4 2 13 16.79 17.91
5 2 13 45.24 22.05
6 2 13 68.79 82.48
7 2 13 36.45 20.45
8 2 13 81.87 49.44
9 2 13 83.96 91.11
10 2 13 13.28 39.17
11 2 13 11.04 49.44
12 2 13 26.38 17.96
13 2 13 40.1 42.21
14 2 13 3.19 10.53
-8 3 13 8.58 6.72
-7 3 13 8.87 30.1
-5 3 13 12.23 8.02
-3 3 13 1.54 40.15
0 3 13 2.21 22.22
1 3 13 9.13 48.36
2 3 13 27.45 23.48
5 3 13 3.55 15.53
6 3 13 96.08 43.92
7 3 13 25.16 44.4
8 3 13 248.64 122.34
10 3 13 12.77 0.39
11 3 13 1.16 16.14
12 3 13 22.23 42.25
15 3 13 21.67 18.82
-8 4 13 2.13 0.16
-7 4 13 3.78 10.04
-5 4 13 7.14 11.97
-4 4 13 9.94 39.17
-3 4 13 14.42 0.41
-2 4 13 112.58 59.13
-1 4 13 16.75 27.28
0 4 13 46.5 44.71
1 4 13 20.81 49.44
3 4 13 3.06 49.44
4 4 13 26.77 6.22
6 4 13 35.66 46.33
7 4 13 4.78 5.02
8 4 13 40.66 28.57
11 4 13 7.37 12.17
12 4 13 15.91 30.95
14 4 13 56.85 78.27
16 4 13 13.8 7.31
-7 5 13 1.85 10.53
-5 5 13 4.68 22.22
-4 5 13 2.42 30.95
-2 5 13 41.43 7.74
0 5 13 14.71 30.1
1 5 13 25.27 39
3 5 13 1.76 1.6
4 5 13 72.09 28.76
6 5 13 35.86 0.07
7 5 13 7.61 30.1
9 5 13 37.31 20.69
10 5 13 1.48 10.53
11 5 13 38.32 1.35
14 5 13 14.3 36.32
15 5 13 13.56 46.24
-7 6 13 3.59 2.28
-2 6 13 3.21 16.14
-1 6 13 9.87 1.37
0 6 13 4.73 0.24
1 6 13 50.22 62.72
2 6 13 1.19 0.24
3 6 13 12.27 49.44
4 6 13 34.37 26.27
5 6 13 2.7 15.53
6 6 13 1.78 16.14
7 6 13 36.85 47.1
9 6 13 25.88 11.67
10 6 13 19.39 10.11
11 6 13 4.52 4.88
12 6 13 11.81 49.44
-4 7 13 15.91 0.44
-3 7 13 2.94 22.95
-1 7 13 19.11 34.87
1 7 13 67.53 71.84
3 7 13 32.16 0.62
7 7 13 50.68 16.34
8 7 13 3.1 15.53
9 7 13 9.56 3.72
10 7 13 34.95 26.49
11 7 13 3.19 50.53
12 7 13 25.38 6.06
13 7 13 10.5 6.73
15 7 13 28.79 50.42
-6 8 13 1.72 10.53
-4 8 13 4.47 40.15
-3 8 13 1.73 16.14
-1 8 13 3.21 6.07
2 8 13 20.86 0.05
3 8 13 2.7 39.17
4 8 13 8.51 9.88
7 8 13 12.19 4.2
8 8 13 9.73 10.57
9 8 13 6.71 5.94
10 8 13 4.06 6.83
13 8 13 28.73 15.23
14 8 13 14.5 28.3
-3 9 13 3.43 23.7
-2 9 13 2.13 0.32
0 9 13 3.93 0.22
1 9 13 1.85 0.3
2 9 13 78.64 78.49
3 9 13 6.62 8.72
4 9 13 14.25 16.92
5 9 13 3.21 22.22
7 9 13 4.75 0.71
-2 10 13 2.48 22.95
1 10 13 2.56 6.11
3 10 13 1.66 50.53
4 10 13 2.32 22.95
5 10 13 21.27 40.82
6 10 13 9.23 3.65
8 10 13 31.98 38.93
9 10 13 16.04 27.13
10 10 13 28.44 41.37
11 10 13 10.22 10.83
0 11 13 1.66 3.1
1 11 13 1.16 2.89
2 11 13 1.39 1.55
3 11 13 10.46 18.03
4 11 13 3.43 50.53
5 11 13 1.75 16.14
6 11 13 1.62 16.14
8 11 13 7.55 0.3
9 11 13 5.67 5.47
10 11 13 2.76 6.11
0 12 13 1.73 16.14
2 12 13 5.44 2.8
9 12 13 7.67 3.33
10 12 13 3.33 2.39
11 12 13 11 11.96
2 13 13 1.78 1.75
10 13 13 1.94 51.64
5 14 13 2.51 30.95
3 15 13 1.79 11.04
5 15 13 1.9 3.31
-5 -11 14 12.73 28.43
3 -11 14 20.22 8.84
5 -11 14 25.1 14.78
-7 -10 14 12.08 19.75
-6 -10 14 17.38 12.3
-4 -10 14 14.5 11.65
-3 -10 14 10.08 58.52
1 -10 14 10.64 11.41
3 -10 14 36.25 40.13
5 -10 14 17.52 17.38
8 -10 14 13.8 10.15
-8 -9 14 5.42 0.51
-7 -9 14 27.23 29.08
-6 -9 14 16.26 40.15
-5 -9 14 5.96 49.44
-2 -9 14 12.77 4.3
0 -9 14 6.34 30.1
1 -9 14 11 25.23
2 -9 14 27.97 1.73
3 -9 14 27.45 29.2
4 -9 14 13.52 24.51
5 -9 14 4.2 50.53
6 -9 14 23.91 25.11
8 -9 14 7.26 3.53
-8 -8 14 1.21 2.89
-7 -8 14 15.56 17.67
-5 -8 14 32.41 44.17
-4 -8 14 7.61 12.36
-3 -8 14 23.07 50.53
-2 -8 14 32.48 44.21
-1 -8 14 5.65 8.05
0 -8 14 100.08 77.62
2 -8 14 8.39 49.44
3 -8 14 14.54 21.25
4 -8 14 84.06 12.02
5 -8 14 1.62 50.53
6 -8 14 21.62 33.53
7 -8 14 5.02 30.1
8 -8 14 11.04 4.36
-9 -7 14 1.42 50.53
-8 -7 14 3.35 49.44
-6 -7 14 2.05 6.11
-5 -7 14 1.68 30.95
-4 -7 14 34.88 14.2
-3 -7 14 14.13 1.64
-2 -7 14 9.9 49.44
-1 -7 14 2.81 10.53
0 -7 14 20.22 40.29
1 -7 14 35.86 0.65
3 -7 14 93 22.13
5 -7 14 10.46 18.38
6 -7 14 1.68 30.95
7 -7 14 11.11 37.26
8 -7 14 14.71 49.44
10 -7 14 12.81 20.34
11 -7 14 2.96 11.04
-8 -6 14 1.57 22.95
-6 -6 14 15.86 4.79
-4 -6 14 39.96 21.41
-3 -6 14 1.91 23.7
-2 -6 14 1.94 1.83
-1 -6 14 43.13 65.31
1 -6 14 61.39 43.66
2 -6 14 6.54 30.1
3 -6 14 97.48 88.47
4 -6 14 4 23.7
6 -6 14 3.96 30.95
7 -6 14 23.33 1.06
9 -6 14 25.1 3.28
10 -6 14 4.52 2.79
11 -6 14 19.15 5.74
-8 -5 14 3.78 30.1
-7 -5 14 36.45 40.24
-6 -5 14 3.06 22.95
-5 -5 14 31.18 43.32
-2 -5 14 3.33 39.17
-1 -5 14 35.01 13.58
1 -5 14 18.44 28.63
2 -5 14 76.42 29.61
3 -5 14 57.35 67.03
4 -5 14 11.96 23.05
6 -5 14 18.44 14.55
7 -5 14 10.96 3.98
9 -5 14 61.64 46.33
10 -5 14 8.74 50.53
11 -5 14 4.22 7.18
13 -5 14 16.75 3.13
-9 -4 14 1.25 2.89
-7 -4 14 12.85 49.44
-5 -4 14 3.15 0.19
-4 -4 14 16.44 0.44
-2 -4 14 22.91 21.44
-1 -4 14 28.5 0.58
0 -4 14 2 40.15
1 -4 14 28.55 29.78
2 -4 14 26.72 17.51
3 -4 14 4.78 22.22
4 -4 14 27.17 29.05
5 -4 14 9.73 39.17
6 -4 14 14.5 39.17
8 -4 14 12.11 0.38
9 -4 14 11.59 4.84
11 -4 14 2.19 30.95
12 -4 14 5.7 17.41
13 -4 14 1.87 0.3
-9 -3 14 11.74 11.6
-8 -3 14 1.75 16.14
-6 -3 14 34.95 26.49
-4 -3 14 64.07 27.12
-2 -3 14 21.11 20.08
-1 -3 14 19.83 29.68
1 -3 14 22.86 31.87
2 -3 14 53.84 8.82
4 -3 14 113.63 24.46
5 -3 14 44.51 29.16
6 -3 14 53.04 8.75
7 -3 14 35.21 46.04
8 -3 14 5.89 10.87
9 -3 14 16.17 4.83
10 -3 14 18.21 33.11
11 -3 14 1.46 23.7
12 -3 14 12.27 8.8
13 -3 14 2.11 16.77
14 -3 14 11.36 36.32
-9 -2 14 19.93 5.37
-8 -2 14 10.93 31.82
-7 -2 14 5.32 22.22
-6 -2 14 17.06 0.45
-4 -2 14 13.16 4.36
-3 -2 14 3.76 49.44
-1 -2 14 5.81 39.17
0 -2 14 13.44 12.42
1 -2 14 9.06 0.33
2 -2 14 47.17 0.75
3 -2 14 5.86 22.22
4 -2 14 65.21 36.18
5 -2 14 12.73 3.9
6 -2 14 71.91 84.32
7 -2 14 29.85 47.76
9 -2 14 38.05 7.41
10 -2 14 25.16 49.88
11 -2 14 6.59 8.7
12 -2 14 17.61 39.17
-9 -1 14 2.18 10.53
-6 -1 14 17.24 40.15
-5 -1 14 3.43 30.1
-4 -1 14 2.27 22.22
-3 -1 14 149.52 121.59
-2 -1 14 39.82 55.86
-1 -1 14 21.16 30.67
0 -1 14 1.88 40.15
1 -1 14 15.05 4.24
2 -1 14 45.02 43.99
3 -1 14 24.18 32.78
4 -1 14 2.96 22.22
5 -1 14 8.96 22.22
6 -1 14 34.69 45.7
7 -1 14 20.81 0.5
8 -1 14 51.62 23.55
9 -1 14 36.32 26.34
10 -1 14 17.15 18.56
11 -1 14 1.79 40.15
12 -1 14 24.18 6.45
-8 0 14 7.92 4
-7 0 14 14.25 12.79
-6 0 14 1.85 40.15
-4 0 14 14.92 39.17
-3 0 14 80.98 10.82
-2 0 14 106.07 91.16
-1 0 14 3.49 15.53
0 0 14 35.66 59.38
1 0 14 19.88 49.44
2 0 14 79.9 9.77
3 0 14 21.77 0.05
4 0 14 31.79 55.45
5 0 14 80.19 88.07
6 0 14 7.46 9.25
7 0 14 19.11 33.91
8 0 14 58.76 16.75
9 0 14 2.32 16.14
10 0 14 48.76 7.63
11 0 14 9.84 14.05
12 0 14 14.67 21.76
13 0 14 3.13 4.45
-8 1 14 4.13 39.17
-4 1 14 2.69 40.15
-2 1 14 61.82 43.82
-1 1 14 57.51 17.4
0 1 14 66.63 36.57
1 1 14 186.13 107.34
3 1 14 28.67 18.14
4 1 14 160.26 125.89
5 1 14 5.27 10.28
6 1 14 28.67 35.11
7 1 14 3.15 22.22
8 1 14 31.18 48.81
9 1 14 15.78 0.43
10 1 14 40.45 7.64
11 1 14 22.18 21.1
13 1 14 23.49 49.44
14 1 14 4.45 40.15
15 1 14 12.38 19.61
-8 2 14 8.87 10.09
-6 2 14 5.17 39.17
-5 2 14 1.25 10.53
-4 2 14 15.43 17.6
-3 2 14 20.96 35.52
-2 2 14 101.84 67.27
-1 2 14 68.07 64.01
0 2 14 14.67 4.6
2 2 14 1.43 16.14
3 2 14 72.18 47.35
4 2 14 11.33 39.17
5 2 14 21.72 25.97
6 2 14 38.73 27.88
7 2 14 156.96 124.58
8 2 14 1.34 40.15
10 2 14 1.96 6.11
11 2 14 36.52 60.09
12 2 14 2.48 10.04
13 2 14 16.17 31.2
14 2 14 3.49 40.15
-7 3 14 4 16.14
-6 3 14 1.42 50.53
-5 3 14 3.83 22.22
-4 3 14 12.3 0.38
-3 3 14 5.34 0.25
-1 3 14 2.1 0.32
0 3 14 28.03 23.72
1 3 14 37.85 20.84
2 3 14 31.24 0.61
3 3 14 48.61 22.86
4 3 14 31.18 12.2
5 3 14 228.89 84.31
6 3 14 14.54 16.67
7 3 14 207.43 48.79
8 3 14 43.06 36.57
9 3 14 10.46 0.35
10 3 14 8.74 39.17
11 3 14 6.68 8.75
12 3 14 1.91 40.15
13 3 14 14.5 11.24
-7 4 14 3.11 0.39
-6 4 14 2.06 10.53
-5 4 14 8.1 6.53
-4 4 14 5.34 30.95
0 4 14 7.92 6.46
1 4 14 12.15 11.81
2 4 14 12.81 16.03
3 4 14 19.98 39.07
4 4 14 3.98 10.04
5 4 14 11 14.86
6 4 14 22.13 10.8
7 4 14 22.91 42.36
8 4 14 63.37 61.76
9 4 14 20.91 40.48
10 4 14 17.24 4.99
12 4 14 11.07 7.64
13 4 14 29.85 27.46
-7 5 14 2.37 16.14
-6 5 14 3.35 6.4
-5 5 14 6.88 30.1
-3 5 14 4.97 7.55
-2 5 14 4.68 5.2
0 5 14 11.62 19
1 5 14 3.96 10.04
2 5 14 24.29 11.31
3 5 14 1.32 2.89
4 5 14 1.28 40.15
6 5 14 108.22 103.45
7 5 14 9.2 13.59
8 5 14 217.95 1.61
10 5 14 8.42 22.22
11 5 14 3.74 10.53
12 5 14 17.93 0.46
15 5 14 11.33 3.31
-3 6 14 2.36 2.01
-2 6 14 35.27 53.87
0 6 14 23.81 32.52
2 6 14 4.59 7.26
4 6 14 1.44 50.53
5 6 14 5.29 49.44
6 6 14 8.67 9.98
7 6 14 4.29 4.75
8 6 14 19.93 10.24
11 6 14 10.39 22.22
12 6 14 4.42 10.04
14 6 14 41.36 32.33
16 6 14 10.85 10.44
-5 7 14 2.19 31.82
-4 7 14 3.08 50.53
-2 7 14 16.08 39.17
0 7 14 2.08 3.47
1 7 14 13.72 20.24
3 7 14 1.33 2.89
4 7 14 27.23 0.57
6 7 14 6.51 5.86
7 7 14 2.69 30.95
8 7 14 1.88 0.3
9 7 14 20.96 25.52
11 7 14 18.77 49.44
15 7 14 11.36 10.68
-5 8 14 1.94 0.3
-3 8 14 3.59 22.22
-2 8 14 2.02 0.31
-1 8 14 2.39 50.53
1 8 14 35.4 26.66
2 8 14 1.5 6.11
3 8 14 18.73 19.39
4 8 14 11.66 30.1
5 8 14 10.01 30.1
6 8 14 3.33 2.39
7 8 14 15.86 0.44
8 8 14 1.25 11.04
9 8 14 24.07 27.34
10 8 14 2.74 3.98
11 8 14 6.88 22.22
12 8 14 4.82 15.53
-4 9 14 1.71 11.04
-2 9 14 1.62 31.82
-1 9 14 4.33 41.13
1 9 14 12.93 23.96
2 9 14 2.18 3.55
3 9 14 10.46 22.22
4 9 14 5.65 49.44
7 9 14 16.93 4.95
8 9 14 8.96 49.44
9 9 14 1.42 11.04
10 9 14 3.33 2.39
11 9 14 1.75 50.53
12 9 14 8.32 22.22
15 9 14 14.8 7.57
2 10 14 9.5 3.7
4 10 14 4.63 39.17
6 10 14 2.13 3.51
7 10 14 5.94 16.14
8 10 14 4.49 40.15
10 10 14 1.42 23.7
13 10 14 15.3 8.12
-2 11 14 1.71 11.04
2 11 14 18.02 0.46
3 11 14 4.97 10.04
4 11 14 7.31 3.25
6 11 14 3.31 22.95
9 11 14 1.35 41.13
5 12 14 3.66 2.3
6 12 14 1.96 1.83
8 12 14 13.56 39.17
9 12 14 6.71 3.11
10 12 14 9.33 49.44
11 12 14 7.49 9.27
3 13 14 2.37 6.11
4 13 14 2.39 0.34
8 13 14 2.62 16.14
9 13 14 3.93 6.94
10 13 14 1.73 16.77
9 14 14 1.84 41.13
-3 -10 15 27.74 3.45
-1 -10 15 13.52 57.34
0 -10 15 10.96 58.52
2 -10 15 19.59 45.19
3 -10 15 2.14 6.5
7 -10 15 2.49 16.77
-6 -9 15 1.79 11.04
-5 -9 15 11.66 0.75
-4 -9 15 9.63 50.53
-3 -9 15 2.89 40.15
-1 -9 15 9.5 6.4
0 -9 15 4.4 2.75
2 -9 15 4.97 0.49
3 -9 15 16.88 27.39
5 -9 15 34.76 39.3
7 -9 15 3.35 0.4
8 -9 15 2.65 3.91
-7 -8 15 21.21 1.01
-6 -8 15 31.43 55.74
-4 -8 15 15.65 17.72
-3 -8 15 21.62 41.16
-2 -8 15 16.75 49.44
-1 -8 15 2.91 10.53
1 -8 15 12.46 4.24
3 -8 15 40.1 63.66
5 -8 15 22.44 10.87
6 -8 15 4.75 10.53
8 -8 15 22.18 8.75
10 -8 15 2.34 3.68
-8 -7 15 9.2 6.96
-7 -7 15 11.77 40.15
-6 -7 15 33.42 44.85
-5 -7 15 2.67 3.93
-3 -7 15 6.88 30.1
-2 -7 15 18.3 39.17
0 -7 15 20.66 40.24
1 -7 15 5.65 49.44
2 -7 15 65.83 62.95
3 -7 15 29.61 42.22
4 -7 15 15.01 39.17
6 -7 15 47.17 8.26
8 -7 15 24.99 22.4
10 -7 15 4.63 40.15
11 -7 15 12.04 1.14
-8 -6 15 1.1 50.53
-7 -6 15 6.59 16.14
-5 -6 15 27.57 46.48
-4 -6 15 3.96 30.1
-3 -6 15 37.98 61.29
-2 -6 15 12.11 15.97
0 -6 15 96.08 43.92
1 -6 15 5.04 39.17
2 -6 15 10.04 4.16
3 -6 15 27.68 24.15
4 -6 15 76.81 87.15
5 -6 15 7.86 3.37
6 -6 15 10.25 30.1
8 -6 15 11.59 37.26
-8 -5 15 1.68 16.14
-7 -5 15 1.25 10.53
-6 -5 15 2 22.95
-4 -5 15 34.43 32.7
-3 -5 15 22.65 5.72
-2 -5 15 18.58 9.89
-1 -5 15 2.32 2
0 -5 15 30.82 24.87
1 -5 15 61.73 60.96
3 -5 15 194.27 31.98
4 -5 15 1.87 10.53
5 -5 15 17.65 14.23
6 -5 15 1.12 30.95
7 -5 15 24.07 43.43
8 -5 15 19.25 24.45
10 -5 15 24.56 49.44
11 -5 15 6.65 30.1
12 -5 15 16.97 4.95
-8 -4 15 1.71 0.43
-6 -4 15 2.72 30.95
-4 -4 15 12.15 23.24
-3 -4 15 12.34 49.44
-2 -4 15 2.87 6.11
-1 -4 15 22.08 15.92
0 -4 15 2.14 6.11
1 -4 15 79.7 80
2 -4 15 5.73 10.72
3 -4 15 168.67 116.37
4 -4 15 26.1 6.7
5 -4 15 4.59 49.44
6 -4 15 13.44 16.43
7 -4 15 9.29 16.99
8 -4 15 19.06 0.05
9 -4 15 39.21 22.58
11 -4 15 44.58 15.32
-8 -3 15 2.55 22.95
-7 -3 15 29.5 7.72
-6 -3 15 3.98 10.04
-5 -3 15 17.06 27.53
-3 -3 15 4.75 15.53
-1 -3 15 39 62.1
1 -3 15 9.23 14.27
2 -3 15 59.01 59.6
3 -3 15 25.38 5.5
4 -3 15 11.11 0.36
5 -3 15 0.92 50.53
6 -3 15 20.07 24.48
7 -3 15 3.45 22.22
8 -3 15 3.7 10.04
9 -3 15 46.72 30.62
10 -3 15 33.73 45.06
12 -3 15 1.94 1.83
13 -3 15 18.44 42.13
14 -3 15 23.01 55.02
-7 -2 15 10.78 8.25
-6 -2 15 1.62 3.06
-5 -2 15 9.6 30.1
-4 -2 15 21.52 35.48
-3 -2 15 2.55 3.66
-2 -2 15 57.26 17.37
-1 -2 15 19.49 14.95
0 -2 15 19.83 49.44
1 -2 15 41.43 15.47
2 -2 15 25.1 49.82
3 -2 15 14.09 38.21
4 -2 15 74.81 56.71
5 -2 15 7.14 39.17
6 -2 15 49.45 0.77
7 -2 15 2.46 22.22
8 -2 15 5.17 5.22
9 -2 15 20.91 30.48
11 -2 15 1.81 3.23
12 -2 15 20.22 10.32
14 -2 15 10.04 36.32
-6 -1 15 15.91 0.44
-5 -1 15 1.1 51.64
-4 -1 15 34.18 0.64
-3 -1 15 14.59 17.53
-2 -1 15 18.87 5.22
0 -1 15 16.52 40.15
1 -1 15 5.47 0.26
2 -1 15 9.13 3.63
3 -1 15 9.4 10.38
4 -1 15 75.57 38
5 -1 15 1.76 1.74
6 -1 15 70.06 10.06
7 -1 15 10.78 0.36
9 -1 15 20.66 40.24
10 -1 15 13.2 4.37
11 -1 15 3.06 6.11
12 -1 15 16.52 23.1
13 -1 15 11.51 15.57
14 -1 15 10.36 58.52
-8 0 15 3.93 15.53
-6 0 15 20.66 35.27
-4 0 15 17.98 50.53
-3 0 15 7.29 12.09
-1 0 15 6.94 6.04
0 0 15 21.37 40.91
1 0 15 11.7 22.8
2 0 15 63.98 44.58
3 0 15 11.81 7.89
4 0 15 38.19 40.52
5 0 15 5.94 10.92
6 0 15 36.38 40.21
7 0 15 22.44 31.06
9 0 15 35.21 20.1
10 0 15 21.77 15.81
11 0 15 11.07 11.64
12 0 15 8.64 13.17
14 0 15 6.57 0.28
-8 1 15 2.58 2.11
-6 1 15 3.8 22.95
-4 1 15 2.63 6.11
-3 1 15 55.22 25.17
-2 1 15 54.81 33.98
-1 1 15 22.39 0.52
1 1 15 5.83 22.22
2 1 15 27.23 29.08
4 1 15 15.6 9.07
5 1 15 3.89 49.44
6 1 15 2.91 49.44
7 1 15 38.32 41.26
8 1 15 28.2 35.4
9 1 15 83.96 71.09
10 1 15 14.67 17.16
11 1 15 9.23 39.17
12 1 15 34.43 20.52
13 1 15 1.75 1.73
14 1 15 17.11 0.9
15 1 15 1.99 2
-7 2 15 6.48 31.82
-3 2 15 29.38 13.03
-2 2 15 45.53 8.85
0 2 15 5.83 8.18
1 2 15 6.96 15.53
2 2 15 14.42 16.6
3 2 15 10.08 39.17
4 2 15 16.35 17.67
5 2 15 26.77 40.14
7 2 15 11.7 18.69
8 2 15 13.72 20.24
10 2 15 15.35 0.43
11 2 15 3.33 2.19
12 2 15 16.93 27.42
-7 3 15 2.63 40.15
-6 3 15 1.15 2.89
-3 3 15 1.85 10.53
-2 3 15 24.13 0.54
-1 3 15 59.35 43.78
0 3 15 38.86 28.61
1 3 15 120.97 37.26
3 3 15 27.63 51.69
4 3 15 122.78 1.21
5 3 15 16.66 49.44
6 3 15 27.57 12.05
8 3 15 22.08 10.78
9 3 15 21.11 25.61
10 3 15 48.53 69.27
11 3 15 30.15 24.6
12 3 15 1.62 0.28
13 3 15 23.01 22.02
15 3 15 11.62 3.35
-6 4 15 1.24 51.64
-4 4 15 1.71 0.29
-3 4 15 2.74 0.36
-2 4 15 17.02 27.5
-1 4 15 45.02 15.4
1 4 15 2.8 10.04
3 4 15 11 0.36
4 4 15 30.45 24.12
5 4 15 6.74 3.12
7 4 15 116.21 1.18
8 4 15 6.85 49.44
9 4 15 4.99 7.57
10 4 15 6.59 5.89
11 4 15 10.93 3.97
12 4 15 11.33 39.17
13 4 15 12.46 19.67
-5 5 15 2.67 40.15
-4 5 15 2.98 2.26
-3 5 15 2.19 6.5
-1 5 15 5.86 40.15
0 5 15 15.52 22.38
1 5 15 29.85 30.45
2 5 15 19.98 9.77
3 5 15 16.66 22.75
4 5 15 20.37 4.93
5 5 15 95.97 86.71
6 5 15 6.62 11.53
7 5 15 99.43 66.47
8 5 15 34.11 45.95
9 5 15 3.21 6.07
10 5 15 2.19 1.94
13 5 15 3.02 30.95
-5 6 15 2.08 3.47
-4 6 15 8.01 0.31
-3 6 15 1.44 0.39
-1 6 15 1.47 51.64
0 6 15 12.93 12.57
2 6 15 21.72 25.97
3 6 15 7.23 12.04
5 6 15 17.38 27.79
6 6 15 13.08 12.25
7 6 15 2.49 0.35
8 6 15 70.06 28.36
9 6 15 3.91 4.54
10 6 15 23.01 37.22
12 6 15 5.09 50.53
13 6 15 26.55 55.02
-1 7 15 1.87 10.53
2 7 15 4.99 15.53
3 7 15 1.87 22.95
5 7 15 3.02 6.11
6 7 15 35.08 46.6
8 7 15 105.51 34.8
9 7 15 7.58 0.3
10 7 15 6.45 8.88
12 7 15 3.87 39.17
-2 8 15 17.24 23.14
0 8 15 12 4.16
3 8 15 1.17 30.95
4 8 15 2.22 30.95
5 8 15 3.37 0.4
6 8 15 4.2 50.53
7 8 15 1.51 11.04
8 8 15 3.59 6.63
11 8 15 8.26 9.74
12 8 15 1.48 11.04
14 8 15 25.38 41.84
-2 9 15 2.58 40.15
1 9 15 2.87 22.22
2 9 15 2.58 39.17
3 9 15 1.9 11.04
4 9 15 2.05 30.95
5 9 15 5.57 49.44
9 9 15 8.96 3.6
11 9 15 12.73 23.78
-2 10 15 1.78 6.5
-1 10 15 3.11 10.53
1 10 15 11.44 7.76
2 10 15 1.08 0.23
3 10 15 3.41 2.22
5 10 15 2.91 10.53
7 10 15 4.92 2.67
9 10 15 5.78 39.17
-1 11 15 1.65 23.7
1 11 15 5.91 10.89
3 11 15 5.32 0.25
7 11 15 8.58 30.1
8 11 15 9 39.17
12 11 15 3.85 6.86
2 12 15 1.72 3.15
8 12 15 4.13 0.44
2 13 15 5.73 30.1
3 13 15 1.57 22.95
4 13 15 3.1 22.22
8 14 15 4 2.62
9 14 15 4.02 22.95
-1 -10 16 16.39 46.24
4 -10 16 7.55 0.3
7 -10 16 4.36 23.7
-4 -9 16 1.99 40.15
-3 -9 16 2.1 31.82
2 -9 16 5.34 5.56
4 -9 16 3.21 0.39
5 -9 16 8.29 49.44
7 -9 16 11.18 7.67
-7 -8 16 18.4 56.18
-3 -8 16 17.56 5.04
-1 -8 16 11.85 0.75
0 -8 16 4.99 2.93
2 -8 16 19.59 10.16
4 -8 16 4.11 6.87
5 -8 16 2.6 6.11
6 -8 16 2.06 3.61
-5 -7 16 14.67 41.13
-4 -7 16 14.75 30.1
-3 -7 16 5.12 40.15
-1 -7 16 19.35 24.51
0 -7 16 11.04 22.22
2 -7 16 14.5 4.58
3 -7 16 22.13 42.67
5 -7 16 45.9 0.74
8 -7 16 5.81 49.44
-7 -6 16 9.5 13.81
-6 -6 16 38.05 14.83
-4 -6 16 28.03 6.36
-3 -6 16 21.67 50.53
-2 -6 16 13.84 39.17
-1 -6 16 16.61 18.26
2 -6 16 8.45 0.32
3 -6 16 27.51 0.57
4 -6 16 6.4 39.17
5 -6 16 48.91 62.67
6 -6 16 1.55 16.14
7 -6 16 14.05 24.98
8 -6 16 39.89 17.94
9 -6 16 5.37 2.78
10 -6 16 10.18 22.95
-7 -5 16 6.74 31.82
-6 -5 16 21.93 21.49
-4 -5 16 3.83 22.95
-3 -5 16 6.59 49.44
-2 -5 16 20.12 39.7
-1 -5 16 1.44 16.77
0 -5 16 10.6 7.47
1 -5 16 2.58 10.53
2 -5 16 44.21 58.86
3 -5 16 46.5 0.75
4 -5 16 19.88 19.97
6 -5 16 37.25 0.67
7 -5 16 7.11 6.12
8 -5 16 18.3 14.49
10 -5 16 5.24 12.09
11 -5 16 14.71 17.18
12 -5 16 3.23 32.69
-7 -4 16 1.91 0.3
-5 -4 16 40.66 35.53
-3 -4 16 83.65 41.98
-2 -4 16 6.79 15.53
0 -4 16 128.53 1.24
1 -4 16 3.87 10.53
2 -4 16 21.57 5.58
3 -4 16 6.99 3.18
4 -4 16 79.8 41
5 -4 16 28.09 29.54
6 -4 16 16.66 4.46
8 -4 16 17.11 0.45
9 -4 16 2.02 10.53
10 -4 16 1.66 11.04
11 -4 16 7.08 3.2
-4 -3 16 5.57 0.26
-3 -3 16 20.86 30.45
-2 -3 16 2.08 40.15
0 -3 16 25.82 50.53
1 -3 16 24.07 43.96
2 -3 16 11.55 11.51
3 -3 16 205.23 32.87
4 -3 16 46.12 15.58
5 -3 16 35.73 20.25
6 -3 16 2.14 49.44
7 -3 16 9.84 22.22
8 -3 16 32.48 13.08
9 -3 16 1.94 1.83
10 -3 16 9.5 0.67
11 -3 16 8.29 30.1
12 -3 16 10.04 0.35
13 -3 16 9.03 10.51
-5 -2 16 2.08 3.63
-4 -2 16 11.36 30.95
-3 -2 16 3.41 2.42
-1 -2 16 29.44 53.95
1 -2 16 92.68 87.32
2 -2 16 8.96 3.6
3 -2 16 139.8 41.34
4 -2 16 36.98 33.89
6 -2 16 16.13 48.36
7 -2 16 7.46 22.22
8 -2 16 22.44 21.22
9 -2 16 26.66 6.21
11 -2 16 31.55 31.92
12 -2 16 1.29 40.15
13 -2 16 3.15 10.53
-7 -1 16 11.66 5.22
-6 -1 16 13.89 30.95
-5 -1 16 14.46 39.17
-4 -1 16 3.25 49.44
-2 -1 16 4.92 22.22
-1 -1 16 10.32 0.35
0 -1 16 9.1 6.92
1 -1 16 6.99 39.17
2 -1 16 15.95 26.62
3 -1 16 34.95 45.87
4 -1 16 20.42 48.36
5 -1 16 4.82 49.44
6 -1 16 57.35 25.65
8 -1 16 24.88 39.25
9 -1 16 56.52 16.43
10 -1 16 62.33 26.74
11 -1 16 3.15 22.95
13 -1 16 12.34 50.53
14 -1 16 38.73 65.28
-7 0 16 2.19 30.95
-5 0 16 1.15 16.77
-4 0 16 8.17 49.44
-3 0 16 2.53 3.82
-2 0 16 23.17 43.13
0 0 16 11.07 7.64
1 0 16 3.57 2.48
2 0 16 9.77 17.42
3 0 16 3.91 2.38
4 0 16 39.48 62.48
6 0 16 30.51 12.68
7 0 16 1.58 10.04
8 0 16 1.23 30.95
9 0 16 6.13 8.38
12 0 16 15.65 4.75
13 0 16 3.19 23.7
14 0 16 7.86 15.62
-6 1 16 16.21 32.12
-5 1 16 5.02 0.24
-4 1 16 38.93 14.32
-3 1 16 15.6 17.7
-2 1 16 19.88 30.21
0 1 16 13.2 24.62
1 1 16 8.83 17.21
2 1 16 11.59 18.97
3 1 16 15.35 12.84
4 1 16 72.18 28.78
6 1 16 52.57 15.85
7 1 16 14.46 0.42
8 1 16 1.08 40.15
9 1 16 26.94 11.91
10 1 16 24.67 5.97
11 1 16 7.46 0.3
12 1 16 17.52 27.9
13 1 16 13.4 30.95
14 1 16 14.17 4.53
-6 2 16 5.49 5.38
-4 2 16 3.49 6.33
-2 2 16 2.83 16.14
0 2 16 1.72 23.7
1 2 16 15.56 27.16
2 2 16 13.28 20.31
3 2 16 54 56.21
4 2 16 10.93 3.97
5 2 16 3.49 2.25
6 2 16 36.91 13.94
7 2 16 11.22 0.37
8 2 16 5.49 30.1
9 2 16 49.83 30.86
10 2 16 5.81 22.22
11 2 16 31.49 25.14
12 2 16 7.37 49.44
15 2 16 12.96 36.32
-3 3 16 38.73 35.36
-2 3 16 17.15 9.5
-1 3 16 11.96 23.05
1 3 16 4.66 16.14
2 3 16 6.54 0.28
4 3 16 1.09 40.15
5 3 16 2.7 3.77
6 3 16 3.17 22.22
7 3 16 13.97 12.66
8 3 16 11.44 0.37
9 3 16 49.83 1.54
11 3 16 7.26 50.53
12 3 16 13.52 39.17
14 3 16 20.22 45.19
-4 4 16 1.69 1.85
-3 4 16 11.92 25.23
-2 4 16 36.25 1.32
-1 4 16 3.29 32.69
1 4 16 12.5 15.84
2 4 16 9.03 3.61
3 4 16 3.91 39.17
4 4 16 37.05 33.92
5 4 16 19.68 29.57
6 4 16 2.78 49.44
7 4 16 17.61 49.44
8 4 16 4.78 0.24
9 4 16 1.21 0.36
10 4 16 12.81 39.17
11 4 16 3.87 0.21
12 4 16 23.38 16.38
-2 5 16 5.73 30.1
-1 5 16 11.74 19.84
0 5 16 2.67 3.93
1 5 16 47.62 23.38
2 5 16 1.79 10.53
3 5 16 4 2.4
4 5 16 63.9 35.81
6 5 16 40.52 56.34
9 5 16 10.75 30.1
10 5 16 30.75 30.91
11 5 16 7.67 9.38
12 5 16 7.14 15.53
13 5 16 8.77 16.83
15 5 16 10.29 3.15
-3 6 16 2.91 10.53
-2 6 16 6.99 40.15
-1 6 16 20.71 40.28
2 6 16 1.15 0.23
3 6 16 7.86 49.44
4 6 16 11.96 23.05
5 6 16 3.04 15.53
7 6 16 45.61 67.15
8 6 16 3.37 15.53
10 6 16 4.99 7.57
11 6 16 3 16.14
12 6 16 5.7 39.17
13 6 16 5.32 10.33
-4 7 16 2.76 6.11
-2 7 16 2.65 30.95
0 7 16 3.76 39.17
1 7 16 2.46 30.1
2 7 16 18.21 19.12
5 7 16 45.68 45.05
7 7 16 78.73 68.84
8 7 16 18.3 5.14
10 7 16 2.44 3.76
12 7 16 1.9 0.45
13 7 16 3.15 50.53
0 8 16 3.23 4.32
2 8 16 2.53 30.95
5 8 16 3.29 50.53
6 8 16 2.72 0.54
8 8 16 24.45 27.56
10 8 16 7.34 15.53
12 8 16 2.39 0.34
13 8 16 12.19 7.25
-1 9 16 3.39 17.41
2 9 16 1.81 0.29
6 9 16 16.08 17.97
8 9 16 51.94 40.95
9 9 16 5.57 50.53
10 9 16 2.94 16.77
11 9 16 1.59 50.53
5 10 16 1.94 31.82
7 10 16 3.74 10.53
11 10 16 4.31 50.53
1 11 16 1.72 3.15
5 11 16 1.51 11.04
9 11 16 3.89 2.59
11 11 16 3.57 40.15
2 12 16 2.55 30.95
3 12 16 1.75 1.88
5 12 16 1.96 6.5
8 12 16 1.73 0.43
7 13 16 2.48 22.95
8 13 16 4.09 30.95
4 -10 17 4.15 0.45
6 -10 17 1.96 1.99
-4 -9 17 2.29 30.95
-3 -9 17 4.31 7.26
-1 -9 17 17.65 56.18
1 -9 17 24.5 22.18
4 -9 17 17.56 23.35
7 -9 17 5.29 7.79
-1 -8 17 20.27 32.96
0 -8 17 3.66 22.95
1 -8 17 20.07 10.28
4 -8 17 21.82 32.67
5 -8 17 1.84 10.53
6 -8 17 9.5 22.95
8 -8 17 1.85 0.3
9 -8 17 1.52 51.64
-6 -7 17 1.59 30.95
-4 -7 17 1.71 3.28
2 -7 17 4.11 16.14
4 -7 17 2.94 15.53
5 -7 17 3 16.14
6 -7 17 6.1 5.94
8 -7 17 2.36 2.01
10 -7 17 6.59 30.1
-4 -6 17 6.48 11.41
-3 -6 17 13.97 13.07
-1 -6 17 19.68 30.06
0 -6 17 8.39 10.13
2 -6 17 43.49 29.55
4 -6 17 12.85 16.06
5 -6 17 4.15 10.04
6 -6 17 1.47 6.11
7 -6 17 5.44 22.95
9 -6 17 1.68 1.84
-5 -5 17 2.58 6.11
-4 -5 17 18.4 0.47
-1 -5 17 25.1 9.31
0 -5 17 1.84 11.04
1 -5 17 9 13.77
2 -5 17 16.39 6.19
3 -5 17 2 10.53
4 -5 17 5.19 10.53
5 -5 17 34.43 32.7
7 -5 17 16.26 0.88
8 -5 17 4.04 0.22
9 -5 17 6.21 40.15
10 -5 17 2.27 40.15
-6 -4 17 29.32 18.34
-4 -4 17 11.89 6.78
-3 -4 17 15.05 39.17
-2 -4 17 22.34 17.04
-1 -4 17 14.67 17.16
2 -4 17 3.72 40.15
3 -4 17 22.18 31.39
4 -4 17 1.91 0.3
5 -4 17 56.77 25.52
7 -4 17 18.58 14.6
8 -4 17 29.32 53.84
9 -4 17 8.64 22.95
10 -4 17 8.29 13.22
-6 -3 17 18.35 14.51
-3 -3 17 13.93 30.95
-2 -3 17 6.88 6.02
-1 -3 17 15.73 26.44
0 -3 17 10.32 50.53
2 -3 17 66.9 64.35
3 -3 17 34.37 58.3
4 -3 17 4.71 15.53
5 -3 17 4.45 15.53
6 -3 17 26.77 0.57
7 -3 17 23.22 5.27
8 -3 17 27.8 0.06
10 -3 17 13.56 4.43
11 -3 17 26.49 28.68
12 -3 17 11.22 0.37
13 -3 17 12.89 20.01
-5 -2 17 20.66 0.5
-3 -2 17 56.36 10.66
0 -2 17 57.84 42.39
1 -2 17 10.25 40.15
2 -2 17 14.38 39.17
3 -2 17 19.73 5.34
4 -2 17 38.8 55.13
5 -2 17 17.84 0.05
8 -2 17 7.11 6.41
10 -2 17 4.54 15.53
11 -2 17 5.02 30.1
12 -2 17 2.49 16.14
13 -2 17 7.98 0.93
-5 -1 17 4.02 7.23
-3 -1 17 18.68 24.09
-2 -1 17 3.31 40.15
0 -1 17 30.03 0.6
1 -1 17 29.02 41.8
2 -1 17 13.8 30.95
3 -1 17 212.5 33.45
4 -1 17 53.36 55.88
5 -1 17 27.74 51.8
6 -1 17 1.21 16.14
7 -1 17 18.12 33.02
8 -1 17 34.69 45.05
10 -1 17 8.23 15.99
11 -1 17 5.37 10.38
12 -1 17 13.4 4.8
13 -1 17 5.14 39.17
-3 0 17 3.29 10.04
-1 0 17 2.85 4.06
0 0 17 4.52 30.95
1 0 17 40.38 15.97
2 0 17 44.14 15.25
3 0 17 94.9 43.65
4 0 17 80.59 69.65
5 0 17 2.98 15.53
6 0 17 17.29 14.54
8 0 17 43.35 64.75
9 0 17 10.08 17.69
10 0 17 9.1 30.1
11 0 17 33.42 38.53
12 0 17 3.85 10.04
14 0 17 11.44 8.13
-6 1 17 5.6 10.86
-5 1 17 3.62 2.29
-4 1 17 1.23 0.24
-2 1 17 1.44 51.64
-1 1 17 7.43 3.28
0 1 17 3.23 30.95
2 1 17 15.56 49.44
3 1 17 5.39 30.1
4 1 17 22.86 20.9
5 1 17 4.11 2.44
6 1 17 33.73 51.41
7 1 17 4.56 10.04
8 1 17 14.5 0.42
9 1 17 22.03 26.16
10 1 17 70.06 84.15
12 1 17 3.87 6.66
13 1 17 9.06 22.95
14 1 17 32.04 1.24
-5 2 17 2.78 16.14
-4 2 17 4.42 0.23
-3 2 17 8.7 3.55
-2 2 17 24.72 27.71
-1 2 17 1.19 0.36
0 2 17 16.97 31.96
1 2 17 3.06 4.2
2 2 17 5.89 30.1
3 2 17 15.18 39.17
4 2 17 44.07 15.23
5 2 17 4.04 39.17
6 2 17 35.73 13.72
9 2 17 9.87 3.78
12 2 17 16.48 18.19
13 2 17 8.8 0.32
-5 3 17 2.29 6.11
-4 3 17 9.73 4.09
-3 3 17 18.49 0.94
-2 3 17 2.76 16.14
-1 3 17 4.87 5.07
0 3 17 7.86 30.1
3 3 17 14.09 30.1
4 3 17 10.46 30.1
5 3 17 4.45 15.53
6 3 17 19.73 10.68
9 3 17 19.3 10.08
10 3 17 8.61 3.53
11 3 17 23.75 37.81
12 3 17 5.09 15.53
13 3 17 25.6 50.31
14 3 17 13.32 36.32
-4 4 17 2.37 6.11
-2 4 17 2.06 22.95
-1 4 17 1.43 1.7
0 4 17 2.22 1.96
1 4 17 11.92 6.79
2 4 17 7.43 30.1
3 4 17 31.92 6.79
4 4 17 1.24 30.95
6 4 17 9.33 13.68
7 4 17 8.48 3.5
8 4 17 2.58 6.11
9 4 17 29.55 12.48
11 4 17 17.88 0.46
12 4 17 1.44 16.14
15 4 17 10.18 58.52
-3 5 17 8.51 7.33
-2 5 17 17.15 51.64
-1 5 17 4.61 30.95
0 5 17 3.31 22.95
1 5 17 9.5 37.26
3 5 17 3.68 22.22
4 5 17 1.39 22.95
6 5 17 1.19 0.24
7 5 17 7.76 6.39
9 5 17 39.14 62.89
11 5 17 7.67 3.63
12 5 17 12.3 11.88
14 5 17 28.73 3.51
-3 6 17 4.09 39.17
-2 6 17 9.16 7.28
3 6 17 5.7 22.22
4 6 17 16.52 4.89
5 6 17 2.51 50.53
6 6 17 3.41 2.42
7 6 17 1.85 10.53
10 6 17 1.69 1.71
11 6 17 1.5 6.11
12 6 17 14.46 8.73
-1 7 17 6.79 15.53
0 7 17 1.5 6.11
1 7 17 16.44 0.89
3 7 17 2.02 40.15
4 7 17 39.89 62.81
6 7 17 20.22 49.44
9 7 17 6.94 9.21
10 7 17 25.05 44.3
11 7 17 3.96 22.22
12 7 17 7.46 16.14
13 7 17 2.56 6.11
-1 8 17 5.04 22.22
4 8 17 5.09 7.89
7 8 17 18.26 0.47
8 8 17 4.73 0.48
9 8 17 3.59 2.49
10 8 17 2.78 16.14
12 8 17 3.78 15.53
13 8 17 1.47 0.4
0 9 17 1.78 6.5
2 9 17 5.22 22.22
4 9 17 2.02 0.31
5 9 17 14.5 12.9
7 9 17 30.82 13.95
8 9 17 9.56 49.44
0 10 17 1.42 51.64
1 10 17 1.88 41.13
2 10 17 2.16 10.53
5 10 17 3.15 6.21
8 10 17 10.46 0.35
10 10 17 3.47 16.14
6 11 17 2.76 6.11
8 11 17 14.17 0.82
9 11 17 3.98 16.14
11 12 17 1.54 3.16
-1 -10 18 25.43 3.86
3 -10 18 16 7.87
-1 -9 18 13.32 19.14
1 -9 18 2.1 2.06
3 -9 18 1.65 3.23
5 -9 18 7.14 0.29
-2 -8 18 31.49 46.6
1 -8 18 6.99 3.18
2 -8 18 1.68 1.84
4 -8 18 5.73 31.82
5 -8 18 8.58 22.22
6 -8 18 4.15 0.45
-1 -7 18 15.01 35.4
0 -7 18 4.71 17.41
1 -7 18 28.5 30.92
4 -7 18 17.2 32.63
6 -7 18 7.86 12.86
8 -7 18 12.65 23.71
-1 -6 18 17.84 29.54
0 -6 18 3.31 6.36
1 -6 18 15.09 13.16
4 -6 18 27.23 17.68
5 -6 18 1.22 0.24
6 -6 18 15.52 30.56
7 -6 18 2.81 2.2
9 -6 18 5.29 7.79
10 -6 18 22.8 27.13
-2 -5 18 5.81 5.53
2 -5 18 10.15 39.17
3 -5 18 3.39 50.53
4 -5 18 13.44 0.4
5 -5 18 2.48 5.74
6 -5 18 14.5 0.42
7 -5 18 14.63 9.61
8 -5 18 2.42 15.53
9 -5 18 3.91 50.53
10 -5 18 11.4 5.53
-1 -4 18 7.76 10.35
0 -4 18 2.87 6.11
1 -4 18 1.81 41.13
2 -4 18 17.93 14.34
3 -4 18 3.02 10.53
4 -4 18 7.67 22.22
6 -4 18 4.29 49.44
7 -4 18 2.89 0.19
8 -4 18 1.71 22.95
9 -4 18 9.6 39.17
10 -4 18 1.23 0.36
-4 -3 18 14.54 19.59
-3 -3 18 1.78 16.77
-1 -3 18 41.78 51.56
0 -3 18 1.94 6.11
1 -3 18 11.51 40.15
2 -3 18 17.47 27.86
3 -3 18 1.82 22.95
4 -3 18 2.62 40.15
5 -3 18 35.66 0.07
7 -3 18 20.57 35.18
8 -3 18 4.45 30.1
9 -3 18 6.79 5.98
10 -3 18 1.19 16.77
-6 -2 18 15.05 20.35
-5 -2 18 3.96 40.15
-4 -2 18 10.11 10.77
-3 -2 18 10.68 50.53
-2 -2 18 3.85 23.7
-1 -2 18 24.67 7.06
1 -2 18 7.14 40.15
2 -2 18 5.27 0.25
3 -2 18 3.47 0.2
4 -2 18 10.93 49.44
5 -2 18 65.48 27.41
6 -2 18 4.15 22.95
7 -2 18 45.31 44.87
8 -2 18 15.91 21.79
9 -2 18 18.73 33.57
10 -2 18 14.67 8.79
12 -2 18 2.05 50.53
-4 -1 18 1.5 6.11
-3 -1 18 6.94 0.29
-2 -1 18 3.68 0.42
-1 -1 18 4.63 40.15
0 -1 18 2.05 30.95
2 -1 18 26.21 7.27
3 -1 18 32.04 31.55
4 -1 18 3.25 6.11
6 -1 18 6.68 11.58
7 -1 18 12.81 49.44
8 -1 18 9.6 7.11
9 -1 18 2.91 30.1
10 -1 18 10.64 49.44
11 -1 18 14.5 31.82
12 -1 18 17.52 0.91
13 -1 18 9.46 11.09
-5 0 18 16.04 13.57
-4 0 18 3 6.11
-3 0 18 48 32.55
-2 0 18 4.31 51.64
0 0 18 51.62 0.79
1 0 18 6.96 15.53
2 0 18 27.34 6.86
3 0 18 7.08 22.22
4 0 18 15.22 26.43
5 0 18 19.49 14.47
6 0 18 1.91 3.17
8 0 18 14.17 24.68
10 0 18 7.67 15.53
11 0 18 7.49 30.95
12 0 18 4.33 2.5
13 0 18 7.89 6.44
-4 1 18 1.18 16.77
-3 1 18 2.92 16.14
0 1 18 11.51 11.49
1 1 18 1.69 1.85
2 1 18 17.7 14.25
3 1 18 91.63 84.73
4 1 18 92.05 42.99
5 1 18 13.72 20.64
6 1 18 11.4 4.06
7 1 18 4.29 2.49
8 1 18 30.75 55.15
9 1 18 7.98 9.57
10 1 18 1.54 10.53
12 1 18 6.68 15.53
13 1 18 5.94 39.17
-4 2 18 1.34 10.53
-1 2 18 1.96 16.77
0 2 18 2.48 6.11
1 2 18 28.32 43.03
2 2 18 20.27 15.25
3 2 18 46.12 15.58
4 2 18 47.47 53.45
6 2 18 13.8 29.26
7 2 18 1.34 22.95
8 2 18 23.49 21.18
9 2 18 2.41 5.74
10 2 18 4.68 0.24
11 2 18 13.32 0.4
12 2 18 2.05 6.11
13 2 18 1.76 16.77
14 2 18 9.6 49.44
-4 3 18 2.03 16.14
0 3 18 4.78 10.53
3 3 18 5.67 0.26
4 3 18 14.42 13.28
5 3 18 21.06 20.56
6 3 18 27.86 35.18
7 3 18 19.59 34.34
8 3 18 15.82 9.13
9 3 18 11.07 7.64
10 3 18 71.17 83.89
12 3 18 4.87 0.24
13 3 18 2.83 16.14
14 3 18 26.04 6.13
-4 4 18 1.47 16.77
-3 4 18 3.8 22.95
-2 4 18 3.39 22.95
-1 4 18 3.19 51.64
2 4 18 3.59 10.53
3 4 18 3.53 15.53
4 4 18 12.93 30.95
5 4 18 6.18 15.53
6 4 18 6.23 8.46
7 4 18 3.23 30.1
9 4 18 1.46 1.58
10 4 18 1.34 40.15
12 4 18 3.47 22.22
13 4 18 16.08 4.82
-3 5 18 11.62 4.1
-2 5 18 2.42 6.11
3 5 18 10.46 7.42
4 5 18 3.74 0.21
5 5 18 1.23 16.14
6 5 18 9.7 30.1
7 5 18 2.67 40.15
9 5 18 18.68 29.28
10 5 18 5.65 5.45
11 5 18 21.47 0.51
12 5 18 2 40.15
13 5 18 15.78 9.12
14 5 18 11.48 10.73
3 6 18 21.72 0.51
5 6 18 3.39 0.4
6 6 18 5.47 10.48
8 6 18 7.49 9.27
9 6 18 14.63 4.6
11 6 18 13.6 4.43
-2 7 18 5.39 49.44
-1 7 18 2.44 50.53
9 7 18 8.64 49.44
12 7 18 5.37 22.22
14 7 18 21.11 8.54
0 8 18 1.96 31.82
3 8 18 1.48 2.93
4 8 18 17.2 4.98
6 8 18 7.52 0.6
10 8 18 1.87 10.53
12 8 18 11.14 22.25
1 9 18 2.83 31.82
4 9 18 11.44 7.76
6 9 18 9.16 0.33
9 9 18 3.35 6.4
10 9 18 8.93 49.44
12 9 18 3.91 50.53
7 10 18 6.62 9
9 10 18 1.51 11.04
5 11 18 4.85 30.95
7 11 18 14.71 21.38
8 11 18 4.9 2.9
9 11 18 1.82 11.04
8 12 18 2.1 31.82
0 -9 19 12.81 7.43
3 -9 19 5.6 10.86
-1 -8 19 38.93 4.09
2 -8 19 7.67 12.71
3 -8 19 18.4 19.68
6 -8 19 15.69 29.87
-1 -7 19 12.11 22.06
1 -7 19 5.78 8.41
2 -7 19 5.39 40.15
3 -7 19 5.09 15.53
4 -7 19 1.48 40.15
5 -7 19 12.15 11.81
6 -7 19 2.26 1.97
9 -7 19 22.91 24.58
-2 -6 19 23.43 40.2
-1 -6 19 1.99 31.82
0 -6 19 16.97 1.35
2 -6 19 12.93 30.1
5 -6 19 17.06 40.15
6 -6 19 8.39 6.65
7 -6 19 2.03 6.11
9 -6 19 20.02 3.42
-2 -5 19 10.22 9.78
-1 -5 19 14.84 22.73
0 -5 19 7.29 6.19
1 -5 19 28.26 35.44
4 -5 19 20.96 36.02
6 -5 19 10.85 18.36
7 -5 19 2.85 4.06
8 -5 19 15.56 27.16
9 -5 19 6.15 2.98
10 -5 19 2.19 6.11
-1 -4 19 6.99 3.18
0 -4 19 11.48 15.18
1 -4 19 17.93 1.85
3 -4 19 5.14 30.1
4 -4 19 39 1.36
6 -4 19 43.06 1.43
8 -4 19 10.15 14.27
9 -4 19 3.15 30.95
10 -4 19 27.8 35.15
11 -4 19 3.62 30.95
-2 -3 19 2.16 6.11
-1 -3 19 2.29 40.15
2 -3 19 5.62 10.62
3 -3 19 4.02 10.53
4 -3 19 4.49 7.18
6 -3 19 9.84 14.05
7 -3 19 5.67 8.07
8 -3 19 3.74 2.32
9 -3 19 5.83 39.17
10 -3 19 4.78 0.48
11 -3 19 4.49 7.18
12 -3 19 3.89 30.95
-1 -2 19 10.93 7.59
0 -2 19 1.99 16.14
1 -2 19 10.11 39.17
2 -2 19 17.06 40.15
3 -2 19 4.95 10.53
4 -2 19 7.76 39.17
6 -2 19 1.73 30.95
7 -2 19 7.92 50.53
9 -2 19 15.48 22.35
10 -2 19 1.23 30.95
-4 -1 19 5.04 15.53
-1 -1 19 29.14 0.59
0 -1 19 3.72 2.53
1 -1 19 21.52 11.66
2 -1 19 1.34 23.7
3 -1 19 1.63 51.64
4 -1 19 3.19 50.53
5 -1 19 13.84 8.54
6 -1 19 1.79 39.17
7 -1 19 21.77 25.49
9 -1 19 12.96 20.07
11 -1 19 1.94 16.14
-4 0 19 3.53 4.72
-3 0 19 3.37 50.53
-2 0 19 4.11 2.66
-1 0 19 14.09 30.1
1 0 19 2.05 16.77
3 0 19 2.85 4.06
4 0 19 4.02 4.6
5 0 19 45.9 51.82
6 0 19 6.94 39.17
7 0 19 26.55 45.6
8 0 19 4.29 15.53
9 0 19 9.1 0.33
10 0 19 8.7 9.99
12 0 19 1.28 1.48
-3 1 19 3.45 50.53
-1 1 19 5.49 3.59
0 1 19 1.63 16.77
1 1 19 1.5 1.74
2 1 19 31.24 0.61
3 1 19 23.75 10.65
5 1 19 1.09 6.11
7 1 19 13.76 8.51
8 1 19 10.01 17.63
9 1 19 5.83 39.17
10 1 19 18.07 14.4
11 1 19 9.56 39.17
12 1 19 27.86 6.92
13 1 19 11.66 11.57
-3 2 19 12.34 30.1
-2 2 19 8.17 15.93
0 2 19 14.5 17.89
1 2 19 5.52 40.15
2 2 19 12 30.1
3 2 19 16.97 22.96
4 2 19 4.47 10.04
5 2 19 1.54 10.53
8 2 19 5.29 7.79
9 2 19 1.71 40.15
10 2 19 5.27 5.27
12 2 19 9.06 6.91
-3 3 19 2.27 22.95
0 3 19 11.77 46.24
2 3 19 9.87 20.78
3 3 19 53.12 64.51
4 3 19 51.54 63.55
5 3 19 6.96 39.17
6 3 19 3.68 10.04
7 3 19 2.92 30.1
8 3 19 21.93 10.23
9 3 19 5.52 22.95
10 3 19 2.22 16.14
12 3 19 8.74 10.01
13 3 19 3.85 0.43
2 4 19 18.68 31.64
3 4 19 14.21 4.53
4 4 19 47.77 46.07
6 4 19 3.45 0.2
7 4 19 10.01 3.8
8 4 19 14.38 30.1
10 4 19 6.79 40.15
11 4 19 7.67 15.53
12 4 19 2.56 22.95
4 5 19 11.18 0.37
5 5 19 10.08 7.28
6 5 19 7.67 22.22
7 5 19 14.59 4.59
8 5 19 2 0.31
9 5 19 3.41 10.53
10 5 19 41.64 50.77
12 5 19 7.61 12.36
13 5 19 2.34 30.95
3 6 19 6.02 22.22
4 6 19 5.42 15.53
5 6 19 9.9 22.22
6 6 19 2.29 16.14
7 6 19 1.28 41.13
9 6 19 3 4.16
10 6 19 1.29 6.5
12 6 19 1.63 31.82
13 6 19 12.89 12.16
3 7 19 2.85 30.95
9 7 19 5.24 0.25
11 7 19 15.26 39.17
13 7 19 12.3 0.77
3 8 19 5.96 8.27
4 8 19 1.27 3.16
8 8 19 2.72 6.11
9 8 19 4.04 4.83
11 8 19 3.55 2.27
6 9 19 1.63 1.82
9 9 19 2.98 50.53
12 9 19 2.87 4.07
4 10 19 4.9 7.74
6 10 19 2.22 1.96
6 11 19 3.43 10.53
10 11 19 4.52 2.79
2 -8 20 8.7 22.22
4 -8 20 4.27 0.45
0 -7 20 12.3 46.24
3 -7 20 8.39 30.1
5 -7 20 3.76 0.21
-1 -6 20 50.92 50.68
0 -6 20 5.44 30.1
2 -6 20 1.52 31.82
3 -6 20 31.67 7.38
5 -6 20 2.56 39.17
6 -6 20 16.04 27.13
8 -6 20 17.79 3.69
-1 -5 20 12.46 15.81
0 -5 20 2.29 6.5
1 -5 20 4.09 16.14
2 -5 20 9.9 10.66
5 -5 20 8.7 39.17
7 -5 20 2.85 15.53
9 -5 20 19.68 16.48
-2 -4 20 25.6 11.61
-1 -4 20 3.06 4.2
0 -4 20 34.82 19.99
2 -4 20 11.51 8.53
4 -4 20 2.81 30.95
5 -4 20 18.35 19.19
6 -4 20 6.59 11.51
7 -4 20 3.53 39.17
9 -4 20 20.76 50.53
10 -4 20 5.24 40.15
-2 -3 20 11.77 22.87
-1 -3 20 3.29 0.4
0 -3 20 13.4 9.6
1 -3 20 8.9 39.17
2 -3 20 3.7 22.95
3 -3 20 3.43 30.95
4 -3 20 10.22 4.54
5 -3 20 4.49 15.53
6 -3 20 14.59 0.42
8 -3 20 30.88 43.72
9 -3 20 12.65 30.1
-1 -2 20 3.06 23.7
0 -2 20 2.21 0.32
1 -2 20 6.79 39.17
3 -2 20 4.18 7.37
4 -2 20 26.77 45.8
5 -2 20 2 3.4
6 -2 20 34.95 32.95
7 -2 20 1.35 6.11
8 -2 20 6.07 11.04
9 -2 20 7.08 6.4
10 -2 20 22.96 11
11 -2 20 4.15 0.22
-3 -1 20 3.72 40.15
-2 -1 20 2.42 2.04
-1 -1 20 1.72 3.3
2 -1 20 3.91 10.53
3 -1 20 11.07 15.63
4 -1 20 6.4 30.1
6 -1 20 12.46 0.77
7 -1 20 8.87 49.44
8 -1 20 5.47 0.26
9 -1 20 18.54 0.47
10 -1 20 1.94 30.95
11 -1 20 10.32 49.44
12 -1 20 3.39 39.17
-1 0 20 2.06 22.95
1 0 20 4.73 50.53
3 0 20 4.45 50.53
6 0 20 1.46 22.95
7 0 20 3.06 5.92
8 0 20 6.57 49.44
9 0 20 16 49.44
10 0 20 9.4 22.22
11 0 20 1.34 40.15
-1 1 20 31.12 49.38
0 1 20 3.93 6.94
1 1 20 13.12 49.44
4 1 20 1.24 30.95
5 1 20 13.48 48.36
7 1 20 17.61 9.63
9 1 20 5.39 22.22
-1 2 20 6.79 8.83
0 2 20 4.27 10.53
1 2 20 4.92 2.91
4 2 20 6.85 15.53
5 2 20 21.11 10.54
6 2 20 20.81 49.44
7 2 20 18.26 39.17
9 2 20 9.63 30.1
10 2 20 8.93 6.86
11 2 20 1.73 0.29
12 2 20 4.18 40.15
2 3 20 11.51 7.79
3 3 20 15.65 26.37
7 3 20 1.38 3.16
8 3 20 2.72 15.53
9 3 20 4.59 7.26
10 3 20 6.71 9.06
11 3 20 2.03 16.14
12 3 20 20.61 0.5
13 3 20 2.98 10.53
2 4 20 12.42 7.32
8 4 20 7.37 15.53
9 4 20 2.32 2
10 4 20 3.27 4.15
12 4 20 5.83 49.44
13 4 20 2.85 16.14
3 5 20 11.14 3917.25
4 5 20 31.61 13.52
6 5 20 6.02 22.22
8 5 20 6.96 8.94
9 5 20 10.08 3.82
10 5 20 1.21 31.82
12 5 20 3.8 15.53
13 5 20 2.55 2.09
4 6 20 18.73 39.17
7 6 20 3.76 30.95
8 6 20 3.41 40.15
10 6 20 1.75 30.95
11 6 20 2.41 42.13
4 7 20 2.94 0.37
5 7 20 10.85 7.56
6 7 20 1.72 11.04
7 7 20 12.34 16.12
9 7 20 1.21 0.36
10 7 20 29.38 53.9
12 7 20 7.64 9.67
5 8 20 3.29 22.95
10 8 20 1.52 51.64
9 9 20 3.13 0.39
11 9 20 8.83 39.17
8 10 20 1.52 16.77
4 -7 21 5.49 30.95
2 -6 21 6.43 39.17
3 -6 21 1.39 22.95
4 -6 21 3.76 4.45
5 -6 21 4.68 5.2
7 -6 21 13.97 39.17
0 -5 21 7.26 39.17
3 -5 21 6.05 11.55
4 -5 21 1.58 11.04
5 -5 21 4.85 2.65
7 -5 21 4.06 2.42
8 -5 21 2.08 41.13
-1 -4 21 35.53 39.73
0 -4 21 7.76 0.91
2 -4 21 1.68 51.64
3 -4 21 19.25 20.62
6 -4 21 9 39.17
8 -4 21 15.09 39.17
-1 -3 21 9.13 14.2
1 -3 21 3.23 4.32
2 -3 21 17.06 0.45
5 -3 21 11.33 0.37
6 -3 21 1.51 2.96
7 -3 21 4.31 7.03
9 -3 21 18.82 24.65
10 -3 21 4.29 16.14
-2 -2 21 12.11 49.44
0 -2 21 26.1 45.22
1 -2 21 1.41 31.82
2 -2 21 16.57 39.17
3 -2 21 3.96 10.53
5 -2 21 19.83 24.82
6 -2 21 10.96 11.22
9 -2 21 9.56 11.15
10 -2 21 9.84 49.44
-2 -1 21 9 3.61
-1 -1 21 1.66 11.04
0 -1 21 9.87 39.17
1 -1 21 5.86 11.37
3 -1 21 3.25 4.33
4 -1 21 10.25 39.17
5 -1 21 4.02 6.79
6 -1 21 9.23 10.29
8 -1 21 18.82 0.47
9 -1 21 19.11 50.53
10 -1 21 2.96 0.38
0 0 21 3.04 16.14
1 0 21 5.73 10.72
3 0 21 13.52 16.88
4 0 21 10.78 14.71
5 0 21 8.87 30.1
6 0 21 37.38 27.39
7 0 21 4.82 22.22
8 0 21 9 22.22
9 0 21 3.47 49.44
10 0 21 13.8 12.59
11 0 21 8.35 30.1
3 1 21 4.22 0.22
5 1 21 1.28 40.15
6 1 21 3.17 6.03
7 1 21 3.25 4.14
8 1 21 5.67 2.86
9 1 21 14.09 40.15
11 1 21 8.74 16.8
1 2 21 6.65 0.85
3 2 21 2.51 6.11
6 2 21 1.46 10.53
7 2 21 5.91 16.14
8 2 21 6.29 15.53
9 2 21 14.5 49.44
10 2 21 8.29 12.9
-1 3 21 10.68 6.78
0 3 21 11.85 22.19
5 3 21 1.33 2.89
6 3 21 3.19 10.04
7 3 21 5.04 5.15
8 3 21 2.49 0.35
9 3 21 3.08 30.95
4 4 21 1.57 6.11
5 4 21 7.95 15.71
6 4 21 11.36 30.1
7 4 21 3.76 15.53
9 4 21 1.47 6.11
10 4 21 4.71 4.98
11 4 21 1.85 0.45
12 4 21 2.31 50.53
3 5 21 12.04 28.43
8 5 21 1.73 0.29
9 5 21 5.91 8.5
10 5 21 5.81 30.1
12 5 21 12.3 11.88
8 6 21 1.55 0.27
9 6 21 5.29 0.5
4 7 21 11.55 7.8
8 7 21 2.41 11.04
9 7 21 4.92 30.95
7 8 21 3.33 30.95
7 9 21 3.7 2.52
4 -6 22 9.1 16.15
4 -5 22 6.07 40.15
5 -5 22 2.13 0.32
2 -4 22 2.31 10.53
4 -4 22 7.11 30.1
5 -4 22 1.66 10.53
6 -4 22 3.68 2.31
7 -4 22 15.69 31.17
0 -3 22 4.99 0.24
3 -3 22 4.68 4.97
4 -3 22 1.84 0.3
5 -3 22 1.51 2.96
7 -3 22 1.78 6.11
0 -2 22 3.47 43.14
3 -2 22 13.28 39.17
4 -2 22 4.66 7.31
5 -2 22 2.02 10.53
6 -2 22 4.54 2.56
8 -2 22 19.11 14.81
0 -1 22 1.69 1.85
2 -1 22 10.43 4.23
4 -1 22 1.18 2.89
5 -1 22 4.45 49.44
7 -1 22 5.62 10.62
9 -1 22 6.21 5.72
10 -1 22 3.87 6.88
0 0 22 24.56 17.33
2 0 22 11.11 11.65
3 0 22 2.81 50.53
4 0 22 1.41 0.26
5 0 22 16.88 26.94
6 0 22 7.61 9.35
9 0 22 7.7 50.53
10 0 22 4.45 49.44
3 1 22 3.35 49.44
4 1 22 1.16 3.16
5 1 22 7.89 49.44
6 1 22 3.31 22.22
7 1 22 3.76 15.53
8 1 22 16 13.11
9 1 22 21.72 10.69
3 2 22 5.78 22.22
4 2 22 2.91 50.53
5 2 22 4.06 6.83
6 2 22 15.52 4.74
7 2 22 5.86 5.55
8 2 22 3 22.22
9 2 22 4.4 39.17
10 2 22 9.4 1
11 2 22 4.99 49.44
5 3 22 1.96 30.95
6 3 22 3.72 2.32
7 3 22 2.63 39.17
8 3 22 7.49 9.27
9 3 22 14.96 0.42
10 3 22 3.74 6.55
11 3 22 6.99 15.53
7 4 22 1.35 1.53
8 4 22 8.17 22.22
9 4 22 4.31 2.5
10 4 22 12.11 12.17
7 5 22 1.59 1.79
6 6 22 7.86 22.22
10 6 22 2.29 40.15
9 7 22 1.9 3.46
4 -3 23 2.34 0.33
6 -3 23 2.06 2.04
2 -2 23 1.93 22.95
4 -2 23 6.74 22.22
5 -2 23 1.37 50.53
6 -2 23 3.23 10.04
7 -2 23 7.98 12.96
2 -1 23 2.94 22.95
4 -1 23 6.62 3.09
6 -1 23 1.34 22.95
7 -1 23 1.75 30.95
3 0 23 4.54 0.23
4 0 23 2.08 0.32
6 0 23 2.56 1.92
8 0 23 10.68 0.36
5 1 23 5.89 3.71
7 1 23 7.02 15.53
9 1 23 2.8 6.11
3 2 23 5.42 12.09
5 2 23 10.96 7.6
6 2 23 11.04 14.88
7 2 23 1.16 31.82
8 2 23 1.28 40.15
9 2 23 1.88 0.3
5 3 23 3.17 16.14
7 3 23 1.75 16.14
8 3 23 6.57 8.68
9 3 23 13.24 24.26
6 4 23 8.7 16.44
7 4 23 6.45 5.83
8 4 23 3.7 22.22
9 4 23 3.33 10.53
