#------------------------------------------------------------------------------
#$Date: 2020-06-28 07:50:55 +0300 (Sun, 28 Jun 2020) $
#$Revision: 253532 $
#$URL: file:///home/coder/svn-repositories/cod/cif/2/02/21/2022169.cif $
#------------------------------------------------------------------------------
#
# This file is available in the Crystallography Open Database (COD),
# http://www.crystallography.net/. The original data for this entry
# were provided by IUCr Journals, http://journals.iucr.org/.
#
# The file may be used within the scientific community so long as
# proper attribution is given to the journal article from which the
# data were obtained.
#
data_2022169
loop_
_publ_author_name
'Nitek, Wojciech'
'Kania, Agnieszka'
'Marona, Henryk'
'Waszkielewicz, Anna M.'
'\.Zes\/lawska, Ewa'
_publ_section_title
;
 The conformational analyses of
 2-amino-<i>N</i>-[2-(dimethylphenoxy)ethyl]propan-1-ol derivatives in
 different environments
;
_journal_coeditor_code           KY3196
_journal_issue                   7
_journal_name_full               'Acta Crystallographica Section C'
_journal_page_first
;
;
_journal_paper_doi               10.1107/S2053229620008244
_journal_volume                  76
_journal_year                    2020
_chemical_absolute_configuration ad
_chemical_formula_iupac          'C13 H22 N O2 +, Cl -'
_chemical_formula_moiety         'C13 H22 N O2 +, Cl -'
_chemical_formula_sum            'C13 H22 Cl N O2'
_chemical_formula_weight         259.76
_chemical_name_systematic
;
(<i>S</i>)-<i>N</i>-[2-(2,6-Dimethylphenoxy)ethyl]-1-hydroxypropan-2-aminium
chloride
;
_space_group_IT_number           4
_space_group_name_Hall           'P 2yb'
_space_group_name_H-M_alt        'P 1 21 1'
_symmetry_cell_setting           monoclinic
_symmetry_space_group_name_Hall  'P 2yb'
_symmetry_space_group_name_H-M   'P 1 21 1'
_atom_sites_solution_hydrogens   mixed
_audit_creation_method           'WinGX routine CIF_UPDATE'
_cell_angle_alpha                90
_cell_angle_beta                 103.6450(10)
_cell_angle_gamma                90
_cell_formula_units_Z            2
_cell_length_a                   7.02260(10)
_cell_length_b                   7.95850(10)
_cell_length_c                   12.51880(10)
_cell_measurement_reflns_used    13959
_cell_measurement_temperature    100(2)
_cell_measurement_theta_max      77.277
_cell_measurement_theta_min      3.606
_cell_volume                     679.920(14)
_computing_cell_refinement
;
CrysAlis PRO (Rigaku OD, 2019)
;
_computing_data_collection
;
CrysAlis PRO (Rigaku OD, 2019)
;
_computing_data_reduction
;
CrysAlis PRO (Rigaku OD, 2019)
;
_computing_structure_refinement
;
SIR2014 (Burla <i>et al.</i>,  2015) and SHELXL2013 (Sheldrick,
2015)
;
_diffrn_ambient_temperature      100(2)
_diffrn_detector                 'Hybrid Pixel Array Detector'
_diffrn_detector_area_resol_mean 10
_diffrn_measured_fraction_theta_full 1
_diffrn_measured_fraction_theta_max 0.981
_diffrn_measurement_device       'four-circle diffractometer'
_diffrn_measurement_device_type
'Rigaku XtaLAB Synergy Dualflex diffractometer with a HyPix detector'
_diffrn_measurement_method       '\w scans'
_diffrn_radiation_monochromator  mirror
_diffrn_radiation_probe          x-ray
_diffrn_radiation_type           CuK\a
_diffrn_radiation_wavelength     1.54184
_diffrn_reflns_av_R_equivalents  0.0305
_diffrn_reflns_av_unetI/netI     0.0389
_diffrn_reflns_limit_h_max       8
_diffrn_reflns_limit_h_min       -8
_diffrn_reflns_limit_k_max       10
_diffrn_reflns_limit_k_min       -10
_diffrn_reflns_limit_l_max       14
_diffrn_reflns_limit_l_min       -15
_diffrn_reflns_number            15929
_diffrn_reflns_theta_full        67.684
_diffrn_reflns_theta_max         77.308
_diffrn_reflns_theta_min         3.633
_diffrn_source                   'micro-focus sealed X-ray tube'
_exptl_absorpt_coefficient_mu    2.413
_exptl_absorpt_correction_T_max  1
_exptl_absorpt_correction_T_min  0.41
_exptl_absorpt_correction_type   gaussian
_exptl_absorpt_process_details
;
(CrysAlis PRO; Rigaku OD, 2019)
;
_exptl_crystal_colour            'clear colourless'
_exptl_crystal_density_diffrn    1.269
_exptl_crystal_description       irregular
_exptl_crystal_F_000             280
_exptl_crystal_size_max          0.235
_exptl_crystal_size_mid          0.178
_exptl_crystal_size_min          0.121
_refine_diff_density_max         0.273
_refine_diff_density_min         -0.158
_refine_ls_abs_structure_details
;
Flack <i>x</i> determined using 1247 quotients [(I+)-(I-)]/[(I+)+(I-)]
(Parsons <i>et al.</i>,  2013)
;
_refine_ls_abs_structure_Flack   -0.015(6)
_refine_ls_extinction_coef       0.0150(12)
_refine_ls_extinction_expression Fc^*^=kFc[1+0.001xFc^2^\l^3^/sin(2\q)]^-1/4^
_refine_ls_extinction_method
;
SHELXL2018 (Sheldrick, 2015)
;
_refine_ls_goodness_of_fit_ref   1.068
_refine_ls_hydrogen_treatment    mixed
_refine_ls_matrix_type           full
_refine_ls_number_parameters     170
_refine_ls_number_reflns         2786
_refine_ls_number_restraints     1
_refine_ls_restrained_S_all      1.068
_refine_ls_R_factor_all          0.0222
_refine_ls_R_factor_gt           0.0218
_refine_ls_shift/su_max          0
_refine_ls_shift/su_mean         0
_refine_ls_structure_factor_coef Fsqd
_refine_ls_weighting_details
'w=1/[\s^2^(Fo^2^)+(0.0342P)^2^+0.1124P] where P=(Fo^2^+2Fc^2^)/3'
_refine_ls_weighting_scheme      calc
_refine_ls_wR_factor_gt          0.0577
_refine_ls_wR_factor_ref         0.0578
_reflns_number_gt                2771
_reflns_number_total             2786
_reflns_threshold_expression     'I > 2\s(I)'
_cod_data_source_file            ky3196sup1.cif
_cod_data_source_block           2c
_cod_original_sg_symbol_H-M      'P 21'
_cod_database_code               2022169
_shelx_estimated_absorpt_t_min   0.601
_shelx_estimated_absorpt_t_max   0.759
_shelx_hkl_file
;
   0 -10   0 58628.8 1630.68  53
   0 -10   1 9819.09 488.508  53
   0  -9   0 39.4978 126.366  69
   0  -9   0-41.0124 87.4742  67
   0  -9  -1 9942.08 710.855  69
   0  -9  -1 9812.63 735.698  67
   0  -9   1 9109.70 695.027  69
   0  -9   1 9781.48 720.738  67
   0  -9  -2 1699.70 300.423  53
   0  -9   2 1429.88 268.082  67
   0  -9  -2 1393.71 267.187  69
   0  -9   2 1612.28 288.332  69
   0  -9  -3 3942.26 427.080  53
   0  -9   3 5352.19 497.961  69
   0  -9  -3 4984.14 467.911  69
   0  -9   3 5053.05 475.194  67
   0  -9  -4 6772.58 516.365  53
   0  -9  -4 7060.01 533.045  71
   0  -9   4 6250.27 520.215  69
   0  -9  -4 6927.61 519.601  69
   0  -9   4 6702.90 504.620  67
   0  -9  -5 302.366 102.345  53
   0  -9   5 109.017 82.3011  69
   0  -9   5 195.565 83.5148  67
   0  -9  -5 179.620 94.8749  71
   0  -9  -6 25616.4 947.240  71
   0  -9   6 26124.2 951.434  69
   0  -8   0 117700. 3848.31  67
   0  -8   0 122461. 3855.90  69
   0  -8   1 4611.13 602.830  67
   0  -8  -1 4854.24 595.139  69
   0  -8   1 4103.21 556.297  69
   0  -8  -1 4181.01 570.902  67
   0  -8   2 30734.8 1455.08  66
   0  -8  -2 30010.0 1569.28  69
   0  -8  -2 31526.7 1635.67  67
   0  -8   2 33733.7 1661.11  69
   0  -8  -3 19188.3 1082.73  60
   0  -8   3 21302.0 1164.87  66
   0  -8  -3 22168.3 1315.83  67
   0  -8   3 20707.3 1260.11  69
   0  -8  -3 20696.1 1244.65  69
   0  -8   3 20407.5 1105.98  39
   0  -8  -4 28333.3 1355.90  60
   0  -8  -4 28872.4 1461.82  69
   0  -8   4 28824.4 1500.54  69
   0  -8   4 29513.1 1471.85  68
   0  -8  -4 29758.6 1464.29  53
   0  -8   4 28749.1 1379.50  39
   0  -8  -5 23022.3 1170.25  60
   0  -8   5 20649.0 1218.17  69
   0  -8   5 23162.3 1218.41  68
   0  -8  -5 20477.3 1170.34  69
   0  -8   5 21899.0 1167.45  39
   0  -8  -5 22037.4 1175.60  53
   0  -8   6 8660.38 725.385  69
   0  -8   6 9016.33 685.572  68
   0  -8  -6 8440.87 697.906  71
   0  -8   6 8439.05 635.244  43
   0  -8   6 9162.23 704.947  39
   0  -8  -6 9349.92 682.904  53
   0  -8  -7 8883.28 674.084  71
   0  -8   7 9336.79 689.496  69
   0  -8   7 9004.16 652.349  39
   0  -8   7 7309.59 561.913  43
   0  -8  -7 8661.17 586.556  53
   0  -8  -8 6089.10 490.424  71
   0  -8   8 5769.98 472.614  69
   0  -8   9 7627.11 444.298  69
   0  -8  -9 7949.75 437.009  70
   0  -7   0 70.9542 107.018  25
   0  -7   0 52.0032 124.014  66
   0  -7   0-63.1724 134.744  69
   0  -7  -1 7154.07 682.570  66
   0  -7  -1 7648.61 717.095  59
   0  -7  -1 8519.40 833.975  69
   0  -7   1 8814.50 848.214  69
   0  -7   1 6678.24 753.702  68
   0  -7  -1 6779.20 766.716  67
   0  -7   1 7615.12 666.559  39
   0  -7   1 8723.54 901.998  25
   0  -7  -1 7047.88 805.114  25
   0  -7  -2 11717.5 865.980  66
   0  -7  -2 14072.0 997.056  59
   0  -7  -2 11263.8 895.989  60
   0  -7  -2 14513.8 1094.97  69
   0  -7  -2 13806.0 1099.81  67
   0  -7   2 12692.4 1025.10  68
   0  -7   2 13172.3 1045.46  69
   0  -7   2 13274.7 846.073  43
   0  -7   2 12157.5 905.537  39
   0  -7  -2 12819.8 1045.48  25
   0  -7   2 11933.3 1036.90  21
   0  -7  -3 35276.9 1702.10  60
   0  -7   3 34806.8 1788.74  68
   0  -7  -3 34530.6 1773.84  69
   0  -7   3 36914.2 1834.89  69
   0  -7  -3 34532.8 1816.23  67
   0  -7   3 37751.6 1734.81  39
   0  -7   3 37577.9 1619.76  43
   0  -7   3 35965.8 1968.46  25
   0  -7   3 36292.6 1894.62  21
   0  -7   3 35888.1 1655.79  17
   0  -7  -4 39356.4 1832.96  60
   0  -7   4 37446.5 1848.87  68
   0  -7  -4 39431.6 1892.06  69
   0  -7  -4 36256.4 1879.87  67
   0  -7   4 40791.3 1962.05  69
   0  -7   4 38920.5 1730.60  43
   0  -7   4 40012.3 1835.50  39
   0  -7   4 38657.1 1987.79  21
   0  -7  -4 38478.5 1845.10  22
   0  -7   4 37615.9 2042.36  25
   0  -7   4 36752.2 1756.05  17
   0  -7  -5 13257.1 1027.88  69
   0  -7   5 13076.5 1017.73  68
   0  -7  -5 12451.8 957.695  53
   0  -7   5 14426.6 1042.20  39
   0  -7   5 12126.8 924.839  43
   0  -7  -5 12088.0 970.722  60
   0  -7   6 11095.4 910.421  68
   0  -7  -6 10944.6 907.988  69
   0  -7  -6 11981.6 902.294  53
   0  -7   6 11198.1 920.111  39
   0  -7   6 11068.8 877.642  43
   0  -7  -6 10342.5 883.038  60
   0  -7  -7 6857.79 713.774  71
   0  -7   7 7967.01 728.608  68
   0  -7  -7 8483.01 713.982  53
   0  -7   7 7675.09 716.931  43
   0  -7  -7 6874.50 704.548  60
   0  -7  -8 46730.5 1913.17  71
   0  -7   8 45531.1 1790.64  68
   0  -7  -8 45358.9 1723.76  53
   0  -7   8 45615.6 1870.81  39
   0  -7   8 42544.3 1802.64  43
   0  -7   9 33003.3 1398.36  34
   0  -7   9 34914.9 1438.09  43
   0  -7   9 31831.3 1403.15  39
   0  -7   9 30912.0 1263.07  68
   0  -7  -9 34635.6 1473.23  71
   0  -7 -10 10005.9 639.255  71
   0  -7  10 9031.61 607.986  69
   0  -7 -10 8179.71 541.184  70
   0  -6   0 91990.3 3177.67  68
   0  -6   0 92748.9 3152.06  69
   0  -6   0 94257.2 2819.68  39
   0  -6   0 97049.1 3314.72  25
   0  -6   0 91439.4 3131.96  21
   0  -6   0 91973.8 2849.74  20
   0  -6   0 95146.1 3009.51  59
   0  -6   1 9557.22 833.840  69
   0  -6   1 8625.97 794.620  68
   0  -6  -1 9907.66 847.748  69
   0  -6   1 8844.83 649.589  43
   0  -6   1 9789.74 740.162  39
   0  -6  -1 8773.32 683.365  20
   0  -6  -1 9155.03 843.290  25
   0  -6   1 8959.21 813.408  21
   0  -6   1 9468.25 691.504  17
   0  -6  -1 9926.02 784.119  66
   0  -6  -1 9787.64 789.728  59
   0  -6  -2 185080. 5199.29  69
   0  -6   2 179560. 5172.77  68
   0  -6  -2 188299. 5276.12  67
   0  -6  -2 175148. 5014.15  59
   0  -6  -2 174673. 4890.54  66
   0  -6   2 181616. 4843.67  43
   0  -6   2 190595. 5019.33  39
   0  -6  -2 181088. 4791.29  20
   0  -6   2 174335. 5211.62  21
   0  -6   2 187441. 4938.41  17
   0  -6  -2 177619. 5184.05  25
   0  -6   3 93494.9 3244.93  68
   0  -6  -3 93419.5 3247.88  69
   0  -6  -3 97540.2 3339.44  67
   0  -6   3 93176.1 3219.74  36
   0  -6  -3 95712.6 3038.21  66
   0  -6  -3 96597.2 3206.73  59
   0  -6  -3 97773.1 3214.82  60
   0  -6   3 96072.7 3168.50  39
   0  -6   3 93965.3 3050.34  43
   0  -6   3 96267.4 3137.39  17
   0  -6   3 96108.2 3379.11  21
   0  -6   4 141462. 4280.72  39
   0  -6   4 144125. 4223.91  43
   0  -6   4 140381. 4349.94  68
   0  -6  -4 139908. 4340.69  69
   0  -6  -4 149158. 4473.65  67
   0  -6   4 144555. 4346.88  36
   0  -6  -4 132815. 3984.34  66
   0  -6  -4 142971. 4326.85  60
   0  -6   4 139759. 4264.13  17
   0  -6   4 140358. 3999.45  13
   0  -6   5 505.979 187.666  13
   0  -6   5 1041.45 299.853  39
   0  -6   5 871.188 270.496  43
   0  -6   5 813.860 275.780  68
   0  -6  -5 523.541 261.665  67
   0  -6  -5 804.245 264.428  69
   0  -6   5 1415.92 350.699  36
   0  -6  -5 437.450 221.665  60
   0  -6  -5 1080.92 285.057  53
   0  -6  -5 974.628 273.936  22
   0  -6   5 1351.12 334.375  17
   0  -6   6 3156.81 471.933  13
   0  -6   6 2136.03 420.273  43
   0  -6   6 2111.34 424.102  68
   0  -6  -6 2456.38 453.849  69
   0  -6   6 2605.19 448.516  36
   0  -6  -6 2270.08 446.219  60
   0  -6  -6 2776.48 451.427  53
   0  -6   6 3298.60 523.584  17
   0  -6  -6 3045.82 477.825  22
   0  -6   6 2445.63 518.332  21
   0  -6   7 32932.2 1723.06  43
   0  -6   7 35113.8 1785.28  39
   0  -6  -7 32180.2 1746.35  60
   0  -6   7 35454.1 1780.21  68
   0  -6  -7 37720.9 1835.32  69
   0  -6  -7 35398.8 1795.33  71
   0  -6  -7 35101.1 1678.38  53
   0  -6   7 35434.4 1960.38  21
   0  -6  -7 34070.8 1675.52  22
   0  -6   7 32987.0 1768.41  17
   0  -6  -8 23318.3 1408.42  71
   0  -6   8 24801.2 1418.40  68
   0  -6  -8 25286.2 1335.85  53
   0  -6   8 24569.8 1436.50  39
   0  -6  -8 25020.2 1475.56  60
   0  -6   9 57177.2 2193.79  68
   0  -6  -9 51877.5 2183.27  71
   0  -6   9 52914.1 2180.18  43
   0  -6   9 58413.9 2239.30  39
   0  -6  10 4001.38 491.493  43
   0  -6  10 4192.59 490.040  39
   0  -6 -10 3606.32 381.853  52
   0  -6  10 4044.73 456.191  68
   0  -6 -10 3485.97 437.504  70
   0  -6  11 5233.19 488.553  34
   0  -6 -11 4556.42 431.897  70
   0  -6  11 4448.67 447.901  43
   0  -5   0 189.488 121.433  39
   0  -5   0-41.5883 88.7025   2
   0  -5   0 41.5012 98.9647   6
   0  -5   0-44.0241 93.8977  21
   0  -5   0 27.8128 51.3737  17
   0  -5   0-40.5288 105.870  36
   0  -5   1 23332.1 1103.03  39
   0  -5   1 20765.5 1121.67   6
   0  -5   1 21939.2 1147.32   2
   0  -5   1 23478.5 897.562  13
   0  -5  -1 20545.1 1122.27  21
   0  -5   1 23100.8 1219.79  21
   0  -5  -1 21479.8 1033.67  20
   0  -5  -1 21635.9 868.417  17
   0  -5  -1 24185.1 1254.66  25
   0  -5   1 22936.7 1066.22  17
   0  -5   2 71426.7 2489.88  36
   0  -5   2 70260.7 2615.22  27
   0  -5  -2 78105.9 2386.63  20
   0  -5   2 78645.3 2468.80  17
   0  -5  -2 72948.7 2539.85  25
   0  -5   2 70495.5 2555.55  21
   0  -5  -2 77564.3 2511.63   2
   0  -5   2 74659.4 2229.41  13
   0  -5   2 73962.8 2463.99   2
   0  -5  -2 73532.8 2486.49   6
   0  -5   2 77367.8 2504.12   6
   0  -5   3 41722.5 1806.63  68
   0  -5  -3 38964.5 1755.10  69
   0  -5  -3 43152.5 1859.76  67
   0  -5   3 46280.0 1842.22  36
   0  -5   3 41429.0 1894.72  27
   0  -5  -3 42614.4 1783.46  59
   0  -5  -3 40924.3 1752.20  25
   0  -5   3 44586.1 1791.62  17
   0  -5  -3 43995.5 1661.26  20
   0  -5   3 46933.1 1786.10   6
   0  -5   3 47327.2 1680.76  13
   0  -5  -3 45689.2 1753.28   6
   0  -5   4 28773.9 1453.88  68
   0  -5  -4 26966.0 1432.43  67
   0  -5  -4 27369.4 1413.55  69
   0  -5   4 30279.6 1425.89  36
   0  -5   4 27422.4 1502.33  27
   0  -5  -4 26781.1 1414.54  60
   0  -5  -4 27298.8 1399.26  59
   0  -5   4 26060.7 1370.92  17
   0  -5   4 24285.3 1252.54  24
   0  -5   4 26907.5 1304.10  13
   0  -5  -5 46945.4 2050.24  67
   0  -5  -5 49740.0 2063.67  69
   0  -5  -5 46649.0 1835.00  66
   0  -5   5 48831.7 2068.23  68
   0  -5   5 47639.6 1959.61  36
   0  -5   5 45613.3 2107.22  27
   0  -5  -5 46197.8 2030.75  60
   0  -5  -5 45539.7 1920.04  22
   0  -5   5 50098.5 2178.49  21
   0  -5   5 45601.2 1906.39  24
   0  -5   5 46626.1 2045.35  17
   0  -5   5 48962.7 1971.82  13
   0  -5   6 135650. 4115.38  13
   0  -5   6 135540. 4170.42  39
   0  -5  -6 133672. 4158.61  69
   0  -5  -6 129483. 3833.78  66
   0  -5   6 133669. 4192.79  68
   0  -5   6 138510. 4049.61  36
   0  -5   6 132929. 4331.37  27
   0  -5  -6 130323. 4181.61  60
   0  -5  -6 129155. 4001.62  53
   0  -5   6 141258. 4432.08  21
   0  -5   6 140003. 4132.94  24
   0  -5  -6 132458. 4012.39  22
   0  -5   7 2156.19 411.806  13
   0  -5   7 1361.84 331.958  39
   0  -5  -7 1815.07 396.458  69
   0  -5   7 1799.27 361.232  36
   0  -5   7 1821.74 412.723  27
   0  -5  -7 2091.85 413.941  60
   0  -5  -7 1978.08 345.220  66
   0  -5  -7 1533.09 342.304  53
   0  -5   7 1674.77 369.997  24
   0  -5   7 2022.86 413.207  17
   0  -5  -7 1214.24 296.413  22
   0  -5   7 1361.28 379.934  21
   0  -5   8 7723.27 814.080  13
   0  -5   8 7697.83 786.155  39
   0  -5  -8 7460.80 668.512  66
   0  -5  -8 6898.18 758.069  71
   0  -5   8 8001.88 879.403  27
   0  -5   8 7788.40 699.059  36
   0  -5  -8 8074.53 821.216  60
   0  -5  -8 7412.80 723.048  53
   0  -5  -8 7564.06 736.714  22
   0  -5   8 8555.37 860.767  17
   0  -5   8 6825.01 780.915  24
   0  -5   8 8204.70 908.537  21
   0  -5   9 50127.6 2160.43  39
   0  -5   9 50636.1 2200.23  43
   0  -5   9 52564.4 2254.84  68
   0  -5  -9 51183.9 2064.50  53
   0  -5 -10 30962.4 1552.17  70
   0  -5  10 30317.7 1558.16  68
   0  -5  10 31173.8 1519.60  39
   0  -5  10 30230.9 1550.25  43
   0  -5  11 54209.3 1969.19  39
   0  -5  11 55038.1 2067.27  43
   0  -5 -11 51296.4 1793.56  52
   0  -5  11 58433.2 2071.72  68
   0  -5 -11 56486.2 2085.00  70
   0  -5 -11 56623.0 2149.38  71
   0  -5  12 9098.94 652.509  35
   0  -5  12 8056.58 621.319  34
   0  -5 -12 9220.72 623.961  70
   0  -5  12 7781.20 573.154  43
   0  -4   0 316603. 7511.41  36
   0  -4   0 326177. 7549.49   2
   0  -4   0 317149. 7546.80   6
   0  -4   0 320954. 7082.74  13
   0  -4   0 321064. 7314.21  17
   0  -4   0 323646. 7609.56  21
   0  -4   1 18129.0 901.032  31
   0  -4  -1 18637.4 898.175  36
   0  -4   1 19683.3 780.659  13
   0  -4   1 18668.5 916.201   2
   0  -4   1 17873.3 904.752   6
   0  -4  -1 18601.5 919.027   6
   0  -4  -1 20229.3 881.368  20
   0  -4   1 18048.9 944.751  21
   0  -4  -1 19022.4 925.915  21
   0  -4  -1 17631.5 941.655  25
   0  -4  -1 18355.9 724.191  17
   0  -4   1 20117.0 891.387  17
   0  -4   2 339216. 7890.06  31
   0  -4   2 343743. 8099.35  27
   0  -4   2 330786. 7934.01  36
   0  -4  -2 322215. 7861.19   6
   0  -4   2 331817. 7889.01   6
   0  -4   2 350021. 7779.75  13
   0  -4  -2 340769. 7891.72   2
   0  -4   2 345826. 7918.37   2
   0  -4   2 349113. 7833.64  24
   0  -4  -2 347391. 7825.96  20
   0  -4   2 334574. 7899.95  17
   0  -4  -2 327542. 7339.80  17
   0  -4  -2 344030. 7991.39  25
   0  -4   3 4323.87 448.283  36
   0  -4   3 4333.52 427.235  31
   0  -4   3 4783.05 509.584  27
   0  -4   3 5269.18 455.609   2
   0  -4   3 4968.51 445.976  13
   0  -4  -3 4754.31 446.991   6
   0  -4   3 5136.37 457.491   6
   0  -4  -3 4756.14 438.250   2
   0  -4  -3 4542.61 443.891  25
   0  -4   3 5289.18 492.611  17
   0  -4   3 4146.47 414.492  24
   0  -4  -3 4755.02 427.780  20
   0  -4   4 40103.1 1519.55  31
   0  -4   4 43244.7 1755.93  27
   0  -4   4 41392.3 1622.72  36
   0  -4   4 43734.1 1644.24  24
   0  -4   4 39691.1 1706.46  21
   0  -4   4 41751.7 1697.34  17
   0  -4   4 39136.1 1481.48   6
   0  -4  -4 44186.8 1541.29   6
   0  -4   4 41682.4 1635.34  13
   0  -4  -5 53155.6 2130.49  67
   0  -4   5 61233.7 1965.27  31
   0  -4   5 59211.4 2263.51  27
   0  -4   5 55207.9 2048.79  36
   0  -4  -5 58904.8 2218.48  60
   0  -4   5 60127.7 2143.70  24
   0  -4  -5 60320.5 2092.77  22
   0  -4   5 60125.8 2276.62  21
   0  -4   5 58959.0 2148.62  13
   0  -4  -6 44798.1 1819.36  22
   0  -4   6 46537.3 1943.52  17
   0  -4   6 47630.9 1943.33  24
   0  -4  -6 45748.8 1924.78  69
   0  -4   6 45406.1 1997.03  27
   0  -4   6 45869.1 1794.35  36
   0  -4  -6 44376.8 1940.87  60
   0  -4  -6 42429.5 1790.52  53
   0  -4   6 45576.7 1924.29  13
   0  -4   7 94231.7 3193.48  24
   0  -4  -7 87956.6 2967.78  22
   0  -4   7 85100.8 3049.70  17
   0  -4  -7 88368.8 3104.88  69
   0  -4  -7 89567.7 2891.31  66
   0  -4   7 93548.7 2895.03  36
   0  -4   7 96960.1 3271.06  27
   0  -4  -7 91913.8 2778.50  30
   0  -4  -7 82846.3 3077.71  60
   0  -4  -7 86005.2 2939.22  53
   0  -4   7 93282.7 3162.36  13
   0  -4   8 11648.6 930.573  39
   0  -4  -8 12516.2 907.727  66
   0  -4   8 10671.2 970.048  27
   0  -4  -8 12089.5 836.510  30
   0  -4   8 14581.3 892.577  36
   0  -4  -8 11567.8 895.285  53
   0  -4  -8 12277.4 890.053  55
   0  -4  -8 11677.9 897.352  22
   0  -4   8 11778.7 968.309  17
   0  -4   8 12024.6 1027.77  24
   0  -4   8 12896.7 1113.82  21
   0  -4   9 35245.9 1724.54  39
   0  -4  -9 35064.2 1813.12  71
   0  -4  -9 39893.7 1722.83  66
   0  -4  -9 37951.6 1632.49  30
   0  -4  -9 34070.6 1824.80  60
   0  -4  -9 35647.1 1676.58  55
   0  -4   9 36641.3 1945.79  24
   0  -4   9 39756.2 2083.45  21
   0  -4  -9 33600.1 1665.98  22
   0  -4   9 35701.6 1804.74  17
   0  -4 -10 5565.00 681.358  71
   0  -4 -10 7138.54 738.560  70
   0  -4  10 6282.23 677.894  43
   0  -4  10 6248.55 649.643  39
   0  -4 -10 6264.78 618.829  30
   0  -4 -10 6881.50 687.448  55
   0  -4 -10 5818.13 606.428  52
   0  -4  10 6714.88 757.953  13
   0  -4  11 23861.4 1230.56  39
   0  -4  11 26002.4 1351.57  43
   0  -4 -11 24580.5 1212.99  52
   0  -4 -11 24533.5 1285.19  55
   0  -4 -11 27500.1 1474.49  71
   0  -4 -11 26369.4 1407.30  70
   0  -4  12 7565.12 655.082  34
   0  -4  12 8286.83 637.928  43
   0  -4 -12 6720.57 517.967  52
   0  -4 -12 8454.28 688.887  70
   0  -4 -13 7456.55 541.521  70
   0  -4  13 6921.92 556.233  35
   0  -3   0 21.7887 69.7092   2
   0  -3   0 10.8064 30.4916  13
   0  -3   0 65.0766 60.1027  17
   0  -3   0-22.4454 67.7033  21
   0  -3   1 39061.8 1348.87  27
   0  -3   1 39043.3 1187.34  13
   0  -3   1 39789.4 1296.79   2
   0  -3   1 38150.1 1220.00  24
   0  -3  -1 36554.4 1268.15  21
   0  -3   1 40225.8 1273.18  17
   0  -3  -1 39262.6 1105.09  17
   0  -3   2 145184. 3838.21  27
   0  -3  -2 143005. 3722.68   2
   0  -3   2 153150. 3728.75  13
   0  -3   2 157414. 3753.37   2
   0  -3   2 152117. 3736.89  24
   0  -3  -2 157481. 3737.60  20
   0  -3  -2 155307. 3813.86  25
   0  -3  -2 149734. 3341.96  17
   0  -3   2 151359. 3812.38  17
   0  -3   3 8949.16 599.911  27
   0  -3   3 8809.97 516.195   2
   0  -3   3 10478.3 604.734  13
   0  -3  -3 9710.97 537.323   2
   0  -3  -3 9598.09 565.168  20
   0  -3   3 9179.80 561.199  24
   0  -3  -3 9036.92 552.787  25
   0  -3   4 213499. 5332.35  27
   0  -3   4 212759. 5279.31  13
   0  -3   4 209518. 4976.06   2
   0  -3  -4 209225. 4996.08   2
   0  -3   4 215134. 5288.41  17
   0  -3   5 54760.4 1997.73  27
   0  -3   5 54665.2 1702.73  31
   0  -3  -5 54982.5 1750.91  30
   0  -3   5 54222.7 1939.45  13
   0  -3   5 54909.4 1965.67  17
   0  -3  -5 56759.0 1877.30  22
   0  -3   6 44886.1 1660.21  36
   0  -3   6 49949.0 1922.81  27
   0  -3  -6 48393.8 1697.38  30
   0  -3  -6 46873.3 1755.85  22
   0  -3   6 48338.1 1851.41  17
   0  -3  -7 40319.8 1652.26  22
   0  -3   7 39106.8 1697.43  17
   0  -3  -7 39777.5 1750.24  71
   0  -3   7 38876.5 1756.08  27
   0  -3  -7 37802.5 1570.11  30
   0  -3   7 40192.4 1531.49  36
   0  -3  -7 39302.3 1765.43  60
   0  -3  -7 38811.6 1641.81  53
   0  -3   7 36909.7 1710.60  13
   0  -3   8 40091.7 1805.81  17
   0  -3  -8 40526.4 1749.81  22
   0  -3  -8 39998.0 1752.66  66
   0  -3  -8 43166.2 1919.40  71
   0  -3   8 44823.0 1947.84  27
   0  -3  -8 39175.8 1699.84  30
   0  -3  -8 39244.4 1870.45  60
   0  -3  -8 39126.8 1811.52  55
   0  -3  -8 43654.1 1806.84  53
   0  -3   8 40884.2 1900.32  13
   0  -3   9 45186.4 2070.48  13
   0  -3  -9 44702.2 2071.84  71
   0  -3  -9 45521.4 1954.97  66
   0  -3   9 46670.1 1920.38  39
   0  -3  -9 47285.3 1956.10  30
   0  -3  -9 48727.1 2097.02  55
   0  -3   9 42967.3 1943.73  17
   0  -3  -9 46805.2 1953.68  22
   0  -3  10 48296.8 2169.86  13
   0  -3 -10 43343.4 2049.53  70
   0  -3 -10 48043.2 2163.23  71
   0  -3  10 45559.4 1886.74  39
   0  -3 -10 49669.0 2052.71  30
   0  -3 -10 46821.2 1946.04  52
   0  -3 -10 47628.6 2142.73  55
   0  -3 -10 46274.8 1966.83  22
   0  -3  10 49389.2 2065.21  17
   0  -3 -11 26453.0 1424.36  30
   0  -3  11 28352.3 1407.04  43
   0  -3 -11 27641.1 1543.29  55
   0  -3 -11 28057.5 1368.62  52
   0  -3 -11 28614.1 1568.82  71
   0  -3 -11 25859.2 1469.83  70
   0  -3  12 3766.57 479.161  34
   0  -3 -12 3991.63 499.669  30
   0  -3  12 4612.53 476.138  43
   0  -3 -12 4787.81 481.970  52
   0  -3 -12 4200.97 553.324  55
   0  -3 -12 4711.95 559.633  70
   0  -3 -13 27422.9 1278.82  55
   0  -3  13 23962.8 1103.80  34
   0  -3  13 26538.4 1244.88  35
   0  -3 -13 28564.0 1281.32  70
   0  -3 -14 3682.52 332.836  55
   0  -2   0 452500. 9899.69   2
   0  -2   0 454268. 9715.73  13
   0  -2   1 221975. 4933.54   2
   0  -2  -1 217982. 4925.47  21
   0  -2   1 222199. 4894.82  24
   0  -2  -1 211567. 4740.00  17
   0  -2   2 761572. 15958.0  27
   0  -2   2 714782. 15803.1   2
   0  -2  -2 722974. 15809.9   2
   0  -2  -2 700965. 15836.5  20
   0  -2   3 177387. 4230.95  27
   0  -2  -3 172895. 4042.66   2
   0  -2   3 170643. 4014.69   2
   0  -2   3 181684. 4262.49  17
   0  -2   4 303774. 6919.58  27
   0  -2  -4 297285. 6834.37  22
   0  -2   4 291270. 6896.90  17
   0  -2  -5 12969.3 684.396  30
   0  -2   5 13460.1 749.203  27
   0  -2   5 12584.0 742.987  13
   0  -2  -5 13416.5 713.310  22
   0  -2   5 12510.1 718.822  17
   0  -2  -6 115400. 3252.11  30
   0  -2   6 123679. 3383.58  27
   0  -2   6 126925. 3455.63  13
   0  -2   6 109974. 3281.30  17
   0  -2  -6 120297. 3302.52  22
   0  -2   7 54674.3 1993.19  27
   0  -2  -7 53523.1 1924.81  30
   0  -2   7 51250.4 1900.15  17
   0  -2  -7 52699.5 1909.19  22
   0  -2   7 51379.6 1985.88  13
   0  -2   8 4741.36 518.301  17
   0  -2  -8 5398.31 553.299  22
   0  -2  -8 4312.67 543.637  71
   0  -2  -8 4774.46 558.855  66
   0  -2   8 6069.85 605.218  27
   0  -2  -8 4832.34 540.203  30
   0  -2  -8 4348.25 542.246  60
   0  -2  -8 4231.63 554.885  55
   0  -2   8 4487.58 547.562  13
   0  -2   9 113137. 3340.52  39
   0  -2  -9 109998. 3617.72  70
   0  -2  -9 114082. 3687.34  71
   0  -2   9 107886. 3603.13  13
   0  -2  -9 116074. 3608.09  30
   0  -2  -9 117545. 3800.87  55
   0  -2  -9 113026. 3474.40  52
   0  -2   9 111939. 3448.68  17
   0  -2  -9 117036. 3516.78  22
   0  -2 -10 29160.4 1571.04  70
   0  -2 -10 27961.2 1560.41  71
   0  -2  10 25134.9 1469.76  13
   0  -2 -10 28459.6 1526.56  30
   0  -2 -10 27828.3 1623.48  55
   0  -2 -10 29184.9 1450.70  52
   0  -2 -10 27762.1 1434.57  22
   0  -2  10 26806.9 1377.11  17
   0  -2 -11 27642.8 1543.40  70
   0  -2  11 26041.3 1481.13  13
   0  -2 -11 26779.3 1375.86  52
   0  -2 -11 27663.4 1632.68  55
   0  -2  11 24931.1 1273.47  43
   0  -2 -11 27571.4 1523.47  30
   0  -2 -12 11472.7 982.986  55
   0  -2 -12 10992.6 786.080  52
   0  -2 -12 10027.4 874.876  70
   0  -2 -12 11881.6 936.710  30
   0  -2  12 10503.4 793.282  34
   0  -2 -13 21171.2 1166.03  30
   0  -2  13 19817.0 1092.97  35
   0  -2 -13 22077.8 1269.40  55
   0  -2 -14 18517.3 983.529  55
   0  -2  14 18219.8 921.896  38
   0  -1   0 15.9451 24.7088  24
   0  -1   0 13.9220 27.7779   2
   0  -1   1 206332. 4331.66  27
   0  -1  -1 187729. 4281.10  20
   0  -1  -1 191959. 4296.71  25
   0  -1  -1 208899. 4284.08   2
   0  -1   1 183055. 4260.49   2
   0  -1   2 151054. 3349.13  23
   0  -1  -2 155062. 3378.79   2
   0  -1   2 153760. 3350.02   8
   0  -1   2 148910. 3366.61   2
   0  -1  -3 159839. 3617.01  22
   0  -1   3 157739. 3480.99  23
   0  -1   3 152340. 3391.61   8
   0  -1   3 148493. 3381.71   2
   0  -1  -3 155288. 3398.94   2
   0  -1   4 129148. 3075.95  23
   0  -1  -4 130079. 3206.33  22
   0  -1   4 129261. 3215.28  17
   0  -1   4 130137. 2908.21   8
   0  -1  -5 32761.7 1187.30  22
   0  -1   5 36090.3 1117.19  23
   0  -1   5 34086.2 1184.38  17
   0  -1   5 31816.3 861.227   8
   0  -1   5 34427.4 1248.81  13
   0  -1  -6 188428. 4842.53  30
   0  -1   6 193931. 4663.43  23
   0  -1   6 193438. 4758.15  17
   0  -1  -6 204340. 4844.26  22
   0  -1   6 190649. 4888.05  13
   0  -1  -7 19685.8 1038.44  30
   0  -1   7 19728.2 1051.27  13
   0  -1   7 20178.7 923.714  23
   0  -1  -7 22026.9 1047.45  22
   0  -1   7 23251.8 1024.75  17
   0  -1  -8 32187.7 1580.49  76
   0  -1  -8 37884.0 1653.81  70
   0  -1  -8 38492.5 1668.38  71
   0  -1   8 35909.9 1567.79  13
   0  -1  -8 35945.8 1586.16  30
   0  -1   8 40341.8 1586.48  27
   0  -1  -8 36608.7 1724.75  55
   0  -1   8 36013.9 1453.13  17
   0  -1  -8 36754.8 1543.56  22
   0  -1   8 37221.0 1429.24  23
   0  -1  -9 42201.2 1855.04  80
   0  -1  -9 47818.9 1998.03  71
   0  -1  -9 44928.7 1948.57  70
   0  -1   9 43192.4 1859.08  13
   0  -1  -9 42959.2 1879.06  30
   0  -1  -9 44044.5 1812.52  52
   0  -1   9 43952.0 1678.32  23
   0  -1   9 44007.0 1694.94  17
   0  -1  -9 44666.6 1818.55  22
   0  -1 -10 13662.0 1017.12  80
   0  -1 -10 13116.4 1035.20  70
   0  -1  10 13156.6 986.600  13
   0  -1 -10 15706.2 1104.21  30
   0  -1 -10 14584.7 992.553  52
   0  -1 -11 7896.41 809.900  70
   0  -1  11 6688.79 688.775  13
   0  -1  11 7060.36 657.982  34
   0  -1 -11 9099.16 843.962  30
   0  -1 -11 6650.38 667.676  52
   0  -1 -11 7093.74 722.000  80
   0  -1 -12 1797.03 379.934  30
   0  -1 -12 1828.28 386.471  70
   0  -1 -12 1667.71 343.085  80
   0  -1 -12 2167.66 360.189  52
   0  -1  13 82424.3 2660.82  35
   0  -1 -13 86803.0 2884.71  30
   0  -1 -14 12006.1 747.961  74
   0  -1 -14 13227.7 830.801  81
   0  -1  14 11590.6 725.013  38
   0  -1 -15 9764.49 510.823  81
   0   0   1 662.209 47.6986  28
   0   0  -1 709.981 62.3581  22
   0   0  -1 548.655 53.1323  14
   0   0   2 23537.5 615.390  28
   0   0  -2 23342.9 680.492  22
   0   0  -2 22804.2 663.591  14
   0   0   3 129478. 2901.40  28
   0   0  -3 121385. 3004.43  22
   0   0   3 131269. 2960.00  17
   0   0  -3 130854. 3001.34  14
   0   0   4 321407. 7155.44  17
   0   0  -4 313556. 7259.77  22
   0   0   4 333782. 7092.57  28
   0   0   5 119811. 3076.60  13
   0   0   5 123597. 3058.39  23
   0   0   5 116404. 2936.01  17
   0   0  -5 120318. 3068.85  22
   0   0   6 2141.39 273.333  13
   0   0   6 1334.64 190.727  17
   0   0  -6 1747.43 250.644  22
   0   0   6 1641.33 239.326  23
   0   0   7 70150.3 2132.87  13
   0   0   7 63805.2 1903.56  17
   0   0  -7 64275.5 2100.92  22
   0   0   7 64206.5 2071.92  23
   0   0   8 15777.5 912.885  13
   0   0  -8 17662.2 1124.30  76
   0   0  -8 15878.5 1013.41  70
   0   0  -8 15429.1 1059.51  55
   0   0  -8 16975.9 962.585  22
   0   0   8 17468.5 945.839  23
   0   0  -9 5478.71 570.586  84
   0   0  -9 4586.28 586.528  80
   0   0   9 5417.76 549.463  13
   0   0  -9 4423.58 602.805  76
   0   0  -9 5241.00 606.987  70
   0   0  -9 4343.64 516.079  52
   0   0  -9 5230.16 663.600  55
   0   0   9 6108.02 579.441  23
   0   0 -10 1743.47 342.263  84
   0   0 -10 1906.85 391.237  80
   0   0  10 2014.81 351.836  13
   0   0 -10 1696.52 375.013  70
   0   0 -10 1893.18 355.661  52
   0   0 -10 1983.11 442.047  55
   0   0  10 1573.90 315.825  23
   0   0  11 190654. 5330.61  11
   0   0 -11 185522. 5102.98  52
   0   0 -11 176271. 5520.34  55
   0   0 -11 174604. 5311.10  80
   0   0 -12 14754.4 1168.18  55
   0   0 -12 13628.6 1041.73  80
   0   0  12 12855.8 880.083  35
   0   0 -12 11360.5 950.917  30
   0   0 -13 886.652 246.596  80
   0   0 -13 369.107 185.829  55
   0   0  13 346.634 153.581  38
   0   0 -13 567.985 206.280  30
   0   0 -14 7752.96 674.569  55
   0   0 -14 7213.55 648.991  81
   0   0 -14 6858.09 585.849  30
   0   0 -15 11036.3 583.513  74
   0   0 -15 12180.9 658.098  55
   0   0 -15 12077.8 643.668  81
   0   1   0-6.56183 26.1836  12
   0   1  -1 220347. 4916.68  18
   0   1   1 225046. 4952.97  10
   0   1   1 221389. 4941.84  11
   0   1   2 154302. 3499.29  11
   0   1   2 158400. 3395.22   4
   0   1  -2 158153. 3399.56   4
   0   1   2 146298. 3311.82  13
   0   1   3 175513. 3812.02   4
   0   1  -3 170105. 3809.33   4
   0   1   3 174063. 3866.18  13
   0   1  -3 176321. 4012.81  14
   0   1  -4 132934. 3216.95  14
   0   1   4 128540. 3064.13  13
   0   1  -5 30351.5 1107.95  14
   0   1   5 28718.3 996.180  13
   0   1   6 183469. 4336.69  28
   0   1   6 179235. 4313.29  13
   0   1  -6 188145. 4508.80  14
   0   1   7 21919.1 911.972  28
   0   1  -7 21063.8 1057.88  30
   0   1   7 20543.6 914.059  13
   0   1   7 20315.6 1017.00  23
   0   1  -8 41253.2 1877.59  76
   0   1  -8 44826.3 1860.56  70
   0   1  -8 41842.9 1739.74  30
   0   1   8 45880.4 1746.02  23
   0   1  -8 40742.0 1681.60  52
   0   1  -8 41348.6 1858.26  55
   0   1   8 41214.6 1509.81  13
   0   1   9 42147.2 1865.74  11
   0   1  -9 45907.7 2064.52  80
   0   1  -9 42690.5 1822.49  84
   0   1  -9 43478.6 1896.51  30
   0   1  -9 44904.5 1795.63  50
   0   1  -9 43075.5 2021.91  55
   0   1  -9 42661.4 1811.12  52
   0   1   9 42533.1 1813.08  23
   0   1  10 21721.9 1304.10  11
   0   1 -10 21075.2 1235.36  84
   0   1 -10 21297.3 1405.99  80
   0   1 -10 20698.6 1277.06  30
   0   1 -10 21533.6 1416.29  55
   0   1  10 21207.5 1233.31  23
   0   1  11 4332.40 613.504  10
   0   1  11 4993.56 612.039  11
   0   1 -11 4403.41 586.548  30
   0   1 -11 4676.49 547.081  84
   0   1 -11 4368.40 645.853  80
   0   1 -11 3668.50 593.037  55
   0   1  11 4912.32 586.149  23
   0   1 -12 1007.38 312.549  80
   0   1 -12 629.708 258.916  55
   0   1  12 633.266 205.212  38
   0   1 -12 749.479 246.391  30
   0   1 -13 80856.6 2915.34  55
   0   1 -13 85112.2 2915.99  80
   0   1 -13 79534.9 2727.73  30
   0   1 -14 9187.52 720.082  55
   0   1  14 11299.7 715.117  48
   0   1 -14 11662.0 812.201  81
   0   1 -15 14636.8 706.378  74
   0   1 -15 12843.5 633.840  55
   0   1 -15 15103.5 727.864  81
   0   2   0 454983. 9811.97  18
   0   2   0 448442. 9859.00  12
   0   2  -1 227656. 4943.10  18
   0   2  -1 211735. 4975.87  19
   0   2   1 218111. 4988.36  10
   0   2  -2 797343. 17339.9  19
   0   2   2 800789. 17355.7  10
   0   2  -2 739181. 17277.3   4
   0   2   2 822208. 17338.2  11
   0   2   2 874711. 17311.7   4
   0   2   3 190543. 4473.48  11
   0   2   3 184485. 4331.08   4
   0   2  -3 188905. 4364.69   4
   0   2   3 194492. 4537.61  10
   0   2   4 301223. 6931.62  10
   0   2   4 289391. 6840.42  11
   0   2  -4 304076. 6596.75   4
   0   2   4 290638. 6572.19   4
   0   2   5 21458.2 998.461  10
   0   2   5 19582.2 670.579   4
   0   2  -5 19865.8 674.460   4
   0   2   5 21014.9 957.327  11
   0   2   6 134615. 3495.74  28
   0   2  -6 122189. 3467.14  30
   0   2  -6 134101. 3567.44  14
   0   2   6 134057. 3698.42  10
   0   2   6 133485. 3635.58  11
   0   2   7 53017.1 1806.27  28
   0   2  -7 53466.8 1894.70  30
   0   2   7 53332.6 2022.46  10
   0   2  -7 48160.8 1875.39  14
   0   2   7 56912.0 2013.56  11
   0   2  -8 4643.59 534.682  83
   0   2  -8 4412.30 590.972  76
   0   2   8 5215.13 567.919  11
   0   2   8 5190.70 583.965  10
   0   2  -8 4752.93 519.156  30
   0   2   8 4393.79 444.864  28
   0   2  -8 5461.92 556.883  56
   0   2  -8 3828.60 534.028  55
   0   2  -8 4114.68 523.201  50
   0   2   8 5161.25 552.319  23
   0   2  -9 108635. 3472.90  83
   0   2  -9 108751. 3822.85  80
   0   2  -9 114972. 3852.90  76
   0   2   9 116858. 3729.73  10
   0   2   9 113550. 3584.43  11
   0   2  -9 116443. 3543.52  30
   0   2  -9 113381. 3603.54  50
   0   2  -9 108994. 3704.18  55
   0   2   9 116425. 3588.77  23
   0   2 -10 31721.6 1579.08  84
   0   2 -10 30978.2 1774.67  76
   0   2 -10 28812.8 1529.45  30
   0   2  10 31947.4 1609.82  23
   0   2 -10 31690.5 1587.90  50
   0   2 -10 31990.1 1736.33  55
   0   2  10 31685.9 1684.11  10
   0   2  10 30930.2 1596.14  11
   0   2  11 20421.6 1266.57  11
   0   2  11 20751.2 1350.13  10
   0   2 -11 20395.2 1240.27  30
   0   2 -11 22459.7 1254.69  84
   0   2 -11 19829.4 1175.10  50
   0   2 -11 21958.2 1420.64  55
   0   2  11 18668.0 1220.92  23
   0   2 -12 9632.01 876.101  55
   0   2 -12 7074.87 690.451  30
   0   2 -13 22301.3 1315.23  81
   0   2 -13 21487.0 1278.11  80
   0   2 -13 23656.2 1265.48  55
   0   2  13 20966.6 1104.48  48
   0   2 -13 23397.7 1158.03  30
   0   2 -14 19974.9 1040.40  81
   0   2 -14 19188.6 933.054  55
   0   2 -15 1508.49 194.041  81
   0   2 -15 1864.66 221.579  74
   0   3   0 59.2659 66.6271  18
   0   3   0 45.0263 63.5267  12
   0   3   0 23.8512 50.8782   4
   0   3  -1 49331.1 1498.76  18
   0   3   1 52998.3 1569.21  18
   0   3  -1 50764.3 1569.70  19
   0   3   1 52467.0 1605.55   4
   0   3   1 47146.2 1549.92  12
   0   3   1 49926.2 1573.45  10
   0   3  -2 163232. 4171.35  19
   0   3   2 168758. 4196.62  18
   0   3  -2 170922. 4103.97  18
   0   3   2 173117. 4201.94  12
   0   3   2 171706. 4214.43  10
   0   3  -2 170889. 4201.70   4
   0   3   2 173924. 4190.86   4
   0   3  -3 5085.74 401.368   4
   0   3   3 4839.93 423.403  10
   0   3   3 5574.98 402.353   4
   0   3  -4 203523. 5019.49  14
   0   3   4 207120. 5127.43  10
   0   3   4 207672. 5049.29  11
   0   3   4 199123. 4847.60   4
   0   3  -4 204564. 4886.34   4
   0   3  -5 60995.1 1819.95  33
   0   3  -5 59930.0 1751.62   4
   0   3  -5 61525.9 1974.76  14
   0   3   5 58663.8 1983.41  11
   0   3   5 64560.6 2123.11  10
   0   3  -6 51006.5 1727.09  30
   0   3   6 55102.3 1956.35  11
   0   3   6 52855.6 2017.34  10
   0   3  -7 37451.2 1754.08  76
   0   3   7 37178.0 1724.15  10
   0   3   7 36512.8 1633.31  11
   0   3  -7 39595.1 1520.43  30
   0   3   7 37803.1 1571.94  28
   0   3  -7 39737.2 1800.38  50
   0   3  -7 36864.0 1637.71  56
   0   3  -7 37307.5 1738.31  83
   0   3  -8 38843.3 1816.94  83
   0   3  -8 38704.9 1909.56  80
   0   3  -8 35989.8 1824.36  76
   0   3   8 36612.8 1792.64  10
   0   3   8 37141.7 1715.69  11
   0   3   8 40345.6 1640.30  28
   0   3  -8 38345.5 1574.01  30
   0   3  -8 34748.0 1769.27  50
   0   3  -8 36876.9 1685.64  56
   0   3   8 34280.9 1669.59  23
   0   3  -9 43560.1 2153.81  80
   0   3  -9 43186.8 1993.18  83
   0   3  -9 40126.1 2039.63  76
   0   3   9 47290.4 2098.55  10
   0   3   9 44947.0 1971.20  11
   0   3  -9 46459.0 1841.04  30
   0   3  -9 44392.6 1897.48  56
   0   3  -9 43270.6 1941.15  55
   0   3  -9 39896.5 1978.93  50
   0   3   9 44452.8 1968.47  23
   0   3 -10 51232.3 2055.83  78
   0   3 -10 58171.2 2539.13  80
   0   3 -10 47909.6 2312.29  76
   0   3 -10 53625.9 2067.89  30
   0   3  10 45859.9 2117.83  23
   0   3 -10 52276.8 2208.04  55
   0   3 -10 53975.7 2272.36  50
   0   3  10 51243.4 2282.07  10
   0   3  10 51621.6 2162.30  11
   0   3 -11 31211.5 1748.90  81
   0   3 -11 28639.8 1460.35  84
   0   3 -11 30146.2 1749.72  80
   0   3 -11 29383.9 1551.24  55
   0   3 -11 29573.0 1535.10  50
   0   3  11 29500.5 1435.83  48
   0   3 -11 29852.1 1427.24  30
   0   3 -12 3881.61 555.827  81
   0   3 -12 3943.15 590.671  80
   0   3 -12 3528.74 445.407  50
   0   3 -12 4467.21 525.765  55
   0   3  13 29367.4 1303.26  45
   0   3 -13 29084.6 1410.09  81
   0   3 -13 31122.1 1495.01  80
   0   3 -14 4990.35 429.543  81
   0   4   0 360225. 8576.94  41
   0   4   0 365651. 8570.11   4
   0   4   0 371288. 8438.93  18
   0   4  -1 20695.0 933.264  32
   0   4   1 19109.1 979.655  44
   0   4   1 19704.2 1002.50  41
   0   4  -1 19581.7 916.194  40
   0   4   1 19636.9 977.880  12
   0   4   1 20846.3 998.041   4
   0   4  -1 19574.3 960.283  19
   0   4  -1 20097.1 908.094  18
   0   4   1 18995.5 925.264  18
   0   4  -2 336547. 7935.57  32
   0   4  -2 332789. 8081.62   4
   0   4   2 374669. 8125.48   4
   0   4   2 339623. 8089.76  12
   0   4  -2 337459. 7926.77  40
   0   4   2 336341. 8118.16  44
   0   4   2 348689. 8083.35  45
   0   4  -2 357749. 7951.50  18
   0   4   2 321602. 8051.43  18
   0   4  -2 343648. 8073.95  19
   0   4  -3 4647.30 452.854   4
   0   4   3 3767.82 430.697  10
   0   4   3 4562.63 457.165  12
   0   4   3 4551.59 438.222   4
   0   4   3 3739.43 422.442  45
   0   4   3 4058.02 450.834  44
   0   4  -3 4534.97 420.426  40
   0   4   3 4151.64 442.306  18
   0   4   4 40010.9 1498.15   4
   0   4   4 42017.3 1678.97  10
   0   4   4 38712.1 1596.99  12
   0   4  -4 41940.2 1554.75   4
   0   4   4 40114.8 1628.24  45
   0   4   4 40588.0 1660.83  18
   0   4  -4 44247.3 1605.15  14
   0   4  -5 64986.7 2452.37  83
   0   4  -5 64626.1 2205.19  14
   0   4   5 62357.0 2293.53  10
   0   4   5 60421.1 1987.00   4
   0   4  -5 63674.6 2040.26   4
   0   4  -5 63373.6 2422.21  50
   0   4   5 66798.3 2293.68  45
   0   4  -6 46132.7 1907.39  76
   0   4   6 45797.2 1949.73  10
   0   4  -6 45538.1 1838.66  14
   0   4  -6 44193.9 2021.99  50
   0   4  -6 45982.4 1956.55  80
   0   4  -7 95397.4 3266.22  76
   0   4   7 97201.4 3332.95  10
   0   4  -7 96869.8 3168.31  14
   0   4   7 97030.6 3189.49  28
   0   4  -7 99927.6 3279.25  56
   0   4  -7 99012.0 3443.06  83
   0   4  -7 99769.2 3399.05  80
   0   4  -7 97799.0 3188.01  81
   0   4  -8 12051.8 1005.87  76
   0   4  -8 13803.8 989.210  14
   0   4   8 10763.3 966.469  10
   0   4   8 12823.5 938.402  28
   0   4  -8 11701.9 941.563  56
   0   4  -8 12395.7 1047.76  50
   0   4  -8 12759.9 1058.33  83
   0   4  -8 13939.2 1114.88  80
   0   4  -8 11563.2 945.396  81
   0   4  -9 31785.7 1748.76  76
   0   4   9 33149.2 1767.46  10
   0   4  -9 35393.4 1685.57  56
   0   4  -9 32760.5 1791.10  50
   0   4   9 31383.6 1551.36  28
   0   4  -9 32165.3 1828.40  80
   0   4  -9 31775.6 1743.33  83
   0   4  -9 33576.3 1718.36  81
   0   4 -10 6009.01 706.909  81
   0   4 -10 7238.88 832.931  80
   0   4  10 6122.90 683.754  45
   0   4 -10 6845.76 761.626  50
   0   4 -10 5782.95 627.697  56
   0   4 -11 27309.1 1367.28  84
   0   4 -11 28467.7 1512.54  81
   0   4 -11 28629.5 1621.63  80
   0   4  11 26135.1 1408.31  45
   0   4 -11 30054.0 1538.09  50
   0   4 -12 11460.6 832.516  81
   0   4 -12 9777.54 844.144  80
   0   4  12 12694.5 822.953  45
   0   4 -12 11558.6 803.297  50
   0   4 -13 6766.39 505.680  81
   0   5   0 38.6359 71.3675  32
   0   5   0-47.2033 100.680  41
   0   5   0 220.328 140.980  19
   0   5   0 38.0585 90.7570  18
   0   5   0 46.1787 98.4950   4
   0   5  -1 19124.1 898.980  33
   0   5  -1 18921.8 1012.72  32
   0   5   1 22294.7 1180.56   4
   0   5   1 19446.0 1153.73  41
   0   5  -1 21507.3 1084.60  40
   0   5   1 19339.7 1055.46  18
   0   5  -1 22059.2 1153.33  19
   0   5  -1 21500.9 1057.57  18
   0   5  -2 72364.4 2347.90  32
   0   5  -2 75893.3 2594.82  63
   0   5  -2 72830.6 2349.43  40
   0   5   2 68472.0 2537.40  41
   0   5   2 75950.4 2583.15  44
   0   5   2 76205.1 2495.54  18
   0   5  -2 67119.0 2428.55  19
   0   5  -2 80403.2 2604.70   4
   0   5   2 68127.9 2467.24  12
   0   5   2 69178.7 2474.15   4
   0   5  -3 52731.8 1895.78  14
   0   5   3 50599.0 2002.96  18
   0   5   3 51474.2 1950.01   4
   0   5   3 51938.0 2003.62  12
   0   5  -3 51538.7 2007.00   4
   0   5  -3 49762.8 2068.52  83
   0   5  -3 51654.4 2051.76  63
   0   5  -3 52382.5 2105.53  50
   0   5   3 50730.3 2070.71  41
   0   5   3 48590.5 2026.59  44
   0   5   4 24198.5 1327.05  18
   0   5   4 24742.5 1230.37   4
   0   5  -4 26096.0 1288.08   4
   0   5  -4 23281.6 1205.23  14
   0   5   4 21961.6 1241.12  12
   0   5  -4 23885.7 1402.07  83
   0   5  -4 25721.8 1331.52  63
   0   5  -4 24118.1 1405.94  50
   0   5  -4 25478.2 1240.48  57
   0   5   4 24983.5 1305.60  45
   0   5   4 23780.3 1329.70  44
   0   5   5 42358.1 1938.19  18
   0   5   5 43218.8 1950.96  10
   0   5   5 42903.8 1869.24  12
   0   5  -5 44644.0 1834.20  14
   0   5  -5 45483.8 1765.72   4
   0   5   5 43278.2 1717.12   4
   0   5  -5 43430.6 2055.16  83
   0   5  -5 45210.0 1838.54  63
   0   5  -5 44462.5 2065.25  50
   0   5   5 43125.9 1874.27  45
   0   5   5 45369.1 1993.83  44
   0   5   6 136224. 4232.25  18
   0   5  -6 141626. 4421.46  83
   0   5  -6 129277. 3979.20  14
   0   5   6 132812. 4186.87  10
   0   5   6 130373. 4035.36  12
   0   5  -6 134336. 3843.87  63
   0   5  -6 129508. 4305.10  50
   0   5   6 129335. 4168.54  44
   0   5   6 137949. 4112.40  45
   0   5  -7 1201.67 328.294  80
   0   5  -7 2202.19 390.773  14
   0   5   7 2067.39 398.193  12
   0   5   7 1058.50 309.197  10
   0   5   7 2156.54 405.308  28
   0   5   7 2027.75 403.532  45
   0   5   7 1667.36 384.364  44
   0   5  -7 880.715 304.828  50
   0   5   7 1262.32 331.078  23
   0   5   7 1852.43 408.637  18
   0   5   8 13035.5 1118.55  18
   0   5   8 13986.4 1041.56  23
   0   5  -8 11058.7 926.850  14
   0   5   8 12507.7 1060.86  10
   0   5  -8 11842.6 1005.44  80
   0   5   8 12123.6 972.884  28
   0   5  -8 14398.9 1061.92  56
   0   5   8 14064.9 1113.71  44
   0   5   8 14405.3 1061.72  45
   0   5  -8 12362.7 975.240  76
   0   5  -9 57417.4 2398.40  80
   0   5  -9 54967.1 2424.09  83
   0   5   9 54534.1 2244.59  45
   0   5   9 54233.8 2356.98  44
   0   5  -9 52683.7 2197.65  56
   0   5 -10 36644.1 1785.49  80
   0   5  10 35210.5 1741.80  44
   0   5  10 35256.5 1632.32  45
   0   5 -10 35511.0 1790.17  50
   0   5 -10 33921.3 1568.47  56
   0   5 -11 53107.8 2135.04  80
   0   5 -11 54126.2 2129.52  50
   0   5  11 54568.2 2108.38  44
   0   5 -12 7285.34 568.133  50
   0   5  12 6556.95 553.102  44
   0   6   0 94798.2 3063.08  40
   0   6   0 92920.2 3003.72  32
   0   6   0 94974.5 3240.51  63
   0   6   0 92742.1 3166.87  19
   0   6   0 94796.1 3014.12  18
   0   6   0 93512.0 3220.67   4
   0   6   1 10600.4 876.382   4
   0   6   1 12348.7 980.958  41
   0   6  -1 10488.9 802.392  40
   0   6  -1 9856.60 826.268  73
   0   6   1 9266.76 783.513  32
   0   6  -1 9956.28 770.304  32
   0   6  -1 10335.1 893.298  63
   0   6   1 9045.80 824.508  63
   0   6  -1 11143.7 918.122  57
   0   6  -1 9833.02 847.092  19
   0   6   1 9796.42 792.659  18
   0   6  -1 9287.58 742.915  18
   0   6   1 9062.67 819.617  19
   0   6   2 171490. 4994.69  19
   0   6  -2 171503. 4673.38  14
   0   6   2 168268. 4856.98  18
   0   6  -2 168551. 4874.60  83
   0   6  -2 170263. 4772.20  73
   0   6   2 185965. 5044.90   4
   0   6  -2 168875. 4987.54   4
   0   6  -2 179938. 5104.96  63
   0   6   2 171440. 4916.75  63
   0   6  -2 165626. 4841.46  50
   0   6  -2 182908. 5017.58  57
   0   6  -2 174974. 4725.26  40
   0   6   2 172198. 5100.66  41
   0   6  -3 105458. 3301.15  14
   0   6   3 106137. 3510.64  18
   0   6  -3 107751. 3586.55  83
   0   6  -3 111410. 3309.15  73
   0   6   3 108569. 3448.65  63
   0   6  -3 110972. 3635.58  63
   0   6   3 106965. 3671.85  41
   0   6  -3 111094. 3488.73  57
   0   6  -3 108959. 3572.61  50
   0   6  -3 111366. 3581.74   4
   0   6   3 109347. 3507.65   4
   0   6   4 149576. 4532.45  18
   0   6  -4 156631. 4487.28   4
   0   6   4 156089. 4541.37  12
   0   6   4 142707. 4363.20   4
   0   6  -4 145524. 4287.68  14
   0   6  -4 151932. 4675.21  83
   0   6   4 150542. 4315.44  63
   0   6  -4 150974. 4534.79  63
   0   6  -4 154433. 4364.72  57
   0   6  -4 150269. 4642.28  50
   0   6   4 151824. 4709.41  41
   0   6   4 154607. 4637.52  44
   0   6   5 63.5255 95.9141  18
   0   6  -5 497.916 251.628  83
   0   6   5 58.2837 152.317  12
   0   6  -5 311.389 166.100  14
   0   6   5 300.839 160.476   7
   0   6  -5 257.750 145.520   7
   0   6  -5 222.966 168.196  63
   0   6  -5 363.810 160.912  57
   0   6   5 522.304 220.221  44
   0   6   5 279.191 210.582  41
   0   6  -5 140.911 150.340  50
   0   6  -6 2154.62 464.194  83
   0   6   6 2428.50 455.854  28
   0   6  -6 2270.12 397.728  14
   0   6  -6 1801.41 348.756  63
   0   6   6 2537.39 469.119  44
   0   6  -6 2877.52 529.749  50
   0   6   6 2287.22 465.837  41
   0   6   6 2196.93 434.197  18
   0   6   6 1664.25 336.859  23
   0   6   7 31999.4 1761.80  18
   0   6   7 31579.2 1603.09  23
   0   6  -7 32058.7 1599.08  14
   0   6  -7 35593.9 1900.85  83
   0   6  -7 33546.7 1744.22  56
   0   6  -7 34175.1 1875.48  50
   0   6   7 33433.6 1826.16  41
   0   6   7 34672.0 1792.75  44
   0   6   7 31698.2 1708.81  28
   0   6  -8 23879.2 1534.64  83
   0   6   8 25920.9 1508.64  44
   0   6   8 29568.5 1654.83  41
   0   6  -8 23143.9 1503.00  50
   0   6  -8 27201.3 1472.67  56
   0   6   9 54424.6 1942.58  73
   0   6  -9 57810.7 2383.06  50
   0   6  -9 50105.9 2045.43  56
   0   6   9 51077.4 2154.10  44
   0   6   9 55814.0 2305.71  41
   0   6 -10 3962.40 442.600  56
   0   6  10 4359.25 507.262  44
   0   6  10 4577.24 544.497  41
   0   6  10 5416.30 601.123  49
   0   6 -11 3189.46 397.731  50
   0   6  11 3238.06 398.572  41
   0   6  11 3142.69 397.156  49
   0   7   0 330.181 172.502   4
   0   7   0 52.1208 78.6070  40
   0   7   0-60.3715 111.514  73
   0   7   0-49.8190 92.0218  32
   0   7   0 65.2730 139.219  63
   0   7   0 65.5331 98.8349  57
   0   7   0-62.7180 189.178  19
   0   7  -1 11627.2 1008.06   4
   0   7   1 11156.2 971.457   4
   0   7  -1 12099.8 886.714  40
   0   7   1 11886.8 921.950  40
   0   7   1 15773.7 1121.78  73
   0   7  -1 12778.2 979.835  73
   0   7   1 13086.0 953.665  32
   0   7  -1 13707.2 1084.08  63
   0   7   1 12432.6 1007.39  63
   0   7  -1 13246.9 1045.37  57
   0   7   1 11719.8 908.399  18
   0   7   1 11493.5 978.320  19
   0   7   2 10474.2 874.490  18
   0   7   2 10476.5 938.677  19
   0   7   2 13421.3 1045.79   4
   0   7  -2 11401.3 978.538   4
   0   7  -2 11541.1 891.953  83
   0   7  -2 12731.9 921.051  73
   0   7   2 11389.1 897.989  32
   0   7   2 12364.9 982.739  63
   0   7  -2 10912.8 936.335  57
   0   7   2 11162.4 1005.85  41
   0   7   2 13083.1 992.875  40
   0   7   3 41543.2 1994.76  19
   0   7   3 43712.3 1943.29  18
   0   7  -3 42421.8 1776.53  14
   0   7  -3 43327.2 2030.71   7
   0   7   3 43632.6 1997.87   7
   0   7  -3 43097.9 2014.94   4
   0   7   3 44528.6 1997.72   4
   0   7  -3 44054.7 1970.21  83
   0   7  -3 43699.5 1767.72  73
   0   7   3 41966.6 1914.85  32
   0   7  -3 42359.3 2025.38  63
   0   7   3 45351.7 1959.82  63
   0   7  -3 41503.3 1905.09  57
   0   7  -3 43330.1 1935.22  50
   0   7   3 46071.8 2162.83  41
   0   7   4 37643.8 1804.43  18
   0   7   4 32748.1 1751.27  19
   0   7   4 36306.8 1729.66   7
   0   7  -4 32845.3 1573.13  14
   0   7  -4 38485.0 1802.15   7
   0   7   4 36607.8 1655.18  63
   0   7  -4 35821.1 1786.58  63
   0   7  -4 37078.4 1840.99  83
   0   7  -4 36630.0 1796.76  50
   0   7  -4 37488.4 1674.90  57
   0   7   4 31698.1 1793.47  41
   0   7  -5 10674.1 844.483   7
   0   7   5 10614.3 832.230   7
   0   7  -5 11211.6 972.138  83
   0   7  -5 10247.1 866.935  63
   0   7  -5 9926.48 765.674  57
   0   7   5 11052.6 997.151  41
   0   7   5 10970.7 902.780  57
   0   7  -5 10382.5 936.785  50
   0   7  -6 13614.5 919.457  63
   0   7   6 14309.7 978.255  57
   0   7  -6 13344.3 1068.65  50
   0   7   6 15230.4 1151.35  41
   0   7  -7 8644.63 825.196  50
   0   7  -7 8933.74 795.954  56
   0   7   7 8186.03 670.036  57
   0   7   7 9809.92 791.551  73
   0   7   7 8933.48 855.088  41
   0   7  -8 49657.3 2106.17  50
   0   7  -8 52117.9 2008.40  56
   0   7   8 49541.0 1869.89  73
   0   7   8 53308.1 2147.13  41
   0   7  -9 37834.7 1635.10  50
   0   7  -9 35078.8 1413.56  56
   0   7   9 34669.1 1295.28  73
   0   7   9 37021.5 1584.97  41
   0   7 -10 9366.03 643.314  50
   0   7 -10 7955.79 528.548  78
   0   8   0 125519. 3387.67  63
   0   8   0 126098. 3256.77  73
   0   8   0 124665. 3381.95  57
   0   8   0 133514. 3504.78   7
   0   8   1 5216.74 559.018  40
   0   8  -1 4561.40 541.749  73
   0   8   1 4948.62 606.236  73
   0   8   1 3835.88 550.057  63
   0   8  -1 4838.53 617.869  63
   0   8  -1 6011.62 670.154  57
   0   8   1 5579.68 667.577   7
   0   8   2 26444.2 1230.43  40
   0   8  -2 27391.0 1200.78  73
   0   8   2 27382.3 1392.46  73
   0   8   2 27332.7 1338.60  63
   0   8  -2 28366.8 1377.22  57
   0   8   2 28208.4 1431.69  57
   0   8   2 26163.7 1357.86   7
   0   8  -2 28214.1 1415.96   7
   0   8   3 19598.7 1125.21  40
   0   8  -3 19406.5 1217.38  63
   0   8   3 20070.8 1139.17  63
   0   8   3 18917.4 1196.93  57
   0   8  -3 20870.2 1166.70  57
   0   8   3 20578.7 1206.46   7
   0   8  -3 22672.2 1274.62   7
   0   8   4 33143.6 1510.48  40
   0   8   4 32738.1 1584.05  73
   0   8  -4 33687.8 1584.66  63
   0   8  -4 31738.1 1397.74  57
   0   8   4 32537.1 1396.53  63
   0   8  -4 33105.9 1450.09  50
   0   8   4 36227.9 1632.44  57
   0   8   4 32148.6 1476.37   7
   0   8  -4 34433.0 1548.51   7
   0   8   5 23643.5 1144.69  40
   0   8   5 24505.4 1207.83  73
   0   8  -5 21314.8 1063.23  63
   0   8   5 23156.1 1139.04  57
   0   8  -5 24250.3 1136.22  50
   0   8   5 23768.6 1035.10   7
   0   8  -6 9392.04 731.931  50
   0   8   6 9945.46 705.516  57
   0   8  -6 9521.57 767.236  56
   0   8   6 10044.1 753.703  73
   0   8   6 9254.25 720.633  40
   0   8  -7 11883.1 775.288  50
   0   8   7 9581.31 595.712  57
   0   8  -7 11531.0 760.798  56
   0   8   7 12069.4 741.161  73
   0   8   7 11273.1 748.638  40
   0   8   8 5608.50 417.742  73
   0   8  -8 5417.24 444.941  56
   0   8  -8 5799.29 487.611  50
   0   8  -9 3967.84 318.748  78
   0   9   0 42.3866 90.4124  63
   0   9   0 281.900 130.181  73
   0   9   0 85.1606 101.544  57
   0   9   0-43.7077 80.7415   7
   0   9   1 15534.9 920.461  63
   0   9  -1 14370.7 917.534  63
   0   9   1 16335.0 920.460  73
   0   9  -1 16079.3 940.866  57
   0   9   1 15167.7 938.704   7
   0   9   2 1350.11 255.737  63
   0   9   2 1423.72 267.435  73
   0   9   2 1401.63 282.915  57
   0   9  -2 1505.64 266.370  57
   0   9   2 1330.43 268.692   7
   0   9  -2 1121.57 247.013   7
   0   9  -3 3363.74 398.617  63
   0   9   3 2906.78 323.408  63
   0   9   3 3195.44 390.298  73
   0   9   3 2918.17 354.597   7
   0   9  -3 2824.10 354.734   7
   0   9   3 3022.67 382.297  57
   0   9   4 7496.76 562.681  57
   0   9  -4 6693.43 532.360  63
   0   9  -5 752.875 183.860  56
   0   9   5 729.121 159.347  57
   0   9   5 689.227 176.583  73
   0   9  -6 29441.0 1076.00  56
   0   9   6 27561.5 1032.24  73
   0  10   0 48542.3 1399.98  57
   0  10   1 9372.87 482.079  57
   1 -10  -1 22451.2 796.685  53
   1  -9  -7 23013.8 820.270  71
  -1  -9   7 21690.5 818.288  69
   1  -9  -6 13367.7 655.750  53
   1  -9  -6 13779.6 689.263  71
  -1  -9   6 13668.8 716.266  69
   1  -9  -5 13295.0 727.433  53
   1  -9  -5 12641.9 727.495  71
  -1  -9   5 13286.4 765.283  69
   1  -9  -4 1860.41 290.348  53
  -1  -9   4 1783.78 298.119  69
   1  -9  -3 50134.7 1805.40  53
  -1  -9   3 48421.2 1826.59  69
   1  -9  -2 17521.5 975.071  53
  -1  -9   2 14804.4 787.892  67
  -1  -9   2 17340.2 984.599  69
   1  -9  -2 17375.0 997.960  67
   1  -9  -1 6505.95 601.881  67
  -1  -9   1 5842.80 568.377  69
  -1  -9   1 5881.85 498.165  67
   1  -9   0 2118.69 350.427  67
  -1  -9   0 1740.59 318.152  69
  -1  -9  -1 12645.5 831.359  69
   1  -9   1 13606.8 875.100  67
  -1  -9  -2 25845.9 1100.92  53
   1  -9   2 24424.7 1216.04  67
  -1  -9  -2 27957.1 1253.74  69
  -1  -9  -3 3485.57 339.503  53
  -1  -9  -3 2330.49 263.412  71
   1  -9   3 3324.36 390.666  67
  -1  -9  -3 3457.46 398.578  69
  -1  -9  -4 16437.3 702.605  53
  -1  -9  -4 20799.0 943.021  69
   1  -9   4 21733.8 971.757  67
  -1  -9  -4 16281.4 713.781  71
   1  -9   5 6671.66 460.563  67
   1  -8  -9 9423.99 474.494  52
   1  -8  -8 19297.7 889.989  53
   1  -8  -8 16979.1 905.974  71
   1  -8  -7 14849.8 897.563  71
   1  -8  -7 13019.6 815.264  53
  -1  -8   7 14376.9 846.229  39
  -1  -8   7 13375.9 769.584  43
   1  -8  -7 13408.9 847.703  60
   1  -8  -6 5684.53 564.456  53
  -1  -8   6 4790.21 507.461  39
   1  -8  -6 5324.13 552.132  60
   1  -8  -5 5093.93 522.003  69
   1  -8  -5 5931.55 610.413  53
  -1  -8   5 4664.08 517.136  39
   1  -8  -5 5349.40 572.619  60
   1  -8  -4 15779.5 975.015  69
  -1  -8   4 16196.0 971.046  67
   1  -8  -4 17810.4 1152.22  67
   1  -8  -4 17206.7 1098.80  53
  -1  -8   4 13051.6 878.451  39
   1  -8  -4 15682.7 1011.24  60
  -1  -8   3 21761.8 1204.75  67
   1  -8  -3 23841.3 1254.68  69
   1  -8  -3 24460.9 1415.01  67
  -1  -8   3 26213.1 1378.84  66
   1  -8  -3 20820.6 1207.67  60
   1  -8  -2 9690.34 884.480  67
  -1  -8   2 10144.9 810.327  67
   1  -8  -2 9367.57 775.805  69
   1  -8  -2 9890.78 788.859  60
   1  -8  -2 8782.06 765.368  59
  -1  -8   2 10036.6 838.128  66
   1  -8  -1 38837.3 1740.10  69
  -1  -8   1 41182.6 1788.16  67
   1  -8  -1 38757.9 1901.95  67
  -1  -8   1 42284.3 1814.64  66
   1  -8  -1 39075.5 1732.92  59
   1  -8  -1 39384.6 1669.32  60
   1  -8   0 17023.7 1086.16  69
   1  -8   0 17032.2 1206.82  67
  -1  -8   0 18200.8 1211.97  69
  -1  -8   0 17732.1 1117.34  67
  -1  -8   0 16416.5 1063.82  66
   1  -8   0 18383.8 1092.43  59
   1  -8   1 85737.6 2885.86  69
  -1  -8  -1 88607.3 2959.10  67
  -1  -8  -1 85420.3 3045.03  69
   1  -8   1 82671.9 2733.21  59
  -1  -8  -1 83904.6 2818.19  66
  -1  -8  -2 18342.2 1195.63  69
   1  -8   2 17263.6 1081.06  69
  -1  -8  -2 17517.8 1117.89  67
   1  -8   2 17591.6 1192.09  68
  -1  -8  -2 17036.0 1024.79  66
  -1  -8  -3 35379.0 1699.84  69
   1  -8   3 33963.6 1573.90  69
   1  -8   3 32800.0 1672.02  68
  -1  -8  -3 36980.3 1582.78  53
  -1  -8  -4 5044.07 583.190  69
   1  -8   4 4868.71 586.409  68
   1  -8   4 5599.42 566.938  69
  -1  -8  -4 4739.63 520.810  71
  -1  -8  -4 4908.03 509.052  53
   1  -8   5 15766.3 1008.34  68
  -1  -8  -5 16385.1 1011.29  69
   1  -8   5 14610.8 895.776  69
  -1  -8  -5 13550.1 869.158  71
  -1  -8  -5 14113.6 809.650  53
  -1  -8  -6 23847.2 1123.55  71
   1  -8   6 23586.7 1091.07  69
   1  -8   6 23346.3 1187.19  68
   1  -8   7 5783.98 499.838  68
  -1  -8  -7 5797.35 473.823  71
  -1  -8  -8 32717.9 1130.82  71
   1  -7 -10 14730.0 808.195  71
  -1  -7  10 13362.1 773.624  43
  -1  -7  10 12955.3 767.327  39
   1  -7 -10 12677.9 676.388  52
  -1  -7   9 689.605 198.655  43
  -1  -7   9 421.831 162.702  39
   1  -7  -9 830.409 205.652  53
   1  -7  -8 1481.77 320.122  60
  -1  -7   8 892.209 241.321  43
   1  -7  -8 1168.95 269.562  53
   1  -7  -7 44250.4 1985.80  60
   1  -7  -7 47979.9 1979.48  53
  -1  -7   7 42045.1 1840.48  43
  -1  -7   7 42683.4 1897.64  39
  -1  -7   6 946.790 242.502  68
   1  -7  -6 523.906 209.499  69
  -1  -7   6 923.475 282.397  36
   1  -7  -6 805.093 272.653  60
   1  -7  -6 580.680 232.109  53
  -1  -7   6 400.034 211.561  39
  -1  -7   6 628.475 216.748  43
  -1  -7   5 42840.6 1827.21  68
   1  -7  -5 40869.4 1856.19  69
  -1  -7   5 42663.4 1965.13  36
   1  -7  -5 43730.5 2020.72  60
   1  -7  -5 42262.1 1970.33  53
  -1  -7   5 42782.8 1917.53  39
  -1  -7   5 40850.7 1807.89  43
  -1  -7   4 18369.6 1171.11  68
   1  -7  -4 21612.6 1279.82  69
  -1  -7   4 24533.7 1411.13  36
   1  -7  -4 20916.1 1330.81  59
   1  -7  -4 20907.3 1327.15  60
  -1  -7   4 22996.4 1300.42  39
  -1  -7   4 20148.9 1156.70  43
   1  -7  -4 23673.5 1386.42  15
   1  -7  -4 20914.4 1345.71  22
  -1  -7   4 20094.7 1391.71  21
  -1  -7   4 21692.3 1280.54  17
  -1  -7   4 20028.8 1436.59  25
   1  -7  -3 53694.2 2280.04  60
   1  -7  -3 56968.5 2346.44  59
   1  -7  -3 56872.9 2432.59  67
  -1  -7   3 51831.8 2157.08  68
   1  -7  -3 54135.2 2210.34  69
  -1  -7   3 53824.8 1983.69  43
  -1  -7   3 57617.8 2180.07  39
  -1  -7   3 52984.4 2096.91  17
  -1  -7   3 48656.5 2420.17  25
   1  -7  -2 14156.8 1053.24  59
   1  -7  -2 11369.3 1017.25  67
   1  -7  -2 13244.1 994.360  69
  -1  -7   2 12667.3 874.461  39
  -1  -7   2 13196.3 969.838  20
  -1  -7   2 13433.6 1134.98  25
   1  -7  -2 12321.6 1012.00  25
  -1  -7   1 52296.8 2262.24  66
   1  -7  -1 55227.1 2270.69  59
   1  -7  -1 55214.0 2253.47  69
  -1  -7   1 56719.9 2298.96  67
  -1  -7   1 53807.0 2271.15   6
  -1  -7   1 53804.5 2173.27  20
   1  -7  -1 56535.3 2398.69  25
  -1  -7   0 3020.95 461.969  20
  -1  -7   0 3217.12 544.433  25
   1  -7   0 3927.26 589.039  25
  -1  -7   0 3894.37 554.860  67
   1  -7   0 4288.89 558.026  69
   1  -7   0 3304.18 543.477  68
   1  -7   0 4023.32 543.195  59
  -1  -7   0 3681.38 532.258  66
   1  -7   1 13392.3 1051.45  21
   1  -7   1 14248.5 1161.41  25
  -1  -7  -1 15318.8 1103.74  67
   1  -7   1 14368.1 1123.16  68
   1  -7   1 15558.1 1084.52  69
   1  -7   1 14030.4 1020.17  59
  -1  -7  -1 14544.5 1056.57  66
  -1  -7  -2 12077.3 986.973  67
   1  -7   2 14830.5 1049.81  69
   1  -7   2 11771.5 1025.22  68
   1  -7   2 12868.0 944.030  39
   1  -7   2 10801.9 806.478  43
   1  -7   2 11694.2 996.868  21
   1  -7   2 11570.5 900.941  59
  -1  -7  -2 15034.4 1045.30  66
  -1  -7  -3 10335.4 910.656  67
   1  -7   3 10562.0 969.761  68
   1  -7   3 11085.8 907.569  69
  -1  -7  -3 10430.9 826.989  60
  -1  -7  -3 10590.5 876.410  66
   1  -7   3 10916.9 894.127  39
   1  -7   3 10785.8 835.670  43
   1  -7   3 9687.07 880.368  15
   1  -7   3 10725.1 972.138  21
   1  -7   4 22952.9 1341.71  69
   1  -7   4 21297.3 1383.56  68
  -1  -7  -4 18847.9 1161.87  66
   1  -7   4 20961.3 1146.87  34
  -1  -7  -4 19875.2 1197.59  60
  -1  -7  -4 20762.4 1209.42  53
   1  -7   4 20805.7 1289.77  39
   1  -7   4 21537.0 1246.09  43
   1  -7   5 3145.83 527.745  68
  -1  -7  -5 4050.63 537.889  71
   1  -7   5 3831.67 532.850  69
   1  -7   5 3116.84 439.591  34
  -1  -7  -5 2890.91 419.009  66
  -1  -7  -5 3240.77 472.483  60
  -1  -7  -5 3208.99 447.191  53
   1  -7   5 2979.55 467.516  43
   1  -7   5 4822.26 612.109  39
   1  -7   6 19297.9 1257.08  68
  -1  -7  -6 20363.2 1210.66  71
  -1  -7  -6 17552.4 1005.12  53
   1  -7   6 18030.3 1132.82  43
   1  -7   6 17669.9 1076.01  34
   1  -7   7 19749.2 1210.42  68
  -1  -7  -7 19038.0 1134.46  71
  -1  -7  -7 19160.0 962.267  53
   1  -7   7 19840.3 1144.09  43
   1  -7   7 18974.6 1087.14  34
   1  -7   8 3359.35 442.439  68
  -1  -7  -8 2894.24 400.178  71
   1  -7   8 2634.25 383.050  43
   1  -7   8 2659.65 370.848  34
   1  -7   9 227.975 125.427  68
  -1  -7  -9 200.992 113.192  71
   1  -7   9 437.196 145.337  34
  -1  -7 -10 6103.54 424.856  70
   1  -6 -12 9643.45 464.506  52
   1  -6 -11 44687.3 1700.20  71
  -1  -6  11 46782.6 1692.49  39
  -1  -6  11 47215.5 1737.64  43
   1  -6 -11 43659.2 1558.04  52
   1  -6 -10 30146.5 1360.02  70
   1  -6 -10 33454.6 1528.45  71
  -1  -6  10 30422.5 1476.84  43
  -1  -6  10 31341.1 1483.22  39
   1  -6  -9 51493.1 2174.81  71
  -1  -6   9 54949.0 2041.49  36
   1  -6  -9 54020.2 2141.52  53
  -1  -6   9 54238.6 2208.98  39
   1  -6  -9 50676.9 2204.75  60
  -1  -6   8 10669.9 872.679  36
   1  -6  -8 13524.9 1064.02  60
   1  -6  -8 13572.0 1008.80  53
  -1  -6   8 13164.2 1020.28  39
   1  -6  -7 2610.05 468.281  22
  -1  -6   7 3838.97 609.414  21
  -1  -6   7 2641.04 481.810  17
  -1  -6   7 2496.02 493.070  25
  -1  -6   7 3336.99 472.862  68
  -1  -6   7 3710.87 528.552  36
   1  -6  -7 3249.44 539.200  60
   1  -6  -7 3287.69 511.106  53
  -1  -6   7 2795.53 455.711  13
   1  -6  -6 34600.2 1750.89  22
  -1  -6   6 36959.7 1954.27  25
  -1  -6   6 33707.4 1759.01  17
   1  -6  -6 34279.3 1588.65  15
  -1  -6   6 35216.4 1901.23  21
   1  -6  -6 33810.1 1679.52  69
   1  -6  -6 34786.8 1816.62  67
  -1  -6   6 31549.1 1582.83  68
  -1  -6   6 36055.5 1749.62  36
   1  -6  -6 33893.8 1801.91  60
   1  -6  -6 34191.3 1739.91  53
  -1  -6   6 33779.9 1638.28  13
   1  -6  -5 26517.3 1439.26  69
  -1  -6   5 25480.4 1382.18  68
  -1  -6   5 25211.8 1450.29  36
   1  -6  -5 24572.1 1500.87  60
   1  -6  -5 26779.8 1542.82  59
  -1  -6   5 26668.9 1357.38  13
   1  -6  -5 27793.4 1440.69  15
  -1  -6   5 28817.4 1682.54  25
   1  -6  -5 26639.4 1501.44  22
  -1  -6   5 25353.2 1460.61  17
  -1  -6   5 26392.2 1601.92  21
  -1  -6   4 30389.7 1516.64  68
   1  -6  -4 31789.9 1572.26  69
  -1  -6   4 32325.0 1627.91  36
  -1  -6   4 29886.8 1508.65   6
  -1  -6   4 27369.1 1333.60  13
  -1  -6   4 32289.4 1605.63  17
  -1  -6   4 28969.9 1695.38  25
  -1  -6   4 31843.9 1726.67  21
   1  -6  -4 31545.8 1652.49  59
   1  -6  -3 3869.79 515.397  69
  -1  -6   3 3739.23 498.413  68
   1  -6  -3 2916.77 472.970  59
  -1  -6   3 3629.63 502.344   6
  -1  -6   3 3723.52 507.738   2
  -1  -6   3 4269.94 610.656  25
  -1  -6   3 4022.88 580.059  21
  -1  -6   3 4486.65 549.293  17
   1  -6  -3 3390.50 485.698  25
  -1  -6   2 17167.6 1102.99  68
   1  -6  -2 18587.0 1147.40  69
  -1  -6   2 18080.4 1138.40  36
   1  -6  -2 17796.1 1170.40  59
  -1  -6   2 17819.1 1124.36   6
  -1  -6   2 17515.6 1128.91   2
   1  -6  -2 18074.7 1166.00  25
  -1  -6   2 18957.1 1069.11  17
  -1  -6   2 16445.2 1223.56  25
  -1  -6   1 72301.7 2332.66  39
   1  -6  -1 72241.2 2708.37  68
   1  -6  -1 67454.3 2510.87  69
  -1  -6   1 67421.6 2509.50  68
  -1  -6   1 74055.3 2570.97  36
   1  -6  -1 72495.0 2632.79  59
  -1  -6   1 62829.7 2486.47   6
  -1  -6   1 68493.1 2557.44   2
   1  -6  -1 69917.8 2657.18  25
  -1  -6   1 67503.5 2261.47  17
  -1  -6   1 66760.7 2695.38  25
   1  -6   0 49395.7 2199.32  68
   1  -6   0 56062.1 2153.45  69
  -1  -6   0 54424.0 2095.31  36
   1  -6   0 51190.6 2124.18  59
   1  -6   0 53293.4 1973.91  39
   1  -6   0 52841.1 2131.39  21
  -1  -6   0 52051.5 2079.84  20
   1  -6   1 103906. 3067.39  43
   1  -6   1 102886. 3203.47  39
  -1  -6  -1 91899.9 3238.01  67
   1  -6   1 103969. 3460.22  68
   1  -6   1 98824.6 3249.60  69
  -1  -6  -1 97572.2 3288.31  66
   1  -6   1 95000.7 3229.31  59
  -1  -6  -1 97664.9 3265.99   2
  -1  -6  -1 101964. 3306.08   6
  -1  -6  -1 105751. 3497.94  25
   1  -6   1 102186. 3354.15  21
  -1  -6  -1 98986.2 3217.13  20
   1  -6   2 20056.5 1136.88  43
   1  -6   2 17728.3 1130.52  39
   1  -6   2 18638.1 1259.36  68
  -1  -6  -2 19179.5 1217.16  67
   1  -6   2 17541.1 1248.45  27
  -1  -6  -2 20082.1 1222.07  66
   1  -6   2 17433.5 1134.77  59
  -1  -6  -2 17695.9 1130.26   6
  -1  -6  -2 19427.9 1175.55   2
   1  -6   2 19787.1 1143.58  17
  -1  -6  -2 19779.7 1177.59  20
   1  -6   2 20036.5 1275.84  21
   1  -6   3 55918.7 2308.62  39
   1  -6   3 59447.7 2286.31  43
   1  -6   3 58199.6 2455.03  68
  -1  -6  -3 60442.5 2411.27  67
  -1  -6  -3 56547.6 2282.60  66
  -1  -6  -3 57383.9 2244.79  60
   1  -6   3 57502.1 2260.23  59
  -1  -6  -3 58627.5 2242.70   6
  -1  -6  -3 59850.8 2261.65   2
  -1  -6  -3 58544.9 2264.49  20
   1  -6   3 57253.1 2277.82  17
   1  -6   3 60889.3 2473.36  21
  -1  -6  -4 64791.2 2622.62  67
   1  -6   4 73850.5 2825.79  68
   1  -6   4 70062.2 2891.73  27
  -1  -6  -4 67207.3 2561.64  60
  -1  -6  -4 70419.6 2588.68  66
   1  -6   4 69834.1 2598.20  43
   1  -6   4 65723.1 2611.97  39
   1  -6   4 67212.3 2612.79  17
   1  -6   4 68896.6 2521.87  15
   1  -6   4 68761.2 2785.38  21
   1  -6   5 53581.0 2230.08  43
   1  -6   5 53061.3 2353.45  68
  -1  -6  -5 49899.1 2091.35  66
   1  -6   5 55386.4 2514.56  27
  -1  -6  -5 50896.4 2173.89  60
  -1  -6  -5 49914.2 2023.66  53
   1  -6   5 52572.6 2255.77  17
   1  -6   5 51573.6 2382.01  21
  -1  -6  -5 44964.7 1963.24  22
   1  -6   6 67228.9 2708.11  39
   1  -6   6 75359.0 2805.92  43
   1  -6   6 72398.9 2900.79  68
  -1  -6  -6 72966.8 2761.87  71
  -1  -6  -6 71151.0 2586.21  66
   1  -6   6 75301.3 3076.07  27
  -1  -6  -6 70389.2 2730.18  60
  -1  -6  -6 69291.6 2481.23  53
   1  -6   6 71127.5 2970.67  21
  -1  -6  -7 61215.6 2469.19  71
   1  -6   7 63219.2 2601.14  68
  -1  -6  -7 56990.0 2207.69  66
  -1  -6  -7 62044.7 2192.29  53
   1  -6   7 57938.0 2422.07  39
   1  -6   8 20485.6 1298.10  68
  -1  -6  -8 18191.3 1177.11  71
   1  -6   8 18728.0 1182.59  43
   1  -6   8 18861.8 1185.02  39
   1  -6   8 17518.3 1059.82  35
   1  -6   8 20527.8 1241.09  34
  -1  -6  -9 5983.87 628.738  71
   1  -6   9 5991.22 642.459  68
   1  -6   9 5837.26 598.729  39
   1  -6   9 6024.27 619.695  43
   1  -6   9 5753.66 609.571  34
   1  -6   9 6291.82 585.387  35
   1  -6  10 57565.9 2029.82  68
  -1  -6 -10 53337.6 1969.78  70
  -1  -6 -10 56506.8 2027.30  71
   1  -6  10 56131.0 1987.22  43
   1  -6  10 55977.9 1886.85  35
  -1  -6 -11 21818.0 953.980  70
   1  -6  11 21848.8 897.943  68
  -1  -5  12 6446.94 513.468  39
  -1  -5  12 5722.49 530.407  43
   1  -5 -12 6420.24 513.359  52
   1  -5 -11 4424.65 495.233  70
   1  -5 -11 5025.51 566.932  71
   1  -5 -11 4484.59 502.171  52
  -1  -5  11 4402.36 535.729  43
  -1  -5  11 4958.94 535.542  39
   1  -5 -10 61.1108 130.370  60
   1  -5 -10 406.156 223.117  71
  -1  -5  10 110.982 118.387  39
  -1  -5   9 45702.3 2104.87  13
  -1  -5   9 41582.0 1971.11  39
   1  -5  -9 44384.3 2041.26  71
   1  -5  -9 38551.4 1974.93  60
   1  -5  -9 43388.6 1981.67  53
  -1  -5   9 46296.7 2178.63  24
   1  -5  -9 40516.6 1949.09  22
  -1  -5   9 47173.1 2132.57  17
  -1  -5   9 47373.0 2242.21  21
  -1  -5   9 44954.6 1864.16  36
  -1  -5   8 28305.6 1657.97  24
  -1  -5   8 31552.6 1785.25  21
   1  -5  -8 27423.4 1548.15  22
  -1  -5   8 26720.4 1588.84  17
  -1  -5   8 31418.9 1546.31  36
   1  -5  -8 29232.7 1598.82  53
  -1  -5   8 28057.4 1606.86  13
  -1  -5   7 70263.2 2753.13  24
  -1  -5   7 68902.9 2852.66  21
   1  -5  -7 70415.8 2690.64  22
   1  -5  -7 69826.2 2649.78  69
  -1  -5   7 72306.1 2588.35  68
  -1  -5   7 70768.9 2438.24  31
  -1  -5   7 75149.5 2659.21  36
   1  -5  -7 65727.6 2717.33  60
   1  -5  -7 69560.9 2673.55  53
  -1  -5   7 72540.7 2724.35  13
  -1  -5   6 1294.07 315.460  24
   1  -5  -6 1580.05 297.066  15
  -1  -5   6 1260.56 325.986  21
   1  -5  -6 1479.00 333.981  22
   1  -5  -6 2096.92 405.499  67
  -1  -5   6 2017.72 362.439  68
   1  -5  -6 1461.75 318.030  69
  -1  -5   6 1466.42 319.034  36
  -1  -5   6 2085.25 357.952  31
   1  -5  -6 1813.07 384.494  60
   1  -5  -6 1647.75 354.931  53
  -1  -5   6 1556.77 342.281  13
  -1  -5   5 19818.9 1149.35  68
   1  -5  -5 19287.1 1233.69  67
   1  -5  -5 23713.4 1269.59  69
  -1  -5   5 22276.8 1257.09  36
  -1  -5   5 21020.8 1160.50  31
   1  -5  -5 21339.3 1287.56  59
  -1  -5   5 19920.6 1097.74   2
  -1  -5   5 20288.2 1179.02  13
  -1  -5   5 21094.3 1121.72   6
  -1  -5   5 20539.0 1213.04  24
  -1  -5   5 21602.0 1281.56  17
   1  -5  -5 21251.9 1239.45  22
  -1  -5   5 21910.8 1341.31  21
   1  -5  -4 17851.1 1143.49  67
   1  -5  -4 16884.7 1048.61  69
  -1  -5   4 16798.0 1023.49  68
  -1  -5   4 19792.0 1098.98  31
  -1  -5   4 18250.9 1101.93  36
  -1  -5   4 17189.3 1003.28  13
  -1  -5   4 18838.5 1059.01   6
  -1  -5   4 19529.1 1080.20   2
  -1  -5   4 21107.8 1193.48  17
   1  -5  -4 18142.2 1007.08  25
  -1  -5   4 17788.6 1157.31  21
   1  -5  -4 17860.1 1140.05  59
  -1  -5   3 101674. 3054.27  31
  -1  -5   3 93712.7 2987.72   2
  -1  -5   3 95018.1 2994.09   6
  -1  -5   3 99274.8 2857.00  13
  -1  -5   3 95373.0 3036.40  17
   1  -5  -3 93375.3 2960.08  25
  -1  -5   3 92847.4 3135.87  21
   1  -5  -3 94137.3 3113.18  59
  -1  -5   2 17553.9 1023.01  31
  -1  -5   2 18078.2 1047.68  36
   1  -5  -2 17213.6 1076.50  59
  -1  -5   2 17473.3 1024.42   2
  -1  -5   2 18085.8 1044.28   6
  -1  -5   2 18350.9 863.839  13
   1  -5  -2 19317.3 1084.77  25
  -1  -5   2 18578.1 1156.96  25
  -1  -5   2 20063.4 1044.15  17
  -1  -5   2 17816.1 1095.57  21
   1  -5  -1 96916.1 2791.77  39
  -1  -5   1 98899.7 2978.05  36
  -1  -5   1 96813.0 2987.50  31
   1  -5  -1 98395.4 3125.32  68
  -1  -5   1 98023.0 3097.53  69
  -1  -5   1 99406.7 3041.79   6
  -1  -5   1 97791.1 3034.38   2
  -1  -5   1 96240.3 2823.80  17
   1  -5  -1 92504.6 2908.16  21
  -1  -5   1 89801.2 3092.30  25
   1  -5   0 36875.2 1662.92  27
  -1  -5   0 41284.8 1604.41  36
   1  -5   0 38989.8 1730.17  68
  -1  -5   0 42046.2 1748.57  69
   1  -5   0 41876.9 1589.82  39
   1  -5   0 40763.0 1485.14  43
   1  -5   0 38379.9 1457.62  17
  -1  -5   0 38224.2 1411.41  17
   1  -5   0 40873.8 1351.61  20
   1  -5   0 37693.1 1612.38  21
   1  -5   1 29178.3 1280.39  43
   1  -5   1 28495.7 1327.51  39
  -1  -5  -1 25641.9 1357.23  69
   1  -5   1 26303.2 1395.62  68
  -1  -5  -1 30884.8 1312.46  36
   1  -5   1 31092.4 1481.73  27
  -1  -5  -1 28827.2 1367.43   6
  -1  -5  -1 29214.2 1379.28   2
  -1  -5  -1 28492.2 1437.82  25
   1  -5   1 29756.1 1296.80  17
  -1  -5  -1 29434.5 1369.65  20
   1  -5   1 29853.9 1406.66  21
   1  -5   2 5846.33 579.264  39
   1  -5   2 5136.62 526.315  43
  -1  -5  -2 4330.68 523.406  67
   1  -5   2 4879.76 582.383  68
  -1  -5  -2 4344.72 519.012  66
  -1  -5  -2 5574.68 564.971   6
  -1  -5  -2 4427.66 507.615   2
  -1  -5  -2 5449.43 589.160  25
   1  -5   2 5438.68 540.853  17
  -1  -5  -2 4959.95 534.786  20
   1  -5   2 5844.75 602.327  21
   1  -5   3 42397.9 1807.71  39
   1  -5   3 43833.5 1789.25  43
   1  -5   3 38291.1 1818.30  68
  -1  -5  -3 40439.7 1790.34  67
   1  -5   3 41549.5 1915.69  27
   1  -5   3 41135.5 1748.63  59
  -1  -5  -3 41512.2 1752.04  60
  -1  -5  -3 40500.7 1755.73  66
  -1  -5  -3 41644.9 1692.26   2
  -1  -5  -3 41066.0 1681.52   6
   1  -5   3 39615.9 1830.93  21
  -1  -5  -3 42645.9 1764.50  20
   1  -5   3 44447.3 1821.62  17
   1  -5   4 56603.3 2229.36  43
  -1  -5  -4 57756.5 2280.38  67
   1  -5   4 57678.5 2358.86  68
   1  -5   4 58144.8 2422.41  27
  -1  -5  -4 53717.5 2176.62  66
  -1  -5  -4 58813.3 2254.69  60
   1  -5   4 57992.1 2016.23  24
   1  -5   4 57085.2 2351.93  21
   1  -5   4 58477.8 2278.88  17
  -1  -5  -4 60174.9 2097.35   6
  -1  -5  -4 56685.4 2061.26   2
  -1  -5  -5 12298.3 799.261   6
   1  -5   5 13288.6 990.271  43
   1  -5   5 13579.5 1004.55  39
  -1  -5  -5 12245.8 923.669  66
   1  -5   5 12788.8 1073.02  27
  -1  -5  -5 12951.9 987.208  60
  -1  -5  -5 13642.8 909.563  53
   1  -5   5 11262.9 817.744  24
   1  -5   5 12352.9 972.083  17
  -1  -5  -5 10023.9 791.503  22
   1  -5   5 13046.2 845.332  15
   1  -5   6 22798.4 1372.73  39
  -1  -5  -6 22587.8 1367.87  71
  -1  -5  -6 23716.1 1335.35  66
   1  -5   6 24139.1 1558.62  27
  -1  -5  -6 22830.9 1389.32  60
  -1  -5  -6 21574.7 1196.31  53
  -1  -5  -6 21852.5 1206.78  22
   1  -5   6 23505.0 1280.78  24
   1  -5   7 8749.29 839.908  43
   1  -5   7 9261.74 866.314  39
  -1  -5  -7 8689.16 788.773  66
  -1  -5  -7 9895.94 893.497  71
   1  -5   7 7842.38 904.693  27
  -1  -5  -7 7852.89 822.394  60
  -1  -5  -7 9126.39 749.656  53
   1  -5   7 8033.48 836.767  17
   1  -5   7 8020.39 769.116  24
   1  -5   7 10662.5 1038.60  21
   1  -5   8 13764.6 1209.87  27
  -1  -5  -8 14144.6 1002.35  66
  -1  -5  -8 13792.1 1080.40  71
   1  -5   8 15227.8 1273.73  21
   1  -5   8 15111.7 1093.42  39
   1  -5   8 14163.3 1084.55  43
  -1  -5  -9 50313.2 1986.09  66
  -1  -5  -9 49592.9 2157.67  71
   1  -5   9 50666.5 2077.64  39
   1  -5   9 44179.4 2031.98  43
   1  -5  10 9989.95 847.797  68
  -1  -5 -10 9012.32 790.946  71
   1  -5  10 8450.62 700.429  39
   1  -5  10 8064.91 724.231  43
   1  -5  10 8026.15 720.042  35
   1  -5  10 8752.59 779.845  34
   1  -5  11 6659.93 619.010  68
  -1  -5 -11 7216.11 623.695  70
   1  -5  11 6768.15 574.965  43
   1  -5  11 6742.15 575.244  38
   1  -5  11 6508.85 594.599  34
   1  -5  11 8489.69 656.861  35
  -1  -5 -12 7465.23 526.054  70
   1  -5  12 6866.78 480.706  68
   1  -4 -13 38952.1 1401.94  52
  -1  -4  13 38865.2 1478.36  34
  -1  -4  12 6438.18 596.551  43
  -1  -4  12 6610.07 562.587  39
   1  -4 -12 6844.08 606.092  70
   1  -4 -12 6127.77 578.268  52
  -1  -4  11 29775.3 1480.74  39
   1  -4 -11 32554.3 1510.91  55
   1  -4 -11 33554.5 1580.24  52
   1  -4 -11 31977.6 1540.69  70
   1  -4 -11 34554.9 1669.20  71
  -1  -4  10 67.1823 124.130  13
  -1  -4  10 112.781 147.335  39
   1  -4 -10 61.4985 146.681  71
   1  -4 -10 110.738 132.068  70
   1  -4 -10 128.349 136.909  60
   1  -4 -10 362.248 191.199  55
   1  -4 -10 119.371 110.287  22
  -1  -4  10 211.200 167.904  21
  -1  -4  10 229.475 199.836  24
  -1  -4  10 244.432 159.656  17
   1  -4  -9 83625.0 3045.22  71
   1  -4  -9 84457.7 3110.14  60
  -1  -4   9 85145.2 2792.47  36
   1  -4  -9 82751.8 2837.67  55
   1  -4  -9 78152.0 2959.48  53
  -1  -4   9 81860.0 3033.75  17
  -1  -4   9 86418.0 3254.15  24
  -1  -4   9 93331.2 3308.26  21
   1  -4  -9 82613.9 3011.24  22
   1  -4  -8 64192.1 2507.77  22
  -1  -4   8 64356.5 2554.30  17
  -1  -4   8 66038.8 2677.43  24
  -1  -4   8 69863.1 2713.08  21
   1  -4  -8 63029.7 2564.23  60
   1  -4  -8 61082.2 2227.11  64
  -1  -4   8 65585.1 2376.66  36
  -1  -4   8 67866.4 2536.03  27
   1  -4  -8 60900.8 2466.56  53
  -1  -4   8 67181.6 2628.25  13
  -1  -4   7 3078.22 492.564  24
   1  -4  -7 4173.09 532.132  22
  -1  -4   7 3617.73 522.235  17
  -1  -4   7 3631.49 535.275  21
  -1  -4   7 3565.85 423.109  31
  -1  -4   7 4225.46 549.331  27
   1  -4  -7 4728.48 596.043  60
   1  -4  -7 4019.87 536.131  53
  -1  -4   7 4002.31 548.722  13
   1  -4  -6 57212.4 2220.85  69
   1  -4  -6 62144.6 2346.22  67
  -1  -4   6 62304.0 2133.49  31
  -1  -4   6 68874.6 2437.68  27
  -1  -4   6 59803.5 2362.40  24
   1  -4  -6 59959.4 2020.40  15
   1  -4  -6 64239.6 2320.07  22
  -1  -4   6 64242.8 2430.38  21
  -1  -4   6 67867.9 2436.32  17
   1  -4  -6 62917.1 2312.78  53
  -1  -4   6 62432.8 1976.45   2
  -1  -4   6 64383.7 2371.07  13
  -1  -4   5 11834.1 719.465  42
  -1  -4   5 11902.5 738.327   6
  -1  -4   5 12251.5 738.588   2
   1  -4  -5 12303.4 854.564  22
  -1  -4   5 15124.8 940.293  24
  -1  -4   5 13275.1 916.104  21
  -1  -4   5 12803.8 889.443  27
  -1  -4   5 12701.6 806.582  31
  -1  -4   4 11505.7 708.446  42
  -1  -4   4 12434.1 743.450   2
  -1  -4   4 12069.0 742.019   6
  -1  -4   4 12509.2 822.683  24
   1  -4  -4 10870.0 674.498  25
  -1  -4   4 11561.3 812.927  21
  -1  -4   4 11359.7 825.602  27
  -1  -4   4 12077.5 760.990  31
  -1  -4   3 44311.6 1580.52  42
  -1  -4   3 45270.3 1640.72   2
  -1  -4   3 43275.4 1622.00   6
   1  -4  -3 46206.6 1610.07  25
  -1  -4   3 44598.6 1663.84  24
  -1  -4   3 46169.8 1769.04  21
  -1  -4   3 44937.6 1642.12  31
  -1  -4   2 137696. 3611.79  42
  -1  -4   2 133078. 3658.96   6
  -1  -4   2 134185. 3671.84   2
   1  -4  -2 136223. 3312.86  20
   1  -4  -2 139173. 3527.56  21
  -1  -4   2 130093. 3736.65  21
  -1  -4   2 134798. 3648.08  31
   1  -4  -1 42184.0 1413.80  39
  -1  -4   1 39703.5 1469.22  42
  -1  -4   1 41494.4 1546.97   2
   1  -4  -1 39673.0 1237.22  20
  -1  -4   1 41078.9 1566.46  21
  -1  -4   1 42487.9 1633.41  25
   1  -4  -1 39574.7 1446.17  21
  -1  -4   1 38183.5 1467.72  36
   1  -4  -1 39199.4 1500.90  27
   1  -4   0 43445.4 1499.15  39
   1  -4   0 40190.5 1416.17  43
   1  -4   0 42957.4 1530.49  21
   1  -4   0 42741.9 1431.89  17
   1  -4   0 43165.8 1593.88  27
  -1  -4   0 40611.2 1466.36  36
  -1  -4   0 43011.6 1529.00  31
   1  -4   1 54517.4 1848.77  39
   1  -4   1 53327.2 1794.18  43
  -1  -4  -1 56000.3 1909.07   2
  -1  -4  -1 57986.0 1893.06  20
   1  -4   1 55135.9 1889.68  21
   1  -4   1 54688.5 1812.02  17
  -1  -4  -1 55632.0 1768.42  36
  -1  -4  -1 55653.3 1824.09  31
   1  -4   1 52466.2 1919.94  27
   1  -4   1 54620.1 1880.85  36
   1  -4   2 10402.8 707.459  39
   1  -4   2 9330.05 660.290  43
  -1  -4  -2 11386.1 709.137   2
  -1  -4  -2 9457.76 659.628   6
   1  -4   2 10963.7 658.511  13
   1  -4   2 10344.7 579.170  24
  -1  -4  -2 10369.3 724.638  25
  -1  -4  -2 9906.44 436.313  17
   1  -4   2 10608.1 740.787  21
  -1  -4  -2 11220.0 731.988  20
  -1  -4  -2 10403.2 605.264  36
   1  -4   2 10361.5 703.343  36
  -1  -4  -3 488958. 11075.9   6
  -1  -4  -3 505049. 11089.8   2
   1  -4   3 492707. 11143.6  13
   1  -4   3 493829. 11261.8  17
  -1  -4  -3 491230. 11226.6  20
   1  -4   3 460130. 10917.8  24
   1  -4   3 459750. 11127.8  36
   1  -4   3 508352. 11446.1  27
   1  -4   4 61057.6 2217.42  39
   1  -4   4 64620.7 2155.61  36
   1  -4   4 62242.6 2354.08  27
  -1  -4  -4 59335.3 1984.91   2
   1  -4   4 62228.4 2192.66  13
  -1  -4  -4 58923.4 1997.08   6
   1  -4   4 64198.6 2065.51  24
   1  -4   5 102977. 3317.69  39
  -1  -4  -5 109118. 3423.22  69
  -1  -4  -5 103096. 3302.63  66
   1  -4   5 105856. 3193.87  36
   1  -4   5 111681. 3581.45  27
  -1  -4  -5 110539. 3434.34  60
   1  -4   5 113974. 3277.48  24
   1  -4   5 102844. 3004.70  15
  -1  -4  -5 108131. 3153.00  22
   1  -4   5 113731. 3422.35  13
  -1  -4  -5 111210. 3021.05   2
  -1  -4  -5 106734. 3004.91   6
   1  -4   6 9152.90 800.349  13
   1  -4   6 7403.95 727.014  39
  -1  -4  -6 9133.81 809.222  71
  -1  -4  -6 8415.77 782.034  69
  -1  -4  -6 8237.77 743.419  66
   1  -4   6 8562.34 678.599  36
   1  -4   6 8175.33 839.015  27
   1  -4   6 8576.52 764.669  62
  -1  -4  -6 8299.59 787.181  60
  -1  -4  -6 8815.62 697.312  53
  -1  -4  -6 8471.26 678.836  22
   1  -4   6 8674.99 753.166  24
   1  -4   6 8504.53 777.709  17
   1  -4   7 14158.3 1071.58  13
   1  -4   7 15515.2 1056.28  39
   1  -4   7 13622.2 1021.97  43
  -1  -4  -7 13677.5 1002.17  66
  -1  -4  -7 13119.5 1036.39  71
   1  -4   7 16422.1 1234.23  27
  -1  -4  -7 13433.0 850.457  30
  -1  -4  -7 14351.9 1089.51  60
  -1  -4  -7 13141.3 919.859  55
  -1  -4  -7 14627.6 933.000  53
   1  -4   7 16115.5 1112.39  24
  -1  -4  -7 13878.2 908.688  22
   1  -4   7 13971.8 1063.81  17
  -1  -4  -8 71404.3 2665.95  66
  -1  -4  -8 73870.9 2804.16  71
   1  -4   8 74832.2 2691.30  39
   1  -4   8 68554.9 2670.51  43
   1  -4   8 70658.5 2938.05  27
  -1  -4  -8 68019.4 2387.78  30
  -1  -4  -8 71457.8 2570.90  55
   1  -4   8 71631.8 2744.97  17
   1  -4   8 72503.4 2790.84  24
  -1  -4  -9 7933.92 820.092  71
  -1  -4  -9 6813.62 717.929  66
   1  -4   9 8035.48 780.952  43
   1  -4   9 7402.29 728.649  39
  -1  -4  -9 7468.41 662.061  30
   1  -4   9 7994.56 888.606  27
  -1  -4  -9 8074.15 752.777  55
   1  -4   9 8688.95 858.335  24
  -1  -4 -10 36216.4 1541.27  30
   1  -4  10 35451.1 1748.43  34
  -1  -4 -10 36881.0 1826.45  71
  -1  -4 -10 34476.9 1623.56  55
   1  -4  10 36992.5 1612.24  39
   1  -4  10 34897.8 1669.40  43
   1  -4  11 2665.13 418.195  34
  -1  -4 -11 2994.42 372.804  30
  -1  -4 -11 2653.31 426.228  70
   1  -4  11 2374.53 363.253  43
   1  -4  12 35392.7 1428.54  34
   1  -4  12 35270.4 1479.46  35
   1  -4  12 33619.0 1440.48  38
  -1  -4 -12 35678.7 1494.45  70
   1  -4  13 608.466 130.403  68
   1  -3 -14 3107.08 340.362  55
   1  -3 -13 806.520 229.405  55
   1  -3 -13 259.159 131.375  52
  -1  -3  13 860.621 206.209  34
   1  -3 -12 9689.41 780.838  70
   1  -3 -12 10883.3 828.330  52
   1  -3 -12 9559.83 847.188  55
  -1  -3  12 10151.7 769.245  43
  -1  -3  11 6516.28 636.925  39
   1  -3 -11 7621.41 711.568  74
   1  -3 -11 5749.82 660.529  71
   1  -3 -11 6216.37 673.921  70
   1  -3 -11 8343.27 776.245  30
   1  -3 -11 8225.14 759.150  52
   1  -3 -11 7081.09 749.461  55
  -1  -3  11 6795.43 753.774  13
   1  -3 -10 1135.80 307.132  22
  -1  -3  10 1632.48 346.097  17
  -1  -3  10 1469.00 371.164  21
   1  -3 -10 1511.07 328.206  70
   1  -3 -10 1149.58 310.824  71
   1  -3 -10 1608.33 339.501  74
   1  -3 -10 1398.42 338.713  30
   1  -3 -10 1481.78 355.778  60
   1  -3 -10 1444.59 355.634  55
  -1  -3  10 1250.61 337.907  13
   1  -3  -9 33827.4 1688.59  22
  -1  -3   9 36423.7 1803.84  21
  -1  -3   9 32482.5 1627.31  17
   1  -3  -9 34323.8 1694.62  71
   1  -3  -9 34062.9 1610.46  74
   1  -3  -9 32429.4 1593.00  30
   1  -3  -9 34315.4 1596.98  64
   1  -3  -9 32908.7 1688.79  60
   1  -3  -9 30158.9 1613.75  55
   1  -3  -9 35527.5 1718.82  53
  -1  -3   9 33760.7 1762.87  13
  -1  -3   8 23477.5 1293.86  17
   1  -3  -8 23539.7 1295.69  22
  -1  -3   8 24811.6 1398.96  21
   1  -3  -8 23001.6 1301.36  71
   1  -3  -8 21436.1 1196.10  74
   1  -3  -8 22067.7 1303.80  60
   1  -3  -8 20975.8 1172.00  64
  -1  -3   8 23029.7 1356.05  13
   1  -3  -8 24242.9 1329.45  53
   1  -3  -8 21614.1 1247.69  55
   1  -3  -8 22212.0 1210.02  30
   1  -3  -7 17285.3 1078.93  60
   1  -3  -7 17911.0 1073.45  53
  -1  -3   7 18834.3 1089.19  17
   1  -3  -7 16297.5 1025.34  22
  -1  -3   7 17005.0 1077.30  21
  -1  -3   7 17404.9 887.538  31
   1  -3  -7 17518.0 984.523  30
  -1  -3   7 16293.4 989.701  27
  -1  -3   6 8260.12 489.793   2
   1  -3  -6 8192.36 514.317  15
   1  -3  -6 8114.55 657.019  22
  -1  -3   6 8038.81 677.497  21
  -1  -3   6 9221.25 683.520  27
   1  -3  -6 8656.15 619.472  30
  -1  -3   5 223414. 5434.41  42
  -1  -3   5 229323. 5429.92   2
   1  -3  -5 229222. 5751.36  22
  -1  -3   5 227499. 5782.67  21
  -1  -3   5 235260. 5743.34  27
   1  -3  -5 234544. 5550.47  30
  -1  -3   4 64658.4 1932.74  42
  -1  -3   4 70467.5 1983.79   2
  -1  -3   4 65628.5 1945.88   8
   1  -3  -4 65969.6 1869.17  25
  -1  -3   4 64964.9 2116.77  21
  -1  -3   4 65457.1 2112.19  27
  -1  -3   3 180928. 4285.92   2
   1  -3  -3 173910. 4191.12  25
  -1  -3   3 165528. 4318.89  24
  -1  -3   3 171856. 4399.18  21
  -1  -3   3 173762. 4385.14  27
  -1  -3   2 56494.8 1701.95   2
   1  -3  -2 52638.6 1444.86  20
   1  -3  -2 52351.6 1550.14  21
  -1  -3   2 56070.8 1711.17  24
  -1  -3   2 54834.5 1742.01  21
   1  -3  -2 53593.3 1620.76  27
  -1  -3   2 54202.3 1744.46  27
  -1  -3   1 292295. 7034.01   2
   1  -3  -1 301545. 6946.62  21
   1  -3  -1 314010. 6735.46  20
  -1  -3   1 306249. 7108.86  21
   1  -3  -1 309593. 7040.00  27
  -1  -3   0 197020. 5118.50  25
  -1  -3   0 193882. 5018.15  21
   1  -3   0 217949. 4954.20  17
   1  -3   0 226912. 5026.76  21
   1  -3   0 212001. 5059.82  27
   1  -3   1 107225. 2714.62  13
  -1  -3  -1 110342. 2806.49   2
   1  -3   1 104095. 2567.12  24
  -1  -3  -1 105108. 2814.37  20
   1  -3   2 74200.4 2072.19  13
  -1  -3  -2 69226.6 2016.19   2
   1  -3   2 72627.9 2130.78  17
  -1  -3  -2 71835.7 2134.87  20
   1  -3   2 68189.9 1904.25  24
  -1  -3  -2 66393.6 2107.09  25
   1  -3   2 64817.4 2114.54  27
   1  -3   2 67769.7 2046.35  36
   1  -3   3 32010.1 1332.24  39
   1  -3   3 34905.8 1341.42  13
  -1  -3  -3 35502.9 1251.04   2
  -1  -3  -3 36943.4 1389.92  20
   1  -3   3 37832.2 1467.64  27
   1  -3   3 34979.7 1295.03  36
   1  -3   4 7380.22 583.608  39
  -1  -3  -4 8058.58 494.793   2
  -1  -3  -4 7036.48 479.966   6
   1  -3   4 8973.35 642.381  13
   1  -3   4 6701.54 567.355  17
  -1  -3  -4 7938.25 523.914  22
  -1  -3  -4 6117.42 444.638  30
   1  -3   4 6392.95 579.629  27
   1  -3   4 6836.10 515.332  36
   1  -3   5 23458.1 1160.19  39
   1  -3   5 24231.7 1047.39  36
  -1  -3  -5 21369.9 978.518  30
   1  -3   5 21089.3 1194.26  27
  -1  -3  -5 22313.5 891.114   2
   1  -3   5 22943.1 1179.87  17
   1  -3   5 21687.7 904.556  15
  -1  -3  -5 24384.9 1049.05  22
  -1  -3  -6 67688.4 2415.37  66
  -1  -3  -6 67804.0 2464.25  71
  -1  -3  -6 75126.7 2558.40  69
  -1  -3  -6 65585.7 2206.63  30
   1  -3   6 69947.4 2620.26  27
  -1  -3  -6 71124.3 2530.19  60
   1  -3   6 71493.6 2407.47  39
   1  -3   6 71344.2 2467.02  17
  -1  -3  -6 66420.6 2206.74  22
   1  -3   7 52399.7 2113.04  13
  -1  -3  -7 48903.7 2076.61  71
  -1  -3  -7 48909.4 2018.78  66
   1  -3   7 44686.9 1888.29  39
  -1  -3  -7 47172.3 1839.51  30
   1  -3   7 51057.8 2196.89  27
  -1  -3  -7 47159.7 1979.31  55
   1  -3   7 48758.6 2002.92  17
  -1  -3  -7 49658.8 1821.53  22
   1  -3   8 5438.13 651.625  13
   1  -3   8 4721.90 551.722  39
   1  -3   8 4886.15 597.514  43
  -1  -3  -8 5608.35 647.095  66
  -1  -3  -8 5601.01 669.933  71
   1  -3   8 6325.46 746.159  27
  -1  -3  -8 5385.66 577.556  30
  -1  -3  -8 6585.63 695.248  55
   1  -3   8 5431.97 619.402  17
  -1  -3  -8 4921.99 520.322  22
   1  -3   9 1588.31 385.625  27
  -1  -3  -9 1629.49 337.096  30
  -1  -3  -9 754.175 269.044  55
   1  -3   9 1216.39 294.393  39
   1  -3   9 712.422 242.022  43
  -1  -3  -9 1159.28 312.873  66
   1  -3  10 9846.83 868.166  34
  -1  -3 -10 8671.86 778.797  30
  -1  -3 -10 8878.73 855.725  55
   1  -3  10 8465.14 695.818  39
   1  -3  10 9940.13 813.093  43
   1  -3  11 17790.2 1118.14  34
  -1  -3 -11 17208.1 1063.91  30
  -1  -3 -11 17188.2 1161.56  70
  -1  -3 -11 16949.8 1147.12  55
   1  -3  11 15171.3 951.982  43
  -1  -3 -12 11202.0 847.476  55
   1  -3  12 11855.6 799.127  34
   1  -3  12 11738.9 848.413  35
  -1  -3 -12 12016.1 814.122  30
  -1  -3 -12 12615.0 903.190  70
   1  -3  13 2706.42 337.202  35
   1  -3  13 2177.38 312.332  38
  -1  -3 -13 2262.64 310.368  55
   1  -2 -14 2897.96 404.154  55
  -1  -2  14 2350.93 310.991  35
   1  -2 -13 34717.6 1542.65  81
   1  -2 -13 31507.9 1633.96  55
   1  -2 -13 33218.7 1476.57  52
   1  -2 -13 32881.2 1524.33  74
   1  -2 -12 739.409 278.001  55
   1  -2 -12 424.456 188.203  52
   1  -2 -12 701.456 241.857  30
   1  -2 -12 700.321 241.466  74
   1  -2 -12 1158.79 286.776  70
   1  -2 -11 43151.6 1974.24  22
   1  -2 -11 45692.2 2050.53  30
   1  -2 -11 46420.2 1991.32  70
   1  -2 -11 44055.6 1972.59  52
   1  -2 -11 46678.6 2200.44  55
  -1  -2  11 43045.1 2006.39  13
  -1  -2  10 59364.4 2232.31  17
   1  -2 -10 61902.5 2401.97  22
   1  -2 -10 58232.4 2314.49  70
   1  -2 -10 59907.5 2359.47  71
   1  -2 -10 57726.4 2371.88  30
   1  -2 -10 59785.0 2358.49  52
   1  -2 -10 60192.0 2520.98  55
  -1  -2  10 56810.3 2375.11  13
  -1  -2   9 67049.1 2380.15  17
   1  -2  -9 68714.7 2497.66  22
   1  -2  -9 65895.0 2409.72  70
   1  -2  -9 63473.7 2420.05  71
   1  -2  -9 63511.4 2412.24  30
   1  -2  -9 63671.6 2410.82  64
   1  -2  -9 67863.9 2471.89  60
   1  -2  -9 61138.9 2510.81  55
  -1  -2   9 68031.9 2538.92  13
   1  -2  -8 39008.7 1720.21  22
  -1  -2   8 41736.6 1693.95  17
   1  -2  -8 37709.0 1676.43  71
   1  -2  -8 41173.6 1706.45  64
   1  -2  -8 41733.4 1749.33  60
   1  -2  -8 37427.4 1749.16  55
   1  -2  -8 40955.4 1761.58  53
  -1  -2   8 40828.6 1780.59  13
   1  -2  -8 40388.3 1696.72  30
   1  -2  -7 38244.9 1581.92  22
  -1  -2   7 39656.2 1567.03  17
  -1  -2   7 35726.7 1415.02  27
   1  -2  -7 38634.0 1541.90  30
   1  -2  -6 131665. 3213.18  15
   1  -2  -6 142793. 3741.53  22
  -1  -2   6 134741. 3346.41   8
   1  -2  -6 130609. 3607.16  30
  -1  -2   6 141471. 3579.93  27
   1  -2  -5 15139.6 801.419  22
   1  -2  -5 16137.9 661.792  15
  -1  -2   5 15236.4 613.716   2
  -1  -2   5 15947.9 681.386   8
  -1  -2   5 15134.5 749.009  27
   1  -2  -5 13483.3 727.074  30
   1  -2  -4 108086. 2844.13  22
   1  -2  -4 110339. 2699.24  15
  -1  -2   4 103490. 2663.82   8
  -1  -2   4 104771. 2626.69   2
  -1  -2   4 101583. 2738.30  27
   1  -2  -3 44304.4 1213.36  25
  -1  -2   3 45003.6 1386.83  21
  -1  -2   3 45781.0 1315.64   8
  -1  -2   3 42178.1 1342.28  27
   1  -2  -2 53294.7 1352.38  21
  -1  -2   2 51166.1 1212.08  16
  -1  -2   2 50849.3 1518.87  21
  -1  -2   2 54287.2 1484.05   8
  -1  -2   2 51844.0 1507.95  27
   1  -2  -2 50469.3 1394.35  27
  -1  -2   1 242238. 5344.83  16
   1  -2  -1 245188. 5279.44  20
  -1  -2   1 254524. 5603.82  21
   1  -2  -1 249739. 5445.09  21
  -1  -2   1 240937. 5526.11   8
   1  -2  -1 234779. 5497.46  27
  -1  -2   0 79564.6 2130.92  25
   1  -2   0 86495.0 2057.71  17
   1  -2   0 74446.7 1817.68  24
  -1  -2   0 81792.6 2108.97  21
  -1  -2   0 81535.3 1962.93  16
   1  -2   0 78232.4 2062.26  27
   1  -2   1 735738. 16287.1  13
   1  -2   1 746433. 16324.4  17
  -1  -2  -1 782666. 16264.7  16
   1  -2   2 66748.8 1861.24  13
  -1  -2  -2 61920.5 1787.42  16
  -1  -2  -3 133644. 3219.97   2
   1  -2   3 133457. 3449.20  17
  -1  -2  -4 29516.6 963.650   2
   1  -2   4 30027.9 1213.78  13
   1  -2   4 30010.6 1171.76  39
   1  -2   4 28611.5 962.100  15
   1  -2   4 30767.5 1217.39  17
  -1  -2  -4 28955.0 1046.56  22
  -1  -2  -5 133908. 3206.10   2
   1  -2   5 141543. 3790.06  13
   1  -2   5 136071. 3632.79  39
  -1  -2  -5 139005. 3514.18  22
   1  -2   5 130861. 3223.97  15
   1  -2   5 141918. 3722.56  17
  -1  -2  -5 141869. 3597.56  30
   1  -2   6 129629. 3638.72  13
  -1  -2  -6 128225. 3479.37  30
   1  -2   6 120534. 3427.01  39
  -1  -2  -6 121776. 3332.58  22
   1  -2   6 123415. 3517.58  17
   1  -2   7 95451.8 2949.45  39
  -1  -2  -7 101786. 3214.14  66
  -1  -2  -7 101926. 3258.96  71
   1  -2   7 98629.1 3172.91  13
  -1  -2  -7 102886. 3084.78  30
  -1  -2  -7 104817. 3270.24  55
   1  -2   7 98812.1 3084.46  17
  -1  -2  -7 97146.6 2895.74  22
   1  -2   8 102183. 3094.63  39
   1  -2   8 103908. 3213.43  43
  -1  -2  -8 104450. 3426.00  66
   1  -2   8 108397. 3436.40  13
  -1  -2  -8 102480. 3288.16  30
   1  -2   8 113422. 3604.45  27
  -1  -2  -8 99549.1 3424.90  55
  -1  -2  -8 106485. 3278.18  51
   1  -2   8 99515.1 3224.90  17
  -1  -2  -8 101321. 3061.98  22
   1  -2   9 10037.1 924.813  27
  -1  -2  -9 10023.3 841.510  30
  -1  -2  -9 10633.1 927.726  66
  -1  -2  -9 10247.6 936.562  55
  -1  -2  -9 9567.67 818.511  51
   1  -2   9 8785.27 748.687  43
  -1  -2 -10 71499.1 2661.16  30
   1  -2  10 72666.7 2635.57  34
  -1  -2 -10 65468.8 2672.62  70
  -1  -2 -10 68704.1 2806.50  55
   1  -2  10 67290.6 2394.67  43
  -1  -2 -11 8339.86 849.997  55
   1  -2  11 7589.61 710.725  34
  -1  -2 -11 8116.23 776.522  30
  -1  -2 -11 7522.60 780.700  70
  -1  -2 -12 96356.2 3214.97  55
   1  -2  12 87668.3 2763.56  34
  -1  -2 -12 87911.4 2956.25  30
   1  -2  12 87438.3 2936.35  35
  -1  -2 -12 93334.0 3124.53  70
  -1  -2 -13 4960.69 535.368  55
   1  -2  13 4941.01 507.300  38
  -1  -2 -13 6151.27 548.052  30
   1  -2  13 4823.35 480.612  35
  -1  -2 -14 7495.51 479.163  81
  -1  -2 -14 13505.9 686.961  55
   1  -1 -15 9706.11 555.396  81
   1  -1 -15 10549.3 583.936  74
   1  -1 -14 1225.50 263.954  81
   1  -1 -14 1150.80 258.327  74
   1  -1 -13 9720.13 829.331  30
   1  -1 -13 8250.26 782.242  81
   1  -1 -13 8054.08 800.907  74
   1  -1 -13 8859.92 742.638  52
   1  -1 -12 31733.8 1591.57  52
   1  -1 -12 32054.3 1676.21  30
   1  -1 -11 19774.7 1244.44  70
   1  -1 -11 20595.0 1259.56  80
   1  -1 -11 21342.8 1333.19  30
   1  -1 -11 20451.3 1270.60  52
  -1  -1  11 20060.7 1241.99  13
  -1  -1  10 33689.4 1629.73  13
   1  -1 -10 33695.7 1659.48  80
   1  -1 -10 33609.5 1653.53  70
   1  -1 -10 33708.8 1680.78  30
   1  -1 -10 32167.1 1620.76  52
   1  -1 -10 35836.2 1699.91  22
  -1  -1   9 700.138 214.046  13
   1  -1  -9 955.612 257.828  80
   1  -1  -9 1025.35 264.313  84
   1  -1  -9 820.148 230.753  71
   1  -1  -9 736.747 222.916  70
   1  -1  -9 670.758 227.547  64
  -1  -1   9 1141.32 244.059  17
   1  -1  -9 658.360 216.738  22
   1  -1  -9 904.541 257.608  52
   1  -1  -9 1171.08 315.719  55
   1  -1  -9 724.010 234.639  30
   1  -1  -8 75313.7 2597.40  64
   1  -1  -8 77759.5 2600.08  30
   1  -1  -8 81041.1 2796.44  55
  -1  -1   8 78991.3 2292.23  23
   1  -1  -8 81003.3 2651.05  22
  -1  -1   8 80060.2 2450.21  17
   1  -1  -7 279125. 6591.32  22
  -1  -1   7 271550. 6187.84  23
  -1  -1   7 274360. 6427.26  17
  -1  -1   7 265643. 6074.34   8
   1  -1  -7 261787. 6537.20  30
  -1  -1   7 253287. 6154.43  27
  -1  -1   6 108937. 2684.24  23
   1  -1  -6 110656. 3006.13  22
  -1  -1   6 108055. 2682.39   8
   1  -1  -6 102498. 2940.45  30
  -1  -1   6 100993. 2693.07  27
   1  -1  -5 111052. 2903.00  22
  -1  -1   5 109750. 2593.06  23
  -1  -1   5 107779. 2661.06   8
  -1  -1   5 102893. 2454.41   2
  -1  -1   5 107651. 2650.36  27
   1  -1  -4 13105.9 502.974  15
   1  -1  -4 12957.9 635.737  22
  -1  -1   4 13294.0 552.334   8
  -1  -1   4 12722.0 523.706  27
   1  -1  -3 485241. 10860.5  15
  -1  -1   3 514561. 10840.2   1
  -1  -1   3 498093. 10906.6   8
  -1  -1   3 513803. 10852.9  27
   1  -1  -2 74325.3 1764.76  15
  -1  -1   2 66563.1 1730.11  21
  -1  -1   2 71155.8 1610.59   9
  -1  -1   2 66638.5 1718.00   1
  -1  -1   2 73980.3 1762.15   8
  -1  -1   2 71010.7 1722.54  27
   1  -1  -2 66818.0 1584.92  27
  -1  -1   1 118300. 2744.13  24
  -1  -1   1 121644. 2766.85  25
  -1  -1   1 113207. 2732.94  21
  -1  -1   1 116629. 2732.56   1
  -1  -1   1 111633. 2717.44   8
   1  -1  -1 122620. 2661.08  27
  -1  -1   0 45878.2 1198.34  16
   1  -1   0 47694.9 1256.24  15
  -1  -1   0 48801.4 1294.14  25
   1  -1   1 601423. 13048.6  15
  -1  -1  -1 562175. 13059.4  16
   1  -1   1 604094. 13129.1  17
  -1  -1  -1 610529. 13006.9   8
  -1  -1  -2 51466.7 1281.04  22
   1  -1   2 47174.4 1422.86  17
   1  -1   2 47117.4 1304.41  15
  -1  -1  -2 52737.7 1423.38  16
  -1  -1  -2 50743.0 1305.13   1
   1  -1   2 51730.0 1461.75  13
  -1  -1  -3 237386. 5290.03  22
   1  -1   3 238998. 5494.70  17
   1  -1   3 227114. 5229.07  15
   1  -1   4 121809. 3164.11  17
  -1  -1  -4 122249. 3004.78  22
   1  -1   4 125223. 3246.75  13
   1  -1   5 62266.3 1918.42  17
   1  -1   5 59376.6 1847.73  23
  -1  -1  -5 58909.1 1768.79  22
   1  -1   5 61432.0 1969.97  13
  -1  -1  -5 65409.1 1950.21  30
   1  -1   6 57904.1 1975.23  13
   1  -1   6 54405.1 1769.79  39
   1  -1   6 59930.1 1905.42  17
  -1  -1  -6 54020.5 1748.41  22
  -1  -1  -6 56922.9 1918.86  30
   1  -1   7 35922.2 1570.31  13
  -1  -1  -7 39489.6 1600.35  30
   1  -1   7 36837.5 1453.60  43
  -1  -1  -7 35938.5 1392.07  22
   1  -1   7 39529.6 1508.96  17
   1  -1   8 13303.9 828.363  43
  -1  -1  -8 14954.4 1016.11  76
  -1  -1  -8 15109.6 1060.76  66
  -1  -1  -8 14726.9 1039.58  71
   1  -1   8 15632.2 992.651  13
  -1  -1  -8 14440.8 969.654  30
  -1  -1  -8 12767.0 939.205  51
  -1  -1  -8 13169.1 818.710  22
  -1  -1  -9 48568.5 2068.20  51
   1  -1   9 44518.8 1899.26  34
  -1  -1  -9 49263.5 2060.90  30
  -1  -1  -9 46125.8 2048.84  76
  -1  -1 -10 1313.88 312.316  80
   1  -1  10 1497.22 312.022  34
  -1  -1 -10 1884.38 390.292  30
  -1  -1 -10 1661.01 408.311  70
  -1  -1 -11 13264.7 969.179  80
   1  -1  11 12940.4 977.853  35
  -1  -1 -11 14082.4 1051.58  30
  -1  -1 -11 13577.5 1094.36  70
   1  -1  12 8576.16 729.926  35
  -1  -1 -12 8475.61 772.287  30
   1  -1  13 3635.61 406.199  35
  -1  -1 -13 4510.05 500.656  30
   1  -1  13 3887.41 455.167  38
  -1  -1 -14 8045.29 576.395  81
   1   0 -15 47328.9 1639.28  74
   1   0 -15 47953.6 1631.88  81
   1   0 -15 47447.7 1676.43  55
   1   0 -14 15205.5 987.456  74
   1   0 -14 13799.1 970.422  55
   1   0 -14 13077.8 927.339  81
   1   0 -13 165405. 4879.14  55
   1   0 -13 155528. 4771.47  81
   1   0 -13 153320. 4571.58  30
   1   0 -12 7278.88 832.551  55
   1   0 -12 7389.22 742.763  52
   1   0 -12 6352.61 725.723  80
   1   0 -12 7272.94 752.457  30
  -1   0  11 46331.3 2014.51  11
   1   0 -11 46599.0 2138.70  30
   1   0 -11 50565.9 2365.26  55
   1   0 -11 50115.3 2147.43  52
   1   0 -11 52654.3 2196.51  84
   1   0 -11 49975.6 2227.62  80
   1   0 -10 33826.8 1758.72  80
   1   0 -10 32945.6 1688.29  84
   1   0 -10 36173.9 1727.52  70
  -1   0  10 34927.7 1573.82  13
   1   0 -10 38763.2 1781.40  30
   1   0 -10 34581.1 1861.26  55
   1   0 -10 35076.0 1684.02  52
  -1   0  10 33155.1 1489.29  23
   1   0  -9 33711.3 1624.36  84
   1   0  -9 32001.7 1630.08  80
   1   0  -9 32059.4 1546.72  70
  -1   0   9 34795.7 1507.39  13
   1   0  -9 32646.7 1552.18  52
   1   0  -9 32070.5 1698.93  55
  -1   0   9 35399.3 1455.98  23
   1   0  -9 34054.5 1585.20  22
   1   0  -9 35001.3 1618.20  30
   1   0  -8 4659.81 511.795  30
  -1   0   8 4271.26 382.086  17
   1   0  -8 4553.35 491.987  22
  -1   0   8 4848.61 454.620  23
  -1   0   8 5292.27 498.470  13
   1   0  -7 86980.6 2583.10  22
  -1   0   7 86528.7 2326.04  17
   1   0  -6 37703.3 1359.75  22
  -1   0   6 34059.8 1005.23  27
   1   0  -6 34447.1 1322.76  30
   1   0  -5 22048.3 915.516  22
  -1   0   5 21376.6 616.654  28
  -1   0   5 21697.9 655.753  27
   1   0  -4 85874.6 2296.75  22
  -1   0   4 87310.1 1973.09  27
  -1   0   3 1486.96 75.8212  27
   1   0  -3 1669.35 126.790  26
  -1   0   2 424461. 8889.01  21
   1   0  -2 408539. 8997.55  26
  -1   0   1 46251.4 1100.06  18
   1   0  -1 49371.4 1149.34  22
  -1   0   1 47818.7 1134.34  24
   1   0  -1 47587.6 1078.73  12
   1   0   0 148212. 3338.86  26
  -1   0   0 147320. 3284.65  20
  -1   0   0 146889. 3313.57   9
   1   0   0 148298. 3211.09  10
   1   0   0 152895. 3273.37  11
  -1   0  -1 17379.1 583.305  20
  -1   0  -1 16678.3 462.896   8
   1   0   2 973199. 20900.0  26
  -1   0  -2 999999. 20843.0  22
  -1   0  -2 982696. 20983.0  16
  -1   0  -2 983688. 20904.5  14
   1   0   3 900214. 19329.0  23
  -1   0  -3 918818. 19159.7  22
  -1   0  -3 897497. 19272.2  16
   1   0   3 881900. 19337.2  13
  -1   0  -3 893352. 19209.0  14
  -1   0  -4 2386.39 240.612  16
   1   0   4 2269.96 247.971  23
  -1   0  -4 2721.49 228.425  22
  -1   0  -4 2865.89 247.482  14
  -1   0  -4 2268.37 130.534   1
   1   0   4 2753.27 277.354  13
   1   0   5 54734.7 1731.37  23
  -1   0  -5 53523.2 1606.65  22
   1   0   5 56168.8 1756.97  13
  -1   0  -6 80351.5 2294.95  22
   1   0   6 81858.9 2443.60  23
   1   0   6 82832.0 2442.77  13
   1   0   7 6112.04 531.419  34
   1   0   7 7488.13 594.462  13
   1   0   7 7220.29 594.851  23
  -1   0  -8 22194.2 1307.43  76
  -1   0  -8 20836.4 1284.62  55
  -1   0  -8 20721.3 1251.28  51
   1   0   8 20505.7 1136.52  23
   1   0   8 20356.4 1059.91  34
  -1   0  -9 26209.9 1527.09  76
  -1   0  -9 26680.6 1557.02  55
   1   0   9 26748.8 1372.54  23
   1   0  10 239482. 6376.59  35
   1   0  10 249402. 6706.67  11
  -1   0 -10 242226. 6832.52  55
  -1   0 -10 237296. 6689.03  70
  -1   0 -10 242520. 6746.78  76
   1   0  11 12620.6 916.747  35
  -1   0 -11 14791.4 1094.64  80
  -1   0 -11 12583.3 1085.06  55
   1   0  11 12531.4 1036.26  11
   1   0  11 11172.5 984.077  10
  -1   0 -12 7528.44 740.145  80
  -1   0 -12 6188.62 747.592  55
   1   0  12 7032.67 677.284  38
   1   0  12 7184.97 625.318  35
  -1   0 -13 38748.2 1582.17  80
  -1   0 -13 39842.1 1782.05  55
   1   0  13 38102.2 1553.38  38
  -1   0 -13 39846.3 1660.88  30
  -1   0 -14 139487. 3781.59  55
   1   1 -15 8510.76 526.940  79
   1   1 -14 1522.22 326.390  55
   1   1 -13 8622.25 758.434  30
   1   1 -13 8392.49 810.880  80
   1   1 -13 9045.43 853.949  55
   1   1 -12 40469.3 1879.60  30
   1   1 -12 41842.5 2089.79  55
   1   1 -12 39010.1 1832.87  84
   1   1 -12 41184.2 2033.72  80
  -1   1  11 17537.0 1209.07  10
   1   1 -11 19039.0 1347.38  80
   1   1 -11 17301.1 1202.81  84
   1   1 -11 20391.2 1264.53  30
   1   1 -11 16908.3 1296.90  55
  -1   1  11 17365.3 1101.53  23
  -1   1  10 34613.7 1592.00  11
   1   1 -10 35611.2 1855.78  80
   1   1 -10 33195.2 1712.60  84
   1   1 -10 34336.9 1580.93  78
   1   1 -10 37041.7 1739.25  30
   1   1 -10 36420.4 1891.83  55
   1   1 -10 33785.0 1593.24  50
   1   1 -10 33767.5 1682.12  52
  -1   1  10 36724.1 1636.52  23
  -1   1   9 1117.12 261.771  23
  -1   1   9 788.116 214.903  11
   1   1  -9 696.743 216.840  78
   1   1  -9 1052.46 295.936  80
   1   1  -9 757.656 241.721  30
   1   1  -9 1116.84 276.773  52
   1   1  -9 1329.27 351.328  55
   1   1  -9 1236.60 278.528  50
   1   1  -8 71565.2 2458.83  30
  -1   1   8 73405.9 2242.53  13
   1   1  -8 72576.4 2474.44  52
   1   1  -8 69682.3 2609.46  76
   1   1  -8 76494.5 2693.05  80
   1   1  -7 269760. 6414.12  30
  -1   1   7 253749. 5932.10  28
   1   1  -6 107094. 2985.48  22
  -1   1   6 104665. 2536.08  17
   1   1  -6 108769. 2959.41  30
   1   1  -5 136674. 3357.02  22
   1   1  -5 131111. 2927.89  26
  -1   1   4 11031.7 422.283   3
   1   1  -4 11401.1 438.097  26
   1   1  -4 11400.5 568.066  22
   1   1  -3 509517. 10768.7  14
  -1   1   3 490153. 10656.1  11
   1   1  -3 494235. 10700.5  26
   1   1  -2 61282.3 1502.69  14
  -1   1   2 60063.7 1403.91  11
   1   1  -2 62986.3 1573.93  19
  -1   1   1 141961. 3042.01  10
   1   1  -1 137154. 3048.92  14
   1   1  -1 142313. 3189.99  12
  -1   1   1 144168. 3201.10  18
   1   1  -1 134126. 3099.42  28
   1   1   0 50811.8 1281.81  10
  -1   1   0 51034.5 1303.81  18
   1   1   0 48271.2 1214.41  23
  -1   1  -1 625557. 13104.3   9
   1   1   1 599477. 13193.4  10
   1   1   1 612487. 13147.9  23
   1   1   2 37816.4 1201.46  11
  -1   1  -2 41190.1 1065.85  16
   1   1   2 37951.8 1072.79  26
   1   1   2 38150.6 1161.67  28
   1   1   3 257594. 5734.38  11
  -1   1  -3 241805. 5560.28  14
  -1   1  -3 238962. 5434.61  16
   1   1   3 246600. 5407.89  26
   1   1   3 240127. 5602.79  28
  -1   1  -4 112590. 2780.20  14
  -1   1  -4 104284. 2487.21   3
   1   1   4 108859. 2512.54  26
  -1   1  -4 110808. 2659.21  16
   1   1   4 111399. 2817.53  28
  -1   1  -5 55798.5 1729.59  14
   1   1   5 55399.8 1798.62  23
   1   1   5 57195.1 1747.30  28
  -1   1  -5 54658.6 1781.55  30
  -1   1  -6 70444.6 2178.00  14
   1   1   6 71785.8 2270.94  23
  -1   1  -6 72535.1 2285.29  30
   1   1   7 41311.7 1722.88  11
   1   1   7 40945.4 1649.48  23
  -1   1  -7 40145.6 1637.23  30
   1   1   8 12473.6 930.119  11
  -1   1  -8 10778.2 911.536  55
   1   1   8 10792.2 759.565  35
  -1   1  -8 12234.9 883.972  30
   1   1   9 38913.5 1867.92  11
   1   1   9 41199.2 1666.26  35
  -1   1  -9 38556.7 1808.66  30
  -1   1  -9 42037.4 1997.87  55
   1   1   9 36819.7 1742.04  23
  -1   1 -10 1382.76 373.665  76
   1   1  10 1739.68 390.091  11
  -1   1 -10 1491.23 344.139  30
  -1   1 -10 2137.41 444.258  55
   1   1  10 1361.66 327.486  23
  -1   1 -11 20515.0 1379.95  80
  -1   1 -11 19683.6 1373.28  76
  -1   1 -11 19408.3 1248.88  30
   1   1  11 17886.6 1260.79  11
  -1   1 -11 23862.1 1494.89  55
   1   1  11 20644.0 1210.69  38
  -1   1 -12 11910.2 970.237  80
  -1   1 -12 11340.5 962.212  55
   1   1  12 10876.2 800.921  38
  -1   1 -12 10996.9 875.981  30
  -1   1 -13 6386.47 624.265  80
  -1   1 -13 6706.17 648.410  55
   1   1  13 6436.81 605.372  48
  -1   1 -13 5903.48 567.350  30
  -1   1 -14 7305.35 516.172  80
  -1   1 -14 8031.58 569.356  55
   1   2 -15 15934.3 745.755  79
   1   2 -15 15935.7 778.683  81
   1   2 -15 16662.7 803.437  74
   1   2 -14 3908.96 480.398  81
   1   2 -14 3146.72 394.008  55
   1   2 -13 38314.1 1818.44  81
   1   2 -13 31870.2 1654.73  80
   1   2 -13 29854.7 1419.46  84
   1   2 -13 35091.8 1670.46  55
   1   2 -12 836.670 249.972  30
   1   2 -12 730.084 274.659  55
   1   2 -12 883.995 294.437  81
   1   2 -12 801.530 252.313  84
   1   2 -11 45841.1 1902.61  78
   1   2 -11 40508.7 2143.97  81
   1   2 -11 45845.9 2086.83  84
   1   2 -11 44282.4 1946.48  30
  -1   2  11 43770.7 2022.14  10
   1   2 -11 47532.3 2205.42  55
   1   2 -11 43171.7 1931.00  50
  -1   2  11 43930.0 1940.42  23
   1   2 -10 53618.0 2485.54  80
   1   2 -10 56252.7 2241.46  78
   1   2 -10 61503.8 2323.51  30
  -1   2  10 55921.0 2322.78  10
   1   2 -10 53752.9 2276.50  50
   1   2 -10 56545.2 2441.19  55
  -1   2  10 57054.2 2255.40  23
  -1   2   9 72162.2 2629.68  10
  -1   2   9 72608.5 2462.97  11
   1   2  -9 80750.2 2647.78  30
   1   2  -9 67999.4 2591.47  56
   1   2  -9 75573.0 2794.14  55
   1   2  -9 68424.3 2630.35  50
   1   2  -9 74007.4 2639.22  78
   1   2  -9 70237.3 2829.23  80
   1   2  -8 50234.8 2131.25  76
  -1   2   8 49978.6 1697.21  28
   1   2  -8 53981.4 1955.81  30
   1   2  -8 44555.0 2077.93  80
   1   2  -8 49757.7 1981.73  83
   1   2  -8 53378.3 2088.83  50
   1   2  -8 50377.8 2070.94  55
   1   2  -8 46297.2 1946.98  56
  -1   2   8 51399.9 1994.46  10
  -1   2   8 52071.7 1861.90  11
  -1   2   7 43033.6 1559.34  11
  -1   2   7 43187.6 1695.11  10
   1   2  -7 40239.9 1573.24  30
   1   2  -6 130264. 3146.03  26
  -1   2   6 137146. 3482.65  11
  -1   2   6 139149. 3655.04  10
   1   2  -6 133649. 3505.60  30
   1   2  -5 16747.4 661.977  26
   1   2  -5 16197.3 775.918  14
  -1   2   5 15820.5 787.479  10
  -1   2   5 16376.4 723.788  11
  -1   2   4 87271.3 2293.11  11
  -1   2   4 90286.9 2284.49   3
   1   2  -4 88777.0 2389.44  14
  -1   2   4 93498.5 2421.69  10
  -1   2   3 51017.7 1425.55  10
   1   2  -3 48110.1 1396.48  14
  -1   2   3 49673.0 1339.80  11
  -1   2   3 48582.6 1395.59   3
   1   2  -3 47270.0 1164.15  28
  -1   2   2 45344.7 1392.75  18
   1   2  -2 46950.4 1358.36   4
  -1   2   2 46758.1 1285.58  10
   1   2  -2 46291.2 1253.75  14
  -1   2   2 47406.5 1350.65   3
  -1   2   2 44745.2 1223.98  12
   1   2  -1 228407. 4963.55  14
  -1   2   1 241650. 5230.99  18
   1   2  -1 232155. 4953.48  18
  -1   2   1 245014. 5196.74   3
  -1   2   0 76724.7 1884.77  19
   1   2   0 75965.4 1824.99  23
   1   2   0 74112.9 1834.73  18
  -1   2   0 78517.3 2017.78  18
   1   2   0 76497.2 2027.18  12
   1   2   0 75964.6 2003.90   4
   1   2   1 800555. 16596.5   4
  -1   2  -1 797701. 16431.0   9
   1   2   1 776345. 16677.6  11
   1   2   2 65307.6 1921.48  11
  -1   2  -2 64762.5 1638.72   9
  -1   2  -3 132220. 3118.28  16
  -1   2  -3 141049. 3318.33   3
   1   2   3 139910. 3544.59  11
   1   2   3 137431. 3477.11  28
  -1   2  -4 32242.2 1220.88  14
   1   2   4 33657.5 1077.02  26
  -1   2  -4 34197.2 978.963  16
   1   2   4 34625.4 1346.61  11
   1   2   4 33875.2 1263.53  28
  -1   2  -4 34845.7 1239.06  33
  -1   2  -5 129976. 3098.67   4
   1   2   5 133119. 3668.10  11
   1   2   5 117572. 3554.69  10
  -1   2  -5 135568. 3493.19  14
   1   2   5 127262. 3401.93  38
   1   2   5 130555. 3110.97  26
  -1   2  -5 127628. 3465.44  33
   1   2   5 139823. 3552.25  28
  -1   2  -5 132904. 3457.59  30
   1   2   6 121447. 3632.20  10
  -1   2  -6 127538. 3523.75  14
   1   2   6 134973. 3739.50  11
   1   2   6 121081. 3401.60  38
   1   2   6 123411. 3559.84  23
  -1   2  -6 127579. 3496.82  30
   1   2   6 128098. 3511.78  28
   1   2   7 95191.7 3159.57  10
  -1   2  -7 97120.7 2996.34  14
   1   2   7 100094. 3191.37  11
  -1   2  -7 97723.2 3006.22  30
   1   2   7 101724. 2989.09  28
   1   2   7 98821.3 2938.64  38
   1   2   7 99843.9 3099.69  23
   1   2   8 114307. 3659.94  23
  -1   2  -8 119148. 3663.82  83
  -1   2  -8 120780. 3944.85  76
   1   2   8 129018. 3865.38  11
   1   2   8 120383. 3818.75  10
  -1   2  -8 121045. 3638.33  30
  -1   2  -8 117084. 3799.14  55
  -1   2  -8 121164. 3706.05  50
   1   2   8 120453. 3507.64  38
   1   2   9 9000.35 806.106  23
  -1   2  -9 8533.29 759.163  83
  -1   2  -9 7634.72 863.537  76
   1   2   9 9552.63 866.699  11
   1   2   9 8935.49 861.077  10
  -1   2  -9 9067.55 787.116  30
  -1   2  -9 8270.57 835.610  55
  -1   2  -9 8686.30 777.925  50
   1   2   9 8890.73 729.348  38
  -1   2 -10 62985.1 2305.62  83
  -1   2 -10 65349.7 2794.32  76
   1   2  10 69663.4 2678.74  11
   1   2  10 61027.5 2582.30  10
  -1   2 -10 65481.5 2495.01  30
  -1   2 -10 65813.4 2396.99  50
  -1   2 -10 62847.3 2633.36  55
   1   2  10 68195.0 2571.62  23
  -1   2 -11 6571.76 744.894  55
  -1   2 -11 7143.48 712.520  30
  -1   2 -11 7268.65 821.715  76
  -1   2 -12 81364.6 3051.89  80
  -1   2 -12 89104.3 3026.79  55
   1   2  12 91317.5 2984.55  48
  -1   2 -12 90024.8 2880.84  30
  -1   2 -13 5836.68 588.216  81
  -1   2 -13 6451.80 617.782  80
  -1   2 -13 4396.38 480.379  55
  -1   2 -13 5756.34 498.024  30
   1   2  13 4956.18 491.496  48
  -1   2 -14 12089.4 681.710  81
  -1   2 -14 12641.8 690.069  80
   1   3 -14 3317.79 396.561  81
   1   3 -14 2664.73 355.295  74
   1   3 -13 812.539 265.273  81
   1   3 -12 7784.08 730.390  55
   1   3 -12 6935.39 705.905  84
   1   3 -12 8293.11 843.029  80
   1   3 -12 9320.19 888.476  81
  -1   3  11 10142.7 895.585  10
   1   3 -11 11847.3 1058.86  81
   1   3 -11 11175.7 951.930  84
   1   3 -11 9907.09 843.389  78
   1   3 -11 11374.9 1046.64  80
   1   3 -11 8755.75 723.409  30
   1   3 -11 9436.75 878.154  50
   1   3 -11 9120.96 842.834  55
  -1   3  11 9840.29 869.943  23
  -1   3  10 2727.97 463.584  23
  -1   3  10 2325.75 431.406  10
   1   3 -10 2142.30 471.828  80
   1   3 -10 2914.61 487.589  78
   1   3 -10 2498.96 492.470  81
   1   3 -10 2924.80 417.741  30
   1   3 -10 2785.19 473.177  55
   1   3 -10 2484.37 450.953  56
   1   3 -10 2381.66 465.791  50
   1   3  -9 38929.3 1589.01  30
   1   3  -9 35424.4 1905.88  80
   1   3  -9 33223.5 1811.58  81
   1   3  -9 34846.6 1699.05  55
   1   3  -9 32278.7 1690.64  56
   1   3  -9 33661.2 1775.64  50
  -1   3   9 35965.9 1733.30  10
   1   3  -8 25267.5 1192.17  30
  -1   3   8 26454.0 1250.56  28
   1   3  -8 24953.5 1427.91  83
   1   3  -8 25615.3 1470.85  81
   1   3  -8 26779.4 1488.18  76
   1   3  -8 26842.5 1546.33  80
   1   3  -8 24181.1 1378.79  56
   1   3  -8 26860.7 1500.90  50
  -1   3   8 26328.9 1249.36  11
  -1   3   8 26404.8 1394.39  10
   1   3  -7 10285.8 673.343  30
   1   3  -7 10016.3 863.573  50
   1   3  -7 10420.7 833.835  56
  -1   3   7 11251.7 819.903  10
  -1   3   7 10719.9 711.779  11
   1   3  -7 10394.8 851.514  81
   1   3  -7 9202.19 815.901  83
   1   3  -7 13337.7 978.649  80
  -1   3   6 8776.01 656.931  10
  -1   3   6 7605.91 484.077   4
   1   3  -6 7987.06 610.708  14
  -1   3   6 8035.51 567.483  11
   1   3  -6 8543.49 520.033  26
   1   3  -5 256887. 6070.94  14
  -1   3   5 245455. 6093.49  10
   1   3  -4 65958.2 1946.31  14
  -1   3   4 63767.3 1970.39  10
   1   3  -3 185255. 4512.97   4
  -1   3   3 175487. 4483.80   3
  -1   3   3 190646. 4485.74  10
   1   3  -3 191322. 4412.94  14
  -1   3   3 181749. 4380.87  12
  -1   3   3 179332. 4613.84  18
  -1   3   2 47948.4 1441.11  12
  -1   3   2 50530.3 1563.84   3
  -1   3   2 48926.7 1485.51  10
   1   3  -2 47995.6 1559.78   4
   1   3  -2 45289.2 1557.51  19
   1   3  -2 47772.1 1395.52  14
  -1   3   1 313400. 6943.49   3
   1   3  -1 328661. 7014.61  12
   1   3  -1 314011. 6661.22  18
   1   3   0 255234. 5910.52   4
   1   3   0 257327. 5957.80  12
  -1   3   0 251466. 5756.73  19
   1   3   0 242050. 5661.02  18
   1   3   1 107572. 2769.51   4
  -1   3  -1 107544. 2796.58   3
   1   3   1 102402. 2812.03  10
  -1   3  -1 101006. 2478.02   9
   1   3   1 107000. 2844.74  12
   1   3   1 103528. 2634.10  18
  -1   3  -1 101312. 2651.94  19
   1   3   2 60708.4 1844.56   4
   1   3   2 65952.5 2003.54  10
  -1   3  -2 59546.4 1887.29   3
  -1   3  -2 61910.8 1558.82   9
  -1   3  -2 65809.8 1939.83  40
   1   3   2 60796.6 1980.80  45
  -1   3  -2 60536.5 1899.65  32
  -1   3  -3 34243.5 1229.74  33
   1   3   3 34284.3 1312.11  48
   1   3   3 33380.8 1344.11  11
   1   3   3 35251.8 1378.52  10
  -1   3  -3 32019.3 872.707  16
  -1   3  -4 13255.6 719.765  33
   1   3   4 11866.0 746.918  28
   1   3   4 10744.0 725.111  48
   1   3   4 12340.0 813.304  10
   1   3   4 13481.7 828.413  11
  -1   3  -4 13019.5 755.622  14
   1   3   5 27192.1 1256.93  28
  -1   3  -5 28777.0 1147.20  30
  -1   3  -5 25548.0 1154.96  33
   1   3   5 26652.9 1258.14  48
   1   3   5 27384.3 1042.87  26
   1   3   5 27229.2 1236.98  23
   1   3   5 27797.9 1341.32  10
   1   3   5 26213.6 1323.29  11
  -1   3  -5 29119.6 1262.20  14
  -1   3  -5 27591.4 1040.94   4
   1   3   6 65668.0 2351.13  23
  -1   3  -6 71785.5 2550.46  83
  -1   3  -6 68561.3 2223.14  30
   1   3   6 68250.9 2358.04  28
  -1   3  -6 68354.9 2276.72  33
  -1   3  -6 68952.1 2365.20  14
   1   3   6 70964.4 2531.66  11
   1   3   6 72267.2 2559.98  10
  -1   3  -6 70514.2 2544.68  50
   1   3   6 69090.2 2405.64  48
  -1   3  -7 39290.0 1722.28  14
   1   3   7 39333.2 1851.80  11
   1   3   7 42245.1 1914.54  10
  -1   3  -7 42694.2 1670.62  30
   1   3   7 40062.9 1717.69  28
  -1   3  -7 41118.8 1894.97  50
  -1   3  -7 40273.5 1656.79  56
  -1   3  -7 40880.6 1870.70  83
  -1   3  -8 7998.27 786.299  83
  -1   3  -8 6883.39 765.786  76
   1   3   8 7122.70 760.551  10
  -1   3  -8 7326.07 694.833  14
   1   3   8 7095.11 747.452  11
   1   3   8 7762.89 707.193  28
  -1   3  -8 6649.62 634.532  30
  -1   3  -8 7133.78 759.434  50
  -1   3  -8 6661.18 620.043  56
   1   3   8 6445.51 676.227  48
   1   3   9 3590.65 523.185  23
  -1   3  -9 3183.75 497.025  83
  -1   3  -9 4080.88 620.800  76
   1   3   9 3488.59 549.356  10
   1   3   9 3164.37 520.108  11
  -1   3  -9 2738.43 423.915  30
  -1   3  -9 3109.22 493.617  55
   1   3   9 4248.30 562.932  48
  -1   3  -9 3233.15 514.103  50
   1   3  10 9470.59 869.342  23
  -1   3 -10 9119.57 813.513  83
  -1   3 -10 10479.0 996.667  80
  -1   3 -10 9729.01 962.485  76
   1   3  10 10100.7 945.965  10
   1   3  10 10438.8 934.530  11
  -1   3 -10 10778.3 833.837  30
  -1   3 -10 10168.6 877.666  55
  -1   3 -10 10529.1 888.826  50
   1   3  10 9517.74 844.508  48
  -1   3 -11 22891.8 1462.01  80
  -1   3 -11 21556.0 1168.55  30
  -1   3 -11 21591.3 1200.38  50
  -1   3 -11 24246.0 1306.57  55
  -1   3 -11 21705.0 1407.78  76
   1   3  11 24297.8 1312.67  48
   1   3  12 12094.2 822.467  48
  -1   3 -12 13129.8 985.127  80
  -1   3 -12 14436.3 977.437  81
   1   3  13 1149.94 233.578  45
  -1   3 -13 1339.94 243.732  81
  -1   3 -13 1325.20 272.142  80
   1   4 -14 1230.99 206.283  79
   1   4 -13 42341.0 1636.47  81
  -1   4  12 6807.37 628.529  44
   1   4 -12 5370.69 573.938  84
   1   4 -12 5912.49 640.034  81
   1   4 -12 6191.60 683.227  80
   1   4 -11 24559.1 1481.78  50
   1   4 -11 28031.1 1630.76  80
   1   4 -11 27553.6 1450.20  78
   1   4 -11 29237.2 1578.92  81
  -1   4  10 72.8451 109.891  18
  -1   4  10 61.2612 184.801  23
   1   4 -10 74.0773 136.852  80
   1   4 -10 66.8125 142.524  81
   1   4 -10 139.617 148.913  50
  -1   4  10 181.741 144.482  10
  -1   4   9 91911.7 3362.38  18
   1   4  -9 88083.7 3196.34  81
   1   4  -9 90556.2 3338.37  80
   1   4  -9 85043.3 3138.05  56
   1   4  -9 89984.7 3318.83  50
  -1   4   9 83972.4 2899.38  45
  -1   4   9 88169.7 3111.67  10
  -1   4   8 66670.4 2721.59  18
   1   4  -8 67477.3 2721.37  83
   1   4  -8 65724.6 2686.89  80
   1   4  -8 63208.4 2546.29  81
   1   4  -8 69746.1 2669.58  56
  -1   4   8 65714.7 2390.89  45
  -1   4   8 66085.4 2538.06  10
  -1   4   7 2678.75 476.911  18
   1   4  -7 1922.42 372.236  81
   1   4  -7 2510.68 439.724  80
   1   4  -7 2960.97 475.078  56
   1   4  -7 2543.74 469.116  50
  -1   4   7 1737.61 322.399  45
   1   4  -7 2392.03 387.245  14
  -1   4   7 2577.84 414.292  10
   1   4  -6 58670.8 2178.84  81
   1   4  -6 62097.0 2302.06  80
   1   4  -6 58751.9 2393.32  83
   1   4  -6 60850.1 2430.02  50
  -1   4   6 60088.6 1948.62   4
   1   4  -6 60712.7 2136.62  14
  -1   4   6 60896.6 2196.18  10
  -1   4   6 56953.7 2008.97  12
  -1   4   6 58448.0 2067.38  45
  -1   4   5 13062.9 777.212   4
  -1   4   5 12209.0 810.676  10
  -1   4   5 13197.3 777.470  12
   1   4  -5 13526.5 805.871  14
  -1   4   5 12286.4 766.692  45
   1   4  -5 12647.4 948.627  83
  -1   4   4 14303.4 844.786  44
  -1   4   4 14031.8 824.137  10
   1   4  -4 13015.2 756.661  14
  -1   4   4 12350.9 730.774  12
  -1   4   4 15307.1 853.191   4
  -1   4   3 45893.2 1693.59  44
   1   4  -3 47389.9 1792.98  19
  -1   4   3 47708.0 1630.40  12
   1   4  -3 50082.1 1621.92  14
   1   4  -3 51435.3 1793.90   4
  -1   4   2 161543. 4239.02  49
  -1   4   2 158017. 4217.56  41
  -1   4   2 150044. 4061.75  44
   1   4  -2 159321. 4233.27  19
  -1   4   2 160436. 4229.64  18
   1   4  -2 158971. 3897.33  14
   1   4  -2 155971. 4185.25   4
  -1   4   1 42167.5 1638.67  41
   1   4  -1 44847.8 1625.25  49
   1   4  -1 49487.9 1705.82  41
  -1   4   1 43614.5 1653.48  49
  -1   4   1 44293.1 1649.77  18
   1   4  -1 46113.4 1694.22  19
   1   4  -1 45574.8 1441.05  18
  -1   4   0 37592.2 1486.43  32
  -1   4   0 39956.0 1527.56  49
  -1   4   0 40596.3 1533.45  41
   1   4   0 40311.6 1501.37  49
   1   4   0 40200.8 1531.91  41
   1   4   0 37037.7 1528.38  44
   1   4   0 41483.3 1557.18   4
   1   4   0 37497.1 1546.45  12
  -1   4   0 37966.5 1401.76  19
   1   4   0 39218.8 1340.21  18
  -1   4   0 39811.0 1515.27  18
  -1   4  -1 44504.9 1559.70  33
  -1   4  -1 46155.5 1666.53  32
   1   4   1 44492.3 1729.85  44
   1   4   1 45402.1 1708.10  41
   1   4   1 41644.0 1676.62  45
  -1   4  -1 45467.0 1650.96  40
   1   4   1 46640.5 1667.95   4
  -1   4  -1 45654.2 1328.04   9
   1   4   1 44221.9 1712.49  12
  -1   4  -1 45404.4 1576.63  19
   1   4   1 45363.0 1533.29  18
  -1   4  -1 49231.0 1686.35  18
  -1   4  -2 10341.2 647.020  33
  -1   4  -2 12293.8 749.956  32
   1   4   2 10505.9 763.546  44
   1   4   2 10723.8 762.154  45
  -1   4  -2 10607.0 701.463  40
  -1   4  -2 10053.0 596.647  37
   1   4   2 10266.3 685.466   4
   1   4   2 11621.7 782.735  12
   1   4   2 11138.6 769.714  10
   1   4   2 9548.80 644.150  18
  -1   4  -3 503814. 11279.0  37
  -1   4  -3 517729. 11455.5  33
   1   4   3 512190. 11794.2  45
   1   4   3 505667. 11824.7  44
   1   4   3 484546. 11459.6   4
   1   4   3 510046. 11802.3  10
   1   4   3 504383. 11741.4  12
  -1   4  -3 501435. 11598.4   4
   1   4   3 512816. 11573.2  18
  -1   4  -4 63455.6 2070.01  33
   1   4   4 63521.4 2334.70  45
   1   4   4 60852.8 2159.71  48
   1   4   4 64777.8 2158.10  23
   1   4   4 60411.7 2296.20  10
  -1   4  -4 66369.2 2139.50   4
   1   4   5 104837. 3274.65  23
   1   4   5 109323. 3520.59  10
  -1   4  -5 107048. 3059.51   4
  -1   4  -5 108695. 3566.73  83
  -1   4  -5 105676. 3132.73  33
   1   4   5 115736. 3430.95  28
  -1   4  -5 114656. 3604.77  50
   1   4   5 108552. 3312.33  48
   1   4   5 108206. 3488.91  45
   1   4   6 12400.7 973.717  10
  -1   4  -6 9723.64 728.690  33
   1   4   6 9520.21 813.540  28
   1   4   6 11619.3 862.693  48
   1   4   6 10407.5 812.590  23
   1   4   7 13394.0 997.828  23
  -1   4  -7 14671.1 1147.18  83
  -1   4  -7 18114.6 1222.26  76
  -1   4  -7 14506.4 1021.85  14
   1   4   7 16319.5 1184.19  10
   1   4   7 16506.9 1098.37  28
  -1   4  -7 16364.8 1038.84  56
  -1   4  -7 19115.9 1301.28  50
   1   4   7 16548.0 1083.89  48
   1   4   8 71445.4 2680.11  23
  -1   4  -8 74386.1 2883.03  83
  -1   4  -8 68243.5 2801.19  76
  -1   4  -8 72780.3 2678.15  14
   1   4   8 71705.2 2855.07  10
   1   4   8 67379.3 2589.66  28
  -1   4  -8 70295.2 2503.37  56
  -1   4  -8 72675.2 2857.62  50
   1   4   8 72701.3 2644.52  48
   1   4   9 9013.05 839.949  23
  -1   4  -9 8454.27 873.913  76
  -1   4  -9 10230.2 986.421  80
  -1   4  -9 9063.73 869.888  83
  -1   4  -9 8377.68 808.126  81
   1   4   9 8947.14 901.330  10
  -1   4  -9 8794.75 716.791  56
  -1   4  -9 8727.92 873.763  50
   1   4   9 9770.72 832.063  48
  -1   4 -10 38543.9 1758.09  81
  -1   4 -10 34502.7 1870.30  80
  -1   4 -10 37758.7 1777.72  83
  -1   4 -10 35601.0 1767.33  50
   1   4  10 36376.6 1640.37  48
   1   4  10 36694.9 1814.22  45
  -1   4 -10 38106.7 1898.04  76
   1   4  11 2210.38 387.630  45
  -1   4 -11 2548.98 392.749  50
  -1   4 -11 2400.94 377.151  81
  -1   4 -11 1804.39 387.711  80
   1   4  12 30658.0 1403.38  44
   1   4  12 29732.3 1329.70  45
  -1   4 -12 27165.3 1168.30  81
  -1   4 -12 30701.8 1433.98  80
  -1   4 -13 1269.19 219.136  80
   1   5 -13 2218.90 271.560  79
  -1   5  12 8533.10 658.920  41
   1   5 -12 8840.86 652.713  84
   1   5 -11 5024.63 598.982  50
  -1   5  11 4662.97 519.871  44
   1   5 -11 3832.12 493.290  78
   1   5 -11 3764.04 462.968  81
   1   5 -10 520.074 213.621  56
  -1   5  10 428.985 198.253  44
   1   5 -10 308.500 164.687  81
   1   5 -10 308.476 186.260  80
  -1   5   9 41151.6 1930.23  23
   1   5  -9 40403.5 1940.27  80
   1   5  -9 40861.9 1827.62  81
   1   5  -9 40319.9 1964.19  56
   1   5  -9 37267.7 1979.83  50
  -1   5   9 38533.2 1842.59  44
   1   5  -8 25955.1 1485.29  80
   1   5  -8 26007.5 1399.84  81
  -1   5   8 25106.0 1423.47  28
  -1   5   8 23333.2 1404.95  44
   1   5  -8 25077.9 1580.43  50
   1   5  -8 25725.6 1525.88  56
  -1   5   8 25656.7 1454.11  10
   1   5  -7 83795.6 2849.01  14
  -1   5   7 84966.6 2970.97  10
   1   5  -7 84131.3 3245.37  83
   1   5  -7 84967.5 2983.90  80
   1   5  -7 81905.2 2705.65  63
   1   5  -7 88365.3 3195.40  56
   1   5  -7 85521.4 3240.86  50
  -1   5   7 84849.9 2987.19  44
  -1   5   6 1234.13 341.008  18
   1   5  -6 2090.37 355.369  14
  -1   5   6 1328.60 312.233  10
   1   5  -6 1669.95 394.084  83
   1   5  -6 1536.67 304.826  63
   1   5  -6 1677.84 315.203  57
  -1   5   6 1723.88 360.346  44
   1   5  -6 1725.31 404.506  50
  -1   5   5 20903.8 1306.61  18
   1   5  -5 18834.4 1281.47  83
   1   5  -5 19877.1 1081.31  14
  -1   5   5 19926.5 1111.06   4
   1   5  -5 20683.7 1152.35   7
   1   5  -5 21371.7 1208.37  63
   1   5  -5 21392.4 1174.92  57
   1   5  -5 20728.4 1325.45  50
  -1   5   5 19312.2 1155.09  44
  -1   5   4 21217.1 1260.82  18
   1   5  -4 19011.2 1234.60  83
   1   5  -4 20277.0 1082.46  73
   1   5  -4 18684.8 1158.52  63
  -1   5   4 19675.3 1208.15  41
  -1   5   4 21875.1 1191.39  44
   1   5  -4 23996.7 1343.02  50
   1   5  -4 19431.7 1151.28  57
  -1   5   4 21037.3 1163.24   4
   1   5  -4 21376.4 1195.63   7
   1   5  -4 20854.4 1049.65  14
  -1   5   4 21067.4 1085.01  12
   1   5  -3 107796. 3328.13  19
  -1   5   3 101844. 3314.54  18
   1   5  -3 109706. 3292.50   4
  -1   5   3 108734. 3275.51   4
   1   5  -3 105932. 3304.89   7
   1   5  -3 99451.3 2917.67  14
   1   5  -3 102843. 3308.26  83
   1   5  -3 105030. 3321.12  63
   1   5  -3 98263.6 3202.88  57
  -1   5   3 107335. 3347.80  41
  -1   5   3 94746.2 3130.93  44
  -1   5   3 105366. 3338.54  49
  -1   5   2 17480.0 1089.07  41
  -1   5   2 18154.4 1101.20  49
  -1   5   2 19591.6 1108.38   4
   1   5  -2 18859.9 1103.62   4
   1   5  -2 16946.3 1060.13  57
   1   5  -2 20033.3 1138.01  19
   1   5  -2 17824.7 866.729  14
  -1   5   2 17985.0 1082.69  18
   1   5  -1 94995.5 2746.46  32
  -1   5   1 99296.9 3124.02   4
   1   5  -1 92885.2 3092.50  63
  -1   5   1 95985.0 3102.57  41
   1   5  -1 100825. 3073.31  49
   1   5  -1 98131.5 3105.95  41
   1   5  -1 97340.9 2791.35  40
  -1   5   1 91402.1 3065.22  49
  -1   5   1 101419. 2979.94  19
   1   5  -1 93314.4 3110.26  19
  -1   5   1 105382. 3126.60  18
   1   5  -1 94172.0 2724.79  18
   1   5  -1 98778.3 2666.57  14
   1   5   0 44734.4 1826.54  49
  -1   5   0 41708.2 1770.16  40
   1   5   0 44846.4 1871.33  41
  -1   5   0 48029.5 1887.27  49
   1   5   0 44279.7 1836.37   4
   1   5   0 45983.6 1627.01  32
  -1   5   0 46002.9 1818.33  32
   1   5   0 43263.9 1847.21  57
   1   5   0 47018.3 1894.17  19
  -1   5   0 45488.9 1727.10  19
   1   5   0 44162.5 1595.50  18
  -1   5   0 44369.4 1794.38  18
  -1   5  -1 32798.4 1372.59  33
  -1   5  -1 35292.7 1523.03  32
   1   5   1 33697.0 1527.98   4
   1   5   1 34325.4 1612.59  12
  -1   5  -1 36803.7 1621.18   4
   1   5   1 31313.8 1499.10  49
  -1   5  -1 34469.2 1509.78  40
   1   5   1 31782.4 1540.99  41
   1   5   1 32813.8 1595.74  44
  -1   5  -1 32113.7 1410.50  19
   1   5   1 32517.3 1185.68  23
   1   5   1 32876.0 1365.27  18
  -1   5  -1 33575.6 1486.71  18
   1   5   2 5293.73 454.869  23
   1   5   2 4272.39 469.921  18
  -1   5  -2 4589.51 551.750  83
  -1   5  -2 4095.65 483.390  32
  -1   5  -2 4562.17 461.170  33
   1   5   2 4168.60 501.513   4
  -1   5  -2 4358.45 517.483   4
   1   5   2 4127.57 531.570  12
   1   5   2 3781.26 471.112  63
  -1   5  -2 4590.14 564.011  50
   1   5   2 5686.12 602.398  49
   1   5   2 4583.37 558.304  41
   1   5   2 5043.50 585.799  44
  -1   5  -2 3746.88 467.571  40
   1   5   3 44776.5 1672.58  23
   1   5   3 45256.8 1795.01  18
  -1   5  -3 45267.2 1983.93  83
  -1   5  -3 43730.8 1653.74  33
  -1   5  -3 43757.6 1835.89   4
   1   5   3 43159.7 1783.66   7
   1   5   3 42870.3 1903.23  12
   1   5   3 38847.1 1661.26  63
  -1   5  -3 44754.5 1883.09  63
  -1   5  -3 42839.6 1947.27  50
   1   5   3 45638.6 1966.27  45
   1   5   3 45740.2 1992.53  44
  -1   5  -4 71543.4 2516.48  14
   1   5   4 66881.0 2493.35  18
   1   5   4 76100.2 2454.80  23
  -1   5  -4 70571.4 2734.66  83
  -1   5  -4 71938.1 2331.65  33
   1   5   4 78051.0 2707.39  28
   1   5   4 65909.7 2608.19  12
   1   5   4 67172.1 2399.99   7
   1   5   4 67357.2 2653.83  10
  -1   5  -4 73474.9 2517.83   4
  -1   5  -4 73037.9 2549.68  63
  -1   5  -4 73717.3 2786.50  50
   1   5   4 68766.2 2654.36  45
   1   5   4 75251.8 2768.65  44
   1   5   5 10766.0 887.614  18
   1   5   5 11536.6 851.974  23
  -1   5  -5 11746.8 815.211   4
   1   5   5 13382.5 1051.31  10
   1   5   5 12162.6 987.032  12
  -1   5  -5 11303.7 867.460  14
  -1   5  -5 12405.7 1053.98  83
  -1   5  -5 10069.8 736.581  33
   1   5   5 11525.8 942.122  28
  -1   5  -5 11852.0 863.227  63
  -1   5  -5 12380.5 1041.79  50
   1   5   5 10870.6 943.245  45
   1   5   5 11835.7 999.070  44
   1   5   6 25383.1 1378.81  23
   1   5   6 27452.8 1529.25  18
  -1   5  -6 26958.8 1645.53  83
  -1   5  -6 24830.8 1423.67  80
  -1   5  -6 27429.4 1474.66  76
   1   5   6 25555.5 1537.86  12
   1   5   6 26781.0 1599.31  10
  -1   5  -6 26031.0 1428.37  14
   1   5   6 28659.7 1545.63  28
  -1   5  -6 28066.3 1293.84  33
  -1   5  -6 26346.7 1619.24  50
   1   5   6 27444.1 1590.44  45
   1   5   6 29077.6 1676.13  44
   1   5   7 6923.67 711.981  23
   1   5   7 5996.54 717.310  18
  -1   5  -7 7145.18 760.956  80
  -1   5  -7 7688.51 781.036  76
  -1   5  -7 6880.64 711.642  14
   1   5   7 6980.29 806.178  10
   1   5   7 6018.10 742.729  12
   1   5   7 5899.69 686.115  28
  -1   5  -7 6788.55 695.679  56
   1   5   7 7095.18 821.890  44
   1   5   7 6780.53 783.819  45
   1   5   8 12149.0 1047.33  18
   1   5   8 11046.3 929.678  23
   1   5   8 14427.0 1130.79  12
   1   5   8 14177.1 1145.21  10
  -1   5  -8 13608.6 1080.49  80
  -1   5  -8 12027.1 1067.20  83
   1   5   8 12169.9 986.944  28
  -1   5  -8 13895.4 958.597  56
  -1   5  -8 12489.6 1017.95  76
   1   5   8 14683.0 1124.25  45
   1   5   8 16609.6 1228.63  44
  -1   5  -9 44462.9 1928.07  76
  -1   5  -9 48897.6 2083.13  83
  -1   5  -9 49600.9 2074.80  80
   1   5   9 45175.3 1975.19  45
   1   5   9 45287.7 2041.58  44
  -1   5  -9 44515.0 2019.02  50
  -1   5 -10 8420.30 761.406  83
  -1   5 -10 8949.18 803.951  80
   1   5  10 8262.75 756.651  45
   1   5  10 8841.38 805.060  44
  -1   5 -10 9607.19 825.956  50
  -1   5 -11 4778.35 528.264  80
   1   5  11 4204.45 468.169  45
   1   5  11 4359.36 510.611  44
  -1   5 -11 3924.69 457.301  50
  -1   5 -12 7293.38 525.940  80
  -1   6  11 44445.9 1674.98  41
  -1   6  11 44506.3 1735.27  49
   1   6 -11 44156.1 1652.84  78
   1   6 -10 35800.6 1702.45  50
   1   6 -10 34444.1 1566.18  56
  -1   6  10 34634.2 1603.51  41
  -1   6  10 34105.0 1631.27  49
   1   6  -9 54403.1 2343.52  50
   1   6  -9 55875.8 2246.80  56
  -1   6   9 51909.2 2204.58  41
  -1   6   9 52851.1 2261.89  49
  -1   6   9 51158.6 2042.39  44
   1   6  -8 10053.6 954.339  50
   1   6  -8 9761.24 912.472  56
  -1   6   8 8995.61 878.903  41
  -1   6   8 10665.1 874.390  44
   1   6  -7 3775.41 469.936  63
  -1   6   7 3517.78 564.410  41
  -1   6   7 3333.58 504.215  44
   1   6  -7 3737.05 590.113  50
  -1   6   7 4523.74 630.382  49
  -1   6   7 4111.83 609.992  18
   1   6  -6 33264.4 1530.57   7
   1   6  -6 32321.2 1520.79  14
   1   6  -6 35504.9 1659.02  63
   1   6  -6 32299.0 1537.86  57
  -1   6   6 34174.0 1809.13  41
  -1   6   6 33499.6 1814.45  49
  -1   6   6 34157.4 1689.37  44
   1   6  -6 33340.0 1822.37  50
  -1   6   6 33442.9 1804.77  18
   1   6  -5 23791.2 1247.89  14
  -1   6   5 28293.3 1429.00   4
   1   6  -5 25895.4 1390.93   7
  -1   6   5 24930.2 1512.40  49
  -1   6   5 25440.5 1515.16  41
  -1   6   5 25679.3 1413.25  44
   1   6  -5 27415.8 1421.62  57
   1   6  -5 23328.7 1384.04  63
  -1   6   5 24671.3 1307.89  63
   1   6  -5 26774.7 1557.14  50
  -1   6   5 24289.7 1498.00  18
  -1   6   4 30237.6 1538.67   4
   1   6  -4 27902.5 1520.14   7
   1   6  -4 30228.3 1361.51  14
   1   6  -4 29571.8 1425.28  73
  -1   6   4 30005.1 1646.92  41
  -1   6   4 27367.1 1588.12  49
  -1   6   4 29963.7 1501.78  63
   1   6  -4 29452.7 1594.51  63
   1   6  -4 30458.3 1561.01  57
   1   6  -4 29100.5 1582.48  50
  -1   6   4 29853.1 1630.57  18
   1   6  -3 5706.01 526.273  14
  -1   6   3 6265.37 683.284   4
   1   6  -3 8274.46 791.087   7
  -1   6   3 6168.25 708.914  41
  -1   6   3 6788.79 736.512  49
   1   6  -3 6099.28 633.131  73
  -1   6   3 4971.10 616.671  63
   1   6  -3 5921.13 688.893  63
   1   6  -3 4909.99 613.576  57
   1   6  -3 6086.11 657.563  50
  -1   6   3 6745.21 669.460  19
  -1   6   3 5883.32 674.733  18
  -1   6   2 15866.8 1089.41   4
   1   6  -2 14209.8 1064.46   7
  -1   6   2 13598.4 1046.61  41
  -1   6   2 11981.0 992.847  49
   1   6  -2 13611.3 982.503  73
  -1   6   2 13035.4 996.222  32
  -1   6   2 14393.2 1043.53  63
   1   6  -2 13960.9 1040.17  57
  -1   6   2 14555.6 997.110  19
   1   6  -2 13367.7 1030.47  19
  -1   6   2 13565.1 1009.90  18
  -1   6   1 75868.7 2790.26  40
  -1   6   1 72714.7 2822.53  49
   1   6  -1 75759.9 2456.61  40
   1   6  -1 77037.9 2792.85  73
  -1   6   1 78498.8 2798.41  32
   1   6  -1 82154.4 2921.26  63
  -1   6   1 77864.7 2864.13  63
   1   6  -1 79386.3 2884.79  19
  -1   6   1 78505.7 2693.76  19
  -1   6   1 74928.6 2744.60  18
  -1   6   1 82160.5 2897.97   4
   1   6   0 64104.5 2507.12   7
   1   6   0 57082.8 2369.53   4
   1   6   0 62585.0 2471.29  41
   1   6   0 61505.6 2149.04  40
  -1   6   0 63595.1 2391.34  40
   1   6   0 59660.3 2382.44  49
   1   6   0 61231.0 2428.81  73
  -1   6   0 60769.1 2354.71  32
  -1   6   0 60169.2 2166.36  33
   1   6   0 58471.7 2065.46  32
  -1   6   0 63816.7 2484.05  63
   1   6   0 58858.7 2388.34  63
   1   6   0 60690.4 2445.38  57
   1   6   0 57204.6 2425.25  19
   1   6   0 59700.9 2073.93  18
  -1   6   0 58159.1 2235.43  19
  -1   6   0 60215.6 2332.80  18
   1   6   1 111946. 3697.35  19
   1   6   1 110790. 3291.47  18
  -1   6  -1 111469. 3648.87   4
   1   6   1 105957. 3582.42   7
   1   6   1 109412. 3573.10   4
  -1   6  -1 108356. 3448.85  83
  -1   6  -1 112887. 3287.45  33
   1   6   1 110784. 3297.41  32
  -1   6  -1 111434. 3509.43  32
   1   6   1 110227. 3571.08  63
  -1   6  -1 109603. 3491.32  50
   1   6   1 112668. 3665.69  57
   1   6   1 105688. 3579.83  49
  -1   6  -1 114721. 3557.81  40
   1   6   1 106763. 3663.93  41
   1   6   2 16439.3 1038.13  18
  -1   6  -2 20729.9 1285.86   4
   1   6   2 18123.7 1183.61   7
  -1   6  -2 16951.3 1160.59  83
   1   6   2 19358.8 1250.03  73
  -1   6  -2 18894.8 1053.34  73
  -1   6  -2 18825.7 1023.89  33
  -1   6  -2 19398.7 1262.69  63
   1   6   2 17984.4 1143.68  63
   1   6   2 16256.3 1156.46  57
  -1   6  -2 18487.8 1216.71  50
   1   6   2 19665.7 1292.01  41
   1   6   2 19440.0 1262.15  49
  -1   6  -2 20561.7 1201.08  40
   1   6   3 47451.4 1964.99  18
  -1   6  -3 47682.5 1990.41  14
  -1   6  -3 49732.8 2195.37  83
  -1   6  -3 50053.6 1824.90  33
   1   6   3 46172.4 1950.99  63
  -1   6  -3 51176.9 2183.00  63
   1   6   3 51587.7 2218.63  49
   1   6   3 46045.4 2177.42  41
   1   6   3 49489.3 2250.19  44
   1   6   3 50847.3 2145.24  57
  -1   6  -3 48618.4 2185.93  50
  -1   6  -3 46277.9 1914.90  57
   1   6   3 49155.4 2202.69  12
  -1   6  -3 48773.9 2106.41   4
   1   6   3 48934.4 2070.21   7
   1   6   4 63568.9 2439.09  18
   1   6   4 62907.7 2252.99  23
  -1   6  -4 65151.3 2459.03  14
  -1   6  -4 67161.4 2485.14   4
   1   6   4 65450.6 2651.54  12
   1   6   4 64528.5 2418.34   7
  -1   6  -4 66067.2 2703.84  83
  -1   6  -4 68692.2 2570.34  63
   1   6   4 63020.1 2285.32  63
   1   6   4 66097.4 2514.03  57
  -1   6  -4 63890.7 2685.63  50
  -1   6  -4 62130.6 2229.61  57
   1   6   4 66957.4 2673.46  49
   1   6   4 67109.3 2718.28  44
   1   6   5 45965.7 1862.23  23
   1   6   5 42431.0 1964.98  18
  -1   6  -5 43677.7 1947.00  14
   1   6   5 43940.0 1821.68   7
   1   6   5 43242.6 2106.22  12
  -1   6  -5 44708.4 1859.90   4
  -1   6  -5 47635.8 2246.68  83
   1   6   5 48491.1 2080.25  73
   1   6   5 44732.1 2090.45  28
  -1   6  -5 43493.8 1897.75  63
  -1   6  -5 46305.6 2228.83  50
   1   6   5 46067.0 1942.70  57
   1   6   5 46653.2 2170.83  49
   1   6   5 43937.6 2156.00  44
   1   6   6 75241.2 2866.79  18
   1   6   6 78567.5 2721.73  23
   1   6   6 76886.6 2978.31  12
  -1   6  -6 78183.2 2830.34  14
  -1   6  -6 81314.4 3161.41  83
   1   6   6 81936.4 2852.11  73
   1   6   6 75201.1 2919.10  28
  -1   6  -6 74511.4 2580.69  63
  -1   6  -6 83198.1 3179.80  50
   1   6   6 81778.0 2688.89  57
   1   6   6 81194.1 3048.98  45
   1   6   6 79513.5 3102.53  44
   1   6   7 68113.6 2433.66  73
  -1   6  -7 64882.5 2468.84  56
  -1   6  -7 64288.1 2746.95  50
   1   6   7 64768.5 2644.55  45
   1   6   7 66014.1 2733.11  44
  -1   6  -7 69184.9 2822.31  83
  -1   6  -8 17192.3 1042.38  56
  -1   6  -8 19695.9 1305.12  50
   1   6   8 17940.6 1001.69  73
   1   6   8 17659.5 1183.19  45
   1   6   8 18232.8 1257.83  44
   1   6   9 5921.33 662.651  41
   1   6   9 6314.36 664.790  44
  -1   6  -9 6320.24 674.086  83
   1   6  10 64150.0 2217.09  49
   1   6  10 62551.5 2231.22  41
   1   6  10 61820.8 2203.83  44
  -1   6 -10 61920.4 2213.82  50
  -1   6 -11 20913.4 947.972  50
   1   6  11 21236.7 832.121  65
  -1   7  10 13574.3 662.153  73
  -1   7  10 15372.5 859.676  49
  -1   7   9 490.300 163.083  73
   1   7  -9 386.202 152.084  56
   1   7  -9 334.999 177.060  50
  -1   7   9 640.005 213.640  41
  -1   7   9 549.612 201.620  49
   1   7  -8 2069.83 386.698  56
  -1   7   8 2207.19 331.079  57
   1   7  -8 2285.82 427.158  50
  -1   7   8 2719.95 431.003  41
  -1   7   8 1981.35 378.713  49
   1   7  -7 47270.4 2082.90  50
  -1   7   7 45945.5 2039.80  41
  -1   7   7 44673.3 2048.20  49
  -1   7   6 653.547 241.742  49
   1   7  -6 744.470 247.849  50
  -1   7   6 637.137 254.523  41
  -1   7   6 440.945 176.367   7
   1   7  -6 522.850 180.370   7
   1   7  -6 660.229 223.642  63
  -1   7   5 41461.8 2031.75  49
  -1   7   5 41734.2 2013.86  41
  -1   7   5 44118.6 1785.13  63
   1   7  -5 40312.1 1886.11  63
   1   7  -5 43131.5 1841.39  57
   1   7  -5 37635.2 1857.05  50
   1   7  -5 39360.8 1793.76   7
   1   7  -4 20436.1 1303.31   7
  -1   7   4 21568.6 1321.93   4
  -1   7   4 23974.5 1473.44  49
  -1   7   4 21998.9 1405.07  41
   1   7  -4 21532.0 1193.87  73
  -1   7   4 23432.2 1431.38  32
  -1   7   4 21274.5 1267.36  63
   1   7  -4 23943.3 1431.55  63
   1   7  -4 23661.9 1344.35  50
   1   7  -4 23691.2 1364.03  57
  -1   7   4 21466.9 1373.39  18
  -1   7   3 61223.1 2504.89   4
   1   7  -3 63965.3 2569.45   7
  -1   7   3 64705.7 2649.75  49
  -1   7   3 65511.9 2606.25  40
   1   7  -3 61690.8 2371.55  73
  -1   7   3 61685.6 2517.75  32
   1   7  -3 61743.6 2574.12  63
  -1   7   3 63671.5 2495.52  63
   1   7  -3 66096.9 2578.89  57
  -1   7   3 62283.6 2526.33  18
   1   7  -2 10894.2 959.052   7
  -1   7   2 10840.7 943.294   4
  -1   7   2 10658.9 929.627  40
  -1   7   2 8628.65 862.797  49
   1   7  -2 9878.33 869.369  73
  -1   7   2 8991.26 841.990  32
  -1   7   2 8511.29 747.040  33
  -1   7   2 10889.1 932.740  63
   1   7  -2 9427.32 892.363  57
  -1   7   2 9771.72 885.382  18
  -1   7   1 48938.8 2158.22  40
   1   7  -1 53585.4 2242.15  73
  -1   7   1 48825.9 1933.96  33
  -1   7   1 55835.9 2239.36  32
   1   7  -1 50447.1 2044.07  28
  -1   7   1 49985.0 2233.16  63
   1   7  -1 52232.3 2295.78  63
   1   7  -1 48133.8 2235.39  19
  -1   7   1 50485.4 2155.47  18
  -1   7   1 48821.9 2229.91   4
   1   7   0 1530.58 370.125   7
  -1   7   0 1752.87 364.717  40
   1   7   0 1333.81 340.158  73
   1   7   0 1523.04 331.016  28
  -1   7   0 1402.93 277.598  33
  -1   7   0 1142.27 293.826  32
  -1   7   0 1261.71 348.383  63
   1   7   0 1803.85 395.945  63
   1   7   0 2126.61 426.414  57
   1   7   0 1923.45 415.627  19
  -1   7  -1 14667.7 1139.87   4
   1   7   1 17111.7 1205.80   7
   1   7   1 15741.0 1000.53  40
  -1   7  -1 16143.8 1092.91  40
   1   7   1 16378.0 1172.49  49
   1   7   1 16568.5 1192.21  73
  -1   7  -1 14923.6 1012.35  73
   1   7   1 15895.6 1123.01  28
   1   7   1 15211.6 1112.26  63
   1   7   1 17518.2 1223.69  57
  -1   7  -1 15791.7 1126.61  57
   1   7   1 16049.6 1209.07  19
  -1   7  -2 16323.4 1084.54  14
   1   7   2 15242.1 1197.24  19
   1   7   2 17157.0 1181.05   7
  -1   7  -2 16397.4 1189.83   4
  -1   7  -2 16922.2 1131.42  83
  -1   7  -2 16669.2 997.104  73
   1   7   2 14695.8 1128.94  73
   1   7   2 15832.9 1148.27  28
  -1   7  -2 18371.1 1268.99  63
   1   7   2 17365.1 1154.18  63
  -1   7  -2 15819.6 1102.73  50
   1   7   2 17451.0 1212.09  57
  -1   7  -2 16570.7 1105.33  57
   1   7   2 16658.8 1056.81  40
   1   7   2 17028.1 1211.79  49
   1   7   2 17140.3 1259.03  41
   1   7   3 10013.6 959.907  19
   1   7   3 10379.3 890.459   7
  -1   7  -3 11041.4 889.635  14
  -1   7  -3 10130.5 904.748   4
  -1   7  -3 11127.3 950.677  83
   1   7   3 11348.3 968.880  73
   1   7   3 10300.8 807.623  32
   1   7   3 10973.4 955.099  28
  -1   7  -3 10228.1 921.473  63
   1   7   3 10598.7 850.888  63
   1   7   3 11575.6 973.286  57
  -1   7  -3 10723.9 837.400  57
  -1   7  -3 11711.3 963.953  50
   1   7   3 10657.1 963.976  49
   1   7   3 10422.9 970.781  41
   1   7   4 23464.7 1507.71  19
   1   7   4 24662.2 1339.06   7
   1   7   4 27792.6 1527.50  73
  -1   7  -4 25841.7 1511.79  83
   1   7   4 23135.8 1224.85  63
  -1   7  -4 26854.2 1463.66  63
  -1   7  -4 23835.6 1458.86  50
  -1   7  -4 22950.4 1185.38  57
   1   7   4 24256.9 1385.84  57
   1   7   4 24967.6 1505.69  49
  -1   7  -5 2982.39 421.193   7
   1   7   5 2266.00 370.584   7
  -1   7  -5 2806.46 496.352  83
  -1   7  -5 1777.72 346.385  63
   1   7   5 3092.31 448.734  57
  -1   7  -5 2067.03 435.556  50
   1   7   5 2617.88 476.135  49
   1   7   5 2521.09 430.784  73
  -1   7  -6 18425.6 1253.57  83
   1   7   6 18590.9 1032.74  57
  -1   7  -6 18576.0 1275.40  50
   1   7   6 16189.3 1171.68  49
   1   7   6 20551.9 1182.06  73
  -1   7  -7 20236.6 1270.72  83
  -1   7  -7 19055.0 1089.00  56
  -1   7  -7 21351.1 1304.09  50
   1   7   7 20579.4 1240.65  49
   1   7   7 19583.3 1073.13  73
   1   7   8 2333.69 378.213  49
  -1   7  -8 2626.34 423.693  50
   1   7   8 2350.12 301.854  73
  -1   7  -9 469.281 167.075  50
   1   7   9 418.728 149.135  49
   1   8  -9 11363.6 654.236  78
  -1   8   9 12394.9 553.776  73
  -1   8   8 16756.6 832.904  73
  -1   8   8 16107.8 712.632  57
   1   8  -8 16694.8 893.274  56
  -1   8   8 17957.3 927.234  49
  -1   8   7 13754.3 845.748  73
  -1   8   7 15258.2 825.819  57
   1   8  -7 12935.0 804.209  50
  -1   8   7 14030.8 883.863  40
  -1   8   7 14902.0 928.467  49
  -1   8   7 13744.9 851.268  32
  -1   8   6 6457.58 610.978  73
  -1   8   6 6620.45 624.142  32
   1   8  -6 6472.25 647.866  56
  -1   8   6 7225.33 627.767  57
   1   8  -6 5597.42 539.382  50
  -1   8   6 6680.18 636.523  40
  -1   8   6 6716.68 658.762  49
  -1   8   5 5410.61 590.354  40
  -1   8   5 4780.99 580.178  49
  -1   8   5 5273.12 592.327  73
  -1   8   5 5301.91 488.021  63
   1   8  -5 4198.11 506.632  63
  -1   8   5 5488.31 585.369  32
   1   8  -5 5011.61 499.721  50
  -1   8   5 6051.82 617.331  57
  -1   8   5 5341.97 532.942   7
  -1   8   4 13518.0 973.643  40
  -1   8   4 15950.2 1025.18  32
   1   8  -4 15241.4 1038.09  63
  -1   8   4 15615.0 960.921  63
   1   8  -4 14997.8 980.705  57
  -1   8   4 15990.2 1072.17  57
   1   8  -4 14782.2 994.980   7
  -1   8   4 16268.0 1030.03   7
  -1   8   3 20490.6 1231.33  40
   1   8  -3 24452.0 1218.49  73
  -1   8   3 23017.3 1340.06  73
  -1   8   3 23080.5 1277.44  32
  -1   8   3 22780.9 1270.26  63
   1   8  -3 21865.0 1319.98  63
   1   8  -3 23483.9 1325.96  57
  -1   8   3 22657.6 1357.04  57
  -1   8   3 22254.1 1301.92   7
   1   8  -3 22239.5 1312.64   7
  -1   8   2 12151.8 920.921  40
  -1   8   2 14170.0 1005.34  73
   1   8  -2 11989.8 896.576  73
  -1   8   2 14419.0 971.287  32
  -1   8   2 12206.3 943.824  63
   1   8  -2 12757.3 990.714  57
   1   8  -2 11537.9 950.202   7
   1   8  -1 39271.1 1882.70  63
  -1   8   1 42571.1 1934.52  63
  -1   8   1 40445.2 1795.34  40
   1   8  -1 37285.7 1841.18  57
  -1   8   1 43007.9 1943.94  57
   1   8  -1 41460.5 1853.65  73
  -1   8   1 44805.6 1878.42  73
   1   8   0 16211.2 1124.61  63
  -1   8   0 18878.4 1229.33  63
   1   8   0 16087.2 1135.32   7
   1   8   0 15998.3 1126.52  57
  -1   8   0 16360.4 1127.68  57
   1   8   0 16648.9 1130.38  73
  -1   8   0 16271.8 1028.73  73
   1   8   1 79720.4 2834.49  63
   1   8   1 78465.2 2882.61   7
   1   8   1 81250.9 2941.11  57
  -1   8  -1 82669.4 2846.78  57
   1   8   1 82732.3 2928.83  73
  -1   8  -1 80233.2 2594.23  73
  -1   8  -2 19708.7 1238.32  63
   1   8   2 18613.0 1125.79  63
  -1   8  -2 17912.2 1080.02  57
   1   8   2 18537.6 1187.82  57
   1   8   2 19928.9 1203.62   7
  -1   8  -2 19283.9 1217.95   7
   1   8   3 31542.1 1452.87  63
  -1   8  -3 37973.9 1715.70  63
   1   8   3 36363.4 1616.90   7
  -1   8  -3 36888.1 1662.50   7
   1   8   3 35581.0 1652.52  57
  -1   8  -3 36974.5 1567.21  50
   1   8   3 35967.9 1683.87  73
  -1   8  -4 7266.94 662.592  63
  -1   8  -4 6354.05 599.213   7
   1   8   4 6974.28 613.443   7
   1   8   4 7300.82 662.405  57
  -1   8  -4 7026.89 655.663  50
   1   8   4 7314.41 687.431  73
  -1   8  -5 12810.0 805.455  63
  -1   8  -5 12195.6 865.985  50
   1   8   5 12887.8 812.328  57
   1   8   5 13821.0 934.327  49
   1   8   5 15025.7 931.309  73
  -1   8  -6 24792.2 1178.73  56
   1   8   6 25158.9 1041.27  57
  -1   8  -6 27308.8 1279.70  50
   1   8   6 28077.2 1297.02  49
   1   8   6 25029.9 1168.83  73
  -1   8  -7 6050.96 530.780  50
   1   8   7 5573.58 443.093  73
  -1   8  -8 32716.1 990.360  50
   1   8   8-17.0203 18.1515  77
  -1   9   7 24075.7 766.984  73
   1   9  -7 14297.5 688.837  78
  -1   9   6 13844.3 692.413  73
   1   9  -6 14137.3 729.930  56
  -1   9   6 13859.7 650.858  57
  -1   9   5 10186.4 628.582  57
   1   9  -5 10747.7 685.072  56
  -1   9   5 9206.28 491.276   7
  -1   9   4 1582.98 213.119  63
  -1   9   4 1392.24 247.567  73
  -1   9   4 1682.55 274.132  57
   1   9  -4 1415.63 273.809  56
  -1   9   4 1075.08 202.529   7
  -1   9   3 47246.2 1690.07  63
   1   9  -3 52420.1 1794.00  57
  -1   9   3 51097.0 1794.72  73
  -1   9   3 50567.6 1844.58  57
  -1   9   3 49927.4 1785.74   7
   1   9  -2 20530.6 1065.58  57
  -1   9   2 19736.2 1020.35  63
  -1   9   2 21118.1 1021.30  73
  -1   9   2 19147.2 1040.89   7
   1   9  -2 19987.6 1057.59   7
   1   9  -1 7767.25 645.053  63
  -1   9   1 8182.43 653.737  63
   1   9  -1 7779.04 649.453  57
   1   9  -1 7180.73 579.430  73
  -1   9   1 6771.84 539.869  73
  -1   9   1 6683.96 597.037  57
  -1   9   1 8747.40 684.898   7
   1   9   0 3664.64 440.916  63
  -1   9   0 3379.97 433.176  63
   1   9   0 3171.44 401.355  73
   1   9   0 3526.69 437.546   7
  -1   9   0 3963.19 440.151  57
   1   9   1 11325.9 770.207  73
   1   9   1 12152.4 817.423  57
  -1   9  -1 11504.0 738.230  57
   1   9   1 13229.0 829.060   7
  -1   9  -1 12070.7 809.314   7
  -1   9  -2 29422.6 1306.89  63
   1   9   2 27646.1 1269.97  73
  -1   9  -2 29313.1 1283.49   7
   1   9   2 28949.4 1287.27  57
  -1   9  -3 3470.72 393.502  63
   1   9   3 3787.87 399.677  57
  -1   9  -3 3589.77 376.975   7
   1   9   4 21264.4 931.567  57
  -1   9  -4 23141.6 946.247  63
   1   9   4 21373.8 986.827  73
  -1   9  -5 4436.90 362.835  56
   1   9   5 4700.02 316.574  57
   1   9   5 5543.08 412.647  73
   2  -9  -6 878.084 159.255  53
  -2  -9   6 802.044 148.215  66
   2  -9  -6 906.399 164.326  71
  -2  -9   6 858.268 171.499  69
   2  -9  -5 4092.78 379.177  53
  -2  -9   5 3445.30 340.545  66
   2  -9  -5 3346.64 312.723  60
  -2  -9   5 4349.47 405.235  69
  -2  -9   4 9270.15 604.569  66
   2  -9  -4 8363.89 531.799  60
  -2  -9   4 9838.11 657.879  69
   2  -9  -3 1402.70 218.815  60
  -2  -9   3 1558.08 259.436  66
  -2  -9   3 1432.99 263.908  69
   2  -9  -3 1932.09 299.761   5
  -2  -9   2 2093.63 297.176  66
  -2  -9   2 2420.69 347.538  69
   2  -9  -2 2848.76 354.992  53
   2  -9  -2 2287.19 342.694   5
   2  -9  -1 2475.02 338.993  53
  -2  -9   1 2420.81 313.495  66
  -2  -9   1 2560.94 365.556  69
   2  -9  -1 3137.76 400.542  67
  -2  -9   0 16965.3 875.342  69
   2  -9   0 15960.6 865.300  67
   2  -9   0 15981.0 881.609   5
  -2  -9  -1 3975.42 433.365  69
   2  -9   1 3668.70 433.945  67
   2  -9   1 4637.34 470.859   5
  -2  -9  -2 3613.07 393.899  69
   2  -9   2 3439.09 403.850  67
   2  -9   3 13858.3 782.379  67
  -2  -9  -3 13905.1 757.225  69
   2  -9   4 8525.63 548.296  67
  -2  -8   9 8961.00 543.370  69
   2  -8  -9 8478.09 493.523  71
   2  -8  -8 9329.72 616.515  53
   2  -8  -8 8571.18 605.969  60
  -2  -8   8 9975.03 667.056  69
   2  -8  -8 10199.3 640.608  71
   2  -8  -7 12206.2 800.446  60
  -2  -8   7 12466.2 829.011  69
   2  -8  -7 12250.6 786.732  53
  -2  -8   7 11314.2 727.640  39
   2  -8  -6 35419.6 1565.35  60
  -2  -8   6 38048.6 1642.74  69
   2  -8  -6 37578.8 1602.00  53
  -2  -8   6 36054.5 1472.23  39
  -2  -8   5 48158.4 1953.51  66
   2  -8  -5 42518.0 1822.99  60
  -2  -8   5 46791.2 1939.47  69
  -2  -8   5 43731.3 1677.79  39
   2  -8  -5 45360.5 1812.45   5
  -2  -8   4 15668.7 1057.51  69
   2  -8  -4 15534.9 1060.24  67
   2  -8  -4 16234.3 1041.82  60
  -2  -8   4 14577.5 1024.42  66
  -2  -8   3 51365.0 2150.58  69
   2  -8  -3 47142.5 2081.98  67
  -2  -8   3 50529.4 2116.68  66
   2  -8  -3 54786.4 2147.28  59
   2  -8  -3 54284.2 2109.90  60
  -2  -8   2 6547.86 692.170  69
   2  -8  -2 5638.01 622.156  59
  -2  -8   2 4922.00 595.595  66
  -2  -8   1 20431.9 1265.52  69
   2  -8  -1 18132.9 1155.69  59
  -2  -8   1 21319.5 1256.88  66
  -2  -8   0 13888.1 1025.43  69
   2  -8   0 15269.4 1019.39  59
  -2  -8   0 14405.7 1007.63  66
   2  -8   1 3408.60 501.525  68
  -2  -8  -1 2916.62 463.854  69
  -2  -8  -1 2958.98 439.898  66
   2  -8   1 2969.73 429.730  59
  -2  -8  -2 19944.1 1005.34  53
   2  -8   2 19877.4 1238.22  68
  -2  -8  -2 21229.7 1241.83  69
   2  -8   2 18733.0 1083.11  59
  -2  -8  -2 20506.8 1155.42  66
   2  -8   3 1740.66 354.451  68
  -2  -8  -3 1523.39 335.508  69
   2  -8   3 1545.69 284.507  59
  -2  -8  -3 1633.11 307.986  66
  -2  -8  -4 7556.00 672.268  69
  -2  -8  -4 6688.31 560.379  66
   2  -8   4 7090.95 688.047  68
  -2  -8  -5 412.212 126.165  71
   2  -8   5 354.057 176.781  68
  -2  -8  -5 366.830 162.838  69
   2  -8   6 33976.5 1343.32  68
  -2  -8  -6 26112.2 992.518  71
  -2  -8  -7 1040.68 188.085  70
   2  -8   7 849.014 172.463  68
  -2  -7  11 14152.3 686.645  69
   2  -7 -11 13493.1 601.733  52
  -2  -7  10 356.818 147.414  69
   2  -7 -10 177.245 99.6795  71
  -2  -7  10 97.5575 77.6188  39
   2  -7  -9 11252.2 769.914  71
  -2  -7   9 10495.4 802.246  69
   2  -7  -9 9874.54 761.158  60
   2  -7  -9 10718.9 759.015  53
  -2  -7   9 11630.8 777.992  43
   2  -7  -8 5242.95 577.632  71
  -2  -7   8 5552.39 626.171  69
  -2  -7   8 4641.18 525.543  36
   2  -7  -8 6350.88 649.968  60
   2  -7  -8 5369.68 583.051  53
  -2  -7   8 5649.64 598.970  39
  -2  -7   8 4505.66 515.286  43
  -2  -7   7 8175.78 808.980  69
  -2  -7   7 9082.95 790.960  36
   2  -7  -7 9881.13 869.304  60
   2  -7  -7 9447.35 818.822  53
  -2  -7   7 8680.68 771.698  39
  -2  -7   6 14480.3 1075.78  69
  -2  -7   6 13551.2 1014.59  36
   2  -7  -6 12874.4 1000.47  53
  -2  -7   6 12871.5 964.057  39
   2  -7  -6 14336.4 1081.15  60
   2  -7  -5 12424.6 1018.90  59
   2  -7  -5 10412.4 942.216  60
  -2  -7   5 12174.4 1005.93  69
   2  -7  -5 11227.9 963.412  67
  -2  -7   5 12041.0 917.530  39
  -2  -7   4 11590.0 889.737  39
   2  -7  -4 11512.7 1002.47  67
   2  -7  -4 11885.3 841.822  69
  -2  -7   4 12972.4 1041.12  69
  -2  -7   4 12023.3 965.428  36
   2  -7  -4 12687.6 1034.93  59
  -2  -7   4 13014.6 964.494   6
   2  -7  -4 12402.9 1022.96  22
   2  -7  -4 11645.5 997.084  15
  -2  -7   3 8386.29 718.795  39
   2  -7  -3 9418.00 894.594  67
   2  -7  -3 8136.28 697.082  69
  -2  -7   3 9731.51 912.835  69
  -2  -7   3 10301.3 884.053  36
   2  -7  -3 7724.00 822.212  59
  -2  -7   3 9176.81 843.786   2
  -2  -7   3 8272.99 792.413   6
  -2  -7   3 8350.95 822.727  20
  -2  -7   3 9027.49 916.805  25
   2  -7  -3 7636.77 818.378  15
  -2  -7   2 9501.00 711.091  39
   2  -7  -2 9774.80 782.304  69
  -2  -7   2 10716.8 954.756  69
  -2  -7   2 10799.8 891.112  36
  -2  -7   2 11434.4 977.529  66
   2  -7  -2 9014.78 874.371  59
  -2  -7   2 9224.06 935.587  25
   2  -7  -2 9613.72 924.453  15
  -2  -7   2 9212.65 858.129  20
   2  -7  -2 10222.9 872.722  25
  -2  -7   2 9191.46 850.544   6
  -2  -7   2 8642.83 831.602   2
   2  -7  -1 38253.2 1878.51  59
  -2  -7   1 37127.3 1871.57  66
   2  -7  -1 35092.7 1602.77  69
  -2  -7   1 36573.0 1869.63  69
  -2  -7   1 36364.0 1637.39  67
  -2  -7   1 34926.2 1779.93  20
   2  -7  -1 38747.5 1879.73  25
   2  -7  -1 37871.8 1920.47  15
  -2  -7   1 36102.6 1796.61   6
  -2  -7   1 34904.4 1781.27   2
  -2  -7   0 74124.5 2793.58  20
   2  -7   0 74886.6 2892.78  25
   2  -7   0 66504.4 2790.71  15
  -2  -7   0 77561.2 2900.07  66
   2  -7   0 69508.8 2771.40  59
  -2  -7   0 76358.2 2903.30  69
   2  -7   0 75420.5 2571.52  69
  -2  -7   0 76781.4 2636.14  67
  -2  -7  -1 16679.4 1182.10  66
   2  -7   1 16058.1 1148.51  59
   2  -7   1 15625.5 1180.41  68
  -2  -7  -1 16349.4 1187.99  69
   2  -7   1 14771.6 981.765  69
  -2  -7  -1 16594.9 1077.84  67
  -2  -7  -1 16691.2 1155.32  20
   2  -7   1 15077.5 1155.69  15
  -2  -7  -1 14491.1 1086.19   2
  -2  -7  -1 17709.0 1167.38   6
   2  -7   2 20754.3 1289.91  59
  -2  -7  -2 19897.6 1293.17  66
  -2  -7  -2 22689.1 1395.19  69
   2  -7   2 18617.6 1112.28  69
   2  -7   2 20136.5 1353.76  68
   2  -7   2 18278.0 1230.97  21
   2  -7   2 20765.6 1336.10  15
  -2  -7  -2 17349.7 1193.48  20
  -2  -7  -2 20334.1 1253.30   2
  -2  -7  -2 21468.1 1265.21   6
   2  -7   3 21182.7 1282.10  59
  -2  -7  -3 21238.9 1303.00  66
  -2  -7  -3 19526.7 1076.87  53
   2  -7   3 21464.5 1389.42  68
  -2  -7  -3 20777.8 1335.60  69
  -2  -7  -3 19033.8 1120.36  71
   2  -7   3 18789.9 1109.03  69
   2  -7   4 14059.7 983.650  59
  -2  -7  -4 13534.6 979.126  66
   2  -7   4 14129.2 1092.67  68
  -2  -7  -4 15938.8 1111.91  69
   2  -7   4 12703.2 866.628  69
  -2  -7  -4 12502.9 882.589  71
   2  -7   5 29532.9 1408.87  59
   2  -7   5 26345.5 1308.95  34
   2  -7   5 28479.3 1591.80  68
  -2  -7  -5 28005.2 1522.99  69
  -2  -7  -5 27110.1 1391.89  66
  -2  -7  -5 29186.3 1392.26  71
   2  -7   6 28440.1 1317.43  34
  -2  -7  -6 28401.0 1330.71  66
   2  -7   6 28910.3 1534.84  68
  -2  -7  -6 26024.7 1291.22  71
   2  -7   7 8241.35 705.775  68
  -2  -7  -7 7979.74 600.285  71
   2  -7   7 7443.64 581.786  34
  -2  -7  -8 1546.15 268.738  70
   2  -7   8 1565.35 283.963  68
  -2  -7  -9 24827.4 1003.32  70
   2  -7   9 26212.4 1028.73  68
   2  -6 -12 7309.02 468.345  52
   2  -6 -11 7227.99 567.559  71
   2  -6 -11 7068.43 573.727  52
  -2  -6  11 6884.39 585.416  39
  -2  -6  11 8109.33 633.472  43
   2  -6 -10 24048.9 1306.19  60
   2  -6 -10 24453.4 1254.26  71
  -2  -6  10 27251.7 1348.42  39
  -2  -6  10 24077.9 1178.71  36
   2  -6  -9 41059.7 1821.78  71
  -2  -6   9 40248.6 1839.55  39
   2  -6  -9 41171.6 1858.11  53
  -2  -6   9 40208.1 1754.21  36
   2  -6  -8 77747.1 2873.80  53
  -2  -6   8 77229.2 2785.20  36
  -2  -6   7 64453.5 2586.79  17
   2  -6  -7 61077.2 2515.56  22
  -2  -6   7 63079.9 2646.58  21
  -2  -6   7 60486.8 2329.46  31
  -2  -6   7 65151.4 2505.74  36
   2  -6  -7 61021.3 2581.83  60
   2  -6  -7 61588.3 2510.25  53
   2  -6  -7 60061.3 2208.96   5
  -2  -6   7 58069.4 2352.73  13
  -2  -6   6 27634.8 1592.71  17
  -2  -6   6 27405.1 1634.49  25
   2  -6  -6 26490.6 1445.95  15
  -2  -6   6 26057.8 1611.26  21
   2  -6  -6 29922.0 1428.60  69
   2  -6  -6 29704.0 1622.32  67
  -2  -6   6 31366.3 1560.09  31
  -2  -6   6 33020.8 1662.40  36
   2  -6  -6 27905.8 1605.95  59
   2  -6  -6 27002.6 1616.41  60
   2  -6  -6 27420.4 1566.84  53
  -2  -6   6 27115.1 1448.30  13
  -2  -6   6 28949.0 1415.75   6
   2  -6  -5 29528.3 1610.05  67
   2  -6  -5 26998.8 1355.39  69
  -2  -6   5 29087.6 1525.37  31
  -2  -6   5 27501.3 1537.57  36
   2  -6  -5 26528.7 1567.13  59
  -2  -6   5 28195.6 1451.47   6
  -2  -6   5 27883.7 1391.69  13
  -2  -6   5 25560.4 1405.18   2
  -2  -6   5 24466.4 1554.44  25
  -2  -6   5 25497.8 1566.59  21
   2  -6  -5 26376.6 1475.29  15
  -2  -6   5 28509.3 1555.66  17
   2  -6  -4 5887.96 709.019  67
   2  -6  -4 6447.59 625.886  69
  -2  -6   4 6792.65 712.727  31
   2  -6  -4 6728.00 768.675  59
  -2  -6   4 7298.83 726.565   2
  -2  -6   4 7575.90 742.419   6
  -2  -6   4 7648.45 829.571  25
   2  -6  -4 7995.22 786.858  15
  -2  -6   4 8477.85 862.417  21
  -2  -6   4 6687.30 708.410  17
   2  -6  -3 158534. 4580.16  69
  -2  -6   3 171251. 4992.13  69
  -2  -6   3 174825. 4888.39  36
  -2  -6   3 169754. 4891.07  31
   2  -6  -3 170516. 5041.89  59
  -2  -6   3 173218. 4884.59   6
  -2  -6   3 161421. 4834.10   2
  -2  -6   3 163190. 5058.89  25
   2  -6  -3 163449. 4667.06  25
   2  -6  -3 174116. 5000.26  15
  -2  -6   3 165598. 4753.62  17
   2  -6  -2 33035.8 1724.66  68
   2  -6  -2 32646.6 1511.76  69
  -2  -6   2 33612.3 1742.36  69
  -2  -6   2 36316.2 1693.35  36
   2  -6  -2 36811.7 1830.24  59
  -2  -6   2 34478.2 1692.17   6
  -2  -6   2 34120.7 1690.17   2
  -2  -6   2 36598.1 1869.05  25
   2  -6  -2 32163.6 1710.23  15
   2  -6  -2 35273.3 1676.18  25
  -2  -6   2 33528.1 1548.72  17
   2  -6  -1 59963.3 2406.93  68
   2  -6  -1 53119.2 2059.91  69
  -2  -6   1 57004.0 2339.29  69
  -2  -6   1 54723.1 2142.41  36
   2  -6  -1 56002.7 2346.96  59
  -2  -6   1 57120.2 2290.45   6
  -2  -6   1 49895.9 2187.87   2
  -2  -6   1 52594.3 2337.15  25
  -2  -6   1 53086.7 1948.45  17
   2  -6  -1 54109.9 2328.70  15
  -2  -6   1 57869.9 2322.51  20
   2  -6  -1 53879.1 2036.07  21
   2  -6   0 4293.59 594.457  59
  -2  -6   0 3202.87 506.635  66
  -2  -6   0 3254.89 444.173  36
  -2  -6   0 3004.46 448.751  67
   2  -6   0 3810.55 483.626  69
  -2  -6   0 3523.89 540.720  69
  -2  -6   0 3153.27 497.025  20
   2  -6   0 4133.38 583.127  15
   2  -6   0 4048.17 511.028  21
  -2  -6  -1 41318.5 1991.23  69
   2  -6   1 45557.9 1840.44  69
  -2  -6  -1 42273.2 1839.44  67
   2  -6   1 41431.0 2011.35  27
  -2  -6  -1 45688.4 2053.79  66
   2  -6   1 42451.6 2002.30  59
  -2  -6  -1 44233.7 1946.59   6
  -2  -6  -1 45452.4 1985.76   2
   2  -6   1 47152.5 2070.43  15
   2  -6   1 39873.6 1847.61  21
  -2  -6  -1 42027.8 1964.95  20
   2  -6   2 64083.1 2398.64  43
   2  -6   2 63292.2 2470.38  39
  -2  -6  -2 66313.4 2609.44  69
  -2  -6  -2 63509.9 2412.45  67
   2  -6   2 62774.0 2323.53  69
   2  -6   2 62000.2 2635.19  27
   2  -6   2 62500.0 2220.77  34
  -2  -6  -2 61104.0 2517.91  66
   2  -6   2 64071.4 2552.52  59
  -2  -6  -2 64099.9 2450.36   6
  -2  -6  -2 62774.7 2441.73   2
  -2  -6  -2 66267.5 2581.75  20
   2  -6   2 64876.3 2542.05  15
   2  -6   2 62147.8 2484.98  21
   2  -6   3 13254.1 1029.34  39
   2  -6   3 14539.1 1042.19  43
  -2  -6  -3 14394.2 1100.28  69
   2  -6   3 15111.0 1163.04  68
   2  -6   3 13772.3 949.431  34
   2  -6   3 13403.2 1141.11  27
  -2  -6  -3 13334.4 1051.75  66
   2  -6   3 15678.9 1133.00  59
  -2  -6  -3 12903.7 949.174   6
  -2  -6  -3 14595.5 1009.98   2
   2  -6   3 13135.9 1063.90  21
   2  -6   3 12794.6 1004.04  15
  -2  -6  -3 13955.1 1056.53  20
   2  -6   4 39611.3 1884.18  43
   2  -6   4 39244.4 2023.74  68
  -2  -6  -4 37709.7 1901.41  69
  -2  -6  -4 36522.1 1747.07  71
   2  -6   4 40515.5 1812.07  34
  -2  -6  -4 43159.3 1970.60  66
   2  -6   4 41153.6 1944.00  59
  -2  -6  -4 41648.4 1744.32   6
  -2  -6  -4 40191.6 1736.63   2
   2  -6   4 36327.5 1738.14  15
   2  -6   4 43435.3 2074.67  21
  -2  -6  -5 22616.3 1405.87  69
  -2  -6  -5 21368.1 1323.02  66
   2  -6   5 22276.0 1463.49  68
  -2  -6  -5 19348.7 1222.97  71
   2  -6   5 21127.9 1510.73  27
   2  -6   5 21184.4 1290.67  34
   2  -6   5 19396.7 1092.43  35
   2  -6   5 23231.6 1377.66  59
   2  -6   5 23924.4 1400.20  43
   2  -6   5 22058.9 1464.06  21
   2  -6   6 5013.77 605.398  59
   2  -6   6 3703.55 463.103  35
   2  -6   6 4135.45 558.846  34
   2  -6   6 4856.51 670.283  68
  -2  -6  -6 3878.41 569.544  69
  -2  -6  -6 5011.56 603.797  71
  -2  -6  -6 4428.99 575.401  66
   2  -6   6 4690.66 612.849  39
   2  -6   7 10469.4 829.616  59
  -2  -6  -7 12055.6 895.919  66
   2  -6   7 10559.0 953.265  68
  -2  -6  -7 10340.7 846.791  71
   2  -6   7 10420.9 869.825  34
   2  -6   7 11359.7 813.344  35
   2  -6   8 11668.1 928.742  68
  -2  -6  -8 10779.1 821.959  71
  -2  -6  -8 10572.0 774.895  66
   2  -6   8 9874.31 802.092  34
   2  -6   8 9775.52 729.333  35
  -2  -6  -9 25680.6 1236.34  70
   2  -6   9 25944.1 1306.15  68
   2  -6   9 22849.9 1084.33  35
   2  -6   9 27276.7 1264.53  34
   2  -6  10 11179.0 702.852  68
  -2  -6 -10 11486.8 685.356  70
  -2  -6 -11 4732.45 325.251  70
   2  -5 -13 17777.0 788.441  52
  -2  -5  12 14745.7 878.764  43
  -2  -5  12 13907.7 819.391  39
   2  -5 -12 15623.1 880.415  52
   2  -5 -11 17874.2 1045.48  71
   2  -5 -11 17996.4 1078.02  52
  -2  -5  11 17958.1 1086.69  39
   2  -5 -10 24642.5 1412.06  60
  -2  -5  10 23524.5 1249.64  36
   2  -5 -10 22540.4 1295.16  71
  -2  -5   9 35330.1 1822.74  17
   2  -5  -9 32469.2 1665.60  71
   2  -5  -9 34289.0 1767.60  60
  -2  -5   9 31104.1 1584.26  36
   2  -5  -9 35118.1 1785.18  53
  -2  -5   9 33398.6 1767.11  13
  -2  -5   8 11715.1 1028.21  17
  -2  -5   8 11409.9 1025.06  24
  -2  -5   8 11459.3 1013.58  21
   2  -5  -8 12036.1 1018.20  22
   2  -5  -8 12386.4 1041.10  60
   2  -5  -8 13170.9 1038.25  53
  -2  -5   8 12008.8 1030.79  13
  -2  -5   8 10618.3 906.752  36
  -2  -5   8 13519.2 924.222  31
   2  -5  -7 10763.5 947.176  22
  -2  -5   7 12296.2 1039.33  21
  -2  -5   7 11340.2 872.709  31
   2  -5  -7 11034.2 950.285  53
  -2  -5   7 10947.7 942.979  13
   2  -5  -7 12248.4 854.947   5
  -2  -5   6 39005.4 1670.02  42
  -2  -5   6 39403.1 1784.84  31
   2  -5  -6 39249.4 1706.82  69
   2  -5  -6 40767.1 1887.50  67
  -2  -5   6 43344.9 1912.32  13
  -2  -5   6 42738.2 1723.22   6
  -2  -5   6 40336.7 1696.26   2
  -2  -5   6 42212.3 1968.96  25
   2  -5  -6 41599.0 1776.30  15
  -2  -5   6 41763.9 1987.95  21
  -2  -5   6 40984.9 1954.54  17
  -2  -5   5 32280.0 1493.55  42
   2  -5  -5 30705.4 1434.43  69
   2  -5  -5 31524.2 1610.25  67
  -2  -5   5 32914.2 1573.11  31
  -2  -5   5 36537.1 1586.90   6
  -2  -5   5 31512.8 1502.30   2
  -2  -5   5 32024.7 1682.24  25
  -2  -5   5 32356.6 1669.81  21
   2  -5  -5 32703.5 1577.85  15
  -2  -5   4 37258.6 1655.05  42
   2  -5  -4 40738.0 1829.93  67
  -2  -5   4 40352.7 1738.30  31
   2  -5  -4 37137.8 1808.60  59
  -2  -5   4 37286.2 1684.39   2
  -2  -5   4 38932.9 1709.70   6
   2  -5  -4 36553.8 1482.18  25
  -2  -5   4 40674.8 1868.43  25
   2  -5  -4 39220.5 1759.42  15
  -2  -5   4 40715.4 1864.87  21
  -2  -5   3 9709.09 756.174  42
   2  -5  -3 8558.10 764.950  68
  -2  -5   3 8961.12 743.697  31
   2  -5  -3 7795.60 769.032  59
  -2  -5   3 9686.13 777.977   2
  -2  -5   3 9073.18 747.247   6
  -2  -5   3 7066.72 729.833  25
   2  -5  -3 8173.42 661.956  25
   2  -5  -3 8977.84 784.791  15
  -2  -5   3 9708.65 818.620  21
  -2  -5   2 58047.6 2088.39  42
   2  -5  -2 52895.7 2145.51  68
  -2  -5   2 56528.2 2174.76  69
  -2  -5   2 54034.1 2054.91  36
   2  -5  -2 53775.7 2195.93  59
  -2  -5   2 51621.5 2065.76   2
  -2  -5   2 56436.7 2242.96  25
   2  -5  -2 51856.1 1815.54  21
  -2  -5   1 24607.2 1263.40  42
   2  -5  -1 25094.2 1362.90  68
  -2  -5   1 24470.2 1318.61  69
  -2  -5   1 25004.8 1229.76  36
   2  -5  -1 24344.4 1271.38  27
  -2  -5   1 27585.2 1310.33  31
   2  -5  -1 24629.7 1365.23  59
  -2  -5   1 26211.9 1338.97   2
  -2  -5   1 23319.1 1345.75  25
   2  -5  -1 24180.1 1340.30  15
   2  -5  -1 23571.1 1148.33  21
   2  -5   0 30417.1 1547.16  59
  -2  -5   0 30817.6 1435.86  31
  -2  -5   0 33744.2 1409.16  36
   2  -5   0 32295.6 1547.85  27
  -2  -5   0 30356.4 1520.81  69
   2  -5   0 32061.8 1588.88  68
   2  -5   0 35745.0 1632.53  15
  -2  -5   0 33165.7 1564.55  20
   2  -5   0 33826.5 1459.45  21
  -2  -5   0 31480.9 1596.23  25
   2  -5   1 23129.2 1190.10  43
   2  -5   1 22423.1 1218.38  39
   2  -5   1 22916.4 1317.95  68
  -2  -5  -1 20460.7 1221.78  69
  -2  -5  -1 20043.5 1129.83  67
   2  -5   1 20601.8 1067.49  34
   2  -5   1 22037.2 1289.81  27
  -2  -5  -1 24439.0 1115.37  36
  -2  -5  -1 23126.3 1312.05  66
   2  -5   1 22845.6 1301.81  59
   2  -5   1 21491.3 1231.21  15
  -2  -5  -1 20732.5 1227.57  20
   2  -5   1 21048.5 1173.63  21
  -2  -5  -1 22591.6 1226.62   2
  -2  -5  -1 21859.1 1210.70   6
  -2  -5  -2 4559.05 533.298   6
  -2  -5  -2 6221.13 609.871   2
   2  -5   2 5069.16 586.687  39
   2  -5   2 5740.32 597.514  43
  -2  -5  -2 4294.08 554.457  69
  -2  -5  -2 5770.55 594.537  67
   2  -5   2 5853.17 571.316  34
   2  -5   2 5625.58 651.099  27
  -2  -5  -2 5334.13 625.166  66
  -2  -5  -2 5282.42 546.478  51
   2  -5   2 6164.17 624.468  15
   2  -5   2 4524.58 552.037  21
  -2  -5  -2 5681.82 623.952  20
  -2  -5  -3 44035.9 1841.37   6
  -2  -5  -3 44284.7 1840.30   2
   2  -5   3 46275.2 1970.30  43
  -2  -5  -3 45207.3 2002.45  69
   2  -5   3 50711.7 1802.64  35
   2  -5   3 49037.9 1961.12  34
  -2  -5  -3 47367.8 1915.86  60
  -2  -5  -3 45742.7 2023.17  66
  -2  -5  -3 42732.8 1769.98  51
  -2  -5  -3 45521.9 2008.22  20
   2  -5   3 47778.4 1944.26  15
   2  -5   3 49811.5 2084.25  21
  -2  -5  -4 17553.7 1033.14   6
  -2  -5  -4 18524.8 1067.48   2
   2  -5   4 18533.0 1209.57  39
   2  -5   4 17725.6 1179.11  43
  -2  -5  -4 17898.4 1121.41  71
  -2  -5  -4 17921.9 1191.47  69
   2  -5   4 20407.0 1342.46  68
   2  -5   4 18771.6 1184.13  34
   2  -5   4 17644.6 1043.54  35
   2  -5   4 15992.3 1154.86  62
  -2  -5  -4 18084.7 1204.36  66
  -2  -5  -4 18026.7 1036.70  51
   2  -5   4 18530.0 1097.21  15
   2  -5   4 17310.8 1221.30  21
   2  -5   5 69057.4 2751.42  39
  -2  -5  -5 73652.7 2810.85  69
  -2  -5  -5 72973.9 2782.05  66
  -2  -5  -5 75273.2 2725.14  71
   2  -5   5 73298.6 2596.82  35
   2  -5   5 74468.7 3036.35  27
   2  -5   5 73700.4 2774.56  34
   2  -5   5 73889.8 2827.62  62
  -2  -5  -5 72797.6 2397.83   6
   2  -5   5 77478.2 2994.76  21
  -2  -5  -6 66178.0 2655.51  69
  -2  -5  -6 70120.0 2645.73  66
  -2  -5  -6 61458.6 2508.58  71
   2  -5   6 60939.5 2537.20  34
   2  -5   6 66975.3 2903.99  27
   2  -5   6 63274.3 2442.76  35
   2  -5   6 67649.0 2666.26  62
   2  -5   6 66888.1 2632.30  39
   2  -5   6 64533.1 2604.05  43
   2  -5   6 67540.3 2863.02  21
  -2  -5  -7 62544.4 2502.72  66
  -2  -5  -7 61517.6 2505.22  71
   2  -5   7 60232.5 2514.40  34
   2  -5   7 61636.1 2811.75  27
   2  -5   7 64359.2 2459.60  35
   2  -5   7 60261.8 2488.86  62
   2  -5   7 66316.4 2554.17  39
   2  -5   7 65972.8 2593.14  43
   2  -5   7 68451.5 2875.96  21
  -2  -5  -8 1401.51 323.237  66
   2  -5   8 1434.38 334.057  62
  -2  -5  -8 1946.79 398.936  71
   2  -5   8 1108.58 299.794  43
   2  -5   8 1980.63 346.786  38
   2  -5   8 927.277 261.730  35
  -2  -5  -9 5347.74 606.110  70
  -2  -5  -9 5429.28 586.744  66
  -2  -5  -9 3933.68 525.679  71
   2  -5   9 4718.76 521.827  38
   2  -5   9 4937.04 583.428  34
   2  -5   9 4095.15 514.109  35
  -2  -5 -10 10229.9 767.350  70
   2  -5  10 9611.14 788.426  68
   2  -5  10 10261.9 703.676  38
   2  -5  10 11322.7 782.118  35
   2  -5  10 10504.6 781.844  34
  -2  -5 -11 994.034 214.864  70
   2  -5  11 1302.10 240.791  68
   2  -4 -14 3668.22 308.641  52
  -2  -4  13 2415.77 316.025  43
   2  -4 -13 2334.90 325.685  52
  -2  -4  12 31959.6 1425.45  39
   2  -4 -12 37065.6 1604.24  52
   2  -4 -11 4085.92 543.972  52
   2  -4 -11 3593.13 460.428  55
   2  -4 -11 4819.78 560.968  71
   2  -4 -10 48283.6 1933.33  70
   2  -4 -10 50377.5 2115.79  71
  -2  -4  10 51341.6 2031.57  36
   2  -4 -10 52833.8 2232.00  60
   2  -4 -10 54312.5 2097.36  64
   2  -4 -10 50906.6 2025.64  55
  -2  -4  10 50135.2 2393.14  24
   2  -4 -10 49841.4 2220.40  22
  -2  -4  10 50329.2 2226.14  17
   2  -4  -9 49841.4 2151.20  71
   2  -4  -9 52854.8 2284.85  60
   2  -4  -9 53708.9 2112.67  64
  -2  -4   9 52312.3 2279.75  17
  -2  -4   9 56072.5 2459.02  24
   2  -4  -9 49457.7 2231.39  22
   2  -4  -9 50808.0 2032.37  55
   2  -4  -9 55758.3 2327.87  53
  -2  -4   9 49915.2 1925.95  31
  -2  -4   8 158205. 4491.96  31
   2  -4  -8 158972. 4835.62  22
  -2  -4   8 167465. 4869.46  21
  -2  -4   8 162168. 4894.02  17
   2  -4  -8 163288. 4866.04  60
   2  -4  -8 160711. 4575.74  64
   2  -4  -8 155935. 4803.66  53
  -2  -4   8 174154. 4999.71  13
  -2  -4   7 77894.4 2448.86  42
  -2  -4   7 73028.5 2544.41  31
   2  -4  -7 76912.2 2589.36  64
   2  -4  -7 75756.2 2752.01  59
   2  -4  -7 73628.8 2776.40  60
   2  -4  -7 75973.7 2770.74  53
  -2  -4   7 75288.0 2660.84  25
   2  -4  -7 71838.4 2718.87  22
  -2  -4   7 77605.8 2797.32  21
   2  -4  -6 43821.2 1835.36  67
  -2  -4   6 42873.8 1663.36  42
   2  -4  -6 40785.5 1837.90  59
   2  -4  -6 39067.1 1668.47  64
   2  -4  -6 41826.7 1678.22  15
  -2  -4   6 47253.8 1899.40  25
  -2  -4   6 42062.8 1882.80  21
  -2  -4   6 43003.4 1642.59   6
  -2  -4   6 46244.3 1681.18   2
  -2  -4   5 44366.7 1719.02   2
   2  -4  -5 43278.9 1812.34  67
   2  -4  -5 43640.9 1866.42  59
   2  -4  -5 43617.9 1840.89  53
  -2  -4   5 46822.6 1883.34  25
  -2  -4   5 45966.9 1884.53  21
   2  -4  -5 49579.3 1826.80  15
  -2  -4   5 45667.4 1731.12  42
  -2  -4   5 45373.0 1617.29  46
  -2  -4   4 35200.6 1373.57  46
  -2  -4   4 35567.0 1455.49  42
   2  -4  -4 33550.0 1253.72  25
  -2  -4   4 33306.2 1537.96  25
   2  -4  -4 37205.5 1541.70  15
  -2  -4   4 35359.2 1567.59  21
  -2  -4   4 33579.0 1442.77   2
  -2  -4   3 38633.1 1520.38  42
  -2  -4   3 38492.5 1459.84  46
  -2  -4   3 38297.3 1547.54   2
  -2  -4   3 38903.7 1629.79  25
   2  -4  -3 35679.0 1563.92  15
  -2  -4   3 34788.6 1557.26  21
  -2  -4   2 10360.8 696.811  42
  -2  -4   2 9513.66 648.919  46
  -2  -4   2 9777.72 705.396   2
  -2  -4   2 9106.15 714.623  25
  -2  -4   2 10313.6 739.974  21
   2  -4  -2 9332.81 556.564  21
   2  -4  -2 9153.64 628.850  27
  -2  -4   1 87579.1 2617.15  42
  -2  -4   1 84880.1 2589.40  46
  -2  -4   1 91759.6 2718.57   2
  -2  -4   1 87145.0 2768.22  25
   2  -4  -1 90264.0 2495.76  21
   2  -4  -1 81046.1 2598.59  27
  -2  -4   1 81264.8 2573.68  31
   2  -4   0 8381.21 605.170  43
   2  -4   0 9343.39 661.309  39
  -2  -4   0 7381.24 584.924  46
  -2  -4   0 7618.62 647.015  25
   2  -4   0 8433.28 662.016  15
   2  -4   0 8616.98 599.280  21
  -2  -4   0 9190.62 628.076  31
   2  -4   0 6715.25 503.340  34
   2  -4   0 8126.29 639.381  27
  -2  -4  -1 168676. 4468.77  42
   2  -4   1 179339. 4630.85  39
   2  -4   1 174819. 4570.14  43
  -2  -4  -1 182667. 4608.79   2
   2  -4   1 175106. 4620.45  15
  -2  -4  -1 170158. 4620.95  20
   2  -4   1 175977. 4537.89  21
   2  -4   1 170410. 4252.15  35
  -2  -4  -1 168096. 4415.07  31
   2  -4   1 167388. 4653.41  27
  -2  -4  -1 167408. 4287.10  36
   2  -4   1 172020. 4444.74  34
   2  -4   2 38474.5 1627.31  43
  -2  -4  -2 41174.8 1506.86  31
   2  -4   2 42096.7 1509.31  35
   2  -4   2 40285.5 1738.73  27
  -2  -4  -2 39145.6 1587.71   2
  -2  -4  -2 38255.6 1677.72  20
   2  -4   2 44303.3 1670.41  15
   2  -4   3 40446.3 1752.86  39
   2  -4   3 41911.2 1761.89  43
  -2  -4  -3 42945.5 1778.91  69
   2  -4   3 43404.4 1837.41  62
  -2  -4  -3 42899.8 1816.51  66
  -2  -4  -3 45578.4 1844.06  20
   2  -4   3 40030.5 1384.74  24
   2  -4   3 42282.8 1664.09  15
  -2  -4  -3 41413.7 1637.28   2
  -2  -4  -4 48286.8 1748.89   2
  -2  -4  -4 50539.0 1781.76   6
   2  -4   4 50559.2 2006.86  39
  -2  -4  -4 45876.1 1872.91  71
  -2  -4  -4 47616.4 1960.13  69
   2  -4   4 44902.4 2108.87  27
  -2  -4  -4 46503.5 1975.79  66
   2  -4   4 49458.8 2057.69  62
  -2  -4  -4 45551.0 1799.27  51
   2  -4   4 45355.7 1631.87  24
   2  -4   4 46827.0 1761.79  15
  -2  -4  -4 45552.5 1611.86  22
  -2  -4  -5 16566.8 881.270   2
  -2  -4  -5 15535.8 861.112   6
   2  -4   5 16688.3 1109.43  39
   2  -4   5 15001.4 1062.42  43
  -2  -4  -5 15368.9 1070.47  69
  -2  -4  -5 16390.7 1067.29  71
  -2  -4  -5 15589.1 1077.50  66
   2  -4   5 17385.9 1231.69  27
   2  -4   5 16041.0 1133.22  62
  -2  -4  -5 14614.8 944.103  51
   2  -4   5 15472.5 915.586  24
   2  -4   6 21610.3 1297.48  39
   2  -4   6 24238.8 1396.01  43
  -2  -4  -6 23552.3 1379.72  66
  -2  -4  -6 23972.6 1401.11  69
  -2  -4  -6 22315.0 1336.33  71
   2  -4   6 22671.5 1518.61  27
   2  -4   6 23961.0 1447.85  62
  -2  -4  -6 22029.4 1218.85  55
  -2  -4  -6 21228.8 1176.83  51
   2  -4   6 22710.8 1223.98  24
   2  -4   7 26251.5 1450.03  39
   2  -4   7 30193.2 1582.42  43
  -2  -4  -7 25534.4 1484.65  66
  -2  -4  -7 24457.0 1464.90  71
   2  -4   7 29127.6 1776.84  27
   2  -4   7 30436.3 1645.33  62
  -2  -4  -7 25691.5 1382.79  55
  -2  -4  -7 25434.8 1310.55  51
   2  -4   7 25913.7 1390.09  24
  -2  -4  -8 12663.8 1031.59  66
  -2  -4  -8 13141.7 1049.46  71
   2  -4   8 14277.6 1062.15  35
   2  -4   8 13012.9 1187.55  27
   2  -4   8 13775.2 1079.69  34
   2  -4   8 13594.0 1064.89  62
  -2  -4  -8 13350.1 974.711  55
  -2  -4  -8 12338.9 858.803  51
   2  -4   8 13588.2 994.108  39
   2  -4   8 13389.9 1011.78  43
  -2  -4  -9 31250.1 1629.94  70
  -2  -4  -9 32304.2 1638.31  66
  -2  -4  -9 30877.9 1644.04  71
   2  -4   9 28359.1 1556.21  35
   2  -4   9 30590.1 1612.62  34
   2  -4   9 31285.1 1595.76  62
  -2  -4  -9 28749.4 1463.01  55
   2  -4   9 29496.0 1532.32  43
  -2  -4 -10 5931.90 638.763  70
   2  -4  10 4941.50 577.632  34
   2  -4  10 5268.37 560.085  62
  -2  -4 -10 4058.86 483.880  55
   2  -4  10 4889.41 574.856  38
   2  -4  11 27579.0 1294.78  34
   2  -4  11 26839.0 1278.19  38
  -2  -4 -11 28971.3 1360.03  70
   2  -4  12 12029.4 724.477  68
  -2  -4 -12 11856.6 708.054  70
   2  -3 -14 25123.4 1080.06  52
  -2  -3  13 20155.1 1007.09  43
   2  -3 -13 20383.1 1124.19  55
   2  -3 -13 21728.4 1145.92  52
   2  -3 -12 27368.3 1376.63  74
   2  -3 -12 28141.9 1457.85  52
   2  -3 -12 28514.0 1486.56  55
  -2  -3  12 25042.3 1241.84  39
   2  -3 -11 7722.48 667.508  70
   2  -3 -11 7187.43 722.153  74
   2  -3 -11 8574.11 752.810  71
  -2  -3  11 8036.71 829.440  13
   2  -3 -11 7756.96 784.024  52
   2  -3 -11 7037.81 753.390  55
   2  -3 -11 6853.91 749.505  22
  -2  -3  11 10500.6 1008.22  24
   2  -3 -10 6534.85 703.380  74
   2  -3 -10 7026.77 654.081  70
   2  -3 -10 6902.71 691.955  71
  -2  -3  10 5432.10 688.991  13
   2  -3 -10 6141.87 675.437  64
   2  -3 -10 7526.97 743.161  60
   2  -3 -10 5914.24 686.838  55
  -2  -3  10 8080.30 874.814  24
   2  -3 -10 7082.71 764.410  22
  -2  -3  10 5355.81 635.571  17
   2  -3  -9 18389.4 1097.21  78
   2  -3  -9 17013.9 1039.84  70
   2  -3  -9 17240.6 1155.63  74
   2  -3  -9 19787.3 1184.24  71
  -2  -3   9 20003.8 1302.64  13
   2  -3  -9 16962.6 1119.94  64
   2  -3  -9 17517.1 1162.50  60
   2  -3  -9 20283.4 1276.60  53
   2  -3  -9 18187.2 1187.61  55
  -2  -3   9 19390.3 1338.53  24
   2  -3  -9 20108.8 1268.58  22
  -2  -3   9 20054.8 1249.88  17
   2  -3  -8 19818.4 1157.81  78
   2  -3  -8 20261.5 1206.46  74
   2  -3  -8 20413.2 1185.10  64
   2  -3  -8 20413.9 1229.51  60
   2  -3  -8 22573.3 1263.82  55
   2  -3  -8 20818.1 1199.93  54
   2  -3  -8 20515.6 1265.38  53
  -2  -3   8 19401.2 1296.29  24
   2  -3  -8 22555.6 1307.68  22
  -2  -3   8 22355.7 1250.57  21
   2  -3  -7 4103.51 504.859  78
   2  -3  -7 4717.16 531.495  74
   2  -3  -7 4562.12 524.009  64
   2  -3  -7 4257.99 503.303  54
  -2  -3   7 5231.36 601.074  24
   2  -3  -7 4936.45 564.648  22
   2  -3  -7 5053.22 433.446  15
  -2  -3   7 5080.67 558.133  21
  -2  -3   7 5232.54 480.934   8
  -2  -3   6 749.307 224.301  24
  -2  -3   6 857.482 207.617  25
   2  -3  -6 1121.68 214.429  15
  -2  -3   6 955.951 235.446  21
  -2  -3   6 1325.86 246.755   8
  -2  -3   6 962.098 192.765   2
  -2  -3   5 38200.1 1345.16  46
  -2  -3   5 39175.7 1500.75  25
  -2  -3   5 37615.1 1579.54  24
  -2  -3   5 38098.0 1513.33  21
   2  -3  -5 37850.0 1453.63  15
  -2  -3   5 36465.6 1423.95   8
  -2  -3   5 36500.6 1384.60   2
  -2  -3   4 31836.7 1184.24  46
   2  -3  -4 29748.0 990.124  25
  -2  -3   4 32647.7 1308.70  25
  -2  -3   4 28682.4 1279.18  24
   2  -3  -4 30253.1 1298.74  22
   2  -3  -4 30443.8 1268.70  15
  -2  -3   4 30660.3 1285.20  21
  -2  -3   4 30123.0 1236.58   8
  -2  -3   3 70251.8 2073.55  46
  -2  -3   3 68525.8 2117.99   8
  -2  -3   3 70833.1 2198.65  25
  -2  -3   3 67490.2 2174.73  24
   2  -3  -3 71532.0 2219.71  15
  -2  -3   3 68928.7 2169.79  21
  -2  -3   2 59376.6 1804.57  46
  -2  -3   2 58757.7 1844.58   8
  -2  -3   2 57911.3 1547.82  16
  -2  -3   2 55393.9 1884.61  25
  -2  -3   2 55060.6 1857.40  21
   2  -3  -2 57475.0 1577.93  21
  -2  -3   2 56671.8 1726.01  29
   2  -3  -2 54498.1 1712.01  27
  -2  -3   1 13425.1 704.536  46
  -2  -3   1 12950.4 759.319  25
  -2  -3   1 13129.7 595.932  16
   2  -3  -1 14043.2 787.351  15
   2  -3  -1 13028.5 620.965  21
  -2  -3   1 13370.7 683.466  29
   2  -3  -1 12585.6 680.399  27
   2  -3   0 5132.44 437.026  43
   2  -3   0 5849.96 472.709  39
  -2  -3   0 5088.98 421.276  42
  -2  -3   0 5679.71 446.508  46
  -2  -3   0 5071.59 462.947  25
  -2  -3   0 5775.21 403.297  16
   2  -3   0 5938.33 481.460  15
  -2  -3   0 5555.27 435.333  29
   2  -3   0 5203.87 448.919  27
  -2  -3  -1 161423. 4153.18  42
  -2  -3  -1 166052. 4224.01  46
   2  -3   1 175090. 4323.92  43
   2  -3   1 160370. 3765.30  24
  -2  -3  -1 172595. 4188.95  16
   2  -3   1 180255. 4325.62  15
   2  -3   1 173396. 4353.49  27
   2  -3   1 171526. 4259.09  34
  -2  -3  -1 162874. 4105.54  31
   2  -3   2 38603.9 1502.14  39
  -2  -3  -2 35997.8 1317.81  42
  -2  -3  -2 37866.8 1386.39  46
  -2  -3  -2 36719.6 1381.50  16
   2  -3   2 37524.9 1413.24  15
  -2  -3  -2 37393.8 1269.93  31
   2  -3   3 7559.57 624.216  39
   2  -3   3 8171.73 650.488  43
  -2  -3  -3 8248.24 563.415   2
  -2  -3  -3 8202.33 483.006  22
   2  -3   3 7949.15 573.240  15
   2  -3   4 3647.36 451.556  39
   2  -3   4 4336.97 497.138  43
  -2  -3  -4 4064.72 392.249  30
   2  -3   4 3868.26 505.115  27
  -2  -3  -4 3818.68 379.633   2
   2  -3   4 4294.44 407.877  15
  -2  -3  -4 4043.29 350.155  22
  -2  -3  -5 56848.6 1948.36  30
   2  -3   5 63152.5 2443.54  27
  -2  -3  -5 59669.2 2217.72  69
  -2  -3  -5 57314.7 2227.19  66
  -2  -3  -5 59038.9 2204.16  71
   2  -3   5 57913.4 2173.70  39
   2  -3   5 57275.3 2197.81  43
  -2  -3  -5 59117.5 1826.47   2
  -2  -3  -6 24877.7 1400.17  66
  -2  -3  -6 26737.8 1431.56  71
  -2  -3  -6 24682.8 1289.34  51
   2  -3   6 25477.9 1345.66  39
   2  -3   6 25557.7 1380.14  43
  -2  -3  -6 27640.2 1270.68  30
   2  -3   6 28405.9 1610.49  27
  -2  -3  -7 36911.6 1795.83  66
  -2  -3  -7 34626.1 1752.31  71
  -2  -3  -7 34209.9 1706.25  55
  -2  -3  -7 35042.6 1625.87  51
   2  -3   7 36968.3 1665.44  39
   2  -3   7 35625.1 1691.73  43
   2  -3   7 31889.5 1688.41  34
  -2  -3  -7 37483.7 1603.05  30
   2  -3   7 36479.3 1968.92  27
  -2  -3  -8 12607.0 1029.37  70
  -2  -3  -8 15839.3 1150.60  71
  -2  -3  -8 13767.8 1072.13  66
  -2  -3  -8 13530.5 1049.61  55
  -2  -3  -8 13162.6 952.101  51
   2  -3   8 13217.9 929.739  39
   2  -3   8 13390.2 998.915  43
   2  -3   8 13959.9 1064.57  34
  -2  -3  -8 14324.4 970.963  30
   2  -3   8 12941.2 1160.94  27
  -2  -3  -9 42554.6 1990.11  70
  -2  -3  -9 42518.7 2014.88  66
   2  -3   9 37144.6 1844.13  34
   2  -3   9 42040.4 1949.77  35
  -2  -3  -9 39971.1 1759.38  30
   2  -3   9 39273.1 2078.57  27
  -2  -3  -9 39260.2 1911.60  55
  -2  -3  -9 37951.0 1724.88  51
   2  -3   9 38252.5 1749.12  43
   2  -3  10 30629.2 1583.96  62
   2  -3  10 31334.3 1616.82  35
   2  -3  10 31139.1 1572.99  34
  -2  -3 -10 29154.4 1446.39  30
  -2  -3 -10 32762.9 1665.91  55
  -2  -3 -10 33396.7 1699.50  70
   2  -3  11 13031.2 876.368  62
   2  -3  11 12557.1 876.800  34
  -2  -3 -11 12920.3 843.348  30
   2  -3  11 11724.1 880.908  35
  -2  -3 -11 12950.6 948.090  70
  -2  -3 -11 14262.1 962.850  55
   2  -3  12 9008.90 668.799  35
  -2  -3 -12 9494.17 619.570  30
  -2  -3 -12 9323.33 682.039  55
  -2  -3 -12 10469.7 747.187  70
  -2  -3 -13 2426.86 244.252  55
   2  -2 -14 16346.4 908.054  52
   2  -2 -14 16974.2 990.947  55
   2  -2 -14 15069.0 873.468  74
   2  -2 -13 2054.43 401.691  55
   2  -2 -13 2275.20 383.104  52
   2  -2 -13 2208.97 390.074  74
   2  -2 -12 48798.6 2096.64  52
   2  -2 -12 49141.1 2219.19  55
   2  -2 -12 47171.0 1962.67  81
   2  -2 -12 47840.6 2121.92  74
  -2  -2  11 18038.7 1234.79  13
   2  -2 -11 17098.7 1123.52  81
   2  -2 -11 16468.8 1201.64  74
   2  -2 -11 17257.7 1256.56  55
   2  -2 -11 16710.8 1178.53  52
  -2  -2  11 18433.3 1372.91  24
   2  -2 -11 17058.5 1201.04  22
  -2  -2  10 123303. 4011.45  13
   2  -2 -10 127769. 3887.23  81
   2  -2 -10 118530. 3673.97  78
   2  -2 -10 122133. 4065.18  74
   2  -2 -10 127095. 3791.79  71
   2  -2 -10 129235. 4028.68  30
   2  -2 -10 130493. 3848.38  60
   2  -2 -10 134205. 4049.46  64
   2  -2 -10 127481. 4150.27  55
   2  -2 -10 119512. 3945.68  52
  -2  -2  10 131952. 4310.70  24
  -2  -2  10 128135. 3824.85  17
   2  -2 -10 125869. 4024.98  22
   2  -2  -9 13960.2 948.826  78
   2  -2  -9 14065.3 1053.98  74
   2  -2  -9 15277.8 975.231  71
   2  -2  -9 14221.6 1004.65  30
   2  -2  -9 14018.4 962.233  60
   2  -2  -9 13356.7 985.226  64
   2  -2  -9 14294.4 1071.96  55
   2  -2  -9 15543.2 1058.16  54
   2  -2  -9 14422.8 1041.11  22
  -2  -2   9 15634.4 1006.88  17
  -2  -2   8 59019.2 1900.10   8
   2  -2  -8 56901.0 2121.91  78
   2  -2  -8 56318.2 2240.78  74
   2  -2  -8 54691.8 2158.50  64
   2  -2  -8 57800.2 2129.53  60
   2  -2  -8 61686.3 2209.96  30
   2  -2  -8 54617.2 2222.60  55
   2  -2  -8 56150.5 2169.90  54
   2  -2  -8 56080.4 2228.29  53
   2  -2  -8 57188.0 2229.02  22
  -2  -2   8 56884.9 2037.65  21
  -2  -2   7 126319. 3408.48  21
  -2  -2   7 117625. 3252.01   8
   2  -2  -7 114661. 3451.95  30
  -2  -2   6 198953. 4811.53  25
  -2  -2   6 204583. 5203.80  24
   2  -2  -6 199834. 4822.47  15
  -2  -2   6 196458. 4970.10  21
  -2  -2   6 208203. 4969.83   8
   2  -2  -6 191045. 5041.60  30
  -2  -2   5 168492. 4152.45  25
  -2  -2   5 176168. 4418.06  24
   2  -2  -5 179027. 4251.73  15
  -2  -2   5 173069. 4259.70  21
  -2  -2   5 165947. 4249.27   8
  -2  -2   4 7239.40 460.289  25
   2  -2  -4 6334.01 464.546  15
  -2  -2   4 5759.64 471.078  24
   2  -2  -4 5824.93 464.580  22
  -2  -2   4 6755.05 458.945  21
  -2  -2   4 5839.20 448.094   8
  -2  -2   3 136671. 3594.49  24
  -2  -2   3 142358. 3537.55  25
  -2  -2   3 146169. 3269.96  16
  -2  -2   3 138613. 3517.26  21
   2  -2  -3 148449. 3619.07  15
  -2  -2   3 145842. 3568.83   8
   2  -2  -3 133278. 3226.01  27
  -2  -2   2 106892. 2443.94  16
  -2  -2   2 99266.4 2638.06  25
  -2  -2   2 100331. 2618.06  21
   2  -2  -2 94527.9 2276.53  21
  -2  -2   2 93415.4 2603.61   1
  -2  -2   2 103246. 2633.27   8
   2  -2  -2 99022.5 2451.58  27
  -2  -2   1 167886. 4171.61  25
  -2  -2   1 171020. 3981.16  16
   2  -2  -1 166725. 4188.47  15
  -2  -2   1 171985. 4147.63   1
   2  -2  -1 171884. 4040.67  27
  -2  -2   0 75111.8 2035.30  16
   2  -2   0 75088.5 2147.05  15
  -2  -2   0 75939.5 2068.64   8
  -2  -2  -1 27612.5 1098.48  20
  -2  -2  -1 27861.2 1035.92  16
   2  -2   1 26961.0 1052.52  15
  -2  -2  -1 30617.5 1020.08   8
  -2  -2  -1 28070.9 1048.38   1
   2  -2   2 5882.86 470.306  39
   2  -2   2 4913.84 434.631  43
  -2  -2  -2 5430.66 416.252  16
   2  -2   2 4852.70 389.929  15
  -2  -2  -2 6688.86 502.326  20
   2  -2   2 5497.62 466.906  34
  -2  -2  -2 5558.24 421.448  29
  -2  -2  -3 17886.5 798.901  46
   2  -2   3 19880.2 941.274  39
   2  -2   3 18276.5 931.940  43
  -2  -2  -3 17028.7 919.063  20
  -2  -2  -3 20087.4 912.019  16
   2  -2   3 18887.7 825.578  15
  -2  -2  -3 18366.6 678.456  22
   2  -2   4 205113. 5108.91  39
   2  -2   4 207628. 5163.19  43
   2  -2   4 204001. 4822.69  15
  -2  -2  -4 199433. 5084.21  16
  -2  -2  -4 194256. 4653.79  22
  -2  -2  -5 1684.72 273.820  30
   2  -2   5 1562.92 273.959  39
   2  -2   5 1369.19 270.118  43
  -2  -2  -5 1532.21 196.917   2
  -2  -2  -6 24255.1 1186.87  30
   2  -2   6 20836.3 1209.78  34
  -2  -2  -6 24867.7 1322.92  71
  -2  -2  -6 21786.1 1200.14  51
   2  -2   6 22037.1 1130.58  39
   2  -2   6 22003.5 1187.76  43
  -2  -2  -7 21022.8 1182.92  30
   2  -2   7 23520.8 1318.16  34
  -2  -2  -7 23565.8 1339.04  70
  -2  -2  -7 22195.5 1338.77  71
  -2  -2  -7 20483.4 1219.48  51
   2  -2   7 22553.5 1147.25  39
   2  -2   7 21689.1 1196.81  43
   2  -2   8 8446.98 793.481  34
  -2  -2  -8 10575.5 842.761  30
  -2  -2  -8 8737.89 844.730  70
  -2  -2  -8 8484.07 846.185  66
  -2  -2  -8 9910.25 842.365  51
  -2  -2  -8 9729.22 900.030  55
   2  -2   8 7922.21 711.253  43
   2  -2   9 55007.7 2147.94  82
  -2  -2  -9 54134.5 2319.61  70
  -2  -2  -9 52473.8 2327.18  66
  -2  -2  -9 52452.5 2186.57  51
  -2  -2  -9 49672.8 2292.28  55
   2  -2   9 48379.6 1969.02  43
   2  -2   9 52758.8 2420.68  27
   2  -2   9 51032.3 2173.74  34
  -2  -2  -9 54157.8 2196.10  30
   2  -2   9 49109.1 2188.16  35
  -2  -2 -10 21354.0 1266.38  51
  -2  -2 -10 19464.2 1331.66  55
  -2  -2 -10 22050.1 1384.94  70
   2  -2  10 22098.6 1280.15  34
  -2  -2 -10 19635.4 1230.27  30
   2  -2  10 20250.6 1282.98  35
  -2  -2 -11 43558.0 1969.06  70
   2  -2  11 42168.2 1754.43  34
  -2  -2 -11 42918.8 1836.13  30
   2  -2  11 41961.4 1851.51  35
  -2  -2 -11 42420.2 1967.30  55
   2  -2  11 42930.7 1890.64  38
  -2  -2 -12 21560.6 1109.22  30
   2  -2  12 22861.1 1145.63  35
   2  -2  12 21801.9 1104.15  62
  -2  -2 -12 20450.4 1180.82  55
   2  -2  12 19272.0 1096.80  38
  -2  -2 -13 26281.2 1138.73  55
   2  -1 -15 5415.06 448.371  74
   2  -1 -14 17173.9 1036.40  74
   2  -1 -14 16082.0 945.435  81
   2  -1 -13 47582.7 1812.47  81
   2  -1 -13 49291.6 1953.77  74
   2  -1 -13 50614.8 1858.46  52
   2  -1 -12 67151.2 2603.21  81
   2  -1 -12 64376.4 2544.95  52
   2  -1 -12 61237.8 2623.37  74
   2  -1 -11 15194.9 990.329  78
   2  -1 -11 16282.7 1174.63  81
   2  -1 -11 17547.8 1195.48  30
  -2  -1  11 14874.8 1073.10  13
   2  -1 -11 16716.2 1176.89  52
   2  -1 -11 15723.8 1146.45  22
   2  -1 -10 62447.9 2571.56  84
   2  -1 -10 66718.1 2366.89  78
   2  -1 -10 61818.7 2455.28  30
  -2  -1  10 62393.1 2439.14  13
   2  -1 -10 62108.9 2463.30  64
   2  -1 -10 60502.2 2595.56  55
   2  -1 -10 61195.4 2472.75  52
   2  -1 -10 58370.6 2439.01  22
   2  -1  -9 16192.8 1075.66  80
   2  -1  -9 19000.1 1115.91  78
   2  -1  -9 18676.3 1231.80  84
   2  -1  -9 20639.6 1212.25  30
   2  -1  -9 17387.1 1134.30  64
   2  -1  -9 19353.6 1187.21  52
   2  -1  -9 18878.3 1158.72  54
   2  -1  -9 16540.2 1186.14  55
   2  -1  -9 17923.3 1148.54  22
  -2  -1   9 18822.2 1028.05  17
   2  -1  -8 11969.7 924.120  84
   2  -1  -8 12192.4 863.867  30
   2  -1  -8 12547.5 896.064  22
   2  -1  -8 11998.2 865.737  64
   2  -1  -8 11847.9 934.069  55
   2  -1  -8 11633.8 851.499  54
  -2  -1   8 12404.9 719.242   8
  -2  -1   7 11803.1 645.972  21
  -2  -1   7 10598.2 660.401   8
   2  -1  -7 11905.7 791.245  30
  -2  -1   6 35137.4 1196.80  21
  -2  -1   6 36130.6 1153.82   9
  -2  -1   6 36155.8 1318.68   8
   2  -1  -6 34196.5 1385.68  30
  -2  -1   5 67648.8 1723.87  25
   2  -1  -5 71823.0 2146.47  22
  -2  -1   5 68927.0 1887.78  21
  -2  -1   5 70269.6 1901.84   1
  -2  -1   5 70698.6 1856.83   9
   2  -1  -5 69855.4 2091.13  30
  -2  -1   4 147908. 3401.15  25
  -2  -1   4 146251. 3661.95  24
   2  -1  -4 142719. 3692.85  22
  -2  -1   4 149383. 3490.83  21
  -2  -1   4 147162. 3463.34   9
  -2  -1   4 147149. 3563.55   1
  -2  -1   3 6837.59 353.298  25
  -2  -1   3 7819.40 443.081  24
  -2  -1   3 6149.57 199.348  18
   2  -1  -3 8175.65 453.805  22
  -2  -1   3 7509.88 376.844  21
   2  -1  -3 7393.36 444.013  15
  -2  -1   3 7759.91 435.073   1
  -2  -1   3 7979.27 380.673   9
   2  -1  -3 5688.70 190.292  27
  -2  -1   2 133302. 3196.16  24
   2  -1  -2 132671. 3275.05  15
   2  -1  -2 130942. 3156.19  22
  -2  -1   2 123899. 3203.20   1
  -2  -1   2 140295. 3131.70   9
  -2  -1   2 128274. 3224.23   8
   2  -1  -1 8942.79 494.327  15
   2  -1  -1 8594.14 248.051  11
  -2  -1   1 9832.39 485.757   1
  -2  -1   0 126052. 3125.83  16
   2  -1   0 135696. 3231.24  15
  -2  -1   0 129374. 3101.05   8
  -2  -1  -1 201220. 4082.80  16
  -2  -1  -1 206241. 4165.73  20
   2  -1   1 199927. 4120.40  15
  -2  -1  -1 205699. 3954.75   8
  -2  -1  -1 200378. 4052.82   1
  -2  -1  -2 33160.6 1190.76  20
   2  -1   2 32643.6 1093.98  15
  -2  -1  -2 30815.9 774.036  22
  -2  -1  -2 31693.3 1123.95  16
  -2  -1  -2 35185.1 986.686   8
  -2  -1  -2 31623.0 1048.39   1
  -2  -1  -3 501233. 11051.1  22
   2  -1   3 517910. 11637.2  34
   2  -1   4 96889.6 2880.84  34
  -2  -1  -4 103701. 2834.37  16
  -2  -1  -4 100118. 2405.93  22
   2  -1   4 100362. 2747.98  39
   2  -1   4 99305.1 2810.77  43
   2  -1   5 43059.4 1680.18  34
   2  -1   5 41073.4 1496.17  39
   2  -1   5 43284.5 1588.44  43
  -2  -1  -6 13948.2 871.846  30
   2  -1   6 12824.0 869.044  34
   2  -1   6 14253.5 840.670  43
  -2  -1  -6 14764.8 975.603  66
  -2  -1  -7 106821. 3372.94  30
   2  -1   7 111390. 3422.26  34
   2  -1   7 108946. 3206.04  43
  -2  -1  -7 115067. 3447.47  76
  -2  -1  -7 110600. 3513.24  70
  -2  -1  -7 105117. 3542.34  66
  -2  -1  -7 111741. 3498.96  51
   2  -1   8 1912.55 375.958  35
   2  -1   8 1396.66 313.654  34
  -2  -1  -8 1622.18 337.722  30
  -2  -1  -8 1588.47 364.135  70
  -2  -1  -8 1211.57 295.346  76
  -2  -1  -8 1529.79 350.787  51
   2  -1   9 30008.1 1610.08  35
  -2  -1  -9 34788.3 1693.69  30
   2  -1   9 32100.9 1571.21  34
  -2  -1  -9 31648.1 1684.37  51
  -2  -1  -9 30703.0 1613.05  76
  -2  -1  -9 32264.8 1735.62  70
   2  -1  10 3360.16 511.612  35
  -2  -1 -10 4051.47 566.480  30
   2  -1  10 4069.83 511.400  34
  -2  -1 -10 4822.32 640.294  70
   2  -1  10 3288.92 536.474  11
   2  -1  10 3055.76 503.674  38
  -2  -1 -11 20092.3 1295.50  70
  -2  -1 -11 16468.7 1113.75  30
   2  -1  11 15676.4 1054.87  35
   2  -1  11 18181.7 1165.93  38
  -2  -1 -11 15353.3 1008.86  80
   2  -1  11 18855.0 1106.02  82
  -2  -1 -12 2818.81 413.383  30
   2  -1  12 3209.81 408.561  35
   2  -1  12 2973.76 367.189  82
   2  -1  12 3043.97 430.597  38
   2  -1  13 1514.12 235.598  62
  -2  -1 -13 1711.95 303.306  55
   2  -1  13 1799.14 276.128  38
  -2  -1 -14 13546.8 601.296  81
   2   0 -15 5717.40 479.963  81
   2   0 -15 6796.25 544.190  74
   2   0 -14 8181.72 744.865  74
   2   0 -14 9065.40 753.393  81
   2   0 -14 10299.4 730.438  79
   2   0 -14 10562.6 843.530  55
   2   0 -13 3269.64 510.038  81
   2   0 -13 3325.96 535.329  55
   2   0 -12 5069.50 646.021  84
   2   0 -12 3980.11 597.931  81
   2   0 -12 4220.81 497.116  78
   2   0 -12 3874.88 611.927  55
   2   0 -12 4581.08 604.633  52
   2   0 -11 78286.9 2988.29  80
   2   0 -11 79560.2 2769.05  78
   2   0 -11 79783.9 3092.95  81
   2   0 -11 77231.6 3020.25  84
   2   0 -11 81637.5 2986.91  52
   2   0 -11 78965.0 3155.88  55
   2   0 -11 82928.0 2983.68  30
   2   0 -10 103068. 3474.66  30
   2   0 -10 94388.3 3445.78  80
   2   0 -10 103877. 3361.83  78
   2   0 -10 106375. 3624.95  84
   2   0 -10 104332. 3482.29  64
   2   0 -10 110746. 3535.49  52
   2   0 -10 107875. 3742.23  55
  -2   0  10 106726. 3315.00  13
   2   0  -9 52699.8 2121.03  30
   2   0  -9 52351.7 2212.17  84
   2   0  -9 52583.2 2076.99  78
   2   0  -9 53433.5 2206.77  80
   2   0  -9 50783.0 2101.35  64
   2   0  -9 51430.0 2104.74  52
   2   0  -9 53244.9 2299.97  55
   2   0  -9 48722.4 2052.46  54
  -2   0   9 51650.0 1843.34  23
   2   0  -9 52954.9 2127.44  22
   2   0  -8 29485.6 1419.34  30
   2   0  -8 30107.4 1516.74  84
   2   0  -8 31130.7 1456.18  64
   2   0  -8 32484.1 1609.27  55
   2   0  -8 29013.4 1403.21  54
   2   0  -8 29162.3 1404.82  22
   2   0  -7 108175. 3187.72  30
   2   0  -6 387364. 8798.50  30
  -2   0   6 374372. 8320.35   1
   2   0  -5 118246. 2860.94  26
   2   0  -5 117980. 3113.55  30
   2   0  -5 122560. 3154.63  22
  -2   0   5 115799. 2674.99  21
   2   0  -4 79459.4 1997.80  26
   2   0  -4 80265.0 2118.41  22
   2   0  -3 407648. 9323.26  26
  -2   0   3 431239. 9161.97  18
   2   0  -3 405416. 9298.24  22
  -2   0   3 444210. 9263.32  24
  -2   0   2 92294.1 2276.78   9
  -2   0   2 89667.3 2160.37  24
  -2   0   2 89835.9 2095.87  18
   2   0  -2 89971.5 2181.90  22
   2   0  -2 88852.4 2298.26  26
  -2   0   1 110833. 2634.50   9
   2   0  -1 104384. 2350.00  19
   2   0  -1 108174. 2422.07  22
  -2   0   1 109972. 2458.84  18
   2   0   0 562470. 12129.2  11
   2   0   0 566090. 11999.2  10
  -2   0   0 561817. 12237.9   9
  -2   0   0 550883. 12169.9  20
   2   0   0 582484. 12295.6  26
   2   0   1 768506. 17173.7  11
   2   0   1 767319. 17059.8  10
  -2   0  -1 817697. 17036.9   8
  -2   0  -1 799272. 17210.7  20
   2   0   2 23483.2 832.534  26
  -2   0  -2 21880.0 641.964   8
  -2   0  -2 20599.5 826.700  16
  -2   0  -2 21929.9 705.653  14
   2   0   3 15069.7 646.113  26
  -2   0  -3 15323.4 603.645  14
  -2   0  -3 14937.9 704.613  16
   2   0   4 4971.65 451.581  35
   2   0   4 4719.26 429.635  34
  -2   0  -4 4522.71 330.408  14
  -2   0  -4 4770.75 301.955   1
  -2   0  -4 5879.94 439.881  16
   2   0   5 3351.05 383.410  34
   2   0   5 3197.31 388.710  35
  -2   0  -5 2934.62 298.596  14
  -2   0  -5 2817.19 212.175   1
  -2   0  -5 3229.60 353.822  16
   2   0   6 62173.6 2190.88  35
  -2   0  -6 63800.4 2176.10  30
   2   0   6 60568.9 2103.00  34
  -2   0  -7 342.664 182.719  66
  -2   0  -7 190.841 160.902  30
   2   0   7 188.219 141.938  35
   2   0   7 167.004 117.808  34
  -2   0  -7-55.0026 131.166  51
  -2   0  -7 211.298 159.341  70
   2   0   8 33664.3 1582.77  35
  -2   0  -8 30979.7 1559.82  30
   2   0   8 31149.8 1442.17  34
   2   0   8 28487.7 1573.90  11
  -2   0  -8 31922.9 1677.84  51
  -2   0  -8 30842.8 1667.28  55
  -2   0  -8 31384.0 1644.44  70
  -2   0  -8 31406.0 1642.10  76
  -2   0  -9 58882.6 2448.75  76
  -2   0  -9 54559.4 2430.57  70
   2   0   9 57051.4 2425.09  11
   2   0   9 55981.2 2249.79  35
   2   0   9 56776.2 2111.50  34
  -2   0  -9 56090.5 2435.57  51
  -2   0  -9 56358.7 2482.00  55
   2   0   9 61037.2 2415.74  38
  -2   0 -10 330.405 199.330  76
   2   0  10 267.862 161.602  35
   2   0  10-67.5821 124.845  11
   2   0  10 185.599 147.538  10
  -2   0 -10 142.425 151.897  55
   2   0  10 544.460 223.492  38
  -2   0 -11 34103.7 1685.37  80
  -2   0 -11 33952.5 1802.59  55
   2   0  11 33836.3 1650.28  38
   2   0  11 34219.0 1553.61  35
  -2   0 -12 178.295 142.618  80
   2   0  12 44.2729 81.8012  38
  -2   0 -12 165.026 143.708  55
   2   0  13 42686.8 1451.73  82
   2   0  13 45178.1 1671.90  48
  -2   0 -13 46173.8 1733.54  55
  -2   0 -14 4685.85 359.922  81
  -2   0 -14 4552.88 350.711  55
   2   1 -15 6727.47 541.340  74
   2   1 -15 5446.75 436.235  79
   2   1 -15 5709.84 490.451  81
   2   1 -14 18264.9 1109.20  81
   2   1 -14 17635.1 1108.42  74
   2   1 -14 18186.5 1100.95  55
   2   1 -13 43267.0 1935.08  84
   2   1 -13 43244.3 2034.45  81
   2   1 -13 45512.2 2104.61  74
   2   1 -13 41854.6 2010.42  55
   2   1 -12 63718.3 2683.32  55
   2   1 -12 59444.0 2268.22  78
   2   1 -12 62615.1 2570.33  84
  -2   1  11 8302.22 778.610  10
   2   1 -11 8487.17 839.733  52
   2   1 -11 11088.8 1027.68  55
   2   1 -11 8426.52 884.777  80
   2   1 -11 8930.69 893.106  84
   2   1 -11 7981.95 774.110  78
   2   1 -11 9098.61 845.545  30
   2   1 -10 61009.6 2597.23  84
   2   1 -10 64079.2 2671.92  80
   2   1 -10 64515.7 2487.55  78
   2   1 -10 66378.4 2515.53  30
   2   1 -10 61074.3 2659.86  55
   2   1 -10 68326.9 2592.17  52
  -2   1  10 63395.2 2314.29  23
   2   1  -9 22407.0 1259.93  30
   2   1  -9 20009.7 1229.78  52
   2   1  -9 21237.9 1213.28  54
   2   1  -9 21657.8 1370.90  55
   2   1  -9 20801.4 1261.68  78
   2   1  -9 22625.0 1371.95  84
   2   1  -9 21679.1 1368.93  80
   2   1  -9 21350.2 1242.15  64
   2   1  -8 10606.8 780.289  30
   2   1  -8 9991.24 774.438  64
   2   1  -8 9174.37 819.654  55
   2   1  -8 9248.77 782.759  78
  -2   1   7 17985.7 781.511  11
   2   1  -7 16553.6 934.986  30
   2   1  -6 25936.6 1165.52  22
  -2   1   6 26942.1 941.344  11
   2   1  -6 28274.2 1165.51  30
   2   1  -6 29044.2 940.759  26
   2   1  -5 71206.9 1924.23  26
   2   1  -5 73722.2 2133.55  22
  -2   1   5 70052.4 1778.01  11
   2   1  -4 157590. 3867.93  22
  -2   1   4 154590. 3442.36  11
   2   1  -3 8050.07 447.732  26
  -2   1   3 7310.29 414.424  18
   2   1  -2 157951. 3490.50  19
  -2   1   2 151403. 3526.96  18
   2   1  -2 155100. 3503.83  12
  -2   1   1 9966.51 454.718  18
   2   1  -1 9569.19 494.132  26
   2   1  -1 8813.35 435.618  12
   2   1   0 114238. 2919.76  26
  -2   1   0 117490. 2844.90  18
   2   1   0 116042. 2855.35  11
   2   1   0 120322. 2790.83  10
  -2   1   0 112867. 2854.37   9
   2   1   1 239595. 5528.74  26
   2   1   1 241690. 5581.27  11
   2   1   1 241339. 5486.29  10
  -2   1  -1 239560. 5487.28   9
   2   1   2 44598.4 1378.84  23
   2   1   2 39460.7 1295.47  26
  -2   1  -2 40798.6 1284.88  16
   2   1   2 45135.4 1457.25  11
   2   1   2 43649.2 1369.66  10
   2   1   3 514528. 12017.7  11
   2   1   3 521497. 11925.0  10
   2   1   3 520874. 12008.4  38
   2   1   3 547986. 11773.1  26
  -2   1  -3 543264. 11813.5  16
  -2   1  -3 552461. 11805.1  14
  -2   1  -3 521708. 11937.5  37
  -2   1  -3 561697. 11968.8  33
  -2   1  -4 108197. 2838.57  14
   2   1   4 106118. 2992.07  10
   2   1   4 103976. 3016.10  38
  -2   1  -4 111661. 2853.98  16
   2   1   4 107669. 2710.54  26
   2   1   4 104425. 2950.41  35
  -2   1  -4 107289. 2965.59  33
  -2   1  -5 36341.2 1353.49  14
   2   1   5 37510.8 1487.22  10
  -2   1  -5 34342.4 1058.50   3
   2   1   5 38766.3 1527.87  38
  -2   1  -5 37921.5 1328.44  16
   2   1   5 39284.3 1509.66  23
   2   1   5 36385.6 1433.68  35
   2   1   5 36062.1 1364.03  34
  -2   1  -6 15441.9 840.450  14
   2   1   6 13550.5 927.805  11
   2   1   6 15887.8 958.600  10
  -2   1  -6 15185.7 924.788  30
   2   1   6 16378.3 920.419  35
   2   1   6 15836.0 854.596  34
   2   1   6 15600.4 955.985  38
   2   1   6 14268.7 914.785  23
   2   1   7 107606. 3414.87  38
  -2   1  -7 111169. 3550.96  70
   2   1   7 109087. 3524.61  11
   2   1   7 104617. 3401.27  10
  -2   1  -7 118748. 3466.31  30
   2   1   7 109545. 3290.38  35
  -2   1  -7 115880. 3694.04  51
   2   1   7 104002. 3355.97  23
   2   1   8 1131.17 282.226  38
  -2   1  -8 906.916 285.640  76
   2   1   8 1041.55 292.982  11
   2   1   8 1310.98 328.040  10
   2   1   8 700.095 218.010  35
  -2   1  -8 918.602 277.187  30
  -2   1  -8 1326.99 344.277  55
   2   1   8 1267.36 306.092  23
  -2   1  -9 40175.0 2006.75  76
   2   1   9 37745.2 1903.44  11
   2   1   9 35620.7 1809.39  10
  -2   1  -9 39733.3 1858.57  30
   2   1   9 40153.6 1713.60  35
  -2   1  -9 40088.4 1996.81  55
   2   1   9 36584.1 1769.80  38
  -2   1 -10 3874.09 595.687  76
   2   1  10 2691.52 486.534  11
   2   1  10 3673.87 545.013  10
   2   1  10 3178.70 428.055  35
  -2   1 -10 4483.88 587.745  30
  -2   1 -10 2960.50 529.090  55
   2   1  10 3358.34 497.275  38
  -2   1 -11 16998.3 1195.85  76
  -2   1 -11 14632.6 1115.88  80
  -2   1 -11 18249.8 1229.74  55
   2   1  11 17666.6 1081.16  38
  -2   1 -11 16872.2 1110.16  30
  -2   1 -12 1441.96 319.579  80
  -2   1 -12 1178.40 300.779  55
   2   1  12 1731.14 290.971  38
   2   1  12 1273.00 287.570  48
  -2   1 -12 1553.82 311.914  30
  -2   1 -13 1942.93 287.446  80
   2   1  13 1866.62 268.614  82
  -2   1 -13 1841.79 292.075  55
  -2   1 -13 1907.81 277.327  30
   2   1  13 1771.15 291.891  48
  -2   1 -14 11160.8 541.622  81
   2   2 -15 7065.91 517.085  81
   2   2 -15 7561.61 510.966  79
   2   2 -15 7506.60 528.282  74
   2   2 -14 12895.6 889.470  81
   2   2 -14 12014.6 862.381  74
   2   2 -13 1688.39 361.499  55
   2   2 -13 1729.30 351.980  84
   2   2 -13 1194.82 316.140  81
   2   2 -12 48972.8 2244.82  55
   2   2 -12 52231.6 2398.43  81
   2   2 -12 48867.1 2047.69  78
   2   2 -12 53741.7 2303.69  84
   2   2 -11 19543.2 1345.75  55
  -2   2  11 17406.8 1132.54  23
   2   2 -11 18734.7 1387.44  81
   2   2 -11 17904.1 1304.51  84
   2   2 -11 18104.6 1224.33  78
   2   2 -10 124733. 4178.18  81
   2   2 -10 116544. 4101.65  80
   2   2 -10 116274. 3886.82  78
   2   2 -10 126042. 4081.50  55
   2   2 -10 118114. 3904.16  50
  -2   2  10 122538. 3737.39  10
   2   2  -9 15586.8 995.128  30
   2   2  -9 15003.5 1155.64  81
   2   2  -9 15522.1 1184.54  80
   2   2  -9 13865.0 1055.69  78
   2   2  -9 13814.3 1076.56  55
   2   2  -9 13967.6 1055.28  50
   2   2  -9 15046.2 1081.66  56
  -2   2   9 13719.8 940.472  10
   2   2  -8 58672.8 2070.02  30
   2   2  -8 55725.7 2315.70  81
   2   2  -8 60953.3 2435.19  80
  -2   2   8 52964.1 1993.95  10
   2   2  -8 53761.6 2220.54  50
   2   2  -8 58582.3 2275.79  55
   2   2  -8 54757.5 2016.57  54
  -2   2   7 137487. 3664.38  10
   2   2  -7 130986. 3647.25  30
  -2   2   6 191218. 4687.56  10
  -2   2   6 190494. 4525.04   3
   2   2  -6 192790. 4561.45  26
   2   2  -6 183487. 4682.26  30
  -2   2   5 191138. 4565.68  10
  -2   2   5 190784. 4569.17   3
   2   2  -5 191563. 4627.38  26
  -2   2   4 4698.21 313.619  10
   2   2  -4 4330.36 374.957  26
  -2   2   4 4709.00 409.029  18
  -2   2   3 137414. 3243.35  10
   2   2  -3 138923. 3557.68  26
   2   2  -3 147113. 3541.55  19
  -2   2   3 143071. 3586.47  18
   2   2  -2 100390. 2664.68  12
   2   2  -2 97303.9 2671.56  26
   2   2  -2 98834.8 2638.07  19
  -2   2   2 102342. 2670.53  18
   2   2  -2 103118. 2487.65  28
   2   2  -1 183619. 4332.85  12
  -2   2   1 182137. 4317.14  18
   2   2  -1 180815. 4363.82  26
   2   2  -1 170494. 4188.62  28
  -2   2   0 76130.5 2099.11   9
   2   2   0 77667.7 2158.44  10
   2   2   0 82448.5 2246.53  26
  -2   2   0 79033.3 2181.37  18
   2   2   0 80223.2 2174.90  28
   2   2   1 35918.4 1299.60  11
   2   2   1 34819.2 1248.53  10
  -2   2  -1 35887.0 1151.34   9
   2   2   1 35851.9 1162.14  23
   2   2   1 38196.0 1272.42  26
   2   2   1 35840.9 1257.03  28
   2   2   2 2386.66 324.925  48
   2   2   2 2361.65 294.417  10
   2   2   2 2208.57 259.067  26
   2   2   2 2281.82 264.841  23
  -2   2  -3 19414.4 915.229  37
   2   2   3 21580.9 988.693  28
   2   2   3 21696.9 1045.50  48
   2   2   3 19895.5 949.130  38
   2   2   3 22223.3 1022.22  10
  -2   2  -3 20642.1 861.910   3
   2   2   3 20347.8 870.993  26
   2   2   3 21735.3 949.641  23
  -2   2  -3 19697.7 797.765  16
   2   2   4 207061. 5438.92  28
  -2   2  -4 214990. 5403.76  33
   2   2   4 221360. 5433.05  38
   2   2   4 214003. 5516.11  10
  -2   2  -4 214856. 5144.76   3
  -2   2  -4 230812. 5368.80  14
   2   2   4 216501. 5166.77  26
   2   2   4 223273. 5436.58  23
  -2   2  -4 217377. 5114.29  16
   2   2   5 1831.74 273.974  35
  -2   2  -5 2753.01 368.796  33
   2   2   5 1544.71 285.687  28
   2   2   5 1426.03 267.958  38
  -2   2  -5 2273.47 258.028  16
   2   2   5 1461.64 278.651  23
   2   2   5 1611.91 316.592  11
  -2   2  -5 1517.11 195.783   3
   2   2   5 2093.02 339.789  10
  -2   2  -5 1591.06 267.785  14
  -2   2  -6 27294.2 1254.50  14
   2   2   6 27329.3 1382.60  10
   2   2   6 29516.2 1464.55  11
  -2   2  -6 26587.0 1352.87  83
  -2   2  -6 24192.6 1223.54  30
  -2   2  -6 27277.6 1318.21  33
  -2   2  -6 25548.4 1319.63  50
  -2   2  -6 26037.4 1453.65  51
   2   2   6 25252.5 1259.56  38
  -2   2  -7 21999.7 1165.33  14
   2   2   7 20481.3 1295.93  11
   2   2   7 21589.6 1296.85  10
  -2   2  -7 21721.9 1246.33  83
  -2   2  -7 22072.6 1210.34  30
  -2   2  -7 21801.9 1288.01  55
  -2   2  -7 22792.8 1264.66  50
   2   2   7 23712.7 1234.72  38
   2   2   8 6208.09 675.469  23
  -2   2  -8 5779.21 622.109  83
   2   2   8 5478.24 678.713  11
   2   2   8 7849.42 781.712  10
  -2   2  -8 7371.09 699.945  30
  -2   2  -8 5273.21 608.279  50
  -2   2  -8 5849.79 685.110  55
   2   2   8 6206.60 633.437  38
   2   2   9 44370.7 2018.15  23
  -2   2  -9 47218.3 1905.83  83
  -2   2  -9 44756.4 2175.72  76
  -2   2  -9 45837.6 1983.52  30
   2   2   9 43784.0 2113.97  11
   2   2   9 43049.0 2054.29  10
  -2   2  -9 45092.1 1877.45  50
  -2   2  -9 46476.3 2109.43  55
   2   2   9 43302.7 1866.72  38
  -2   2 -10 18246.0 1235.66  55
   2   2  10 17293.1 1057.08  38
   2   2  10 18058.3 1220.66  48
  -2   2 -10 17964.1 1147.43  30
   2   2  11 39976.4 1609.39  77
  -2   2 -11 40510.4 1845.88  55
   2   2  11 41048.8 1872.68  48
  -2   2 -11 44264.8 1815.11  30
  -2   2 -12 22299.8 1234.77  80
  -2   2 -12 21585.3 1131.98  55
   2   2  12 23471.1 1205.37  48
  -2   2 -12 19277.7 1033.46  30
  -2   2 -13 25530.8 1070.17  81
  -2   2 -13 24534.0 1087.22  80
   2   3 -14 20985.0 1087.01  79
   2   3 -14 23072.3 1132.28  81
   2   3 -14 22081.6 1073.40  74
   2   3 -13 24481.8 1291.95  84
   2   3 -13 23226.1 1347.75  81
   2   3 -13 25282.0 1341.02  74
   2   3 -12 30778.8 1699.75  81
   2   3 -12 29649.1 1608.73  84
   2   3 -12 28790.6 1481.55  78
   2   3 -11 9009.89 832.720  55
  -2   3  11 8866.13 891.727  18
   2   3 -11 8651.10 903.811  81
   2   3 -11 8818.02 920.543  80
   2   3 -11 8310.25 823.859  78
   2   3 -10 7332.15 781.389  56
   2   3 -10 6983.56 785.584  50
   2   3 -10 6413.97 709.278  55
  -2   3  10 5653.30 715.515  18
   2   3 -10 6526.59 759.765  78
   2   3 -10 7157.62 836.927  80
   2   3 -10 7850.44 865.966  81
  -2   3   9 13173.3 930.242  10
   2   3  -9 14813.8 1057.69  55
   2   3  -9 12595.0 1061.66  50
  -2   3   9 14840.7 1116.80  18
   2   3  -9 13639.2 1106.78  81
   2   3  -9 14928.1 1180.82  80
  -2   3   8 22516.5 1176.22  10
   2   3  -8 20531.5 1216.20  55
  -2   3   8 22919.9 1368.14  18
   2   3  -8 23261.1 1435.51  80
   2   3  -8 21417.5 1356.67  81
  -2   3   7 8492.13 637.828  10
   2   3  -7 7285.69 720.764  56
   2   3  -7 8076.05 772.082  80
   2   3  -7 6740.02 698.812  81
  -2   3   7 6784.23 680.274  18
  -2   3   6 909.418 195.804  10
  -2   3   6 829.234 173.406   3
   2   3  -6 762.788 176.118  26
  -2   3   6 941.673 251.682  18
  -2   3   5 39801.3 1390.11  10
  -2   3   5 38548.3 1440.62   3
   2   3  -5 41625.5 1501.46  26
  -2   3   5 41394.0 1660.88  18
  -2   3   4 23290.1 920.710  10
  -2   3   4 24608.2 1063.81   3
   2   3  -4 24950.5 1106.13  26
  -2   3   4 25818.6 1183.25  18
  -2   3   3 73823.4 2156.89   3
   2   3  -3 71165.1 2181.73  19
  -2   3   3 69157.4 2198.84  18
   2   3  -3 66115.1 1816.36  28
   2   3  -2 71457.4 1978.00  28
  -2   3   2 68716.6 2099.43  49
  -2   3   2 76985.6 2200.07   3
   2   3  -2 72645.7 2191.63  19
  -2   3   2 68440.4 2181.86  18
   2   3  -1 12246.5 736.783  12
  -2   3   1 12369.4 702.797   3
  -2   3   1 13446.0 544.120  19
  -2   3   1 13092.8 729.017  18
   2   3  -1 11766.0 415.029  18
   2   3  -1 14029.4 688.495  28
   2   3   0 8901.93 570.398  28
  -2   3   0 9372.02 618.630  32
  -2   3   0 9773.27 628.152  40
   2   3   0 8174.69 608.862  45
   2   3   0 9024.02 617.852  44
  -2   3   0 8680.41 517.454   9
   2   3   0 9182.96 452.355  23
   2   3   0 9161.72 417.128  18
  -2   3   0 9600.83 615.637  18
  -2   3  -1 169262. 4263.40  33
   2   3   1 166174. 4276.93  28
  -2   3  -1 168789. 4314.10  32
  -2   3  -1 168357. 4313.22  40
   2   3   1 170203. 4381.40  44
   2   3   1 167220. 4343.72  10
  -2   3  -1 168071. 4277.93   3
  -2   3  -1 163911. 4024.16   9
   2   3   1 167904. 4056.81  23
  -2   3  -1 167554. 4291.57  18
  -2   3  -2 29214.6 1236.29  33
  -2   3  -2 28222.5 1247.47  40
   2   3   2 32113.6 1369.52  48
  -2   3  -2 35341.6 1292.80  37
   2   3   2 32307.4 1365.71  10
  -2   3  -2 31623.5 1074.06   9
  -2   3  -2 32504.8 1276.30   3
   2   3   2 32649.2 1205.82  23
  -2   3  -3 11102.9 684.771  37
  -2   3  -3 9704.47 666.156  33
   2   3   3 10339.8 723.348  28
   2   3   3 9917.27 647.565  38
   2   3   3 9494.52 728.769  48
   2   3   3 9857.55 747.948  11
   2   3   3 10588.1 759.264  10
  -2   3  -3 10757.9 667.878   3
   2   3   3 10634.6 656.933  26
   2   3   3 10962.6 690.432  23
  -2   3  -3 10271.5 519.906  16
  -2   3  -4 4814.17 466.009  37
   2   3   4 4493.61 488.714  28
  -2   3  -4 3617.66 423.515  33
   2   3   4 5383.83 562.505  48
   2   3   4 3743.14 416.098  38
  -2   3  -4 5839.31 515.623  14
   2   3   4 3855.91 432.378  23
  -2   3  -4 4335.93 320.718  16
   2   3   4 3646.29 384.181  26
   2   3   4 4458.61 522.490  11
   2   3   4 4360.67 504.958  10
  -2   3  -4 4584.64 426.856   3
   2   3   5 62662.4 2233.97  23
  -2   3  -5 59998.1 2157.85  14
   2   3   5 65693.3 2439.05  11
   2   3   5 66988.7 2407.72  10
  -2   3  -5 61475.7 2388.28  83
   2   3   5 59201.4 2240.22  28
  -2   3  -5 66018.5 2245.69  33
  -2   3  -5 64758.8 2407.74  50
   2   3   5 65160.5 2378.22  48
   2   3   5 62122.3 2112.52  38
   2   3   6 23819.0 1283.25  23
  -2   3  -6 22035.3 1205.82  14
   2   3   6 23307.6 1352.56  10
   2   3   6 25013.1 1434.51  11
  -2   3  -6 21616.0 1318.30  83
   2   3   6 25698.1 1341.80  28
  -2   3  -6 24316.7 1202.43  30
  -2   3  -6 27197.6 1329.48  33
  -2   3  -6 24453.5 1382.44  50
   2   3   6 21339.6 1296.95  48
   2   3   7 39563.4 1819.09  23
  -2   3  -7 39577.9 1884.68  83
  -2   3  -7 39361.8 1738.39  14
   2   3   7 37671.9 1927.57  11
   2   3   7 38457.5 1880.49  10
  -2   3  -7 38339.3 1673.60  30
  -2   3  -7 42155.8 1933.48  50
   2   3   7 41613.1 1914.22  48
   2   3   8 13953.8 1046.38  23
  -2   3  -8 16023.8 1051.54  14
   2   3   8 12167.2 1055.23  11
   2   3   8 15064.8 1137.74  10
  -2   3  -8 15107.4 1185.20  76
  -2   3  -8 13881.2 1056.93  83
  -2   3  -8 15506.7 1006.37  30
  -2   3  -8 12561.7 1022.00  50
   2   3   8 13393.2 1061.78  48
   2   3   9 42766.0 2062.29  11
   2   3   9 40085.7 1994.15  10
  -2   3  -9 43054.7 1905.32  83
  -2   3  -9 38884.4 2038.42  76
  -2   3  -9 44930.3 1847.17  30
  -2   3  -9 39773.1 1864.76  50
  -2   3  -9 38878.0 1830.84  55
   2   3   9 41861.6 1971.03  48
  -2   3 -10 31819.0 1472.99  83
  -2   3 -10 32979.9 1759.15  76
  -2   3 -10 30060.3 1433.57  30
   2   3  10 30769.6 1373.13  65
  -2   3 -10 30745.1 1506.67  55
  -2   3 -10 29726.3 1444.63  50
   2   3  10 28644.1 1550.36  48
  -2   3 -11 13763.2 1028.24  80
   2   3  11 12752.8 921.551  48
  -2   3 -11 13678.6 1024.54  76
   2   3  12 7843.33 516.657  77
  -2   3 -12 8488.08 700.399  80
  -2   3 -12 7558.69 587.908  81
   2   3  12 8323.43 673.854  45
   2   3  12 8487.29 633.441  48
  -2   3 -13 2828.11 318.174  80
   2   4 -14 4401.07 399.488  79
   2   4 -13 2204.56 346.691  81
   2   4 -13 1988.31 326.256  84
   2   4 -13 1948.12 333.730  79
   2   4 -13 2732.03 352.911  74
   2   4 -12 37516.7 1662.85  78
   2   4 -12 37299.8 1752.61  81
   2   4 -12 39321.6 1791.23  84
   2   4 -12 36108.0 1642.00  74
   2   4 -11 5093.40 652.835  81
   2   4 -11 4575.29 605.535  78
   2   4 -10 52344.7 2338.40  78
   2   4 -10 53420.0 2333.07  81
  -2   4  10 53613.6 2376.97  18
   2   4 -10 46707.7 2254.90  50
   2   4 -10 47063.2 2217.60  56
   2   4  -9 50425.3 2324.41  80
   2   4  -9 52669.6 2315.77  81
  -2   4   9 49278.3 2311.89  18
   2   4  -8 164553. 4835.48  81
   2   4  -8 160878. 4889.41  80
   2   4  -8 160768. 4998.00  50
  -2   4   8 154974. 4872.49  18
   2   4  -8 158252. 4421.83  61
   2   4  -7 76695.7 2819.45  81
   2   4  -7 76532.0 2857.13  80
   2   4  -7 79749.4 2699.96  61
   2   4  -7 84137.6 3032.09  56
   2   4  -7 83940.5 3083.62  50
  -2   4   7 80256.3 2983.10  18
   2   4  -6 41702.8 1847.50  80
   2   4  -6 45454.9 1893.84  81
   2   4  -6 43495.2 1716.76  73
  -2   4   6 42807.7 1663.85  10
   2   4  -6 47291.5 2092.35  50
   2   4  -6 48173.8 1773.53  26
  -2   4   6 47096.9 2025.63  18
   2   4  -5 40040.2 1689.25  57
   2   4  -5 40065.5 1824.07  50
   2   4  -5 37323.3 1589.80  26
  -2   4   5 38498.0 1755.03  18
  -2   4   5 38959.8 1469.02  10
  -2   4   4 40079.8 1595.99  41
   2   4  -4 36849.9 1329.40  14
  -2   4   4 37153.5 1531.43   3
  -2   4   4 39240.1 1692.25  18
   2   4  -3 38644.2 1292.26  28
  -2   4   3 39984.4 1562.53  41
  -2   4   3 38865.9 1586.81  49
   2   4  -3 37634.4 1256.61  14
  -2   4   3 38720.0 1580.35   3
  -2   4   3 40153.2 1662.14  18
   2   4  -3 41479.1 1662.08  19
   2   4  -2 10655.6 643.101  28
  -2   4   2 11382.3 763.269  49
  -2   4   2 10971.5 735.466  41
   2   4  -2 11457.0 513.385  14
  -2   4   2 12884.4 817.102   3
  -2   4   2 11275.6 616.949  19
   2   4  -2 13554.5 850.373  19
  -2   4   2 12137.1 815.166  18
  -2   4   1 83549.4 2578.05  32
   2   4  -1 79566.4 2381.61  28
   2   4  -1 76530.3 2419.94  41
   2   4  -1 76747.4 2364.98  49
  -2   4   1 78851.9 2471.99  49
  -2   4   1 81384.4 2534.97   3
   2   4  -1 74682.9 2516.55  19
  -2   4   1 73152.2 2148.76  19
  -2   4   1 78412.0 2524.76  18
   2   4   0 8781.23 642.790  28
   2   4   0 8135.28 602.101  49
   2   4   0 7632.85 611.182  41
   2   4   0 8655.72 703.269  44
  -2   4   0 8822.39 552.373   9
   2   4   0 7755.79 422.665  23
   2   4   0 8443.70 460.931  18
  -2   4  -1 186768. 4792.82  33
   2   4   1 192156. 4878.23  28
   2   4   1 183331. 4984.14  44
   2   4   1 178457. 4836.83  41
   2   4   1 182999. 4750.24  49
   2   4   1 187127. 5034.97  45
   2   4   1 191761. 5038.67  12
  -2   4  -1 183816. 4856.08   3
  -2   4  -1 178894. 4420.54   9
   2   4   1 181000. 4438.65  23
   2   4   1 181795. 4448.35  18
  -2   4  -2 38173.0 1564.81  33
   2   4   2 40678.9 1686.49  28
  -2   4  -2 40602.6 1537.14  37
   2   4   2 39140.4 1748.26  45
   2   4   2 39679.8 1763.69  44
   2   4   2 40274.0 1448.58  18
   2   4   2 41753.9 1469.94  23
   2   4   2 43750.3 1810.18  12
  -2   4  -2 42270.7 1658.57   3
   2   4   2 35637.3 1664.24  10
  -2   4  -2 39861.2 1268.35   9
   2   4   3 39708.8 1610.29  26
   2   4   3 39862.4 1555.84  23
  -2   4  -3 40547.7 1834.39  83
  -2   4  -3 41137.3 1629.98   3
  -2   4  -3 38810.4 1535.09  37
  -2   4  -3 38653.8 1599.30  33
  -2   4  -3 42615.1 1860.98  50
   2   4   3 40886.6 1846.41  45
   2   4   3 38439.5 1790.34  44
   2   4   4 44336.9 1696.69  26
   2   4   4 43305.5 1720.01  23
  -2   4  -4 45405.7 1800.76  14
  -2   4  -4 42970.2 1983.56  83
   2   4   4 44541.4 1774.41  73
  -2   4  -4 43429.1 1667.44  37
  -2   4  -4 40877.5 1714.75  33
   2   4   4 44102.8 1871.32  28
  -2   4  -4 43108.5 1963.02  50
   2   4   4 42037.8 1968.79  45
   2   4   4 45146.1 1932.93  48
   2   4   5 16006.3 974.527  73
   2   4   5 16682.5 1109.29  28
  -2   4  -5 17068.3 1031.32  33
   2   4   5 16931.7 1129.35  48
   2   4   5 15857.1 1152.96  45
   2   4   5 15175.8 993.579  23
  -2   4  -5 13844.4 967.751  14
  -2   4  -5 16234.2 907.019   4
   2   4   6 26766.0 1408.59  23
  -2   4  -6 25136.8 1374.24  14
  -2   4  -6 23673.5 1483.71  83
   2   4   6 25518.9 1431.68  28
  -2   4  -6 25618.5 1348.44  33
  -2   4  -6 25503.0 1515.96  50
   2   4   6 27159.8 1493.14  48
   2   4   6 24741.9 1511.06  45
   2   4   7 26731.9 1486.10  23
  -2   4  -7 27725.6 1614.86  83
  -2   4  -7 27632.2 1468.67  14
  -2   4  -7 29506.5 1655.03  50
   2   4   7 26494.2 1528.06  48
   2   4   7 28329.0 1647.82  45
   2   4   8 13489.6 1024.79  23
  -2   4  -8 13605.5 1110.02  76
  -2   4  -8 12224.3 1041.21  83
  -2   4  -8 12697.8 969.009  14
  -2   4  -8 13543.2 1080.57  50
   2   4   8 11901.3 1041.38  45
   2   4   8 13738.5 1060.16  48
  -2   4  -9 35798.3 1760.70  83
  -2   4  -9 36827.3 1785.73  50
   2   4   9 34641.6 1706.76  48
   2   4   9 35599.4 1839.27  45
  -2   4  -9 34548.4 1827.40  76
  -2   4 -10 4436.54 524.778  83
  -2   4 -10 4871.01 623.116  80
  -2   4 -10 5117.24 569.961  50
   2   4  10 4080.92 557.054  45
   2   4  10 3946.03 499.030  48
  -2   4 -10 4733.74 610.111  76
   2   4  11 29936.1 1427.74  45
  -2   4 -11 30636.8 1469.90  80
   2   4  12 10839.2 575.107  77
  -2   4 -12 11798.4 719.694  80
   2   5 -13 17446.6 815.569  79
   2   5 -13 17513.6 835.947  84
  -2   5  12 14948.7 892.760  49
   2   5 -12 15161.6 957.881  84
   2   5 -12 18185.9 976.550  78
   2   5 -12 15818.4 936.549  79
  -2   5  11 16965.6 1003.85  41
   2   5 -11 15977.7 1018.18  81
   2   5 -11 17918.8 1139.74  78
   2   5 -10 24610.8 1452.52  56
   2   5 -10 25277.3 1524.18  50
  -2   5  10 25165.7 1357.93  41
   2   5 -10 25641.9 1393.10  81
   2   5 -10 25088.7 1513.97  78
  -2   5   9 42380.0 2120.99  18
   2   5  -9 46395.6 2013.59  81
   2   5  -9 44229.8 2163.74  50
  -2   5   9 44828.6 1993.23  41
  -2   5   8 10884.2 1012.58  18
   2   5  -8 11082.5 823.447  61
   2   5  -8 9491.99 852.287  81
   2   5  -8 10405.2 979.781  56
   2   5  -8 11254.2 1051.00  50
  -2   5   8 10089.2 882.246  41
  -2   5   7 15571.1 1211.87  18
   2   5  -7 17316.9 1123.63  81
   2   5  -7 15520.6 1054.49  61
   2   5  -7 17116.9 1273.63  50
   2   5  -7 17669.1 1274.03  56
  -2   5   7 15833.8 1116.17  41
  -2   5   6 39370.0 1684.88   4
   2   5  -6 38304.4 1635.31  73
  -2   5   6 37108.9 1772.21  41
   2   5  -6 36834.0 1716.92  63
   2   5  -6 39438.3 1965.46  50
   2   5  -6 37286.4 1689.61  26
  -2   5   6 38392.5 1926.13  18
   2   5  -5 29557.8 1483.15   7
  -2   5   5 33363.8 1548.53   4
   2   5  -5 31446.5 1493.15  73
  -2   5   5 34002.2 1657.22  49
  -2   5   5 29926.9 1525.90  41
   2   5  -5 29855.8 1537.51  63
   2   5  -5 27622.3 1501.01  57
   2   5  -5 29500.0 1620.16  50
  -2   5   5 31953.1 1669.85  18
   2   5  -5 31785.4 1554.20  26
   2   5  -4 37555.0 1718.93   7
   2   5  -4 34905.9 1638.63  73
  -2   5   4 38979.6 1733.48  41
  -2   5   4 34910.6 1696.80  49
   2   5  -4 37617.4 1757.50  63
   2   5  -4 35476.8 1708.13  50
   2   5  -4 38541.2 1769.22  57
  -2   5   4 37125.1 1812.05  18
  -2   5   3 9494.62 773.405  41
  -2   5   3 9849.27 812.748  49
   2   5  -3 7855.96 725.794  73
   2   5  -3 8449.78 778.058  63
   2   5  -3 8424.11 768.597  57
   2   5  -3 8559.29 727.680  50
   2   5  -3 8899.33 792.767   7
   2   5  -2 51386.4 2071.46  73
   2   5  -2 52571.9 1845.06  28
   2   5  -2 49326.5 2072.73  63
  -2   5   2 52263.4 2025.72  41
  -2   5   2 50234.0 2038.67  49
   2   5  -2 51503.9 2118.35   7
   2   5  -1 27515.5 1445.39   7
  -2   5   1 27002.8 1195.67   9
  -2   5   1 28607.8 1398.73  49
   2   5  -1 27033.6 1359.19  41
   2   5  -1 28699.8 1346.88  49
   2   5  -1 26537.0 1398.20  73
   2   5  -1 27755.9 1296.68  28
   2   5  -1 23758.7 1343.48  63
   2   5  -1 25032.4 1375.50  57
  -2   5   1 24637.1 1102.92  19
   2   5   0 31713.1 1548.53   7
   2   5   0 28337.6 1540.80  12
  -2   5   0 29209.0 1191.28   9
  -2   5   0 29683.0 1458.38  83
   2   5   0 33546.6 1587.36  73
  -2   5   0 29651.5 1416.55  33
   2   5   0 30573.5 1441.26  28
  -2   5   0 27342.9 1439.58  32
   2   5   0 30376.0 1489.76  63
  -2   5   0 31757.7 1523.56  50
   2   5   0 32526.4 1563.57  57
   2   5   0 30513.3 1439.18  49
   2   5   0 32569.0 1527.29  41
   2   5   1 21231.6 1239.00   7
   2   5   1 21865.3 1332.76  12
  -2   5  -1 22088.8 1282.87  83
   2   5   1 23134.8 1312.41  73
  -2   5  -1 22986.2 1199.44  33
   2   5   1 22639.2 1260.49  28
  -2   5  -1 23937.1 1306.56  32
   2   5   1 22779.3 1239.26  63
   2   5   1 23854.5 1310.57  57
  -2   5  -1 21649.7 1287.71  50
   2   5   1 22301.7 1227.92  49
   2   5   1 22522.7 1276.37  41
  -2   5  -1 23896.2 1296.95  40
  -2   5  -1 20688.7 1097.99  37
   2   5   2 5432.85 471.202  23
   2   5   2 5735.34 508.044  18
   2   5   2 6671.00 657.597   7
   2   5   2 5289.38 661.420  12
  -2   5  -2 6344.37 691.235  83
   2   5   2 5048.50 599.913  73
  -2   5  -2 5764.33 579.049  33
   2   5   2 5676.30 628.945  28
   2   5   2 6157.82 602.446  63
  -2   5  -2 5531.81 658.861  50
   2   5   2 5003.23 578.654  57
  -2   5  -2 6877.03 585.330  37
   2   5   2 5726.61 616.771  49
   2   5   2 5195.21 613.759  41
   2   5   2 6254.53 706.849  45
  -2   5  -2 6509.80 653.497  40
   2   5   3 55662.5 2168.16  26
   2   5   3 56469.0 1974.59  23
   2   5   3 53962.7 1992.42  18
   2   5   3 53487.5 2104.30   7
   2   5   3 49594.2 2295.38  12
  -2   5  -3 62563.8 2299.01   4
  -2   5  -3 56933.1 2391.04  83
   2   5   3 60049.6 2306.61  73
  -2   5  -3 58020.3 1995.13  37
  -2   5  -3 52076.8 2050.03  33
   2   5   3 55965.0 2259.42  28
   2   5   3 51581.3 1989.88  63
   2   5   3 58084.3 2187.53  57
  -2   5  -3 56688.8 2404.26  50
   2   5   3 61201.7 2476.23  45
   2   5   4 19652.1 1139.35  26
   2   5   4 18713.0 1082.97  23
   2   5   4 19554.2 1119.98  18
   2   5   4 18372.8 1085.68   7
   2   5   4 21841.2 1399.75  12
  -2   5  -4 19837.3 1158.43   4
  -2   5  -4 20236.9 1369.55  83
   2   5   4 21623.1 1241.60  73
  -2   5  -4 19015.2 1113.65  33
  -2   5  -4 18671.9 1322.99  50
   2   5   4 18228.1 1091.35  57
   2   5   4 19231.8 1343.84  45
   2   5   5 68922.0 2480.17  23
   2   5   5 66374.7 2510.36  18
  -2   5  -5 69733.0 2590.66  14
   2   5   5 69268.7 2834.76  12
  -2   5  -5 72976.1 2901.27  83
   2   5   5 72487.7 2548.05  73
   2   5   5 69609.5 2697.24  28
  -2   5  -5 68565.8 2461.54  33
  -2   5  -5 67504.1 2393.39  63
  -2   5  -5 65750.8 2807.50  50
   2   5   5 70948.6 2854.84  45
   2   5   6 71533.9 2466.75  73
  -2   5  -6 71868.3 2649.30  14
   2   5   6 74111.4 2935.51  12
   2   5   6 64038.3 2656.33  28
  -2   5  -6 70114.8 2487.36  33
   2   5   6 64202.7 2491.47  23
   2   5   6 66770.3 2560.87  18
   2   5   6 70785.8 2896.88  45
  -2   5  -7 62527.5 2467.35  14
   2   5   7 62501.2 2683.83  12
   2   5   7 63971.3 2452.21  23
   2   5   7 66979.6 2523.82  18
  -2   5  -7 63042.6 2557.00  76
   2   5   7 61905.2 2684.86  45
  -2   5  -8 805.899 272.882  76
  -2   5  -8 661.706 244.785  50
   2   5   8 540.682 250.004  45
   2   5   8 606.533 249.293  44
  -2   5  -8 562.226 240.542  80
  -2   5  -8 530.975 235.104  83
  -2   5  -9 5783.39 647.102  76
  -2   5  -9 6936.10 704.310  50
   2   5   9 5715.16 661.437  45
   2   5   9 5984.40 679.883  44
  -2   5  -9 5100.99 624.721  83
  -2   5  -9 5856.95 652.332  80
  -2   5 -10 10862.9 799.385  76
  -2   5 -10 10520.9 765.038  83
  -2   5 -10 12441.0 860.045  80
  -2   5 -10 11940.8 823.705  50
   2   5  10 11280.2 842.067  45
   2   5  10 12318.7 882.921  44
  -2   5 -11 958.649 197.903  80
   2   5  11 1489.21 237.182  77
   2   5  11 1502.90 268.804  44
   2   5  11 977.065 150.746  65
   2   6 -12 6659.38 491.633  84
   2   6 -12 6396.95 458.821  78
  -2   6  11 7667.14 611.788  49
   2   6 -11 7426.84 630.970  78
  -2   6  10 24790.8 1294.07  49
  -2   6  10 23744.5 1195.98  41
   2   6 -10 27731.5 1444.32  78
  -2   6   9 41719.5 1793.74  41
  -2   6   9 40177.1 1855.43  49
   2   6  -9 41338.9 1981.84  50
  -2   6   8 68985.4 2670.51  49
  -2   6   8 69380.0 2595.93  41
   2   6  -8 64850.2 2730.44  50
   2   6  -8 72146.7 2791.65  56
   2   6  -7 65215.7 2406.36  61
   2   6  -7 63971.0 2658.46  56
   2   6  -7 58340.7 2571.02  50
  -2   6   7 61922.0 2550.76  49
  -2   6   7 64700.0 2526.14  41
   2   6  -6 28603.0 1391.47  73
  -2   6   6 31600.0 1692.41  49
  -2   6   6 29167.9 1583.88  41
   2   6  -6 32268.2 1730.84  50
   2   6  -6 28119.3 1495.71  26
   2   6  -5 30705.3 1568.90   7
  -2   6   5 30631.9 1569.55   4
   2   6  -5 30158.8 1495.59  73
  -2   6   5 29007.2 1627.73  49
  -2   6   5 32345.0 1659.65  41
  -2   6   5 30725.8 1536.34  63
   2   6  -5 30365.8 1607.25  57
   2   6  -5 29304.9 1592.31  63
   2   6  -5 28337.6 1594.95  50
   2   6  -5 29769.5 1594.88  26
  -2   6   4 6429.71 725.585  49
  -2   6   4 7916.07 780.503  41
   2   6  -4 6081.31 661.216  73
   2   6  -4 6877.41 756.900  63
   2   6  -4 7322.95 758.778  57
   2   6  -4 6093.21 674.290  50
   2   6  -4 6879.00 741.975   7
  -2   6   4 6239.88 691.387   4
   2   6  -3 178421. 5267.30   7
  -2   6   3 191768. 5318.71   4
  -2   6   3 181910. 5270.30  49
  -2   6   3 179855. 5207.71  41
   2   6  -3 182579. 5188.54  73
  -2   6   3 175477. 5268.89  32
   2   6  -3 176554. 5272.89  57
  -2   6   3 179046. 5304.71  18
  -2   6   2 32984.1 1711.48  49
   2   6  -2 32774.8 1696.76  73
  -2   6   2 33595.6 1750.79  32
   2   6  -2 32844.7 1726.98  63
  -2   6   2 35077.7 1775.08  18
   2   6  -2 35580.4 1788.65   7
  -2   6   2 38551.3 1836.65   4
  -2   6   2 32305.0 1475.69   9
   2   6  -1 52029.8 2291.71   7
  -2   6   1 58033.1 2386.30   4
  -2   6   1 56587.6 2346.11  40
   2   6  -1 53429.2 2297.61  73
   2   6  -1 50697.7 2048.47  28
  -2   6   1 55736.4 2196.54  33
  -2   6   1 56192.6 2322.51  32
   2   6  -1 55485.2 2337.46  63
   2   6  -1 56119.3 2362.23  57
  -2   6   1 52610.4 2263.81  18
  -2   6   0 6384.96 708.890  18
   2   6   0 5511.35 670.277   7
  -2   6   0 5577.29 617.395  83
  -2   6   0 5458.57 605.317  33
   2   6   0 6226.56 657.814  28
  -2   6   0 5988.37 685.029  32
   2   6   0 6364.68 695.698  63
  -2   6   0 6285.70 678.785  50
   2   6   0 6479.06 730.803  57
   2   6   0 6235.24 662.151  49
   2   6   0 6328.57 704.734  41
  -2   6   0 7591.37 754.821  40
   2   6   1 36329.3 1903.28  19
   2   6   1 38167.8 1857.17   7
  -2   6  -1 38392.5 1893.12   4
  -2   6  -1 39233.8 1837.75  83
   2   6   1 40540.0 1931.01  73
  -2   6  -1 39572.6 1731.76  33
   2   6   1 40567.5 1859.44  28
   2   6   1 35756.8 1775.58  63
  -2   6  -1 39754.3 1882.87  50
   2   6   1 37036.4 1849.20  57
   2   6   1 40243.8 1837.51  49
   2   6   1 41912.4 1951.72  41
  -2   6  -1 38792.6 1846.12  40
  -2   6  -1 37472.9 1575.73  37
   2   6   2 63058.6 2490.95   7
   2   6   2 62346.9 2682.87  12
  -2   6  -2 65680.9 2582.05   4
  -2   6  -2 62687.5 2555.48  83
   2   6   2 61824.2 2538.63  73
  -2   6  -2 60871.8 2304.24  33
   2   6   2 68123.2 2589.47  28
  -2   6  -2 63348.1 2162.73  37
   2   6   2 62155.5 2390.65  63
   2   6   2 67519.2 2569.82  57
  -2   6  -2 63272.3 2615.85  50
   2   6   2 65442.4 2533.52  49
   2   6   2 64987.7 2645.65  41
   2   6   3 13225.3 1005.28  26
  -2   6  -3 12715.8 973.830  14
   2   6   3 12789.2 966.146   7
  -2   6  -3 14360.1 1063.48   4
   2   6   3 13341.6 1133.67  12
  -2   6  -3 13364.6 1099.18  83
   2   6   3 14254.2 1078.58  73
  -2   6  -3 14368.3 955.240  33
   2   6   3 13935.7 1071.06  28
   2   6   3 13391.6 932.684  63
  -2   6  -3 14018.5 1060.23  63
   2   6   3 12807.2 975.827  57
  -2   6  -3 12187.7 1063.04  50
   2   6   3 13325.8 1093.02  41
   2   6   3 15005.9 1086.88  49
   2   6   3 12260.5 1085.81  44
   2   6   4 37706.7 1785.74  26
  -2   6  -4 42882.6 1924.82  14
  -2   6  -4 41142.8 1856.60   4
   2   6   4 43346.8 2154.89  12
  -2   6  -4 42407.0 2122.30  83
   2   6   4 42228.0 1935.43  73
   2   6   4 42522.5 2004.77  28
  -2   6  -4 40750.3 1743.45  33
  -2   6  -4 44331.5 1939.28  63
  -2   6  -4 40222.2 2079.01  50
   2   6   4 39901.3 1794.08  57
   2   6   4 43147.0 2094.55  41
   2   6   4 42086.5 1968.35  49
   2   6   4 42377.0 2144.20  44
  -2   6  -5 21561.2 1302.54  14
   2   6   5 20983.3 1469.44  12
  -2   6  -5 20653.9 1429.58  83
   2   6   5 20999.3 1263.39  73
  -2   6  -5 22048.7 1183.95  33
  -2   6  -5 21497.8 1208.98  63
   2   6   5 22998.7 1196.27  57
  -2   6  -5 20361.0 1429.92  50
   2   6   5 25064.2 1516.38  41
   2   6   5 21186.3 1346.92  49
   2   6   5 23862.1 1530.32  44
  -2   6  -6 6985.82 799.138  83
  -2   6  -6 6066.27 603.846  56
  -2   6  -6 5634.39 731.174  50
   2   6   6 5930.84 717.106  41
   2   6   6 7068.10 806.351  45
   2   6   6 7183.75 811.208  44
   2   6   6 6785.89 734.976  49
   2   6   6 6569.77 643.628  73
  -2   6  -7 11725.7 991.366  83
  -2   6  -7 10204.0 931.157  50
   2   6   7 9665.96 837.926  49
   2   6   7 8923.72 843.441  41
   2   6   7 8151.84 837.171  45
   2   6   7 8874.29 864.006  44
  -2   6  -7 9813.34 787.821  76
   2   6   7 8579.14 663.883  73
   2   6   8 8546.11 736.328  49
   2   6   8 9262.12 816.590  41
   2   6   8 10099.8 860.409  44
  -2   6  -8 8790.38 700.144  76
  -2   6  -9 25667.1 1302.11  83
  -2   6  -9 29505.4 1381.87  50
   2   6   9 25958.1 1225.45  49
   2   6   9 28454.5 1341.45  41
   2   6   9 28487.7 1384.64  44
   2   6  10 12514.9 660.630  65
  -2   6 -10 11640.6 702.147  50
   2   6  11 6002.73 364.130  77
   2   7 -11 13180.1 655.166  84
   2   7 -11 11594.7 608.588  78
  -2   7  10 242.544 117.035  40
  -2   7  10 403.205 129.054  73
  -2   7   9 11064.8 781.749  49
   2   7  -9 14536.2 957.695  78
   2   7  -8 6422.54 675.145  56
  -2   7   8 6966.70 674.668  49
  -2   7   8 6514.51 614.017  41
   2   7  -7 9583.80 852.837  56
   2   7  -7 7900.27 759.611  50
  -2   7   7 8277.40 744.453  41
  -2   7   7 8982.44 803.212  49
   2   7  -7 8687.07 698.674  61
  -2   7   6 15771.5 1134.13  32
   2   7  -6 14225.6 1002.75  61
   2   7  -6 15166.7 1140.72  56
   2   7  -6 12770.0 975.339  50
  -2   7   6 15560.9 1071.96  41
  -2   7   6 16023.7 1123.94  49
   2   7  -5 14370.6 945.884  73
  -2   7   5 15455.2 1146.75  32
   2   7  -5 14071.5 1034.76  57
  -2   7   5 14058.2 969.243  63
   2   7  -5 13650.6 982.853  50
  -2   7   5 13259.1 1047.44  49
  -2   7   4 9313.61 875.621  49
   2   7  -4 9092.32 796.927  73
  -2   7   4 8894.87 869.182  32
   2   7  -4 8056.85 817.243  63
   2   7  -4 9896.41 888.189  57
  -2   7   4 8558.80 803.999  63
   2   7  -4 9608.19 869.094   7
  -2   7   4 8730.44 872.828  18
  -2   7   3 9681.14 910.519  40
   2   7  -3 9909.48 866.717  73
  -2   7   3 9819.68 848.130  33
  -2   7   3 10021.0 910.338  32
  -2   7   3 10100.3 910.148  63
   2   7  -3 9064.20 871.519  57
   2   7  -3 10179.8 925.512   7
  -2   7   3 9064.99 871.176   4
   2   7  -3 8655.89 893.412  26
  -2   7   3 8070.76 833.724  18
  -2   7   2 8870.72 867.395  40
   2   7  -2 7849.79 791.785  73
  -2   7   2 6932.69 709.704  33
  -2   7   2 7569.77 799.823  32
  -2   7   2 9582.84 880.440  63
   2   7  -2 8108.32 833.508  63
  -2   7   2 7295.60 786.879  18
   2   7  -2 7734.63 817.773   7
  -2   7   2 6980.53 781.472   4
   2   7  -1 39573.0 1973.77   7
  -2   7   1 42619.8 2045.30   4
  -2   7   1 41032.7 1953.90  40
  -2   7   1 40565.7 1667.90  37
   2   7  -1 42724.2 1996.75  73
   2   7  -1 42268.9 2009.84  63
  -2   7   1 43963.3 2065.59  63
   2   7  -1 39152.2 2009.33  19
  -2   7   1 36438.2 1872.02  18
   2   7  -1 38914.1 1961.25  57
  -2   7   1 39747.0 1778.00  33
  -2   7   1 41778.7 1968.58  32
   2   7   0 87088.4 3173.02   7
  -2   7   0 86876.6 3196.61   4
  -2   7   0 85182.2 3100.53  40
  -2   7   0 85042.0 2869.07  33
   2   7   0 84889.1 2943.27  28
  -2   7   0 86632.3 3197.55  63
   2   7   0 87785.3 3132.97  63
   2   7   0 88275.9 3204.65  57
   2   7   0 86451.5 3268.36  19
   2   7   1 14675.3 1105.99   7
  -2   7  -1 13095.9 1075.66   4
  -2   7  -1 13811.9 999.251  83
   2   7   1 12807.5 1067.25  73
  -2   7  -1 14688.5 960.327  33
   2   7   1 14372.9 1059.32  28
  -2   7  -1 14587.5 1131.79  63
   2   7   1 15349.1 1086.33  63
   2   7   1 15403.2 1131.37  57
  -2   7  -1 14565.3 1056.63  50
   2   7   1 14179.0 1128.31  26
   2   7   1 14643.4 1173.25  19
   2   7   2 19869.8 1326.91  26
   2   7   2 20140.2 1408.90  19
  -2   7  -2 21785.9 1294.29  14
   2   7   2 19012.3 1247.49   7
  -2   7  -2 20662.9 1342.54   4
  -2   7  -2 22853.8 1348.98  83
   2   7   2 20897.4 1333.89  73
  -2   7  -2 17968.1 1069.87  33
   2   7   2 20247.3 1302.05  28
   2   7   2 19964.5 1213.34  63
  -2   7  -2 21151.1 1353.45  63
  -2   7  -2 22286.5 1202.82  57
  -2   7  -2 21362.3 1333.91  50
   2   7   2 21410.7 1323.57  57
   2   7   2 23593.5 1358.32  49
   2   7   2 22742.2 1411.40  41
   2   7   3 23398.6 1327.01   7
  -2   7  -3 25092.7 1453.79  83
   2   7   3 24855.9 1428.22  73
  -2   7  -3 20204.0 1121.81  33
  -2   7  -3 26303.4 1461.63  63
   2   7   3 24502.0 1366.69  57
  -2   7  -3 23376.0 1446.72  50
   2   7   3 23933.7 1385.70  49
   2   7   3 24204.9 1477.43  41
  -2   7  -4 13019.0 1049.73  83
  -2   7  -4 14374.2 1000.62  63
   2   7   4 13899.9 1022.18  73
  -2   7  -4 14731.4 1136.44  50
   2   7   4 13990.6 950.742  57
   2   7   4 14427.1 1039.53  49
   2   7   4 16695.2 1173.13  41
  -2   7  -5 31349.2 1665.31  83
  -2   7  -5 27761.2 1329.43  63
  -2   7  -5 29932.2 1637.09  50
   2   7   5 29301.8 1320.32  57
   2   7   5 31898.2 1544.56  49
   2   7   5 29018.9 1581.01  41
   2   7   5 29913.1 1463.50  73
  -2   7  -6 28623.4 1541.64  83
  -2   7  -6 29358.0 1556.70  50
   2   7   6 30240.6 1448.60  49
   2   7   6 30761.3 1554.69  41
   2   7   6 29815.3 1349.44  73
  -2   7  -7 10880.3 847.146  83
  -2   7  -7 9912.01 800.789  50
   2   7   7 8827.26 588.840  73
   2   7   7 8941.05 689.442  49
   2   7   7 9911.24 776.804  41
  -2   7  -8 479.472 170.764  50
   2   7   8 400.253 155.569  41
  -2   7  -8 714.313 207.592  83
   2   7   9 21224.3 891.405  77
   2   7   9 22186.4 911.723  65
   2   8  -9 7848.53 522.695  78
  -2   8   9 7852.97 449.905  73
  -2   8   8 7860.21 554.579  73
   2   8  -8 8475.60 633.930  78
  -2   8   8 8373.32 527.629  57
   2   8  -8 7983.89 598.322  56
   2   8  -7 14295.0 903.917  56
  -2   8   7 15917.5 868.112  57
  -2   8   7 13418.8 779.073  33
  -2   8   7 13994.0 861.712  32
  -2   8   6 40110.0 1672.30  40
  -2   8   6 38592.5 1501.74  33
  -2   8   6 38118.1 1616.80  32
   2   8  -6 41030.0 1726.79  56
  -2   8   6 36328.9 1374.55   7
  -2   8   5 46180.1 1911.90  40
  -2   8   5 43527.3 1717.80  33
  -2   8   5 48276.9 1920.14  32
   2   8  -5 46194.6 1857.53  61
  -2   8   5 48177.8 1724.77  63
   2   8  -5 47651.8 1981.83  56
  -2   8   5 46428.8 1786.10   7
  -2   8   4 12738.3 870.256  63
  -2   8   4 12111.8 817.129  33
  -2   8   4 12849.0 928.321  32
  -2   8   4 13029.0 947.523  40
   2   8  -4 14086.6 866.956  73
   2   8  -3 54227.8 2204.53  57
  -2   8   3 57618.7 2180.65  63
  -2   8   3 49880.9 1909.55  33
  -2   8   3 53089.8 2129.79  32
  -2   8   3 55499.0 2194.18  40
   2   8  -3 54373.9 2092.71  73
   2   8  -2 4604.76 559.699  73
  -2   8   2 6820.28 639.593  73
  -2   8   2 6047.12 632.454  32
  -2   8   2 5512.35 625.843  63
  -2   8   2 5649.83 621.377  40
   2   8  -2 4186.51 550.396   7
   2   8  -1 22043.0 1299.29  73
  -2   8   1 23077.4 1199.18  73
  -2   8   1 24419.7 1329.05  40
  -2   8   1 26982.7 1451.96  63
   2   8  -1 21852.8 1331.46  57
  -2   8   1 26034.3 1382.74  57
   2   8  -1 23191.7 1363.86   7
  -2   8   0 15726.6 1096.92  63
   2   8   0 15715.7 1084.41   7
   2   8   0 16807.2 1115.78  57
  -2   8   0 14462.8 983.340  57
   2   8   0 16202.9 1091.21  73
   2   8   1 5356.90 612.391  57
  -2   8  -1 5155.64 544.046  57
  -2   8  -2 19141.7 1161.26  63
  -2   8  -2 16467.7 963.522  83
   2   8   2 17265.2 1080.33  57
  -2   8  -2 17346.4 1008.10  50
   2   8   2 17834.6 1117.21  73
  -2   8  -3 2294.89 364.408   7
   2   8   3 2074.43 366.670  73
  -2   8  -3 2238.71 352.654  83
  -2   8  -3 2451.36 381.638  63
   2   8   3 1775.04 323.148  57
  -2   8  -3 2448.07 376.563  50
   2   8   4 8216.92 615.839  57
  -2   8  -4 8095.87 631.585  63
  -2   8  -4 8806.75 710.928  50
   2   8   4 9099.85 704.385  73
  -2   8  -4 8446.43 689.106  83
   2   8   5 518.045 172.912  73
  -2   8  -5 241.787 142.727  50
  -2   8  -5 359.657 147.817  83
  -2   8  -6 31867.2 1300.28  50
   2   8   6 29303.3 1123.80  73
   2   8   7 766.787 160.726  65
  -2   8  -7 1137.82 199.781  50
  -2   9   6 121.645 68.4323  57
   2   9  -6 295.060 99.8406  56
  -2   9   6 82.5854 66.1166  73
   2   9  -5 4872.29 378.640  78
  -2   9   5 5508.87 427.227  73
  -2   9   5 4738.10 412.963  57
   2   9  -5 5225.91 439.860  56
  -2   9   5 4033.57 308.231   7
  -2   9   4 13244.9 711.070  73
   2   9  -4 12478.1 727.609  56
  -2   9   4 13428.7 702.469   7
   2   9  -4 14063.1 746.979  61
  -2   9   4 11484.5 613.068  63
  -2   9   3 1744.06 255.719  73
  -2   9   3 2328.44 317.691  57
   2   9  -3 1813.43 288.955  56
  -2   9   3 1563.87 266.879   7
   2   9  -3 1401.89 258.576  61
  -2   9   3 1395.03 237.302  63
   2   9  -2 2204.76 299.100  73
  -2   9   2 2850.46 357.063  57
   2   9  -2 2616.76 338.030  56
  -2   9   2 3197.46 391.442   7
  -2   9   2 2676.44 345.800  63
   2   9  -1 3262.03 381.356  73
  -2   9   1 3719.31 393.353  57
  -2   9   1 4064.00 445.191   7
   2   9  -1 4084.38 446.612  57
  -2   9   1 3937.96 444.135  63
  -2   9   0 12515.0 715.392  57
   2   9   0 14796.9 840.380  73
  -2   9   0 15690.7 880.313  63
   2   9   0 14060.0 839.977  57
  -2   9  -1 8039.36 600.351   7
   2   9   1 7427.21 576.414  57
   2   9   2 4712.07 447.786  73
  -2   9  -2 4883.30 434.241   7
  -2   9  -2 5583.26 470.085  63
   2   9   2 5089.50 442.805  57
   2   9   3 14773.9 754.734  73
  -2   9  -3 12605.4 662.814  63
   2   9   4 8375.24 499.713  73
   3  -9  -5 8360.61 461.103  53
  -3  -9   5 8434.41 474.247  69
  -3  -9   5 7853.47 483.348  66
   3  -9  -4 27182.3 985.731  53
  -3  -9   4 25340.9 990.412  69
  -3  -9   4 26392.8 1027.33  66
   3  -9  -4 23307.7 914.925  60
   3  -9  -3 8645.09 522.491  53
  -3  -9   3 8755.34 554.626  69
  -3  -9   3 8710.85 561.025  66
   3  -9  -3 7944.94 483.740  60
   3  -9  -2 4317.23 366.028  53
  -3  -9   2 4766.48 415.880  69
   3  -9  -2 4477.80 406.698  67
  -3  -9   2 4779.19 409.833  66
   3  -9  -2 4086.26 332.045  60
   3  -9  -1 7545.64 474.214  53
  -3  -9   1 7796.76 535.705  69
   3  -9  -1 8486.43 571.287  67
  -3  -9   1 7530.92 521.302  66
   3  -9   0 1759.00 261.475  67
  -3  -9   0 1636.20 238.056  69
  -3  -9   0 1638.38 226.721  66
   3  -9   1 14890.9 753.510  67
  -3  -9  -1 14046.3 708.830  69
  -3  -9  -1 13605.9 655.974  66
  -3  -9  -2 5824.39 406.491  69
  -3  -8   9 3097.35 282.057  66
  -3  -8   8 13965.7 703.404  69
  -3  -8   8 13933.4 764.767  66
   3  -8  -8 15789.1 771.816  60
   3  -8  -7 37227.6 1430.11  53
   3  -8  -7 36320.4 1396.24  71
  -3  -8   7 39101.8 1460.51  69
  -3  -8   7 39963.3 1548.04  66
   3  -8  -7 37926.1 1474.05  60
   3  -8  -6 17188.7 949.035  53
  -3  -8   6 16952.3 948.552  69
   3  -8  -6 16945.5 973.985  60
  -3  -8   5 13797.0 882.916  69
   3  -8  -5 13251.4 856.345  53
   3  -8  -5 12083.5 823.930   5
   3  -8  -5 14037.9 910.135  60
  -3  -8   4 29746.5 1408.98  69
   3  -8  -4 30778.4 1422.73  67
   3  -8  -4 30222.9 1393.16  53
   3  -8  -4 30112.0 1453.74   5
   3  -8  -4 28130.4 1403.19  59
   3  -8  -4 30068.5 1438.09  60
   3  -8  -3 7257.04 681.742  67
  -3  -8   3 9350.78 750.944  69
   3  -8  -3 8331.53 694.359  53
   3  -8  -3 7564.63 722.121   5
   3  -8  -3 9015.92 754.834  59
  -3  -8   3 7330.74 700.651  66
   3  -8  -2 48976.8 1882.11  53
  -3  -8   2 47425.5 1926.90  69
   3  -8  -2 45869.8 1929.08  67
  -3  -8   2 45631.2 1941.67  66
   3  -8  -2 48008.4 1960.57  59
  -3  -8   1 22021.9 1213.55  69
   3  -8  -1 21924.1 1260.47  67
  -3  -8   1 20042.3 1158.10   6
   3  -8  -1 24260.4 1342.18   5
   3  -8  -1 23156.8 1267.80  59
  -3  -8   1 20676.6 1220.77  66
  -3  -8   0 55194.3 2151.64  69
   3  -8   0 60205.0 2314.55   5
   3  -8   0 60718.2 2239.66  59
  -3  -8   0 58165.1 2224.13  66
  -3  -8  -1 2972.04 417.014  69
   3  -8   1 2400.53 395.360   5
   3  -8   1 2265.58 375.889  59
  -3  -8  -1 2379.92 385.782  66
  -3  -8  -2 25513.3 1273.53  69
  -3  -8  -2 26215.8 1279.84  66
   3  -8   2 26111.8 1296.14   5
   3  -8   2 26646.0 1277.35  59
  -3  -8  -3 10965.5 753.106  69
  -3  -8  -3 8830.36 663.040  66
   3  -8   3 9737.33 680.748   5
   3  -8   3 9176.06 669.181  59
  -3  -8  -4 21129.7 976.731  66
   3  -8   4 19457.4 884.882  59
   3  -8   5 21225.8 982.307  68
  -3  -8  -5 18969.3 823.610  66
   3  -8   6 18584.5 808.942  68
   3  -7 -11 22069.2 787.310  52
   3  -7 -10 23220.7 996.753  60
   3  -7 -10 21022.3 938.236  52
  -3  -7  10 21212.3 933.181  69
   3  -7  -9 4395.13 475.275  60
  -3  -7   9 3699.03 420.894  36
  -3  -7   9 4304.10 434.685  43
  -3  -7   9 4177.08 452.485  39
  -3  -7   9 4165.16 447.426  69
   3  -7  -9 3975.03 404.456  71
  -3  -7   8 10374.3 777.605  36
   3  -7  -8 11047.0 770.233  71
  -3  -7   8 10717.5 793.269  69
  -3  -7   8 10131.7 765.462  39
  -3  -7   7 4664.56 551.599  69
  -3  -7   7 4245.70 528.330  36
   3  -7  -7 5035.16 608.828  60
   3  -7  -7 5038.29 575.011  53
  -3  -7   7 4526.13 522.004  39
  -3  -7   6 27459.4 1466.30  69
   3  -7  -6 28426.0 1556.95  60
   3  -7  -6 29899.4 1521.89  53
   3  -7  -6 28621.9 1429.14   5
  -3  -7   5 5794.39 646.574  69
   3  -7  -5 5221.66 612.899  67
  -3  -7   5 5041.46 603.291  36
   3  -7  -5 5027.13 632.176  59
   3  -7  -5 4318.12 568.101  53
  -3  -7   5 5100.47 581.728   6
   3  -7  -5 4285.68 572.083   5
   3  -7  -4 712.407 253.518  67
  -3  -7   4 469.459 198.247  69
  -3  -7   4 444.980 197.086  36
   3  -7  -4 894.856 281.296  59
   3  -7  -4 576.060 230.162  53
  -3  -7   4 443.671 205.215   6
   3  -7  -4 637.486 245.401   5
   3  -7  -3 872.883 282.889  67
  -3  -7   3 782.163 257.525  69
  -3  -7   3 1598.89 341.678  36
   3  -7  -3 851.753 288.866  59
   3  -7  -3 1092.54 294.851  53
  -3  -7   3 1113.78 319.464   6
   3  -7  -2 48862.3 2229.24  59
  -3  -7   2 49856.7 2004.45  36
  -3  -7   2 48060.1 2151.83  69
  -3  -7   2 53096.1 2204.89   6
   3  -7  -1 57254.4 2464.34  59
  -3  -7   1 63452.6 2191.83  36
  -3  -7   1 58294.4 2385.53  69
   3  -7  -1 54953.9 2376.14  68
  -3  -7   1 53301.1 2308.12   6
   3  -7   0 8526.93 841.167  59
  -3  -7   0 8653.85 848.992  66
   3  -7   0 7612.65 792.839  68
  -3  -7   0 7078.62 748.530  69
  -3  -7   0 8357.71 725.574  51
  -3  -7   0 7446.05 747.750   6
  -3  -7  -1 3762.32 558.841  66
   3  -7   1 4365.09 602.696  59
  -3  -7  -1 4402.42 584.098  69
   3  -7   1 3297.88 531.881  68
  -3  -7  -1 3829.85 464.785  51
  -3  -7  -1 4733.87 578.907   6
   3  -7   2 30282.5 1619.96  59
  -3  -7  -2 31318.6 1655.46  66
  -3  -7  -2 31371.1 1614.47  69
   3  -7   2 30074.4 1651.71  68
  -3  -7  -2 29284.2 1476.70   6
   3  -7   2 31059.5 1631.89   5
  -3  -7  -3 6825.32 708.956  66
   3  -7   3 6017.37 672.089  59
  -3  -7  -3 5917.73 648.452  69
  -3  -7  -3 6120.79 593.074   6
   3  -7   3 6315.18 660.215   5
  -3  -7  -4 15931.5 1057.12  69
  -3  -7  -4 18445.5 1131.16  66
   3  -7   4 19244.6 1163.16  59
   3  -7   5 797.175 222.356  59
  -3  -7  -5 1077.49 258.543  66
   3  -7   6 18287.8 1071.23  68
  -3  -7  -6 19906.4 1012.75  66
   3  -7   6 17877.7 922.624  59
  -3  -7  -7 1995.02 269.911  70
   3  -7   7 2033.19 318.999  68
  -3  -7  -7 2233.07 281.976  66
   3  -7   8 1460.53 217.091  68
  -3  -7  -8 1049.85 165.079  70
   3  -6 -12 6164.01 423.639  52
  -3  -6  11 3558.89 395.404  69
   3  -6 -11 3424.66 388.858  52
  -3  -6  11 3507.57 400.848  39
   3  -6 -10 5487.64 558.212  60
  -3  -6  10 6130.57 556.472  36
  -3  -6  10 4989.93 546.693  39
   3  -6  -9 22960.8 1309.16  60
  -3  -6   9 21171.6 1197.97  36
   3  -6  -9 20307.2 1138.19  71
  -3  -6   8 16881.5 1064.91  31
  -3  -6   8 17825.5 1159.09  36
   3  -6  -8 17329.1 1193.66  60
  -3  -6   7 27628.4 1534.34  36
  -3  -6   7 27678.8 1459.63  31
   3  -6  -7 27861.1 1543.97  53
   3  -6  -7 26145.7 1361.96   5
   3  -6  -6 11423.4 986.020  22
   3  -6  -6 12157.5 968.064  15
  -3  -6   6 11951.7 1016.26  17
   3  -6  -6 12333.7 965.944  67
  -3  -6   6 12933.5 1014.61  69
  -3  -6   6 13534.8 1016.04  31
   3  -6  -6 12405.7 1033.33  59
   3  -6  -6 12627.7 1016.43  53
  -3  -6   6 11643.4 896.654   6
   3  -6  -6 13293.9 997.681   5
   3  -6  -5 33134.3 1775.30  15
   3  -6  -5 34179.9 1790.18  22
  -3  -6   5 37130.8 1851.72  17
  -3  -6   5 39695.3 1876.03  36
  -3  -6   5 35252.9 1771.18  31
   3  -6  -5 36096.9 1787.31  67
  -3  -6   5 35178.3 1789.78  69
   3  -6  -5 36584.7 1821.79  53
  -3  -6   5 37497.1 1757.49   6
  -3  -6   5 37728.8 1776.80   2
   3  -6  -4 41353.0 2007.53  15
   3  -6  -4 39671.3 1912.82  22
   3  -6  -4 41062.5 1947.47  67
  -3  -6   4 43419.6 1977.09  69
  -3  -6   4 40287.6 1900.80  36
  -3  -6   4 39795.7 1908.59  31
   3  -6  -4 41367.7 1939.99  53
  -3  -6   4 42610.3 1959.09   6
  -3  -6   4 40446.8 1913.13   2
  -3  -6   3 4189.50 578.473  69
  -3  -6   3 3935.86 543.354  36
   3  -6  -3 3955.95 598.490  59
   3  -6  -3 4202.01 616.415  15
  -3  -6   3 4469.68 586.875   6
  -3  -6   3 4239.74 578.585   2
   3  -6  -2 33006.9 1709.45  68
  -3  -6   2 32994.3 1678.13  69
  -3  -6   2 31434.5 1604.42  31
  -3  -6   2 32315.2 1559.49  36
   3  -6  -2 33123.9 1789.30  59
  -3  -6   2 29042.0 1668.64  66
  -3  -6   2 32409.9 1746.39  20
  -3  -6   2 30401.2 1658.60   6
  -3  -6   2 30360.3 1646.05   2
   3  -6  -1 33276.8 1778.45  68
  -3  -6   1 35720.9 1787.14  69
  -3  -6   1 36598.2 1733.15  31
  -3  -6   1 37568.7 1636.00  36
   3  -6  -1 38132.7 1940.28  59
   3  -6  -1 40247.2 1984.79  15
  -3  -6   1 33651.3 1819.04  20
  -3  -6   1 37853.5 1825.19   6
   3  -6   0 63475.5 2580.14  68
  -3  -6   0 61904.7 2489.45  69
   3  -6   0 60099.9 2463.65  27
  -3  -6   0 64010.2 2194.44  36
   3  -6   0 60495.6 2587.22  59
   3  -6   0 59140.7 2554.45  15
  -3  -6   0 64557.7 2624.43  20
  -3  -6   0 64161.9 2519.19   6
  -3  -6   0 57347.6 2428.82   2
  -3  -6  -1 26226.7 1564.93  20
   3  -6   1 26883.9 1564.22  15
   3  -6   1 24876.2 1526.82  68
  -3  -6  -1 26286.4 1489.11  69
   3  -6   1 26424.6 1558.18  27
   3  -6   1 25528.2 1547.74  59
  -3  -6  -1 25072.4 1399.22  51
  -3  -6  -1 28080.3 1513.49   6
  -3  -6  -1 26083.6 1471.35   2
  -3  -6  -2 40073.2 2025.99  20
   3  -6   2 44611.0 2059.90  15
   3  -6   2 43873.3 1938.62  21
   3  -6   2 46265.5 2157.27  68
  -3  -6  -2 43668.7 2017.52  69
   3  -6   2 44654.8 2167.54  27
   3  -6   2 43996.4 1787.80  34
  -3  -6  -2 44344.5 2101.64  66
   3  -6   2 46322.3 2172.43  59
  -3  -6  -2 41805.2 1859.48  51
  -3  -6  -2 43064.6 1917.46   6
  -3  -6  -2 47615.8 2009.11   2
   3  -6   3 45441.9 2066.89  15
   3  -6   3 48445.8 2137.98  21
   3  -6   3 53776.6 2361.81  68
  -3  -6  -3 47886.0 2140.20  69
   3  -6   3 52324.8 2396.56  27
   3  -6   3 53667.8 2061.33  34
  -3  -6  -3 54657.0 2322.76  66
   3  -6   3 47968.3 2252.95  59
  -3  -6  -3 48137.9 1960.10  51
  -3  -6  -3 50772.2 2031.35   6
   3  -6   3 48081.9 2107.47   5
  -3  -6  -3 49130.4 2029.02   2
  -3  -6  -4 4631.93 607.958  66
   3  -6   4 4177.86 618.749  68
  -3  -6  -4 4694.40 598.369  69
   3  -6   4 4502.92 557.765  34
   3  -6   4 3848.92 591.725  59
  -3  -6  -4 4343.96 493.471  51
  -3  -6  -4 3918.26 470.862   6
   3  -6   4 4021.15 514.600   5
   3  -6   5 46321.7 2090.33  59
   3  -6   5 44463.7 1928.06  34
  -3  -6  -5 46152.9 2023.22  69
  -3  -6  -5 44172.8 2014.68  66
  -3  -6  -5 44964.1 1810.51  71
   3  -6   6 23808.0 1348.07  59
   3  -6   6 23725.5 1298.66  34
  -3  -6  -6 21967.3 1291.94  66
  -3  -6  -6 24866.8 1226.07  71
   3  -6   7 73868.0 2516.02  59
   3  -6   7 74411.5 2539.82  34
  -3  -6  -7 73524.4 2499.82  70
   3  -6   7 70803.2 2650.43  68
  -3  -6  -7 79548.8 2596.75  66
  -3  -6  -8 719.899 192.229  70
   3  -6   8 569.389 198.458  68
  -3  -6  -8 399.499 155.292  66
   3  -6   8 451.839 154.431  59
  -3  -6  -9 5771.53 444.160  70
   3  -6   9 4687.55 446.240  68
   3  -5 -13 7695.69 493.122  52
   3  -5 -12 4467.45 460.107  52
  -3  -5  12 4811.92 461.723  39
   3  -5 -11 7934.98 672.364  60
   3  -5 -11 7429.04 673.783  52
  -3  -5  11 8100.03 643.984  36
   3  -5 -10 32964.1 1446.35  64
   3  -5 -10 34094.7 1633.07  60
  -3  -5  10 33657.3 1569.95  36
  -3  -5  10 32192.3 1400.31  31
   3  -5 -10 32751.3 1484.05  71
   3  -5  -9 10498.0 810.349  64
   3  -5  -9 11273.7 948.821  60
  -3  -5   9 11342.8 919.814  36
  -3  -5   9 10259.8 818.568  31
   3  -5  -9 12707.2 925.123  71
  -3  -5   8 72344.5 2862.86  13
  -3  -5   8 76395.3 2729.22  31
  -3  -5   8 77100.9 2554.34  42
   3  -5  -8 81861.2 3002.13  60
   3  -5  -8 74093.2 2619.00  64
   3  -5  -8 78524.3 2937.94  53
   3  -5  -8 74035.9 2879.02  22
  -3  -5   8 69308.2 2886.26  17
   3  -5  -7 68229.5 2461.78   5
  -3  -5   7 66628.5 2414.30  42
  -3  -5   7 63864.1 2513.40  31
   3  -5  -7 64262.1 2602.33  59
   3  -5  -7 66402.0 2422.28  64
   3  -5  -7 69427.5 2683.38  53
   3  -5  -7 62959.6 2610.93  22
  -3  -5   6 68402.7 2472.84   6
  -3  -5   6 60426.1 2385.98   2
   3  -5  -6 68491.5 2576.92   5
  -3  -5   6 69483.8 2511.58  42
   3  -5  -6 70261.8 2554.23  67
  -3  -5   6 71002.6 2624.00  31
   3  -5  -6 65356.8 2413.71  64
   3  -5  -6 63809.2 2620.94  59
   3  -5  -6 68483.4 2655.62  53
   3  -5  -6 69267.4 2677.42  22
   3  -5  -6 63341.8 2502.48  15
  -3  -5   5 5822.97 637.839   2
  -3  -5   5 5600.65 627.672  42
   3  -5  -5 5271.14 627.538  67
  -3  -5   5 5656.69 640.328  31
   3  -5  -5 4784.80 625.881  59
   3  -5  -5 5074.16 571.673  64
   3  -5  -5 5489.47 648.299  53
  -3  -5   5 5301.98 642.350  25
   3  -5  -5 4628.43 604.607  15
   3  -5  -5 5156.03 622.609  22
  -3  -5   4 8426.05 774.641   2
  -3  -5   4 8736.77 768.027  42
  -3  -5   4 6831.21 650.163  46
   3  -5  -4 6699.95 705.236  67
  -3  -5   4 7590.19 731.381  69
  -3  -5   4 6829.22 698.983  31
   3  -5  -4 6911.38 749.557  59
   3  -5  -4 6944.37 659.121  64
   3  -5  -4 6639.57 689.540  53
  -3  -5   4 7085.63 742.984  25
   3  -5  -4 5857.00 693.192  15
   3  -5  -4 7703.72 751.362  22
  -3  -5   3 43557.3 1834.57  46
  -3  -5   3 41999.0 1847.41  42
  -3  -5   3 42423.8 1872.03  69
   3  -5  -3 45320.4 1929.39  68
   3  -5  -3 42363.9 1772.01  64
   3  -5  -3 44926.9 2035.92  15
  -3  -5   3 40772.7 1891.75   2
   3  -5  -2 7909.01 752.830  68
  -3  -5   2 7219.55 707.766  69
   3  -5  -2 7290.44 653.750  27
  -3  -5   2 7603.89 697.228  31
  -3  -5   2 7428.32 693.558  42
  -3  -5   2 7656.81 740.172   2
   3  -5  -1 6080.99 665.938  82
   3  -5  -1 6740.17 698.199  68
  -3  -5   1 6299.04 659.312  69
  -3  -5   1 7597.30 649.032  36
   3  -5  -1 6735.65 659.422  27
  -3  -5   1 6607.09 637.867  31
   3  -5  -1 8242.58 811.658  59
  -3  -5   1 6271.09 701.161  66
   3  -5  -1 8489.67 823.225  15
  -3  -5   1 7171.09 719.592   2
  -3  -5   0 3234.61 480.794   2
   3  -5   0 2773.47 434.964  82
   3  -5   0 3081.73 477.283  68
  -3  -5   0 2717.46 434.548  69
  -3  -5   0 2769.73 371.133  36
  -3  -5   0 4287.60 505.564  31
   3  -5   0 3315.49 480.112  27
   3  -5   0 2700.46 483.262  59
  -3  -5   0 4067.08 553.636  66
   3  -5   0 3987.93 555.635  15
   3  -5   0 3433.88 423.834  21
  -3  -5   0 4611.09 537.956  42
   3  -5   1 8260.33 770.511  82
   3  -5   1 11850.8 974.941  68
  -3  -5  -1 12328.1 927.580  69
  -3  -5  -1 10258.8 772.733  31
   3  -5   1 10829.7 925.026  27
   3  -5   1 10633.1 784.419  34
  -3  -5  -1 11260.5 957.669  66
   3  -5   1 10176.9 921.413  59
   3  -5   1 10686.9 904.552  15
   3  -5   1 12123.0 861.837  21
  -3  -5  -1 12560.2 946.926   2
  -3  -5  -2 106.722 127.333   2
   3  -5   2 316.947 159.406  82
   3  -5   2 192.295 152.923  68
  -3  -5  -2 393.208 189.493  69
   3  -5   2 444.195 182.390  34
   3  -5   2 267.118 174.506  27
  -3  -5  -2 108.753 116.073  51
  -3  -5  -2 128.230 136.830  20
   3  -5   2 524.263 215.246  15
   3  -5   2 216.468 129.134  21
   3  -5   3 8474.22 783.210  15
   3  -5   3 8050.12 799.098  21
  -3  -5  -3 9929.16 902.782  20
  -3  -5  -3 7844.58 770.935  69
   3  -5   3 10191.1 931.871  68
   3  -5   3 9643.31 740.980  35
   3  -5   3 9232.82 807.138  34
   3  -5   3 8264.46 880.827  27
   3  -5   3 7991.76 851.259  62
  -3  -5  -3 8241.16 759.994  51
  -3  -5  -3 8613.78 751.731   2
  -3  -5  -3 8796.09 753.483   6
   3  -5   3 9119.62 819.914   5
   3  -5   4 12196.2 1030.34  21
  -3  -5  -4 9736.57 877.211  69
   3  -5   4 10669.6 981.420  68
  -3  -5  -4 12025.1 888.162  71
   3  -5   4 12767.7 980.136  34
   3  -5   4 11208.3 1060.47  27
   3  -5   4 10386.3 814.314  35
   3  -5   4 11726.2 1032.29  62
  -3  -5  -4 10876.4 859.315  51
  -3  -5  -4 11168.1 819.232   6
  -3  -5  -4 10585.2 806.235   2
   3  -5   4 11584.7 884.354   5
  -3  -5  -5 2865.08 443.631  71
   3  -5   5 3249.28 554.187  68
  -3  -5  -5 3887.58 573.918  66
  -3  -5  -5 3354.47 508.476  69
   3  -5   5 3247.13 469.003  35
   3  -5   5 2900.13 488.415  34
   3  -5   5 4250.20 617.544  62
  -3  -5  -5 3121.26 450.465  51
   3  -5   5 3306.19 556.974  21
  -3  -5  -6 7899.07 794.563  66
  -3  -5  -6 6119.02 654.641  71
   3  -5   6 6315.43 662.739  35
   3  -5   6 6795.48 728.794  34
   3  -5   6 7309.71 792.798  62
  -3  -5  -6 7081.34 648.186  51
   3  -5   6 5587.61 570.075  38
   3  -5   7 44683.0 2026.17  62
  -3  -5  -7 45431.3 2023.09  66
   3  -5   7 43636.2 1760.17  38
   3  -5   7 47309.6 1941.62  35
   3  -5   7 46841.4 2041.32  34
  -3  -5  -8 91574.7 3059.64  70
   3  -5   8 96203.7 3268.51  68
  -3  -5  -8 99279.6 3162.56  66
   3  -5   8 94777.9 3030.67  35
  -3  -5  -9 10921.8 766.524  70
  -3  -5  -9 11777.3 795.446  66
   3  -5   9 10630.2 815.972  68
   3  -5   9 9232.04 723.463  34
   3  -5   9 10162.8 723.153  35
  -3  -5 -10 29373.2 1182.09  70
   3  -5  10 29307.3 1254.31  68
   3  -5  11 5614.94 373.560  68
   3  -4 -14 8935.68 515.371  52
   3  -4 -13 8502.86 634.546  52
   3  -4 -12 6524.38 636.047  52
   3  -4 -11 13098.1 927.582  64
   3  -4 -11 12900.4 916.748  60
   3  -4 -11 13447.3 992.430  52
  -3  -4  11 14047.5 927.085  36
   3  -4 -10 2223.42 366.638  71
  -3  -4  10 2107.05 351.025  31
   3  -4 -10 2497.96 424.053  64
   3  -4 -10 1929.67 390.221  60
   3  -4  -9 60832.0 2360.97  64
   3  -4  -9 59678.0 2426.48  60
  -3  -4   9 56213.7 2214.45  31
  -3  -4   9 56884.1 2523.49  24
   3  -4  -9 56494.0 2443.47  22
  -3  -4   9 59994.5 2523.65  17
   3  -4  -9 61347.9 2280.40  71
   3  -4  -8 29673.5 1548.71  64
   3  -4  -8 31003.2 1641.66  60
  -3  -4   8 30710.5 1430.81  42
   3  -4  -8 27470.8 1423.41  54
   3  -4  -8 30737.4 1663.41  53
  -3  -4   8 31764.1 1727.28  24
   3  -4  -8 29303.2 1637.35  22
   3  -4  -7 15389.9 984.132   5
  -3  -4   7 15918.8 1013.80  42
   3  -4  -7 15136.4 1083.76  59
   3  -4  -7 16177.7 1082.10  64
   3  -4  -7 14583.4 960.712  54
   3  -4  -7 14686.3 1083.51  53
   3  -4  -7 13756.4 1056.95  22
  -3  -4   7 16587.9 1096.46  21
  -3  -4   6 144357. 4084.37   8
  -3  -4   6 136497. 3968.54   2
   3  -4  -6 144244. 4108.69   5
   3  -4  -6 134368. 3954.83  67
  -3  -4   6 136941. 4007.93  42
  -3  -4   6 135461. 3831.41  46
   3  -4  -6 140904. 4192.07  59
   3  -4  -6 143782. 4123.03  64
   3  -4  -6 136332. 4168.63  53
   3  -4  -6 133508. 4137.36  22
  -3  -4   6 124976. 4016.30  21
   3  -4  -6 135856. 4023.75  15
  -3  -4   5 68118.7 2426.92   2
  -3  -4   5 67215.4 2437.24   8
   3  -4  -5 68625.6 2516.71   5
  -3  -4   5 68242.3 2421.26  42
  -3  -4   5 68226.4 2318.48  46
   3  -4  -5 68798.3 2390.60  67
   3  -4  -5 69825.4 2444.33  64
   3  -4  -5 69111.5 2548.97  59
   3  -4  -5 65567.2 2462.74  53
  -3  -4   5 64309.0 2401.26  25
   3  -4  -5 69497.7 2504.70  15
   3  -4  -5 66258.6 2455.61  22
  -3  -4   5 67906.7 2464.82  21
  -3  -4   4 95195.6 3138.29   8
  -3  -4   4 106388. 3231.08   2
  -3  -4   4 100295. 3166.60  42
  -3  -4   4 104188. 3110.52  46
  -3  -4   4 98123.9 2932.03  29
   3  -4  -4 98497.9 3266.95  59
   3  -4  -4 102807. 3168.75  64
   3  -4  -4 101730. 3194.83  53
  -3  -4   4 103661. 3242.14  25
   3  -4  -4 105980. 3331.82  15
   3  -4  -4 99339.6 3176.17  22
  -3  -4   3 6852.59 622.279   8
   3  -4  -3 5800.89 628.512  82
   3  -4  -3 5645.39 592.467  75
   3  -4  -3 6830.89 679.746  59
  -3  -4   3 7026.57 577.187  29
   3  -4  -3 5588.85 470.879  27
   3  -4  -3 7122.42 690.548  15
  -3  -4   3 6290.41 582.584  46
  -3  -4   3 6306.78 590.749  42
   3  -4  -2 78653.8 2694.58  59
   3  -4  -2 77503.7 2655.87  82
  -3  -4   2 72917.3 2467.53  46
   3  -4  -2 72859.6 2360.68  27
  -3  -4   2 76250.3 2435.00  29
   3  -4  -1 8527.18 740.793  82
  -3  -4   1 11336.2 762.057  31
  -3  -4   1 10139.3 724.578  29
   3  -4  -1 9175.69 698.505  27
   3  -4  -1 10917.6 850.630  15
   3  -4  -1 9710.93 604.545  21
  -3  -4   1 9822.21 727.452  42
  -3  -4   1 8832.09 692.765  46
   3  -4   0 122836. 3714.99  82
  -3  -4   0 125502. 3505.05  31
   3  -4   0 125199. 3487.41  34
   3  -4   0 123813. 3671.75  27
  -3  -4   0 119680. 3739.66  66
   3  -4   0 125851. 3773.43  15
  -3  -4   0 128017. 3794.54  20
   3  -4   0 120337. 3404.88  21
  -3  -4   0 124917. 3572.50  42
   3  -4   1 43282.4 1867.70  82
   3  -4   1 50864.9 2005.77  68
  -3  -4  -1 47869.0 1865.00  69
   3  -4   1 46664.3 1954.91  27
   3  -4   1 45238.9 1663.20  35
   3  -4   1 46013.6 1790.31  34
  -3  -4  -1 44742.2 1675.88  31
  -3  -4  -1 44827.6 1930.82  66
   3  -4   1 43374.0 1954.72  62
  -3  -4  -1 45633.3 1759.59  42
  -3  -4  -1 46415.9 1816.83  46
  -3  -4  -1 48933.8 1984.18  20
   3  -4   1 46659.7 1928.40  15
  -3  -4  -2 98524.4 3110.31   2
   3  -4   2 102460. 3248.10  82
  -3  -4  -2 98630.6 3160.75  69
   3  -4   2 99646.3 3350.80  27
  -3  -4  -2 100873. 2887.13  31
   3  -4   2 101380. 3025.39  35
   3  -4   2 106426. 3217.03  34
   3  -4   2 97296.2 3348.78  62
  -3  -4  -2 98683.8 3303.68  66
  -3  -4  -2 98217.1 3208.72  51
   3  -4   2 98640.8 3181.21  15
  -3  -4  -2 99456.4 3324.56  20
  -3  -4  -3 87315.4 3098.79  20
   3  -4   3 87947.4 2922.30  15
  -3  -4  -3 89911.9 2879.76   2
   3  -4   3 91048.8 2970.50   5
   3  -4   3 88313.7 3017.46  82
  -3  -4  -3 92000.0 3023.86  69
   3  -4   3 88836.6 3228.33  27
   3  -4   3 95261.9 2955.70  35
   3  -4   3 92647.4 3058.70  34
   3  -4   3 88880.6 3205.24  62
  -3  -4  -3 88827.9 3120.94  66
  -3  -4  -3 82658.1 2944.24  51
   3  -4   3 94427.7 2798.17  38
   3  -4   4 50789.7 1956.00  15
  -3  -4  -4 52487.1 1923.07   2
   3  -4   4 50258.3 1971.90   5
   3  -4   4 50831.6 2105.35  82
  -3  -4  -4 51309.1 2104.53  69
  -3  -4  -4 52634.1 2038.56  71
   3  -4   4 53948.2 2205.82  34
   3  -4   4 47360.5 2004.80  35
  -3  -4  -4 48295.2 2162.57  66
   3  -4   4 47984.6 2233.81  62
  -3  -4  -4 47704.5 2032.39  51
   3  -4   4 49986.2 1941.21  38
   3  -4   5 105871. 3414.14  82
  -3  -4  -5 106037. 3487.48  69
  -3  -4  -5 99845.7 3350.24  71
   3  -4   5 103711. 3805.14  27
   3  -4   5 104659. 3545.23  34
   3  -4   5 102488. 3415.52  35
   3  -4   5 107632. 3722.04  62
  -3  -4  -5 103827. 3375.64  51
   3  -4   5 107181. 3330.08  38
  -3  -4  -6 27999.1 1481.02  71
   3  -4   6 25149.2 1653.95  27
   3  -4   6 25066.3 1442.69  35
  -3  -4  -6 24413.2 1353.42  51
  -3  -4  -6 25690.6 1371.32  55
   3  -4   6 25928.0 1405.91  38
   3  -4   6 24556.9 1551.63  62
   3  -4   7 26572.2 1489.44  35
   3  -4   7 26881.9 1715.60  27
   3  -4   7 25101.4 1543.26  62
  -3  -4  -7 25649.0 1383.92  55
  -3  -4  -7 24404.2 1336.19  51
   3  -4   7 27096.3 1442.89  38
  -3  -4  -8 1728.79 366.468  70
   3  -4   8 2101.07 427.135  34
   3  -4   8 2830.53 459.173  35
   3  -4   8 2078.14 416.534  62
  -3  -4  -8 2489.45 455.591  66
  -3  -4  -8 2209.11 370.154  51
  -3  -4  -8 2091.87 367.032  55
   3  -4   8 2353.17 417.753  38
  -3  -4  -9 1432.12 320.799  70
   3  -4   9 1933.34 362.335  35
   3  -4   9 2341.46 398.482  34
   3  -4   9 2211.49 407.085  62
  -3  -4  -9 2302.45 409.943  66
  -3  -4  -9 2270.42 356.340  55
   3  -4   9 1848.51 337.897  38
   3  -4  10 8157.15 643.892  62
  -3  -4 -10 8034.93 665.495  70
   3  -4  10 8020.86 635.393  38
   3  -4  10 8489.82 674.985  35
  -3  -4 -11 14751.7 772.294  70
   3  -4  11 13122.8 777.848  68
   3  -3 -14 5457.52 467.448  52
   3  -3 -13 10180.6 765.782  52
   3  -3 -12 46749.5 2000.04  52
   3  -3 -11 8792.25 732.543  60
   3  -3 -11 7705.27 765.054  64
   3  -3 -11 7701.82 763.577  74
   3  -3 -10 15408.0 1095.12  64
   3  -3 -10 12343.3 934.035  60
  -3  -3  10 16497.2 1233.91  24
  -3  -3  10 13017.5 1027.34  17
   3  -3 -10 14553.6 1097.42  74
  -3  -3   9 35053.9 1868.10  24
   3  -3  -9 34612.3 1802.09  22
   3  -3  -9 36886.1 1771.53  78
   3  -3  -9 33225.3 1746.31  74
   3  -3  -9 36748.9 1608.13  71
   3  -3  -9 38010.7 1810.36  64
   3  -3  -9 34602.4 1685.72  60
   3  -3  -9 36557.0 1756.02  54
   3  -3  -9 34181.0 1710.24  55
  -3  -3   9 39221.0 1581.21  42
   3  -3  -8 39713.2 1856.99  78
   3  -3  -8 37870.6 1817.02  74
  -3  -3   8 39351.5 1672.90   8
   3  -3  -8 37855.9 1795.64  64
   3  -3  -8 41666.8 1827.96  60
   3  -3  -8 39024.4 1783.84  54
   3  -3  -8 38370.3 1763.96  55
   3  -3  -8 39445.0 1871.53  53
  -3  -3   8 35435.9 1844.47  24
   3  -3  -8 42016.1 1923.83  22
  -3  -3   7 2151.20 393.813  24
   3  -3  -7 2357.24 415.810  22
   3  -3  -7 1714.78 363.402  78
   3  -3  -7 2093.34 386.595  74
   3  -3  -7 1720.94 350.194  64
   3  -3  -7 2312.19 387.030  59
  -3  -3   7 2388.95 330.595  46
   3  -3  -7 2040.88 366.681  54
   3  -3  -7 2483.20 426.724  53
  -3  -3   7 2247.48 362.230   8
   3  -3  -7 2166.22 331.646   5
  -3  -3   6 61789.4 2186.66   8
   3  -3  -6 60205.7 2158.55   5
   3  -3  -6 55876.3 2276.86  78
   3  -3  -6 60253.9 2187.91  59
   3  -3  -6 56348.9 2181.34  64
   3  -3  -6 56936.3 2212.13  53
   3  -3  -6 56306.0 2111.41  54
  -3  -3   6 60377.1 2258.12  24
   3  -3  -6 60831.8 2128.87  15
   3  -3  -6 59008.4 2228.30  22
  -3  -3   6 58803.9 2079.81  21
   3  -3  -5 2430.24 389.651  75
  -3  -3   5 2257.99 351.905   8
   3  -3  -5 2398.99 376.634   5
  -3  -3   5 1931.88 284.680  29
  -3  -3   5 2411.93 332.849  25
   3  -3  -5 3467.32 436.413  15
   3  -3  -5 1863.80 320.108  22
  -3  -3   5 1733.08 293.924  21
   3  -3  -5 1827.83 357.932  78
   3  -3  -4 27966.6 1347.46  15
   3  -3  -4 26101.0 1250.73  22
  -3  -3   4 29527.8 1211.38  29
   3  -3  -4 29685.0 1402.66   5
  -3  -3   4 28671.3 1308.20   8
   3  -3  -3 98055.4 2994.61  15
   3  -3  -3 93202.3 2784.17  22
  -3  -3   3 95118.5 2496.54  16
   3  -3  -3 88374.2 2481.81  27
  -3  -3   3 98706.9 2761.99  29
  -3  -3   3 98418.2 2868.08   8
  -3  -3   2 51774.5 1740.43  29
   3  -3  -2 49487.4 1618.70  27
  -3  -3   2 45015.3 1694.10  46
  -3  -3   2 49572.3 1565.40  16
  -3  -3   1 110077. 3015.30  29
   3  -3  -1 104992. 2963.00  27
  -3  -3   1 103174. 2996.72  46
   3  -3  -1 104372. 3184.98  15
  -3  -3   1 107082. 2872.01  16
   3  -3  -1 101950. 2719.20  21
  -3  -3   1 105485. 3021.08   8
  -3  -3   0 63959.6 2007.37  29
   3  -3   0 57770.1 1949.99  34
   3  -3   0 56864.3 1981.22  27
  -3  -3   0 57953.1 1910.99  42
  -3  -3   0 53803.8 1910.59  46
   3  -3   0 57167.9 2078.91  15
  -3  -3   0 57173.0 2052.00  20
  -3  -3   0 57734.7 1886.22  16
  -3  -3   0 60620.3 1949.94   8
  -3  -3  -1 15201.2 787.417  31
   3  -3   1 15825.9 865.564  35
  -3  -3  -1 15479.6 882.257  29
   3  -3   1 15636.7 908.016  34
   3  -3   1 16136.0 963.641  27
  -3  -3  -1 17825.2 884.993  42
  -3  -3  -1 16569.4 889.650  46
   3  -3   1 15468.1 803.265  38
  -3  -3  -1 15482.4 857.509  16
  -3  -3  -1 16279.1 982.360  20
   3  -3   1 15521.5 930.810  15
  -3  -3  -2 27600.4 1087.97  31
   3  -3   2 30640.7 1332.50  35
   3  -3   2 29968.1 1379.40  34
   3  -3   2 32114.2 1404.89   5
  -3  -3  -2 28578.8 1192.91  42
  -3  -3  -2 28881.7 1259.36  46
   3  -3   2 27893.9 1220.77  38
  -3  -3  -2 27284.8 1377.15  20
  -3  -3  -2 29331.3 1302.12  16
   3  -3   2 27540.5 1306.32  15
   3  -3   3 8133.79 653.279  15
  -3  -3  -3 7741.54 651.856  16
  -3  -3  -3 7164.67 677.552  20
   3  -3   3 7891.06 657.893   5
   3  -3   3 7828.46 714.556  82
   3  -3   3 7803.52 661.942  35
   3  -3   3 8097.44 713.862  34
   3  -3   3 6798.17 718.080  62
  -3  -3  -3 6703.91 679.612  66
  -3  -3  -3 7334.40 678.784  51
   3  -3   3 7164.68 612.063  38
   3  -3   4 20186.4 1072.75   5
  -3  -3  -4 20218.5 1007.43   2
   3  -3   4 19000.0 1179.41  82
  -3  -3  -4 18973.2 1121.55  69
  -3  -3  -4 20555.4 1237.56  66
  -3  -3  -4 20547.0 1147.83  71
   3  -3   4 21826.0 1214.31  35
  -3  -3  -4 18774.5 980.138  30
  -3  -3  -4 19565.6 1161.51  51
   3  -3   4 20752.2 1218.71  43
   3  -3   4 20074.1 1127.96  38
   3  -3   5 1170.61 304.300  82
  -3  -3  -5 1474.33 318.774  71
   3  -3   5 1516.90 334.661  35
  -3  -3  -5 1848.40 307.194  30
  -3  -3  -5 770.366 276.763  66
  -3  -3  -5 1706.19 356.104  51
   3  -3   5 893.981 258.386  38
   3  -3   6 8667.91 806.988  82
   3  -3   6 9261.58 858.438  35
  -3  -3  -6 9787.06 750.309  30
   3  -3   6 8990.78 848.143  34
   3  -3   6 9402.54 976.286  27
  -3  -3  -6 8681.96 841.076  66
  -3  -3  -6 8817.42 822.110  71
  -3  -3  -6 8482.99 790.353  51
   3  -3   6 9456.33 842.429  38
   3  -3   7 57.3510 136.802  82
  -3  -3  -7 184.739 173.781  70
   3  -3   7 192.906 153.373  34
  -3  -3  -7 191.424 144.389  30
   3  -3   7 479.964 255.948  27
  -3  -3  -7 172.822 150.521  51
  -3  -3  -7 61.5587 113.756  55
   3  -3   7 306.539 184.956  38
   3  -3   8 48949.2 2052.45  82
  -3  -3  -8 51986.5 2233.54  70
   3  -3   8 51477.6 2456.98  27
   3  -3   8 51858.4 2226.02  34
  -3  -3  -8 51090.0 2017.44  30
   3  -3   8 56010.2 2396.84  62
  -3  -3  -8 49960.2 2116.92  51
  -3  -3  -8 50997.8 2206.68  55
   3  -3   8 50033.3 2187.10  38
  -3  -3  -9 9647.98 852.632  70
  -3  -3  -9 9226.99 746.194  30
   3  -3   9 9751.63 853.530  35
   3  -3   9 9935.38 863.968  34
   3  -3   9 10453.8 923.948  62
  -3  -3  -9 9964.30 862.769  55
  -3  -3  -9 10460.8 832.299  51
   3  -3   9 9661.45 847.994  38
  -3  -3 -10 8278.70 734.356  70
   3  -3  10 8690.41 741.704  35
  -3  -3 -10 8005.94 632.043  30
   3  -3  10 7994.40 730.735  62
  -3  -3 -10 8784.44 741.136  55
   3  -3  10 7395.73 690.047  38
  -3  -3 -11 11680.9 778.884  70
   3  -3  11 11029.2 749.650  35
  -3  -3 -11 12665.6 778.799  55
   3  -3  11 13146.9 807.251  38
   3  -3  11 10424.6 714.496  62
  -3  -3 -12 1728.12 213.560  55
   3  -2 -14 11023.4 744.170  52
   3  -2 -13 349.346 176.632  52
   3  -2 -13 257.817 174.006  74
   3  -2 -12 57976.5 2405.33  55
   3  -2 -12 53096.0 2248.73  52
   3  -2 -12 55673.3 2352.61  74
  -3  -2  11 1174.67 319.780  13
   3  -2 -11 1151.50 331.847  74
   3  -2 -11 1155.01 260.535  79
   3  -2 -11 911.849 251.820  81
   3  -2 -11 1391.10 313.395  78
   3  -2 -11 1175.92 317.399  64
   3  -2 -11 1558.32 389.804  55
  -3  -2  11 785.895 275.706  24
   3  -2 -10 52363.2 2310.30  74
   3  -2 -10 51507.0 2005.17  81
   3  -2 -10 49474.8 1948.49  79
   3  -2 -10 49875.0 2123.81  78
   3  -2 -10 45006.9 2104.46  64
   3  -2 -10 48660.3 2235.41  55
   3  -2 -10 48768.9 2157.55  54
  -3  -2  10 50273.3 2286.83  24
  -3  -2  10 48973.5 2059.42  17
  -3  -2   9 27999.7 1333.98   8
   3  -2  -9 26438.2 1541.57  74
   3  -2  -9 26981.2 1345.20  79
   3  -2  -9 26626.3 1482.30  78
   3  -2  -9 28230.9 1517.79  64
   3  -2  -9 26546.4 1341.72  60
   3  -2  -9 28614.8 1529.21  54
   3  -2  -9 28026.3 1575.07  55
  -3  -2   9 26771.8 1550.80  24
   3  -2  -9 27259.5 1522.00  22
  -3  -2   8 26257.4 1319.87   8
   3  -2  -8 29425.8 1559.05  74
   3  -2  -8 28963.3 1522.62  78
   3  -2  -8 28531.4 1347.65  79
   3  -2  -8 28601.3 1493.49  64
   3  -2  -8 29559.3 1392.67  60
   3  -2  -8 29753.6 1555.26  55
   3  -2  -8 28600.2 1492.31  54
  -3  -2   8 27192.6 1491.18  24
   3  -2  -8 29325.9 1534.20  22
  -3  -2   7 150690. 4146.33   8
   3  -2  -7 153476. 4390.04  74
   3  -2  -7 147148. 4327.33  78
   3  -2  -7 137909. 4164.96  85
   3  -2  -7 146213. 4282.66  55
   3  -2  -7 151801. 4278.27  54
   3  -2  -7 150520. 4332.54  53
  -3  -2   7 154454. 4326.04  24
   3  -2  -7 151522. 4322.08  22
   3  -2  -7 138354. 4206.31  64
  -3  -2   6 95177.5 2997.66  24
   3  -2  -6 98158.3 3036.02  22
  -3  -2   6 94481.8 2700.76  21
   3  -2  -6 98539.2 2906.04   5
  -3  -2   6 101119. 2994.34   8
  -3  -2   5 36385.0 1486.81  24
   3  -2  -5 36881.0 1510.39  22
  -3  -2   5 36698.6 1337.91  21
   3  -2  -5 39558.1 1554.38   5
  -3  -2   5 39171.1 1542.99   8
   3  -2  -4 126584. 3518.30  15
  -3  -2   4 125311. 3150.49  16
   3  -2  -4 122320. 3407.82  22
  -3  -2   4 123984. 3437.70   1
   3  -2  -4 126020. 3538.89   5
  -3  -2   4 132370. 3517.67   8
  -3  -2   3 66094.2 1859.67  16
   3  -2  -3 67405.8 1990.83  22
   3  -2  -3 65431.3 2132.91  15
   3  -2  -3 67430.1 2181.67   5
  -3  -2   3 65412.0 2078.72   1
  -3  -2   3 66681.7 2073.79   8
   3  -2  -3 59431.0 1682.20  27
  -3  -2   2 122492. 3049.57  16
   3  -2  -2 126689. 3073.61  22
  -3  -2   2 129376. 3288.20   1
   3  -2  -2 120695. 2980.78  27
  -3  -2   1 40421.1 1398.33   8
  -3  -2   1 39205.0 1453.67   1
   3  -2  -1 38497.6 1518.73   5
  -3  -2   1 40043.9 1357.20  47
  -3  -2   1 39958.4 1342.05  16
   3  -2  -1 36431.7 1466.97  15
  -3  -2   1 36899.2 1364.42  29
  -3  -2   0 244591. 5746.76   8
   3  -2   0 233302. 5938.16   5
  -3  -2   0 232096. 5824.29   1
  -3  -2   0 247138. 5788.00  47
  -3  -2   0 240698. 5877.65  20
  -3  -2   0 253512. 5779.55  16
   3  -2   0 238339. 5929.36  15
   3  -2   0 234980. 5850.61  34
  -3  -2  -1 97076.9 2673.66   8
  -3  -2  -1 97424.8 2801.25   1
   3  -2   1 95910.1 2871.14   5
  -3  -2  -1 95505.3 2715.29  46
   3  -2   1 96935.8 2780.99  38
   3  -2   1 103732. 2902.87  15
  -3  -2  -1 102098. 2918.16  20
  -3  -2  -1 99700.3 2797.36  16
  -3  -2  -1 101543. 2787.09  29
   3  -2   1 98816.5 2833.73  35
   3  -2   1 95952.6 2879.51  34
  -3  -2  -2 128540. 3424.22   1
   3  -2   2 120791. 3494.37   5
  -3  -2  -2 126747. 3262.86  42
   3  -2   2 131267. 3524.45  38
  -3  -2  -2 131419. 3385.78  46
  -3  -2  -2 124939. 3607.47  20
   3  -2   2 130743. 3510.50  15
  -3  -2  -2 128865. 3500.07  16
   3  -2   2 128401. 3572.47  35
   3  -2   2 125614. 3626.77  34
  -3  -2  -2 122721. 3414.16  29
   3  -2   3 94604.4 2880.78   5
   3  -2   3 100147. 3055.90  35
   3  -2   3 104749. 3047.22  38
  -3  -2  -3 100689. 2789.90  46
  -3  -2  -3 100301. 2997.02  16
  -3  -2  -4 222787. 5642.03  16
   3  -2   4 212032. 5758.34  82
   3  -2   4 223629. 5760.79  35
   3  -2   4 223179. 5775.66  34
  -3  -2  -4 205321. 5700.50  66
  -3  -2  -4 205168. 5660.89  51
   3  -2   4 223005. 5720.64  38
   3  -2   5 43480.9 1891.70  82
  -3  -2  -5 43957.0 1730.15  30
   3  -2   5 40371.2 1860.28  34
  -3  -2  -5 41566.9 1871.60  66
  -3  -2  -5 41203.2 1823.31  51
   3  -2   5 42489.7 1859.28  38
   3  -2   6 33878.7 1670.38  82
   3  -2   6 30013.0 1603.31  35
  -3  -2  -6 32547.3 1523.38  30
   3  -2   6 32236.3 1649.47  34
  -3  -2  -6 32229.7 1665.75  66
  -3  -2  -6 34309.7 1657.97  70
  -3  -2  -6 31553.0 1615.08  51
   3  -2   6 33511.9 1672.56  38
   3  -2   7 37291.9 1829.38  82
   3  -2   7 38530.1 1872.83  35
  -3  -2  -7 36525.8 1717.49  30
   3  -2   7 40471.9 1887.51  34
  -3  -2  -7 36893.4 1818.38  70
  -3  -2  -7 38836.1 1927.08  66
  -3  -2  -7 39253.4 1867.16  51
   3  -2   7 38923.3 1878.49  38
  -3  -2  -8 16747.3 1193.35  70
  -3  -2  -8 18077.6 1256.66  66
  -3  -2  -8 15878.6 1187.88  55
  -3  -2  -8 15460.8 1132.72  51
   3  -2   8 16726.4 1148.89  82
   3  -2   8 15761.4 1151.69  35
  -3  -2  -8 14624.3 1033.93  30
   3  -2   8 16239.1 1142.46  34
  -3  -2  -9 10841.5 950.528  70
  -3  -2  -9 12007.7 999.528  55
  -3  -2  -9 10701.0 910.608  51
   3  -2   9 11148.6 907.973  82
   3  -2   9 11800.8 957.441  35
   3  -2   9 9619.51 846.923  34
  -3  -2  -9 12015.3 912.591  30
  -3  -2 -10 15123.6 1078.85  70
   3  -2  10 15419.5 1039.71  35
  -3  -2 -10 14267.3 959.796  30
  -3  -2 -10 13622.6 1030.41  55
  -3  -2 -10 15318.0 1020.14  51
   3  -2  10 15536.1 984.735  82
   3  -2  11 6032.64 574.128  35
  -3  -2 -11 5763.94 544.770  30
   3  -2  11 5458.30 574.883  62
   3  -2  11 6171.95 559.013  48
   3  -2  11 5026.26 545.559  38
  -3  -2 -11 6343.67 613.406  55
  -3  -2 -12 8012.84 588.037  55
   3  -2  12 8901.10 574.903  62
   3  -1 -14 5476.46 574.952  74
   3  -1 -13 11413.1 818.271  81
   3  -1 -13 13684.8 1012.18  74
   3  -1 -13 12622.5 913.398  52
   3  -1 -12 36714.5 1706.76  79
   3  -1 -12 38034.8 1703.37  78
   3  -1 -12 38823.0 1793.59  81
   3  -1 -12 39144.0 1871.42  52
   3  -1 -12 39061.3 1955.09  74
   3  -1 -11 26027.0 1599.82  74
   3  -1 -11 26385.9 1449.18  78
   3  -1 -11 24573.1 1428.48  81
   3  -1 -11 24668.8 1400.15  79
  -3  -1  11 26468.4 1483.86  13
   3  -1 -11 24471.8 1562.83  55
  -3  -1  11 26655.5 1562.77  24
   3  -1 -10 161939. 5159.69  74
   3  -1 -10 172125. 5005.87  78
   3  -1 -10 165586. 4939.35  81
   3  -1 -10 173968. 4960.72  79
   3  -1 -10 169215. 5243.51  55
  -3  -1  10 176990. 5124.99  24
   3  -1 -10 177138. 5105.71  22
   3  -1  -9 78875.1 3009.13  84
   3  -1  -9 76221.4 2758.88  81
   3  -1  -9 76900.0 2845.36  78
   3  -1  -9 80152.4 2794.48  79
   3  -1  -9 81884.1 3021.93  55
   3  -1  -9 76167.9 2821.43  52
   3  -1  -9 75276.2 2801.67  54
  -3  -1   9 80595.9 2857.58  24
   3  -1  -9 73617.1 2798.23  22
  -3  -1   9 82175.9 2639.80   8
   3  -1  -8 47659.6 2103.72  84
   3  -1  -8 50265.6 2085.55  78
   3  -1  -8 51293.0 2001.36  81
   3  -1  -8 50174.9 2006.81  79
   3  -1  -8 50920.4 2162.96  55
   3  -1  -8 46912.5 1990.75  52
   3  -1  -8 47248.6 2006.18  54
  -3  -1   8 50928.1 2020.72  24
   3  -1  -8 51125.7 2072.79  22
  -3  -1   8 50367.3 1933.60   8
   3  -1  -7 6946.71 682.042  84
   3  -1  -7 6787.90 672.859  55
   3  -1  -7 6058.94 606.425  54
  -3  -1   7 6779.04 600.748  24
   3  -1  -7 6195.96 604.077  22
  -3  -1   7 6124.25 468.653   9
  -3  -1   7 6220.84 578.878   8
  -3  -1   6 63486.3 2180.60  24
   3  -1  -6 70055.9 2297.70  22
  -3  -1   6 68348.8 2090.38   1
  -3  -1   6 69302.6 2028.56   9
  -3  -1   6 71862.7 2319.77   8
  -3  -1   5 42452.0 1557.80  24
   3  -1  -5 45200.3 1621.08  22
  -3  -1   5 44893.7 1458.87   9
  -3  -1   5 47650.3 1593.29   1
  -3  -1   4 8043.29 528.297  24
   3  -1  -4 8124.65 534.503  22
  -3  -1   4 9331.09 601.639   1
  -3  -1   4 9227.85 527.487   9
   3  -1  -4 9815.72 643.092   5
   3  -1  -3 62602.6 1809.21  22
  -3  -1   3 64484.3 1974.89   1
  -3  -1   3 65593.4 1853.42   9
   3  -1  -3 64499.7 2035.80   5
  -3  -1   3 57836.1 1901.02   8
   3  -1  -2 4082.19 290.566  22
  -3  -1   2 3968.43 336.159   9
  -3  -1   2 3556.86 341.573   8
  -3  -1   1 22914.1 945.424  47
   3  -1  -1 24265.2 744.169  22
   3  -1  -1 22973.3 1040.36   5
  -3  -1   1 22001.8 911.570   8
  -3  -1   0 68343.3 2051.40  47
  -3  -1   0 72883.0 2111.21   1
   3  -1   0 70444.0 1806.24  11
   3  -1   0 69763.6 2152.24   5
  -3  -1   0 76240.9 2013.27   8
  -3  -1   0 71091.5 2066.45  16
   3  -1   0 67193.9 1610.33  22
  -3  -1   0 68897.4 2056.47  20
  -3  -1  -1 213397. 5323.06  47
   3  -1   1 226137. 5404.38  38
  -3  -1  -1 225885. 5139.55   8
  -3  -1  -1 216017. 5287.28   1
   3  -1   1 210842. 4837.05  10
   3  -1   1 225154. 5409.69   5
  -3  -1  -1 226893. 5411.66  20
  -3  -1  -1 221295. 5324.50  16
  -3  -1  -1 221046. 5268.43  29
   3  -1   1 233010. 5463.82  35
   3  -1   2 67115.7 2134.40  38
  -3  -1  -2 65364.4 1782.65   8
  -3  -1  -2 63942.0 1951.13   1
   3  -1   2 63853.8 2024.54   5
  -3  -1  -2 63715.2 2026.16  16
  -3  -1  -2 64477.1 2084.32  20
  -3  -1  -2 60863.2 1919.43  29
   3  -1   2 63648.5 2147.43  34
  -3  -1  -3 78557.5 2273.73   1
  -3  -1  -3 79041.0 2194.19  46
   3  -1   3 83993.1 2583.50  38
   3  -1   3 77059.4 2543.98  34
  -3  -1  -3 78223.7 2302.56  29
  -3  -1  -4 62573.6 2110.05  16
  -3  -1  -4 59991.7 1823.96   1
   3  -1   4 61277.5 2202.99  34
   3  -1   4 59095.0 2163.88  35
   3  -1   5 32051.7 1552.17  35
   3  -1   5 34874.5 1595.38  34
  -3  -1  -5 31535.1 1482.00  70
  -3  -1  -5 32355.5 1572.10  66
  -3  -1  -5 35197.4 1533.27  16
  -3  -1  -6 83334.8 2759.41  58
  -3  -1  -6 83217.3 2769.86  30
   3  -1   6 81348.0 2869.53  35
   3  -1   6 79195.9 2802.54  34
  -3  -1  -6 78066.0 2853.24  51
  -3  -1  -6 81513.4 2917.97  66
  -3  -1  -6 78153.4 2788.10  70
   3  -1   7 36231.7 1792.57  35
   3  -1   7 37602.1 1779.44  34
  -3  -1  -7 35703.4 1702.12  30
   3  -1   7 36114.7 1812.03  38
  -3  -1  -7 39307.6 1867.38  51
  -3  -1  -7 38133.5 1734.04  76
  -3  -1  -7 36053.6 1792.49  70
  -3  -1  -7 38733.8 1893.74  66
  -3  -1  -8 10851.3 875.500  76
  -3  -1  -8 9804.08 910.974  70
   3  -1   8 11436.8 989.975  38
   3  -1   8 10406.6 910.784  35
  -3  -1  -8 10967.0 900.003  30
   3  -1   8 9551.44 847.023  34
  -3  -1  -8 11292.1 961.981  51
   3  -1   8 10369.3 926.515  11
   3  -1   8 10233.4 841.207  10
   3  -1   9 22971.1 1426.48  11
   3  -1   9 21190.3 1261.25  10
   3  -1   9 27023.2 1486.76  82
   3  -1   9 23312.2 1394.74  35
  -3  -1  -9 22795.7 1355.44  30
  -3  -1  -9 23520.0 1319.88  76
  -3  -1  -9 25087.7 1485.71  70
  -3  -1  -9 23999.0 1454.55  51
   3  -1   9 26837.9 1508.10  38
   3  -1  10 54345.4 2189.42  82
   3  -1  10 54013.9 2244.08  38
   3  -1  10 53351.8 2164.56  35
  -3  -1 -10 56832.5 2224.66  30
   3  -1  11 9261.18 723.443  82
  -3  -1 -11 10558.6 775.141  30
  -3  -1 -11 9308.77 802.823  55
   3  -1  11 10325.6 778.533  48
   3  -1  11 10555.5 809.234  38
   3  -1  12 11764.3 631.596  82
   3  -1  12 13662.7 802.231  62
  -3  -1 -12 12403.1 798.194  55
   3  -1  12 12564.3 748.600  48
   3  -1  12 11865.6 742.714  38
  -3  -1 -12 11884.9 725.905  30
  -3  -1 -13 13155.5 630.091  55
   3   0 -15 3626.63 339.804  81
   3   0 -14 34900.6 1524.82  81
   3   0 -14 38741.2 1513.05  79
   3   0 -13 12032.7 991.180  74
   3   0 -13 10766.0 890.572  81
   3   0 -13 11379.3 882.081  79
   3   0 -12 4822.65 663.658  84
   3   0 -12 5306.05 617.192  78
   3   0 -12 5817.88 692.235  81
   3   0 -12 5616.35 667.724  79
   3   0 -12 4954.90 686.707  55
   3   0 -12 5777.33 727.093  74
   3   0 -11 62.6105 115.693  64
   3   0 -11 275.356 220.260  81
   3   0 -11 123.364 131.598  78
   3   0 -11 304.166 198.663  55
   3   0 -11 224.994 195.938  74
   3   0 -10 11620.8 1055.02  74
   3   0 -10 13186.5 1036.90  78
   3   0 -10 14855.8 1125.80  81
   3   0 -10 12882.6 1007.67  64
   3   0 -10 13542.5 1043.56  52
   3   0 -10 13098.1 1116.25  55
   3   0 -10 12165.9 980.600  54
  -3   0  10 13664.6 1021.85  24
   3   0  -9 11255.6 994.948  74
   3   0  -9 10924.9 983.651  84
   3   0  -9 12660.2 996.129  78
   3   0  -9 14116.4 1065.54  81
   3   0  -9 13401.7 987.591  64
   3   0  -9 13241.8 985.188  52
   3   0  -9 13346.1 1087.97  55
   3   0  -9 12501.5 973.359  54
  -3   0   9 13095.9 935.684  24
   3   0  -9 12924.7 981.704  22
  -3   0   8 15513.2 895.757   9
   3   0  -8 14795.8 1077.99  74
   3   0  -8 12512.1 957.871  81
   3   0  -8 15054.5 1078.26  84
   3   0  -8 14447.0 1032.02  78
   3   0  -8 13316.4 1024.68  55
   3   0  -8 13601.1 956.267  52
   3   0  -8 14472.2 991.998  54
  -3   0   8 15610.3 951.224  24
   3   0  -8 15053.9 1000.06  22
   3   0  -8 16176.2 1039.38  64
  -3   0   7 33336.5 1337.84   9
  -3   0   7 31408.0 1333.85  24
   3   0  -7 29480.2 1383.02  22
  -3   0   6 43304.9 1493.91   1
  -3   0   6 43355.8 1554.75   9
  -3   0   6 43646.0 1523.11  24
  -3   0   6 42049.1 1361.77  18
   3   0  -6 44345.4 1627.21  22
  -3   0   5 89593.8 2505.77   9
  -3   0   5 85422.0 2393.44  24
  -3   0   5 87337.4 2242.12  18
   3   0  -5 84216.4 2495.02  22
   3   0  -5 91099.1 2473.85  26
  -3   0   4 350010. 8064.73   9
  -3   0   4 367819. 7911.86  24
   3   0  -4 341676. 7956.69  22
  -3   0   4 350788. 7712.05  18
   3   0  -4 345259. 8070.62  26
  -3   0   3 246085. 5613.56   9
  -3   0   3 235450. 5244.39  18
   3   0  -3 246083. 5668.43  26
  -3   0   2 122894. 3174.04   9
   3   0  -2 122675. 2870.15  22
  -3   0   1 159992. 4063.71   9
  -3   0   1 172114. 3919.35  20
   3   0  -1 159177. 4136.71  26
   3   0   0 2922.33 342.648  38
   3   0   0 3858.10 293.548  11
  -3   0   0 3833.72 314.585  20
   3   0   0 4214.41 376.760  26
   3   0   1 22363.9 904.344  11
   3   0   1 21768.0 752.124  10
  -3   0  -1 22600.4 810.192   8
   3   0   1 22271.6 961.678  26
  -3   0  -1 22993.4 962.235  37
   3   0   2 7644.92 560.118  48
  -3   0  -2 7273.63 528.092  47
   3   0   2 6777.71 500.164  11
   3   0   2 7848.67 456.187  10
  -3   0  -2 7139.98 371.608   8
  -3   0  -2 8179.37 547.755  16
  -3   0  -2 7764.45 389.363  14
  -3   0  -2 6671.65 450.142  29
   3   0   2 7183.81 511.228  26
   3   0   2 7773.26 595.168  35
  -3   0  -2 7009.17 495.548  33
   3   0   3 392305. 9226.79  38
   3   0   3 380970. 9065.71  11
   3   0   3 404979. 8862.67  10
  -3   0  -3 382148. 8605.86  14
  -3   0  -3 414499. 9087.76  16
  -3   0  -3 385406. 8765.58  29
   3   0   3 380562. 9175.68  35
  -3   0  -3 384858. 8984.20  33
   3   0   4 212915. 5518.51  38
   3   0   4 202271. 5412.33  35
   3   0   4 204902. 5373.51  34
  -3   0  -4 207852. 5270.02  16
  -3   0  -4 208064. 4873.04  14
   3   0   4 210010. 5371.70  11
   3   0   4 216823. 5198.75  10
  -3   0  -4 202776. 4960.00   1
   3   0   5 19195.9 1124.16  11
   3   0   5 20925.1 1059.40  10
   3   0   5 20870.8 1195.41  38
  -3   0  -5 19776.4 1165.83  66
   3   0   5 21221.4 1186.06  35
   3   0   5 19149.5 1095.57  34
  -3   0  -5 21383.3 1194.67  58
  -3   0  -5 20881.1 1202.33  51
  -3   0  -5 20627.3 1077.34  16
  -3   0  -6 37832.7 1620.50  16
   3   0   6 38891.8 1750.32  11
   3   0   6 36895.7 1587.36  10
   3   0   6 36137.6 1573.59  77
  -3   0  -6 35565.1 1685.65  70
  -3   0  -6 37948.1 1776.63  66
   3   0   6 38561.4 1739.88  35
  -3   0  -6 34121.7 1681.24  58
  -3   0  -6 38134.4 1794.22  51
   3   0   6 37591.0 1784.90  38
  -3   0  -7 72844.7 2751.31  70
   3   0   7 71312.7 2481.53  77
  -3   0  -7 76487.9 2711.85  30
   3   0   7 75028.6 2710.01  35
   3   0   7 72378.7 2764.15  38
   3   0   7 72377.3 2743.37  11
   3   0   7 72393.2 2576.70  10
  -3   0  -8 2692.87 482.570  70
  -3   0  -8 2070.92 420.672  76
   3   0   8 3253.70 520.354  38
   3   0   8 1977.23 395.139  35
  -3   0  -8 2112.33 413.105  30
  -3   0  -8 2690.35 495.812  55
   3   0   8 2067.25 421.785  11
   3   0   8 2062.41 382.546  10
  -3   0  -9 25962.0 1482.90  76
   3   0   9 24692.2 1450.09  38
  -3   0  -9 24130.0 1407.45  30
   3   0   9 23727.6 1358.10  35
  -3   0  -9 26044.0 1558.00  51
  -3   0  -9 24002.1 1501.52  55
   3   0   9 23188.2 1448.58  11
   3   0   9 24328.7 1369.58  10
  -3   0 -10 16093.3 1095.53  30
  -3   0 -10 17682.1 1226.87  55
  -3   0 -10 15696.6 1095.52  76
   3   0  10 19265.4 1210.25  48
   3   0  10 15627.5 1094.96  38
  -3   0 -11 848.077 229.729  80
   3   0  11 1183.52 291.157  82
   3   0  11 1818.86 348.691  48
   3   0  11 1809.15 329.154  38
  -3   0 -11 1018.29 286.929  55
   3   0  12 17643.3 902.893  82
   3   0  12 18394.7 969.082  48
   3   0  12 18952.0 942.229  38
  -3   0 -12 19278.3 1026.71  55
  -3   0 -13 1317.91 193.244  55
   3   0  13 941.483 150.878  62
   3   1 -15 7773.38 508.626  79
   3   1 -15 8481.40 563.489  81
   3   1 -15 8717.39 603.582  74
   3   1 -14 5442.79 575.048  81
   3   1 -14 5581.33 554.636  79
   3   1 -14 6579.90 637.309  74
   3   1 -13 14429.1 1068.14  84
   3   1 -13 14588.8 1072.50  81
   3   1 -13 15998.1 1091.42  79
   3   1 -13 13465.8 913.281  78
   3   1 -13 14710.3 1104.59  74
   3   1 -12 43608.1 2145.59  74
   3   1 -12 43716.1 2147.54  84
   3   1 -12 48070.5 2221.89  81
   3   1 -12 44778.1 1997.15  78
   3   1 -12 46540.1 2212.03  55
   3   1 -11 26920.2 1674.99  74
   3   1 -11 30867.7 1777.72  55
   3   1 -11 27580.1 1586.65  78
   3   1 -11 29888.3 1739.73  81
   3   1 -10 168581. 4885.01  64
   3   1 -10 165477. 5189.69  74
   3   1 -10 168336. 5196.45  55
   3   1 -10 168591. 5007.12  52
   3   1 -10 162663. 4836.25  54
   3   1 -10 172381. 5223.55  81
   3   1 -10 163438. 5020.47  78
   3   1 -10 171798. 5223.65  84
   3   1  -9 86806.6 3143.07  84
   3   1  -9 78028.3 2975.41  78
   3   1  -9 80616.7 3055.78  81
   3   1  -9 83894.6 2864.00  64
   3   1  -9 81115.0 2915.38  52
   3   1  -9 85554.1 3125.58  55
   3   1  -9 75135.3 2774.86  54
  -3   1   9 80107.9 2695.65  18
   3   1  -8 42635.9 1913.74  78
   3   1  -8 41806.0 1919.58  81
   3   1  -8 37686.1 1618.46  72
   3   1  -8 42469.6 1765.57  64
   3   1  -8 39824.8 1884.75  55
   3   1  -8 39510.7 1745.23  54
   3   1  -8 40877.4 1785.17  52
  -3   1   8 38583.8 1597.42  18
   3   1  -7 6620.88 467.412  26
   3   1  -7 6018.01 631.976  81
  -3   1   7 6587.52 541.713  18
  -3   1   6 76872.7 2156.28  24
  -3   1   6 76469.6 2297.30  18
   3   1  -6 78329.1 2267.77  26
   3   1  -5 50406.5 1649.06  26
  -3   1   5 48526.3 1406.91  24
  -3   1   5 48103.8 1566.59  18
   3   1  -4 14442.0 754.377  26
  -3   1   4 12997.0 641.959  18
  -3   1   3 51880.4 1519.26  18
   3   1  -3 48185.7 1669.20  26
  -3   1   3 51438.5 1671.87   9
   3   1  -2 3727.44 261.872  19
  -3   1   2 3016.85 272.030  18
   3   1  -2 3386.98 278.174  12
  -3   1   2 2635.92 299.415   9
   3   1  -1 27835.9 1177.91  38
   3   1  -1 30260.9 1184.39  26
  -3   1   1 30281.0 1032.69  18
   3   1  -1 28645.0 1018.96  12
  -3   1   0 72921.7 2108.92  33
   3   1   0 72322.3 2217.67  48
  -3   1   0 76196.7 2182.90  37
   3   1   0 74705.2 2276.74  38
   3   1   0 72486.0 2201.18  26
  -3   1  -1 218171. 5344.57  33
   3   1   1 213104. 5474.88  48
  -3   1  -1 225940. 5426.47  37
   3   1   1 220656. 5568.36  38
   3   1   1 233464. 5438.43  26
   3   1   1 230001. 5422.40  11
   3   1   1 218896. 5209.54  10
  -3   1  -2 60890.7 1925.70  37
  -3   1  -2 57954.2 1853.16  33
   3   1   2 56551.2 1962.17  48
  -3   1  -2 53970.6 1801.94  47
   3   1   2 55036.7 1964.90  38
   3   1   2 58301.7 1834.78  26
  -3   1  -2 55299.0 1803.50  16
   3   1   2 56498.7 1892.63  11
   3   1   2 59710.6 1795.02  10
  -3   1  -2 55179.9 1477.74   8
  -3   1  -3 64648.7 2174.24  33
   3   1   3 67879.8 2103.68  26
   3   1   3 68762.1 2344.73  48
  -3   1  -3 72016.7 2172.50  47
   3   1   3 67398.1 2314.85  38
  -3   1  -3 69432.4 2011.07  14
  -3   1  -3 69252.9 2143.44  16
   3   1   3 72663.8 2309.21  11
   3   1   3 73094.0 2182.87  10
   3   1   4 72119.1 2200.01  26
  -3   1  -4 73781.6 2423.37  33
   3   1   4 78645.2 2514.33  35
  -3   1  -4 71955.1 2189.14  14
   3   1   4 74952.5 2513.07  11
   3   1   4 80081.9 2419.31  10
   3   1   4 78345.1 2579.65  38
  -3   1  -4 76021.2 2350.37  16
   3   1   5 35307.1 1627.02  38
   3   1   5 35819.6 1572.67  35
  -3   1  -5 37696.7 1588.73  33
  -3   1  -5 36140.5 1363.28  14
   3   1   5 38143.9 1687.17  11
   3   1   5 34014.0 1498.48  10
   3   1   5 35354.0 1529.82  65
  -3   1  -5 34924.8 1673.61  58
  -3   1  -5 34813.2 1670.95  51
  -3   1  -5 33938.0 1421.51  16
  -3   1  -6 79885.9 2573.89  16
  -3   1  -6 79864.6 2478.95  14
   3   1   6 84418.5 2926.85  11
   3   1   6 86363.7 2801.05  10
   3   1   6 78317.0 2726.98  35
  -3   1  -6 81893.1 2710.15  83
  -3   1  -6 75226.8 2888.54  58
   3   1   6 80163.2 2683.77  65
  -3   1  -6 89137.6 3050.02  51
   3   1   6 83337.0 2882.27  38
   3   1   7 34029.1 1770.92  11
   3   1   7 38384.6 1738.16  10
  -3   1  -7 38681.5 1766.03  30
   3   1   7 36450.7 1691.59  35
  -3   1  -7 38523.6 1642.89  83
   3   1   7 35336.7 1589.48  65
  -3   1  -7 36485.6 1871.06  51
   3   1   7 39595.0 1830.06  38
   3   1   8 9202.40 787.483  77
   3   1   8 10477.6 940.614  11
   3   1   8 8573.85 812.951  10
  -3   1  -8 9649.58 853.244  30
  -3   1  -8 11421.4 1009.42  51
  -3   1  -8 9735.71 916.169  55
   3   1   8 8429.77 821.788  38
   3   1   9 24339.5 1292.56  77
  -3   1  -9 25731.0 1539.56  76
   3   1   9 26041.3 1451.19  10
  -3   1  -9 27665.8 1494.64  30
  -3   1  -9 27086.6 1567.79  55
   3   1   9 27141.5 1482.31  38
  -3   1 -10 56118.7 2182.66  30
   3   1  10 51285.1 2211.30  48
   3   1  10 52217.9 2113.82  38
  -3   1 -10 53749.5 2259.13  55
  -3   1 -10 51247.0 2227.22  76
  -3   1 -11 13745.0 950.541  76
  -3   1 -11 14846.6 984.259  80
  -3   1 -11 12855.1 921.214  55
   3   1  11 13031.4 928.671  48
   3   1  11 12905.2 851.764  38
  -3   1 -11 12880.9 876.352  30
  -3   1 -12 14717.1 815.825  80
   3   1  12 13049.6 777.144  82
  -3   1 -12 13566.7 798.423  55
  -3   1 -12 14581.9 797.277  30
   3   1  12 12960.5 809.515  48
  -3   1 -13 11188.5 541.104  81
   3   2 -15 2032.27 251.863  79
   3   2 -15 1874.83 248.355  74
   3   2 -14 10603.1 770.955  79
   3   2 -14 10190.3 748.060  74
   3   2 -13 343.008 183.162  84
   3   2 -13 639.124 206.785  78
   3   2 -13 456.173 210.880  74
   3   2 -12 66557.5 2570.93  78
   3   2 -12 65544.2 2676.35  74
   3   2 -11 1900.87 404.843  78
   3   2 -11 1590.57 405.609  81
   3   2 -11 1899.24 435.356  74
   3   2 -10 51230.2 2413.16  84
   3   2 -10 51932.6 2407.54  81
   3   2 -10 51029.6 2325.92  78
   3   2 -10 50968.7 2314.63  55
   3   2 -10 50489.0 2061.89  54
  -3   2  10 50561.6 2144.12  18
   3   2 -10 53109.4 2395.80  74
   3   2  -9 39575.0 1969.28  81
   3   2  -9 38060.0 1916.11  78
   3   2  -9 37109.0 1572.84  72
   3   2  -9 34752.5 1632.67  54
   3   2  -9 35764.8 1844.24  55
  -3   2   9 34082.3 1670.92  18
   3   2  -8 29873.7 1615.39  81
   3   2  -8 28614.4 1367.77  72
   3   2  -8 27386.5 1373.26  61
   3   2  -8 28400.1 1369.62  64
   3   2  -8 30009.2 1565.96  55
   3   2  -8 30059.4 1436.24  54
   3   2  -8 29355.4 1558.65  56
  -3   2   8 27904.0 1420.17  18
  -3   2   7 141866. 3808.20   3
   3   2  -7 143489. 4348.94  81
   3   2  -7 152182. 4460.80  78
   3   2  -7 145311. 4115.74  72
   3   2  -7 150410. 3842.39  26
   3   2  -7 145970. 4170.32  61
   3   2  -7 150002. 4326.71  56
  -3   2   7 150520. 4151.82  18
   3   2  -6 97145.0 2793.15  26
  -3   2   6 95694.5 2899.70  18
   3   2  -5 33069.7 1337.68  26
  -3   2   5 30966.9 1313.01  18
   3   2  -4 114122. 3177.38  26
  -3   2   4 110827. 3087.57  18
   3   2  -3 61250.9 1992.33  26
   3   2  -3 59556.6 1818.14  19
  -3   2   3 58120.8 1863.15  18
  -3   2   2 117502. 3186.97  32
   3   2  -2 126146. 3155.37  19
  -3   2   2 121127. 3193.47  18
  -3   2   2 120010. 3192.26  40
   3   2  -2 117001. 3185.16  12
  -3   2   1 37295.6 1396.75  33
  -3   2   1 39536.4 1393.62  32
   3   2  -1 41661.1 1503.46  26
  -3   2   1 40501.2 1397.30  18
  -3   2   1 38705.0 1387.59  40
   3   2  -1 37510.7 1491.58  38
   3   2  -1 39041.7 1398.37  12
  -3   2   1 37073.7 1385.72   9
  -3   2   0 248977. 5993.57  33
  -3   2   0 252397. 5974.58  32
   3   2   0 259689. 6095.83  26
   3   2   0 248964. 6131.98  38
   3   2   0 249976. 6034.84  45
  -3   2   0 240777. 5954.56  40
  -3   2   0 243482. 5931.07   9
  -3   2  -1 100502. 2909.50  33
   3   2   1 104147. 2955.73  26
   3   2   1 102696. 3042.07  38
   3   2   1 103630. 3008.19  45
   3   2   1 102973. 2901.33  44
   3   2   1 104039. 2880.99  10
  -3   2  -1 103971. 2831.80   9
  -3   2  -2 133581. 3614.74  33
   3   2   2 132098. 3580.87  26
   3   2   2 126415. 3699.06  38
  -3   2  -2 133842. 3485.91  47
   3   2   2 127273. 3704.49  11
   3   2   2 135815. 3610.82  10
  -3   2  -3 102556. 3032.72  37
  -3   2  -3 101682. 3006.67  33
   3   2   3 102017. 3136.45  11
   3   2   3 102712. 3012.65  10
   3   2   3 102875. 2911.45  26
  -3   2  -3 104210. 2842.14  16
  -3   2  -3 97563.3 2821.29  47
   3   2   3 95330.1 3058.67  38
  -3   2  -4 213913. 5688.92  83
  -3   2  -4 209370. 5541.71  33
  -3   2  -4 217447. 5828.79  58
   3   2   4 211280. 5750.42  48
   3   2   4 213834. 5634.87  38
   3   2   4 211521. 5303.62  26
  -3   2  -4 210095. 5340.18  14
  -3   2  -4 222162. 5316.40  16
   3   2   4 214460. 5749.94  11
   3   2   4 219679. 5597.65  10
  -3   2  -4 212123. 5259.52   3
  -3   2  -5 42146.8 1531.77  16
  -3   2  -5 40169.4 1593.39  14
   3   2   5 41600.5 1853.76  11
   3   2   5 39424.6 1731.14  10
  -3   2  -5 41875.0 1923.85  58
  -3   2  -5 38930.8 1823.31  51
  -3   2  -5 42967.2 1807.86  50
   3   2   5 36731.2 1791.05  48
   3   2   5 40298.3 1775.90  38
  -3   2  -5 40659.3 1810.35  83
  -3   2  -6 31215.5 1395.89  14
   3   2   6 29171.0 1598.08  11
   3   2   6 28897.9 1517.21  10
  -3   2  -6 30171.2 1544.38  83
  -3   2  -6 32518.5 1563.02  50
  -3   2  -6 31054.7 1661.77  51
   3   2   6 30214.3 1614.17  48
   3   2   6 32150.5 1565.70  38
   3   2   7 37343.6 1814.42  10
  -3   2  -7 37957.5 1639.21  14
  -3   2  -7 40050.2 1795.34  30
  -3   2  -7 39520.4 1804.73  83
   3   2   7 39480.2 1757.63  65
  -3   2  -7 41239.8 2027.26  51
  -3   2  -7 37648.3 1731.21  50
   3   2   7 38538.7 1929.17  48
   3   2   7 36679.0 1752.78  38
   3   2   8 17379.1 1181.81  10
  -3   2  -8 17154.4 1096.05  83
   3   2   8 17080.3 1066.68  65
  -3   2  -8 17288.2 1068.06  50
  -3   2  -8 17422.2 1199.02  55
   3   2   8 17188.0 1233.80  48
   3   2   8 17944.2 1153.11  38
  -3   2  -8 15564.7 1093.12  30
   3   2   9 12875.3 939.325  77
  -3   2  -9 13393.7 982.788  30
  -3   2  -9 14259.5 1057.20  55
   3   2   9 13871.8 1071.99  48
   3   2   9 13052.8 948.893  38
  -3   2 -10 11156.1 945.390  76
   3   2  10 12035.2 826.472  77
  -3   2 -10 13987.5 938.510  30
  -3   2 -10 10921.1 883.939  55
   3   2  10 13120.4 871.630  38
   3   2  10 14327.4 1038.10  48
  -3   2 -11 8162.35 715.802  76
  -3   2 -11 7272.52 683.872  80
  -3   2 -11 7488.48 629.752  55
   3   2  11 7790.51 689.959  48
  -3   2 -11 7856.74 624.125  30
  -3   2 -12 6704.72 464.816  55
  -3   2 -12 8254.45 592.002  80
   3   2  12 8089.84 576.203  82
   3   3 -15 12703.6 572.959  79
   3   3 -14 4779.96 432.016  74
   3   3 -14 4058.17 427.702  84
   3   3 -14 5184.76 487.543  79
   3   3 -13 9234.98 749.823  74
   3   3 -13 9008.25 771.274  79
   3   3 -13 8840.98 766.055  84
   3   3 -13 9226.00 716.946  78
   3   3 -13 9903.72 819.596  81
   3   3 -12 46236.7 2038.44  74
   3   3 -12 47736.8 2065.12  78
   3   3 -12 47683.3 2158.95  81
   3   3 -12 48990.4 2186.27  79
   3   3 -11 7267.83 779.631  74
   3   3 -11 6564.25 784.578  81
   3   3 -11 5520.71 698.618  78
   3   3 -10 14303.3 1119.31  74
   3   3 -10 14393.2 1169.94  78
   3   3 -10 14000.6 1158.92  81
  -3   3  10 14161.5 1095.16  18
   3   3  -9 39316.6 1989.92  81
   3   3  -9 37357.4 1669.94  61
   3   3  -9 40241.1 1921.10  74
   3   3  -9 37123.5 1901.66  56
  -3   3   9 37541.5 1857.76  18
   3   3  -8 41373.1 1993.29  81
   3   3  -8 42402.4 2064.23  78
   3   3  -8 39478.6 1779.53  61
   3   3  -8 39900.0 1856.91  74
   3   3  -8 41971.5 1747.15  72
   3   3  -8 44542.7 2036.94  56
   3   3  -8 40055.5 1994.44  50
  -3   3   8 39862.5 1880.66  18
   3   3  -7 2005.03 395.176  81
   3   3  -7 2019.90 373.091  61
   3   3  -7 2275.74 415.094  56
   3   3  -7 2194.94 430.464  50
   3   3  -7 1893.63 299.530  26
  -3   3   7 2373.51 417.136  18
   3   3  -6 61198.7 2349.62  81
   3   3  -6 61880.4 2235.07  73
   3   3  -6 57832.5 2280.46  61
   3   3  -6 63547.2 2374.34  56
   3   3  -6 62084.0 2446.49  50
  -3   3   6 62659.6 2298.77  18
   3   3  -6 65984.7 2188.15  26
  -3   3   6 61989.3 2105.56   3
   3   3  -5 2940.65 394.131  26
  -3   3   5 3242.78 427.908  18
  -3   3   5 2516.60 354.281   3
  -3   3   4 30574.1 1256.88  49
   3   3  -4 34143.7 1456.12  26
  -3   3   4 33564.2 1445.09  18
  -3   3   4 33888.1 1406.56   3
   3   3  -3 100345. 3053.27  26
   3   3  -3 99015.4 2945.12  19
  -3   3   3 103888. 3015.68  18
  -3   3   2 52890.8 1904.09  32
  -3   3   2 56047.2 1929.56  40
   3   3  -2 55339.0 1903.67  19
  -3   3   2 52814.7 1890.14  18
   3   3  -2 52766.2 1907.44  12
  -3   3   2 53928.3 1878.62   9
  -3   3   1 93946.8 2849.22  32
  -3   3   1 93297.7 2838.42  40
   3   3  -1 95917.0 2932.17  26
  -3   3   1 95026.4 2857.01  18
   3   3  -1 99850.8 2928.87  12
  -3   3   1 96927.8 2779.85   9
  -3   3   0 63491.2 2127.18  33
  -3   3   0 65468.9 2144.18  32
   3   3   0 60977.4 1931.72  41
   3   3   0 61170.9 2184.06  45
  -3   3   0 58577.1 2076.67  40
   3   3   0 64494.2 2152.39  44
   3   3   0 61963.4 2147.39  38
   3   3   0 63300.8 2172.34  26
  -3   3   0 65240.6 2125.73  18
   3   3   0 65005.7 2225.50  12
  -3   3   0 63593.1 2004.49   9
   3   3   1 16838.0 972.339  28
  -3   3  -1 18099.9 984.678  33
  -3   3  -1 19232.0 1018.05  37
   3   3   1 17588.0 1052.75  45
   3   3   1 19751.3 1050.70  38
   3   3   1 20396.8 1071.61  44
   3   3   1 18987.3 1028.78  26
  -3   3  -1 18972.9 909.992   9
  -3   3  -1 17809.8 995.139   3
  -3   3  -2 31012.6 1352.63  37
   3   3   2 31623.4 1424.45  10
  -3   3  -2 31359.0 1348.58   3
  -3   3  -2 28153.2 1168.05  47
   3   3   2 30663.5 1514.08  48
   3   3   2 27099.3 1332.76  38
   3   3   2 28951.1 1455.06  45
   3   3   2 29824.7 1404.88  44
   3   3   2 30119.1 1342.88  26
   3   3   3 11408.8 840.814  38
   3   3   3 11894.3 918.552  48
  -3   3  -3 11538.4 686.857  47
   3   3   3 11992.0 920.493  45
   3   3   3 13439.3 915.481  44
  -3   3  -3 9609.04 745.977  37
  -3   3  -3 12767.4 948.714  58
   3   3   3 12027.1 794.047  26
  -3   3  -3 11373.5 677.531  16
  -3   3  -3 12848.5 948.436  50
   3   3   3 12011.7 863.870  10
  -3   3  -3 12613.5 795.830   3
   3   3   4 18730.2 982.203  26
  -3   3  -4 16362.0 827.020  16
  -3   3  -4 16417.4 979.466  14
   3   3   4 17886.2 1170.19  11
  -3   3  -4 18930.7 978.250   3
   3   3   4 15953.0 1056.20  10
  -3   3  -4 18019.5 1188.68  83
  -3   3  -4 17781.6 1200.23  58
  -3   3  -4 17614.6 1153.92  50
  -3   3  -4 17713.6 1113.01  51
   3   3   4 15605.1 1003.44  38
   3   3   4 17306.1 1167.00  48
   3   3   4 15780.2 1109.92  45
  -3   3  -5 2646.71 466.234  83
   3   3   5 1934.48 396.162  48
  -3   3  -5 2012.29 396.619  50
   3   3   5 2328.03 383.452  38
  -3   3  -5 2081.86 354.121  14
   3   3   5 1986.11 385.262  10
  -3   3  -5 1909.18 359.329  33
  -3   3  -6 8175.32 722.003  14
   3   3   6 8352.62 806.451  10
  -3   3  -6 7944.86 808.556  83
  -3   3  -6 8052.49 794.069  50
  -3   3  -6 8009.10 707.734  30
  -3   3  -6 8601.63 778.995  33
   3   3   6 7983.10 727.519  38
   3   3   6 7843.56 816.275  48
  -3   3  -7 154.001 164.247  30
  -3   3  -7 189.068 164.644  83
  -3   3  -7 366.228 184.125  50
   3   3   7 67.6442 144.294  48
   3   3   7 202.798 143.068  38
  -3   3  -7 49.7829 75.1143  14
   3   3   7 70.5444 106.416  11
   3   3   7 63.5064 151.455  10
   3   3   8 54626.0 2412.51  11
   3   3   8 53592.5 2302.78  10
  -3   3  -8 51176.6 2192.40  83
  -3   3  -8 54319.5 2129.86  30
   3   3   8 53923.9 2162.13  65
  -3   3  -8 55747.8 2228.87  50
  -3   3  -8 53131.4 2149.09  55
   3   3   8 54882.5 2368.89  48
  -3   3  -9 8154.87 723.382  83
  -3   3  -9 9792.80 912.706  76
  -3   3  -9 10003.2 783.663  30
   3   3   9 8787.37 716.485  65
  -3   3  -9 8898.65 742.641  50
  -3   3  -9 8499.98 732.479  55
   3   3   9 9520.94 871.765  48
  -3   3 -10 7130.27 729.238  76
   3   3  10 7415.88 642.538  77
   3   3  10 7437.90 701.488  48
  -3   3 -10 7955.54 631.568  30
  -3   3 -11 12227.9 704.371  81
  -3   3 -11 15010.4 930.399  80
   3   3  11 12747.4 714.269  77
   3   3  11 13783.4 860.648  48
   3   3  11 14717.3 864.074  44
  -3   3 -11 14296.8 916.672  76
  -3   3 -12 1613.50 242.609  80
   3   3  12 1815.23 246.098  82
   3   4 -14 7373.75 483.438  79
   3   4 -14 6976.15 478.301  84
   3   4 -13 12246.7 820.252  84
   3   4 -13 11652.1 790.669  79
   3   4 -13 11611.3 743.192  78
   3   4 -12 5116.78 508.043  74
   3   4 -12 6381.42 647.555  78
   3   4 -12 6857.86 685.588  79
   3   4 -12 6307.66 659.013  81
   3   4 -11 11851.5 861.058  74
   3   4 -11 12341.6 1003.77  78
   3   4 -11 11153.7 965.148  79
   3   4 -11 10767.9 944.387  81
   3   4 -10 2846.54 509.446  81
   3   4  -9 64478.6 2672.70  81
   3   4  -9 65221.9 2375.82  61
   3   4  -9 63958.9 2686.89  56
  -3   4   9 66333.4 2686.29  18
   3   4  -8 31123.5 1704.23  81
   3   4  -8 32016.1 1589.66  61
   3   4  -8 31982.8 1491.26  72
   3   4  -8 31380.5 1796.64  50
   3   4  -8 31542.7 1744.52  56
  -3   4   8 30103.9 1688.41  18
   3   4  -7 10591.2 898.841  79
   3   4  -7 10090.7 892.052  81
   3   4  -7 9928.92 862.878  61
   3   4  -7 10480.0 974.021  50
   3   4  -7 10189.4 928.904  56
   3   4  -7 9586.69 759.290  26
  -3   4   7 8707.68 850.216  18
   3   4  -6 139967. 4150.46  79
   3   4  -6 136038. 4206.66  81
   3   4  -6 135829. 4090.71  73
  -3   4   6 146994. 4044.00   3
   3   4  -6 134990. 4237.42  61
   3   4  -6 145082. 4360.36  56
   3   4  -6 134369. 4371.70  50
  -3   4   6 140931. 4304.49  18
   3   4  -6 143394. 4091.47  26
   3   4  -5 65135.9 2426.70  26
  -3   4   5 71590.5 2588.45  18
   3   4  -5 68405.3 2491.78  73
   3   4  -5 66580.3 2373.05  79
  -3   4   5 64880.1 2320.67  49
   3   4  -5 71975.0 2602.94  56
   3   4  -5 63977.5 2532.30  50
  -3   4   5 70181.0 2420.58   3
  -3   4   4 109928. 3409.49   3
   3   4  -4 109014. 3480.47  73
  -3   4   4 117077. 3338.53  49
   3   4  -4 107165. 3437.95  50
   3   4  -4 111998. 3514.32  26
  -3   4   4 115952. 3549.43  18
  -3   4   3 6465.37 572.751  49
   3   4  -3 5647.14 609.215  73
   3   4  -3 5283.56 599.612  57
  -3   4   3 7218.55 648.960   3
   3   4  -3 6440.41 650.521  26
   3   4  -3 5784.31 589.674  19
  -3   4   3 5762.88 600.829  18
  -3   4   2 84524.3 2645.27  49
  -3   4   2 86323.7 2851.34  40
  -3   4   2 91054.8 2907.18  32
   3   4  -2 88563.4 2906.41  57
  -3   4   2 82985.3 2839.36   3
  -3   4   2 82393.1 2698.73   9
   3   4  -2 90779.6 2880.39  19
  -3   4   2 87353.2 2870.45  18
  -3   4   1 10589.3 799.779  40
   3   4  -1 10352.4 706.649  41
   3   4  -1 10021.5 796.981  73
   3   4  -1 11052.8 860.066  12
  -3   4   1 9426.34 769.827   3
  -3   4   1 12104.9 761.567   9
   3   4  -1 10000.3 714.625  28
  -3   4   1 11190.9 822.659  32
   3   4  -1 9787.26 784.708  57
   3   4  -1 11535.1 869.577  26
   3   4  -1 10433.3 799.376  19
  -3   4   1 10016.5 780.044  18
   3   4   0 131289. 3926.54  26
  -3   4   0 129408. 3827.98  18
  -3   4   0 139028. 3978.10  83
   3   4   0 128575. 3853.36  73
   3   4   0 125264. 3935.22  12
  -3   4   0 122488. 3823.64   3
  -3   4   0 128697. 3538.85   9
   3   4   0 128186. 3716.97  28
  -3   4   0 135932. 3870.88  32
   3   4   0 129608. 3801.92  57
   3   4   0 128520. 3645.15  41
  -3   4   0 130526. 3832.38  40
   3   4   1 47811.1 1928.58  26
   3   4   1 48085.5 2037.52  12
  -3   4  -1 47506.5 1906.86   3
  -3   4  -1 43439.1 1582.79   9
  -3   4  -1 47521.9 2010.72  83
   3   4   1 42845.0 1834.90  73
  -3   4  -1 41251.5 1782.12  33
   3   4   1 44026.5 1848.01  28
   3   4   1 45549.4 1825.96  57
  -3   4  -1 47340.9 2019.88  50
   3   4   1 45206.5 1786.41  41
  -3   4  -1 46907.7 1830.01  37
   3   4   1 46469.1 2027.90  45
  -3   4  -1 47205.2 1894.69  40
   3   4   1 45492.3 1965.40  44
   3   4   2 105645. 3340.11  26
   3   4   2 102447. 3522.31  12
  -3   4  -2 104178. 3338.88   3
  -3   4  -2 108898. 3568.78  83
   3   4   2 103406. 3295.22  73
  -3   4  -2 108517. 3273.70  37
   3   4   2 114594. 3451.71  28
  -3   4  -2 109025. 3324.64  33
  -3   4  -2 107990. 3425.88  58
  -3   4  -2 115861. 3636.33  50
   3   4   2 97401.5 3142.05  57
   3   4   2 104456. 3207.12  38
   3   4   2 105857. 3579.06  45
   3   4   2 106810. 3493.53  44
   3   4   3 97444.9 3086.14  26
  -3   4  -3 99426.1 3424.50  83
   3   4   3 94691.3 3071.14  73
  -3   4  -3 101956. 3139.49   3
   3   4   3 95343.9 3301.74  10
  -3   4  -3 96405.1 3085.03  37
   3   4   3 94302.5 3198.36  28
  -3   4  -3 97373.1 3150.45  33
  -3   4  -3 103598. 3440.93  50
   3   4   3 90550.7 3333.26  45
   3   4   3 99261.7 3348.58  44
   3   4   4 50772.1 1962.88  73
  -3   4  -4 49635.0 2067.67  33
   3   4   4 55016.2 2305.95  44
   3   4   4 51088.9 1960.73  26
  -3   4  -4 53613.2 2086.34  14
   3   4   4 51421.3 2231.33  10
  -3   4  -5 96740.5 3024.05  30
  -3   4  -5 101514. 3302.61  33
   3   4   5 101276. 3512.35  48
   3   4   5 100720. 3477.45  44
  -3   4  -5 98538.6 3496.88  50
  -3   4  -5 96501.3 3225.49  14
   3   4   5 98907.2 3447.58  10
  -3   4  -6 25769.3 1385.22  14
   3   4   6 25108.3 1511.67  10
  -3   4  -6 24418.5 1239.83  30
  -3   4  -6 26650.5 1437.98  33
  -3   4  -6 24019.7 1511.52  83
  -3   4  -6 25871.0 1544.82  50
   3   4   6 23043.1 1463.80  48
   3   4   6 26134.7 1533.17  44
  -3   4  -7 30245.3 1532.07  14
   3   4   7 30606.8 1689.52  10
  -3   4  -7 28148.6 1647.12  83
  -3   4  -7 32258.2 1429.30  30
  -3   4  -7 30690.1 1688.21  50
   3   4   7 32609.9 1735.70  48
   3   4   7 32739.1 1738.14  44
  -3   4  -8 1805.43 382.807  83
  -3   4  -8 2260.70 445.500  76
  -3   4  -8 3049.28 478.748  50
   3   4   8 2768.10 471.009  48
   3   4   8 2105.50 425.669  44
   3   4   9 1472.15 293.595  65
  -3   4  -9 1204.58 287.685  83
  -3   4  -9 1529.71 350.645  76
  -3   4  -9 1454.17 305.786  50
   3   4   9 1508.27 340.188  45
   3   4   9 1564.38 336.800  44
   3   4  10 6139.02 490.666  65
  -3   4 -10 7251.18 658.816  76
   3   4  10 6665.48 639.070  45
   3   4  10 6903.62 619.632  44
  -3   4 -10 7206.64 652.776  80
   3   4  10 5188.00 519.191  77
  -3   4 -11 12193.5 727.744  80
   3   4  11 11936.3 629.639  77
   3   5 -13 7620.08 489.874  78
   3   5 -13 8119.68 553.787  84
   3   5 -13 6924.25 444.581  79
   3   5 -12 4516.72 486.829  78
   3   5 -12 3908.65 433.768  79
   3   5 -11 8539.27 783.373  78
   3   5 -11 8286.48 700.939  79
   3   5 -10 35755.9 1680.80  79
   3   5 -10 35762.7 1780.59  56
  -3   5  10 36811.5 1611.54  49
   3   5  -9 11428.2 928.801  79
   3   5  -9 12623.6 1089.72  78
   3   5  -9 10964.1 821.120  61
   3   5  -9 12540.5 1039.06  56
  -3   5   9 12151.9 923.416  49
  -3   5   8 69532.0 2808.72  18
   3   5  -8 69361.7 2400.10  72
   3   5  -8 69030.3 2575.14  61
   3   5  -8 67662.1 2567.42  79
   3   5  -8 68256.6 2791.26  56
  -3   5   8 70458.2 2598.99  49
  -3   5   7 68269.1 2811.57  18
   3   5  -7 64169.8 2483.34  79
   3   5  -7 75935.6 2780.86  61
   3   5  -7 72075.9 2868.18  56
   3   5  -7 76419.6 2960.52  50
  -3   5   7 69710.3 2611.13  49
   3   5  -6 81392.8 2853.46  73
  -3   5   6 74965.9 2775.83  49
   3   5  -6 79274.2 2993.24  61
   3   5  -6 84662.2 3102.40  56
   3   5  -6 79644.2 3055.42  50
   3   5  -6 77694.9 2828.49  26
  -3   5   6 82364.6 3072.49  18
  -3   5   5 6331.65 676.536  49
   3   5  -5 7465.19 785.565  56
   3   5  -5 6239.74 707.001  50
   3   5  -5 6360.02 696.898  26
  -3   5   5 6042.69 717.258  18
   3   5  -5 7206.01 744.107  73
  -3   5   4 8785.39 762.792  49
   3   5  -4 9466.65 844.328  73
  -3   5   4 8826.30 795.210   3
   3   5  -4 8086.70 799.621  26
  -3   5   4 7645.22 800.303  18
  -3   5   3 39971.4 1743.73  49
  -3   5   3 38826.9 1865.34  40
   3   5  -3 39567.8 1863.64  73
   3   5  -3 37472.1 1843.24  57
   3   5  -3 40930.8 1931.83  26
   3   5  -3 42052.2 1885.12  19
  -3   5   3 36572.7 1844.93  18
  -3   5   3 38006.6 1807.27   3
  -3   5   3 39825.3 1741.67   9
  -3   5   3 37103.5 1840.26  32
  -3   5   2 7988.16 774.810   3
  -3   5   2 8510.09 715.849   9
  -3   5   2 8814.69 807.485  40
  -3   5   2 8246.39 782.298  32
   3   5  -2 8450.35 813.033  57
  -3   5   2 10068.8 842.072  50
   3   5  -2 8740.76 806.427  19
  -3   5   2 7687.70 764.331  18
   3   5  -1 11609.3 969.296  26
   3   5  -1 11517.7 939.436  19
  -3   5   1 10204.8 868.400  18
  -3   5   1 9570.42 832.987  83
   3   5  -1 10811.5 910.845  73
   3   5  -1 9725.41 879.278   7
  -3   5   1 10613.2 750.272   9
  -3   5   1 9921.18 842.932  33
   3   5  -1 10866.2 807.565  28
  -3   5   1 10434.6 879.410  32
  -3   5   1 9163.23 849.045  50
   3   5  -1 10203.7 878.167  57
  -3   5   1 11399.1 911.757  40
   3   5   0 2459.06 444.727  26
   3   5   0 2915.08 481.519  19
   3   5   0 2643.70 394.442  77
  -3   5   0 2969.54 477.489  83
   3   5   0 2954.34 480.296  73
   3   5   0 3150.22 534.201  12
   3   5   0 2923.17 471.218   7
  -3   5   0 3882.74 419.631   9
  -3   5   0 2882.49 465.710   3
   3   5   0 3638.36 487.145  28
  -3   5   0 3003.80 458.813  33
  -3   5   0 3762.10 523.559  32
   3   5   0 3433.73 507.590  57
  -3   5   0 3505.22 528.786  50
   3   5   0 3454.46 422.713  49
   3   5   0 3324.30 465.987  41
  -3   5   0 2962.54 471.333  40
   3   5   1 15713.1 1101.27  26
  -3   5  -1 15737.6 1147.84  83
   3   5   1 16372.1 1128.09  73
  -3   5  -1 16497.3 1121.00   3
  -3   5  -1 14035.4 1002.48  33
   3   5   1 13705.4 1019.81  28
   3   5   1 14073.7 1021.44  57
  -3   5  -1 15174.8 1148.64  50
   3   5   1 17101.6 994.709  49
  -3   5  -1 16430.2 1035.84  37
   3   5   1 14075.0 1003.39  41
  -3   5  -1 17041.0 1127.96  40
   3   5   2 807.380 253.918  26
   3   5   2 464.960 205.989  73
  -3   5  -2 544.609 229.954  83
  -3   5  -2 438.441 180.448  37
  -3   5  -2 700.082 222.815  33
   3   5   2 947.480 282.729  28
   3   5   2 724.577 227.950  57
   3   5   2 699.758 211.480  49
  -3   5  -2 613.592 252.205  50
   3   5   2 619.346 240.539  41
   3   5   2 617.330 283.611  44
   3   5   3 7568.65 732.365  26
  -3   5  -3 8160.60 856.857  83
   3   5   3 5987.65 668.593  73
  -3   5  -3 7660.05 702.626  37
   3   5   3 7662.85 781.208  28
  -3   5  -3 8067.93 744.190  33
   3   5   3 7439.01 678.106  57
  -3   5  -3 5690.29 727.704  50
   3   5   3 7026.71 668.212  49
   3   5   3 8492.39 800.173  41
   3   5   3 7001.56 790.781  44
  -3   5  -4 16412.7 1107.46  14
   3   5   4 16234.8 1273.33  12
  -3   5  -4 16500.1 1071.92   4
  -3   5  -4 18241.9 1330.61  83
   3   5   4 15816.4 1059.29  73
  -3   5  -4 17806.0 1142.30  33
  -3   5  -4 19796.0 1375.72  50
   3   5   4 15836.1 1057.94  49
   3   5   4 15936.9 1256.98  45
   3   5   4 17903.5 1294.83  44
   3   5   4 18305.5 1210.26  41
  -3   5  -5 4449.67 673.913  83
   3   5   5 3901.81 486.062  73
  -3   5  -5 4607.53 504.659  63
   3   5   5 4436.17 659.099  45
   3   5   5 6016.89 734.873  44
  -3   5  -5 4919.73 605.359  14
   3   5   5 6157.02 772.094  12
  -3   5  -5 5256.00 615.012  33
  -3   5  -6 10961.0 861.538  33
  -3   5  -6 11045.7 993.573  50
   3   5   6 10063.7 976.888  45
   3   5   6 9341.60 914.253  44
  -3   5  -7 48714.8 2172.11  83
  -3   5  -7 49177.3 2123.32  76
  -3   5  -7 47180.9 2131.88  50
   3   5   7 44331.5 2125.38  45
   3   5   7 44598.8 2087.40  44
  -3   5  -8 88452.7 3031.01  83
  -3   5  -8 88112.7 2952.35  80
   3   5   8 86194.9 2890.16  65
  -3   5  -8 84489.2 2957.85  76
  -3   5  -8 87568.7 2987.10  50
   3   5   8 85216.3 3053.96  45
   3   5   8 90803.4 3052.20  44
  -3   5  -9 12316.7 820.523  83
  -3   5  -9 9434.04 738.051  80
   3   5   9 12126.1 812.106  77
   3   5   9 10730.4 727.690  65
  -3   5  -9 10853.7 794.226  76
  -3   5  -9 12106.1 809.953  50
   3   5   9 10194.5 739.127  41
   3   5   9 10252.2 808.201  45
   3   5   9 11873.7 839.027  44
  -3   5 -10 30674.4 1192.84  80
   3   5  10 33083.1 1234.64  77
   3   6 -12 5172.72 406.861  78
   3   6 -11 4821.17 506.103  84
  -3   6  11 4446.02 457.864  32
   3   6 -10 5129.07 584.153  78
   3   6  -9 17729.8 1201.05  78
  -3   6   9 17336.7 1033.59  49
   3   6  -9 17956.2 1167.31  56
   3   6  -8 18004.0 1082.31  61
  -3   6   8 15851.5 1053.90  49
   3   6  -8 18032.0 1222.54  56
   3   6  -7 37647.6 1770.27  61
   3   6  -7 35299.6 1842.56  56
  -3   6   7 33597.2 1657.61  49
  -3   6   6 10959.2 904.452  49
   3   6  -6 10802.8 861.972  73
   3   6  -6 11880.2 997.774  61
   3   6  -6 9886.45 936.210  56
   3   6  -6 10165.7 885.101  26
  -3   6   6 8855.73 903.310  18
  -3   6   5 33842.0 1728.27   4
  -3   6   5 32869.9 1695.87   9
  -3   6   5 36206.1 1729.41  49
  -3   6   5 34288.6 1822.29  40
   3   6  -5 33639.9 1698.04  73
  -3   6   5 34169.2 1823.38  32
   3   6  -5 35243.1 1823.35  56
   3   6  -5 35572.5 1797.87  26
  -3   6   5 34858.5 1845.96  18
  -3   6   4 41978.1 1903.08  49
  -3   6   4 44444.0 2075.59  40
   3   6  -4 37012.8 1871.47  73
  -3   6   4 42959.3 2072.77  32
   3   6  -4 40265.0 1979.53  57
  -3   6   4 42341.2 1991.51   4
  -3   6   4 38617.3 1816.23   9
   3   6  -4 39814.9 1998.00  26
  -3   6   4 41119.2 2023.85  18
  -3   6   3 2768.29 503.551  40
   3   6  -3 3985.25 573.517  73
  -3   6   3 2705.11 504.345  32
   3   6  -3 3410.78 555.918  26
  -3   6   3 3460.32 550.566  18
  -3   6   3 3475.22 480.049   9
  -3   6   2 32457.2 1524.08   9
  -3   6   2 38665.0 1919.57  40
   3   6  -2 38653.2 1900.14  73
   3   6  -2 35232.9 1858.41  57
  -3   6   2 38346.1 1833.95  33
  -3   6   2 39810.9 1928.35  32
  -3   6   2 34743.9 1689.94  50
   3   6  -2 37576.6 1899.70  19
  -3   6   2 36996.3 1871.97  18
  -3   6   1 37577.1 1869.49  40
  -3   6   1 39070.8 1814.73  33
  -3   6   1 35677.6 1831.21  32
   3   6  -1 33147.9 1566.55  65
   3   6  -1 32461.7 1784.58  57
  -3   6   1 38478.9 1821.18  50
   3   6  -1 36883.4 1917.52  26
   3   6  -1 33674.4 1837.90  19
   3   6   0 73711.9 2883.71  26
   3   6   0 70944.5 2881.19  19
  -3   6   0 70634.5 2688.03  83
   3   6   0 71687.4 2803.50  73
   3   6   0 67518.1 2582.13  28
  -3   6   0 70320.7 2660.03  33
   3   6   0 70137.6 2755.26  57
  -3   6   0 71345.2 2780.95  50
  -3   6   0 76821.1 2630.90  37
   3   6   1 23539.5 1470.60  26
   3   6   1 23440.4 1525.05  19
  -3   6  -1 22737.6 1422.69  83
   3   6   1 23652.9 1286.11  77
   3   6   1 26139.1 1525.11  73
  -3   6  -1 24205.4 1487.50   4
   3   6   1 24630.2 1416.28  28
  -3   6  -1 24681.7 1385.81  33
   3   6   1 24636.8 1438.53  57
  -3   6  -1 25332.8 1528.70  50
  -3   6  -1 24552.8 1301.82  37
   3   6   1 26353.9 1453.48  41
   3   6   2 42914.6 2004.42  26
   3   6   2 43747.6 2158.84  19
   3   6   2 36730.8 2071.99  12
  -3   6  -2 42427.8 2034.35   4
  -3   6  -2 43444.2 2099.75  83
   3   6   2 44665.5 2049.13  73
  -3   6  -2 43855.2 1794.65  37
   3   6   2 44013.0 2021.88  28
  -3   6  -2 43798.2 1914.49  33
   3   6   2 43948.8 1934.52  57
  -3   6  -2 44709.2 2153.86  50
   3   6   2 43028.1 1811.04  49
   3   6   2 43105.8 1976.18  41
   3   6   3 49180.8 2097.21  26
  -3   6  -3 45302.4 2047.26  14
   3   6   3 45870.9 2306.97  12
  -3   6  -3 47424.9 2094.97   4
  -3   6  -3 50931.7 2328.24  83
   3   6   3 49782.8 2126.23  73
  -3   6  -3 47229.4 2004.71  33
   3   6   3 49320.3 1985.09  57
  -3   6  -3 47713.6 2272.52  50
   3   6   3 48482.9 1963.62  49
   3   6   3 50681.4 2163.30  41
  -3   6  -4 4958.08 685.404  83
   3   6   4 5172.67 593.160  73
  -3   6  -4 5179.67 583.754  33
  -3   6  -4 5682.86 612.721  63
  -3   6  -4 5045.71 700.273  50
   3   6   4 4589.24 541.913  49
   3   6   4 5409.85 650.128  41
   3   6   4 5606.29 723.119  44
  -3   6  -5 45065.8 2121.63  83
  -3   6  -5 39825.3 1733.58  33
  -3   6  -5 44397.2 2096.59  50
   3   6   5 39719.6 1710.69  49
   3   6   5 42403.5 1910.90  41
   3   6   5 40909.0 2025.47  44
   3   6   5 41050.4 1725.56  73
  -3   6  -6 26006.3 1495.19  83
  -3   6  -6 22966.8 1254.80  76
   3   6   6 23194.5 1308.54  41
   3   6   6 23464.5 1418.06  44
  -3   6  -6 24364.2 1450.15  50
   3   6   7 77240.5 2577.01  41
   3   6   7 79671.1 2764.46  44
  -3   6  -7 72595.5 2479.87  76
   3   6   8 531.341 176.588  65
  -3   6  -8 353.074 132.791  76
  -3   6  -8 214.196 144.670  83
  -3   6  -8 381.494 163.164  50
   3   6   8 423.250 155.274  41
   3   6   8 342.197 158.203  44
   3   6   9 7867.96 529.898  65
  -3   6  -9 8716.56 577.296  50
  -3   6  -9 8153.87 560.942  83
   3   7 -11 21479.3 843.716  84
  -3   7  10 18729.4 735.013  57
   3   7 -10 20560.7 977.709  78
   3   7  -9 4793.46 510.698  78
   3   7  -9 4800.15 498.257  56
  -3   7   9 3939.84 445.107  40
  -3   7   9 4173.40 467.136  32
  -3   7   8 13032.5 914.188  32
   3   7  -8 12357.5 887.456  56
  -3   7   8 11649.0 865.314  40
  -3   7   7 4451.74 565.249  32
   3   7  -7 5240.13 559.310  61
   3   7  -7 5254.79 600.831  56
  -3   7   7 5238.09 607.700  40
   3   7  -6 29928.0 1359.29  73
  -3   7   6 27797.0 1529.35  32
   3   7  -6 30291.7 1527.59  61
  -3   7   6 29742.1 1353.20  63
   3   7  -6 28639.9 1531.80  56
  -3   7   6 28501.4 1547.19  40
   3   7  -5 3562.49 485.426  73
  -3   7   5 4538.57 572.707  33
  -3   7   5 3142.23 506.239  32
  -3   7   5 4609.99 542.981  63
   3   7  -5 2627.57 467.128  61
   3   7  -5 3643.36 530.811  56
  -3   7   5 4079.54 564.561  40
   3   7  -4 1650.01 360.340  73
  -3   7   4 1091.05 288.946  33
  -3   7   4 1657.52 367.064  63
   3   7  -4 1495.03 350.713  56
  -3   7   4 1965.43 423.410  40
  -3   7   3 3273.46 518.513  63
  -3   7   3 2963.34 471.299  33
   3   7  -3 3047.20 507.599  73
  -3   7   3 3137.57 515.111  40
   3   7  -2 55635.5 2376.14  57
  -3   7   2 52885.6 2191.10  33
   3   7  -2 56304.7 2351.36  73
  -3   7   2 52819.1 2087.35  37
  -3   7   1 48261.8 2048.64  33
   3   7  -1 50055.4 2208.55  57
  -3   7   1 50047.2 2018.21  50
  -3   7   1 49441.3 1939.52  37
   3   7   0 8937.46 728.325  65
   3   7   0 7713.54 787.943  57
  -3   7   0 8264.56 680.529  37
  -3   7   0 9211.36 781.395  33
  -3   7   0 8956.10 811.790  50
   3   7   0 7411.37 784.918  73
  -3   7  -1 1277.86 314.991  83
   3   7   1 2354.66 444.326  73
  -3   7  -1 1197.82 283.273  33
  -3   7  -1 1320.40 349.741  63
   3   7   1 1338.59 323.931  57
  -3   7  -1 1812.36 320.267  57
  -3   7  -1 1323.96 334.858  50
   3   7   2 35904.7 1752.28  73
  -3   7  -2 34383.2 1573.44  33
  -3   7  -2 38220.6 1794.72  63
   3   7   2 36749.5 1688.40  57
  -3   7  -2 38098.8 1836.29  50
  -3   7  -2 33737.4 1705.05  83
   3   7   3 7765.80 724.593  73
  -3   7  -3 8090.46 659.806  33
   3   7   3 8313.90 679.751  57
  -3   7  -3 8372.24 733.341  63
  -3   7  -3 8743.13 813.171  50
  -3   7  -3 9090.38 832.816  83
   3   7   4 18955.5 1047.12  77
  -3   7  -4 17648.2 1160.79  83
   3   7   4 18573.9 1075.13  73
  -3   7  -4 15285.1 912.061  33
  -3   7  -4 17760.9 1005.00  63
  -3   7  -4 18855.3 1214.49  50
   3   7   4 17922.9 1089.78  41
  -3   7  -5 794.675 240.217  83
   3   7   5 602.219 187.290  77
  -3   7  -5 803.521 255.964  50
   3   7   5 1113.52 258.845  41
   3   7   5 656.227 187.122  73
  -3   7  -6 18432.3 1083.62  83
   3   7   6 18597.5 969.744  77
  -3   7  -6 20429.4 1128.24  50
   3   7   6 18814.7 981.011  41
  -3   7  -7 2395.84 338.943  50
  -3   7  -7 2380.48 336.817  83
   3   7   7 2272.56 298.442  77
   3   7   7 2488.54 323.486  65
   3   7   8 1301.75 185.928  77
   3   7   8 1439.35 207.841  65
   3   8  -8 14739.5 742.452  78
  -3   8   8 13241.6 664.869  57
   3   8  -7 32683.0 1301.98  78
   3   8  -7 30336.4 1273.73  56
  -3   8   7 32821.0 1330.60  40
  -3   8   6 16208.6 796.340   7
   3   8  -6 15714.5 899.404  78
   3   8  -6 17353.4 921.694  61
  -3   8   6 16714.4 891.202  33
   3   8  -6 17072.7 941.281  56
  -3   8   6 17285.9 976.064  40
   3   8  -5 9303.65 687.234  78
  -3   8   5 11762.3 752.578  33
   3   8  -5 11601.8 811.386  61
  -3   8   5 11230.2 708.012  63
   3   8  -5 10798.5 769.673  56
  -3   8   5 9964.24 760.419  40
   3   8  -4 29386.6 1333.54  73
  -3   8   4 27397.7 1268.02  33
  -3   8   4 27353.7 1358.60  32
   3   8  -4 30270.2 1459.66  61
  -3   8   4 28915.5 1327.60  63
   3   8  -4 29435.7 1347.34  56
   3   8  -4 26896.6 1219.57  78
  -3   8   3 7291.19 667.511  63
  -3   8   3 7276.69 616.036  33
   3   8  -3 8825.21 684.780  56
   3   8  -3 9028.40 731.161  73
  -3   8   2 50405.3 1994.41  63
  -3   8   2 44587.7 1730.48  33
   3   8  -2 43768.0 1705.56  56
   3   8  -2 50636.8 1974.03  73
   3   8  -1 22155.9 1250.93  57
  -3   8   1 24231.2 1305.59  63
  -3   8   1 20550.9 1063.79  33
  -3   8   1 23518.0 1165.61  57
   3   8  -1 20910.1 1213.72  73
  -3   8   0 11759.8 749.803  57
  -3   8   0 7768.44 633.018  33
  -3   8  -1 2122.19 364.724  63
  -3   8  -1 1640.90 283.072  50
   3   8   1 1659.53 314.807  57
   3   8   1 2180.69 366.608  73
   3   8   2 24251.4 1146.19  57
  -3   8  -2 22988.4 1178.09  63
   3   8   2 23469.5 1212.60  73
  -3   8  -2 23696.2 1155.94  50
  -3   8  -2 23054.2 1083.30  83
   3   8   3 9107.59 622.601  65
  -3   8  -3 8720.80 620.521  63
   3   8   3 8611.63 652.350  73
  -3   8  -3 7718.30 620.335  50
  -3   8  -3 8381.27 624.173  83
   3   8   4 20896.5 968.742  65
   3   8   4 20089.7 950.277  73
  -3   8  -4 22214.2 1049.08  50
  -3   8  -4 20269.9 989.823  83
   3   8   5 21376.3 911.037  65
   3   8   5 19015.2 782.430  73
  -3   8  -5 20863.7 955.449  50
  -3   8  -5 20407.0 923.326  83
  -3   8  -6 13232.3 653.652  50
   3   8   6 15339.2 663.602  65
   3   9  -5 5607.80 365.691  61
  -3   9   4 31134.1 1096.77  57
  -3   9   4 28087.9 1021.55   7
   3   9  -4 32370.9 1134.44  61
  -3   9   4 26073.8 940.723  63
   3   9  -3 10370.1 568.418  73
  -3   9   3 11879.1 621.764  57
  -3   9   3 12719.4 671.204   7
  -3   9   3 10197.3 585.627  63
   3   9  -2 4572.64 391.553  73
  -3   9   2 3961.41 344.536  57
  -3   9   2 3863.49 390.333   7
  -3   9   2 4369.82 396.462  63
   3   9  -2 4279.99 414.716  61
   3   9  -1 5436.03 445.869  73
   3   9  -1 6011.34 485.871  61
  -3   9   1 5249.42 451.281  63
  -3   9   0 1996.11 273.939   7
   3   9   0 2183.24 279.545  61
   3   9   1 15367.8 756.797  73
  -3   9  -1 15639.1 727.221   7
   3   9   1 14777.9 711.711  61
  -3   9  -1 15774.0 749.389  63
   3   9   2 6216.58 411.747  73
  -3   9  -2 5602.78 361.205  63
   4  -8  -7 7639.19 500.691  60
  -4  -8   7 6776.61 483.293  66
   4  -8  -6 24642.9 976.268  53
  -4  -8   6 22462.8 906.838  69
  -4  -8   6 28191.0 1152.21  66
   4  -8  -6 28824.6 1154.80  60
  -4  -8   5 2800.84 319.131  51
   4  -8  -5 2397.48 285.692  53
  -4  -8   5 2582.18 294.985  69
   4  -8  -5 2572.82 348.827  60
  -4  -8   5 2878.58 369.588  66
  -4  -8   4 22467.9 945.223  69
   4  -8  -4 23172.1 1074.31   5
  -4  -8   4 24397.5 1110.88  66
   4  -8  -4 24581.3 1102.16  59
   4  -8  -4 24957.1 1126.52  60
  -4  -8   3 10039.5 648.206  69
   4  -8  -3 9165.59 635.218  67
   4  -8  -3 10449.6 759.368   5
  -4  -8   3 10097.9 733.991  66
   4  -8  -3 10406.5 745.351  59
   4  -8  -2 5783.90 513.896  67
  -4  -8   2 5268.68 472.558  69
  -4  -8   2 5659.76 535.180   6
   4  -8  -2 5553.42 566.342   5
   4  -8  -2 6291.23 578.601  59
  -4  -8   2 5108.26 523.315  66
   4  -8  -1 14810.8 853.300  67
  -4  -8   1 14505.5 800.287  69
   4  -8  -1 13563.8 902.955   5
   4  -8  -1 16285.5 947.058  59
   4  -8   0 606.591 178.758  67
  -4  -8   0 669.559 172.031  69
   4  -8   0 324.411 150.136   5
   4  -8   0 353.827 173.151  59
  -4  -8  -1 7335.97 528.046  69
   4  -8   1 8846.15 629.873  67
   4  -8   1 7967.90 617.298   5
   4  -8   1 8825.92 643.637  59
  -4  -8  -2 10398.0 670.856  66
   4  -8   2 10978.7 677.577  59
  -4  -8  -3 42480.3 1407.57  66
   4  -8   3 37227.8 1315.34  59
  -4  -8  -4 20011.0 783.692  66
   4  -7 -10 14462.3 621.600  52
   4  -7  -9 17090.0 809.723  52
  -4  -7   9 17868.9 885.743  66
   4  -7  -9 17797.2 862.970  60
  -4  -7   8 7945.13 653.698  66
   4  -7  -8 9293.25 686.132  60
  -4  -7   8 9327.23 678.462  36
  -4  -7   8 9326.66 596.028  69
  -4  -7   8 8709.84 640.895  39
  -4  -7   7 20150.9 1140.68  66
  -4  -7   7 21415.9 1121.32  36
   4  -7  -7 20080.2 1055.19  53
  -4  -7   7 19860.9 1005.18  69
  -4  -7   6 79.7838 95.1933  69
  -4  -7   6 319.061 168.421  36
  -4  -7   6 102.384 144.483  66
   4  -7  -6 242.834 146.537  59
   4  -7  -6 212.793 143.567  53
  -4  -7   6 234.239 117.810   6
   4  -7  -6 129.272 130.024   5
  -4  -7   5 11227.4 799.627  69
  -4  -7   5 11639.3 835.242  36
  -4  -7   5 11161.0 888.084  66
   4  -7  -5 9900.18 762.104  53
  -4  -7   5 9616.44 778.924   6
   4  -7  -5 10538.5 852.912   5
   4  -7  -4 318.946 153.844  67
  -4  -7   4 594.499 207.047  69
  -4  -7   4 450.757 186.329  36
  -4  -7   4 456.127 219.362  66
   4  -7  -4 358.027 158.472  53
  -4  -7   4 359.642 173.429   6
   4  -7  -4 175.255 152.790   5
   4  -7  -3 39552.3 1703.10  67
  -4  -7   3 35251.6 1589.47  69
  -4  -7   3 37534.9 1564.56  36
  -4  -7   3 34285.4 1724.09  66
   4  -7  -3 32890.5 1715.99  59
   4  -7  -3 33618.3 1523.35  53
  -4  -7   3 40575.5 1786.03   6
   4  -7  -3 38327.2 1852.45   5
   4  -7  -2 10160.1 807.470  67
  -4  -7   2 9898.28 763.329  69
   4  -7  -2 10458.4 733.876  53
  -4  -7   2 11107.2 866.208   6
   4  -7  -2 9755.85 869.996   5
  -4  -7   2 11837.9 939.617  66
   4  -7  -2 10541.9 885.675  59
  -4  -7   1 5500.60 582.485  69
  -4  -7   1 5537.55 592.136  51
   4  -7  -1 4165.99 596.938   5
  -4  -7   1 5296.35 637.038  66
   4  -7  -1 5689.46 674.263  59
  -4  -7   0 66986.2 2391.08  69
   4  -7   0 65981.0 2490.83  68
  -4  -7   0 68449.6 2395.22  51
  -4  -7   0 73765.7 2555.63   6
   4  -7   0 67251.3 2622.60   5
  -4  -7   0 66696.7 2577.41  66
   4  -7   0 71884.4 2681.26  59
   4  -7   1 52517.8 2096.75  68
  -4  -7  -1 51167.9 1964.10  69
  -4  -7  -1 53821.9 1927.26  51
  -4  -7  -1 51657.6 2001.91   6
   4  -7   1 55447.7 2200.92   5
   4  -7   1 50657.7 2162.38  59
   4  -7   2 45746.9 1919.20  68
  -4  -7  -2 46264.8 1805.65  69
  -4  -7  -2 46170.0 1773.93   6
   4  -7   2 46877.5 1906.07   5
   4  -7   2 48869.3 2038.59  59
   4  -7   3 13902.1 883.007  68
  -4  -7  -3 13978.5 808.645  69
   4  -7   3 11492.0 732.169   5
   4  -7   3 14329.0 919.755  59
   4  -7   4 11946.3 810.241  68
  -4  -7  -4 11351.4 642.425  70
  -4  -7  -4 11984.7 804.108  66
   4  -7   4 12401.3 827.947  59
  -4  -7  -5 313.421 102.503  70
   4  -7   5 383.161 148.699  68
   4  -7   5 191.559 102.305  59
  -4  -7  -5 264.551 127.283  66
   4  -7   6 3546.40 355.161  68
  -4  -7  -6 4151.20 360.480  66
   4  -6 -11 8930.06 557.638  52
  -4  -6  11 8728.36 530.546  66
   4  -6 -10 22148.0 1037.02  60
  -4  -6  10 22136.0 1070.27  36
   4  -6 -10 20906.6 1025.97  52
  -4  -6  10 18843.1 877.508  69
   4  -6  -9 39488.6 1655.30  60
  -4  -6   9 36532.4 1614.96  36
  -4  -6   9 39722.2 1574.18  31
  -4  -6   9 34858.1 1444.62  69
   4  -6  -8 20527.7 1030.83  64
   4  -6  -8 23478.8 1314.54  60
  -4  -6   8 23829.4 1302.59  36
  -4  -6   8 23825.9 1258.66  31
   4  -6  -8 22389.7 1249.89  53
  -4  -6   8 24064.7 1197.78  69
  -4  -6   7 3257.22 445.595  69
  -4  -6   7 2653.59 439.915  31
   4  -6  -7 3119.55 399.819  64
   4  -6  -7 2893.43 467.120  59
   4  -6  -7 2504.81 421.709  53
  -4  -6   7 3004.02 410.944   6
   4  -6  -7 2238.92 373.496   5
  -4  -6   6 22855.0 1261.13  69
  -4  -6   6 24355.8 1383.72  31
  -4  -6   6 21577.3 1330.14  36
   4  -6  -6 24350.6 1419.41  59
   4  -6  -6 22032.3 1176.60  64
   4  -6  -6 22291.3 1296.66  53
  -4  -6   6 22527.0 1272.20   6
   4  -6  -6 22880.1 1345.38   5
  -4  -6   5 5260.83 628.313  42
  -4  -6   5 4881.70 580.409  69
   4  -6  -5 4734.45 557.810  67
  -4  -6   5 4834.91 616.830  31
  -4  -6   5 5646.43 654.169  36
   4  -6  -5 5242.52 667.288  59
   4  -6  -5 5524.97 576.967  64
   4  -6  -5 5370.51 616.936  53
  -4  -6   5 5823.91 653.987   6
   4  -6  -5 4615.45 625.631   5
  -4  -6   4 46683.7 2059.34  42
   4  -6  -4 47576.4 1997.56  67
  -4  -6   4 42412.6 1900.83  69
  -4  -6   4 47407.8 2015.93  36
   4  -6  -4 50743.4 2250.85  59
   4  -6  -4 47760.9 1915.58  64
  -4  -6   4 42793.3 2083.74  66
   4  -6  -4 49748.0 2023.22  53
  -4  -6   4 48326.3 2111.54   6
   4  -6  -4 45160.6 2166.44   5
  -4  -6   3 16023.8 1208.30  20
   4  -6  -3 15920.9 1067.62  22
   4  -6  -3 15192.2 1210.55  15
   4  -6  -3 16506.9 1120.17  67
  -4  -6   3 16856.4 1095.66  69
  -4  -6   3 17924.3 1105.55  36
  -4  -6   3 18136.7 1158.95  31
  -4  -6   3 17565.7 1241.86  66
   4  -6  -3 14327.8 980.663  64
   4  -6  -3 15983.5 1049.24  53
  -4  -6   3 14384.6 1116.94   2
  -4  -6   3 17089.1 1189.21   6
   4  -6  -3 15804.9 1228.05   5
  -4  -6   2 12965.6 975.537  69
  -4  -6   2 16907.2 1018.11  36
  -4  -6   2 14835.8 1038.69  31
   4  -6  -2 16031.2 1032.50  64
  -4  -6   2 15887.0 1174.55  66
   4  -6  -2 15063.3 991.625  53
  -4  -6   2 14991.8 1143.08   2
  -4  -6   2 15610.3 1147.84   6
   4  -6  -2 15348.4 1207.53   5
   4  -6  -1 14218.9 1055.03  68
  -4  -6   1 11965.6 936.880  69
  -4  -6   1 13866.8 869.366  36
  -4  -6   1 14940.9 993.049  31
  -4  -6   1 14955.1 1141.91  66
   4  -6  -1 13124.4 1099.24  59
   4  -6  -1 12789.6 1102.98  15
   4  -6  -1 13398.4 1132.47   5
   4  -6   0 23134.0 1488.57  15
   4  -6   0 21625.6 1354.01  68
  -4  -6   0 23410.0 1310.80  69
  -4  -6   0 21249.0 1328.97  51
  -4  -6   0 25333.3 1463.05   2
  -4  -6   0 24835.3 1426.83   6
   4  -6   0 25465.0 1547.00   5
  -4  -6   0 22513.2 1435.02  66
   4  -6   0 22208.4 1465.62  59
   4  -6   1 49520.9 2162.02  68
  -4  -6  -1 48270.9 2015.75  69
  -4  -6  -1 49905.0 2111.78  51
  -4  -6  -1 49134.1 2101.48   6
   4  -6   1 47949.6 2195.96   5
  -4  -6  -1 49259.3 2228.07  66
   4  -6   1 51204.0 2311.19  59
   4  -6   2 7746.83 788.238  68
  -4  -6  -2 8196.56 742.043  69
  -4  -6  -2 8618.27 768.454  51
  -4  -6  -2 7883.53 724.886   6
   4  -6   2 6765.56 738.912   5
  -4  -6  -2 7676.23 792.202  66
   4  -6   2 8429.70 859.382  59
   4  -6   3 62995.3 2501.53  68
  -4  -6  -3 64385.3 2353.89  69
  -4  -6  -3 63202.5 2520.74  66
  -4  -6  -3 59819.2 2261.16  51
  -4  -6  -3 65221.2 2264.22   6
   4  -6   3 60975.3 2332.63   5
   4  -6   3 65298.3 2623.54  59
   4  -6   4 9365.48 858.962  59
   4  -6   4 11028.3 901.658  68
  -4  -6  -4 9766.25 733.610  51
  -4  -6  -5 17808.6 955.027  70
   4  -6   5 16490.8 1081.27  68
   4  -6   5 18217.9 1142.85  59
  -4  -6  -6 27470.5 1174.85  70
   4  -6   6 29995.8 1401.23  68
   4  -6   6 30252.7 1387.67  59
  -4  -6  -7 12124.6 642.716  70
   4  -6   7 13669.2 809.722  68
  -4  -6  -7 13503.0 783.422  66
   4  -6   7 13178.9 754.153  59
   4  -6   8 30309.2 1124.91  68
   4  -5 -13 16.6580 39.7245  52
   4  -5 -12 32278.1 1257.97  52
   4  -5 -11 11036.2 760.082  52
  -4  -5  11 9810.61 708.666  36
   4  -5 -10 2938.59 401.004  64
   4  -5 -10 3859.18 465.563  60
  -4  -5  10 3026.45 440.285  36
  -4  -5  10 3027.11 402.637  31
   4  -5 -10 2980.91 436.823  52
  -4  -5  10 2838.37 385.465  69
   4  -5  -9 2946.75 427.279  64
   4  -5  -9 4117.67 543.827  60
  -4  -5   9 3648.30 491.756  31
  -4  -5   9 3483.44 436.553  42
  -4  -5   8 9929.33 804.230  69
  -4  -5   8 9054.00 816.686  31
   4  -5  -8 9244.94 795.771  64
   4  -5  -8 10435.8 916.757  60
   4  -5  -8 10007.7 881.932  53
  -4  -5   8 11155.0 843.448  42
  -4  -5   7 25892.5 1339.39   6
   4  -5  -7 25862.0 1396.06   5
  -4  -5   7 26105.1 1411.37  42
  -4  -5   7 23982.4 1319.63  69
  -4  -5   7 27100.8 1492.43  31
   4  -5  -7 24924.8 1430.49  59
   4  -5  -7 23088.9 1341.97  64
   4  -5  -7 25631.6 1449.86  53
   4  -5  -7 22841.6 1399.76  22
  -4  -5   6 11917.4 959.340   2
   4  -5  -6 13267.8 1047.31   5
  -4  -5   6 13550.8 1029.73  42
  -4  -5   6 12055.4 897.187  46
  -4  -5   6 11593.4 895.392  69
  -4  -5   6 12604.8 1003.15  31
   4  -5  -6 14025.0 1069.32  59
   4  -5  -6 12685.2 967.020  64
   4  -5  -6 10586.4 913.687  53
   4  -5  -6 12443.6 989.674  22
  -4  -5   5 115397. 3817.09   2
   4  -5  -5 121723. 3987.76   5
  -4  -5   5 118774. 3800.46  42
  -4  -5   5 115339. 3670.40  46
  -4  -5   5 120494. 3654.89  69
   4  -5  -5 115502. 3574.41  67
  -4  -5   5 118729. 3838.68  31
   4  -5  -5 115335. 3881.01  59
   4  -5  -5 122043. 3779.84  64
   4  -5  -5 117270. 3720.58  53
   4  -5  -5 118988. 3945.06  15
   4  -5  -5 110839. 3684.87  22
  -4  -5   4 23094.3 1397.54   2
   4  -5  -4 19940.7 1399.12   5
  -4  -5   4 21963.1 1320.92  42
  -4  -5   4 22523.8 1306.44  46
   4  -5  -4 21626.7 1241.13  67
  -4  -5   4 21986.7 1241.18  69
   4  -5  -4 20927.7 1270.87  64
   4  -5  -4 21478.1 1398.31  59
   4  -5  -4 21145.9 1248.84  53
   4  -5  -4 21329.7 1420.49  15
   4  -5  -4 20650.4 1244.93  22
  -4  -5   3 20835.3 1347.89   2
   4  -5  -3 21418.4 1449.98   5
  -4  -5   3 23567.1 1354.46  42
  -4  -5   3 24263.5 1362.78  46
  -4  -5   3 19945.9 1192.29  69
  -4  -5   3 22802.3 1315.08  31
  -4  -5   3 22399.0 1393.14  66
   4  -5  -3 23028.1 1436.58  59
   4  -5  -3 21339.5 1283.36  64
   4  -5  -3 22375.1 1251.76  53
   4  -5  -3 20945.0 1218.47  22
   4  -5  -3 21734.2 1448.20  15
  -4  -5   2 17835.5 1247.21  20
   4  -5  -2 17338.8 1057.53  22
   4  -5  -2 16087.1 1241.31  15
  -4  -5   2 16870.5 1198.85   2
   4  -5  -2 17390.1 1294.31   5
   4  -5  -2 16172.2 1187.84  82
   4  -5  -2 17372.5 1129.02  68
  -4  -5   2 16655.5 1065.78  69
  -4  -5   2 18397.0 1138.79  31
   4  -5  -2 15945.8 1209.01  59
  -4  -5   2 17857.1 1237.29  66
   4  -5  -2 18966.8 1101.92  53
  -4  -5   2 16546.6 1118.73  46
   4  -5  -1 46635.3 2239.32   5
   4  -5  -1 49358.2 2192.36  82
   4  -5  -1 44786.7 2015.85  68
  -4  -5   1 49740.6 2000.29  69
  -4  -5   1 47403.1 1828.29  36
   4  -5  -1 47105.1 1975.09  27
  -4  -5   1 49657.3 1985.55  31
  -4  -5   1 49005.5 2186.94  66
  -4  -5   1 49392.8 2218.26  20
   4  -5  -1 45682.3 2212.37  15
  -4  -5   1 49523.5 2046.55  42
  -4  -5   0 70904.4 2693.25   2
   4  -5   0 71059.5 2825.49   5
   4  -5   0 67383.4 2681.15  82
   4  -5   0 68816.3 2640.95  68
  -4  -5   0 70677.5 2514.83  69
  -4  -5   0 67726.7 2397.84  31
   4  -5   0 64455.3 2547.50  27
  -4  -5   0 70440.4 2759.89  66
  -4  -5   0 71242.2 2549.69  42
  -4  -5   0 72438.8 2821.17  20
   4  -5   0 63137.1 2688.74  15
  -4  -5  -1 14584.9 1068.22   2
   4  -5   1 13066.4 1075.46   5
   4  -5   1 13906.0 1070.90  82
   4  -5   1 15315.4 1119.11  68
  -4  -5  -1 14330.0 996.738  69
   4  -5   1 11950.1 1027.97  27
  -4  -5  -1 15596.9 1156.14  66
   4  -5   1 16568.6 1234.28  59
  -4  -5  -1 14632.0 1093.83  51
  -4  -5  -1 13492.8 1114.91  20
   4  -5   1 14000.1 1102.37  15
  -4  -5  -2 7471.33 750.991   2
   4  -5   2 9054.38 855.786   5
   4  -5   2 9123.39 842.049  82
   4  -5   2 7132.75 773.676  68
  -4  -5  -2 7366.16 708.197  69
   4  -5   2 6948.03 797.646  27
  -4  -5  -2 7901.79 832.904  66
  -4  -5  -2 7461.44 769.045  51
  -4  -5  -2 6898.09 791.417  20
   4  -5   3 16064.6 1125.59  82
   4  -5   3 16533.0 1267.97  27
  -4  -5  -3 13119.1 1029.23  51
  -4  -5  -3 14693.5 1018.32   2
  -4  -5  -3 15779.2 1024.02   6
   4  -5   3 15375.8 1076.38   5
  -4  -5  -3 17586.5 1111.18  69
   4  -5   3 15875.4 1168.45  68
  -4  -5  -3 16908.2 1200.84  66
   4  -5   4 36917.4 1749.39  82
   4  -5   4 39556.9 1936.87  68
  -4  -5  -4 39452.3 1920.09  66
  -4  -5  -4 38386.8 1771.21  51
  -4  -5  -4 38977.8 1603.51   6
   4  -5   5 1264.15 338.233  68
  -4  -5  -5 1143.40 291.770  51
   4  -5   5 1522.75 314.119  82
  -4  -5  -5 1577.06 361.279  66
  -4  -5  -6 42229.4 1712.46  70
  -4  -5  -6 42243.4 1888.59  66
   4  -5   6 39296.2 1866.36  68
  -4  -5  -6 41796.3 1692.05  51
  -4  -5  -7 9865.16 710.291  70
   4  -5   7 11433.8 865.408  68
  -4  -5  -8 4885.07 436.220  70
   4  -5   8 5867.22 542.091  68
   4  -5   8 4652.79 476.859  59
  -4  -5  -9 521.549 113.882  70
   4  -5   9 388.364 142.209  68
   4  -5   9 453.246 117.767  59
   4  -4 -13 53332.2 1761.73  52
  -4  -4  12 7695.24 585.001  36
   4  -4 -12 6864.25 604.289  52
   4  -4 -11 53933.5 2048.09  64
  -4  -4  11 51731.9 1876.39  31
   4  -4 -11 50926.8 2059.82  52
   4  -4 -10 30292.8 1559.11  64
   4  -4 -10 31942.3 1505.33  60
   4  -4 -10 32775.4 1628.10  52
  -4  -4  10 32671.7 1540.28  31
   4  -4  -9 306.248 172.157  54
   4  -4  -9 117.877 125.744  64
   4  -4  -9 56.0286 119.540  60
  -4  -4   9 193.524 145.965  42
   4  -4  -8 36480.6 1770.49  64
  -4  -4   8 34438.6 1657.07  42
   4  -4  -8 33235.4 1603.37  54
   4  -4  -8 34048.8 1751.06  53
   4  -4  -8 33433.6 1748.62  22
  -4  -4   7 7463.56 760.204   8
   4  -4  -7 7956.33 750.752   5
  -4  -4   7 8301.99 779.899  42
  -4  -4   7 9329.72 750.685  46
   4  -4  -7 7051.31 728.741  59
   4  -4  -7 7770.25 780.886  64
   4  -4  -7 7525.25 709.998  54
   4  -4  -7 8769.60 821.910  53
   4  -4  -7 7019.55 742.946  22
  -4  -4   6 42859.6 1993.05   8
   4  -4  -6 43899.5 1997.22   5
  -4  -4   6 50604.9 2057.33   2
  -4  -4   6 43708.0 1737.22  29
  -4  -4   6 42389.4 1948.10  42
  -4  -4   6 48774.4 1946.97  46
   4  -4  -6 44316.3 1979.44  59
   4  -4  -6 43673.8 2004.19  64
   4  -4  -6 42522.9 1815.87  54
   4  -4  -6 45660.7 1982.46  53
   4  -4  -6 44077.0 1955.94  22
  -4  -4   5 31577.0 1599.35   8
   4  -4  -5 32222.6 1682.56   5
  -4  -4   5 29025.8 1517.13  42
  -4  -4   5 29681.8 1484.97  46
  -4  -4   5 31311.8 1427.49  29
   4  -4  -5 27962.2 1524.43  64
   4  -4  -5 26442.1 1502.83  59
   4  -4  -5 26735.0 1437.77  53
   4  -4  -5 29355.5 1492.24  22
  -4  -4   4 6601.46 694.454   8
   4  -4  -4 5628.85 699.839   5
  -4  -4   4 5944.90 654.124  42
  -4  -4   4 6345.52 645.235  46
   4  -4  -4 5841.98 668.440  75
  -4  -4   4 6952.63 645.855  29
   4  -4  -4 4802.64 609.764  59
   4  -4  -4 6439.89 679.980  64
   4  -4  -4 6049.98 615.060  53
   4  -4  -4 5182.33 663.869  15
   4  -4  -4 6709.93 643.041  22
   4  -4  -3 61302.0 2526.83  15
   4  -4  -3 58836.5 2142.63  22
   4  -4  -3 58214.2 2491.99   5
   4  -4  -3 55519.4 2385.63  82
   4  -4  -3 54601.9 2282.49  75
  -4  -4   3 61755.4 2232.19  29
   4  -4  -3 62674.4 2449.49  59
   4  -4  -3 58741.6 2142.33  53
  -4  -4   3 63369.7 2326.81  46
   4  -4  -2 56033.8 2400.37   5
   4  -4  -2 54747.3 2312.25  82
   4  -4  -2 52441.3 2052.81  68
   4  -4  -2 55208.2 2193.78  75
  -4  -4   2 55322.2 2116.79  29
   4  -4  -2 51749.5 1929.63  27
  -4  -4   2 59426.3 2304.19  66
   4  -4  -2 52781.1 2285.16  59
  -4  -4   2 60609.6 2345.58  20
   4  -4  -2 54986.8 1985.64  22
   4  -4  -2 51728.1 2299.75  15
  -4  -4   2 58892.2 2183.86  42
  -4  -4   2 59615.8 2219.04  46
   4  -4  -1 2207.58 429.642   5
   4  -4  -1 2133.88 408.986  82
   4  -4  -1 1563.11 321.875  75
   4  -4  -1 2060.06 365.696  68
  -4  -4   1 2960.93 408.369  31
  -4  -4   1 2842.63 427.436  29
   4  -4  -1 2042.81 350.031  27
   4  -4  -1 2485.91 452.173  59
  -4  -4   1 2801.20 454.778  66
  -4  -4   1 2576.84 444.336  20
  -4  -4   1 2626.17 365.852  16
   4  -4  -1 2542.13 462.280  15
   4  -4  -1 2275.71 331.143  22
  -4  -4   1 2522.06 396.130  42
   4  -4   0 15225.8 1116.84   5
   4  -4   0 16072.0 1133.22  82
   4  -4   0 14979.5 1022.35  68
  -4  -4   0 15962.7 942.325  31
   4  -4   0 14036.8 994.865  27
  -4  -4   0 15718.0 1103.59  66
  -4  -4   0 16720.9 1012.33  42
  -4  -4   0 14606.6 988.264  46
   4  -4   0 13721.5 1062.50  15
  -4  -4   0 16949.2 991.277  16
  -4  -4   0 14307.9 1075.37  20
  -4  -4  -1 118868. 3841.23  20
   4  -4   1 105004. 3672.90  15
   4  -4   1 119184. 3814.78   5
   4  -4   1 115620. 3794.10  82
   4  -4   1 119047. 3701.56  68
   4  -4   1 117927. 3754.19  27
  -4  -4  -1 112643. 3277.75  31
  -4  -4  -1 110653. 3726.61  66
  -4  -4  -1 111870. 3718.69  51
  -4  -4  -1 116653. 3456.57  42
  -4  -4  -1 121956. 3601.15  46
   4  -4   2 63096.1 2511.51   5
   4  -4   2 66636.4 2622.61  82
  -4  -4  -2 67259.2 2368.14  69
   4  -4   2 63831.4 2527.15  68
   4  -4   2 63322.0 2620.28  27
  -4  -4  -2 61735.0 2545.94  66
  -4  -4  -2 64500.5 2552.61  51
  -4  -4  -2 66072.3 2627.35  20
  -4  -4  -3 7430.15 689.921   2
   4  -4   3 5846.33 647.909   5
   4  -4   3 5511.08 680.708  82
  -4  -4  -3 6008.66 623.743  69
   4  -4   3 5496.84 713.309  27
   4  -4   3 5969.29 686.092  34
  -4  -4  -3 5221.33 652.798  66
   4  -4   3 5788.45 738.192  62
  -4  -4  -3 6208.98 694.827  51
   4  -4   3 5314.46 554.279  38
   4  -4   4 44346.4 2049.07  82
  -4  -4  -4 44805.6 2090.38  66
   4  -4   4 42237.5 2179.83  27
   4  -4   4 47305.8 2011.62  35
   4  -4   4 45354.3 2079.80  34
   4  -4   4 41429.1 2137.23  62
  -4  -4  -4 44508.9 2010.80  51
   4  -4   4 45409.3 1859.80  38
   4  -4   5 31382.4 1619.27  82
  -4  -4  -5 30765.7 1506.48  70
  -4  -4  -5 32087.2 1708.05  66
   4  -4   5 25501.0 1679.18  27
   4  -4   5 31076.8 1597.20  35
   4  -4   5 32184.4 1701.04  34
   4  -4   5 30303.5 1750.01  62
  -4  -4  -5 27518.0 1530.11  51
   4  -4   5 29134.3 1461.60  38
   4  -4   6 58822.6 2295.49  82
  -4  -4  -6 58200.3 2235.22  70
  -4  -4  -6 58527.7 2418.10  66
   4  -4   6 56221.6 2310.79  35
   4  -4   6 57889.4 2521.30  62
  -4  -4  -6 59213.9 2238.49  55
  -4  -4  -6 57230.3 2283.49  51
   4  -4   6 58670.6 2234.29  38
   4  -4   7 408.093 167.910  82
  -4  -4  -7 619.163 203.498  70
  -4  -4  -7 433.730 178.409  51
  -4  -4  -7 874.964 235.808  55
   4  -4   7 425.650 175.100  38
   4  -4   7 876.720 275.598  62
  -4  -4  -7 634.861 238.659  66
  -4  -4  -8 59926.3 1727.77  70
  -4  -4  -8 59298.9 1904.56  66
  -4  -4  -8 61081.7 1702.40  51
   4  -4   8 63118.4 1764.60  38
   4  -4   8 62246.7 1978.40  62
  -4  -4  -9 18769.6 925.237  70
   4  -4   9 19132.1 1034.54  68
   4  -4   9 17310.7 907.218  38
   4  -4   9 17803.6 987.796  62
   4  -4  10 29021.8 1145.52  68
   4  -3 -13 2531.59 358.203  52
   4  -3 -12 17804.6 1074.75  64
   4  -3 -12 17453.2 1073.80  52
   4  -3 -11 168.745 169.766  64
   4  -3 -11 452.364 208.976  52
   4  -3 -10 13275.8 1039.10  64
   4  -3 -10 11246.2 831.580  60
   4  -3 -10 13395.1 1023.45  52
   4  -3 -10 13864.6 1025.35  54
  -4  -3  10 14134.3 921.417  42
  -4  -3   9 18300.4 1170.51   8
   4  -3  -9 20583.2 1346.16  78
   4  -3  -9 18616.3 1250.35  64
   4  -3  -9 19421.8 1167.42  60
   4  -3  -9 19089.5 1237.85  54
   4  -3  -9 18460.4 1250.61  22
   4  -3  -8 54675.9 2310.67  22
   4  -3  -8 55909.2 2397.39  78
  -4  -3   8 56750.0 2279.41   8
   4  -3  -8 57223.8 2375.26  64
   4  -3  -8 52580.1 2246.82  54
  -4  -3   8 54089.1 2044.76  46
  -4  -3   7 63535.1 2444.19   8
   4  -3  -7 60071.3 2520.35  78
  -4  -3   7 61451.4 2148.48  29
   4  -3  -7 59505.3 2249.25  59
   4  -3  -7 58659.4 2424.56  64
   4  -3  -7 60486.0 2368.65  54
   4  -3  -7 63091.8 2427.16  53
   4  -3  -7 64038.1 2432.48  22
  -4  -3   6 1676.10 349.648   8
   4  -3  -6 1918.93 376.453   5
   4  -3  -6 2209.31 438.039  85
   4  -3  -6 1750.55 377.427  75
  -4  -3   6 1860.38 325.370  29
   4  -3  -6 2129.08 413.537  64
   4  -3  -6 1822.67 342.733  59
   4  -3  -6 1620.04 336.702  53
   4  -3  -6 2161.12 382.214  54
   4  -3  -6 1919.60 360.726  22
  -4  -3   5 25929.1 1410.88   8
   4  -3  -5 29576.7 1532.08   5
   4  -3  -5 25051.3 1474.96  78
   4  -3  -5 26336.3 1463.88  75
  -4  -3   5 26685.1 1297.38  29
   4  -3  -5 26481.2 1370.42  59
   4  -3  -5 28760.6 1485.82  64
   4  -3  -5 27335.9 1371.57  54
   4  -3  -5 27380.9 1370.12  53
   4  -3  -5 27293.7 1357.75  22
  -4  -3   4 9879.36 804.604   8
   4  -3  -4 12216.6 954.700   5
   4  -3  -4 10904.5 925.602  85
   4  -3  -4 11634.6 895.640  75
  -4  -3   4 10669.5 774.889  29
   4  -3  -4 11062.0 849.208  59
   4  -3  -4 11171.7 810.339  54
   4  -3  -4 10986.9 771.028  22
   4  -3  -3 75019.3 2789.37  85
   4  -3  -3 75762.3 2679.60  75
  -4  -3   3 76240.7 2530.18  29
   4  -3  -3 73045.4 2617.99  59
   4  -3  -3 79754.6 2813.36  15
   4  -3  -3 73811.9 2385.21  22
  -4  -3   3 77605.8 2343.21  16
   4  -3  -3 80995.6 2852.10   5
  -4  -3   2 67036.8 2311.25   8
   4  -3  -2 64021.1 2485.63   5
   4  -3  -2 67978.8 2533.13  85
   4  -3  -2 65838.9 2488.92  82
   4  -3  -2 62729.9 2355.63  75
  -4  -3   2 67995.7 2292.32  29
   4  -3  -2 60397.8 2050.33  27
  -4  -3   2 64779.5 2339.15  66
   4  -3  -2 63613.0 2389.46  59
   4  -3  -2 68147.8 2510.48  15
   4  -3  -2 65622.4 2062.56  22
  -4  -3   2 68210.8 2158.21  16
  -4  -3   2 64062.8 2280.56  46
   4  -3  -1 16262.8 1088.83  85
   4  -3  -1 16868.6 1118.17  82
   4  -3  -1 17736.6 1075.13  75
  -4  -3   1 17477.1 1006.37  29
   4  -3  -1 17381.0 968.751  27
   4  -3  -1 14935.0 1037.98  62
  -4  -3   1 15231.3 1006.82  66
  -4  -3   1 17862.5 1085.23  20
   4  -3  -1 17059.9 1120.67  15
  -4  -3   1 17024.4 940.961  16
  -4  -3   1 17321.6 992.809   8
   4  -3  -1 16235.7 1107.04   5
  -4  -3   0 24700.5 1203.54   8
   4  -3   0 24479.4 1370.33   5
   4  -3   0 23425.1 1297.84  85
   4  -3   0 23102.9 1354.46  82
   4  -3   0 26115.1 1320.69  75
  -4  -3   0 25796.4 1262.40  29
   4  -3   0 25976.0 1287.67  27
  -4  -3   0 23433.4 1299.17  66
   4  -3   0 22019.6 1326.13  62
  -4  -3   0 26353.3 1374.31  20
  -4  -3   0 26966.0 1246.24  16
  -4  -3   0 24172.0 1173.19  42
   4  -3   0 22071.0 1080.73  38
  -4  -3   0 21342.4 1160.35  46
   4  -3   1 24749.1 1358.35   5
   4  -3   1 19849.7 1288.66  82
   4  -3   1 24101.0 1252.02  75
  -4  -3  -1 23417.1 1318.58  66
   4  -3   1 23305.3 1379.05  62
  -4  -3  -1 24016.1 1144.66  42
  -4  -3  -1 23908.2 1203.13  46
   4  -3   1 22846.3 1154.97  38
  -4  -3  -1 23571.0 1330.60  20
  -4  -3  -1 23705.3 1230.79  16
  -4  -3  -1 22787.8 1037.37  31
   4  -3   1 25448.6 1355.16  27
   4  -3   2 98170.0 3265.25   5
   4  -3   2 99238.4 3432.03  82
  -4  -3  -2 99966.2 3351.00  66
   4  -3   2 98934.0 3467.52  62
  -4  -3  -2 102109. 2954.05  42
  -4  -3  -2 101470. 3108.87  46
   4  -3   2 105606. 3163.35  38
  -4  -3  -2 102941. 3392.54  20
  -4  -3  -2 105810. 3260.37  16
  -4  -3  -3 15769.3 1052.93  16
   4  -3   3 14617.5 997.037   5
   4  -3   3 15798.3 1144.25  82
  -4  -3  -3 13846.1 1047.49  66
   4  -3   3 14643.8 1034.11  35
   4  -3   3 16958.7 1148.51  34
  -4  -3  -3 14527.2 1064.15  51
   4  -3   3 15794.8 1016.10  38
   4  -3   4 61104.6 2480.60  82
  -4  -3  -4 56906.3 2172.63  70
  -4  -3  -4 56475.0 2385.94  66
  -4  -3  -4 57066.2 2053.14  30
   4  -3   4 57450.5 2353.10  35
   4  -3   4 58943.8 2536.34  62
  -4  -3  -4 53931.3 2307.51  51
   4  -3   4 59570.1 2300.10  38
   4  -3   5 7875.41 820.711  82
  -4  -3  -5 6471.26 666.271  70
  -4  -3  -5 6944.89 763.306  66
  -4  -3  -5 7025.37 639.394  30
   4  -3   5 6640.30 741.421  35
   4  -3   5 7070.49 825.943  62
  -4  -3  -5 7874.42 784.891  51
   4  -3   5 7243.23 728.307  38
   4  -3   6 2800.19 482.559  82
  -4  -3  -6 2074.16 385.037  70
   4  -3   6 1788.44 425.841  27
   4  -3   6 2570.74 467.589  35
  -4  -3  -6 2098.18 354.393  30
   4  -3   6 2793.93 510.657  62
  -4  -3  -6 3142.36 520.225  66
  -4  -3  -6 2502.99 453.879  51
   4  -3   6 2706.42 451.805  38
   4  -3   7 3262.71 499.516  82
  -4  -3  -7 3811.11 518.120  70
   4  -3   7 4174.73 572.532  35
  -4  -3  -7 4216.41 491.460  30
  -4  -3  -7 3549.94 546.620  66
   4  -3   7 3560.94 577.428  62
  -4  -3  -7 4325.88 574.272  55
  -4  -3  -7 3926.20 549.570  51
   4  -3   7 3394.82 505.630  38
   4  -3   8 4322.45 532.863  82
  -4  -3  -8 4434.43 529.273  70
  -4  -3  -8 5394.84 638.409  66
  -4  -3  -8 4837.38 501.307  30
   4  -3   8 4351.33 597.267  62
  -4  -3  -8 4993.65 567.950  51
  -4  -3  -8 4709.55 570.542  55
   4  -3   8 4452.85 556.746  38
   4  -3   9 20674.5 1060.28  82
  -4  -3  -9 23361.6 1178.31  70
  -4  -3  -9 23555.7 1068.74  30
   4  -3   9 25452.3 1334.42  62
   4  -3   9 24624.7 1241.86  38
  -4  -3  -9 23541.5 1220.14  55
  -4  -3  -9 23862.4 1183.13  51
   4  -3  10 22568.7 1084.23  62
   4  -3  10 20304.5 1008.42  38
  -4  -3 -10 21951.1 1018.79  55
   4  -3  11 7540.53 471.341  68
   4  -2 -13 38229.2 1636.57  52
   4  -2 -12 17664.9 1125.14  64
   4  -2 -12 14873.3 988.740  78
   4  -2 -12 15305.0 1057.40  52
   4  -2 -11 25661.3 1456.99  64
   4  -2 -11 23763.5 1404.03  52
   4  -2 -11 23601.8 1398.96  54
   4  -2 -11 23420.5 1387.68  78
   4  -2 -10 19543.6 1304.26  78
   4  -2 -10 19545.6 1129.13  79
   4  -2 -10 20645.8 1372.67  74
   4  -2 -10 17735.5 1233.78  64
   4  -2 -10 18707.4 1245.58  52
   4  -2 -10 17670.1 1227.31  54
  -4  -2  10 15470.5 1160.35  24
   4  -2 -10 17611.8 1231.38  22
   4  -2  -9 141344. 4398.47  78
   4  -2  -9 135091. 4020.11  79
   4  -2  -9 139056. 4454.08  74
   4  -2  -9 137859. 4318.36  64
  -4  -2   9 138082. 4161.47   8
   4  -2  -9 140006. 4274.76  52
   4  -2  -9 140051. 4339.13  54
  -4  -2   9 124340. 4144.62  24
   4  -2  -9 140707. 4313.13  22
   4  -2  -8 5190.74 626.303  85
   4  -2  -8 4061.56 595.778  78
   4  -2  -8 3681.27 485.639  79
  -4  -2   8 5410.78 628.491   8
   4  -2  -8 4038.71 568.829  64
   4  -2  -8 4751.76 608.696  54
  -4  -2   8 4527.51 575.995  24
   4  -2  -8 4060.57 547.059  22
   4  -2  -7 56052.9 2301.57  85
   4  -2  -7 55310.0 2301.97  75
  -4  -2   7 59360.6 2303.18   8
   4  -2  -7 58333.1 2341.59  64
   4  -2  -7 54437.7 2250.87  54
   4  -2  -7 59108.0 2243.39  22
   4  -2  -6 15465.0 1099.18  78
   4  -2  -6 15527.9 1073.00  85
   4  -2  -6 14173.5 1027.25  75
   4  -2  -6 14097.1 1009.79  64
  -4  -2   6 16622.3 1060.86   8
   4  -2  -6 15901.6 1053.08  54
   4  -2  -6 14163.6 947.869  53
   4  -2  -6 15855.1 976.454  22
   4  -2  -5 12133.3 940.920  78
   4  -2  -5 12554.2 952.173  85
   4  -2  -5 13894.8 967.103  82
  -4  -2   5 14826.5 943.827   1
   4  -2  -5 13503.9 946.767   5
  -4  -2   5 15104.5 980.464   8
   4  -2  -5 13956.9 966.168  64
   4  -2  -5 13331.7 928.856  54
  -4  -2   5 16187.0 809.407  16
   4  -2  -5 13093.0 835.706  22
  -4  -2   4 79075.8 2656.69   1
   4  -2  -4 72750.2 2660.37   5
  -4  -2   4 76315.1 2597.07   8
   4  -2  -4 82962.9 2792.33  85
   4  -2  -4 76442.0 2703.89  78
  -4  -2   4 80782.7 2382.07  47
  -4  -2   4 78726.5 2357.28  16
   4  -2  -4 80886.3 2414.90  22
   4  -2  -4 77806.0 2704.56  75
  -4  -2   3 10403.0 675.137  47
  -4  -2   3 10483.7 668.586  16
   4  -2  -3 10871.0 632.156  22
  -4  -2   3 10826.9 801.159   1
   4  -2  -3 9783.13 796.670   5
  -4  -2   2 36154.9 1454.04  29
  -4  -2   2 33790.7 1373.34  47
   4  -2  -2 33518.0 1337.31  38
  -4  -2   2 35714.9 1389.68  16
   4  -2  -2 32392.0 1150.75  22
  -4  -2   2 34259.7 1547.96   1
  -4  -2   2 34697.5 1443.04   8
  -4  -2   1 32203.0 1405.75  29
  -4  -2   1 35809.5 1430.20   8
   4  -2  -1 33740.6 1571.93   5
  -4  -2   1 34936.9 1478.82  20
  -4  -2   1 35266.5 1413.46  16
   4  -2  -1 35627.5 1412.27  38
  -4  -2   1 34022.2 1402.07  47
  -4  -2   0 23979.5 1100.63   8
  -4  -2   0 23380.6 1196.93   1
   4  -2   0 24684.1 1286.98   5
   4  -2   0 23573.6 1151.47  38
  -4  -2   0 25414.6 1253.31  20
  -4  -2   0 24342.6 1171.61  16
  -4  -2  -1 77043.3 2516.97  20
  -4  -2  -1 65906.8 2340.24  16
   4  -2   1 69297.5 2583.14  82
  -4  -2  -1 69370.1 2329.73  29
  -4  -2  -1 70772.1 2201.42   8
  -4  -2  -1 71252.3 2382.04   1
   4  -2   1 71521.5 2495.72   5
   4  -2   1 68981.0 2534.06  62
  -4  -2  -1 70708.2 2527.39  51
  -4  -2  -1 69075.6 2168.40  42
  -4  -2  -1 70123.4 2277.42  46
   4  -2   1 69897.0 2379.20  38
  -4  -2  -2 858.845 236.772  16
  -4  -2  -2 992.378 229.763   1
   4  -2   2 769.711 173.760  11
   4  -2   2 667.469 202.051  77
   4  -2   2 795.223 257.564  82
  -4  -2  -2 736.518 205.380  29
  -4  -2  -2 835.967 240.921  66
   4  -2   2 961.445 270.266  62
   4  -2   2 874.728 230.915  65
  -4  -2  -2 690.758 247.586  51
  -4  -2  -2 568.232 149.410  42
   4  -2   2 1114.91 271.880  38
  -4  -2  -2 1408.65 258.953  46
  -4  -2  -3 29183.0 1445.77  16
   4  -2   3 30226.8 1304.79  11
   4  -2   3 29470.1 1581.69  82
  -4  -2  -3 28859.2 1489.04  66
   4  -2   3 30604.6 1537.03  35
  -4  -2  -3 27195.0 1357.32  58
  -4  -2  -3 28389.3 1505.12  51
  -4  -2  -3 29057.9 1257.94  46
   4  -2   3 32278.9 1535.22  38
   4  -2   4 159765. 4525.74  11
   4  -2   4 167378. 4992.68  82
  -4  -2  -4 166927. 4856.87  66
   4  -2   4 175165. 4967.19  35
  -4  -2  -4 166970. 4606.81  58
  -4  -2  -4 166078. 4774.28  16
   4  -2   4 165695. 4474.30  48
   4  -2   4 165596. 4839.64  38
   4  -2   5 9548.66 894.608  82
  -4  -2  -5 8224.13 738.269  70
  -4  -2  -5 8098.49 804.694  66
  -4  -2  -5 7081.43 676.033  30
  -4  -2  -5 6650.88 650.838  58
   4  -2   5 8218.21 697.243  48
   4  -2   5 7288.51 773.927  38
   4  -2   5 6742.00 673.443  11
   4  -2   6 114748. 3700.88  11
   4  -2   6 114236. 3933.70  82
  -4  -2  -6 122301. 3989.67  66
  -4  -2  -6 120809. 3771.14  70
  -4  -2  -6 114952. 3672.31  30
  -4  -2  -6 119811. 3579.24  58
  -4  -2  -6 132242. 4041.68  51
   4  -2   6 121358. 3669.22  48
   4  -2   6 122864. 3981.74  38
   4  -2   7 43127.7 1942.38  11
   4  -2   7 44802.5 2097.37  82
   4  -2   7 45333.4 2089.21  35
  -4  -2  -7 45890.6 1938.88  30
  -4  -2  -7 48995.7 2048.94  70
  -4  -2  -7 47784.1 2162.56  66
  -4  -2  -7 45956.5 2095.77  51
   4  -2   7 45369.8 1902.90  48
   4  -2   7 43634.8 2066.69  38
   4  -2   8 63047.0 2434.91  82
  -4  -2  -8 61726.7 2349.39  70
   4  -2   8 56921.6 2367.87  35
  -4  -2  -8 61856.5 2277.87  30
  -4  -2  -8 60178.5 2446.30  55
  -4  -2  -8 57337.3 2361.69  51
   4  -2   8 53680.0 2132.27  48
   4  -2   8 61549.8 2434.32  38
   4  -2   9 1947.66 355.118  82
   4  -2   9 2220.10 420.433  62
  -4  -2  -9 2209.12 354.741  30
  -4  -2  -9 2029.81 373.793  51
  -4  -2  -9 2215.55 393.498  55
   4  -2   9 2431.21 356.630  48
   4  -2  10 41807.5 1733.15  62
   4  -2  10 40322.2 1535.31  82
  -4  -2 -10 41361.8 1542.56  30
  -4  -2 -10 40103.8 1660.39  55
   4  -2  11 400.180 133.005  62
  -4  -2 -11 196.997 112.450  55
   4  -1 -13 3753.44 445.975  78
   4  -1 -13 3503.29 473.181  52
   4  -1 -12 20602.0 1246.16  64
   4  -1 -12 18834.1 1123.51  79
   4  -1 -12 18700.3 1095.21  81
   4  -1 -12 18095.1 1167.97  78
   4  -1 -12 21052.2 1278.92  52
   4  -1 -11 7248.75 764.943  64
   4  -1 -11 7798.93 792.249  52
   4  -1 -11 9137.71 860.648  78
   4  -1 -11 7283.54 712.124  81
   4  -1 -11 7160.02 721.261  79
   4  -1 -10 28135.8 1478.04  81
   4  -1 -10 31831.0 1707.13  78
   4  -1 -10 28003.3 1516.11  79
  -4  -1  10 29002.9 1495.49   8
   4  -1 -10 27267.1 1559.24  64
   4  -1 -10 26812.1 1543.50  52
   4  -1 -10 28928.1 1602.58  54
   4  -1 -10 29161.7 1604.99  22
   4  -1  -9 52295.3 2112.52  81
   4  -1  -9 51786.5 2100.24  85
   4  -1  -9 52924.7 2338.05  78
   4  -1  -9 51685.5 2188.57  79
   4  -1  -9 52692.4 2362.31  74
  -4  -1   9 55608.2 2230.23   8
   4  -1  -9 49833.0 2223.76  64
   4  -1  -9 53975.9 2229.46  52
   4  -1  -9 51274.4 2260.30  54
  -4  -1   9 48956.4 2066.61  24
   4  -1  -9 52569.4 2224.91  22
   4  -1  -8 38234.3 1705.85  81
   4  -1  -8 38838.5 1792.44  85
   4  -1  -8 40457.4 1836.40  79
   4  -1  -8 38892.3 1795.40  75
   4  -1  -8 43264.0 2017.22  74
  -4  -1   8 39761.7 1829.60   8
   4  -1  -8 42270.9 1909.65  64
   4  -1  -8 40882.5 1806.88  52
   4  -1  -8 45096.8 1960.98  54
  -4  -1   8 37953.0 1688.60  24
   4  -1  -8 38824.5 1779.39  22
   4  -1  -7 52398.7 2161.11  85
   4  -1  -7 57085.8 2310.88  84
   4  -1  -7 57486.0 2343.65  78
   4  -1  -7 50372.0 2111.08  79
   4  -1  -7 56989.1 2077.95  81
   4  -1  -7 52990.6 2155.80  75
   4  -1  -7 58982.3 2363.98  74
  -4  -1   7 56437.0 2015.80   1
  -4  -1   7 58489.2 1928.46   9
  -4  -1   7 59775.6 2256.46   8
   4  -1  -7 54232.0 2213.50  64
   4  -1  -7 54012.7 2074.56  52
   4  -1  -7 56900.7 2248.17  54
  -4  -1   7 56732.3 2044.68  24
   4  -1  -7 55430.6 2116.49  22
   4  -1  -6 28492.7 1434.60  85
   4  -1  -6 24407.5 1399.11  78
   4  -1  -6 27306.9 1361.29  79
   4  -1  -6 27466.3 1398.18  75
   4  -1  -6 26515.5 1435.29  74
   4  -1  -6 25714.7 1366.52  64
   4  -1  -6 25476.5 1355.25  54
   4  -1  -6 27811.1 1275.14  22
  -4  -1   6 29206.9 1342.46   1
  -4  -1   6 27954.6 1197.64   9
  -4  -1   6 28334.4 1396.69   8
   4  -1  -5 92411.6 2709.09  22
  -4  -1   5 89233.1 2681.94   9
  -4  -1   5 95591.3 2925.24   1
  -4  -1   5 94620.4 2955.66   8
   4  -1  -4 64077.0 1937.03  22
  -4  -1   4 64864.3 2236.21   1
  -4  -1   4 63205.0 2061.90   9
   4  -1  -3 124041. 3148.75  22
  -4  -1   3 132388. 3671.30   1
  -4  -1   3 128314. 3561.84   8
  -4  -1   2 91711.6 2728.18  47
   4  -1  -2 90276.8 2758.82  38
  -4  -1   2 98153.7 2906.80   1
  -4  -1   2 94795.4 2751.19   8
  -4  -1   2 90934.6 2668.83  20
  -4  -1   1 106299. 2932.63  37
   4  -1  -1 112551. 3211.39  38
  -4  -1   1 111619. 3145.65  47
  -4  -1   1 105800. 3035.30   8
  -4  -1   1 111201. 3094.69  20
  -4  -1   1 111919. 3126.94  16
  -4  -1   0 187691. 4635.04  29
   4  -1   0 175022. 4720.76  38
  -4  -1   0 173571. 4644.57  47
  -4  -1   0 187713. 4728.84   1
  -4  -1   0 174237. 4464.67   8
  -4  -1   0 176048. 4603.36  20
  -4  -1   0 173962. 4623.99  16
  -4  -1  -1 41049.5 1555.81  29
   4  -1   1 41263.6 1491.03  48
  -4  -1  -1 40485.5 1620.08  47
   4  -1   1 41911.3 1712.56  38
  -4  -1  -1 43703.4 1652.99  16
  -4  -1  -1 42172.0 1623.12  20
  -4  -1  -1 40788.7 1416.70   8
   4  -1   1 38793.0 1347.18  11
  -4  -1  -1 38366.3 1563.62   1
  -4  -1  -2 93486.9 2562.73   8
   4  -1   2 94275.7 2746.68  11
  -4  -1  -2 92797.0 2865.92   1
   4  -1   2 97915.8 2850.65  48
  -4  -1  -2 99420.6 2760.40  46
   4  -1   2 93871.5 3061.83  38
  -4  -1  -2 100514. 2875.21  29
  -4  -1  -2 100037. 3151.08  51
  -4  -1  -2 95376.1 2978.84  16
   4  -1   3 23026.4 1123.57  11
  -4  -1  -3 22115.6 1085.80   1
   4  -1   3 22847.1 1224.10  77
   4  -1   3 24134.2 1371.30  82
  -4  -1  -3 23675.0 1260.23  66
  -4  -1  -3 22352.5 1091.97  29
  -4  -1  -3 22429.8 1228.91  58
   4  -1   3 20101.4 1153.05  65
  -4  -1  -3 24254.1 1333.55  51
   4  -1   3 21793.9 1134.77  48
  -4  -1  -3 22971.0 1002.26  46
   4  -1   3 21334.2 1253.09  38
  -4  -1  -4 104693. 3270.93  16
   4  -1   4 97660.2 3121.27  11
  -4  -1  -4 98097.6 2929.06   1
   4  -1   4 96641.5 3153.85  77
   4  -1   4 102465. 3462.63  82
  -4  -1  -4 108117. 3374.67  66
   4  -1   4 101948. 3401.62  35
   4  -1   4 97949.3 3128.88  65
  -4  -1  -4 97776.6 3229.42  58
  -4  -1  -4 98371.9 3350.42  51
   4  -1   4 108141. 3233.72  48
   4  -1   4 105725. 3438.55  38
  -4  -1  -5 58271.2 2242.74  16
   4  -1   5 53728.1 2140.15  11
   4  -1   5 51305.3 2054.90  77
   4  -1   5 57516.5 2404.93  82
  -4  -1  -5 57202.0 2309.35  66
  -4  -1  -5 51336.5 2087.05  70
   4  -1   5 57290.2 2359.29  35
  -4  -1  -5 54598.2 2205.30  58
  -4  -1  -5 52151.1 2273.42  51
   4  -1   5 56679.5 2197.95  48
   4  -1   6 38149.5 1938.93  82
  -4  -1  -6 39596.9 1799.70  70
  -4  -1  -6 38854.1 1900.54  66
  -4  -1  -6 38371.5 1772.29  30
   4  -1   6 38056.3 1891.98  35
  -4  -1  -6 35760.9 1731.18  58
   4  -1   6 37212.7 1771.35  11
   4  -1   6 38769.9 1801.44  48
   4  -1   7 1361.14 356.539  82
  -4  -1  -7 1477.95 318.008  76
  -4  -1  -7 1240.75 322.365  70
   4  -1   7 1030.94 300.682  35
  -4  -1  -7 1477.47 338.446  30
  -4  -1  -7 1596.38 382.907  66
   4  -1   7 987.884 278.401  48
   4  -1   7 1182.81 303.623  11
   4  -1   8 9393.08 874.823  82
  -4  -1  -8 9439.13 813.133  30
  -4  -1  -8 8718.48 735.961  76
  -4  -1  -8 6783.28 770.245  55
   4  -1   8 8085.98 765.654  48
   4  -1   8 8255.68 817.616  38
   4  -1   9 12271.3 955.913  82
  -4  -1  -9 12006.2 970.007  55
  -4  -1  -9 14123.8 1027.71  51
   4  -1   9 13519.0 943.083  48
   4  -1   9 13943.7 1009.82  38
  -4  -1  -9 14358.5 963.291  30
   4  -1  10 997.675 245.265  82
  -4  -1 -10 638.747 200.284  30
  -4  -1 -10 1051.40 274.892  55
   4  -1  10 589.662 178.529  48
   4  -1  10 674.233 214.926  38
   4  -1  11 30460.4 1266.14  62
   4  -1  11 26487.2 1089.69  82
  -4  -1 -11 30152.0 1253.68  55
   4   0 -14 2405.54 316.572  79
   4   0 -13 29684.5 1573.38  74
   4   0 -13 31055.3 1451.49  78
   4   0 -13 32813.9 1495.92  79
   4   0 -13 31467.9 1463.43  81
   4   0 -12 414.072 209.329  78
   4   0 -12 454.803 218.696  81
   4   0 -12 172.426 137.220  79
   4   0 -12 298.538 191.139  52
   4   0 -12 471.959 215.809  74
   4   0 -11 17121.4 1177.38  64
   4   0 -11 17846.8 1323.19  84
   4   0 -11 18776.5 1280.84  78
   4   0 -11 17566.8 1231.06  79
   4   0 -11 17475.9 1203.84  81
   4   0 -11 17811.6 1225.36  52
   4   0 -11 17005.9 1187.51  54
   4   0 -11 17688.4 1305.40  74
   4   0 -10 23289.5 1542.79  74
   4   0 -10 24547.2 1491.85  79
   4   0 -10 25375.5 1596.89  84
   4   0 -10 25408.6 1549.61  78
   4   0 -10 26072.2 1510.92  81
   4   0 -10 25760.0 1485.21  64
   4   0 -10 25635.4 1479.30  52
   4   0 -10 23836.4 1448.80  54
  -4   0  10 26738.9 1444.27   8
   4   0  -9 4739.87 663.718  74
   4   0  -9 5390.29 702.094  84
   4   0  -9 6498.14 753.011  78
   4   0  -9 6448.18 631.983  85
   4   0  -9 5896.40 685.041  81
   4   0  -9 5427.58 678.201  79
   4   0  -9 5483.57 652.494  64
   4   0  -9 4753.41 597.331  52
   4   0  -9 5679.90 668.669  54
  -4   0   9 5691.64 657.726   8
  -4   0   8 8820.07 716.345   9
   4   0  -8 8391.38 740.255  75
   4   0  -8 10710.2 941.707  74
   4   0  -8 8449.73 757.890  85
   4   0  -8 9912.60 903.024  84
   4   0  -8 9048.67 816.913  81
   4   0  -8 10106.1 885.194  79
   4   0  -8 9829.70 841.793  64
   4   0  -8 9463.64 795.859  52
   4   0  -8 10615.3 889.561  54
   4   0  -8 9330.00 786.443  22
  -4   0   7 33164.5 1463.02   9
  -4   0   7 35482.4 1489.33   1
   4   0  -7 34047.4 1553.59  75
   4   0  -7 33689.5 1698.77  74
   4   0  -7 34331.2 1626.23  72
   4   0  -7 33867.9 1593.28  81
   4   0  -7 37210.9 1659.38  85
   4   0  -7 33443.7 1664.50  84
   4   0  -7 32834.4 1698.10  78
   4   0  -7 36486.9 1715.81  79
   4   0  -7 35851.6 1646.59  64
   4   0  -7 33092.0 1497.71  52
   4   0  -7 36650.8 1690.26  54
   4   0  -7 35303.6 1533.66  22
  -4   0   6 316267. 7320.76   1
  -4   0   6 292640. 7199.76   9
   4   0  -6 299006. 7526.25  74
   4   0  -6 277919. 7360.60  72
   4   0  -6 294574. 7560.12  78
   4   0  -6 307400. 7526.05  79
   4   0  -6 297099. 7459.24  54
   4   0  -6 304326. 7432.21  64
   4   0  -6 277768. 7104.56  22
   4   0  -5 12799.8 722.515  22
  -4   0   5 14739.9 849.427   9
   4   0  -4 657.589 189.200  26
   4   0  -4 314.502 96.1469  22
  -4   0   4 347.811 139.005   9
   4   0  -3 20231.4 1036.76  26
  -4   0   3 18024.1 863.672  37
  -4   0   3 19419.0 808.121  20
  -4   0   3 17519.7 931.405   9
  -4   0   2 15302.5 789.212  37
   4   0  -2 13611.0 865.298  38
  -4   0   2 15072.7 705.104  20
  -4   0   2 16111.5 864.416   9
  -4   0   1 182752. 4632.58  37
   4   0  -1 182408. 4830.55  26
  -4   0   1 181323. 4476.78  33
   4   0  -1 191342. 4910.22  38
  -4   0   1 185732. 4474.79  20
   4   0  -1 183284. 4269.99  12
  -4   0   1 185790. 4616.89   8
  -4   0   0 426.356 144.385  37
  -4   0   0 730.460 170.838  33
  -4   0   0 328.046 145.619  47
   4   0   0 258.862 138.216  38
   4   0   0 115.918 101.189  26
  -4   0   0 467.352 167.267  16
  -4   0   0 424.087 132.774   8
   4   0   1 9421.76 750.785  38
   4   0   1 9956.07 699.382  48
  -4   0  -1 9424.04 684.925  37
   4   0   1 10527.1 738.844  26
  -4   0  -1 10337.9 649.154  33
   4   0   1 9349.05 606.196  11
  -4   0  -1 11363.8 597.318   8
  -4   0  -2 10391.6 665.423  29
  -4   0  -2 10853.3 705.968  33
   4   0   2 10332.5 693.451  11
   4   0   2 10829.1 766.961  48
  -4   0  -2 10743.0 762.205  47
  -4   0  -2 10764.3 760.790  16
  -4   0  -3 41140.2 1714.59  16
   4   0   3 41214.9 1668.54  11
  -4   0  -3 39543.4 1548.17   1
   4   0   3 43707.7 1818.48  77
  -4   0  -3 42364.6 1515.14  29
  -4   0  -3 45861.2 1705.24  33
  -4   0  -3 37644.4 1750.41  58
   4   0   3 40780.9 1751.64  65
  -4   0  -3 41710.0 1814.78  51
   4   0   3 42848.2 1774.20  48
  -4   0  -4 12802.2 907.496  16
   4   0   4 12952.1 940.351  77
  -4   0  -4 12663.9 923.639  66
   4   0   4 14156.4 937.282  11
  -4   0  -4 13675.0 790.240   1
   4   0   4 13918.7 954.111  65
  -4   0  -4 13045.4 979.574  58
  -4   0  -4 13139.8 986.078  51
   4   0   4 14654.1 1001.15  48
   4   0   4 14142.7 1044.20  38
  -4   0  -5 20199.7 1177.13  16
   4   0   5 20593.9 1215.98  77
  -4   0  -5 19832.5 1108.05  83
  -4   0  -5 21777.2 1226.40  70
  -4   0  -5 20918.6 1272.40  66
   4   0   5 19138.6 1149.15  65
  -4   0  -5 20323.7 1280.21  58
   4   0   5 22066.0 1304.74  48
   4   0   5 21428.7 1345.55  38
  -4   0  -5 21984.7 1345.14  51
   4   0   5 20649.9 1235.93  11
  -4   0  -6 138451. 4026.34  16
   4   0   6 126385. 4070.20  11
   4   0   6 124559. 3928.64  77
  -4   0  -6 133401. 4197.44  58
  -4   0  -6 133958. 4275.78  51
   4   0   6 136921. 4215.79  48
   4   0   6 136432. 4287.67  38
   4   0   7 43090.7 1989.23  11
   4   0   7 42257.9 1816.44  77
  -4   0  -7 43515.8 1949.54  30
  -4   0  -7 45692.1 2121.77  51
   4   0   7 44021.5 2040.36  48
   4   0   7 39715.7 2003.24  38
   4   0   8 45644.4 2130.15  82
  -4   0  -8 46142.0 2005.13  30
  -4   0  -8 43575.1 1964.86  76
  -4   0  -8 46945.7 2157.99  51
  -4   0  -8 42513.4 2066.44  55
   4   0   8 47714.5 2089.70  48
   4   0   8 45455.8 2080.44  38
   4   0   9 887.700 275.353  82
  -4   0  -9 767.583 238.169  30
  -4   0  -9 551.281 207.335  76
  -4   0  -9 536.669 238.233  55
   4   0   9 545.714 201.949  48
   4   0   9 337.347 189.981  38
   4   0  10 55450.2 1825.41  82
  -4   0 -10 57866.5 1762.46  30
  -4   0 -10 54715.3 1842.86  55
   4   0  10 54200.8 1757.85  48
   4   0  10 55066.8 1776.84  38
  -4   0 -11 30.2693 72.1855  30
   4   0  11 63.7661 96.1734  82
  -4   0 -11 34.5639 97.5262  55
   4   0  12 850.089 144.153  62
   4   1 -14 7600.56 602.725  79
   4   1 -14 9176.03 697.026  74
   4   1 -13 4716.37 541.661  78
   4   1 -13 4453.01 548.345  79
   4   1 -13 5159.42 587.219  81
   4   1 -13 4298.70 559.860  74
   4   1 -12 18154.9 1220.72  81
   4   1 -12 17110.7 1235.65  84
   4   1 -12 16858.0 1168.41  78
   4   1 -12 15716.9 1143.20  79
   4   1 -12 17157.5 1213.82  74
   4   1 -11 4548.61 659.628  74
   4   1 -11 6295.55 685.165  54
   4   1 -11 6056.51 725.783  81
   4   1 -11 5689.24 736.152  84
   4   1 -11 5666.99 720.657  78
   4   1 -11 6016.18 724.842  79
   4   1 -10 21671.1 1308.60  64
   4   1 -10 23165.4 1503.52  74
   4   1 -10 23082.1 1399.29  52
   4   1 -10 20032.5 1298.96  54
   4   1 -10 22444.2 1495.15  84
   4   1 -10 24212.6 1511.19  81
   4   1 -10 22805.6 1482.07  78
   4   1 -10 25017.1 1539.06  79
   4   1  -9 60394.4 2508.99  81
   4   1  -9 58435.0 2528.83  84
   4   1  -9 58932.4 2296.38  64
   4   1  -9 55764.4 2485.81  74
   4   1  -9 58961.2 2344.98  52
   4   1  -9 56037.4 2325.79  54
  -4   1   9 53123.9 2193.17   9
   4   1  -8 44182.5 1877.95  85
   4   1  -8 47881.7 2144.15  84
   4   1  -8 45058.8 2118.20  78
   4   1  -8 45650.4 2056.49  81
   4   1  -8 43619.6 2056.70  74
   4   1  -8 44643.4 1933.55  72
   4   1  -8 44465.9 1904.23  64
   4   1  -8 48693.7 1959.84  52
   4   1  -8 46378.7 1996.21  54
  -4   1   8 42196.6 1871.17   9
   4   1  -7 63640.0 2462.17  81
   4   1  -7 64741.5 2508.81  84
   4   1  -7 64723.4 2558.94  78
   4   1  -7 66593.7 2547.03  79
   4   1  -7 65096.0 2492.63  74
   4   1  -7 63991.1 2412.72  72
   4   1  -7 62751.2 2154.34  26
   4   1  -7 64021.0 2339.14  64
   4   1  -7 66674.4 2300.49  52
   4   1  -7 66049.6 2432.47  54
  -4   1   7 65965.1 2367.37   9
   4   1  -6 26799.8 1389.02  84
   4   1  -6 23516.4 1369.04  78
   4   1  -6 25827.0 1387.77  79
   4   1  -6 21266.0 1257.18  81
   4   1  -6 28971.5 1413.64  74
   4   1  -6 26453.2 1372.46  72
   4   1  -6 24093.5 1311.62  61
  -4   1   6 27025.6 1322.22   9
   4   1  -6 27091.2 1361.30  54
   4   1  -6 30243.4 1310.44  26
   4   1  -5 77558.2 2636.07  61
  -4   1   5 77477.4 2533.17   9
   4   1  -5 82490.4 2576.71  26
   4   1  -5 71975.3 2576.29  79
  -4   1   4 60097.8 1783.63  18
   4   1  -4 61498.5 2136.00  26
  -4   1   4 59150.7 2074.55   9
   4   1  -3 144149. 3947.15  26
  -4   1   3 136422. 3474.04  18
  -4   1   3 141436. 3660.10  33
  -4   1   3 138013. 3812.31   9
  -4   1   2 103066. 2902.83  33
   4   1  -2 109180. 2762.53  12
  -4   1   2 102186. 3035.98   9
  -4   1   1 96503.1 2805.43  33
   4   1  -1 103315. 3048.83  26
  -4   1   1 99840.3 2932.36  37
   4   1  -1 101645. 2725.98  12
  -4   1   0 164010. 4450.98  37
   4   1   0 169566. 4552.87  26
  -4   1   0 167574. 4361.99  33
   4   1   0 166580. 4291.57  45
  -4   1  -1 44068.5 1667.77  37
   4   1   1 42786.0 1656.59  26
  -4   1  -1 39579.0 1539.78  33
   4   1   1 38633.5 1524.82  11
  -4   1  -1 37235.9 1285.58   8
  -4   1  -1 42514.2 1606.74  16
   4   1   1 39598.0 1742.71  38
   4   1   1 39044.1 1658.82  48
  -4   1  -1 38518.2 1571.11  47
   4   1   1 39217.6 1494.47  45
   4   1   2 105057. 3290.50  77
  -4   1  -2 99143.8 3162.77  37
   4   1   2 108023. 3164.17  26
  -4   1  -2 104307. 3104.03  33
  -4   1  -2 100544. 2841.67  29
   4   1   2 112649. 3202.20  11
   4   1   2 102405. 2848.47  10
  -4   1  -2 105540. 3345.13  58
   4   1   2 101564. 3265.11  65
   4   1   2 100330. 3337.38  38
   4   1   2 109713. 3328.33  48
  -4   1  -2 111741. 3184.95  47
   4   1   2 105023. 3101.02  45
  -4   1  -2 109482. 3160.31  16
  -4   1  -2 102844. 2785.82  14
  -4   1  -3 22287.5 1139.89  16
   4   1   3 22626.1 1260.07  77
   4   1   3 20297.8 1071.26  26
  -4   1  -3 21717.2 1144.50  33
   4   1   3 21701.4 1174.94  11
   4   1   3 19420.9 971.631  10
   4   1   3 19172.1 1168.04  65
  -4   1  -3 19951.4 1164.94  51
   4   1   3 20069.7 1214.65  48
  -4   1  -3 21600.0 1123.39  47
   4   1   3 20565.9 1248.88  38
  -4   1  -4 114637. 3358.34  16
  -4   1  -4 111215. 3450.24  83
   4   1   4 105640. 3483.70  77
  -4   1  -4 108932. 3400.09  33
   4   1   4 104737. 3436.33  65
   4   1   4 114019. 3618.39  48
   4   1   4 115207. 3661.65  38
  -4   1  -4 107175. 3326.47  50
  -4   1  -4 102656. 3492.07  51
   4   1   4 115131. 3512.41  11
   4   1   4 107722. 3185.93  10
  -4   1  -5 50328.0 1959.62  16
   4   1   5 45543.5 2050.08  11
   4   1   5 49600.8 1902.35  10
  -4   1  -5 45794.3 1966.49  83
   4   1   5 46764.4 2052.93  77
  -4   1  -5 48018.4 2195.97  58
   4   1   5 50751.0 2067.99  65
  -4   1  -5 51161.3 2200.94  51
  -4   1  -5 49916.4 1936.13  50
   4   1   5 53929.4 2253.51  48
   4   1   5 52791.2 2237.71  38
  -4   1  -6 30219.0 1445.64  16
   4   1   6 30460.9 1641.89  11
   4   1   6 30071.2 1453.45  10
  -4   1  -6 32813.9 1757.61  58
   4   1   6 29796.6 1513.91  65
  -4   1  -6 30125.2 1488.17  83
   4   1   6 30108.7 1569.43  77
  -4   1  -6 30134.6 1671.08  51
   4   1   6 30075.1 1661.70  48
   4   1   6 28997.3 1638.65  38
   4   1   7 2770.19 483.589  11
   4   1   7 2408.16 421.136  77
  -4   1  -7 2404.64 375.097  83
   4   1   7 2197.46 380.007  65
  -4   1  -7 2213.90 457.635  51
   4   1   7 2601.33 474.556  48
   4   1   7 2523.52 475.781  38
  -4   1  -8 8632.12 838.451  76
   4   1   8 9265.57 776.099  77
  -4   1  -8 8412.34 782.492  30
  -4   1  -8 10557.2 959.278  51
  -4   1  -8 10348.2 917.678  55
   4   1   8 10837.6 938.717  48
   4   1   8 9652.40 879.457  38
  -4   1  -9 18603.9 1177.95  76
   4   1   9 17569.7 988.876  77
  -4   1  -9 18696.8 1131.31  30
  -4   1  -9 20082.2 1233.34  55
   4   1   9 20931.0 1254.17  48
   4   1   9 18778.6 1153.65  38
  -4   1 -10 562.454 190.887  76
   4   1  10 563.451 218.830  82
  -4   1 -10 627.443 203.383  55
   4   1  10 686.739 218.912  48
   4   1  10 897.522 226.613  38
   4   1  10 937.257 230.491  45
  -4   1 -10 1172.97 252.005  30
  -4   1 -11 25486.8 1091.09  55
  -4   1 -11 25908.7 1094.10  80
   4   1  11 23978.8 1098.45  82
   4   2 -14 1373.84 225.415  78
   4   2 -14 1223.52 240.268  79
   4   2 -13 35563.5 1693.51  84
   4   2 -13 38253.4 1639.22  78
   4   2 -13 37137.5 1652.26  74
   4   2 -12 16178.1 1173.19  84
   4   2 -12 16224.8 1132.31  78
   4   2 -12 13889.7 1045.53  74
   4   2 -11 25655.8 1605.19  84
   4   2 -11 25578.5 1561.03  78
   4   2 -11 27358.1 1612.95  79
   4   2 -11 26872.2 1576.84  74
   4   2 -10 21165.2 1450.41  84
   4   2 -10 21352.5 1460.93  79
   4   2 -10 21549.4 1412.89  74
   4   2 -10 19451.3 1204.25  54
  -4   2  10 20651.7 1317.15   9
   4   2  -9 141685. 4566.57  84
   4   2  -9 140676. 4561.86  78
   4   2  -9 137667. 4529.61  79
   4   2  -9 138149. 4043.71  64
   4   2  -9 143391. 4435.22  74
   4   2  -9 135486. 4132.10  72
   4   2  -9 134562. 4161.31  54
  -4   2   9 143039. 4355.62   9
   4   2  -8 4653.88 644.088  78
   4   2  -8 4610.44 641.368  79
   4   2  -8 3507.96 524.457  74
   4   2  -8 4823.08 583.821  72
   4   2  -8 4848.17 528.809  64
   4   2  -8 4596.17 579.125  61
   4   2  -8 4265.36 544.547  54
  -4   2   8 4778.26 612.315   9
  -4   2   7 59756.2 2308.78   9
   4   2  -7 57894.9 2407.29  78
   4   2  -7 54330.9 2301.58  79
   4   2  -7 58640.3 2246.81  74
   4   2  -7 58324.0 2283.95  72
   4   2  -7 57552.1 2056.37  26
   4   2  -7 52265.0 2223.33  61
   4   2  -7 55601.6 2163.44  54
  -4   2   7 51729.7 1978.05  18
  -4   2   6 10573.2 843.389   9
   4   2  -6 11477.2 843.586  74
   4   2  -6 12278.2 935.815  72
   4   2  -6 11626.0 910.622  61
   4   2  -6 11695.8 946.975  78
   4   2  -6 10587.1 882.746  79
   4   2  -6 11406.5 848.304  54
   4   2  -6 14157.4 898.159  26
  -4   2   6 12123.8 784.117  18
   4   2  -5 12600.0 936.160  78
   4   2  -5 13454.2 934.121  79
   4   2  -5 12968.0 935.506  61
   4   2  -5 14845.2 934.881  26
  -4   2   5 13030.5 789.428  18
  -4   2   5 12765.6 894.054   9
  -4   2   4 85289.4 2509.79  40
   4   2  -4 81738.8 2761.94  73
   4   2  -4 84342.0 2813.26  61
  -4   2   4 83130.2 2513.14  18
  -4   2   4 79856.4 2503.66  32
  -4   2   4 80846.8 2700.81   9
  -4   2   3 12785.6 762.770  32
   4   2  -3 14646.9 932.895  26
  -4   2   3 12737.6 749.535  18
  -4   2   3 12122.6 727.578  40
  -4   2   2 36263.8 1464.62  33
  -4   2   2 35157.7 1383.41  32
   4   2  -2 37074.9 1297.48  19
  -4   2   2 33981.1 1353.03  18
  -4   2   2 35706.6 1390.10  40
   4   2  -2 35633.9 1388.57  12
  -4   2   1 27866.4 1264.13  33
   4   2  -1 30266.0 1404.26  26
   4   2  -1 27674.6 1117.40  19
   4   2  -1 29332.1 1444.08  38
  -4   2   1 26427.0 1280.44  37
   4   2  -1 29456.3 1261.04  12
  -4   2   1 29051.3 1292.34   9
  -4   2   0 26238.9 1229.82  33
   4   2   0 29028.5 1294.44  12
   4   2   0 28907.9 1350.43  26
  -4   2   0 25783.4 1261.96  37
   4   2   0 26624.6 1393.65  38
   4   2   0 27387.0 1268.90  45
   4   2   1 93708.0 3011.12  77
  -4   2  -1 87529.9 2844.23  37
  -4   2  -1 85962.7 2775.58  33
  -4   2  -1 87634.0 2975.50  58
  -4   2  -1 89472.9 2770.07  47
   4   2   1 91158.5 3053.98  38
   4   2   1 90373.5 2851.82  45
   4   2   1 88587.4 2662.34  44
   4   2   1 93351.8 2907.93  26
  -4   2  -2 793.068 228.392  37
  -4   2  -2 532.955 201.408  33
   4   2   2 782.051 199.040  10
  -4   2  -2 884.059 263.870  58
   4   2   2 465.805 183.566  65
   4   2   2 1074.48 289.550  48
  -4   2  -2 518.982 170.840  47
   4   2   2 663.646 228.827  38
   4   2   2 716.954 216.687  45
   4   2   2 535.753 168.817  44
   4   2   2 533.991 196.139  26
  -4   2  -2 830.014 211.192  16
  -4   2  -3 23725.3 1183.03  16
  -4   2  -3 21585.1 1066.82  14
   4   2   3 23946.4 1361.31  77
  -4   2  -3 24783.6 1385.14  83
   4   2   3 24536.0 1233.30  26
  -4   2  -3 25796.3 1311.07  33
   4   2   3 21933.1 1290.75  11
   4   2   3 22212.2 1160.11  10
   4   2   3 20464.9 1260.98  65
  -4   2  -3 25560.4 1444.99  58
  -4   2  -3 24866.0 1314.97  51
   4   2   3 23960.1 1377.35  38
   4   2   3 24522.6 1425.43  48
  -4   2  -3 24577.8 1200.48  47
   4   2   3 24935.3 1348.43  45
   4   2   3 26015.2 1250.28  44
  -4   2  -4 166073. 4543.27  16
   4   2   4 172298. 4936.77  77
  -4   2  -4 171952. 4931.04  83
  -4   2  -4 175217. 4799.11  33
  -4   2  -4 169626. 4432.91  14
   4   2   4 168799. 4922.34  11
   4   2   4 156548. 4577.28  10
  -4   2  -4 160948. 4412.36   3
   4   2   4 174010. 4913.27  65
  -4   2  -4 174779. 5097.50  58
  -4   2  -4 167901. 4838.62  51
  -4   2  -4 175283. 4871.67  50
   4   2   4 175009. 4965.89  38
   4   2   4 170503. 4877.83  45
  -4   2  -5 10133.9 751.713  16
   4   2   5 10988.2 949.037  11
   4   2   5 9981.40 814.082  10
  -4   2  -5 12893.6 967.395  33
  -4   2  -5 11946.1 1046.92  58
   4   2   5 9863.10 865.910  65
   4   2   5 11198.1 948.669  77
  -4   2  -5 11272.1 943.759  83
  -4   2  -5 10823.2 946.821  51
  -4   2  -5 10226.8 870.261  50
   4   2   5 12945.7 1017.01  38
   4   2   6 118321. 3908.89  11
   4   2   6 112365. 3615.52  10
   4   2   6 115134. 3809.78  77
  -4   2  -6 121298. 3795.55  83
   4   2   6 122457. 3782.66  65
  -4   2  -6 113377. 3613.72  50
  -4   2  -6 114757. 3876.87  51
   4   2   6 116405. 3822.95  38
   4   2   7 46827.5 2147.85  11
   4   2   7 42610.7 1900.57  10
  -4   2  -7 45527.2 1930.18  83
   4   2   7 45863.4 2024.30  77
   4   2   7 45416.1 1939.15  65
  -4   2  -7 45266.4 1983.00  30
  -4   2  -7 45489.8 2032.23  55
  -4   2  -7 41636.9 1790.97  50
   4   2   7 44819.6 2018.05  38
   4   2   8 53585.8 2146.71  77
  -4   2  -8 54710.6 2155.79  30
   4   2   8 49684.0 1977.33  65
  -4   2  -8 53420.0 2198.41  55
   4   2   8 54986.4 2191.27  38
   4   2   8 54686.7 2252.64  45
  -4   2  -9 2953.86 462.995  76
   4   2   9 1957.34 330.882  77
  -4   2  -9 2661.72 405.506  30
  -4   2  -9 2573.64 403.203  55
   4   2   9 2369.69 410.119  48
   4   2   9 1911.54 335.461  38
   4   2   9 2708.26 428.431  45
   4   2   9 2236.11 348.376  44
  -4   2 -10 39836.9 1621.11  76
   4   2  10 33937.9 1295.00  77
   4   2  10 38134.7 1597.95  82
  -4   2 -10 34675.5 1425.47  55
  -4   2 -10 36758.1 1451.07  30
   4   2  10 37295.0 1581.02  48
   4   2  10 37172.6 1527.22  45
  -4   2 -11 637.921 163.924  80
   4   2  11 349.260 139.158  82
   4   3 -14 10120.0 567.765  78
   4   3 -14 10232.0 634.871  79
   4   3 -13 1768.79 312.765  78
   4   3 -13 2032.38 357.464  84
   4   3 -13 1977.56 352.989  79
   4   3 -12 19814.7 1146.32  74
   4   3 -12 22624.9 1348.04  84
   4   3 -12 23717.9 1350.72  79
   4   3 -12 22826.9 1320.39  78
   4   3 -11 218.499 142.820  74
   4   3 -11 334.012 201.589  81
   4   3 -11 345.243 208.362  84
   4   3 -11 335.531 202.505  79
   4   3 -10 10352.9 882.724  74
   4   3 -10 9065.48 931.844  78
   4   3 -10 11440.5 1018.28  79
   4   3 -10 11670.1 1049.99  84
   4   3 -10 10032.1 958.037  81
   4   3  -9 17941.6 1177.50  74
   4   3  -9 16429.6 1075.79  72
  -4   3   9 15575.8 1193.65   9
   4   3  -9 16253.0 1009.54  54
   4   3  -9 16292.4 1269.85  78
   4   3  -9 17355.0 1276.97  79
   4   3  -9 19969.4 1358.48  81
   4   3  -8 62196.3 2637.21  78
   4   3  -8 56037.0 2474.84  79
   4   3  -8 59345.0 2520.96  81
   4   3  -8 59682.7 2354.01  72
  -4   3   8 59400.4 2503.15   9
   4   3  -8 57193.3 2392.04  61
   4   3  -8 63011.1 2237.61  54
  -4   3   8 55746.0 2267.19  18
   4   3  -7 64705.2 2548.77  79
   4   3  -7 62878.2 2620.05  78
   4   3  -7 65363.1 2509.28  72
   4   3  -7 62019.4 2504.72  61
  -4   3   7 64249.7 2254.05   3
  -4   3   7 66521.4 2602.32   9
   4   3  -7 57272.6 2399.19  56
   4   3  -7 62247.8 2251.11  54
  -4   3   7 59055.3 2322.56  18
   4   3  -7 61318.5 2273.73  26
   4   3  -6 2156.55 429.983  78
   4   3  -6 2945.39 473.755  79
  -4   3   6 2118.98 418.612   9
  -4   3   6 1550.77 311.938   3
   4   3  -6 2113.83 409.635  61
   4   3  -6 2272.06 406.140  56
   4   3  -6 1974.26 340.144  54
   4   3  -6 1971.90 368.252  26
  -4   3   6 2119.78 366.786  18
   4   3  -5 36818.1 1639.65  26
  -4   3   5 30418.9 1453.76  18
  -4   3   5 31178.5 1555.82   9
  -4   3   5 29896.6 1471.29   3
   4   3  -5 31542.3 1529.51  79
   4   3  -5 32068.3 1627.22  78
   4   3  -5 30982.3 1577.01  73
   4   3  -5 28696.7 1442.82  56
   4   3  -5 31790.3 1426.68  54
  -4   3   5 31571.9 1449.93  40
   4   3  -4 11286.0 850.251  79
   4   3  -4 13648.2 955.217  78
  -4   3   4 14586.4 927.443  32
   4   3  -4 15389.0 1051.77  61
   4   3  -4 14026.1 976.402  26
  -4   3   4 13161.0 875.898  18
  -4   3   4 12365.5 843.018  40
  -4   3   3 70436.1 2395.34  40
   4   3  -3 72182.7 2589.19  73
  -4   3   3 73386.1 2452.10  32
   4   3  -3 74880.4 2637.51  61
   4   3  -3 74420.2 2618.11  26
  -4   3   3 68023.9 2389.19  18
  -4   3   3 69277.7 2472.17   9
  -4   3   2 63308.6 2247.71  40
   4   3  -2 66958.9 2426.60  73
  -4   3   2 72302.4 2408.31  33
  -4   3   2 65295.3 2281.40  32
   4   3  -2 64565.5 2355.62  65
   4   3  -2 64870.7 2408.42  61
   4   3  -2 68328.2 2230.02  19
  -4   3   2 66236.5 2287.88  18
  -4   3   2 62436.8 2286.30   9
   4   3  -1 22370.8 1220.00  12
  -4   3   1 21880.9 1143.62   9
   4   3  -1 21130.7 1201.42  77
   4   3  -1 21690.7 1207.92  73
  -4   3   1 20614.7 1148.06  33
  -4   3   1 24065.3 1196.26  32
   4   3  -1 21209.0 1190.99  61
   4   3  -1 22232.6 1235.71  65
   4   3  -1 22506.5 1261.97  26
   4   3  -1 20547.2 1078.96  19
  -4   3   1 21058.5 1132.18  40
   4   3   0 26627.1 1378.91  12
  -4   3   0 25203.8 1235.24   9
   4   3   0 28014.7 1409.93  77
   4   3   0 25631.1 1306.89  73
  -4   3   0 25309.1 1290.30  33
   4   3   0 25572.1 1359.43  65
  -4   3   0 25906.3 1362.47  58
   4   3   0 22379.6 1218.87  61
   4   3   0 25069.6 1355.57  26
   4   3   0 25020.6 1388.28  38
   4   3   1 24665.3 1386.68  12
   4   3   1 24529.2 1364.32  77
   4   3   1 25062.4 1273.15  73
  -4   3  -1 24265.2 1283.16  33
   4   3   1 25148.4 1385.42  65
  -4   3  -1 24739.5 1376.12  58
   4   3   1 25278.8 1340.03  26
  -4   3  -1 25360.1 1220.19  47
   4   3   1 25056.1 1375.43  45
   4   3   1 25093.1 1409.25  38
   4   3   1 23035.9 1223.21  44
  -4   3  -2 80538.8 2823.24   3
   4   3   2 85580.2 3040.94  77
  -4   3  -2 89586.2 3137.19  83
   4   3   2 88713.2 2800.29  73
  -4   3  -2 90429.9 2968.28  37
  -4   3  -2 87303.4 2936.97  33
  -4   3  -2 86766.2 3091.87  58
  -4   3  -2 88443.7 2737.65  47
   4   3   2 89736.3 3093.42  38
   4   3   2 89141.4 3088.59  45
   4   3   2 88999.1 2915.45  44
   4   3   2 86319.1 2914.06  26
  -4   3  -2 88849.7 2736.81  16
  -4   3  -3 16176.7 925.918  47
   4   3   3 15919.3 1113.04  38
   4   3   3 14789.7 1105.66  45
   4   3   3 16267.9 1064.68  44
  -4   3  -3 16973.9 1106.55  37
  -4   3  -3 17361.0 1102.41  33
  -4   3  -3 14824.7 969.534   3
  -4   3  -3 15191.3 1151.51  58
   4   3   3 16000.4 1132.14  65
  -4   3  -3 17173.1 1180.17  50
   4   3   3 15140.1 991.179  26
  -4   3  -3 16004.3 925.091  16
  -4   3  -3 16762.3 983.764  14
  -4   3  -4 59697.8 2181.60  14
  -4   3  -4 57709.9 2125.30   3
   4   3   4 60286.2 2349.75  10
  -4   3  -4 61896.1 2388.88  33
  -4   3  -4 60930.7 2535.29  83
   4   3   4 59822.5 2487.89  77
  -4   3  -4 59351.7 2559.20  58
   4   3   4 60917.4 2475.87  65
  -4   3  -4 61281.1 2489.20  50
  -4   3  -4 61203.9 2361.58  51
   4   3   4 61707.8 2590.72  48
   4   3   4 57512.8 2375.06  38
   4   3   4 62549.4 2522.09  45
   4   3   4 63095.9 2393.43  44
  -4   3  -5 9167.71 744.965  14
   4   3   5 8876.42 820.526  10
  -4   3  -5 8457.71 806.574  33
  -4   3  -5 9022.06 886.496  83
   4   3   5 9429.25 883.410  77
   4   3   5 9660.16 884.341  65
  -4   3  -5 9249.35 879.270  50
   4   3   5 10316.4 956.166  48
   4   3   5 9502.51 848.902  38
   4   3   5 12015.9 1006.11  45
   4   3   5 9454.58 839.311  44
   4   3   6 4288.55 571.887  10
  -4   3  -6 4174.48 589.711  83
   4   3   6 5976.46 695.978  77
   4   3   6 4729.81 614.835  65
  -4   3  -6 5005.57 581.178  30
  -4   3  -6 4935.37 620.424  50
  -4   3  -6 4877.56 579.107  55
   4   3   6 4024.18 543.132  38
   4   3   6 4698.31 647.990  45
   4   3   6 4957.61 670.274  48
   4   3   6 5617.11 652.472  44
   4   3   7 4384.50 589.727  77
  -4   3  -7 5310.45 627.756  83
  -4   3  -7 5695.57 609.827  30
   4   3   7 4535.88 572.739  65
  -4   3  -7 4678.97 553.674  55
  -4   3  -7 5297.85 607.960  50
   4   3   7 5499.37 694.237  48
   4   3   7 5285.94 599.012  38
   4   3   7 4546.90 620.083  45
   4   3   7 6046.07 650.892  44
  -4   3  -8 6152.47 692.160  76
  -4   3  -8 5492.06 565.504  30
  -4   3  -8 5569.77 585.679  83
   4   3   8 5181.83 597.398  77
   4   3   8 5755.12 665.820  48
   4   3   8 6213.87 679.827  45
   4   3   8 6322.43 629.387  44
   4   3   8 5156.82 563.859  65
  -4   3  -9 22063.8 1080.94  30
   4   3   9 22902.4 1161.60  77
   4   3   9 23517.8 1251.00  45
   4   3   9 22786.4 1139.78  44
   4   3   9 22127.0 1031.49  65
  -4   3 -10 25024.7 1174.52  80
   4   3  10 23349.5 1112.03  82
   4   3  10 23457.8 993.653  77
   4   3  10 22638.1 1098.69  45
  -4   3 -11 7418.11 479.244  80
   4   4 -13 52827.2 1875.48  84
   4   4 -13 54315.9 1828.14  78
   4   4 -13 55396.9 1833.80  79
   4   4 -12 6254.18 634.079  84
   4   4 -12 6023.78 619.855  78
   4   4 -12 6784.40 630.028  79
   4   4 -11 55803.9 2345.58  84
   4   4 -11 58815.0 2304.83  79
   4   4 -10 33780.3 1812.21  78
   4   4 -10 36238.1 1791.73  79
   4   4  -9 167.454 145.815  61
   4   4  -9 220.584 175.341  78
   4   4  -9-64.9505 138.537  79
   4   4  -9 97.6685 116.458  72
  -4   4   8 29727.0 1711.98   9
   4   4  -8 34507.7 1663.70  72
   4   4  -8 30699.4 1649.45  61
   4   4  -8 31251.2 1668.68  79
   4   4  -8 33178.4 1847.86  78
   4   4  -8 31166.7 1693.92  56
  -4   4   8 29252.4 1608.03  18
  -4   4   7 8464.40 852.012   9
   4   4  -7 7550.96 765.966  79
   4   4  -7 7117.26 817.910  78
   4   4  -7 7491.38 794.486  61
   4   4  -7 7984.13 805.096  56
   4   4  -7 7631.90 726.267  26
  -4   4   7 8998.11 831.472  18
  -4   4   6 58612.0 2242.12   3
   4   4  -6 52260.0 2175.06  79
   4   4  -6 53820.4 2383.32  78
   4   4  -6 53037.7 2277.63  73
   4   4  -6 54731.7 2370.94  61
   4   4  -6 52854.7 2249.19  56
   4   4  -6 55665.2 2247.62  26
  -4   4   6 56461.0 2289.15  18
   4   4  -5 29946.3 1583.16  26
  -4   4   5 29181.7 1526.63  18
  -4   4   5 29013.9 1510.02   3
  -4   4   5 26507.7 1512.29   9
   4   4  -5 27616.5 1422.71  79
   4   4  -5 27986.7 1579.36  78
   4   4  -5 32360.0 1658.86  73
  -4   4   5 29878.2 1545.31  32
   4   4  -5 28113.4 1479.54  56
  -4   4   5 30446.8 1538.81  40
  -4   4   4 2554.75 430.389   9
  -4   4   4 3172.80 478.714   3
   4   4  -4 2729.21 456.858  78
  -4   4   4 2579.09 437.235  32
   4   4  -4 2296.12 449.180  61
   4   4  -4 2864.77 471.737  26
  -4   4   4 2131.27 398.818  18
  -4   4   4 2237.82 409.247  40
  -4   4   3 59620.0 2274.73  40
   4   4  -3 54765.2 2315.59  73
  -4   4   3 59108.5 2314.86  33
  -4   4   3 58965.4 2291.78  32
   4   4  -3 59409.7 2172.65  65
   4   4  -3 58110.9 2400.47  61
   4   4  -3 61232.1 2425.50  26
   4   4  -3 60282.2 2230.93  19
  -4   4   3 56703.8 2246.72  18
  -4   4   3 60343.0 2362.97   3
  -4   4   3 52623.5 2165.55   9
  -4   4   2 53594.1 2176.92   3
  -4   4   2 47949.5 1951.69   9
   4   4  -2 52655.3 1995.24  77
   4   4  -2 46551.1 2082.19  73
  -4   4   2 50358.2 2088.40  33
  -4   4   2 46940.8 2014.98  32
   4   4  -2 49190.1 1998.53  65
   4   4  -2 50087.0 2012.00  19
  -4   4   2 50412.4 2072.06  18
  -4   4   2 49965.9 2042.07  40
   4   4  -1 357.890 191.084  12
  -4   4   1 635.497 199.833   9
  -4   4   1 705.477 250.973  83
   4   4  -1 354.962 171.289  77
   4   4  -1 457.244 211.373  73
  -4   4   1 806.986 256.768  33
  -4   4   1 521.253 200.665  32
   4   4  -1 430.713 181.829  65
   4   4  -1 426.161 195.020  26
   4   4  -1 362.026 165.751  19
  -4   4   1 416.689 200.515  40
   4   4   0 13959.0 1083.36  12
  -4   4   0 15640.2 1082.19   3
  -4   4   0 12755.0 869.198   9
  -4   4   0 13616.0 1056.92  83
   4   4   0 13825.2 1005.25  77
   4   4   0 13599.5 1003.26  73
  -4   4   0 13381.5 975.435  33
   4   4   0 12431.4 989.818  65
  -4   4   0 15363.1 1033.64  58
  -4   4   0 13633.7 989.187  37
   4   4   0 14440.3 1060.73  26
   4   4   0 14190.7 993.491  19
   4   4   1 129380. 3955.15  26
   4   4   1 119766. 4040.51  12
  -4   4  -1 129991. 3927.37   3
  -4   4  -1 126549. 4077.30  83
   4   4   1 124578. 3922.68  77
   4   4   1 117998. 3775.10  73
  -4   4  -1 121033. 3816.46  33
   4   4   1 120749. 3939.58  65
  -4   4  -1 124660. 3884.76  58
  -4   4  -1 129968. 4114.42  50
  -4   4  -1 120145. 3537.47  47
  -4   4  -1 124076. 3845.67  37
   4   4   2 66040.4 2522.45  26
  -4   4  -2 64396.6 2187.35  16
   4   4   2 65208.8 2744.32  12
  -4   4  -2 69484.2 2553.25   3
   4   4   2 71058.7 2676.87  77
  -4   4  -2 63532.8 2679.07  83
   4   4   2 65174.3 2438.73  73
  -4   4  -2 66578.9 2508.33  37
   4   4   2 65968.5 2645.26  65
  -4   4  -2 66339.6 2626.80  58
  -4   4  -2 65861.8 2705.59  50
   4   4   2 67671.5 2573.88  38
  -4   4  -2 67551.1 2213.22  47
   4   4   2 68449.4 2750.04  45
   4   4   2 67865.3 2604.53  44
   4   4   3 2871.77 529.157  12
  -4   4  -3 2942.63 442.771   3
   4   4   3 3778.81 559.867  77
  -4   4  -3 3559.40 572.052  83
   4   4   3 3456.55 459.957  73
  -4   4  -3 3570.34 502.243  37
  -4   4  -3 3563.25 550.130  58
   4   4   3 2528.04 478.354  45
   4   4   3 3285.24 487.865  38
   4   4   3 3002.49 484.848  44
   4   4   3 2853.55 438.022  26
  -4   4  -3 3386.44 465.388  14
  -4   4  -4 42668.4 1858.17  14
   4   4   4 45444.8 2188.32  12
   4   4   4 44850.6 2099.13  77
   4   4   4 43416.2 2066.97  65
  -4   4  -4 46259.3 2161.71  50
   4   4   4 42358.4 2109.63  45
   4   4   4 46239.0 2066.56  44
   4   4   4 41904.5 1886.10  38
  -4   4  -5 29128.9 1460.95  14
   4   4   5 26169.5 1648.22  12
  -4   4  -5 33260.3 1784.72  83
   4   4   5 32313.9 1700.09  65
  -4   4  -5 29778.0 1410.39  30
  -4   4  -5 29563.9 1568.89  33
  -4   4  -5 31307.3 1714.29  50
   4   4   5 30268.8 1710.65  45
   4   4   5 30000.0 1607.51  44
   4   4   6 64367.7 2550.19  77
  -4   4  -6 63199.2 2579.78  83
   4   4   6 62368.7 2486.89  65
  -4   4  -6 62566.9 2202.87  30
  -4   4  -6 57936.6 2455.92  50
   4   4   6 64875.4 2627.33  45
   4   4   6 60304.2 2426.28  44
   4   4   7 265.206 160.099  65
  -4   4  -7 171.076 149.080  83
   4   4   7 340.102 171.079  77
  -4   4  -7 270.529 173.202  50
   4   4   7 244.498 184.466  45
   4   4   7 475.097 195.103  44
  -4   4  -8 60291.2 2180.83  83
   4   4   8 60214.7 2249.24  77
   4   4   8 59802.5 2138.57  65
  -4   4  -8 62992.2 2372.17  76
  -4   4  -8 60098.4 2129.12  50
   4   4   8 58603.8 2272.39  45
   4   4   8 59067.6 2157.60  44
  -4   4  -9 18143.5 1026.18  76
   4   4   9 18185.0 960.060  77
   4   4   9 17050.2 982.891  45
   4   4   9 17420.8 915.675  44
   4   4   9 17795.5 859.435  65
  -4   4 -10 34173.7 1230.00  80
   4   4  10 31259.0 1150.97  82
   4   4  10 30485.4 1103.18  77
  -4   4 -10 32275.8 1231.72  76
   4   5 -13 130.308 65.9124  78
   4   5 -13 165.841 76.6424  84
   4   5 -12 34332.8 1408.35  84
  -4   5  11 8726.68 655.626  32
   4   5 -11 9639.55 783.803  84
   4   5 -11 9594.90 777.002  78
   4   5 -11 9457.22 676.572  79
  -4   5  10 4554.59 497.879  40
   4   5 -10 4236.39 567.975  78
   4   5 -10 3765.82 468.701  79
   4   5  -9 6395.25 642.497  61
   4   5  -9 6290.24 635.398  79
   4   5  -9 5781.56 720.223  78
  -4   5   9 5958.14 634.688  40
   4   5  -8 9034.99 776.321  79
   4   5  -8 10489.7 982.894  78
   4   5  -8 9433.70 785.836  72
   4   5  -8 9517.69 860.695  61
   4   5  -8 9978.02 900.513  56
  -4   5   8 9663.91 840.374  40
  -4   5   7 21946.6 1391.05  18
  -4   5   7 20914.6 1378.02   9
   4   5  -7 22412.0 1241.12  79
   4   5  -7 22702.6 1487.94  78
  -4   5   7 24684.3 1443.98  32
   4   5  -7 25620.9 1507.29  61
   4   5  -7 24318.2 1441.57  56
  -4   5   7 23450.3 1390.89  40
   4   5  -6 12749.0 1017.41  26
  -4   5   6 11796.5 1003.08  18
  -4   5   6 13816.1 1077.35   9
   4   5  -6 10856.6 1009.16  78
   4   5  -6 15498.3 1116.72  73
  -4   5   6 14945.9 1107.32  32
   4   5  -6 12115.0 1048.43  61
   4   5  -6 12872.9 1016.52  56
  -4   5   6 13535.3 1055.25  40
   4   5  -5 104484. 3718.71  26
  -4   5   5 118707. 3816.84  18
  -4   5   5 118616. 3744.65   3
  -4   5   5 110913. 3696.99   9
   4   5  -5 114007. 3809.65  78
   4   5  -5 108703. 3750.90  73
  -4   5   5 111391. 3742.81  32
   4   5  -5 112382. 3655.89  56
  -4   5   5 116188. 3757.29  40
   4   5  -4 24443.5 1502.23  26
  -4   5   4 24065.5 1444.27  18
  -4   5   4 24739.1 1458.94   3
  -4   5   4 22992.9 1359.67   9
   4   5  -4 25052.0 1427.79  78
   4   5  -4 24764.7 1490.47  73
   4   5  -4 23874.9 1516.68  61
   4   5  -4 25109.5 1371.23  56
  -4   5   4 24909.4 1447.17  40
  -4   5   4 22122.4 1395.36  32
  -4   5   3 26614.0 1493.56  40
  -4   5   3 26574.5 1509.53  33
  -4   5   3 27261.5 1521.91  32
   4   5  -3 24537.4 1542.35  26
  -4   5   3 26579.1 1506.01  18
  -4   5   3 26552.8 1541.24   3
  -4   5   3 24792.7 1382.94   9
  -4   5   2 15701.7 1168.01   3
  -4   5   2 15175.7 1002.96   9
  -4   5   2 15787.7 1111.50  83
   4   5  -2 14367.8 1121.61  73
  -4   5   2 14680.2 1087.47  33
  -4   5   2 15212.3 1111.16  32
   4   5  -2 15519.0 1025.49  65
  -4   5   2 15222.1 1090.19  40
   4   5  -2 14907.5 1089.58  19
  -4   5   2 15316.5 1121.35  18
   4   5  -1 51619.9 2322.44  26
   4   5  -1 52107.9 2225.30  19
  -4   5   1 46209.7 1905.50   9
  -4   5   1 49845.7 2202.95  83
   4   5  -1 51160.1 2017.46  77
   4   5  -1 51991.9 2269.02  73
  -4   5   1 49483.9 2175.07  32
   4   5  -1 51129.2 2114.61  65
  -4   5   1 50518.3 2257.58  50
  -4   5   1 47489.6 2115.82  37
  -4   5   1 52914.9 2214.92  40
   4   5   0 73211.0 2839.20  26
   4   5   0 71350.2 2748.57  19
   4   5   0 68175.4 2854.61  12
  -4   5   0 72452.4 2793.17   3
   4   5   0 69356.8 2563.38  77
  -4   5   0 71707.8 2811.26  83
   4   5   0 66172.6 2694.05  73
   4   5   0 72984.2 2711.24  65
  -4   5   0 70678.3 2822.30  50
  -4   5   0 69262.6 2634.63  37
   4   5   1 13478.8 1162.32  12
  -4   5  -1 15302.4 1128.55   3
  -4   5  -1 14832.8 1171.24  83
   4   5   1 13624.8 1021.80  77
   4   5   1 14575.1 1086.57  73
  -4   5  -1 13880.1 1018.20  37
   4   5   1 15141.4 1114.69  65
  -4   5  -1 14597.6 1168.26  50
   4   5   1 14319.3 1099.07  26
   4   5   1 14748.1 1115.10  19
   4   5   2 7353.48 852.696  12
  -4   5  -2 6848.07 723.788   3
  -4   5  -2 7011.57 806.010  83
   4   5   2 7113.27 753.672  77
   4   5   2 6321.27 683.582  73
  -4   5  -2 6596.99 693.633  37
  -4   5  -2 7623.25 756.190  33
   4   5   2 7176.22 779.264  65
  -4   5  -2 6487.56 789.005  50
   4   5   2 5346.52 659.827  26
   4   5   3 16239.9 1290.45  12
   4   5   3 17316.9 1213.62  77
  -4   5  -3 16877.3 1284.21  83
   4   5   3 17598.7 1114.69  73
  -4   5  -3 17457.7 1162.89  33
   4   5   3 18180.5 1271.15  65
  -4   5  -3 18371.6 1320.55  50
   4   5   3 16855.8 1127.05  26
  -4   5  -3 17037.8 1126.31  14
   4   5   4 40127.7 1679.06  73
  -4   5  -4 40352.5 1851.02  33
   4   5   4 41503.2 1969.28  77
  -4   5  -4 43044.2 2079.81  83
   4   5   4 37873.7 1674.67  41
   4   5   4 37849.5 1894.70  44
   4   5   5 797.836 278.387  65
  -4   5  -5 748.523 242.720  33
   4   5   5 1158.23 312.407  77
  -4   5  -5 1055.08 330.442  50
   4   5   5 1023.56 317.822  45
   4   5   5 1083.32 308.450  44
  -4   5  -6 38072.6 1823.19  83
   4   5   6 35853.8 1719.15  65
  -4   5  -6 35510.4 1759.36  50
   4   5   6 38249.7 1839.48  45
   4   5   6 37485.6 1740.47  44
  -4   5  -7 16907.8 1063.11  83
   4   5   7 16022.9 995.617  65
  -4   5  -7 16901.4 1055.52  76
  -4   5  -7 16302.2 1025.02  50
   4   5   7 14180.1 942.887  44
  -4   5  -8 4724.48 480.475  83
  -4   5  -8 5383.37 490.714  80
   4   5   8 5901.50 542.187  77
   4   5   8 5442.22 495.804  65
  -4   5  -8 5486.70 530.468  76
  -4   5  -8 4597.63 463.909  50
   4   5   8 5989.98 524.912  44
   4   5   9 2021.55 228.239  65
  -4   5  -9 1979.02 263.186  76
   4   5   9 2369.84 283.920  77
  -4   5  -9 1616.41 215.496  80
   4   6 -11 6366.80 512.394  84
   4   6 -11 6410.82 516.227  78
   4   6 -10 19419.3 1066.98  84
   4   6 -10 19375.8 1071.72  78
  -4   6  10 18600.8 973.471  32
   4   6  -9 41078.7 1600.16  61
  -4   6   9 44666.1 1788.73  32
   4   6  -9 45577.1 1903.25  78
  -4   6   9 43252.1 1712.76  40
   4   6  -8 22695.3 1344.25  78
  -4   6   8 22867.3 1277.25  32
   4   6  -8 20292.6 1175.32  61
   4   6  -8 22030.5 1248.36  56
  -4   6   8 21446.6 1219.04  40
   4   6  -7 2355.20 435.700  78
   4   6  -7 2098.73 368.031  72
  -4   6   7 2021.71 401.686  32
   4   6  -7 1946.69 388.726  61
   4   6  -7 2919.26 453.373  56
  -4   6   7 1721.28 358.055  40
   4   6  -6 24923.4 1444.47  78
   4   6  -6 25395.1 1390.14  73
  -4   6   6 23913.2 1412.11  32
   4   6  -6 23992.7 1443.08  61
   4   6  -6 22692.8 1332.63  56
  -4   6   6 23563.3 1385.96  40
   4   6  -5 5154.62 631.275  78
   4   6  -5 5350.33 656.240  73
  -4   6   5 6202.27 698.717  33
  -4   6   5 6144.31 718.615  32
   4   6  -5 6176.82 661.103  56
  -4   6   5 5573.23 677.707  40
   4   6  -4 53120.0 2127.26  78
   4   6  -4 51637.1 2265.17  73
   4   6  -4 50248.7 2319.07  61
  -4   6   4 51053.6 2228.66  40
   4   6  -4 49686.3 2055.78  56
  -4   6   4 50432.9 2243.98  32
  -4   6   3 14835.0 1005.65   9
  -4   6   3 16166.9 1158.00  40
  -4   6   3 17317.7 1213.72  32
   4   6  -3 15301.8 1193.57  61
  -4   6   3 16138.2 1089.50  50
   4   6  -3 15133.7 1203.27  26
  -4   6   3 14466.4 1115.92  18
  -4   6   2 15757.2 1121.61  37
  -4   6   2 19231.2 1268.68  40
   4   6  -2 16942.5 1232.20  73
  -4   6   2 18496.8 1258.00  32
  -4   6   2 16233.1 1142.81  50
   4   6  -2 15539.2 1155.41  19
   4   6  -1 15632.1 1209.82  26
   4   6  -1 16072.9 1183.20  19
  -4   6   1 16399.6 1112.74  83
   4   6  -1 15630.1 1162.48  73
  -4   6   1 16590.6 1142.28  33
   4   6  -1 15814.8 1036.96  65
  -4   6   1 15340.5 1135.11  50
  -4   6   1 14128.8 1040.31  37
  -4   6   0 22073.8 1360.26  83
   4   6   0 24240.8 1451.55  73
  -4   6   0 21803.7 1280.68  37
  -4   6   0 21251.1 1306.98  33
   4   6   0 21936.2 1293.80  65
  -4   6   0 24915.6 1478.99  50
   4   6   0 20666.3 1384.80  26
   4   6   0 20404.9 1384.79  19
   4   6   1 43363.6 2010.51  73
  -4   6  -1 44316.4 1888.50  37
  -4   6  -1 44747.5 1976.36  33
   4   6   1 44758.4 1993.97  65
  -4   6  -1 45653.5 2145.00  50
   4   6   1 42096.9 1826.28  77
  -4   6  -1 43135.6 2049.16  83
   4   6   2 7216.74 739.221  73
  -4   6  -2 8465.64 731.273  37
  -4   6  -2 8170.94 761.458  33
   4   6   2 9074.65 835.941  65
  -4   6  -2 7810.54 833.607  50
  -4   6  -2 8634.66 860.877  83
   4   6   2 7515.47 724.994  77
   4   6   3 68683.0 2535.55  73
  -4   6  -3 79250.8 2685.77  33
   4   6   3 76506.3 2812.50  65
  -4   6  -3 74061.2 2868.74  50
  -4   6  -3 74755.6 2862.44  83
   4   6   3 70562.2 2615.44  77
   4   6   4 8296.21 666.416  73
  -4   6  -4 9513.05 768.852  33
  -4   6  -4 10673.0 919.735  50
  -4   6  -4 10472.1 918.067  83
   4   6   4 8929.64 777.286  77
   4   6   4 11025.8 894.167  65
  -4   6  -5 17572.2 1000.49  33
  -4   6  -5 16029.3 1098.20  50
  -4   6  -5 16301.2 1105.81  83
   4   6   5 17223.9 1058.88  77
  -4   6  -6 27718.3 1272.05  76
  -4   6  -6 28985.3 1420.44  83
   4   6   6 30173.7 1372.49  77
   4   6   6 32309.2 1429.73  65
  -4   6  -7 14403.1 764.391  76
   4   6   7 16741.7 882.726  65
   4   6   7 16586.6 876.394  77
  -4   6  -7 15284.0 873.204  50
   4   6   8 27942.6 1031.58  65
  -4   6  -8 28117.5 1040.73  50
  -4   6  -8 27689.7 1051.30  83
   4   7 -10 17134.0 745.464  78
   4   7  -9 20148.9 939.564  84
   4   7  -9 19105.5 932.016  78
   4   7  -8 7513.06 554.776  61
  -4   7   8 7139.90 586.028  32
   4   7  -8 7074.79 589.049  78
  -4   7   8 7499.46 589.785  40
   4   7  -7 22394.9 1131.14  78
   4   7  -7 19129.3 1057.28  61
  -4   7   7 19159.8 1082.46  32
   4   7  -7 19008.3 1028.26  56
  -4   7   7 20886.7 1100.93  40
   4   7  -6 42.9943 91.7522  78
  -4   7   6 338.511 154.744  32
  -4   7   6 148.684 118.960  63
   4   7  -6 247.209 158.209  61
   4   7  -6 247.773 139.297  56
  -4   7   6 378.307 181.853  40
   4   7  -5 10796.3 790.333  78
   4   7  -5 11929.1 873.885  73
  -4   7   5 13560.2 939.768  33
  -4   7   5 11791.8 904.082  32
  -4   7   5 14439.5 930.202  63
   4   7  -5 13675.4 873.972  56
  -4   7   5 14361.9 978.415  40
   4   7  -4 951.457 284.041  61
  -4   7   4 1013.77 262.975  37
  -4   7   4 568.230 206.719  33
  -4   7   4 596.550 224.540  32
   4   7  -4 693.940 242.026  73
  -4   7   4 863.667 257.916  40
   4   7  -3 41245.1 1914.74  61
  -4   7   3 36672.2 1706.78  33
   4   7  -3 37637.7 1785.80  73
  -4   7   3 40097.3 1713.43  37
  -4   7   3 38692.7 1791.94  40
  -4   7   2 9563.75 810.547  33
   4   7  -2 10666.5 919.687  61
  -4   7   2 11784.5 826.407  50
  -4   7   2 11581.1 837.643  37
   4   7  -1 5293.44 636.620  61
  -4   7   1 5530.19 565.645  37
  -4   7   1 4414.98 539.443  33
  -4   7   1 6232.17 629.860  50
   4   7  -1 5855.64 658.230  73
   4   7   0 75264.6 2733.34  73
  -4   7   0 75145.8 2460.68  37
  -4   7   0 72764.1 2585.13  33
   4   7   0 78144.6 2713.95  61
  -4   7   0 75127.4 2656.39  50
  -4   7   0 71692.5 2504.38  83
   4   7   1 56936.4 2229.59  73
  -4   7  -1 57266.7 2126.63  33
  -4   7  -1 56400.3 2210.20  63
   4   7   1 56023.1 2078.10  65
   4   7   1 58825.5 2159.16  61
  -4   7  -1 58303.5 2264.95  50
  -4   7  -1 56541.4 2162.10  83
   4   7   2 45280.8 1829.79  73
  -4   7  -2 43398.3 1739.40  33
  -4   7  -2 44071.5 1791.02  63
   4   7   2 48367.3 1844.69  65
   4   7   2 41111.7 1643.06  61
  -4   7  -2 44494.4 1911.64  50
  -4   7  -2 47042.0 1902.64  83
   4   7   3 15030.1 889.162  73
  -4   7  -3 15507.2 893.367  33
   4   7   3 14924.3 930.087  65
  -4   7  -3 14251.0 843.723  63
  -4   7  -3 13399.9 944.861  50
  -4   7  -3 15173.6 973.998  83
   4   7   4 9129.25 592.864  73
   4   7   4 8887.91 676.972  65
  -4   7  -4 9934.77 741.215  83
  -4   7  -4 8622.61 707.901  50
  -4   7  -4 9041.87 621.962  33
   4   7   5 1135.91 228.158  65
  -4   7  -5 1155.40 245.037  50
  -4   7  -5 946.876 216.263  83
  -4   7  -6 6870.05 509.560  50
  -4   7  -6 5992.66 473.800  83
   4   8  -7 6095.98 399.042  61
   4   8  -6 34568.8 1241.35  61
  -4   8   6 27272.5 984.210   7
   4   8  -5 2587.31 346.245  61
  -4   8   5 2710.80 301.717  63
  -4   8   4 20536.4 988.099  63
  -4   8   4 20774.1 981.919  33
   4   8  -4 18539.9 959.214  73
   4   8  -3 11484.6 782.722  61
  -4   8   3 11121.7 748.680  63
  -4   8   3 9764.01 663.388  33
   4   8  -3 10685.8 733.494  73
   4   8  -2 7026.61 602.222  61
  -4   8   2 5995.85 499.685  33
   4   8  -1 16441.9 930.851  61
  -4   8   1 16504.1 936.105  63
  -4   8   1 13306.4 778.989  33
   4   8  -1 15704.7 916.652  73
   4   8   0 827.389 205.100  61
  -4   8   0 516.268 171.899  63
  -4   8   0 484.788 149.537  33
   4   8   0 791.018 209.123  73
  -4   8  -1 12376.9 686.742  50
   4   8   1 13881.9 798.761  73
   4   8   1 12814.6 708.525  61
  -4   8  -1 14036.6 784.975  63
  -4   8  -2 10635.5 625.090  50
   4   8   2 11496.8 667.804  73
  -4   8  -2 11536.8 643.165  63
   4   8   3 37675.7 1219.08  73
  -4   8  -3 39581.3 1305.06  50
  -4   8  -4 16565.5 700.497  50
  -5  -8   5 45280.2 1385.78  66
   5  -8  -5 48497.9 1461.56  60
  -5  -8   4 970.104 168.361  66
   5  -8  -4 777.776 161.971  60
  -5  -8   3 25303.6 1009.35  66
   5  -8  -3 28362.9 1080.48  60
  -5  -8   2 2249.18 267.491  66
   5  -8  -2 2588.39 294.541  59
  -5  -8   1 7520.05 489.498  66
   5  -8  -1 8053.52 520.392  59
  -5  -8   0 13237.9 639.931  66
   5  -8   0 12892.7 648.323  59
  -5  -8  -1 10327.4 519.162  66
   5  -8   1 10973.4 540.907  59
  -5  -7   8 1943.68 223.994  66
   5  -7  -8 2666.40 282.266  60
  -5  -7   7 12129.9 687.273  66
   5  -7  -7 10977.1 689.056  60
  -5  -7   6 10120.4 679.559  66
   5  -7  -6 9272.04 687.741  60
  -5  -7   5 12062.2 718.476  36
  -5  -7   5 13193.5 809.930   6
   5  -7  -5 13220.2 830.868  59
  -5  -7   5 12705.7 810.239  66
  -5  -7   4 19268.2 1054.50  51
  -5  -7   4 19541.4 1062.89   6
   5  -7  -4 17769.4 1062.09   5
  -5  -7   4 18364.5 1038.65  66
   5  -7  -4 22170.1 1151.99  59
  -5  -7   3 4506.79 496.558  51
  -5  -7   3 4611.58 518.856   6
  -5  -7   3 4898.49 527.876  66
   5  -7  -3 4487.16 514.287  59
  -5  -7   2 1567.44 292.561  51
  -5  -7   2 1377.25 284.853   6
   5  -7  -2 1619.88 324.377   5
  -5  -7   2 1800.68 329.513  66
  -5  -7   1 5473.95 521.608  51
  -5  -7   1 6044.89 565.282   6
   5  -7  -1 6391.52 627.114   5
  -5  -7   1 6451.21 600.816  66
  -5  -7   0 26910.9 1286.61  66
  -5  -7   0 25923.3 1166.29  51
  -5  -7   0 26670.6 1224.28   6
   5  -7   0 25930.7 1286.07   5
   5  -7   0 29207.0 1381.64  59
  -5  -7  -1 18394.0 958.526  66
  -5  -7  -1 15724.8 819.840   6
   5  -7   1 18456.9 1009.28  59
  -5  -7  -2 24914.2 1141.32  66
   5  -7   2 24975.7 1181.84  59
  -5  -7  -3 38309.7 1421.14  66
   5  -7   3 40761.8 1486.60  59
  -5  -7  -4 1662.74 223.339  66
   5  -7   4 1475.82 212.653  59
  -5  -6   9 3282.75 387.287  36
  -5  -6   9 3727.14 397.670  31
  -5  -6   9 3015.61 329.426  66
   5  -6  -9 2572.20 268.862  64
   5  -6  -9 3120.39 346.888  60
  -5  -6   8 2681.95 376.802  36
  -5  -6   8 2291.68 352.002  31
  -5  -6   8 3328.22 403.446  66
   5  -6  -8 2272.56 300.166  64
   5  -6  -8 1943.02 320.496  60
  -5  -6   7 35882.7 1570.24  36
  -5  -6   7 36091.0 1583.65  31
  -5  -6   7 34925.6 1446.93   6
  -5  -6   7 35326.3 1547.68  66
   5  -6  -7 35451.4 1420.40  64
   5  -6  -7 33333.2 1568.55  60
  -5  -6   6 30957.5 1458.01  36
  -5  -6   6 31982.5 1478.73   6
   5  -6  -6 29625.1 1460.68  59
  -5  -6   6 32292.1 1515.58  66
   5  -6  -6 30108.2 1360.01  64
  -5  -6   5 34557.7 1532.86  36
  -5  -6   5 32703.5 1565.22  31
  -5  -6   5 34252.5 1622.44   6
   5  -6  -5 31448.5 1618.32   5
  -5  -6   5 33472.5 1603.35  66
   5  -6  -5 32176.0 1597.70  59
   5  -6  -5 33098.1 1479.30  64
  -5  -6   4 7342.40 643.861  36
  -5  -6   4 7103.52 673.441  31
  -5  -6   4 7135.43 724.040   6
   5  -6  -4 8791.07 839.869   5
  -5  -6   4 7386.46 722.616  66
   5  -6  -4 8241.08 783.875  59
   5  -6  -4 7039.88 651.648  64
  -5  -6   3 20704.9 1084.70  36
  -5  -6   3 23214.4 1236.95  31
  -5  -6   3 25788.6 1435.00   6
  -5  -6   3 23197.0 1337.53  66
   5  -6  -3 22885.3 1375.80  59
   5  -6  -3 21553.4 1205.25  64
  -5  -6   2 7585.88 658.839  31
  -5  -6   2 7324.19 733.420  51
  -5  -6   2 8427.61 796.132   6
   5  -6  -2 5906.22 716.801   5
  -5  -6   2 6874.62 712.881  66
   5  -6  -2 7891.68 793.545  59
   5  -6  -2 6965.23 668.268  64
  -5  -6   1 30572.2 1562.90  51
   5  -6  -1 29355.9 1626.75   5
  -5  -6   1 27807.3 1513.17  66
   5  -6  -1 29675.1 1613.86  59
   5  -6  -1 30340.1 1465.50  64
  -5  -6   0 2576.87 420.932  51
  -5  -6   0 2741.28 423.901   6
   5  -6   0 2584.55 448.902   5
  -5  -6   0 1897.46 376.656  66
   5  -6   1 17811.7 1055.83  68
  -5  -6  -1 20572.3 1220.19  66
  -5  -6  -1 21205.9 1194.83  51
  -5  -6  -1 21568.6 1168.42   6
   5  -6   1 19506.6 1200.73   5
   5  -6   1 19437.3 1254.56  59
  -5  -6  -2 5676.00 595.466  66
   5  -6   2 4385.16 493.102  68
  -5  -6  -2 4248.23 501.150  51
  -5  -6  -2 5676.76 534.527   6
   5  -6   2 4962.92 604.246  59
   5  -6   3 4145.77 530.923  59
  -5  -6  -3 4710.76 521.016  66
   5  -6   3 3981.93 451.266  68
  -5  -6  -3 4120.72 453.967  51
   5  -6   4 15826.2 954.881  59
   5  -6   4 14187.6 806.487  68
  -5  -6  -4 14292.8 865.291  66
  -5  -6  -5 4789.02 456.468  66
   5  -6   5 4127.32 387.779  68
   5  -6   5 5385.14 496.180  59
  -5  -6  -6 19715.4 759.140  66
   5  -6   6 18883.1 739.436  59
   5  -5 -11 1139.96 189.927  64
   5  -5 -11 1642.30 229.206  52
   5  -5 -10 2699.12 345.836  64
   5  -5 -10 2679.78 341.907  52
  -5  -5  10 2686.06 390.681  36
  -5  -5  10 2550.25 351.924  31
  -5  -5   9 35940.4 1502.95  66
   5  -5  -9 37967.3 1582.77  64
   5  -5  -9 39864.7 1581.73  60
  -5  -5   9 39242.6 1560.89  42
   5  -5  -9 36033.7 1501.12  52
  -5  -5   9 36228.1 1612.47  31
  -5  -5   8 1795.69 358.155  31
  -5  -5   8 1862.13 351.059  42
  -5  -5   8 1602.67 320.098  66
   5  -5  -8 1607.00 326.442  64
   5  -5  -8 2103.65 368.075  60
   5  -5  -7 62607.7 2342.99  59
  -5  -5   7 63615.2 2403.80  66
   5  -5  -7 60053.4 2370.98  64
  -5  -5   7 63539.8 2420.27  42
  -5  -5   7 69386.4 2408.43   6
  -5  -5   7 65260.3 2488.38  31
  -5  -5   6 20296.0 1233.62  66
   5  -5  -6 19787.3 1218.09  59
   5  -5  -6 18903.9 1205.10  64
   5  -5  -6 17470.0 1062.94  53
  -5  -5   6 19464.0 1218.42  42
  -5  -5   6 21345.7 1217.37  46
  -5  -5   5 4433.91 581.303  66
   5  -5  -5 5164.72 637.701  59
   5  -5  -5 5695.92 657.539  64
  -5  -5   5 4730.57 604.127  31
  -5  -5   5 6895.74 710.795  42
  -5  -5   5 4817.63 610.278  46
   5  -5  -5 5500.70 688.131   5
  -5  -5   4 23439.3 1394.21  66
   5  -5  -4 24140.2 1459.48  59
   5  -5  -4 23925.1 1412.22  64
  -5  -5   4 26795.8 1444.61  31
  -5  -5   4 24385.0 1394.95  46
  -5  -5   4 24458.5 1493.46   2
   5  -5  -4 24393.6 1534.70   5
  -5  -5   3 1468.28 336.142  42
  -5  -5   3 1631.64 357.769  46
   5  -5  -3 935.727 303.326  59
  -5  -5   3 673.516 262.249  66
   5  -5  -3 1040.41 300.016  64
  -5  -5   3 1224.07 295.855  31
  -5  -5   3 1272.67 343.391  20
  -5  -5   3 1159.21 334.076   2
  -5  -5   2 44493.0 1928.26  42
  -5  -5   2 46470.8 2020.76  46
  -5  -5   2 45753.2 1880.97  31
  -5  -5   2 41674.7 1688.82  36
  -5  -5   2 42590.8 1994.52  66
   5  -5  -2 45404.0 2138.89  59
  -5  -5   2 42863.1 2089.76  20
  -5  -5   2 45403.6 2115.23   2
   5  -5  -2 46142.0 2243.38   5
  -5  -5   1 32297.5 1705.38   2
   5  -5  -1 29310.3 1725.53   5
   5  -5  -1 30710.3 1711.60  82
   5  -5  -1 29198.5 1431.53  68
  -5  -5   1 31337.4 1443.58  31
  -5  -5   1 32330.4 1685.07  66
   5  -5  -1 31698.4 1763.64  59
  -5  -5   1 32110.6 1552.11  42
  -5  -5   1 29878.9 1695.61  20
   5  -5   0 18316.1 1281.82  82
   5  -5   0 19363.9 1150.49  68
  -5  -5   0 19693.3 1049.29  31
  -5  -5   0 21361.6 1331.48  66
   5  -5   0 21926.0 1428.21  59
  -5  -5   0 21189.2 1342.68  51
   5  -5   0 21225.7 1385.34   5
   5  -5   1 18555.0 1254.93  82
  -5  -5  -1 17223.2 1187.20  66
  -5  -5  -1 17250.5 1189.31  51
   5  -5   1 17642.5 1219.60   5
   5  -5   1 17526.9 1100.55  68
   5  -5   2 22534.8 1251.44  68
  -5  -5  -2 21767.6 1320.11  66
  -5  -5  -2 18746.3 1231.40  51
   5  -5   2 20375.9 1277.69  82
   5  -5   3 49240.1 2043.09  82
   5  -5   3 49955.1 2218.99  59
   5  -5   3 48914.3 1976.00  68
  -5  -5  -3 47151.5 2047.33  66
  -5  -5  -3 47720.1 2015.48  51
  -5  -5  -3 46625.8 1805.53   6
   5  -5   4 8366.22 716.240  68
  -5  -5  -4 8760.82 768.410  66
  -5  -5  -4 8560.24 715.145  51
   5  -5   4 8222.40 708.364  82
   5  -5   4 6216.08 709.554  59
  -5  -5  -5 25481.6 1291.97  66
   5  -5   5 25190.0 1233.80  68
  -5  -5  -5 24710.1 1198.00  51
   5  -5   5 23869.2 1140.04  82
   5  -5   5 25799.6 1369.57  59
   5  -5   6 5300.02 547.872  59
   5  -5   6 5840.69 506.492  68
  -5  -5  -6 5215.76 506.199  66
  -5  -5  -6 6076.57 490.425  51
   5  -5   7 7045.70 483.863  68
  -5  -5  -7 7551.29 537.641  66
   5  -5   7 6847.08 534.098  59
   5  -4 -12 16327.7 799.683  52
   5  -4 -11 9519.23 666.445  52
   5  -4 -11 7836.07 648.165  64
  -5  -4  11 8122.46 627.704  31
   5  -4 -10 29860.2 1469.67  64
  -5  -4  10 31504.9 1475.29  31
   5  -4 -10 30071.0 1387.79  52
  -5  -4  10 29538.3 1337.46  42
   5  -4  -9 26884.9 1356.51  52
   5  -4  -9 25834.1 1310.37  54
  -5  -4   9 28680.2 1423.18  42
   5  -4  -9 28172.0 1482.89  64
   5  -4  -8 9600.60 793.021  54
  -5  -4   8 11084.9 898.030  42
  -5  -4   8 9773.34 785.312  46
   5  -4  -8 11620.1 947.104  64
  -5  -4   7 15767.4 1119.74  42
  -5  -4   7 15477.6 1045.98  46
   5  -4  -7 17646.8 1091.71  59
  -5  -4   7 17124.3 1101.29  66
   5  -4  -7 15892.2 1153.53  64
   5  -4  -7 17286.9 1086.82  54
  -5  -4   7 17873.1 1217.20   8
  -5  -4   6 8628.04 825.298  42
  -5  -4   6 7555.53 750.001  46
  -5  -4   6 7793.13 708.857  29
   5  -4  -6 8176.53 763.047  59
  -5  -4   6 8155.54 772.923  66
   5  -4  -6 8558.52 844.984  64
   5  -4  -6 8812.10 758.510  54
   5  -4  -6 9000.75 760.136  53
  -5  -4   6 8326.71 826.309   8
  -5  -4   6 8269.02 823.595   2
  -5  -4   5 112051. 3649.68  42
  -5  -4   5 108522. 3570.31  46
   5  -4  -5 109147. 3740.48  75
  -5  -4   5 108120. 3455.15  29
  -5  -4   5 112806. 3578.52  66
   5  -4  -5 112843. 3629.27  59
   5  -4  -5 108105. 3718.53  64
   5  -4  -5 110566. 3407.78  54
  -5  -4   5 108767. 3678.01   8
   5  -4  -5 106500. 3762.58   5
  -5  -4   4 22537.3 1332.90  46
   5  -4  -4 21842.2 1377.43  75
  -5  -4   4 23714.9 1309.82  29
  -5  -4   4 21986.3 1308.97  66
   5  -4  -4 21400.1 1341.22  59
   5  -4  -4 21932.2 1387.91  64
  -5  -4   4 19051.7 1297.29  20
   5  -4  -4 20880.9 1456.15   5
   5  -4  -3 149745. 4690.18  82
   5  -4  -3 138694. 4431.52  75
  -5  -4   3 145916. 4316.06  29
  -5  -4   3 145411. 4383.87  66
   5  -4  -3 143986. 4501.05  59
  -5  -4   3 145057. 4499.73  20
  -5  -4   3 144160. 4351.24  42
  -5  -4   3 150218. 4432.89  46
   5  -4  -2 7234.43 832.182   5
   5  -4  -2 7021.79 799.914  82
   5  -4  -2 7456.07 757.363  75
  -5  -4   2 7344.81 677.196  31
  -5  -4   2 6684.23 687.850  29
  -5  -4   2 7104.38 740.365  66
   5  -4  -2 6329.53 746.396  59
  -5  -4   2 7055.10 704.481  42
  -5  -4   2 7509.95 785.520  20
  -5  -4   1 26949.6 1587.42  20
   5  -4  -1 33816.9 1830.93   5
   5  -4  -1 28991.5 1707.90  82
   5  -4  -1 33048.3 1635.12  75
  -5  -4   1 31606.8 1450.22  31
  -5  -4   1 32729.7 1658.09  66
   5  -4  -1 31333.2 1735.81  59
  -5  -4   1 30489.9 1705.99  51
  -5  -4   1 28762.9 1476.74  42
  -5  -4   1 32098.3 1599.52  46
   5  -4   0 37783.5 1947.99   5
   5  -4   0 39324.0 2011.21  82
   5  -4   0 38096.6 1754.77  75
  -5  -4   0 40799.4 1594.34  31
   5  -4   0 37044.2 1778.19  27
  -5  -4   0 38966.7 1873.80  66
   5  -4   0 37323.2 1960.88  59
  -5  -4   0 37324.6 1902.20  20
  -5  -4   0 41949.3 1779.62  16
  -5  -4   0 37404.1 1667.32  42
  -5  -4   0 40181.4 1809.74  46
   5  -4   1 38443.5 1951.65  82
   5  -4   1 35031.4 1640.19  68
   5  -4   1 32191.4 1722.65  27
  -5  -4  -1 38240.3 1838.54  66
  -5  -4  -1 35935.9 1838.22  20
   5  -4   1 37207.0 1860.20   5
   5  -4   2 26693.7 1578.73  82
   5  -4   2 25094.9 1369.14  68
  -5  -4  -2 23900.7 1436.19  66
   5  -4   2 23805.7 1484.86  27
   5  -4   2 26543.5 1621.60  62
  -5  -4  -2 25800.4 1511.60  51
  -5  -4  -2 25209.2 1390.60   2
  -5  -4  -3 2630.96 470.219  66
   5  -4   3 2845.67 452.679  68
   5  -4   3 2783.42 498.719  82
  -5  -4  -3 4078.68 558.878  51
   5  -4   4 12362.4 936.473  68
  -5  -4  -4 11574.6 951.726  66
  -5  -4  -4 12319.5 969.532  51
   5  -4   4 12417.7 992.320  82
  -5  -4  -5 2300.85 419.336  66
   5  -4   5 2357.45 447.550  62
   5  -4   5 1981.29 365.867  68
  -5  -4  -5 1832.05 359.909  51
   5  -4   5 1781.79 362.050  82
   5  -4   6 12002.5 914.084  62
   5  -4   6 10137.8 764.982  68
  -5  -4  -6 12194.6 866.507  66
  -5  -4  -6 11030.4 794.022  51
   5  -4   6 11055.8 793.093  82
   5  -4   7 15520.3 971.282  62
   5  -4   7 14951.6 865.994  68
  -5  -4  -7 14669.5 900.901  66
   5  -4   7 14721.6 800.639  82
  -5  -4  -7 15151.6 859.931  51
  -5  -4  -8 9871.15 561.398  51
   5  -4   8 8616.27 551.263  68
   5  -3 -13 3451.93 341.466  52
   5  -3 -12 12286.1 815.122  64
   5  -3 -12 12652.9 787.022  52
   5  -3 -11 18574.3 1130.93  64
   5  -3 -11 19036.8 1077.19  52
   5  -3 -10 1507.37 345.999  64
  -5  -3  10 2010.53 359.043  42
   5  -3 -10 1433.05 318.104  52
   5  -3 -10 1767.57 353.838  54
   5  -3  -9 43365.9 1999.02  64
   5  -3  -9 39506.7 1775.01  52
   5  -3  -9 38463.0 1850.98  54
  -5  -3   9 42025.7 1725.54  46
  -5  -3   8 8041.06 812.115   8
  -5  -3   8 7760.96 672.070  29
  -5  -3   8 8377.75 752.405  46
   5  -3  -8 6950.33 764.262  64
   5  -3  -8 7992.07 733.627  52
   5  -3  -8 8241.86 799.986  54
   5  -3  -8 7338.10 716.884  22
  -5  -3   7 9801.57 839.033  46
  -5  -3   7 7818.78 717.874  29
   5  -3  -7 9874.34 911.584  64
   5  -3  -7 9164.92 837.517  54
  -5  -3   7 9878.63 893.894   8
   5  -3  -6 73806.7 2881.06  75
  -5  -3   6 73629.1 2623.16  29
   5  -3  -6 75114.8 2581.42  59
   5  -3  -6 73568.8 2873.41  64
   5  -3  -6 76419.8 2769.77  54
  -5  -3   6 71541.6 2785.12   8
   5  -3  -5 5170.99 693.901  85
   5  -3  -5 5490.99 685.669  75
  -5  -3   5 5365.50 603.876  29
   5  -3  -5 4736.26 574.043  59
   5  -3  -5 5322.71 669.530  64
   5  -3  -5 5237.74 610.224  54
  -5  -3   5 5808.71 673.474   8
   5  -3  -4 38165.5 1949.11   5
   5  -3  -4 37140.1 1942.43  85
   5  -3  -4 36360.5 1890.79  82
   5  -3  -4 37482.3 1873.89  75
  -5  -3   4 37316.3 1702.62  29
   5  -3  -4 37368.4 1733.45  59
   5  -3  -4 35606.9 1705.65  54
  -5  -3   4 37997.6 1772.82  20
  -5  -3   3 48922.6 2065.19  20
  -5  -3   3 50968.2 1898.64  16
  -5  -3   3 49406.9 2068.99   8
   5  -3  -3 48369.0 2247.07  85
   5  -3  -3 49946.1 2189.19  75
  -5  -3   3 47220.1 1993.63  29
  -5  -3   3 47311.4 1975.07  66
   5  -3  -3 50170.8 2111.46  59
   5  -3  -3 49742.7 2044.37  54
  -5  -3   3 53330.1 2117.44  46
   5  -3  -2 39148.9 1944.78  85
   5  -3  -2 42265.5 1960.79  75
  -5  -3   2 40617.2 1804.37  29
  -5  -3   2 40823.6 1798.98  66
   5  -3  -2 40033.7 1895.29  59
  -5  -3   2 39884.1 1844.29  20
  -5  -3   2 41595.6 1711.94  16
  -5  -3   2 41835.4 1809.23   8
   5  -3  -2 40191.9 2021.66   5
  -5  -3   1 10959.6 907.427  20
  -5  -3   1 11102.3 834.678  16
  -5  -3   1 10645.2 827.401   8
   5  -3  -1 10070.6 949.977   5
   5  -3  -1 11016.5 931.858  85
   5  -3  -1 10447.9 965.641  82
   5  -3  -1 13038.1 999.414  75
   5  -3  -1 9061.40 758.926  27
  -5  -3   1 9515.98 820.275  29
  -5  -3   1 11362.5 888.581  66
  -5  -3   1 10518.8 934.428  51
  -5  -3   1 10693.3 817.517  42
  -5  -3   1 12236.9 900.800  46
  -5  -3   0 49709.0 2029.31  16
  -5  -3   0 52708.2 2192.64  20
   5  -3   0 49537.5 2283.22  82
   5  -3   0 48424.6 2100.77  75
  -5  -3   0 51642.7 1825.69  31
   5  -3   0 45804.8 2011.98  27
  -5  -3   0 50287.0 2104.58  66
   5  -3   0 51286.7 2255.26  62
  -5  -3   0 49803.2 2231.04  51
  -5  -3   0 52078.4 1950.90  42
  -5  -3   0 51515.7 2048.97  46
   5  -3   0 49987.2 1928.96  38
  -5  -3  -1 23754.3 1320.72  16
  -5  -3  -1 21503.9 1341.55  20
   5  -3   1 20886.4 1402.01  82
   5  -3   1 23357.9 1320.08  75
  -5  -3  -1 21377.3 1301.56  66
  -5  -3  -1 23045.0 1295.84  29
   5  -3   1 21363.1 1330.88  27
   5  -3   1 21451.3 1428.81  62
  -5  -3  -1 23552.1 1431.52  51
  -5  -3  -1 21590.8 1111.29  42
   5  -3   1 19960.3 1167.23  38
  -5  -3  -1 21136.5 1200.13  46
  -5  -3  -2 38410.5 1792.87  16
   5  -3   2 40537.3 2017.87  82
  -5  -3  -2 38459.3 1828.98  66
   5  -3   2 36903.3 1696.54  75
   5  -3   2 35660.2 1669.31  68
   5  -3   2 37386.5 1886.27  27
   5  -3   2 37924.9 1968.95  62
  -5  -3  -2 41331.7 1723.00  58
  -5  -3  -2 36623.4 1878.97  51
   5  -3   2 38688.4 1731.22  38
  -5  -3  -2 37471.9 1645.97  46
   5  -3   3 36639.0 1901.85  82
  -5  -3  -3 33823.0 1721.66  66
   5  -3   3 32673.5 1825.51  62
  -5  -3  -3 31543.3 1483.20  58
   5  -3   3 32905.2 1805.96  27
  -5  -3  -3 33291.5 1690.17  16
   5  -3   3 35877.1 1675.13  38
   5  -3   4 3029.80 536.020  27
  -5  -3  -4 2179.90 353.773  30
  -5  -3  -4 3369.76 517.615  66
   5  -3   4 3045.40 544.271  62
   5  -3   4 2564.15 482.330  82
   5  -3   4 2802.13 458.707  38
   5  -3   5 55503.6 2380.60  82
  -5  -3  -5 58741.7 2352.19  66
  -5  -3  -5 55346.4 2002.34  30
  -5  -3  -5 56396.7 2325.14  51
   5  -3   5 53853.2 2210.75  38
   5  -3   6 2006.30 385.700  82
  -5  -3  -6 2903.01 376.366  30
  -5  -3  -6 3034.97 459.130  66
  -5  -3  -6 2241.91 407.728  51
   5  -3   6 3146.08 463.446  38
   5  -3   7 43356.8 1814.68  82
   5  -3   7 45434.8 1973.84  62
  -5  -3  -7 48199.6 1922.72  66
  -5  -3  -7 44404.3 1819.02  55
  -5  -3  -7 47261.8 1878.39  51
   5  -3   7 43009.1 1783.13  38
   5  -3   8 836.541 205.847  82
   5  -3   8 1312.46 276.651  62
   5  -3   8 794.156 205.873  68
  -5  -3  -8 1053.68 233.241  51
  -5  -3  -8 1215.16 247.719  55
   5  -3   8 603.840 174.595  38
  -5  -3  -9 2115.61 256.749  55
   5  -3   9 2556.81 314.888  62
   5  -2 -13 4935.89 457.503  52
   5  -2 -12 29187.6 1352.12  52
   5  -2 -11 15611.1 1005.65  52
   5  -2 -11 14833.6 1044.69  54
   5  -2 -11 13847.1 1028.35  78
   5  -2 -10 7034.54 744.777  54
   5  -2 -10 6839.42 769.428  78
  -5  -2   9 118021. 3472.52  29
   5  -2  -9 109870. 3574.66  52
   5  -2  -9 118502. 3874.40  54
   5  -2  -9 112409. 3639.00  22
  -5  -2   9 120363. 3838.40   8
   5  -2  -8 3213.25 518.973  85
   5  -2  -8 3280.29 567.798  78
  -5  -2   8 2870.90 485.549   8
   5  -2  -8 3510.33 474.422  52
   5  -2  -8 2838.82 481.197  54
   5  -2  -8 3124.66 455.943  22
   5  -2  -7 126917. 4213.53  75
  -5  -2   7 137084. 4228.48   8
   5  -2  -7 136031. 4334.19  85
   5  -2  -7 135341. 4377.77  78
   5  -2  -7 132866. 3861.11  52
   5  -2  -7 136396. 4233.77  54
   5  -2  -7 128958. 3867.49  22
   5  -2  -6 92928.8 3222.41  54
  -5  -2   6 89084.9 3171.43   8
   5  -2  -6 90922.9 3314.89  85
   5  -2  -6 91844.5 3302.79  78
  -5  -2   5 89944.0 2805.70  16
   5  -2  -5 86887.1 3247.55  85
   5  -2  -5 92822.8 3217.92  82
   5  -2  -5 95740.4 3300.81  78
  -5  -2   5 91629.7 3181.07   1
   5  -2  -5 88665.3 3148.20  54
  -5  -2   5 95170.0 2849.00  47
  -5  -2   4 376.322 173.906  20
  -5  -2   4 249.511 133.211  16
  -5  -2   4 373.016 179.830   8
  -5  -2   4 298.833 168.764   1
   5  -2  -4 193.112 168.282  85
   5  -2  -4 489.030 206.256  82
   5  -2  -4 415.655 200.360  78
   5  -2  -4 310.851 199.013  75
   5  -2  -4 452.575 200.204  54
  -5  -2   4 250.311 126.013  47
  -5  -2   3 83136.6 2833.31   8
  -5  -2   3 82769.7 2955.24   1
   5  -2  -3 81389.6 3007.43  85
   5  -2  -3 82314.6 3018.57  82
   5  -2  -3 83134.3 3011.60  75
  -5  -2   3 81007.1 2784.71  29
   5  -2  -3 83421.8 2770.55  59
  -5  -2   3 86109.4 2790.07  20
  -5  -2   3 82438.4 2697.74  16
  -5  -2   3 85567.7 2722.79  47
  -5  -2   2 3916.30 495.067   8
  -5  -2   2 5387.19 633.402   1
   5  -2  -2 5405.32 652.700  85
   5  -2  -2 5921.57 691.070  82
   5  -2  -2 6295.52 701.403  75
  -5  -2   2 6134.30 609.289  29
   5  -2  -2 4514.79 547.806  59
   5  -2  -2 5724.03 578.160  38
  -5  -2   2 5548.50 568.177  47
  -5  -2   2 5899.87 604.948  20
  -5  -2   2 5726.76 576.055  16
  -5  -2   1 61144.5 2251.90  20
  -5  -2   1 58868.4 2186.26  16
   5  -2  -1 50820.8 2209.28  85
   5  -2  -1 59575.9 2465.53  82
  -5  -2   1 55971.5 2095.83   8
   5  -2  -1 58353.1 2314.95  62
  -5  -2   1 59956.5 2392.24  51
   5  -2  -1 58933.0 2196.02  38
  -5  -2   0 2104.21 378.625  20
  -5  -2   0 3674.25 488.689  16
  -5  -2   0 2315.70 350.285   8
  -5  -2   0 2988.09 462.652   1
   5  -2   0 2071.53 379.140  85
  -5  -2   0 2743.23 420.984  29
   5  -2   0 2827.82 464.451  62
  -5  -2   0 2361.93 440.961  51
  -5  -2   0 2156.49 363.119  46
   5  -2   0 1938.96 356.269  38
  -5  -2  -1 70022.0 2585.40  16
  -5  -2  -1 68697.6 2543.59   1
   5  -2   1 65046.2 2740.10  82
  -5  -2  -1 73013.6 2572.44  66
  -5  -2  -1 66094.8 2473.84  29
   5  -2   1 74020.1 2780.49  62
   5  -2   1 69296.1 2634.94  65
  -5  -2  -1 66360.6 2670.31  51
  -5  -2  -1 73535.9 2287.91  42
   5  -2   1 77017.2 2671.50  38
  -5  -2  -1 75476.3 2478.88  46
  -5  -2  -2 54124.9 2244.71  16
   5  -2   2 55802.3 2471.57  82
  -5  -2  -2 57184.9 2265.65  66
  -5  -2  -2 59212.5 2199.08  29
   5  -2   2 56853.2 2283.89  65
   5  -2   2 55761.2 2412.16  62
  -5  -2  -2 55476.6 2227.32  58
  -5  -2  -2 56135.6 2384.97  51
   5  -2   2 59383.9 2333.25  38
  -5  -2  -2 57622.9 2060.46  46
  -5  -2  -3 59076.1 2347.92  16
  -5  -2  -3 54575.9 2269.41  66
   5  -2   3 56477.3 2504.33  82
  -5  -2  -3 59227.4 2271.82  58
   5  -2   3 54890.0 2442.10  62
  -5  -2  -3 54151.5 2366.50  51
   5  -2   3 57974.1 2366.41  38
  -5  -2  -4 32709.0 1696.39  16
   5  -2   4 37654.9 1945.12  82
  -5  -2  -4 37832.5 1795.09  66
   5  -2   4 37700.9 1942.30  62
  -5  -2  -4 33024.6 1605.69  58
  -5  -2  -4 34321.7 1794.06  51
   5  -2   4 34356.0 1771.22  38
   5  -2   5 36237.0 1905.72  82
  -5  -2  -5 37764.7 1818.95  66
  -5  -2  -5 36206.0 1652.49  30
   5  -2   5 36087.3 1920.67  62
  -5  -2  -5 35193.3 1617.33  58
  -5  -2  -5 38232.9 1867.52  51
   5  -2   5 35397.9 1808.34  38
  -5  -2  -6 5319.86 638.857  66
   5  -2   6 5866.42 699.368  82
   5  -2   6 6680.44 717.910  38
  -5  -2  -6 6088.15 615.516  30
   5  -2   7 38691.0 1812.28  82
   5  -2   7 37897.5 1764.73  38
  -5  -2  -7 39226.6 1625.98  30
  -5  -2  -8 388.530 146.046  30
   5  -2   8 498.589 187.336  82
  -5  -2  -8 135.581 118.254  51
  -5  -2  -8 458.728 183.171  55
   5  -2   8 360.763 173.531  38
   5  -2   8 356.523 195.957  62
   5  -2   9 38978.7 1437.24  82
  -5  -2  -9 39358.7 1482.58  51
  -5  -2  -9 38777.3 1485.06  55
   5  -2   9 36952.8 1451.76  38
   5  -2   9 37465.2 1532.14  62
  -5  -2 -10 3643.70 310.521  55
   5  -2  10 3393.09 316.183  62
   5  -1 -13 10637.2 728.313  78
   5  -1 -12 15025.3 956.961  52
   5  -1 -12 14532.7 1003.37  78
   5  -1 -12 13511.9 941.554  64
   5  -1 -11 24992.8 1355.17  52
   5  -1 -11 26318.9 1502.24  78
   5  -1 -11 26212.5 1448.77  64
   5  -1 -10 594.762 215.876  52
   5  -1 -10 584.174 239.901  54
   5  -1 -10 187.547 133.542  64
  -5  -1   9 60914.8 2483.01   8
   5  -1  -9 60110.6 2490.35  64
   5  -1  -9 60768.4 2308.86  52
   5  -1  -9 58848.9 2506.15  54
   5  -1  -9 59561.3 2419.47  85
   5  -1  -8 21620.8 1358.48  85
   5  -1  -8 19297.0 1349.98  78
   5  -1  -8 20998.0 1310.76  75
  -5  -1   8 20993.4 1341.54   8
   5  -1  -8 18885.6 1277.99  64
   5  -1  -8 19765.9 1147.31  52
   5  -1  -8 21464.8 1359.99  54
   5  -1  -8 19276.8 1156.72  22
   5  -1  -7 6725.89 752.357  85
   5  -1  -7 6156.51 739.218  78
   5  -1  -7 5762.63 687.579  75
  -5  -1   7 6104.24 673.385   1
  -5  -1   7 5502.93 660.313   8
   5  -1  -7 5345.44 653.672  64
   5  -1  -7 5631.43 678.597  54
   5  -1  -7 5098.84 534.860  22
   5  -1  -6 7886.51 807.829  78
   5  -1  -6 7620.11 795.176  85
   5  -1  -6 7748.03 781.618  75
  -5  -1   6 8038.56 776.351   1
  -5  -1   6 6948.32 717.367   8
   5  -1  -6 7835.46 777.062  64
   5  -1  -6 7982.40 788.337  54
  -5  -1   6 7728.33 656.497  47
   5  -1  -5 26049.8 1472.91  78
   5  -1  -5 24735.5 1387.32  82
   5  -1  -5 26672.3 1498.62  75
   5  -1  -5 26717.4 1464.95  64
   5  -1  -5 24643.6 1437.20  54
  -5  -1   5 27311.9 1462.16   1
  -5  -1   5 29904.8 1359.92  47
  -5  -1   4 5898.71 647.879   1
  -5  -1   4 6185.15 625.214   8
  -5  -1   4 5593.78 558.324  47
   5  -1  -4 6027.55 687.606  85
   5  -1  -4 5916.68 637.359  82
   5  -1  -4 4729.47 583.879  78
  -5  -1   3 8545.84 761.869   1
  -5  -1   3 8102.96 685.811   8
   5  -1  -3 7281.04 725.627  82
   5  -1  -3 7460.72 704.122  78
   5  -1  -3 6615.62 709.145  85
  -5  -1   3 6916.28 637.493  47
  -5  -1   3 7262.42 640.081  16
  -5  -1   2 22218.5 1176.04  16
   5  -1  -2 21102.9 1270.20  85
   5  -1  -2 20746.8 1277.06  82
  -5  -1   2 22285.2 1268.26   1
  -5  -1   2 21069.9 1123.18   8
   5  -1  -2 19096.0 1233.05  65
  -5  -1   2 20804.3 1222.08  51
  -5  -1   2 20959.2 1166.86  47
   5  -1  -2 21658.8 1226.28  38
  -5  -1   1 56534.1 2006.35  20
  -5  -1   1 57523.6 2148.90  16
   5  -1  -1 59315.9 2276.32  85
   5  -1  -1 55697.5 2282.75  77
   5  -1  -1 56159.5 2332.34  82
  -5  -1   1 55930.2 2091.97  29
  -5  -1   1 55232.5 2001.56   8
   5  -1  -1 58086.3 2148.80  62
   5  -1  -1 53955.1 2255.87  65
  -5  -1   1 56329.9 2236.01  51
  -5  -1   1 54964.2 2125.75  47
   5  -1  -1 56407.3 2222.84  38
  -5  -1   0 56232.0 2216.05  16
   5  -1   0 57863.9 2235.01  85
   5  -1   0 58899.4 2361.55  77
   5  -1   0 63123.9 2496.76  82
  -5  -1   0 58507.5 2155.42  29
  -5  -1   0 57746.0 1998.48   8
  -5  -1   0 55929.1 2215.64   1
   5  -1   0 59349.1 2277.14  62
   5  -1   0 59969.4 2379.39  65
  -5  -1   0 59495.4 2337.10  51
   5  -1   0 59715.1 2334.13  38
  -5  -1   0 64315.2 2310.69  47
  -5  -1  -1 70593.6 2534.31  16
   5  -1   1 65737.3 2590.05  77
   5  -1   1 68921.9 2736.36  82
  -5  -1  -1 71801.2 2433.70  29
  -5  -1  -1 67922.3 2152.13   8
  -5  -1  -1 68446.6 2492.11   1
   5  -1   1 70410.4 2616.72  62
   5  -1   1 71218.9 2665.10  65
  -5  -1  -1 72686.1 2666.63  51
   5  -1   1 70786.9 2651.51  38
  -5  -1  -2 1372.98 323.172  16
  -5  -1  -2 2663.82 411.833   1
   5  -1   2 2099.70 400.197  77
  -5  -1  -2 1721.01 318.111  29
   5  -1   2 1410.76 348.340  62
   5  -1   2 1334.95 324.005  65
  -5  -1  -2 1789.02 376.405  58
  -5  -1  -2 1691.88 372.238  51
  -5  -1  -2 2138.72 319.455  46
   5  -1   3 36545.5 1761.82  77
  -5  -1  -3 38807.8 1741.95  66
  -5  -1  -3 35376.2 1590.02   1
  -5  -1  -3 39070.2 1829.18  58
   5  -1   3 34939.4 1723.31  65
  -5  -1  -3 38795.3 1878.02  51
   5  -1   3 36865.9 1870.62  38
   5  -1   3 39184.1 1655.05  48
  -5  -1  -4 24210.8 1388.73  16
  -5  -1  -4 24295.8 1368.63  66
   5  -1   4 20497.1 1262.61  77
   5  -1   4 23882.1 1502.78  82
   5  -1   4 22614.6 1295.93  65
  -5  -1  -4 22683.4 1364.08  58
  -5  -1  -4 23698.3 1448.82  51
   5  -1   4 22460.3 1245.17  48
   5  -1   4 21657.5 1412.72  38
  -5  -1  -5 26700.4 1489.25  16
   5  -1   5 27202.1 1418.05  77
   5  -1   5 28325.2 1669.12  82
  -5  -1  -5 28035.8 1519.93  66
  -5  -1  -5 27615.3 1500.41  58
  -5  -1  -5 26966.7 1564.26  51
   5  -1   5 28130.5 1436.93  48
   5  -1   5 30787.7 1696.19  38
  -5  -1  -6 9671.58 815.983  30
   5  -1   6 7625.49 836.243  82
  -5  -1  -6 9989.38 833.781  58
  -5  -1  -6 9670.19 896.696  51
   5  -1   6 10200.2 823.170  48
  -5  -1  -7 61224.9 2270.37  30
  -5  -1  -7 59658.0 2404.30  51
   5  -1   7 59068.2 2183.28  48
   5  -1   7 60006.4 2459.67  82
  -5  -1  -8 168.076 118.572  30
  -5  -1  -8 253.615 179.415  51
  -5  -1  -8 203.470 162.751  55
   5  -1   8 37.6515 56.8150  48
   5  -1   8 103.902 110.821  82
  -5  -1  -9 15790.9 868.299  30
   5  -1   9 18762.3 1000.87  82
  -5  -1  -9 19836.8 1036.54  55
   5  -1   9 17275.2 972.372  38
  -5  -1 -10 11642.7 646.030  55
   5  -1  10 10263.3 576.142  82
   5   0 -14 23487.6 954.065  78
   5   0 -13 27558.6 1302.05  78
   5   0 -12 42415.6 1834.66  54
   5   0 -12 46760.8 1985.64  78
   5   0 -11 25124.9 1418.64  54
   5   0 -11 22845.7 1434.87  78
   5   0 -11 20834.7 1309.02  79
   5   0 -11 25301.0 1373.10  64
   5   0 -10 7632.16 718.497  52
   5   0 -10 5495.64 684.470  54
   5   0 -10 5778.63 613.424  85
   5   0 -10 5785.10 690.914  79
   5   0 -10 6543.55 704.112  64
   5   0  -9 15935.7 1104.74  85
   5   0  -9 15031.7 1201.83  78
   5   0  -9 16296.3 1187.35  79
   5   0  -9 16244.3 1140.08  64
   5   0  -9 17307.4 1085.07  52
   5   0  -9 16472.5 1197.79  54
  -5   0   9 14487.0 1122.19   8
   5   0  -8 125350. 3951.43  85
   5   0  -8 121660. 3977.04  84
   5   0  -8 118891. 4085.35  78
   5   0  -8 124383. 4024.88  79
   5   0  -8 120821. 3878.48  64
   5   0  -8 123074. 3807.70  75
   5   0  -8 121276. 3631.37  52
   5   0  -8 122905. 3989.60  54
  -5   0   8 115256. 3612.51   9
  -5   0   8 128765. 4038.86   8
   5   0  -7 153081. 4494.19  75
  -5   0   7 148826. 4292.76   9
  -5   0   7 145598. 4538.23   8
  -5   0   7 149599. 4396.78   1
   5   0  -7 152531. 4637.63  85
   5   0  -7 152895. 4533.64  84
   5   0  -7 153326. 4726.53  78
   5   0  -7 151035. 4613.48  79
   5   0  -7 148267. 4482.39  64
   5   0  -6 10678.8 893.185  75
   5   0  -6 9546.30 859.772  72
  -5   0   6 9818.41 844.326   1
  -5   0   6 9987.67 793.256   9
  -5   0   6 11032.7 902.215   8
   5   0  -6 10182.6 910.661  85
   5   0  -6 11017.3 934.012  78
   5   0  -6 11274.6 902.886  64
   5   0  -5 66695.4 2572.21  75
   5   0  -5 67147.5 2554.28  72
  -5   0   5 67489.7 2524.74   1
  -5   0   5 66060.5 2384.16   9
   5   0  -5 69458.4 2593.59  78
   5   0  -5 68380.9 2509.62  64
   5   0  -4 5293.54 599.889  72
   5   0  -4 6057.37 652.948  65
   5   0  -4 6524.94 654.662  64
  -5   0   4 4942.49 544.435   9
  -5   0   4 5230.94 567.768   8
   5   0  -4 4495.96 560.359  78
   5   0  -4 5336.57 569.641  82
   5   0  -3 235428. 6132.06  72
  -5   0   3 229297. 5798.68  37
   5   0  -3 243937. 6338.47  65
  -5   0   3 223945. 5984.81   8
   5   0  -3 241275. 6105.02  78
   5   0  -3 228491. 6093.84  82
   5   0  -2 44559.4 1888.86  82
   5   0  -2 41670.3 1755.31  72
  -5   0   2 42659.7 1646.45  37
  -5   0   2 43737.8 1798.96  47
   5   0  -2 42859.1 1906.21  38
  -5   0   2 41111.9 1673.68   8
  -5   0   1 14504.7 957.966  16
  -5   0   1 13641.3 829.924   8
   5   0  -1 14010.5 1041.03  77
   5   0  -1 15201.6 1055.55  82
   5   0  -1 14015.0 892.754  72
  -5   0   1 14642.6 891.718  37
   5   0  -1 12637.7 986.828  65
  -5   0   1 12868.8 911.091  51
  -5   0   1 13986.0 938.234  47
   5   0  -1 13934.0 1029.78  38
  -5   0   0 27672.5 1395.67  16
   5   0   0 25929.5 1460.01  77
   5   0   0 28226.6 1515.14  82
  -5   0   0 27922.9 1197.90  33
  -5   0   0 26291.6 1158.67   8
   5   0   0 25640.6 1448.84  65
  -5   0   0 28265.6 1409.53  51
  -5   0   0 26789.0 1363.12  47
   5   0   0 25878.7 1467.24  38
   5   0   1 18674.0 1217.95  77
   5   0   1 18223.5 1219.81  82
  -5   0  -1 17407.6 996.254  29
  -5   0  -1 17690.9 966.124  33
  -5   0  -1 17204.0 1067.18   1
   5   0   1 18619.3 1207.60  65
  -5   0  -1 17567.1 1123.30  51
   5   0   1 20617.2 1286.64  38
   5   0   2 3337.77 520.338  77
   5   0   2 4657.66 622.591  82
  -5   0  -2 4316.15 467.701  29
  -5   0  -2 4236.15 503.782   1
   5   0   2 3762.13 546.701  65
  -5   0  -2 3844.20 558.356  58
  -5   0  -2 3932.23 539.708  51
  -5   0  -2 3669.99 498.177  16
  -5   0  -3 43366.3 1890.70  16
   5   0   3 41846.9 1945.94  77
   5   0   3 39401.9 1984.27  82
  -5   0  -3 42764.0 1601.59  29
  -5   0  -3 40868.8 1950.98  58
   5   0   3 37644.7 1844.22  65
   5   0   3 39939.6 1821.25  48
  -5   0  -3 39713.5 1902.43  51
  -5   0  -3 39626.1 1676.18   1
  -5   0  -4 119204. 3704.65  16
   5   0   4 107723. 3481.39  11
  -5   0  -4 114852. 3525.99  83
   5   0   4 113277. 3736.07  77
   5   0   4 115155. 3919.26  82
   5   0   4 118669. 3725.58  65
  -5   0  -4 113626. 3811.82  58
  -5   0  -4 113887. 3806.79  51
   5   0   4 116237. 3707.34  48
  -5   0  -5 49109.0 2094.96  16
   5   0   5 51168.3 2098.61  11
  -5   0  -5 46273.3 1896.45  83
   5   0   5 54586.9 2208.86  77
   5   0   5 48308.8 2064.90  65
  -5   0  -5 53158.0 2284.19  58
  -5   0  -5 53909.3 2313.86  51
   5   0   5 53972.2 2381.38  38
   5   0   5 53232.3 2215.33  48
   5   0   6 740.282 240.071  77
   5   0   6 1315.17 384.087  82
  -5   0  -6 998.963 278.316  30
   5   0   6 760.046 233.000  65
  -5   0  -6 1042.56 307.407  58
  -5   0  -6 1235.34 325.831  51
   5   0   6 999.301 281.054  48
   5   0   6 947.412 298.222  38
   5   0   7 12171.4 836.014  77
   5   0   7 11762.6 991.134  82
  -5   0  -7 12729.6 927.732  30
  -5   0  -7 10918.4 840.178  76
  -5   0  -7 12367.1 997.826  51
   5   0   7 11093.5 955.504  38
   5   0   7 12917.2 949.986  48
  -5   0  -8 24521.0 1247.33  30
  -5   0  -8 22988.5 1315.97  51
  -5   0  -8 23865.2 1314.85  55
   5   0   8 24471.5 1330.27  38
   5   0   8 23748.1 1237.46  48
   5   0   8 24774.5 1368.22  82
  -5   0  -9 41795.4 1597.43  30
   5   0   9 44410.6 1733.04  82
   5   0   9 42460.5 1675.54  38
  -5   0  -9 44483.1 1715.57  55
  -5   0 -10 131.455 93.0316  55
   5   0  10 132.695 102.082  82
   5   1 -14 14311.8 726.487  78
   5   1 -13 10616.3 768.389  78
   5   1 -12 16022.5 1098.09  78
   5   1 -12 15653.6 1049.93  79
   5   1 -11 27351.7 1447.11  54
   5   1 -11 27278.1 1561.52  84
   5   1 -11 26627.9 1519.38  79
   5   1 -10 121.926 145.424  54
   5   1 -10 358.183 241.615  78
   5   1 -10 279.526 157.157  85
   5   1 -10 205.904 219.617  84
   5   1 -10 105.881 126.300  64
   5   1  -9 59291.1 2342.42  85
   5   1  -9 61153.4 2557.18  84
   5   1  -9 64327.7 2699.73  78
   5   1  -9 62135.9 2368.75  64
   5   1  -9 61443.5 2500.64  54
  -5   1   9 58038.7 2320.27   9
   5   1  -8 16364.1 1137.07  85
   5   1  -8 17379.2 1215.28  84
   5   1  -8 16422.6 1243.99  78
   5   1  -8 15884.8 1074.28  64
   5   1  -8 14269.8 975.901  75
   5   1  -8 16873.1 1183.15  72
   5   1  -8 16132.5 1158.35  54
  -5   1   8 16988.6 1120.26   9
   5   1  -7 4721.52 592.269  84
   5   1  -7 5450.91 696.628  78
   5   1  -7 5445.02 677.714  79
   5   1  -7 4958.53 581.191  75
   5   1  -7 4239.29 585.213  72
   5   1  -7 4795.99 573.093  64
   5   1  -7 4950.00 633.126  54
  -5   1   7 4245.29 560.640   9
   5   1  -6 10305.2 922.535  78
   5   1  -6 12399.3 988.260  79
   5   1  -6 11719.9 909.184  75
   5   1  -6 10462.3 916.414  72
   5   1  -6 12920.6 953.118  26
   5   1  -6 12537.8 904.234  64
   5   1  -6 12199.4 975.098  54
  -5   1   6 11733.0 895.109   9
   5   1  -5 24141.1 1388.50  78
   5   1  -5 26412.6 1473.54  72
   5   1  -5 24926.8 1373.45  26
   5   1  -5 26662.3 1386.06  65
   5   1  -5 24236.7 1288.55  64
   5   1  -5 27037.0 1473.53  54
  -5   1   5 26264.5 1372.70   9
   5   1  -4 7280.96 707.645  78
   5   1  -4 8416.41 784.566  72
   5   1  -4 7845.87 736.350  26
   5   1  -4 9271.60 812.976  65
   5   1  -4 7502.24 731.598  61
   5   1  -4 9610.17 758.549  64
  -5   1   4 8235.16 716.240   9
  -5   1   4 7487.27 639.797  37
   5   1  -3 8061.44 767.877  77
   5   1  -3 8502.47 763.811  72
  -5   1   3 7852.78 601.311  33
   5   1  -3 6530.07 666.428  61
   5   1  -3 7409.87 738.117  65
  -5   1   3 6545.99 640.481   9
  -5   1   3 8470.02 680.966  37
   5   1  -2 12469.7 971.881  77
   5   1  -2 12660.1 893.646  82
   5   1  -2 13620.4 950.575  72
   5   1  -2 11900.4 926.349  26
  -5   1   2 12283.0 771.536  33
   5   1  -2 11992.6 872.604  61
   5   1  -2 12357.1 968.928  65
  -5   1   2 12390.9 889.112   9
  -5   1   2 12873.0 873.647  37
   5   1  -1 51015.5 2014.00  72
   5   1  -1 50161.9 2167.69  65
  -5   1   1 51315.1 1859.47   8
  -5   1   1 55515.4 2064.06  37
  -5   1   1 53375.6 1897.89  33
   5   1  -1 51974.6 2138.83  26
   5   1  -1 57558.6 2292.62  77
   5   1  -1 54642.9 2123.08  82
   5   1   0 55878.1 2232.57  82
  -5   1   0 63282.7 2222.34  37
   5   1   0 59540.1 2264.68  26
  -5   1   0 56967.1 2023.62  33
  -5   1   0 55738.6 1859.32   8
   5   1   0 58846.5 2351.24  65
  -5   1   0 49405.3 2069.21  47
  -5   1   0 50849.8 2091.16  16
  -5   1  -1 62189.0 2416.01  16
   5   1   1 71091.7 2693.81  77
   5   1   1 70528.9 2626.24  82
  -5   1  -1 72770.6 2533.88  37
   5   1   1 69822.2 2549.52  26
  -5   1  -1 66549.3 2340.17  33
  -5   1  -1 70648.0 2277.98  29
   5   1   1 63478.7 2248.80  12
   5   1   1 70176.4 2672.77  65
  -5   1  -1 73960.7 2725.84  58
  -5   1  -1 65809.5 2403.71  51
  -5   1  -1 69324.0 2500.29  47
   5   1   1 68971.3 2724.38  38
  -5   1  -2 2012.41 371.849  16
   5   1   2 1574.32 370.550  77
   5   1   2 2356.65 440.987  82
  -5   1  -2 1925.02 298.932  29
  -5   1  -2 2268.24 373.022  33
  -5   1  -2 2571.64 467.164  58
   5   1   2 1918.23 392.959  65
  -5   1  -2 3116.73 463.296  51
  -5   1  -2 2161.76 394.544  47
   5   1   2 2158.22 439.792  38
  -5   1  -3 34180.4 1610.19  16
   5   1   3 31796.9 1719.16  82
   5   1   3 31195.0 1694.16  77
  -5   1  -3 31902.0 1541.67  33
   5   1   3 32014.2 1685.35  65
   5   1   3 32728.7 1773.97  38
   5   1   3 32101.4 1469.11  45
  -5   1  -3 31576.0 1617.59  51
  -5   1  -3 32747.0 1480.49   1
  -5   1  -4 19241.0 1197.18  16
   5   1   4 24890.8 1456.24  77
  -5   1  -4 21487.1 1292.22  83
   5   1   4 21259.0 1401.73  82
   5   1   4 22985.3 1376.67  65
  -5   1  -4 20912.0 1200.06  50
  -5   1  -4 25551.8 1438.32  51
   5   1   4 20742.0 1399.69  38
   5   1   4 23023.5 1418.02  48
   5   1   4 21348.8 1203.34  45
  -5   1  -5 34154.6 1596.64  16
   5   1   5 31125.8 1627.11  11
  -5   1  -5 31396.3 1569.23  83
   5   1   5 33999.4 1815.25  82
   5   1   5 31931.7 1691.69  77
  -5   1  -5 34190.1 1750.85  51
   5   1   5 32061.1 1775.86  38
   5   1   5 33853.4 1764.48  48
   5   1   5 32365.4 1551.82  45
   5   1   5 31381.6 1628.74  65
  -5   1  -5 33947.4 1812.23  58
  -5   1  -6 9753.36 765.634  83
   5   1   6 9531.58 918.517  82
   5   1   6 9219.04 835.987  77
  -5   1  -6 10400.2 926.084  51
   5   1   6 8763.05 859.767  38
   5   1   6 9099.18 869.744  48
   5   1   6 8312.00 741.503  45
   5   1   6 9862.79 817.119  65
   5   1   7 65255.0 1996.30  77
   5   1   7 63490.0 1818.95  65
   5   1   7 66933.0 2206.19  38
   5   1   7 62712.0 2113.50  48
   5   1   8 293.050 140.921  77
  -5   1  -8 226.161 127.701  76
  -5   1  -8 191.868 161.824  55
   5   1   8 145.768 127.005  38
   5   1   9 15398.4 921.986  82
  -5   1  -9 14052.8 795.693  76
  -5   1  -9 12978.5 790.773  30
  -5   1  -9 15199.0 864.158  55
   5   1   9 14598.1 853.455  38
   5   1  10 11831.2 643.476  62
  -5   1 -10 10436.2 564.917  55
  -5   1 -10 11380.2 594.888  80
   5   1  10 12129.6 658.921  82
   5   2 -14 22894.3 907.996  78
   5   2 -13 3739.87 437.270  78
   5   2 -12 28733.6 1475.95  84
   5   2 -12 29769.9 1492.17  79
   5   2 -11 15938.5 978.891  54
   5   2 -11 14845.2 1101.43  84
   5   2 -11 15865.0 1145.84  78
   5   2 -11 16036.6 1149.46  79
   5   2 -10 10473.1 851.149  54
   5   2 -10 10201.0 936.548  84
   5   2 -10 12730.6 1080.30  78
   5   2 -10 11186.0 1004.15  79
   5   2  -9 133141. 3912.66  85
   5   2  -9 126816. 4149.10  84
   5   2  -9 124298. 4227.53  78
   5   2  -9 129474. 4251.62  79
   5   2  -9 128123. 3971.30  54
  -5   2   9 130498. 4067.42   9
   5   2  -9 118612. 3949.65  72
   5   2  -8 1156.85 345.670  78
   5   2  -8 1299.01 333.058  84
   5   2  -8 971.263 305.997  79
   5   2  -8 1087.95 306.165  72
   5   2  -8 1225.96 318.364  54
  -5   2   8 1182.30 312.188   9
   5   2  -7 122237. 3981.26  84
   5   2  -7 125335. 4192.36  78
   5   2  -7 129977. 4173.05  79
   5   2  -7 128744. 4159.14  72
   5   2  -7 128775. 3896.52  26
   5   2  -7 135306. 4064.17  54
  -5   2   7 127727. 4055.96   9
   5   2  -6 102124. 3463.08  78
   5   2  -6 100816. 3428.65  79
   5   2  -6 100816. 3157.86  75
  -5   2   6 96964.9 3077.93  33
   5   2  -6 97344.1 3273.60  26
   5   2  -6 96489.7 3392.08  61
   5   2  -6 103244. 3363.16  54
  -5   2   6 93010.6 3298.38   9
   5   2  -5 82323.8 2983.04  78
   5   2  -5 88471.7 3153.04  72
  -5   2   5 87802.3 2803.56  33
   5   2  -5 85853.7 3030.46  26
   5   2  -5 80815.8 2824.45  65
   5   2  -5 88627.0 3119.08  61
   5   2  -5 88183.2 3038.19  54
  -5   2   5 91557.8 3046.11   9
   5   2  -4 153.352 154.311  78
   5   2  -4 181.142 182.234  72
   5   2  -4 377.355 181.902  65
   5   2  -4 348.506 175.311  61
  -5   2   4 266.843 150.708   9
   5   2  -4 293.417 177.117  26
  -5   2   4 480.181 167.963  33
  -5   2   3 86757.7 2757.62  33
   5   2  -3 87432.2 3005.29  77
  -5   2   3 82452.5 2834.10  37
   5   2  -3 82778.0 2950.52  65
   5   2  -3 84566.9 2948.27  61
   5   2  -2 5538.92 648.259  26
  -5   2   2 6459.32 610.898  33
   5   2  -2 5936.12 669.982  65
   5   2  -2 6014.86 645.930  61
   5   2  -2 6759.55 724.111  77
  -5   2   2 7278.60 678.818  37
   5   2  -1 54800.1 2277.48  26
  -5   2   1 57993.2 2101.72  33
   5   2  -1 54012.6 1964.06  12
   5   2  -1 52910.9 2266.71  65
   5   2  -1 54242.2 2085.75  61
   5   2  -1 59726.5 2371.05  77
   5   2  -1 55931.5 2427.83  38
  -5   2   1 51921.7 2115.44  37
   5   2   0 681.950 248.152  77
   5   2   0 1404.40 307.899  82
  -5   2   0 1047.51 279.963  37
  -5   2   0 612.303 208.027  33
   5   2   0 1296.70 270.456  12
  -5   2   0 1582.66 356.097  58
   5   2   0 553.328 237.211  65
   5   2   0 806.758 254.138  26
  -5   2   0 1103.72 273.511  47
   5   2   0 1091.56 325.959  38
   5   2   1 78679.5 2760.39  82
  -5   2  -1 80245.1 2796.91  37
  -5   2  -1 77387.7 2664.52  33
   5   2   1 80039.9 2808.70  26
   5   2   1 70482.2 2590.15  12
  -5   2  -1 75052.7 2882.85  58
   5   2   1 78236.2 2896.35  65
  -5   2  -1 75651.8 2671.86  16
  -5   2  -1 72894.0 2644.70  47
   5   2   1 78686.7 2982.09  38
   5   2   2 62444.6 2583.63  77
   5   2   2 65975.3 2522.84  82
  -5   2  -2 67767.3 2436.03  33
   5   2   2 61352.1 2406.51  26
   5   2   2 61885.7 2403.82  12
   5   2   2 63871.1 2585.91  65
  -5   2  -2 63953.7 2616.80  58
  -5   2  -2 62668.1 2354.98  47
   5   2   2 61941.7 2642.75  38
   5   2   2 64837.2 2371.25  45
  -5   2  -2 63185.7 2363.61  16
  -5   2  -3 54255.3 2124.04  16
   5   2   3 51318.9 2083.68  26
  -5   2  -3 55845.0 2214.71  33
   5   2   3 52697.4 2359.44  77
  -5   2  -3 55481.5 2350.61  83
   5   2   3 52290.2 2280.55  82
   5   2   3 54345.6 2348.74  65
  -5   2  -3 54941.0 2433.84  58
  -5   2  -3 58182.1 2230.48  51
  -5   2  -3 55869.9 2281.45  50
   5   2   3 55499.9 2429.52  38
   5   2   3 54315.6 2183.97  45
  -5   2  -4 32659.4 1527.06  16
   5   2   4 29625.9 1670.92  77
  -5   2  -4 32835.9 1717.51  83
   5   2   4 33543.0 1752.08  82
   5   2   4 30325.3 1674.65  65
  -5   2  -4 30447.0 1748.22  58
  -5   2  -4 33877.8 1646.27  33
  -5   2  -4 31789.9 1607.34  50
  -5   2  -4 32852.1 1644.26  51
   5   2   4 30603.1 1712.23  38
   5   2   4 32136.6 1600.36  45
   5   2   5 36772.5 1841.51  77
  -5   2  -5 34122.4 1716.36  83
   5   2   5 37401.3 1882.32  82
  -5   2  -5 34754.5 1878.02  58
   5   2   5 34317.0 1748.75  65
  -5   2  -5 34563.7 1627.45  50
  -5   2  -5 35592.5 1750.05  51
   5   2   5 37044.7 1868.80  38
   5   2   5 35208.4 1698.58  45
   5   2   6 4566.37 592.400  77
  -5   2  -6 4012.03 518.398  83
   5   2   6 4127.26 580.605  82
   5   2   6 3617.73 506.367  65
  -5   2  -6 4513.48 549.017  30
  -5   2  -6 4199.17 577.207  51
   5   2   6 4540.88 597.623  38
   5   2   6 3022.55 456.541  45
   5   2   7 40562.0 1869.68  82
   5   2   7 42359.8 1810.98  77
  -5   2  -7 38400.4 1706.51  30
   5   2   7 42398.6 1721.90  65
  -5   2  -7 42920.1 1794.74  55
   5   2   7 38769.6 1774.41  38
   5   2   7 43318.0 1775.35  45
   5   2   8 423.595 164.272  77
   5   2   8 189.735 133.840  82
  -5   2  -8 310.081 143.193  30
  -5   2  -8 192.901 116.376  55
  -5   2  -8 92.0188 120.192  76
   5   2   8-37.2136 39.7003  45
   5   2   8 204.570 123.415  38
  -5   2  -9 35451.6 1362.62  76
   5   2   9 30433.8 1130.00  77
   5   2   9 35416.9 1396.22  82
  -5   2  -9 30749.7 1170.17  55
   5   2  10 3832.69 307.001  62
  -5   2 -10 4126.31 337.614  80
   5   3 -13 4601.31 444.384  78
   5   3 -12 12633.7 871.944  84
   5   3 -12 11641.8 840.572  79
   5   3 -11 17357.3 1139.71  84
   5   3 -11 17890.5 1178.45  78
   5   3 -11 17844.6 1154.78  79
   5   3 -10 1328.02 347.895  78
   5   3 -10 932.896 290.287  84
   5   3 -10 1712.78 383.585  79
   5   3  -9 42982.8 1733.87  85
   5   3  -9 40634.2 1922.99  84
   5   3  -9 39613.2 1975.88  78
   5   3  -9 41904.7 1976.28  79
   5   3  -9 42493.9 1848.19  72
   5   3  -8 6365.69 727.484  84
   5   3  -8 6446.74 774.751  78
   5   3  -8 6452.45 745.099  79
   5   3  -8 6389.94 719.338  72
   5   3  -8 5776.68 611.838  54
  -5   3   8 5843.05 701.566   9
   5   3  -7 9371.36 863.335  84
   5   3  -7 10875.2 971.729  78
   5   3  -7 9513.43 896.540  79
   5   3  -7 10343.8 940.024  72
   5   3  -7 7543.38 744.992  26
   5   3  -7 8948.27 774.479  54
  -5   3   7 9223.96 796.188   3
  -5   3   7 9893.84 920.505   9
   5   3  -6 82112.0 3112.08  78
   5   3  -6 85625.0 3194.31  72
   5   3  -6 85847.0 3199.61  61
  -5   3   6 86061.2 3129.44   9
  -5   3   6 90254.6 3043.09   3
   5   3  -6 84682.9 2919.84  54
   5   3  -6 93499.5 3147.24  26
   5   3  -5 5973.96 666.749  78
  -5   3   5 4918.93 579.637  33
  -5   3   5 4829.51 528.000  32
   5   3  -5 4676.09 618.242  26
   5   3  -5 4667.00 631.717  61
   5   3  -5 5566.74 617.239  54
  -5   3   5 4408.25 588.888   9
  -5   3   5 4986.72 620.971   3
  -5   3   4 30442.4 1511.27  33
  -5   3   4 30692.8 1409.73  32
   5   3  -4 30394.6 1520.20  65
   5   3  -4 28607.5 1615.52  61
   5   3  -4 30804.2 1653.89  26
  -5   3   4 30790.2 1392.94  40
   5   3  -3 46489.9 2098.08  73
  -5   3   3 47751.9 1982.87  33
   5   3  -3 50336.4 2094.48  65
   5   3  -3 52194.9 2193.21  61
  -5   3   3 46007.3 1954.44  58
   5   3  -3 51767.8 2107.48  77
  -5   3   3 45444.0 2020.32   9
  -5   3   2 43269.4 1908.98   9
   5   3  -2 44930.1 2020.50  77
   5   3  -2 48099.4 2060.31  73
  -5   3   2 43660.1 1888.67  33
   5   3  -2 45939.1 2035.65  65
   5   3  -2 45859.1 2011.97  61
  -5   3   2 45994.9 1967.14  58
   5   3  -2 44893.8 2077.63  26
  -5   3   2 45810.7 1997.25  37
   5   3  -1 13575.8 968.562  12
  -5   3   1 14500.8 996.769   9
   5   3  -1 14379.1 1083.40  77
   5   3  -1 14027.7 1019.10  73
  -5   3   1 14211.8 988.768  33
  -5   3   1 13981.8 1032.25  58
   5   3  -1 14336.8 1079.01  65
   5   3  -1 13341.1 975.129  61
   5   3  -1 14128.0 1076.71  26
  -5   3   1 14163.1 1024.38  37
   5   3   0 44498.8 1955.58  12
   5   3   0 46252.3 2102.52  77
   5   3   0 40808.4 1850.09  73
  -5   3   0 45285.4 1986.66  37
  -5   3   0 49507.2 1994.54  33
  -5   3   0 47227.6 2075.86  58
   5   3   0 43488.5 2056.53  65
   5   3   0 42267.3 1815.86  61
   5   3   0 48135.6 2107.56  26
  -5   3   0 43814.8 1870.34  47
   5   3   1 20466.9 1280.67  12
  -5   3  -1 19342.4 1224.05   3
   5   3   1 22879.3 1409.93  77
   5   3   1 20427.2 1168.10  73
  -5   3  -1 22040.9 1300.21  37
  -5   3  -1 18870.1 1192.30  33
   5   3   1 21697.6 1381.91  65
  -5   3  -1 19219.6 1306.45  58
   5   3   1 20505.1 1381.84  38
  -5   3  -1 20689.9 1187.95  47
   5   3   1 21117.6 1315.75  26
  -5   3  -1 19073.6 1147.05  16
  -5   3  -2 44426.3 1822.61  16
   5   3   2 43603.0 2084.68  77
   5   3   2 42767.1 1881.96  82
   5   3   2 40718.1 1891.54  26
  -5   3  -2 43822.1 1938.90  33
   5   3   2 41456.3 1980.16  12
  -5   3  -2 41905.0 1857.72   3
  -5   3  -2 47420.1 2178.01  58
  -5   3  -2 46858.5 2123.34  50
  -5   3  -2 44024.4 1809.68  47
   5   3   2 41726.2 2064.08  38
  -5   3  -3 33538.8 1531.22  16
   5   3   3 34122.7 1791.92  12
  -5   3  -3 34966.7 1617.74   3
  -5   3  -3 32927.0 1675.72  33
  -5   3  -3 34832.3 1854.46  83
   5   3   3 39077.1 1793.28  82
   5   3   3 34948.5 1842.20  65
  -5   3  -3 38383.1 1952.65  58
  -5   3  -3 37216.0 1858.65  50
   5   3   3 36446.0 1783.05  45
   5   3   3 35456.1 1834.69  38
  -5   3  -4 3795.20 528.232  33
  -5   3  -4 3557.78 571.812  58
   5   3   4 2824.95 499.936  65
   5   3   4 4012.02 592.953  77
  -5   3  -4 3604.83 569.037  83
   5   3   4 3497.92 522.859  82
  -5   3  -4 3347.06 520.610  50
   5   3   4 2739.97 468.553  45
   5   3   4 2684.67 481.873  38
   5   3   4 2669.45 485.717  12
   5   3   5 59026.3 2458.52  77
  -5   3  -5 56913.8 2381.23  83
   5   3   5 57980.4 2354.82  82
   5   3   5 58306.4 2393.18  65
  -5   3  -5 58145.6 2306.22  50
   5   3   5 56952.0 2325.17  45
   5   3   5 58025.2 2343.47  38
   5   3   6 3897.35 541.664  77
  -5   3  -6 3821.60 518.140  83
   5   3   6 2651.44 447.290  82
   5   3   6 4111.11 536.458  65
  -5   3  -6 2973.76 423.686  30
  -5   3  -6 4131.94 498.948  50
   5   3   6 3727.35 510.373  45
   5   3   6 4319.99 530.920  38
  -5   3  -7 41884.2 1629.59  30
   5   3   7 42307.7 1778.73  77
  -5   3  -7 41075.1 1648.15  83
   5   3   7 41420.4 1759.69  82
   5   3   7 38238.8 1670.22  45
   5   3   7 40846.3 1648.31  38
   5   3   7 41612.3 1682.54  65
  -5   3  -8 730.868 182.541  30
   5   3   8 610.877 180.500  77
   5   3   8 649.491 196.097  82
   5   3   8 1135.97 229.851  45
   5   3   8 936.436 192.106  65
  -5   3  -9 3435.95 357.688  76
   5   3   9 2876.47 283.230  77
   5   3   9 3504.16 346.981  82
   5   4 -12 18751.8 958.791  84
   5   4 -12 17328.5 959.774  78
  -5   4  11 8024.38 600.024  33
   5   4 -11 10247.5 775.078  84
   5   4 -11 10115.4 796.521  78
   5   4 -10 31969.2 1582.01  84
   5   4 -10 31853.2 1631.42  78
   5   4  -9 28775.4 1539.89  84
   5   4  -9 31508.7 1667.26  78
   5   4  -8 15294.9 1116.07  61
  -5   4   8 13447.4 925.988  32
   5   4  -8 14601.7 1072.39  84
   5   4  -8 15787.6 1176.21  78
   5   4  -8 14709.3 1068.64  72
   5   4  -7 18422.2 1259.26  72
   5   4  -7 19946.4 1306.98  61
   5   4  -7 18895.8 1303.39  78
  -5   4   7 17261.3 1234.62   9
  -5   4   7 16910.4 1081.41  32
  -5   4   6 8013.73 777.564   3
  -5   4   6 5896.54 675.749  33
  -5   4   6 7335.53 698.781  32
   5   4  -6 7354.39 783.223  78
   5   4  -6 6684.72 734.433  26
  -5   4   6 6530.73 644.056  40
  -5   4   5 105567. 3568.56   3
  -5   4   5 102257. 3550.01   9
   5   4  -5 107581. 3513.58  78
  -5   4   5 105096. 3512.00  33
  -5   4   5 106538. 3408.30  32
   5   4  -5 108451. 3736.62  61
   5   4  -5 110106. 3680.65  26
  -5   4   5 103722. 3380.11  18
  -5   4   5 108451. 3359.05  40
  -5   4   4 21692.7 1228.88  40
   5   4  -4 21363.0 1370.26  73
  -5   4   4 19912.8 1262.71  33
  -5   4   4 22569.2 1271.28  32
   5   4  -4 21855.6 1411.93  61
   5   4  -4 20477.3 1367.53  26
  -5   4   4 20446.2 1337.74   3
  -5   4   4 22895.2 1346.91   9
   5   4  -3 159129. 4566.69  77
   5   4  -3 160636. 4890.42  73
  -5   4   3 152285. 4683.70  33
  -5   4   3 164809. 4642.55  32
   5   4  -3 158591. 4660.32  65
   5   4  -3 158911. 4882.50  61
  -5   4   3 171900. 4888.62  37
  -5   4   3 172937. 4971.81   3
  -5   4   3 160280. 4715.29   9
  -5   4   2 7577.72 793.648   3
  -5   4   2 5635.52 637.567   9
   5   4  -2 6458.88 685.851  77
   5   4  -2 6191.71 717.076  73
  -5   4   2 6912.68 711.165  33
   5   4  -2 6215.93 688.035  65
   5   4  -2 6986.19 747.651  61
   5   4  -2 7100.80 793.830  26
  -5   4   2 5824.21 685.901  37
  -5   4   1 35785.6 1847.22  83
   5   4  -1 36080.5 1770.03  77
   5   4  -1 36144.4 1796.28  73
  -5   4   1 40481.5 1832.26  33
   5   4  -1 40135.7 1898.47  65
   5   4  -1 38316.5 1799.53  61
  -5   4   1 37249.3 1725.66  58
   5   4  -1 35526.6 1857.04  26
  -5   4   1 34323.7 1797.83   3
  -5   4   1 33223.1 1627.43   9
   5   4   0 39665.5 1945.47  12
  -5   4   0 39489.0 1926.77   3
  -5   4   0 40481.8 2007.10  83
   5   4   0 39499.5 1925.96  77
   5   4   0 40291.6 1879.24  73
  -5   4   0 42491.1 1914.12  33
   5   4   0 45483.4 2075.11  65
   5   4   0 37664.2 1753.46  61
  -5   4   0 43320.9 1925.46  58
  -5   4   0 41439.8 1766.40  47
   5   4   0 43061.3 2032.56  26
   5   4   1 35804.6 1795.92  26
  -5   4  -1 34974.4 1568.35  16
   5   4   1 33964.6 1815.19  12
  -5   4  -1 34048.0 1727.06   3
   5   4   1 34907.9 1815.90  77
  -5   4  -1 38974.6 1950.65  83
   5   4   1 35654.9 1682.42  73
  -5   4  -1 36375.7 1757.58  33
   5   4   1 36249.7 1860.97  65
  -5   4  -1 37425.4 1814.63  58
  -5   4  -1 36011.0 1886.26  50
  -5   4  -1 35455.8 1563.43  47
   5   4   2 21291.9 1405.76  12
  -5   4  -2 21001.7 1273.78   3
   5   4   2 23804.9 1458.43  77
  -5   4  -2 19997.6 1384.49  83
   5   4   2 22802.9 1225.98  73
  -5   4  -2 23251.6 1415.10  58
   5   4   2 21904.7 1417.86  65
   5   4   2 22417.6 1339.32  26
  -5   4  -2 20734.6 1184.28  14
  -5   4  -2 22532.4 1343.64  37
  -5   4  -2 21718.2 1309.35  33
  -5   4  -2 23520.4 1161.81  47
  -5   4  -3 3288.09 513.052  33
   5   4   3 4299.57 608.531  77
  -5   4  -3 3559.43 560.043  50
  -5   4  -4 18791.5 1245.47  50
   5   4   4 19661.3 1283.01  65
  -5   4  -4 16697.6 1115.59  33
   5   4   5 1998.49 395.316  65
  -5   4  -5 2034.60 321.347  30
  -5   4  -5 2245.75 423.422  83
  -5   4  -5 1778.52 366.110  50
   5   4   6 10484.7 780.174  65
  -5   4  -6 9618.12 729.423  50
   5   4   6 8928.64 744.507  77
  -5   4  -6 8657.63 721.938  83
  -5   4  -7 14564.6 874.350  76
   5   4   7 17070.9 915.874  77
  -5   4  -7 14739.6 809.398  83
   5   4   7 14007.3 791.472  65
   5   4   8 11739.9 618.882  65
  -5   4  -8 11790.7 728.684  76
   5   4   8 11048.3 670.633  77
  -5   4  -9 1262.99 176.097  76
   5   5 -12 7854.57 495.172  78
   5   5 -11 458.023 164.084  78
   5   5 -11 495.607 151.709  84
  -5   5  10 3258.15 391.702  33
   5   5 -10 3309.66 414.525  84
   5   5 -10 3753.72 475.468  78
  -5   5   9 34245.8 1529.77  33
   5   5  -9 34272.3 1566.65  84
   5   5  -9 36044.4 1670.31  78
   5   5  -9 35914.9 1466.00  72
   5   5  -8 2984.77 463.445  61
  -5   5   8 2711.37 427.030  33
  -5   5   8 2585.84 387.475  32
   5   5  -8 3458.27 503.122  78
   5   5  -8 3325.16 470.144  84
   5   5  -8 2828.75 427.822  72
   5   5  -7 62854.4 2424.10  72
  -5   5   7 55673.4 2283.01  33
  -5   5   7 57094.9 2208.38  32
   5   5  -7 62068.5 2420.74  78
  -5   5   7 57350.9 2147.12  40
   5   5  -7 62410.4 2471.54  61
  -5   5   6 19400.2 1245.95  33
  -5   5   6 19962.9 1197.20  32
   5   5  -6 21550.9 1284.48  78
  -5   5   6 20319.5 1180.51  40
   5   5  -5 6505.43 760.552  61
  -5   5   5 6692.50 717.346  33
  -5   5   5 6066.56 657.964  32
  -5   5   5 6736.15 677.814  40
   5   5  -4 33538.1 1787.11  61
  -5   5   4 31796.8 1650.31  33
  -5   5   4 30988.3 1574.29  32
   5   5  -4 30759.2 1696.02  73
  -5   5   4 31103.8 1566.54  40
  -5   5   3 1449.11 320.684  83
   5   5  -3 1205.03 335.442  73
  -5   5   3 969.682 282.406  33
   5   5  -3 747.687 271.933  61
   5   5  -3 648.034 255.431  26
  -5   5   3 759.622 246.278   9
  -5   5   3 1208.89 344.049   3
  -5   5   2 36145.6 1899.37   3
  -5   5   2 41610.9 1795.02   9
  -5   5   2 41642.4 1908.47  83
   5   5  -2 38764.5 1935.76  73
  -5   5   2 40163.0 1898.53  33
   5   5  -2 39629.1 1789.73  65
   5   5  -2 42021.7 1985.24  61
  -5   5   2 40591.8 1972.36  50
   5   5  -2 38974.8 2027.08  26
   5   5  -1 32128.0 1779.85  26
  -5   5   1 30681.4 1704.64   3
  -5   5   1 31274.9 1682.73  83
   5   5  -1 33030.6 1579.51  77
   5   5  -1 34063.3 1751.32  73
  -5   5   1 32376.9 1656.71  33
   5   5  -1 32941.0 1662.87  65
   5   5  -1 31534.4 1645.11  61
  -5   5   1 31356.8 1739.06  50
  -5   5   1 33311.7 1508.74  47
  -5   5   1 32971.7 1682.66  37
  -5   5   0 28333.4 1601.13  83
   5   5   0 24525.3 1397.70  77
   5   5   0 25255.0 1462.97  73
  -5   5   0 27000.6 1487.41  37
  -5   5   0 27149.9 1479.82  33
   5   5   0 28814.7 1560.26  65
   5   5   0 26182.9 1408.02  61
  -5   5   0 27016.8 1588.74  50
  -5   5   0 26673.8 1277.07  47
   5   5   1 20966.0 1254.56  73
  -5   5  -1 20329.7 1255.12  37
  -5   5  -1 21145.2 1288.88  33
   5   5   1 22526.3 1385.35  65
   5   5   1 20760.6 1144.90  61
  -5   5  -1 20954.6 1380.80  50
  -5   5  -1 22496.3 1412.62  83
   5   5   1 20650.5 1282.86  77
   5   5   2 20585.0 1174.17  73
  -5   5  -2 20522.1 1257.13  33
  -5   5  -2 24343.9 1463.90  50
   5   5   2 23538.1 1375.49  77
  -5   5  -2 22488.3 1409.85  83
   5   5   2 21678.0 1372.72  65
   5   5   3 51130.1 2150.59  77
  -5   5  -3 50681.5 2215.49  83
   5   5   3 49201.6 2162.83  65
  -5   5  -4 9144.50 816.824  50
   5   5   4 8722.38 780.996  77
  -5   5  -4 7987.40 779.606  83
  -5   5  -5 22427.4 1239.50  50
   5   5   5 24882.1 1293.02  77
   5   5   5 24448.9 1286.97  65
  -5   5  -6 5215.78 504.828  50
  -5   5  -6 5439.14 533.279  83
   5   5   6 4561.41 481.752  65
  -5   5  -7 10707.0 656.201  76
  -5   5  -7 10419.5 593.268  50
   5   5   7 11926.6 659.338  65
  -5   5  -7 10070.3 618.768  83
  -5   5  -7 8504.10 514.280  80
   5   5   7 9624.13 623.878  77
   5   5   8 9254.79 481.053  77
   5   6 -10 17681.9 780.326  84
   5   6 -10 23590.7 952.638  78
   5   6  -9 3154.07 345.152  84
   5   6  -9 3789.74 408.710  78
  -5   6   9 3352.28 373.848  33
   5   6  -8 3453.17 428.291  61
  -5   6   8 3304.08 411.797  33
  -5   6   8 3568.70 397.451  32
   5   6  -8 3839.12 415.078  84
   5   6  -8 3317.86 415.159  78
   5   6  -8 3886.86 416.134  72
   5   6  -7 38233.5 1605.21  72
  -5   6   7 35476.7 1579.32  33
  -5   6   7 37316.2 1545.61  32
   5   6  -7 38579.1 1669.71  61
   5   6  -7 36778.4 1551.88  78
  -5   6   7 33197.2 1442.16  40
   5   6  -6 33813.0 1613.32  72
  -5   6   6 32970.7 1563.49  33
  -5   6   6 35082.4 1552.57  32
   5   6  -6 33777.9 1454.82  78
  -5   6   6 33276.3 1484.08  40
  -5   6   5 32469.3 1577.40  33
  -5   6   5 34189.0 1571.62  32
  -5   6   5 31306.7 1500.35  40
   5   6  -5 34089.6 1704.38  61
  -5   6   4 7456.74 726.390  33
   5   6  -4 7164.30 750.883  61
  -5   6   4 6674.75 642.394  50
  -5   6   4 7329.91 717.715  37
   5   6  -3 21004.4 1300.31  73
  -5   6   3 19958.8 1219.79  33
   5   6  -3 22212.3 1342.49  61
  -5   6   3 20434.0 1200.81  50
  -5   6   3 20207.9 1227.72  37
  -5   6   2 7014.87 654.576  83
   5   6  -2 7734.52 768.709  73
  -5   6   2 6911.24 700.995  33
   5   6  -2 7833.40 763.438  61
  -5   6   2 6582.83 694.266  50
  -5   6   2 7247.04 705.578  37
   5   6  -1 28228.2 1485.60  73
  -5   6   1 28875.9 1423.93  37
   5   6  -1 27534.2 1410.57  61
  -5   6   1 29241.5 1495.34  50
  -5   6   1 26721.7 1370.05  83
   5   6   0 2594.55 431.441  73
  -5   6   0 2864.50 431.821  37
   5   6   0 3020.67 442.505  65
   5   6   0 2352.49 379.959  61
  -5   6   0 3029.44 465.181  83
  -5   6   0 3020.03 479.282  50
   5   6   1 24549.8 1292.70  73
  -5   6  -1 24630.0 1275.57  37
   5   6   1 24586.6 1327.89  65
   5   6   1 24667.7 1167.37  61
  -5   6  -1 25267.6 1410.51  50
  -5   6  -1 26106.8 1398.07  83
   5   6   2 2821.37 384.731  73
  -5   6  -2 3188.33 434.624  33
   5   6   2 3240.58 462.092  65
  -5   6  -2 3387.86 488.525  50
  -5   6  -2 2635.81 433.196  83
   5   6   2 3841.54 459.948  77
   5   6   3 4445.01 413.369  73
  -5   6  -3 4836.14 516.319  33
  -5   6  -3 5162.58 574.114  50
  -5   6  -3 5487.73 583.080  83
   5   6   3 4008.72 473.965  77
   5   6   3 4697.33 531.662  65
  -5   6  -4 14298.0 921.581  50
  -5   6  -4 15247.1 946.071  83
   5   6   4 14995.3 873.143  77
   5   6   4 14918.7 916.597  65
  -5   6  -5 4818.39 417.720  76
  -5   6  -5 5233.29 491.223  83
   5   6   5 4819.17 445.195  77
  -5   6  -6 19899.4 856.091  50
   5   6   6 18609.4 841.207  65
   5   6   6 18266.1 806.284  77
   5   7  -7 339.265 122.102  72
   5   7  -7 9585.32 595.355  61
  -5   7   6 8771.67 570.001  63
  -5   7   6 8553.71 620.702  33
   5   7  -6 8166.72 606.404  72
  -5   7   6 8894.13 632.391  37
  -5   7   5 14728.8 840.558  63
   5   7  -5 13516.6 883.533  61
  -5   7   5 12517.9 805.656  33
  -5   7   5 14472.2 849.064  37
   5   7  -5 16182.1 934.591  72
  -5   7   4 19619.0 1031.18  37
   5   7  -4 20581.9 1130.84  61
  -5   7   3 4658.76 483.335  37
   5   7  -3 4970.96 543.841  61
  -5   7   2 1217.69 250.393  37
  -5   7   2 1425.36 276.049  33
   5   7  -2 1389.56 288.129  73
  -5   7   2 961.271 212.110  50
   5   7  -1 4234.02 466.091  61
  -5   7   1 4936.51 473.305  37
  -5   7   1 4788.05 494.639  33
  -5   7   1 4642.28 481.191  50
   5   7  -1 4829.07 521.317  73
   5   7   0 24763.5 1201.29  73
  -5   7   0 25522.3 1190.18  33
  -5   7   0 27032.7 1242.20  63
   5   7   0 25766.4 1115.71  61
  -5   7   0 24385.5 1182.20  50
  -5   7   0 23191.9 1073.55  83
   5   7   1 18295.9 938.561  73
  -5   7  -1 18336.5 954.501  33
  -5   7  -1 19922.9 971.433  63
  -5   7  -1 18399.2 993.545  50
  -5   7  -1 17781.6 920.563  83
   5   7   2 21322.6 893.601  73
   5   7   2 19421.7 907.534  65
  -5   7  -2 21170.0 961.639  33
  -5   7  -2 23031.8 1065.92  50
  -5   7  -2 19627.6 952.472  83
  -5   7  -3 42335.3 1535.72  50
   5   7   3 43174.2 1460.65  65
  -5   7  -3 43539.4 1502.87  83
   5   7   4 1390.77 195.306  65
  -5   7  -4 1320.74 207.561  50
  -5   7  -4 1612.42 220.028  83
   5   8  -5 51415.0 1532.01  61
   5   8  -4 996.704 173.939  72
  -5   8   4 776.069 145.382  63
   5   8  -4 974.867 170.287  61
   5   8  -3 28777.3 1073.42  61
  -5   8   3 28856.1 1060.49  63
   5   8  -2 2085.04 243.199  61
  -5   8   2 2195.60 263.047  63
   5   8  -1 5512.78 356.692  61
  -5   8   0 13298.5 614.434  63
   6  -7  -5 3071.15 303.270  60
  -6  -7   5 3583.59 323.813  51
   6  -7  -4 37941.0 1253.26  59
  -6  -7   4 38923.6 1315.38  51
   6  -7  -3 7155.27 480.179  59
  -6  -7   3 6579.56 419.630  66
  -6  -7   3 7002.52 468.949  51
   6  -7  -2 6611.33 467.696  59
  -6  -7   2 6023.58 408.231  66
  -6  -7   2 6182.29 431.846  51
   6  -7  -1 14172.8 712.157  59
  -6  -7   1 14135.2 648.310  66
  -6  -7   1 14018.0 643.355  51
   6  -7   0 4265.67 354.856  59
  -6  -7   0 3376.30 284.311  66
  -6  -7   0 3671.35 278.076  51
  -6  -6   9 16120.4 684.875  51
  -6  -6   8 4710.80 411.771  51
   6  -6  -7 8951.11 541.020  64
   6  -6  -7 9849.79 605.711  60
  -6  -6   6 23230.3 1145.80  51
  -6  -6   6 23703.3 1067.86  31
   6  -6  -6 22505.9 996.000  64
  -6  -6   5 5643.29 490.377  31
  -6  -6   5 5890.86 564.643  51
  -6  -6   5 5562.42 525.030   6
  -6  -6   5 4339.81 412.673  66
   6  -6  -5 4915.80 460.270  59
   6  -6  -5 5052.36 466.803  64
  -6  -6   4 65632.7 2090.46  31
  -6  -6   4 70436.7 2326.86   6
  -6  -6   4 68342.3 2143.21  66
   6  -6  -4 67422.0 2205.60  59
   6  -6  -4 65986.9 2144.84  64
  -6  -6   3 4188.12 478.648   6
   6  -6  -3 2583.16 383.022  59
  -6  -6   3 3569.12 405.314  66
   6  -6  -3 3795.54 423.577  64
  -6  -6   2 46746.5 1722.48  66
   6  -6  -2 50438.3 1887.27  59
   6  -6  -2 46553.3 1739.10  64
  -6  -6   1 399.815 170.759  51
  -6  -6   1 536.136 173.473   6
   6  -6  -1 472.396 171.569  59
  -6  -6   1 390.556 146.889  66
   6  -6  -1 286.384 137.905  64
  -6  -6   0 30140.3 1270.07  66
  -6  -6   0 30046.2 1309.97  51
  -6  -6   0 30439.2 1266.51   6
   6  -6   0 30168.0 1375.10  59
   6  -6   0 30568.7 1274.06  64
   6  -6   1 19980.2 1053.92  59
   6  -6   1 21485.4 981.449  64
  -6  -6  -1 20061.5 955.829  66
  -6  -6  -1 19886.0 972.890  51
   6  -6   2 26684.8 1061.26  64
  -6  -6  -2 27875.1 1109.25  66
  -6  -6  -2 27363.4 1090.82  51
   6  -6   3 5661.40 384.610  64
  -6  -6  -3 5950.80 414.774  66
  -6  -6  -3 5867.71 396.089  51
   6  -6   4 34126.4 1138.30  59
   6  -5 -10 19458.1 809.475  64
  -6  -5   9 16166.3 870.846  31
  -6  -5   9 15722.5 873.588  36
   6  -5  -9 16274.1 832.260  64
  -6  -5   8 37499.3 1541.02  31
   6  -5  -8 36182.8 1492.26  64
  -6  -5   8 39183.1 1536.84  42
   6  -5  -7 9603.25 740.387  64
  -6  -5   7 9291.82 721.428  42
  -6  -5   7 10328.2 732.513   6
   6  -5  -6 32232.7 1514.99  64
  -6  -5   6 31338.5 1456.46  31
  -6  -5   6 33802.5 1511.28  42
  -6  -5   5 8870.51 681.545  66
   6  -5  -5 9391.34 740.284  59
   6  -5  -5 9918.23 810.685  64
  -6  -5   5 9489.03 746.983  31
  -6  -5   4 32380.9 1470.76  66
   6  -5  -4 35876.2 1612.42  59
   6  -5  -4 36674.0 1690.24  64
  -6  -5   4 33852.0 1499.32  31
  -6  -5   4 34858.3 1694.49  51
  -6  -5   4 33668.2 1549.01  42
  -6  -5   3 15952.7 1009.97  66
   6  -5  -3 18489.8 1139.71  59
   6  -5  -3 18683.8 1164.73  64
  -6  -5   3 16003.9 949.865  31
  -6  -5   3 18164.8 1175.51  51
  -6  -5   3 17653.6 1047.17  42
  -6  -5   2 7720.30 736.028  51
  -6  -5   2 7006.97 627.359  66
   6  -5  -2 7929.00 735.333  59
   6  -5  -2 8137.73 734.430  64
   6  -5  -1 1884.92 375.760  59
  -6  -5   1 1692.76 318.367  66
   6  -5   0 1973.67 390.626  59
  -6  -5   0 2096.73 346.235  66
   6  -5   0 2810.31 453.794  82
   6  -5   1 20303.7 1209.52  59
  -6  -5  -1 20634.8 1103.80  66
   6  -5   1 19532.0 1173.00  82
   6  -5   2 580.969 208.414  82
   6  -5   2 1176.93 291.656  59
  -6  -5  -2 902.130 225.877  66
  -6  -5  -2 1204.43 268.008  51
  -6  -5  -2 609.203 168.348   6
  -6  -5  -3 9254.87 650.739  66
  -6  -5  -3 8139.52 633.881  51
   6  -5   3 8133.20 630.785  82
   6  -5   3 8261.00 688.868  59
  -6  -5  -4 34492.9 1272.42  66
  -6  -5  -4 33020.5 1268.18  51
  -6  -5  -5 1468.49 203.735  66
  -6  -5  -5 1269.53 187.470  51
   6  -4 -11 6795.22 501.497  64
  -6  -4  10 257.039 135.872  31
  -6  -4  10 440.219 157.474  42
   6  -4 -10 441.710 152.228  64
  -6  -4   9 19529.7 1077.71  31
  -6  -4   9 17562.1 996.815  42
   6  -4  -9 17897.2 1047.26  64
  -6  -4   8 8440.97 734.845  31
   6  -4  -8 8201.00 642.010  54
  -6  -4   8 7964.39 703.478  42
  -6  -4   8 8169.29 672.406  46
   6  -4  -8 8403.54 751.494  64
   6  -4  -7 1442.01 288.255  54
  -6  -4   7 1809.59 359.093  42
  -6  -4   7 1635.95 338.350  46
   6  -4  -7 2155.79 407.400  64
  -6  -4   6 734.641 219.456  29
   6  -4  -6 484.251 233.197  64
   6  -4  -6 616.204 210.413  54
  -6  -4   6 916.963 276.246  42
  -6  -4   6 786.211 250.393  46
   6  -4  -5 40303.1 1974.50  75
  -6  -4   5 46845.9 1900.23  29
   6  -4  -5 38102.2 1715.41  59
   6  -4  -5 49484.4 2130.14  64
   6  -4  -5 44150.3 1768.75  54
  -6  -4   5 45166.0 1938.00  46
   6  -4  -4 23614.1 1416.36  75
  -6  -4   4 25146.4 1312.72  31
  -6  -4   4 21460.8 1253.53  29
   6  -4  -4 21667.2 1265.32  59
   6  -4  -4 23686.1 1440.52  64
   6  -4  -4 22788.8 1196.51  54
  -6  -4   4 22379.6 1285.27  42
  -6  -4   4 23741.2 1340.15  46
   6  -4  -3 27974.9 1528.72  75
  -6  -4   3 27759.5 1358.56  31
  -6  -4   3 26664.9 1419.82  29
  -6  -4   3 26292.2 1343.68  66
   6  -4  -3 27313.6 1467.56  59
   6  -4  -3 29320.8 1614.59  64
  -6  -4   3 29443.9 1605.90  51
  -6  -4   3 26643.9 1389.32  42
  -6  -4   3 25730.5 1412.36  46
   6  -4  -2 128978. 4190.95  82
   6  -4  -2 127072. 3940.70  75
  -6  -4   2 123211. 3584.00  31
  -6  -4   2 127345. 3766.24  66
   6  -4  -2 129187. 3996.35  59
  -6  -4   2 120615. 4028.50  51
  -6  -4   2 128531. 3771.28  42
  -6  -4   2 121586. 3826.91  46
   6  -4  -1 12412.0 1051.74  82
   6  -4  -1 12520.4 999.772  59
  -6  -4   1 10479.7 831.330  66
   6  -4  -1 10866.5 872.090  75
  -6  -4   1 10528.8 930.726  51
  -6  -4   1 11146.3 813.582  42
  -6  -4   1 12677.8 922.978  46
   6  -4   0 50030.2 1961.71  75
  -6  -4   0 48423.3 1967.03  66
  -6  -4   0 48611.8 2141.93  51
   6  -4   0 49508.7 2242.94  82
   6  -4   0 48898.7 2155.28  59
  -6  -4  -1 5999.55 619.331  66
  -6  -4  -1 5414.51 636.344  51
   6  -4   1 5779.81 692.772  82
   6  -4   1 6813.95 730.856  59
  -6  -4  -2 10459.2 808.606  66
   6  -4   2 12342.4 976.659  82
   6  -4   2 11589.3 939.856  59
  -6  -4  -3 51056.2 1938.28  66
   6  -4   3 52090.5 2110.50  82
   6  -4   3 50186.9 2108.54  59
  -6  -4  -4 42.8671 91.4354  51
   6  -4   4-45.0256 107.374  82
   6  -4   4 48.9399 127.846  59
  -6  -4  -4 153.364 108.185  66
  -6  -4  -5 8438.03 593.531  66
   6  -4   5 8368.32 667.227  59
   6  -4   5 7339.57 583.640  82
  -6  -4  -5 8056.55 615.239  51
   6  -4   6 5615.97 412.835  82
  -6  -4  -6 6828.38 478.723  51
   6  -3 -12 5247.42 437.414  64
  -6  -3  11 10172.3 705.237  31
   6  -3 -11 10611.7 726.222  64
   6  -3 -10 21102.1 1121.98  54
  -6  -3  10 21683.4 1129.65  42
   6  -3 -10 20920.1 1173.34  64
   6  -3  -9 489.703 196.028  54
  -6  -3   9 1178.83 287.330  42
  -6  -3   9 920.530 236.636  46
   6  -3  -9 652.423 232.449  64
  -6  -3   8 56882.7 2101.48  29
   6  -3  -8 62206.0 2346.42  54
  -6  -3   8 59736.0 2250.95  46
   6  -3  -8 60238.4 2420.00  64
  -6  -3   7 1213.96 294.398  29
   6  -3  -7 1534.59 368.376  64
   6  -3  -7 1573.68 340.316  54
  -6  -3   7 1361.28 319.401  46
  -6  -3   6 124300. 3852.54  29
  -6  -3   6 128940. 3988.39  46
   6  -3  -6 128713. 3980.67  54
   6  -3  -6 130433. 4201.79  75
  -6  -3   5 6179.59 692.686   8
   6  -3  -5 5768.59 742.195  85
   6  -3  -5 5010.89 675.748  75
  -6  -3   5 7689.76 728.966  29
   6  -3  -5 7475.17 739.887  54
  -6  -3   5 5805.08 653.689  46
  -6  -3   4 22032.0 1335.42   8
   6  -3  -4 23571.2 1503.60  85
   6  -3  -4 24941.0 1531.90  82
   6  -3  -4 24371.3 1494.58  75
  -6  -3   4 24787.8 1366.04  29
   6  -3  -4 21725.1 1239.20  59
   6  -3  -4 23367.4 1355.31  54
  -6  -3   4 23386.7 1361.96  46
  -6  -3   3 34896.7 1663.16   8
   6  -3  -3 32553.5 1793.65  85
   6  -3  -3 31598.2 1810.74  82
   6  -3  -3 32610.9 1763.76  75
  -6  -3   3 34842.6 1670.45  29
   6  -3  -3 30828.5 1575.58  59
  -6  -3   3 33120.6 1754.84  51
   6  -3  -3 32956.8 1643.42  54
  -6  -3   3 34735.5 1620.72  42
   6  -3  -2 41288.0 1962.74  75
  -6  -3   2 38884.5 1797.28  29
   6  -3  -2 37822.9 1801.56  59
  -6  -3   2 36777.6 1886.11  51
   6  -3  -2 39227.4 1802.78  54
  -6  -3   2 35715.0 1644.51  42
  -6  -3   2 39282.7 1791.81  46
   6  -3  -1 3013.76 496.824  75
  -6  -3   1 3921.53 473.548  42
  -6  -3   1 2854.12 438.382  46
   6  -3  -1 3907.30 552.903  59
  -6  -3   1 3087.04 514.557  51
  -6  -3   1 3111.84 454.573  16
  -6  -3   0 28809.6 1496.12  16
   6  -3   0 29119.6 1725.40  82
   6  -3   0 29567.6 1612.63  59
   6  -3   0 29968.5 1573.24  75
  -6  -3   0 29600.7 1444.65  66
  -6  -3   0 29342.8 1627.12  51
  -6  -3   0 29126.8 1320.67  42
  -6  -3   0 31539.2 1501.69  46
   6  -3   1 8997.91 906.699  82
  -6  -3  -1 9713.65 789.129  58
   6  -3   1 8111.42 753.832  75
  -6  -3  -1 8478.90 740.148  66
  -6  -3  -1 9372.99 865.725  51
  -6  -3  -1 9006.12 733.206  46
   6  -3   1 7834.02 702.358  38
   6  -3   2 6030.78 722.321  82
   6  -3   2 5521.26 673.825  62
  -6  -3  -2 5534.47 565.836  58
   6  -3   2 5646.16 583.718  75
  -6  -3  -2 6503.96 641.804  66
  -6  -3  -2 5770.29 668.198  51
   6  -3   2 5241.17 568.913  38
   6  -3   3 13825.3 1079.06  82
   6  -3   3 14431.3 1076.73  62
  -6  -3  -3 14856.1 963.652  66
  -6  -3  -3 13664.4 1021.05  51
   6  -3   3 12550.7 889.090  38
   6  -3   4 32966.6 1669.92  82
   6  -3   4 34373.8 1692.65  62
  -6  -3  -4 36496.2 1558.93  66
  -6  -3  -4 36357.4 1674.31  51
   6  -3   4 35162.6 1528.69  38
   6  -3   5 12466.0 894.015  62
  -6  -3  -5 11073.9 756.354  66
   6  -3   5 11719.3 859.440  82
   6  -3   5 10428.9 733.570  38
  -6  -3  -6 7509.21 578.753  55
   6  -3   6 7719.17 618.218  82
   6  -3   6 7951.91 647.457  62
  -6  -3  -7 14150.5 684.911  55
  -6  -3  -7 15440.4 754.772  51
   6  -2 -12 9144.42 643.747  64
   6  -2 -11 26666.7 1287.49  64
  -6  -2  11 25858.5 1192.83  42
   6  -2 -11 23599.6 1227.21  54
   6  -2 -10 3447.49 488.574  64
   6  -2 -10 4024.01 522.584  54
  -6  -2  10 3653.14 429.671  46
  -6  -2   9 21479.3 1134.46  29
   6  -2  -9 21536.9 1311.83  54
   6  -2  -9 19935.5 1316.71  78
   6  -2  -9 19920.5 1264.66  64
  -6  -2   8 29333.1 1439.08  29
   6  -2  -8 27082.7 1553.08  64
   6  -2  -8 29072.0 1583.85  54
   6  -2  -8 28323.4 1623.00  85
   6  -2  -8 27906.1 1609.58  78
   6  -2  -7 23602.1 1516.65  85
   6  -2  -7 25338.3 1543.29  78
   6  -2  -7 27195.2 1590.40  75
  -6  -2   7 26604.1 1403.66  29
   6  -2  -7 23836.6 1446.27  54
  -6  -2   7 25474.0 1479.17   8
   6  -2  -7 23503.7 1469.51  64
   6  -2  -6 46541.1 2164.44  64
   6  -2  -6 46001.0 2099.96  54
  -6  -2   6 44429.4 1952.44  29
  -6  -2   5 35835.4 1779.49   8
   6  -2  -5 40934.3 2048.51  85
   6  -2  -5 37969.2 1962.13  75
  -6  -2   5 37848.0 1770.61  29
   6  -2  -5 39229.8 1968.87  64
   6  -2  -5 39255.0 1922.71  54
  -6  -2   5 37983.7 1625.06  47
  -6  -2   4 75861.9 2646.87  16
  -6  -2   4 77300.5 2814.35   8
  -6  -2   4 83491.4 3040.35   1
   6  -2  -4 71370.6 2968.26  85
   6  -2  -4 76736.9 2989.35  82
   6  -2  -4 78162.7 3054.65  75
  -6  -2   4 82067.8 2841.91  29
   6  -2  -4 81069.2 3048.14  64
  -6  -2   4 81303.1 2913.60  51
   6  -2  -4 81720.8 3011.03  54
  -6  -2   4 73693.7 2616.48  47
  -6  -2   3 1929.52 369.079   8
  -6  -2   3 2458.00 456.129   1
   6  -2  -3 2420.07 474.554  85
   6  -2  -3 2829.09 519.284  82
   6  -2  -3 3037.88 524.153  75
  -6  -2   3 2392.89 413.908  29
  -6  -2   3 2434.80 449.153  51
  -6  -2   3 1677.25 341.829  16
  -6  -2   2 76427.4 2689.76   8
   6  -2  -2 82458.0 3026.46  85
   6  -2  -2 76803.1 3056.18  82
   6  -2  -2 77328.6 3035.07  75
   6  -2  -2 81788.4 2772.90  59
  -6  -2   2 78201.4 2934.53  51
  -6  -2   2 79362.1 2779.57  16
  -6  -2   1 2206.47 400.916  16
  -6  -2   1 1917.97 332.634   8
  -6  -2   1 1250.77 335.779   1
   6  -2  -1 2076.31 408.605  85
   6  -2  -1 2044.52 449.053  82
   6  -2  -1 2174.36 442.528  75
  -6  -2   1 2020.09 383.823  29
   6  -2  -1 2078.56 390.246  59
  -6  -2   1 1600.24 382.100  51
  -6  -2   1 1657.43 304.004  42
  -6  -2   1 1545.58 340.964  46
   6  -2  -1 2755.43 441.550  38
  -6  -2   0 51767.3 2180.17  16
   6  -2   0 49979.7 2100.48  85
   6  -2   0 54398.4 2434.68  82
   6  -2   0 55698.9 2344.42  75
  -6  -2   0 52153.7 2109.60  29
  -6  -2   0 50784.9 2259.05  51
  -6  -2   0 52564.0 1874.98  42
  -6  -2   0 50632.3 2022.08  46
   6  -2   0 50636.0 2145.77  38
  -6  -2  -1 34801.5 1525.34  46
   6  -2   1 35708.3 1722.41  38
   6  -2   1 33864.2 1726.52  62
  -6  -2  -1 30005.2 1615.91  58
  -6  -2  -1 33788.4 1598.05  29
  -6  -2  -1 35702.2 1793.04  51
  -6  -2  -1 31904.8 1640.82  16
  -6  -2  -2 10686.2 891.465  58
   6  -2   2 12673.8 1023.68  62
  -6  -2  -2 14041.0 1063.29  51
   6  -2   2 14274.9 1046.64  38
  -6  -2  -2 11298.2 773.051  46
   6  -2   3 8263.59 868.473  82
  -6  -2  -3 7910.60 705.210  66
   6  -2   3 8541.96 830.570  62
  -6  -2  -3 7931.61 730.493  58
  -6  -2  -3 8793.24 831.798  51
   6  -2   3 8709.33 809.893  38
   6  -2   4 3805.65 570.218  82
  -6  -2  -4 3641.34 469.232  66
   6  -2   4 4801.32 610.498  62
  -6  -2  -4 4288.77 498.720  58
  -6  -2  -4 4931.98 524.771  30
  -6  -2  -4 4585.90 583.717  51
   6  -2   4 4348.36 561.805  38
   6  -2   5 45958.6 2022.25  82
   6  -2   5 45704.8 1982.04  62
  -6  -2  -5 46699.9 1751.44  30
  -6  -2  -5 47858.5 1978.57  51
   6  -2   5 48219.0 1965.19  38
   6  -2   6 20293.4 1145.14  82
   6  -2   6 20670.0 1143.24  62
  -6  -2  -6 21129.6 1130.56  51
   6  -2   6 20628.8 1101.33  38
  -6  -2  -7 67295.6 2155.39  55
  -6  -2  -7 67513.5 2169.06  51
   6  -2   7 69228.9 2204.66  82
   6  -2   7 64602.9 2176.45  62
  -6  -2  -8 9542.08 532.645  55
   6  -2   8 9324.40 517.977  82
   6  -2   8 9431.91 552.726  62
   6  -1 -12 2656.54 382.264  78
   6  -1 -12 3105.88 378.866  64
   6  -1 -11 5511.74 591.528  54
   6  -1 -11 5101.69 542.867  64
  -6  -1  10 23128.7 1166.74  29
   6  -1 -10 23888.1 1369.55  54
   6  -1 -10 23721.0 1404.98  78
   6  -1 -10 22379.3 1291.88  64
   6  -1  -9 3577.47 543.671  54
   6  -1  -9 3719.60 540.305  85
   6  -1  -9 2852.69 524.094  78
   6  -1  -9 2693.34 459.369  64
   6  -1  -8 46012.0 2058.37  75
   6  -1  -8 40403.0 1955.69  64
   6  -1  -8 42545.5 2047.88  54
   6  -1  -8 42305.5 2058.61  85
   6  -1  -8 45360.6 2139.28  78
   6  -1  -7 4689.55 668.180  85
   6  -1  -7 4532.51 646.318  78
   6  -1  -7 4456.33 630.473  75
  -6  -1   7 3860.44 571.048   1
  -6  -1   7 4839.01 623.023   8
   6  -1  -7 4725.00 621.019  64
   6  -1  -7 5588.57 696.020  54
  -6  -1   7 5795.09 571.074  47
   6  -1  -6 107266. 3655.21  78
   6  -1  -6 104015. 3685.84  75
  -6  -1   6 106976. 3625.50   1
   6  -1  -6 109572. 3650.68  64
   6  -1  -6 103693. 3671.05  54
  -6  -1   6 105589. 3293.94  47
  -6  -1   5 8258.35 740.575  16
   6  -1  -5 9959.03 955.894  85
   6  -1  -5 9183.52 844.641  82
   6  -1  -5 9830.45 892.193  78
   6  -1  -5 9465.26 933.896  75
   6  -1  -5 9442.89 885.965  64
  -6  -1   5 10393.8 822.786  47
   6  -1  -5 9474.23 905.529  54
  -6  -1   5 8095.08 839.028   1
  -6  -1   5 9575.26 854.020   8
  -6  -1   4 84724.3 2940.52  16
   6  -1  -4 88697.4 3297.72  85
   6  -1  -4 90146.4 3184.16  82
   6  -1  -4 87494.0 3077.36  78
  -6  -1   4 87812.3 3210.64   1
  -6  -1   4 84142.0 3001.30   8
   6  -1  -4 92928.4 3255.75  64
  -6  -1   4 92105.3 3040.60  51
  -6  -1   4 92435.4 3017.32  47
  -6  -1   3 34856.9 1672.46  16
   6  -1  -3 36890.9 1898.21  85
   6  -1  -3 38151.6 1895.49  82
   6  -1  -3 40618.1 2012.54  75
  -6  -1   3 37253.0 1865.47   1
  -6  -1   3 37081.4 1698.61   8
  -6  -1   3 37653.8 1755.60  51
  -6  -1   3 35107.4 1682.14  47
  -6  -1   2 30010.9 1551.68  16
   6  -1  -2 33527.2 1742.02  85
   6  -1  -2 35731.8 1827.00  82
  -6  -1   2 32672.3 1590.20  29
  -6  -1   2 30532.2 1481.13   8
  -6  -1   2 33412.2 1660.30  51
  -6  -1   2 31744.8 1586.38  47
  -6  -1   1 7554.27 732.477  16
   6  -1  -1 5778.90 673.579  85
   6  -1  -1 6131.70 742.721  82
  -6  -1   1 6575.44 661.619  29
  -6  -1   1 5554.55 557.888   8
  -6  -1   1 6502.78 715.914   1
   6  -1  -1 5946.47 728.980  65
  -6  -1   1 6079.17 684.467  51
  -6  -1   1 5029.92 603.458  47
   6  -1  -1 6074.10 693.136  38
  -6  -1   0 7028.43 728.161  16
   6  -1   0 6753.88 708.555  85
   6  -1   0 7769.55 846.827  82
  -6  -1   0 7359.65 697.952  29
  -6  -1   0 7540.02 769.403   1
   6  -1   0 7889.52 744.128  62
   6  -1   0 7473.78 804.718  65
  -6  -1   0 6898.81 735.434  51
  -6  -1   0 7546.26 674.336  46
   6  -1   0 7404.43 783.479  38
  -6  -1  -1 14456.2 1065.78  16
   6  -1   1 13873.1 1143.32  82
  -6  -1  -1 14796.1 975.750  29
   6  -1   1 12955.6 991.563  62
   6  -1   1 12499.7 1038.62  65
  -6  -1  -1 15109.8 1122.27  58
  -6  -1  -1 14705.2 908.524  46
   6  -1   1 14864.4 1127.77  38
  -6  -1  -1 16244.1 1140.59  51
  -6  -1  -1 14112.2 1018.96   1
  -6  -1  -2 39709.0 1863.25  16
  -6  -1  -2 39763.9 1765.80   1
   6  -1   2 39041.1 2006.81  82
   6  -1   2 40416.7 1882.89  62
  -6  -1  -2 37052.5 1868.35  58
   6  -1   2 38898.8 1885.08  65
   6  -1   2 38222.2 1942.98  38
  -6  -1  -2 43499.0 1983.47  51
   6  -1   3 12145.3 983.883  62
   6  -1   3 10823.0 898.012  65
  -6  -1  -3 11706.9 957.566  58
   6  -1   3 12775.5 1050.60  38
  -6  -1  -3 12073.2 988.423  51
   6  -1   4 4775.00 600.371  62
  -6  -1  -4 3990.05 538.473  58
  -6  -1  -4 4513.13 583.798  51
   6  -1   4 3844.16 566.332  38
   6  -1   5 23175.4 1391.08  82
   6  -1   5 24977.7 1372.02  62
  -6  -1  -5 22566.1 1228.90  58
  -6  -1  -5 23155.7 1224.24  30
  -6  -1  -5 23369.4 1339.04  51
   6  -1   5 24222.3 1395.48  38
   6  -1   6 5386.84 600.724  82
   6  -1   6 4206.48 514.384  62
  -6  -1  -6 4846.97 497.410  30
  -6  -1  -6 4213.19 514.620  51
   6  -1   6 4622.88 554.285  38
   6  -1   7 16930.5 988.979  82
   6  -1   7 19087.3 1007.78  62
  -6  -1  -7 16477.0 860.989  30
  -6  -1  -7 17653.3 976.787  51
  -6  -1  -7 17013.6 959.091  55
   6  -1   7 17554.4 974.638  38
   6  -1   8 4922.50 416.389  62
   6  -1   8 4989.44 429.964  82
  -6  -1  -8 5607.88 442.884  55
   6   0 -13 1372.22 233.379  78
   6   0 -12 3771.82 427.323  54
   6   0 -11 29741.3 1353.13  64
   6   0 -11 30639.4 1535.51  78
   6   0 -11 28229.3 1416.35  54
   6   0 -10 3667.45 484.523  64
   6   0 -10 3850.50 551.919  78
   6   0 -10 3983.48 509.299  85
   6   0 -10 3699.32 539.734  54
   6   0  -9 10267.7 849.709  64
   6   0  -9 11013.7 946.235  54
   6   0  -9 9050.40 886.077  78
   6   0  -9 9816.14 874.730  85
   6   0  -8 13957.4 1015.67  64
   6   0  -8 12212.2 1045.09  78
   6   0  -8 11400.2 994.275  85
  -6   0   8 11368.0 845.301  47
   6   0  -8 11654.8 948.817  75
   6   0  -7 15518.7 1128.30  75
   6   0  -7 16127.8 1194.91  78
   6   0  -7 16620.2 1233.67  85
   6   0  -7 14711.9 1068.21  64
  -6   0   7 14213.7 1084.58   1
  -6   0   7 14681.9 1000.22  47
   6   0  -6 56209.9 2442.33  75
   6   0  -6 58544.4 2454.32  78
   6   0  -6 63188.3 2430.98  64
  -6   0   6 58955.1 2449.04   1
  -6   0   6 57765.6 2402.98   8
  -6   0   6 58658.6 2275.16  47
   6   0  -5 413.734 232.598  75
   6   0  -5 213.273 185.774  85
   6   0  -5 180.244 157.027  78
   6   0  -5 653.308 245.356  64
  -6   0   5 379.000 182.659  47
  -6   0   5 58.6589 125.213   8
  -6   0   5 261.353 170.752   1
  -6   0   4 46631.0 2093.20   1
  -6   0   4 40898.9 1870.21   8
   6   0  -4 42465.4 2112.49  75
   6   0  -4 46312.7 2021.15  72
   6   0  -4 47045.2 2189.54  85
   6   0  -4 41414.5 1872.75  82
   6   0  -4 42407.0 1881.02  78
   6   0  -4 44647.9 1983.41  64
  -6   0   4 41643.9 1882.26  16
  -6   0   4 44191.6 1917.21  47
  -6   0   3 15758.5 1134.45   1
  -6   0   3 13351.7 954.684   8
   6   0  -3 13986.3 1016.76  72
   6   0  -3 17252.2 1145.47  82
   6   0  -3 16415.7 1207.74  65
   6   0  -3 14663.7 1061.08  64
  -6   0   3 13898.1 1017.46  16
  -6   0   3 15204.2 1054.70  47
  -6   0   2 78891.9 2697.47   8
   6   0  -2 83815.2 3008.06  82
   6   0  -2 81050.0 2804.24  72
  -6   0   2 86561.1 2957.30  47
  -6   0   2 84067.5 2915.53  16
  -6   0   1 32421.9 1640.80  16
   6   0  -1 33697.4 1817.91  77
   6   0  -1 34671.2 1782.79  82
  -6   0   1 32020.1 1548.04  29
  -6   0   1 32909.0 1680.69   1
  -6   0   1 32121.3 1424.34   8
   6   0  -1 34326.2 1834.04  65
  -6   0   1 33503.4 1595.08  51
   6   0  -1 37003.7 1874.48  38
  -6   0   1 35413.7 1706.74  47
  -6   0   0 127927. 3973.51  16
   6   0   0 131063. 3972.29  85
   6   0   0 126562. 4166.24  77
   6   0   0 127343. 4130.78  82
  -6   0   0 120521. 3703.43  29
  -6   0   0 116147. 3858.90   1
   6   0   0 130394. 4200.51  65
  -6   0   0 122461. 3845.11  51
  -6   0   0 134399. 4026.78  47
   6   0   0 124836. 4172.48  38
   6   0   1 22587.3 1431.02  77
   6   0   1 21963.1 1420.19  82
  -6   0  -1 21382.8 1154.35  29
  -6   0  -1 21464.7 1278.11   1
   6   0   1 20826.7 1374.62  65
  -6   0  -1 23901.1 1357.75  51
  -6   0  -1 19084.2 1033.18  46
   6   0   1 21615.6 1424.26  38
  -6   0  -2 54733.1 2286.57  16
  -6   0  -2 54328.0 2162.85   1
   6   0   2 54465.6 2396.84  77
   6   0   2 55461.4 2468.88  82
  -6   0  -2 55817.0 2424.11  58
   6   0   2 60711.6 2303.33  62
   6   0   2 59134.9 2448.23  65
  -6   0  -2 55272.2 1997.95  29
  -6   0  -2 59164.6 2353.23  51
   6   0   2 56986.1 2514.33  38
   6   0   3 43336.9 1933.43  62
   6   0   3 39103.2 1929.74  65
  -6   0  -3 43084.1 2043.11  58
   6   0   3 44499.3 2042.24  77
  -6   0  -3 43090.0 1851.95  83
   6   0   3 43976.3 2126.34  82
  -6   0  -3 48871.9 2075.58  51
  -6   0  -4 2556.21 457.059  58
   6   0   4 2372.02 420.236  62
   6   0   4 2015.41 379.740  65
  -6   0  -4 2691.47 456.979  51
  -6   0  -4 2426.70 367.270  83
   6   0   4 2206.37 442.343  82
   6   0   4 2506.64 445.087  77
   6   0   5 27698.3 1343.61  65
  -6   0  -5 29499.7 1500.44  58
   6   0   5 24482.3 1385.49  62
  -6   0  -5 29653.4 1431.38  30
  -6   0  -5 28087.7 1481.80  51
   6   0   5 27636.7 1390.87  77
   6   0   5 28788.0 1576.10  82
   6   0   6 1171.43 274.791  62
  -6   0  -6 1647.52 309.820  30
  -6   0  -6 969.573 269.751  51
   6   0   6 994.503 274.553  38
   6   0   7 28404.4 1271.75  62
  -6   0  -7 26478.9 1197.77  30
  -6   0  -7 29504.2 1324.46  51
  -6   0  -7 30371.0 1334.07  55
   6   0   7 28218.3 1320.59  38
   6   0   8 1382.77 220.433  62
   6   0   8 1291.08 230.549  82
  -6   0  -8 1547.13 239.349  55
   6   1 -12 5049.15 530.523  78
   6   1 -11 3988.17 527.143  78
   6   1 -11 4390.46 498.896  54
   6   1 -10 22478.7 1328.08  78
   6   1 -10 23555.1 1271.93  54
   6   1  -9 2316.20 371.134  64
   6   1  -9 3745.97 534.315  54
   6   1  -9 3311.25 536.973  78
   6   1  -9 3537.00 512.957  85
   6   1  -8 45167.9 1872.64  64
   6   1  -8 47605.7 2155.56  85
   6   1  -8 46076.3 2164.71  78
   6   1  -8 42333.5 2025.94  54
   6   1  -8 45981.9 1889.54  75
   6   1  -7 5611.48 644.272  75
   6   1  -7 5367.30 680.133  72
   6   1  -7 6992.46 793.182  85
   6   1  -7 6468.48 744.517  78
   6   1  -7 5646.99 607.263  64
   6   1  -7 4908.28 653.591  54
  -6   1   7 4617.49 607.429   1
  -6   1   7 5106.98 622.599   9
   6   1  -6 110648. 3629.73  75
   6   1  -6 110371. 3721.52  72
   6   1  -6 109185. 3627.92  78
   6   1  -6 106167. 3375.34  64
   6   1  -6 108717. 3707.96  54
  -6   1   6 109810. 3642.43   1
  -6   1   6 107750. 3544.40   9
  -6   1   6 101026. 3552.65   8
  -6   1   5 12141.5 961.813   9
  -6   1   5 12807.9 991.865   8
   6   1  -5 14357.1 1032.72  78
   6   1  -5 15822.1 1154.54  75
   6   1  -5 12111.4 1020.29  72
   6   1  -5 11984.0 907.353  64
   6   1  -5 12703.1 1056.85  54
  -6   1   5 12286.2 852.122  37
   6   1  -4 89360.4 3159.50  65
   6   1  -4 84403.6 2853.42  64
  -6   1   4 85198.4 2774.36  37
  -6   1   4 79249.6 2870.65   8
   6   1  -4 81992.2 3031.07  72
   6   1  -3 33360.8 1688.28  72
  -6   1   3 30949.9 1487.38  37
   6   1  -3 34294.8 1795.16  65
  -6   1   3 33676.5 1666.35  47
  -6   1   3 32483.2 1540.80   8
  -6   1   2 32056.4 1469.54   8
   6   1  -2 34357.6 1816.02  77
   6   1  -2 32648.6 1596.86  82
   6   1  -2 33760.4 1640.56  72
  -6   1   2 33773.1 1565.93  37
   6   1  -2 33089.1 1787.16  65
  -6   1   2 30656.8 1612.05  16
  -6   1   2 34160.6 1679.20  47
  -6   1   1 12982.4 924.020  37
  -6   1   1 10692.7 761.683  33
   6   1  -1 11510.6 939.704  82
   6   1  -1 10793.2 837.245  72
  -6   1   0 8103.14 692.103  29
  -6   1   0 8802.20 699.884  33
   6   1   0 9516.00 909.327  65
  -6   1   0 7791.78 840.938  58
   6   1   0 8349.88 864.853  77
   6   1   0 9358.50 864.239  82
  -6   1   0 7555.64 758.979  16
  -6   1  -1 14296.4 1055.96  16
   6   1   1 14236.3 1140.59  77
   6   1   1 15701.2 1146.07  82
  -6   1  -1 13888.9 870.470  29
  -6   1  -1 14928.7 952.996  33
  -6   1  -1 14937.9 1159.86  58
   6   1   1 17777.1 1256.39  65
  -6   1  -1 16005.0 1094.56  47
  -6   1  -1 15364.5 1009.67  51
  -6   1  -1 14665.6 1032.79   1
  -6   1  -2 32348.0 1667.24  16
  -6   1  -2 34023.0 1617.29   1
   6   1   2 37487.8 1898.23  77
   6   1   2 37712.3 1869.30  82
  -6   1  -2 37178.9 1688.38  51
   6   1   2 35817.3 1935.98  38
   6   1   2 36054.8 1853.36  65
  -6   1  -2 34922.3 1874.34  58
   6   1   3 14988.6 1147.97  77
  -6   1  -3 15675.8 1086.29  83
   6   1   3 15196.0 1146.89  82
  -6   1  -3 16049.8 1076.45  51
  -6   1  -3 14545.4 961.922  50
   6   1   3 18073.6 1281.68  38
   6   1   3 15083.3 1007.63  62
   6   1   3 14964.4 1119.10  65
   6   1   4 6970.27 738.605  77
  -6   1  -4 5308.51 591.225  83
   6   1   4 7450.90 775.617  82
  -6   1  -4 5630.56 629.163  51
   6   1   4 5437.21 686.951  38
   6   1   4 6051.71 628.276  62
   6   1   4 5964.84 665.063  65
   6   1   5 26337.4 1390.65  77
   6   1   5 23779.1 1401.53  82
  -6   1  -5 25776.0 1366.65  51
   6   1   5 25456.1 1454.05  38
  -6   1  -5 26457.8 1455.63  58
   6   1   5 26744.1 1355.51  65
   6   1   5 26489.2 1339.46  62
   6   1   6 2374.96 364.334  77
   6   1   6 2328.79 410.580  82
   6   1   6 2615.59 376.314  62
   6   1   6 2123.10 317.961  65
  -6   1  -6 2395.63 379.696  51
   6   1   6 2370.91 391.050  38
   6   1   7 16033.4 752.178  77
   6   1   7 17941.4 941.954  82
  -6   1  -7 16712.5 852.644  55
   6   1   7 18200.9 937.898  38
  -6   1  -8 2946.41 289.823  55
   6   1   8 3003.96 328.971  82
   6   2 -12 6570.18 578.436  78
   6   2 -11 22662.4 1258.55  78
   6   2 -10 3860.99 472.529  54
   6   2 -10 3861.17 541.852  78
   6   2  -9 23798.7 1295.96  54
   6   2  -9 23544.1 1300.46  85
   6   2  -8 26780.0 1464.32  54
   6   2  -8 30651.7 1615.62  85
   6   2  -8 27939.3 1591.09  78
   6   2  -8 27488.4 1556.09  72
   6   2  -7 17774.7 1224.02  78
   6   2  -7 20476.1 1269.78  54
  -6   2   7 17124.7 1062.63  37
   6   2  -7 17097.5 1045.54  75
  -6   2   6 42567.4 2010.21   9
   6   2  -6 47813.9 1997.10  75
   6   2  -6 46460.7 2164.58  72
   6   2  -6 45130.0 2034.76  78
   6   2  -6 48906.3 2138.35  54
  -6   2   6 48848.6 1960.94  37
  -6   2   5 42816.7 1989.46   9
   6   2  -5 44890.6 1928.43  78
   6   2  -5 43647.7 1999.38  75
   6   2  -5 47542.7 2154.68  72
   6   2  -5 43579.1 2051.67  26
   6   2  -5 48511.0 2145.37  54
  -6   2   5 42397.6 1857.13  37
   6   2  -4 73939.1 2922.30  72
   6   2  -4 80023.0 3004.69  26
  -6   2   4 77681.6 2572.75  33
   6   2  -4 86098.9 3001.60  65
  -6   2   4 76524.0 2851.73   9
  -6   2   4 80615.5 2788.60  37
   6   2  -3 2883.49 507.498  65
  -6   2   3 3224.28 479.774  37
  -6   2   3 2862.57 400.223  33
   6   2  -3 2489.61 449.251  72
   6   2  -2 80503.5 2909.86  72
  -6   2   2 82781.7 2870.87  37
   6   2  -2 82356.5 3070.44  26
  -6   2   2 79599.4 2685.35  33
   6   2  -2 84983.6 3121.06  65
  -6   2   2 81781.0 3043.23  58
   6   2  -2 84331.9 3110.35  77
  -6   2   2 78254.2 2641.08   8
   6   2  -1 1938.84 425.888  77
   6   2  -1 2103.13 379.003  72
  -6   2   1 2013.01 388.303  37
  -6   2   1 1498.56 310.172  33
  -6   2   1 1597.37 377.483  58
   6   2  -1 2069.08 448.992  65
   6   2  -1 1644.61 379.683  26
  -6   2   1 1945.70 378.100  16
  -6   2   1 1708.76 366.413  47
   6   2   0 58512.8 2497.10  77
   6   2   0 56497.7 2205.13  82
   6   2   0 54701.5 2110.29  72
  -6   2   0 58282.2 2475.73  58
  -6   2   0 55533.8 2257.10  47
  -6   2   0 55107.4 2251.21  16
  -6   2   0 57070.0 2306.19  37
   6   2   0 54317.6 2342.52  26
  -6   2   0 57291.8 2159.58  33
  -6   2   0 56205.7 1993.99  29
  -6   2  -1 37058.0 1663.54  33
   6   2   1 37696.4 1752.68  82
   6   2   1 36795.9 1902.64  65
  -6   2  -1 37693.3 1928.13  58
   6   2   1 37063.7 1987.66  38
  -6   2  -1 34701.1 1678.49  47
  -6   2  -1 35028.9 1711.48  16
  -6   2  -2 13357.1 1053.07  83
   6   2   2 10158.2 958.996  77
   6   2   2 11606.0 943.837  82
   6   2   2 13089.8 1060.12  65
  -6   2  -2 12578.2 1056.52  58
  -6   2  -2 11745.7 877.614  33
  -6   2  -2 10764.1 916.986  50
   6   2   2 13235.3 1105.65  38
  -6   2  -3 6388.68 706.584  83
   6   2   3 5385.67 676.342  77
   6   2   3 7086.44 726.314  82
  -6   2  -3 4987.77 584.759  50
   6   2   3 7108.14 791.748  38
   6   2   3 5912.26 699.519  65
  -6   2  -3 6123.77 739.173  58
  -6   2  -4 4706.77 562.918  83
   6   2   4 3850.03 555.191  77
   6   2   4 3996.24 548.285  82
  -6   2  -4 4941.90 639.953  58
   6   2   4 4196.29 555.368  65
  -6   2  -4 3736.74 469.414  51
  -6   2  -4 4189.86 492.226  50
   6   2   4 4562.70 595.266  38
   6   2   5 45144.1 1878.17  65
  -6   2  -5 44538.8 1818.21  30
  -6   2  -5 49052.6 1853.73  83
   6   2   5 46559.6 1949.37  77
   6   2   5 44445.3 1908.62  82
   6   2   5 46599.7 1981.34  38
   6   2   6 19000.4 1051.56  77
   6   2   6 20282.7 1096.88  82
  -6   2  -6 19089.4 1008.56  30
   6   2   6 19976.0 1010.46  65
  -6   2  -6 17540.0 954.685  55
   6   2   6 17681.1 1047.51  38
  -6   2  -7 66986.8 2025.49  76
  -6   2  -7 54108.2 1765.73  55
   6   2   7 56951.2 1721.85  65
   6   2   7 63725.3 1930.98  77
   6   2   7 64309.0 2023.47  82
   6   2   8 8602.16 496.671  82
  -6   2  -8 7594.46 437.760  76
   6   3 -12 5582.42 478.723  78
   6   3 -11 11575.3 806.982  78
   6   3 -10 19762.0 1180.91  78
   6   3  -9 958.179 282.196  78
   6   3  -9 448.803 179.499  85
  -6   3   9 404.325 167.444  37
   6   3  -9 1029.55 269.220  72
   6   3  -8 65087.6 2513.76  72
   6   3  -8 61228.6 2455.62  78
  -6   3   8 63053.2 2298.82  37
  -6   3   7 777.210 235.242  37
  -6   3   7 1241.50 266.923  33
   6   3  -7 736.245 228.993  54
   6   3  -7 1121.18 302.429  78
   6   3  -6 115417. 3711.85  78
   6   3  -6 123513. 3989.55  72
  -6   3   6 117507. 3547.11  33
   6   3  -6 124513. 3733.97  54
  -6   3   6 117052. 3705.74  37
  -6   3   5 4026.74 550.579  37
   6   3  -5 3747.39 494.089  75
   6   3  -5 4564.49 622.162  72
  -6   3   5 4154.29 509.333  33
   6   3  -5 4830.30 636.578  26
   6   3  -5 4142.11 515.400  65
   6   3  -5 4499.93 600.314  61
   6   3  -5 4695.15 581.659  54
  -6   3   5 3944.41 572.329   3
  -6   3   4 21707.8 1290.11  37
   6   3  -4 21192.0 1366.42  72
   6   3  -4 20276.7 1355.97  26
  -6   3   4 20461.7 1175.79  33
   6   3  -4 20850.6 1261.32  65
   6   3  -4 20643.8 1315.09  61
  -6   3   4 20654.5 1206.48  58
   6   3  -4 20646.8 1274.55  54
  -6   3   4 17887.8 1214.93   9
  -6   3   4 18968.1 1279.11   3
   6   3  -3 43333.9 2050.54  72
  -6   3   3 43189.6 1832.70  33
   6   3  -3 45604.4 2043.37  65
  -6   3   3 42628.9 1907.01  58
   6   3  -3 40487.1 1920.46  61
  -6   3   3 43320.9 2034.40   3
  -6   3   3 44040.8 1954.05  37
   6   3  -2 39890.7 1898.03  72
  -6   3   2 39637.3 1845.22  37
   6   3  -2 37873.9 1938.63  26
  -6   3   2 38965.8 1729.07  33
  -6   3   2 35055.8 1772.59  58
   6   3  -2 40966.5 1947.90  65
   6   3  -2 39192.2 1783.12  61
   6   3  -2 39246.9 1911.09  77
  -6   3   2 38507.3 1805.43  47
  -6   3   1 990.535 295.775   3
   6   3  -1 797.716 275.124  77
   6   3  -1 513.447 211.481  72
  -6   3   1 815.123 271.215  37
  -6   3   1 976.905 269.190  33
  -6   3   1 922.552 293.847  58
   6   3  -1 1073.47 328.345  65
   6   3  -1 1245.13 280.275  61
   6   3  -1 533.531 236.534  26
  -6   3   1 831.897 251.538  16
  -6   3   1 934.019 269.074  47
  -6   3   0 25939.3 1496.02   3
   6   3   0 31478.0 1705.34  77
  -6   3   0 28329.7 1628.50  83
   6   3   0 28709.4 1447.78  72
   6   3   0 30258.2 1682.53  65
  -6   3   0 31678.3 1669.34  58
  -6   3   0 28935.4 1482.41  47
  -6   3   0 27282.1 1457.91  16
  -6   3   0 31110.8 1589.16  37
  -6   3   0 30860.9 1505.36  33
   6   3   0 28896.9 1622.86  26
  -6   3  -1 9346.29 888.603  83
   6   3   1 9211.36 895.163  77
  -6   3  -1 9264.40 874.485  58
  -6   3  -1 7991.63 736.742  33
  -6   3  -1 8597.90 850.614  50
  -6   3  -1 9050.14 762.826  47
  -6   3  -2 3999.14 576.040  58
   6   3   2 4262.78 618.035  65
  -6   3  -2 3422.04 474.212  33
   6   3   2 3114.33 524.385  77
  -6   3  -2 3026.25 488.508  50
  -6   3  -3 14433.9 954.642  33
  -6   3  -3 12079.4 933.358  50
  -6   3  -3 11862.6 969.182  83
  -6   3  -3 12795.9 1015.54  58
   6   3   3 11856.0 972.008  65
  -6   3  -4 36940.9 1637.14  50
   6   3   4 38928.6 1783.00  65
  -6   3  -4 40447.4 1789.19  83
   6   3   4 39121.3 1816.92  77
   6   3   5 11576.6 823.601  65
  -6   3  -5 10593.3 731.823  30
  -6   3  -5 11360.5 801.434  83
   6   3   5 11684.3 854.955  77
   6   3   6 5568.63 492.120  65
  -6   3  -6 5627.27 471.239  83
   6   3   6 6142.21 546.370  77
  -6   3  -6 5789.75 470.338  30
   6   3   7 13943.5 700.251  77
  -6   3  -7 15560.3 771.063  76
   6   4 -12 10012.2 515.070  78
   6   4 -11 4101.82 411.539  78
   6   4 -10 236.736 133.152  78
   6   4  -9 19021.0 1061.03  72
   6   4  -9 20252.2 1129.72  78
  -6   4   9 20332.4 1045.77  37
   6   4  -8 7801.13 727.102  72
   6   4  -8 8613.04 747.420  78
  -6   4   8 9105.71 728.785  37
  -6   4   8 8589.13 659.100  33
  -6   4   7 957.602 264.996  37
  -6   4   7 1571.69 303.204  33
   6   4  -7 1430.04 316.933  78
   6   4  -6 424.796 215.007  61
  -6   4   6 805.697 249.999  37
  -6   4   6 615.130 202.234  33
   6   4  -5 52707.7 2273.67  72
  -6   4   5 49628.7 2001.59  33
   6   4  -5 50970.2 2202.85  61
  -6   4   5 48983.9 1979.89  83
  -6   4   5 50002.7 2107.70  37
   6   4  -4 20148.9 1321.73  72
  -6   4   4 19678.8 1176.47  33
   6   4  -4 20275.3 1290.62  61
  -6   4   4 22230.2 1278.09  83
  -6   4   4 19303.1 1225.07  37
   6   4  -3 30956.2 1646.90  72
  -6   4   3 27918.1 1439.40  33
  -6   4   3 26839.2 1484.38  83
  -6   4   3 29841.0 1545.78  37
   6   4  -3 27184.9 1439.95  65
   6   4  -3 26110.3 1471.31  61
  -6   4   2 125196. 3896.48  37
  -6   4   2 114757. 3721.08  33
   6   4  -2 120507. 3789.88  77
  -6   4   2 127150. 3994.92  83
  -6   4   2 126621. 3793.05  47
   6   4  -2 126774. 3922.37  65
   6   4  -2 122580. 3802.80  61
  -6   4   1 11129.7 915.132  37
  -6   4   1 11733.5 903.454  33
   6   4  -1 12870.5 984.614  77
  -6   4   1 11775.0 986.531  83
  -6   4   1 13163.9 922.634  47
   6   4  -1 13402.5 1025.31  65
   6   4  -1 12387.7 874.926  61
  -6   4   1 12499.3 918.054  58
  -6   4   0 49887.8 2108.89  37
  -6   4   0 51241.6 2062.54  33
   6   4   0 52506.7 2241.75  65
  -6   4   0 48827.6 2038.96  58
   6   4   0 50822.2 2170.63  77
  -6   4   0 49777.4 2205.14  83
  -6   4   0 48264.9 1920.54  47
   6   4   1 5838.84 564.976  72
  -6   4  -1 5502.46 630.848  58
   6   4   1 6805.57 731.611  65
  -6   4  -1 6856.36 736.433  83
   6   4   1 6098.39 693.483  77
  -6   4  -1 5806.49 550.047  47
  -6   4  -1 6693.55 661.549  33
  -6   4  -2 12692.5 898.489  33
  -6   4  -2 12982.8 995.847  50
  -6   4  -2 14089.3 1043.46  83
   6   4   2 13060.0 1007.99  77
   6   4   3 51141.2 2135.75  65
  -6   4  -3 53173.2 2025.98  33
  -6   4  -3 57401.3 2177.33  50
   6   4   3 52182.4 2154.87  77
  -6   4  -4 93.3284 111.277  83
  -6   4  -4-42.5110 111.048  50
   6   4   4 46.8032 99.8255  65
  -6   4  -5 6522.35 530.717  50
   6   4   5 7794.55 616.024  65
  -6   4  -5 7855.16 613.004  83
   6   4   6 7141.93 499.218  65
  -6   4  -6 6105.55 452.834  83
   6   4   6 7135.58 520.831  77
  -6   4  -6 6520.91 515.412  76
   6   4   7 22183.6 810.776  77
  -6   4  -7 23356.1 860.709  76
   6   5 -10 20417.0 849.031  78
   6   5  -9 15645.4 813.436  78
   6   5  -8 37281.5 1484.86  72
   6   5  -8 33778.2 1346.26  78
  -6   5   8 32966.4 1404.57  37
  -6   5   8 34782.7 1358.62  33
  -6   5   7 9258.93 685.312  33
   6   5  -7 9801.02 773.326  72
  -6   5   7 9278.41 724.909  37
  -6   5   6 28939.6 1364.00  33
   6   5  -6 30524.2 1505.71  61
  -6   5   6 29256.4 1333.19  50
  -6   5   6 30511.0 1446.34  37
   6   5  -5 5727.48 653.691  72
  -6   5   5 7250.47 653.945  33
   6   5  -5 7222.02 706.074  61
  -6   5   5 6437.55 628.642  50
  -6   5   5 5978.69 634.395  37
  -6   5   4 32480.6 1435.26  83
   6   5  -4 34569.0 1701.00  72
   6   5  -4 33958.1 1650.01  61
  -6   5   4 32756.7 1523.19  33
  -6   5   4 33670.8 1596.73  50
  -6   5   4 33609.6 1599.79  37
  -6   5   3 20165.1 1150.71  83
   6   5  -3 21758.4 1255.26  61
  -6   5   3 22143.1 1259.63  37
  -6   5   3 20564.6 1180.66  33
  -6   5   3 21164.9 1257.86  50
  -6   5   3 21799.1 1160.77  47
  -6   5   2 6856.11 671.857  83
   6   5  -2 5278.17 562.685  65
   6   5  -2 8115.54 714.833  61
  -6   5   2 7433.12 701.687  37
  -6   5   2 7993.60 703.916  33
  -6   5   2 7884.42 760.365  50
  -6   5   2 7970.42 654.255  47
  -6   5   1 3929.79 524.162  83
   6   5  -1 4292.29 520.235  65
   6   5  -1 4463.64 480.609  61
  -6   5   1 4088.06 499.404  33
  -6   5   1 4358.31 558.411  50
  -6   5   0 2619.51 410.323  37
  -6   5   0 2379.77 385.409  33
   6   5   0 2460.00 408.330  65
   6   5   0 2358.20 371.618  77
  -6   5   0 2186.52 388.879  83
  -6   5   0 2163.06 399.839  50
   6   5   1 19705.4 1006.01  72
  -6   5  -1 19214.8 1089.83  33
  -6   5  -1 20845.4 1220.61  50
   6   5   1 21080.8 1150.59  77
  -6   5  -1 19464.5 1177.03  83
   6   5   1 19924.0 1173.13  65
  -6   5  -2 943.264 224.089  33
   6   5   2 1091.80 260.237  77
  -6   5  -2 1110.52 273.350  83
   6   5   2 1091.73 268.753  65
  -6   5  -3 7422.84 599.690  33
   6   5   3 7322.15 631.395  65
  -6   5  -3 7357.83 638.794  50
  -6   5  -3 6485.78 601.627  83
   6   5   3 6898.78 598.461  77
  -6   5  -4 32631.4 1324.01  50
   6   5   4 31687.5 1303.91  77
  -6   5  -5 982.819 188.573  76
   6   5   5 1141.28 196.479  77
  -6   5  -5 1247.42 210.583  83
  -6   5  -5 1183.05 188.938  50
   6   5   5 1139.32 200.538  65
   6   6  -8 3650.09 322.592  72
   6   6  -7 15751.3 808.343  72
  -6   6   7 12205.6 623.463  63
  -6   6   6 24302.9 1106.57  33
  -6   6   6 26244.5 1170.52  37
   6   6  -5 3489.17 434.160  61
  -6   6   5 2782.36 377.884  37
  -6   6   5 3503.34 403.247  33
  -6   6   5 3179.90 355.760  47
   6   6  -4 71040.9 1941.42  72
  -6   6   4 68750.9 1744.31  33
   6   6  -4 69618.5 1854.36  61
   6   6  -3 5673.43 537.444  61
  -6   6   3 4701.23 491.055  33
  -6   6   3 4624.86 481.374  50
   6   6  -3 5294.93 556.082  72
   6   6  -2 46223.7 1765.11  72
   6   6  -2 42053.2 1581.39  61
  -6   6   2 40607.4 1629.69  37
  -6   6   2 42649.8 1644.45  33
  -6   6   2 41165.9 1646.36  50
  -6   6   2 36434.1 1452.96  83
  -6   6   1 341.024 151.494  37
  -6   6   1 379.332 156.962  33
   6   6  -1 538.115 148.270  61
  -6   6   1 491.054 158.982  83
  -6   6   1 536.138 181.588  50
   6   6   0 29659.0 1249.27  72
  -6   6   0 29880.8 1297.67  33
  -6   6   0 31774.3 1387.15  50
  -6   6   0 29531.2 1288.22  83
   6   6   1 20080.4 867.576  72
  -6   6  -1 18980.4 968.267  33
  -6   6  -1 21157.4 1061.84  50
  -6   6  -1 21187.1 1029.28  83
   6   6   1 20982.6 986.517  65
  -6   6  -2 27137.4 1166.09  50
  -6   6  -2 24354.4 1099.04  83
   6   6   2 25350.0 1077.74  65
  -6   6  -3 7195.27 502.451  83
   6   6   3 6140.60 451.473  65
  -6   6  -4 36922.3 1198.55  50
  -6   6  -4 36447.0 1198.20  83
   6   6   4 40164.8 1206.72  65
   6   7  -5 3767.40 332.273  72
  -6   7   5 3813.41 299.657  63
   6   7  -4 41846.2 1449.77  72
  -6   7   4 45517.5 1430.64  63
   6   7  -3 12310.1 674.346  72
  -6   7   3 12779.5 670.811  63
   6   7  -2 6829.88 480.068  72
  -6   7   1 16239.1 723.695  63
   6   7  -1 16156.8 711.923  72
  -6   7   0 3593.59 294.777  50
  -6   7   0 3326.46 274.348  63
  -7  -6   5 104.902 59.0024  51
  -7  -6   4 2866.72 274.802  51
  -7  -6   3 1527.70 202.494  51
   7  -5  -8 1287.83 177.548  64
  -7  -5   7 21634.2 920.459  51
   7  -5  -7 24032.1 964.046  64
  -7  -5   6 3165.69 349.194  51
   7  -5  -6 3372.77 363.113  64
  -7  -5   5 19910.8 975.792  51
   7  -5  -5 19357.8 959.445  64
  -7  -5   4 1247.07 240.560  51
   7  -5  -4 1004.29 228.867  64
  -7  -5   3 15621.9 876.631  51
   7  -5  -3 16642.9 909.569  64
  -7  -5   2 9551.89 659.192  51
   7  -5  -2 9815.80 674.427  64
  -7  -5   1 13027.0 763.945  51
   7  -5  -1 13937.1 801.334  64
  -7  -5   0 9215.68 588.090  51
   7  -5   0 9134.98 598.565  64
   7  -5   1 1267.41 194.996  59
   7  -5   1 1341.14 222.488  64
   7  -5   2 23789.0 912.573  64
   7  -4 -10 16711.5 690.638  64
   7  -4  -9 15244.5 766.543  64
  -7  -4   8 4532.13 424.406  31
  -7  -4   8 4093.19 365.145  51
  -7  -4   8 3898.72 399.430  42
   7  -4  -8 3874.38 415.430  64
  -7  -4   7 1302.42 242.936  31
  -7  -4   7 1036.23 218.383  51
  -7  -4   7 1285.12 241.449  42
  -7  -4   7 1268.12 240.142  46
   7  -4  -7 1374.58 269.433  64
  -7  -4   6 19497.4 973.975  31
  -7  -4   6 18576.3 1011.04  51
  -7  -4   6 18805.5 991.674  42
  -7  -4   6 18281.9 988.357  46
   7  -4  -6 18012.5 1046.82  64
  -7  -4   5 2252.58 309.909  31
  -7  -4   5 2298.07 357.892  51
  -7  -4   5 2318.33 332.526  42
  -7  -4   5 2841.59 387.300  46
   7  -4  -5 2192.65 368.924  64
   7  -4  -4 8395.69 707.728  64
  -7  -4   4 8800.90 693.687  51
  -7  -4   4 7743.64 589.259  42
  -7  -4   4 7625.37 614.992  46
   7  -4  -3 35682.0 1622.11  64
   7  -4  -3 38098.3 1577.40  75
  -7  -4   3 36047.3 1576.56  51
  -7  -4   3 33829.1 1382.29  42
  -7  -4   3 34167.3 1476.19  46
  -7  -4   2 23464.8 1223.44  51
   7  -4  -2 25067.0 1313.31  64
   7  -4  -2 22933.9 1148.23  75
   7  -4  -1 11541.5 835.019  64
   7  -4  -1 9703.06 668.330  75
  -7  -4   1 10304.4 766.923  51
   7  -4  -1 10120.5 808.748  82
  -7  -4   0 25236.6 1102.44  51
   7  -4   0 25703.1 1201.04  82
   7  -4   1 41415.4 1656.68  82
   7  -4   1 39822.5 1494.50  59
  -7  -4  -2 1519.12 267.747  51
   7  -4   2 2224.20 327.066  82
   7  -4   2 2089.51 282.167  59
  -7  -4  -3 7962.83 529.648  51
   7  -4   3 7151.16 518.286  82
   7  -4   3 7014.19 482.280  59
   7  -3 -10 875.166 169.376  54
   7  -3  -9 28987.7 1193.79  54
  -7  -3   9 28677.1 1223.66  42
   7  -3  -8 2165.25 323.650  54
  -7  -3   8 2104.77 332.528  42
  -7  -3   8 2148.35 327.532  46
  -7  -3   8 1681.03 266.047  29
  -7  -3   7 16014.1 917.846  51
  -7  -3   7 17804.0 1013.82  46
  -7  -3   7 17195.4 954.683  29
   7  -3  -6 34643.7 1650.72  75
  -7  -3   6 32904.4 1467.68  51
   7  -3  -6 33842.5 1505.22  54
  -7  -3   6 33697.8 1505.30  42
  -7  -3   6 32204.5 1493.31  46
  -7  -3   6 33895.2 1473.58  29
   7  -3  -5 43162.3 1914.63  75
  -7  -3   5 42195.4 1726.73  29
  -7  -3   5 40598.9 1736.05  51
   7  -3  -5 42887.5 1754.04  54
  -7  -3   5 39872.0 1681.78  42
  -7  -3   5 40917.8 1740.60  46
   7  -3  -4 24466.2 1399.08  75
  -7  -3   4 26947.9 1333.29  29
  -7  -3   4 24420.8 1175.38  31
   7  -3  -4 25934.9 1432.52  64
  -7  -3   4 27654.6 1380.75  51
   7  -3  -4 27343.4 1338.58  54
  -7  -3   4 26073.3 1267.83  42
   7  -3  -3 36493.0 1775.36  82
   7  -3  -3 35791.1 1710.95  75
  -7  -3   3 37162.1 1613.31  29
   7  -3  -3 36764.4 1752.74  64
  -7  -3   3 34427.9 1622.21  51
   7  -3  -3 37290.6 1604.31  54
  -7  -3   3 34764.2 1480.42  42
  -7  -3   3 36138.8 1591.08  46
   7  -3  -2 25771.2 1464.86  82
   7  -3  -2 24861.6 1417.91  64
   7  -3  -2 26314.4 1393.55  75
   7  -3  -2 27810.2 1319.36  54
  -7  -3   2 26996.8 1390.70  51
  -7  -3   2 24955.6 1151.99  42
  -7  -3   2 25645.6 1273.05  46
   7  -3  -1 57142.5 2396.73  82
  -7  -3   1 63659.2 2237.36  58
   7  -3  -1 62571.3 2306.30  75
   7  -3  -1 65260.8 2212.14  54
  -7  -3   1 61898.9 2314.41  51
  -7  -3   1 62947.2 2170.56  46
   7  -3   0 24522.1 1158.41  54
  -7  -3   0 23478.2 1263.76  51
  -7  -3   0 24954.5 1186.05  58
   7  -3   0 23306.3 1198.69  75
   7  -3   1 21085.4 1031.84  75
  -7  -3  -1 21668.1 1166.69  51
   7  -3   1 21124.5 1004.62  54
   7  -3   1 20578.9 1218.36  82
  -7  -3  -2 14590.1 884.957  51
   7  -3   2 13333.3 909.624  82
  -7  -3  -3 2465.98 336.137  51
   7  -3   3 2698.81 378.338  82
   7  -3   3 2570.63 334.821  59
  -7  -3  -4 29715.4 1165.79  51
   7  -3   4 28960.5 1205.53  82
   7  -3   4 27744.6 1091.58  59
  -7  -3  -5 4708.83 355.925  51
   7  -3   5 4554.94 354.624  82
   7  -2 -11 5797.24 443.891  54
   7  -2 -11 6106.30 443.305  64
   7  -2 -10 15596.1 861.365  54
  -7  -2  10 15353.9 839.054  42
   7  -2 -10 14084.8 814.925  64
  -7  -2   9 4618.58 439.097  29
   7  -2  -9 4884.97 519.601  54
  -7  -2   9 4395.41 453.088  46
   7  -2  -9 4210.90 482.014  64
  -7  -2   8 32905.8 1424.11  29
   7  -2  -8 31341.1 1514.86  64
   7  -2  -8 35513.0 1594.52  54
  -7  -2   8 34848.4 1505.54  46
   7  -2  -7 2480.96 440.162  75
   7  -2  -7 2434.07 413.372  64
  -7  -2   7 1728.99 334.115  29
   7  -2  -7 2425.51 411.936  54
  -7  -2   7 2177.31 366.880  46
   7  -2  -6 43571.4 2032.17  85
  -7  -2   6 43589.0 1816.75  29
   7  -2  -6 44876.4 1964.63  64
   7  -2  -6 45647.7 1963.31  54
  -7  -2   6 43316.5 1847.55  46
   7  -2  -5 23255.2 1392.26  75
  -7  -2   5 22690.4 1235.52  29
   7  -2  -5 22254.6 1329.70  64
  -7  -2   5 18354.2 1090.44  51
   7  -2  -5 22089.2 1316.42  54
   7  -2  -5 19399.4 1302.49  85
   7  -2  -4 4956.59 650.012  85
   7  -2  -4 6145.55 715.875  75
  -7  -2   4 5586.44 609.089  29
   7  -2  -4 6298.09 698.876  64
  -7  -2   4 6521.95 633.827  51
   7  -2  -4 4626.51 603.091  54
  -7  -2   4 5425.24 593.657  46
   7  -2  -3 15163.4 1096.41  85
   7  -2  -3 15211.9 1109.64  82
   7  -2  -3 16287.1 1171.27  75
   7  -2  -3 17186.3 1162.02  64
   7  -2  -3 15569.2 1089.72  54
  -7  -2   3 15420.3 1025.41  51
  -7  -2   3 14675.2 919.504  42
  -7  -2   3 15514.4 1003.54  46
   7  -2  -2 1787.64 366.347  85
   7  -2  -2 2380.91 441.440  82
   7  -2  -2 3223.27 506.294  75
  -7  -2   2 2943.50 428.416  29
   7  -2  -2 3115.14 482.427  54
  -7  -2   2 3424.49 479.021  51
  -7  -2   2 2473.22 345.132  42
  -7  -2   2 2165.32 361.699  46
   7  -2  -1 35773.5 1772.13  82
   7  -2  -1 34712.6 1710.88  75
  -7  -2   1 33331.3 1537.22  29
  -7  -2   1 33353.7 1625.14  58
  -7  -2   1 33553.2 1604.65  51
  -7  -2   1 32346.6 1454.75  46
   7  -2   0 16436.6 1153.63  82
  -7  -2   0 16863.6 1068.06  58
   7  -2   0 15841.6 1071.55  75
  -7  -2   0 15655.5 1035.50  51
  -7  -2   0 17625.6 949.189  46
  -7  -2  -1 28116.3 1371.57  58
   7  -2   1 27571.0 1384.34  75
  -7  -2  -1 28209.3 1412.08  51
   7  -2   1 29787.1 1554.44  82
   7  -2   2 158.697 126.954  75
  -7  -2  -2 198.809 134.114  58
  -7  -2  -2 45.5609 97.2072  51
   7  -2   2 125.276 109.111  38
  -7  -2  -3 22000.6 976.060  30
  -7  -2  -3 23211.6 1164.52  51
   7  -2   3 21878.5 1096.98  38
   7  -2   3 21833.3 974.033  75
  -7  -2  -4 26488.4 1178.66  51
   7  -2   4 25675.3 1239.15  82
  -7  -2  -5 3999.03 377.169  55
  -7  -2  -5 4808.54 411.053  51
   7  -2   5 4416.86 419.272  82
  -7  -2  -6 3125.13 262.552  51
   7  -2   6 3200.23 272.812  82
   7  -1 -11 7316.77 544.046  54
   7  -1 -11 7131.60 482.457  64
   7  -1 -10 8330.16 661.377  54
  -7  -1  10 7809.17 579.501  46
   7  -1 -10 7187.14 573.499  64
   7  -1  -9 4219.51 481.665  64
   7  -1  -9 5226.81 577.204  54
  -7  -1   9 3881.56 445.836  29
   7  -1  -8 3569.02 487.791  75
  -7  -1   8 3222.96 431.463  29
   7  -1  -8 2799.43 422.476  64
   7  -1  -8 2930.54 467.705  54
   7  -1  -8 3410.75 500.611  85
   7  -1  -7 10916.3 856.045  64
  -7  -1   7 10534.2 815.055  29
   7  -1  -7 10849.4 916.890  54
   7  -1  -7 10665.6 892.027  75
   7  -1  -6 983.475 305.134  85
   7  -1  -6 692.883 269.101  75
  -7  -1   6 459.263 189.090  29
   7  -1  -6 880.673 269.396  64
   7  -1  -6 1299.50 343.222  54
  -7  -1   6 583.786 189.243  47
   7  -1  -5 73088.3 2825.20  85
   7  -1  -5 64659.5 2697.11  75
   7  -1  -5 71756.2 2645.05  64
  -7  -1   5 67391.0 2508.19  29
   7  -1  -5 69536.8 2739.45  54
  -7  -1   5 72861.7 2464.50  47
   7  -1  -4 10152.4 930.903  85
   7  -1  -4 8307.78 780.891  82
   7  -1  -4 10905.0 895.888  64
   7  -1  -4 8522.37 845.175  54
  -7  -1   4 10933.4 824.785  47
   7  -1  -3 45687.3 2161.40  75
  -7  -1   3 47469.8 1966.20  29
   7  -1  -3 48336.4 2071.26  64
   7  -1  -3 50254.1 2201.10  54
  -7  -1   3 45353.8 1846.55  51
   7  -1  -3 47877.9 2141.43  85
   7  -1  -3 47119.9 2063.00  82
   7  -1  -2 9229.08 839.192  85
   7  -1  -2 8781.89 836.421  82
   7  -1  -2 9519.07 904.134  75
  -7  -1   2 9534.48 784.894  29
   7  -1  -2 10062.3 865.978  64
  -7  -1   2 8270.04 722.162  51
  -7  -1   2 8247.09 710.112  46
   7  -1  -1 8082.77 748.884  85
   7  -1  -1 7998.90 801.840  82
   7  -1  -1 9030.10 858.104  75
  -7  -1   1 8188.76 706.597  29
  -7  -1   1 7847.29 789.534  58
  -7  -1   1 8485.07 732.982  51
  -7  -1   1 8951.94 700.566  46
   7  -1   0 40410.5 1916.93  82
   7  -1   0 41543.2 1931.07  75
  -7  -1   0 42354.5 1688.97  29
  -7  -1   0 43503.5 1917.82  58
  -7  -1   0 41178.2 1761.48  51
   7  -1   1 3411.58 524.325  82
  -7  -1  -1 3510.77 501.540  58
   7  -1   1 4125.09 544.564  75
  -7  -1  -1 4500.97 535.168  51
   7  -1   1 3172.81 477.520  38
   7  -1   2 6542.61 689.241  82
  -7  -1  -2 6849.07 662.099  58
   7  -1   2 6290.01 637.944  75
  -7  -1  -2 6950.22 644.008  51
   7  -1   2 6436.55 658.705  38
   7  -1   3 5154.40 575.611  82
   7  -1   3 4603.14 490.157  75
  -7  -1  -3 3944.47 467.701  58
  -7  -1  -3 4280.46 489.182  51
   7  -1   3 4229.13 520.711  38
   7  -1   4 11320.1 804.011  82
  -7  -1  -4 12215.9 715.589  30
   7  -1   4 10523.9 652.200  75
  -7  -1  -4 11668.1 759.000  51
   7  -1   4 10645.8 769.328  38
  -7  -1  -5 6382.00 498.883  51
  -7  -1  -6 19011.0 806.366  55
   7   0 -11 35461.3 1363.82  54
  -7   0  10 16310.5 882.018  29
   7   0 -10 17359.4 996.262  54
   7   0 -10 18293.0 1026.08  78
   7   0  -9 15113.3 996.008  54
   7   0  -9 13885.6 950.198  85
   7   0  -9 15449.3 991.701  78
   7   0  -8 27459.0 1368.73  75
   7   0  -8 29384.4 1536.68  85
   7   0  -8 28194.4 1437.25  78
  -7   0   8 27464.9 1242.85  47
   7   0  -7 7150.30 707.379  75
   7   0  -7 7264.36 755.813  85
   7   0  -7 6799.75 675.553  78
  -7   0   7 6414.56 601.792  47
   7   0  -7 5305.21 572.224  64
   7   0  -6 1476.40 348.034  75
   7   0  -6 1316.69 344.850  85
  -7   0   6 1624.68 319.214  47
   7   0  -6 777.149 232.986  64
   7   0  -5 2418.82 460.715  75
   7   0  -5 2820.04 423.306  64
   7   0  -5 3226.37 539.446  85
  -7   0   5 2584.53 419.027  47
   7   0  -4 799.902 284.514  85
   7   0  -4 135.647 177.436  75
   7   0  -4 512.429 197.272  64
  -7   0   4 727.652 228.742  29
   7   0  -4 402.003 202.329  54
  -7   0   4 525.152 209.773  47
   7   0  -3 16677.3 1067.43  64
  -7   0   3 13235.7 951.124  29
   7   0  -3 18210.5 1228.50  85
   7   0  -3 13325.1 963.585  82
  -7   0   3 16110.0 1063.08  47
   7   0  -2 2319.55 398.527  64
  -7   0   2 2459.21 398.353  29
   7   0  -2 2241.48 431.645  85
   7   0  -2 3142.30 473.152  82
  -7   0   2 2319.71 406.015  47
  -7   0   1 444.667 234.702  58
   7   0  -1 295.028 157.359  64
  -7   0   1 134.795 143.800  29
   7   0  -1 109.910 117.272  85
   7   0  -1 286.078 183.089  82
  -7   0   1 119.932 104.498  46
   7   0   0 187.504 149.117  65
  -7   0   0 402.733 160.770  29
  -7   0   0 218.081 139.622  51
   7   0   0 140.771 111.996  85
   7   0   0 289.995 175.009  82
   7   0   1 25401.0 1415.43  82
  -7   0  -1 25272.5 1260.81  51
   7   0   1 23633.7 1425.97  38
   7   0   1 24488.4 1404.95  65
  -7   0  -2 31510.8 1419.23  83
   7   0   2 33869.4 1629.41  82
  -7   0  -2 31300.3 1429.47  51
   7   0   2 31783.0 1637.07  38
   7   0   2 29197.4 1502.08  65
  -7   0  -2 33447.0 1612.49  58
   7   0   3 26000.7 1371.61  82
  -7   0  -3 27454.9 1375.01  58
  -7   0  -3 27260.3 1270.57  51
   7   0   3 26638.5 1425.25  38
   7   0   4 3570.04 455.884  82
  -7   0  -4 2764.11 358.810  30
  -7   0  -4 3717.80 438.171  58
  -7   0  -4 3424.06 393.874  51
   7   0   4 4275.20 495.124  38
  -7   0  -5 582.028 151.207  51
   7   0   5 451.531 157.626  82
   7   0   5 716.535 158.308  75
   7   0   6 39683.1 1309.26  82
  -7   0  -6 34989.4 1237.87  55
   7   1 -11 4835.17 451.305  78
   7   1 -11 4866.95 405.479  54
   7   1 -10 7760.43 632.866  78
   7   1 -10 8112.94 629.091  54
   7   1  -9 6009.36 597.266  85
   7   1  -9 6004.27 592.829  78
  -7   1   9 6251.46 529.021  47
   7   1  -9 6955.31 640.157  54
   7   1  -8 3820.25 525.621  85
   7   1  -8 3388.96 458.854  78
   7   1  -8 3633.51 500.431  54
  -7   1   8 3217.37 417.213  47
   7   1  -7 9583.02 864.205  85
   7   1  -7 9272.83 761.203  78
   7   1  -7 9408.19 832.937  54
  -7   1   7 8756.99 734.961  47
   7   1  -7 8321.43 728.818  75
   7   1  -6 811.407 226.097  78
   7   1  -6 490.387 217.450  54
  -7   1   6 1120.34 282.683  47
   7   1  -6 955.909 281.757  75
   7   1  -5 71256.6 2759.40  85
   7   1  -5 67827.1 2670.52  54
   7   1  -5 71781.9 2674.42  75
   7   1  -4 9210.45 886.963  85
   7   1  -4 10965.9 951.097  75
   7   1  -4 10429.6 937.789  54
  -7   1   4 9199.78 803.443  47
  -7   1   3 44882.6 2061.30  58
  -7   1   3 42540.6 1808.83  29
   7   1  -3 44374.2 2082.75  85
  -7   1   3 45175.6 1949.23  47
   7   1  -2 10260.1 925.342  65
  -7   1   2 9502.81 891.634  58
  -7   1   2 9666.44 759.363  29
   7   1  -2 8239.52 812.101  85
  -7   1   2 10952.1 875.473  47
  -7   1   1 9197.34 869.649  58
  -7   1   1 8755.56 690.913  29
   7   1  -1 10238.8 855.364  85
   7   1   0 39460.7 1698.32  85
   7   1   0 38084.2 1695.69  82
  -7   1   0 38925.5 1890.06  58
   7   1   0 37139.4 1845.30  65
  -7   1  -1 3634.92 458.380  50
   7   1   1 4594.71 589.224  65
  -7   1  -1 3870.03 556.924  58
  -7   1  -1 4894.89 588.081  83
   7   1   1 4472.22 540.458  82
   7   1   2 6060.49 647.831  65
  -7   1  -2 7150.36 716.995  58
  -7   1  -2 5687.69 592.965  83
   7   1   2 6965.24 664.470  82
   7   1   3 4996.95 539.489  65
  -7   1  -3 5217.69 510.408  83
   7   1   3 5539.29 572.510  82
   7   1   3 4953.15 589.300  38
   7   1   4 11473.5 746.470  65
   7   1   4 12326.4 801.927  82
   7   1   4 11790.7 837.892  38
  -7   1  -4 12111.1 755.165  30
   7   1   5 7023.51 538.325  82
  -7   1  -5 7974.39 544.256  55
   7   1   6 17912.4 735.645  82
   7   2 -11 3981.30 373.631  78
   7   2 -10 13072.3 782.990  78
   7   2  -9 4271.03 476.680  85
   7   2  -9 4044.17 460.722  78
  -7   2   9 4832.25 474.611  47
   7   2  -9 4414.04 457.638  54
   7   2  -8 35134.7 1591.43  85
   7   2  -8 32817.6 1459.94  78
   7   2  -8 36084.4 1530.78  54
   7   2  -7 2714.81 445.881  85
   7   2  -7 2395.63 361.124  78
   7   2  -7 2271.42 386.425  54
  -7   2   7 2427.91 399.477  47
  -7   2   7 2016.43 321.331  58
   7   2  -6 42888.2 1790.13  72
  -7   2   6 42998.9 1636.24  58
   7   2  -6 45807.6 1814.57  54
  -7   2   6 43303.2 1721.78  47
   7   2  -5 20949.0 1231.14  75
   7   2  -5 19844.7 1226.15  72
  -7   2   5 20310.1 1084.81  37
  -7   2   5 18380.3 1142.08  58
   7   2  -5 21401.5 1284.17  54
  -7   2   5 21576.2 1232.78  47
   7   2  -4 2161.40 417.585  75
   7   2  -4 2777.99 453.956  72
  -7   2   4 2935.84 406.455  37
  -7   2   4 3427.40 489.119  58
   7   2  -4 2919.23 495.792  54
  -7   2   4 3240.48 481.129  47
   7   2  -3 17889.0 1190.55  65
  -7   2   3 17759.3 1163.34  58
  -7   2   3 18281.6 1074.06  37
   7   2  -3 19609.5 1161.85  72
  -7   2   2 4796.99 605.487  58
   7   2  -2 4887.65 624.984  65
  -7   2   2 4154.44 465.674  29
   7   2  -2 4164.60 496.730  72
  -7   2   1 29207.2 1480.87  47
   7   2  -1 32864.9 1672.19  65
  -7   2   1 30664.9 1611.93  58
   7   2   0 15929.2 1125.50  77
  -7   2   0 15519.3 1093.94  58
  -7   2  -1 24693.4 1297.45  50
  -7   2  -1 29579.4 1486.45  83
   7   2   1 25578.3 1432.95  65
  -7   2  -1 28455.3 1488.44  58
  -7   2  -2 94.7254 133.676  83
   7   2   2 313.979 193.348  77
  -7   2  -2 38.3820 81.9307  50
  -7   2  -2 523.540 216.262  58
   7   2   2 563.128 204.301  65
  -7   2  -3 23060.9 1223.61  58
   7   2   3 21211.9 1147.15  65
   7   2   3 22010.0 1182.66  77
  -7   2  -3 20771.0 1087.34  83
   7   2   4 26741.0 1155.82  65
   7   2   4 27127.6 1203.76  77
  -7   2  -4 25517.0 1107.35  30
  -7   2  -5 5044.00 395.143  76
   7   2   5 5437.68 393.842  65
   7   3 -10 1266.72 200.831  78
   7   3  -9 27223.3 1127.56  78
  -7   3   9 25826.3 1145.73  47
   7   3  -8 2406.81 368.247  85
   7   3  -8 2269.08 306.003  78
  -7   3   8 2427.38 352.795  47
  -7   3   7 15171.3 856.817  37
   7   3  -7 15937.9 1013.01  72
   7   3  -7 17839.6 1080.39  85
  -7   3   7 16348.9 987.656  47
   7   3  -6 36388.1 1655.94  72
  -7   3   6 35570.1 1593.73  47
  -7   3   6 34100.0 1452.36  37
   7   3  -5 50392.7 2016.20  72
  -7   3   5 46906.7 1807.58  37
   7   3  -5 46624.5 1842.29  54
  -7   3   4 22603.0 1174.31  58
  -7   3   4 25393.8 1269.45  37
   7   3  -4 24439.4 1283.00  54
   7   3  -4 25631.9 1293.00  75
   7   3  -4 23295.8 1302.22  72
   7   3  -3 36406.0 1636.11  72
  -7   3   3 36211.6 1591.79  37
   7   3  -3 33757.7 1609.89  65
  -7   3   3 35911.5 1580.32  58
   7   3  -3 33699.9 1594.84  54
  -7   3   3 38563.7 1660.95  47
   7   3  -2 22769.7 1190.11  72
  -7   3   2 20198.2 1053.43  33
   7   3  -2 21998.0 1285.32  65
  -7   3   2 22991.5 1243.80  58
  -7   3   2 24194.5 1353.17  83
  -7   3   2 23619.8 1242.23  47
   7   3  -1 58559.4 2049.41  72
   7   3  -1 60102.7 2351.99  65
  -7   3   1 62641.8 2308.26  58
  -7   3   1 60738.2 2066.23  33
  -7   3   1 66897.1 2450.38  83
  -7   3   1 60864.6 2191.91  47
  -7   3   0 30045.6 1299.60  33
  -7   3   0 30854.9 1514.98  50
   7   3   0 29622.6 1514.63  77
  -7   3   0 31029.2 1543.22  83
   7   3   0 29458.8 1514.54  65
  -7   3   0 31018.1 1489.28  58
  -7   3  -1 23516.3 1228.64  50
   7   3   1 23332.6 1067.22  85
   7   3   1 22575.0 1267.90  77
  -7   3  -1 23024.9 1247.33  58
  -7   3  -2 17674.9 962.901  50
   7   3   2 17316.3 1042.70  65
  -7   3  -2 18068.4 1041.36  83
   7   3   3 2182.37 329.127  65
  -7   3  -3 1606.65 252.462  30
  -7   3  -3 2222.74 324.666  83
   7   3   4 28017.9 1171.96  77
  -7   3  -4 27340.9 1087.60  83
   7   3   4 29794.0 1173.76  65
  -7   3  -5 4059.47 323.099  76
   7   3   5 3676.26 290.579  65
   7   4  -8 2692.89 325.923  85
  -7   4   8 3104.63 354.012  47
   7   4  -7 1173.50 254.942  85
  -7   4   7 1181.21 239.660  47
  -7   4   6 19810.7 1008.01  37
   7   4  -6 20426.1 1111.74  72
  -7   4   5 3269.62 412.241  37
   7   4  -5 3599.14 456.111  72
  -7   4   5 3154.54 379.591  83
  -7   4   5 3627.62 431.396  47
  -7   4   4 7109.78 628.017  37
  -7   4   4 7255.18 558.171  33
   7   4  -4 7582.79 670.359  72
  -7   4   4 7840.34 649.702  83
  -7   4   4 7766.00 638.665  47
  -7   4   3 38975.6 1641.36  83
   7   4  -3 39333.0 1641.88  72
  -7   4   3 40687.3 1635.45  37
  -7   4   3 37864.6 1476.71  33
  -7   4   3 39747.8 1725.37  50
  -7   4   3 37889.6 1558.61  47
  -7   4   2 25813.4 1329.66  83
   7   4  -2 27749.2 1266.36  72
  -7   4   2 26130.7 1178.44  33
   7   4  -2 28306.7 1311.09  65
  -7   4   2 28182.3 1397.87  50
  -7   4   2 26576.5 1225.90  47
   7   4  -1 6641.30 540.778  72
   7   4  -1 8105.48 683.203  65
  -7   4   1 8380.84 619.265  33
  -7   4   1 8096.37 693.281  83
  -7   4   1 7625.09 584.334  47
  -7   4   0 24844.0 1118.45  33
  -7   4   0 25784.4 1279.62  83
   7   4   0 24010.3 1230.85  65
  -7   4  -1 36871.9 1543.17  50
   7   4   1 38484.6 1553.50  77
  -7   4  -1 41769.6 1636.12  83
   7   4   1 38243.4 1581.83  65
  -7   4  -2 2340.12 320.119  50
   7   4   2 1918.88 302.382  77
  -7   4  -3 3830.90 345.210  50
  -7   4  -3 4234.43 396.463  83
   7   4   3 4807.08 424.528  65
  -7   4  -4 633.639 121.107  83
   7   4   4 825.182 147.420  65
   7   5  -7 24397.3 989.873  85
  -7   5   6 2544.90 272.097  50
   7   5  -6 2904.31 342.965  72
  -7   5   5 16904.4 849.113  50
   7   5  -5 19825.7 975.236  72
  -7   5   4 1251.95 234.062  37
   7   5  -4 1440.23 258.519  72
  -7   5   4 1585.04 260.465  50
   7   5  -3 18433.0 933.960  72
  -7   5   3 18577.2 965.468  50
  -7   5   3 16767.6 832.076  83
  -7   5   3 18577.2 935.999  37
   7   5  -2 13867.2 749.067  72
  -7   5   2 12469.8 736.656  83
  -7   5   2 14909.0 848.587  50
   7   5  -1 9891.46 560.626  72
  -7   5   1 11899.2 747.901  50
  -7   5   1 10759.3 679.448  83
  -7   5   0 9474.00 643.560  50
  -7   5   0 10265.6 645.977  83
   7   5   0 8604.34 564.540  65
  -7   5  -1 1151.82 212.518  83
   7   5   1 1347.87 212.898  65
  -7   5  -2 26082.4 974.974  50
  -7   5  -2 25911.1 989.996  83
   7   5   2 25533.9 955.796  65
   7   6  -5 35.8227 46.7944  72
   7   6  -4 2620.07 257.191  72
   7   6  -3 819.921 136.525  72
   8  -3  -7 624.131 147.118  64
   8  -3  -6 11929.8 657.650  64
   8  -3  -6 10550.3 532.594  54
   8  -3  -5 18922.8 889.275  64
  -8  -3   5 19077.4 871.054  58
  -8  -3   4 10795.1 632.715  58
   8  -3  -4 10926.8 671.229  64
   8  -3  -4 9417.74 527.649  54
  -8  -3   3 20498.5 893.117  58
   8  -3  -3 21000.5 972.714  64
   8  -3  -3 21951.8 972.647  75
  -8  -3   3 20220.3 829.315  51
   8  -3  -2 17950.1 804.287  64
  -8  -3   2 16579.9 663.988  51
   8  -3  -1 8774.45 565.906  64
  -8  -3   1 7129.11 465.578  51
   8  -3   0 1068.03 181.253  64
  -8  -3   0 800.109 146.317  51
   8  -3   1 30675.4 1020.15  64
   8  -2  -9 2890.79 255.778  54
   8  -2  -8 16618.1 729.418  64
   8  -2  -8 17561.2 791.716  54
   8  -2  -7 9988.11 605.380  64
   8  -2  -7 11489.7 665.717  54
   8  -2  -6 2120.62 294.101  64
   8  -2  -6 2375.79 320.570  54
  -8  -2   6 1901.45 277.924  29
   8  -2  -5 21408.3 1086.49  75
  -8  -2   5 18017.4 921.124  29
   8  -2  -5 18818.3 948.629  64
   8  -2  -5 18613.0 951.415  54
  -8  -2   5 18283.4 916.888  46
  -8  -2   4 1556.28 283.897  58
   8  -2  -4 1511.03 263.371  64
   8  -2  -4 1404.25 279.017  75
   8  -2  -4 1382.55 262.476  54
  -8  -2   4 1536.07 249.284  46
  -8  -2   3 39558.1 1532.66  58
   8  -2  -3 38482.1 1484.79  64
   8  -2  -3 38057.8 1558.77  75
   8  -2  -3 41406.9 1520.97  54
  -8  -2   3 35569.5 1361.75  46
  -8  -2   2 6585.16 464.237  51
   8  -2  -2 7689.98 570.236  54
   8  -2  -2 7807.27 609.390  75
  -8  -2   2 7287.59 576.414  58
   8  -2  -2 6950.09 557.507  64
   8  -2  -1 10023.9 662.604  75
  -8  -2   1 9839.86 570.028  51
   8  -2  -1 9620.76 624.005  54
   8  -2  -1 10827.3 701.257  82
   8  -2  -1 10259.2 655.699  64
  -8  -2   1 9405.15 632.154  58
   8  -2   0 10475.6 622.609  75
  -8  -2   0 10208.7 562.934  51
   8  -2   0 10558.9 603.668  54
   8  -2   0 11416.4 697.518  82
  -8  -2   0 10446.6 612.734  58
   8  -2   0 10240.1 623.917  64
   8  -2   1 5475.14 340.120  75
  -8  -2  -1 6076.72 374.544  51
   8  -2   1 4993.86 334.768  54
   8  -2   2 15058.5 700.646  82
   8  -1  -9 6987.94 477.937  54
   8  -1  -8 1493.38 256.767  54
  -8  -1   7 37323.0 1399.05  29
   8  -1  -7 38080.1 1496.74  54
  -8  -1   7 37322.5 1412.34  46
   8  -1  -6 21076.7 1127.43  85
  -8  -1   6 21583.9 1028.34  29
   8  -1  -6 22855.4 1124.28  54
  -8  -1   6 20068.5 951.721  42
   8  -1  -6 22747.0 1131.61  75
   8  -1  -5 4855.54 517.722  85
   8  -1  -5 5138.58 522.236  54
  -8  -1   5 4720.16 419.112  42
  -8  -1   5 3806.62 417.854  46
   8  -1  -4 12192.4 824.366  85
  -8  -1   4 11389.8 730.856  29
  -8  -1   4 11864.4 828.722  58
   8  -1  -4 12018.5 821.499  54
  -8  -1   4 11073.7 709.959  46
   8  -1  -3 2534.49 362.343  85
   8  -1  -3 3108.59 430.924  75
   8  -1  -3 2747.64 397.220  54
  -8  -1   3 2473.84 310.640  46
  -8  -1   3 3155.89 369.670  29
  -8  -1   2 22010.0 1038.76  29
   8  -1  -2 24358.7 1234.19  75
   8  -1  -1 3375.38 422.002  75
   8  -1  -1 3334.32 407.026  54
   8  -1  -1 2238.82 321.075  82
  -8  -1   1 2996.05 384.157  58
   8  -1   0 2916.41 367.434  75
   8  -1   0 2546.44 338.814  54
   8  -1   0 2338.96 322.234  82
  -8  -1   0 2778.93 352.834  58
   8  -1   1 10546.0 640.934  75
   8  -1   1 9845.16 635.840  82
  -8  -1  -1 11391.3 663.261  58
   8  -1   2 5879.73 386.462  75
   8  -1   2 6919.57 471.792  82
   8  -1   2 7021.41 461.662  54
  -8   0   9 39154.2 1280.12  58
   8   0  -9 49950.4 1520.74  54
   8   0  -8 1542.54 265.584  85
   8   0  -7 18473.0 933.886  75
  -8   0   7 18705.2 933.654  29
  -8   0   6-38.9477 83.0719  58
   8   0  -6 38.8947 92.7503  75
   8   0  -6-43.8819 114.630  85
  -8   0   5 36043.0 1518.58  58
  -8   0   5 32595.4 1373.54  29
   8   0  -5 34924.0 1527.80  75
   8   0  -5 34641.6 1548.99  85
   8   0  -4 490.035 177.914  85
   8   0  -4 228.988 154.624  75
  -8   0   4 351.161 162.329  58
  -8   0   4 659.095 185.118  29
   8   0  -4 408.539 181.282  54
  -8   0   4 228.477 115.683  46
   8   0  -3 16658.0 961.352  85
  -8   0   3 16258.0 861.730  29
  -8   0   3 16048.8 978.458  58
   8   0  -3 15995.5 995.816  54
  -8   0   3 13792.1 774.938  46
   8   0  -2 2747.46 406.962  75
  -8   0   2 2771.98 333.558  29
   8   0  -2 3076.51 431.967  54
   8   0  -2 2855.01 369.754  85
  -8   0   2 2642.27 388.195  58
   8   0  -1 13081.6 860.305  54
   8   0  -1 12295.7 844.576  75
  -8   0   1 12398.6 831.180  58
   8   0   0 16268.9 944.263  75
  -8   0   0 16870.4 853.444  83
   8   0   1 41153.0 1551.50  75
  -8   0  -1 44017.4 1586.07  58
   8   0   2 16652.5 784.191  75
  -8   0  -2 16863.8 806.381  58
   8   1  -9 9431.85 526.289  54
  -8   1   8 2433.59 244.788  58
   8   1  -8 3104.01 359.113  85
   8   1  -8 2853.39 328.718  54
   8   1  -7 34967.0 1386.62  54
  -8   1   7 33005.7 1251.78  58
   8   1  -6 21482.2 1147.14  85
   8   1  -6 22847.3 1063.69  75
  -8   1   6 22350.8 1043.87  29
  -8   1   6 23180.0 1078.62  58
   8   1  -6 24402.5 1162.24  54
  -8   1   6 23133.5 1058.17  47
   8   1  -5 4055.16 486.752  85
   8   1  -5 5251.39 512.161  75
  -8   1   5 4351.27 432.780  29
  -8   1   5 4817.56 486.636  58
   8   1  -5 4911.30 520.931  54
  -8   1   5 4487.74 454.376  47
   8   1  -4 13419.6 866.700  75
  -8   1   4 11167.9 705.596  29
  -8   1   4 12026.6 810.878  58
   8   1  -4 13380.4 871.437  54
   8   1  -4 12119.3 844.217  85
   8   1  -3 2387.65 370.832  75
  -8   1   3 1985.04 278.353  29
  -8   1   3 2054.76 340.410  58
   8   1  -3 2028.01 351.376  54
   8   1  -3 2007.30 341.174  85
  -8   1   2 26026.8 1244.71  58
   8   1  -2 25366.8 1247.28  54
   8   1  -2 23514.4 1114.31  85
  -8   1   1 2745.21 380.270  58
   8   1  -1 2008.44 262.156  85
  -8   1   1 2452.35 350.802  83
  -8   1   0 2351.45 341.712  58
   8   1   0 2693.78 375.982  75
  -8   1   0 2427.52 324.802  83
  -8   1  -1 14705.3 822.663  58
  -8   1  -1 14637.9 737.956  83
   8   1   1 14426.6 820.779  75
   8   1   2 8626.18 557.082  75
   8   2  -8 18961.4 870.782  85
   8   2  -7 11961.5 693.783  85
  -8   2   7 9410.10 509.457  83
   8   2  -6 2084.47 333.064  85
  -8   2   6 1538.39 208.659  58
   8   2  -6 2202.38 293.881  54
  -8   2   6 1898.47 275.910  47
   8   2  -5 22309.9 1127.77  85
  -8   2   5 21093.2 953.643  29
  -8   2   5 20894.4 948.371  58
   8   2  -5 22761.4 1063.20  54
  -8   2   5 21346.0 1019.76  47
   8   2  -4 1803.43 312.290  85
  -8   2   4 1157.03 226.341  58
   8   2  -4 924.594 217.700  75
   8   2  -4 1550.86 273.284  54
  -8   2   4 1325.91 241.981  47
  -8   2   3 37974.8 1507.46  58
   8   2  -3 40122.1 1569.84  75
   8   2  -3 43007.2 1609.24  54
   8   2  -3 40919.3 1591.84  85
  -8   2   3 40084.4 1596.53  83
  -8   2   2 7087.06 577.076  58
   8   2  -2 8065.66 634.458  75
  -8   2   2 7575.05 585.422  50
   8   2  -2 7314.43 593.451  54
   8   2  -2 6585.57 540.549  85
  -8   2   2 7440.33 608.948  83
  -8   2   1 10751.6 700.832  58
   8   2  -1 10524.1 728.311  75
   8   2  -1 11399.6 726.746  54
  -8   2   1 9535.94 629.371  50
   8   2  -1 9952.96 586.722  85
  -8   2   0 13665.1 719.298  83
  -8   2   0 14260.8 736.298  58
   8   2   0 13669.7 727.790  54
   8   2   0 12960.0 739.342  75
  -8   2  -1 7396.59 502.089  83
   8   2   2 11649.3 622.546  75
   8   2   2 13070.2 614.839  54
   8   3  -7 380.079 118.055  85
  -8   3   6 7135.47 419.126  83
   8   3  -5 21903.1 1028.59  85
  -8   3   5 19829.5 876.980  83
  -8   3   4 6806.92 537.433  50
   8   3  -4 6515.54 537.371  85
  -8   3   4 6515.89 502.838  83
   8   3  -3 25639.2 1128.69  85
  -8   3   3 27206.8 1137.77  83
   8   3  -2 25789.2 1029.06  75
  -8   3   2 23402.0 1041.42  50
   8   3  -2 24252.8 1005.84  85
  -8   3   2 25809.1 1090.66  83
   8   3  -1 6056.99 462.979  75
   8   3  -1 4468.50 336.598  85
  -8   3   1 6064.29 482.724  83
  -8   3   1 5637.38 444.674  50
   8   3   0 1909.15 251.881  75
  -8   3   0 1513.44 202.600  50
  -8   3  -1 32982.2 1100.30  83
   8   3   1 31088.0 1090.04  75
   8   4  -6 8967.01 487.564  85
  -8   4   5 19479.5 816.884  50
   8   4  -5 27575.9 976.776  85
  -8   4   4 3062.86 297.043  50
   8   4  -4 3053.07 305.056  85
  -8   4   3 12903.7 653.610  50
   8   4  -3 14831.3 677.643  85
  -8   4   2 6880.40 418.208  83
  -8   4   1 5122.27 353.592  50
  -8   4   1 6147.13 380.126  83
   0   0   0    0.00    0.00   0
TITL exp_785 in P2(1)
REM P2(1) (#4 in standard setting)
CELL 1.54184   7.022583   7.958526  12.518805  90.0000 103.6447  90.0000
ZERR    2.00   0.000049   0.000047   0.000096   0.0000   0.0007   0.0000
LATT -1
SYMM -x, y+1/2,-z
SFAC C H N O Cl
UNIT 26.00 44.00 4.00 8.00 4.00
TREF
HKLF 4
END
;
_shelx_hkl_checksum              67055
_shelx_res_file
;
TITL KM-417
    shelx.res
    created by SHELXL-2018/3 at 22:07:39 on 02-Jun-2020
CELL  1.54184   7.0226   7.9585  12.5188   90.000  103.645   90.000
ZERR     2.00   0.0001   0.0001   0.0001    0.000    0.001    0.000
LATT  -1
SYMM  - X, 1/2 + Y, - Z
SFAC  C    H    CL   N    O
UNIT  26 44 2 2 4
OMIT     3   8   0
EQIV $1 -x+1, y+1/2, -z+1
HTAB C4 O1_$1
HTAB C2 O1_$1
EQIV $2 -x, y+1/2, -z+1
HTAB C3 Cl1_$2
HTAB N1 Cl1
HTAB N1 O2
HTAB N1 O1
HTAB O1 Cl1_$1
HTAB C4 O1_$1
HTAB C2 O1_$1
HTAB C3 Cl1_$2
HTAB N1 Cl1
HTAB N1 O2
HTAB N1 O1
HTAB O1 Cl1_$1
FMAP   2
PLAN    5
SIZE     0.121   0.178   0.235
ACTA
BOND   $H
CONF
L.S.  15
TEMP  -173.00
WGHT    0.034200    0.112400
EXTI    0.014996
FVAR      14.55268
C1    1    0.375574    0.360565    0.552512    11.00000    0.02424    0.02193 =
         0.01623    0.00225    0.00434   -0.00042
AFIX  23
H1A   2    0.375431    0.390983    0.629173    11.00000   -1.20000
H1B   2    0.329735    0.243000    0.539851    11.00000   -1.20000
AFIX   0
C2    1    0.237381    0.476891    0.473216    11.00000    0.01995    0.01754 =
         0.01297   -0.00123    0.00684   -0.00038
AFIX  13
H13   2    0.268072    0.596059    0.496292    11.00000   -1.20000
AFIX   0
C3    1    0.022910    0.442300    0.468769    11.00000    0.02059    0.02886 =
         0.02204   -0.00150    0.01072   -0.00097
AFIX 137
H3A   2   -0.059321    0.518021    0.415443    11.00000   -1.50000
H3B   2   -0.002288    0.461033    0.541576    11.00000   -1.50000
H3C   2   -0.008017    0.325531    0.446418    11.00000   -1.50000
AFIX   0
C4    1    0.203974    0.576981    0.276705    11.00000    0.01390    0.01564 =
         0.01440    0.00136    0.00391    0.00133
AFIX  23
H4A   2    0.221796    0.691228    0.308802    11.00000   -1.20000
H4B   2    0.062260    0.558154    0.246011    11.00000   -1.20000
AFIX   0
C5    1    0.314185    0.560475    0.187224    11.00000    0.01287    0.01977 =
         0.01434   -0.00048    0.00216   -0.00019
AFIX  23
H5A   2    0.291650    0.448179    0.152517    11.00000   -1.20000
H5B   2    0.269534    0.646878    0.129893    11.00000   -1.20000
AFIX   0
C6    1    0.637264    0.540304    0.166580    11.00000    0.01200    0.01735 =
         0.01262   -0.00172    0.00279   -0.00035
C7    1    0.701364    0.373715    0.165951    11.00000    0.01374    0.01512 =
         0.01469   -0.00021    0.00251   -0.00191
C8    1    0.812667    0.331335    0.090926    11.00000    0.01491    0.01438 =
         0.01928   -0.00215    0.00409    0.00084
AFIX  43
H8    2    0.860190    0.219817    0.089374    11.00000   -1.20000
AFIX   0
C9    1    0.854680    0.450484    0.018511    11.00000    0.01417    0.02093 =
         0.01486   -0.00246    0.00491   -0.00092
AFIX  43
H9    2    0.924947    0.418889   -0.034544    11.00000   -1.20000
AFIX   0
C10   1    0.793846    0.615684    0.023807    11.00000    0.01518    0.01740 =
         0.01500    0.00249    0.00415   -0.00282
AFIX  43
H10   2    0.824855    0.696656   -0.025223    11.00000   -1.20000
AFIX   0
C11   1    0.687862    0.664840    0.099972    11.00000    0.01297    0.01608 =
         0.01452    0.00027    0.00107   -0.00100
C12   1    0.652845    0.244564    0.243654    11.00000    0.01755    0.01565 =
         0.02145    0.00242    0.00733    0.00029
AFIX 137
H12A  2    0.651897    0.298171    0.314001    11.00000   -1.50000
H12B  2    0.751649    0.155223    0.255604    11.00000   -1.50000
H12C  2    0.523467    0.196388    0.211840    11.00000   -1.50000
AFIX   0
C13   1    0.640251    0.847171    0.112848    11.00000    0.02130    0.01421 =
         0.02042    0.00157    0.00595   -0.00028
AFIX 137
H13A  2    0.529811    0.855627    0.147979    11.00000   -1.50000
H13B  2    0.605210    0.900709    0.040353    11.00000   -1.50000
H13C  2    0.754755    0.903803    0.158590    11.00000   -1.50000
AFIX   0
CL1   3    0.172637    0.082531    0.282803    11.00000    0.01893    0.01711 =
         0.01893    0.00074    0.00483    0.00029
N1    4    0.282258    0.449210    0.362889    11.00000    0.01490    0.01512 =
         0.01446   -0.00044    0.00571    0.00103
O1    5    0.569340    0.374526    0.536532    11.00000    0.02000    0.02556 =
         0.01998   -0.00302    0.00059    0.00207
O2    5    0.519125    0.583140    0.238363    11.00000    0.01231    0.01726 =
         0.01312   -0.00223    0.00396    0.00004
H1O   2    0.637128    0.437317    0.583058    11.00000    0.04528
H1AN  2    0.248041    0.341411    0.340387    11.00000    0.02427
H2BN  2    0.409168    0.451409    0.371529    11.00000    0.02752
HKLF 4
REM  KM-417
REM wR2 = 0.0578, GooF = S = 1.068, Restrained GooF = 1.068 for all data
REM R1 = 0.0218 for 2771 Fo > 4sig(Fo) and 0.0222 for all 2786 data
REM 170 parameters refined using 1 restraints
END
WGHT      0.0342      0.1124
REM Highest difference peak  0.273,  deepest hole -0.158,  1-sigma level  0.033
Q1    1   0.2725  0.5772  0.2391  11.00000  0.05    0.27
Q2    1   0.6856  0.3092  0.2019  11.00000  0.05    0.21
Q3    1   0.3084  0.4251  0.5159  11.00000  0.05    0.18
Q4    1   0.7328  0.6337  0.0578  11.00000  0.05    0.16
Q5    1   0.2445  0.5243  0.3242  11.00000  0.05    0.16
;
_shelx_res_checksum              99009
loop_
_symmetry_equiv_pos_as_xyz
'x, y, z'
'-x, y+1/2, -z'
loop_
_atom_site_type_symbol
_atom_site_label
_atom_site_fract_x
_atom_site_fract_y
_atom_site_fract_z
_atom_site_U_iso_or_equiv
_atom_site_adp_type
_atom_site_calc_flag
_atom_site_occupancy
_atom_site_disorder_assembly
_atom_site_disorder_group
C C1 0.3756(3) 0.3606(2) 0.55251(15) 0.0209(4) Uani d 1 . .
H H1A 0.375431 0.390983 0.629173 0.025 Uiso calc 1 . .
H H1B 0.329735 0.243 0.539851 0.025 Uiso calc 1 . .
C C2 0.2374(3) 0.4769(2) 0.47322(14) 0.0163(4) Uani d 1 . .
H H13 0.268072 0.596059 0.496292 0.02 Uiso calc 1 . .
C C3 0.0229(3) 0.4423(3) 0.46877(16) 0.0229(4) Uani d 1 . .
H H3A -0.059321 0.518021 0.415443 0.034 Uiso calc 1 . .
H H3B -0.002288 0.461033 0.541576 0.034 Uiso calc 1 . .
H H3C -0.008017 0.325531 0.446418 0.034 Uiso calc 1 . .
C C4 0.2040(2) 0.5770(3) 0.27671(12) 0.0146(3) Uani d 1 . .
H H4A 0.221796 0.691228 0.308802 0.017 Uiso calc 1 . .
H H4B 0.06226 0.558154 0.246011 0.017 Uiso calc 1 . .
C C5 0.3142(2) 0.5605(2) 0.18722(13) 0.0158(3) Uani d 1 . .
H H5A 0.29165 0.448179 0.152517 0.019 Uiso calc 1 . .
H H5B 0.269534 0.646878 0.129893 0.019 Uiso calc 1 . .
C C6 0.6373(2) 0.5403(2) 0.16658(14) 0.0140(4) Uani d 1 . .
C C7 0.7014(2) 0.3737(2) 0.16595(14) 0.0147(3) Uani d 1 . .
C C8 0.8127(2) 0.3313(2) 0.09093(14) 0.0162(3) Uani d 1 . .
H H8 0.86019 0.219817 0.089374 0.019 Uiso calc 1 . .
C C9 0.8547(3) 0.4505(2) 0.01851(14) 0.0164(3) Uani d 1 . .
H H9 0.924947 0.418889 -0.034544 0.02 Uiso calc 1 . .
C C10 0.7938(2) 0.6157(2) 0.02381(14) 0.0158(4) Uani d 1 . .
H H10 0.824855 0.696656 -0.025223 0.019 Uiso calc 1 . .
C C11 0.6879(2) 0.6648(2) 0.09997(15) 0.0149(3) Uani d 1 . .
C C12 0.6528(3) 0.2446(2) 0.24365(15) 0.0178(4) Uani d 1 . .
H H12A 0.651897 0.298171 0.314001 0.027 Uiso calc 1 . .
H H12B 0.751649 0.155223 0.255604 0.027 Uiso calc 1 . .
H H12C 0.523467 0.196388 0.21184 0.027 Uiso calc 1 . .
C C13 0.6403(3) 0.8472(2) 0.11285(15) 0.0185(4) Uani d 1 . .
H H13A 0.529811 0.855627 0.147979 0.028 Uiso calc 1 . .
H H13B 0.60521 0.900709 0.040353 0.028 Uiso calc 1 . .
H H13C 0.754755 0.903803 0.15859 0.028 Uiso calc 1 . .
Cl Cl1 0.17264(5) 0.08253(5) 0.28280(3) 0.01826(12) Uani d 1 . .
N N1 0.2823(2) 0.44921(19) 0.36289(12) 0.0145(3) Uani d 1 . .
O O1 0.56934(19) 0.37453(18) 0.53653(11) 0.0225(3) Uani d 1 . .
O O2 0.51912(15) 0.58314(18) 0.23836(8) 0.0141(2) Uani d 1 . .
H H1O 0.637(4) 0.437(4) 0.583(3) 0.045(8) Uiso d 1 . .
H H1AN 0.248(3) 0.341(4) 0.3404(19) 0.024(6) Uiso d 1 . .
H H2BN 0.409(4) 0.451(3) 0.372(2) 0.028(6) Uiso d 1 . .
loop_
_atom_site_aniso_label
_atom_site_aniso_U_11
_atom_site_aniso_U_22
_atom_site_aniso_U_33
_atom_site_aniso_U_12
_atom_site_aniso_U_13
_atom_site_aniso_U_23
C1 0.0242(9) 0.0219(9) 0.0162(8) -0.0004(7) 0.0043(7) 0.0022(7)
C2 0.0200(9) 0.0175(8) 0.0130(8) -0.0004(7) 0.0068(6) -0.0012(7)
C3 0.0206(9) 0.0289(10) 0.0220(9) -0.0010(8) 0.0107(7) -0.0015(8)
C4 0.0139(7) 0.0156(7) 0.0144(7) 0.0013(8) 0.0039(5) 0.0014(8)
C5 0.0129(7) 0.0198(9) 0.0143(7) -0.0002(7) 0.0022(6) -0.0005(7)
C6 0.0120(7) 0.0174(9) 0.0126(8) -0.0004(6) 0.0028(6) -0.0017(6)
C7 0.0137(7) 0.0151(8) 0.0147(8) -0.0019(6) 0.0025(6) -0.0002(7)
C8 0.0149(7) 0.0144(8) 0.0193(8) 0.0008(6) 0.0041(6) -0.0022(7)
C9 0.0142(8) 0.0209(9) 0.0149(8) -0.0009(6) 0.0049(6) -0.0025(7)
C10 0.0152(8) 0.0174(10) 0.0150(8) -0.0028(6) 0.0041(6) 0.0025(6)
C11 0.0130(7) 0.0161(8) 0.0145(8) -0.0010(7) 0.0011(6) 0.0003(7)
C12 0.0176(8) 0.0156(8) 0.0215(9) 0.0003(6) 0.0073(6) 0.0024(7)
C13 0.0213(8) 0.0142(8) 0.0204(8) -0.0003(7) 0.0059(7) 0.0016(7)
Cl1 0.01893(19) 0.01711(19) 0.0189(2) 0.00029(16) 0.00483(13) 0.00074(17)
N1 0.0149(7) 0.0151(7) 0.0145(7) 0.0010(6) 0.0057(5) -0.0004(6)
O1 0.0200(6) 0.0256(7) 0.0200(6) 0.0021(5) 0.0006(5) -0.0030(5)
O2 0.0123(5) 0.0173(5) 0.0131(5) 0.0000(5) 0.0040(4) -0.0022(6)
loop_
_atom_type_symbol
_atom_type_description
_atom_type_scat_dispersion_real
_atom_type_scat_dispersion_imag
_atom_type_scat_source
C C 0.0181 0.0091 'International Tables Vol C Tables 4.2.6.8 and 6.1.1.4'
H H 0 0 'International Tables Vol C Tables 4.2.6.8 and 6.1.1.4'
Cl Cl 0.3639 0.7018 'International Tables Vol C Tables 4.2.6.8 and 6.1.1.4'
N N 0.0311 0.018 'International Tables Vol C Tables 4.2.6.8 and 6.1.1.4'
O O 0.0492 0.0322 'International Tables Vol C Tables 4.2.6.8 and 6.1.1.4'
loop_
_exptl_crystal_face_index_h
_exptl_crystal_face_index_k
_exptl_crystal_face_index_l
_exptl_crystal_face_perp_dist
0 -2 -3 0.0245
0 0 -1 0.0448
0 0 1 0.076
1 0 1 0.0524
-1 0 0 0.0682
0 1 0 0.0818
-1 0 5 0.0866
-1 -3 5 0.1111
-2 -1 2 0.1023
-4 2 3 0.0903
loop_
_geom_angle_atom_site_label_1
_geom_angle_atom_site_label_2
_geom_angle_atom_site_label_3
_geom_angle_site_symmetry_1
_geom_angle_site_symmetry_3
_geom_angle
_geom_angle_publ_flag
O1 C1 C2 . . 110.06(15) ?
O1 C1 H1A . . 109.6 ?
C2 C1 H1A . . 109.6 ?
O1 C1 H1B . . 109.6 ?
C2 C1 H1B . . 109.6 ?
H1A C1 H1B . . 108.2 ?
N1 C2 C3 . . 111.14(14) ?
N1 C2 C1 . . 105.64(14) ?
C3 C2 C1 . . 112.75(16) ?
N1 C2 H13 . . 109.1 ?
C3 C2 H13 . . 109.1 ?
C1 C2 H13 . . 109.1 ?
C2 C3 H3A . . 109.5 ?
C2 C3 H3B . . 109.5 ?
H3A C3 H3B . . 109.5 ?
C2 C3 H3C . . 109.5 ?
H3A C3 H3C . . 109.5 ?
H3B C3 H3C . . 109.5 ?
N1 C4 C5 . . 108.16(14) ?
N1 C4 H4A . . 110.1 ?
C5 C4 H4A . . 110.1 ?
N1 C4 H4B . . 110.1 ?
C5 C4 H4B . . 110.1 ?
H4A C4 H4B . . 108.4 ?
O2 C5 C4 . . 107.00(12) ?
O2 C5 H5A . . 110.3 ?
C4 C5 H5A . . 110.3 ?
O2 C5 H5B . . 110.3 ?
C4 C5 H5B . . 110.3 ?
H5A C5 H5B . . 108.6 ?
C11 C6 C7 . . 122.81(16) ?
C11 C6 O2 . . 118.92(15) ?
C7 C6 O2 . . 118.26(15) ?
C8 C7 C6 . . 117.62(16) ?
C8 C7 C12 . . 121.08(16) ?
C6 C7 C12 . . 121.30(15) ?
C9 C8 C7 . . 120.78(17) ?
C9 C8 H8 . . 119.6 ?
C7 C8 H8 . . 119.6 ?
C10 C9 C8 . . 119.96(16) ?
C10 C9 H9 . . 120 ?
C8 C9 H9 . . 120 ?
C9 C10 C11 . . 121.14(16) ?
C9 C10 H10 . . 119.4 ?
C11 C10 H10 . . 119.4 ?
C6 C11 C10 . . 117.47(15) ?
C6 C11 C13 . . 121.77(16) ?
C10 C11 C13 . . 120.69(16) ?
C7 C12 H12A . . 109.5 ?
C7 C12 H12B . . 109.5 ?
H12A C12 H12B . . 109.5 ?
C7 C12 H12C . . 109.5 ?
H12A C12 H12C . . 109.5 ?
H12B C12 H12C . . 109.5 ?
C11 C13 H13A . . 109.5 ?
C11 C13 H13B . . 109.5 ?
H13A C13 H13B . . 109.5 ?
C11 C13 H13C . . 109.5 ?
H13A C13 H13C . . 109.5 ?
H13B C13 H13C . . 109.5 ?
C4 N1 C2 . . 116.34(14) ?
C4 N1 H1AN . . 113.0(15) ?
C2 N1 H1AN . . 108.8(15) ?
C4 N1 H2BN . . 105.5(17) ?
C2 N1 H2BN . . 108.2(16) ?
H1AN N1 H2BN . . 104(2) ?
C1 O1 H1O . . 111(2) ?
C6 O2 C5 . . 111.39(12) ?
loop_
_geom_bond_atom_site_label_1
_geom_bond_atom_site_label_2
_geom_bond_site_symmetry_2
_geom_bond_distance
_geom_bond_publ_flag
C1 O1 . 1.426(2) ?
C1 C2 . 1.526(2) ?
C1 H1A . 0.99 ?
C1 H1B . 0.99 ?
C2 N1 . 1.504(2) ?
C2 C3 . 1.519(2) ?
C2 H13 . 1 ?
C3 H3A . 0.98 ?
C3 H3B . 0.98 ?
C3 H3C . 0.98 ?
C4 N1 . 1.490(2) ?
C4 C5 . 1.510(2) ?
C4 H4A . 0.99 ?
C4 H4B . 0.99 ?
C5 O2 . 1.4419(18) ?
C5 H5A . 0.99 ?
C5 H5B . 0.99 ?
C6 C11 . 1.394(2) ?
C6 C7 . 1.401(2) ?
C6 O2 . 1.401(2) ?
C7 C8 . 1.398(2) ?
C7 C12 . 1.508(2) ?
C8 C9 . 1.391(3) ?
C8 H8 . 0.95 ?
C9 C10 . 1.389(3) ?
C9 H9 . 0.95 ?
C10 C11 . 1.397(3) ?
C10 H10 . 0.95 ?
C11 C13 . 1.506(2) ?
C12 H12A . 0.98 ?
C12 H12B . 0.98 ?
C12 H12C . 0.98 ?
C13 H13A . 0.98 ?
C13 H13B . 0.98 ?
C13 H13C . 0.98 ?
N1 H1AN . 0.92(3) ?
N1 H2BN . 0.87(3) ?
O1 H1O . 0.83(3) ?
loop_
_geom_hbond_atom_site_label_D
_geom_hbond_atom_site_label_H
_geom_hbond_atom_site_label_A
_geom_hbond_site_symmetry_A
_geom_hbond_distance_DH
_geom_hbond_distance_HA
_geom_hbond_distance_DA
_geom_hbond_angle_DHA
_geom_hbond_publ_flag
N1 H1AN Cl1 . 0.92(3) 2.21(3) 3.122(2) 178(2) yes
N1 H2BN O2 . 0.87(3) 2.25(3) 2.749(2) 116(2) yes
N1 H2BN O1 . 0.87(3) 2.19(2) 2.660(2) 113(2) yes
O1 H1O Cl1 2_656 0.83(3) 2.21(3) 3.034(2) 174(3) yes
C2 H13 O1 2_656 1 2.57 3.457(2) 147.7 yes
C3 H3B Cl1 2_556 0.98 2.91 3.850(2) 162.1 yes
C4 H4A O1 2_656 0.99 2.59 3.443(2) 144.8 yes
loop_
_geom_torsion_atom_site_label_1
_geom_torsion_atom_site_label_2
_geom_torsion_atom_site_label_3
_geom_torsion_atom_site_label_4
_geom_torsion_site_symmetry_1
_geom_torsion_site_symmetry_2
_geom_torsion_site_symmetry_3
_geom_torsion_site_symmetry_4
_geom_torsion
_geom_torsion_publ_flag
O1 C1 C2 N1 . . . . 46.40(19) ?
O1 C1 C2 C3 . . . . 167.97(15) ?
N1 C4 C5 O2 . . . . -57.64(19) ?
C11 C6 C7 C8 . . . . -3.2(2) ?
O2 C6 C7 C8 . . . . 177.55(14) ?
C11 C6 C7 C12 . . . . 176.58(15) ?
O2 C6 C7 C12 . . . . -2.7(2) ?
C6 C7 C8 C9 . . . . -1.1(2) ?
C12 C7 C8 C9 . . . . 179.14(16) ?
C7 C8 C9 C10 . . . . 3.1(3) ?
C8 C9 C10 C11 . . . . -0.9(3) ?
C7 C6 C11 C10 . . . . 5.3(2) ?
O2 C6 C11 C10 . . . . -175.51(14) ?
C7 C6 C11 C13 . . . . -171.59(17) ?
O2 C6 C11 C13 . . . . 7.6(2) ?
C9 C10 C11 C6 . . . . -3.1(2) ?
C9 C10 C11 C13 . . . . 173.78(15) ?
C5 C4 N1 C2 . . . . 162.26(15) ?
C3 C2 N1 C4 . . . . 72.16(19) ?
C1 C2 N1 C4 . . . . -165.24(14) ?
C11 C6 O2 C5 . . . . 91.09(18) ?
C7 C6 O2 C5 . . . . -89.64(18) ?
C4 C5 O2 C6 . . . . 169.26(15) ?

_cod_database_fobs_code 2022169
