#------------------------------------------------------------------------------
#$Date: 2020-09-30 07:43:55 +0300 (Wed, 30 Sep 2020) $
#$Revision: 256848 $
#$URL: file:///home/coder/svn-repositories/cod/cif/2/02/22/2022261.cif $
#------------------------------------------------------------------------------
#
# This file is available in the Crystallography Open Database (COD),
# http://www.crystallography.net/. The original data for this entry
# were provided by IUCr Journals, http://journals.iucr.org/.
#
# The file may be used within the scientific community so long as
# proper attribution is given to the journal article from which the
# data were obtained.
#
data_2022261
loop_
_publ_author_name
'Grze\'skiewicz, Anita M.'
'Ostrowska, Agata'
'Borzylo, Dmytro'
'Kubicki, Maciej'
_publ_section_title
;
 When solvent becomes reactant: a study of 6-aminothiocytosine derivatives
;
_journal_coeditor_code           ZO3006
_journal_issue                   10
_journal_name_full               'Acta Crystallographica Section C'
_journal_page_first              992
_journal_page_last               999
_journal_paper_doi               10.1107/S2053229620012504
_journal_volume                  76
_journal_year                    2020
_chemical_formula_iupac          '[K (C4 H5 N4 O2 S)]'
_chemical_formula_moiety         'K +, C4 H5 N4 O2 S -'
_chemical_formula_sum            'C4 H5 K N4 O2 S'
_chemical_formula_weight         212.28
_chemical_name_systematic
;
Poly[(\m-4,6-diaminopyrimidine-2-sulfinato)potassium(I)]
;
_space_group_crystal_system      triclinic
_space_group_IT_number           2
_space_group_name_Hall           '-P 1'
_space_group_name_H-M_alt        'P -1'
_atom_sites_solution_hydrogens   geom
_audit_creation_method           SHELXL-2014/7
_cell_angle_alpha                103.021(10)
_cell_angle_beta                 111.568(11)
_cell_angle_gamma                106.007(10)
_cell_formula_units_Z            2
_cell_length_a                   6.9631(8)
_cell_length_b                   8.0350(10)
_cell_length_c                   8.0886(10)
_cell_measurement_reflns_used    1084
_cell_measurement_temperature    295(2)
_cell_measurement_theta_max      26.5880
_cell_measurement_theta_min      3.3180
_cell_volume                     376.56(10)
_computing_cell_refinement
;
CrysAlis PRO (Rigaku OD, 2015)
;
_computing_data_collection
;
CrysAlis PRO (Rigaku OD, 2015)
;
_computing_data_reduction
;
CrysAlis PRO (Rigaku OD, 2015)
;
_computing_molecular_graphics
;
Mercury (Macrae <i>et al.</i>,  2020)
;
_computing_publication_material
;
SHELXL2014 (Sheldrick, 2015b)
;
_computing_structure_refinement
;
SHELXL2014 (Sheldrick, 2015b)
;
_computing_structure_solution
;
SHELXT (Sheldrick, 2015a)
;
_diffrn_ambient_temperature      295(2)
_diffrn_detector                 'CCD plate'
_diffrn_detector_area_resol_mean 16.2413
_diffrn_measured_fraction_theta_full 0.998
_diffrn_measured_fraction_theta_max 0.921
_diffrn_measurement_device       'four-circle diffractometer'
_diffrn_measurement_device_type  'Rigaku Xcalibur Eos'
_diffrn_measurement_method       '\w scans'
_diffrn_radiation_monochromator  graphite
_diffrn_radiation_probe          x-ray
_diffrn_radiation_type           'Mo K\a'
_diffrn_radiation_wavelength     0.71073
_diffrn_reflns_av_R_equivalents  0.0137
_diffrn_reflns_av_unetI/netI     0.0264
_diffrn_reflns_limit_h_max       8
_diffrn_reflns_limit_h_min       -8
_diffrn_reflns_limit_k_max       10
_diffrn_reflns_limit_k_min       -10
_diffrn_reflns_limit_l_max       10
_diffrn_reflns_limit_l_min       -9
_diffrn_reflns_number            2466
_diffrn_reflns_theta_full        25.000
_diffrn_reflns_theta_max         27.016
_diffrn_reflns_theta_min         3.236
_diffrn_source                   'fine-focus sealed X-ray tube'
_exptl_absorpt_coefficient_mu    0.942
_exptl_absorpt_correction_T_max  1.00000
_exptl_absorpt_correction_T_min  0.85275
_exptl_absorpt_correction_type   multi-scan
_exptl_absorpt_process_details
;
(CrysAlis PRO; Rigaku OD, 2015)
;
_exptl_crystal_colour            yellow
_exptl_crystal_density_diffrn    1.872
_exptl_crystal_description       plate
_exptl_crystal_F_000             216
_exptl_crystal_size_max          0.25
_exptl_crystal_size_mid          0.2
_exptl_crystal_size_min          0.06
_refine_diff_density_max         0.321
_refine_diff_density_min         -0.304
_refine_ls_extinction_method     none
_refine_ls_goodness_of_fit_ref   1.081
_refine_ls_hydrogen_treatment    constr
_refine_ls_matrix_type           full
_refine_ls_number_parameters     109
_refine_ls_number_reflns         1507
_refine_ls_number_restraints     0
_refine_ls_restrained_S_all      1.081
_refine_ls_R_factor_all          0.0388
_refine_ls_R_factor_gt           0.0329
_refine_ls_shift/su_max          0.000
_refine_ls_shift/su_mean         0.000
_refine_ls_structure_factor_coef Fsqd
_refine_ls_weighting_details
'w=1/[\s^2^(Fo^2^)+(0.0408P)^2^+0.2579P] where P=(Fo^2^+2Fc^2^)/3'
_refine_ls_weighting_scheme      calc
_refine_ls_wR_factor_gt          0.0852
_refine_ls_wR_factor_ref         0.0896
_reflns_number_gt                1321
_reflns_number_total             1507
_reflns_threshold_expression     'I > 2\s(I)'
_cod_data_source_file            zo3006sup1.cif
_cod_data_source_block           4
_cod_original_cell_volume        376.56(9)
_cod_database_code               2022261
_shelx_space_group_comment
;
The symmetry employed for this shelxl refinement is uniquely defined
by the following loop, which should always be used as a source of
symmetry information in preference to the above space-group names.
They are only intended as comments.
;
_shelx_hkl_file
;
   0   0   2 104876. 1311.40   2
   0   0  -2 105219. 1296.90   7
   0   0   3 186833. 2251.17   2
   0   0  -3 191046. 1977.93   5
   0   0  -3 191525. 2236.58   7
   0   0   4 138654. 2052.31   2
   0   0  -4 138373. 1727.47   5
   0   0  -4 138902. 2023.53   7
   0   0  -5 2668.26 287.423   7
   0   0   5 2683.08 294.174   2
   0   0   6 53438.4 1463.90   2
   0   0  -6 51887.3 1399.45   7
   0   0  -7 325.038 177.625   7
   0   0  -8 4434.61 477.117   7
   0   1  -8-40.2190 153.309   7
   0   1  -7 8411.59 590.179   7
   0   1  -6 392.240 170.892   7
   0  -1   6 439.094 171.908   2
   0   1  -5 104531. 1656.05   6
   0  -1   5 105873. 1886.95   2
   0   1  -5 107764. 1640.24   5
   0   1  -5 104471. 1836.48   7
   0   1  -4 3715.18 248.303   6
   0   1  -4 3476.25 237.197   5
   0  -1   4 3686.69 285.133   2
   0   1  -4 3835.05 284.312   7
   0   1  -3 91384.8 1249.11   6
   0  -1   3 92012.8 1368.15   2
   0   1  -3 91389.5 1241.18   5
   0   1  -3 92380.8 1325.54   7
   0   1  -2 143770. 1565.12   5
   0  -1   2 147215. 1611.58   2
   0  -1   2 148746. 2375.43   9
   0  -1   1 39860.9 927.926   9
   0  -1  -1 17920.6 680.232   3
   0   1   1 19131.9 702.721   3
   0  -1  -1 19684.4 420.018   8
   0  -1  -2 149.116 58.7766   5
   0  -1  -2 453.736 193.431   3
   0  -1  -2 257.616 94.4753   8
   0   1   2 295.258 81.2743   2
   0  -1  -2 180.711 71.0289   7
   0  -1  -3 34717.5 813.803   7
   0  -1  -3 34417.0 1353.25   3
   0  -1  -3 33640.5 659.193   5
   0   1   3 34337.6 822.626   2
   0  -1  -4 34432.9 742.258   5
   0   1   4 34258.3 950.835   2
   0  -1  -4 35252.8 937.153   7
   0  -1  -5 48848.7 1259.19   7
   0   1   5 47488.7 1278.82   2
   0  -1  -6 2466.32 317.688   7
   0   1   6 2002.28 293.264   2
   0  -1  -7 168.553 174.550   7
   0   2  -9 284.605 178.926   7
   0   2  -8 8146.47 620.167   7
   0   2  -7 22422.8 936.692   7
   0   2  -6 86900.9 1645.42   6
   0   2  -6 80840.3 1704.98   7
   0   2  -6 89450.3 1637.59   5
   0  -2   6 84103.7 1800.58   2
   0  -2   5 79409.7 1561.20   2
   0   2  -5 79883.0 1450.16   6
   0   2  -5 79221.6 1433.92   5
   0   2  -5 77065.4 1483.56   7
   0   2  -4 5223.38 317.853   5
   0   2  -4 4959.76 305.215   6
   0   2  -4 4668.58 296.800   7
   0  -2   4 4969.12 324.046   2
   0  -2   3 23052.0 1101.04   9
   0  -2   3 23539.6 611.516   2
   0   2  -3 23669.6 523.870  14
   0   2  -3 23816.7 623.831   5
   0   2  -2 174444. 1937.04   5
   0  -2   2 172323. 1787.93   2
   0   2  -2 170660. 2904.34   9
   0   2  -1 11871.4 341.691   5
   0  -2   0 569691. 4777.53   5
   0  -2  -1 128941. 1435.50   5
   0   2   1 127574. 1562.19   4
   0  -2  -1 127984. 1591.18   8
   0   2   1 128097. 2370.17   3
   0  -2  -1 128282. 1406.57   7
   0  -2  -1 130027. 1498.41  13
   0   2   2 7928.67 331.614   2
   0  -2  -2 8470.57 380.335   8
   0  -2  -2 7673.65 326.291   7
   0  -2  -2 7991.50 325.202  13
   0   2   2 7174.23 602.888   3
   0  -2  -2 7778.48 639.072   3
   0  -2  -2 8023.73 305.454   5
   0   2   2 7392.67 345.215   4
   0   2   3 50183.4 1059.98   2
   0  -2  -3 50946.2 909.764   5
   0  -2  -3 51792.6 1108.25   8
   0  -2  -3 50102.0 1048.75   7
   0   2   4 76956.2 1538.30   2
   0  -2  -4 78160.7 1505.75   7
   0  -2  -5 2015.02 265.925   7
   0   2   5 2200.57 284.982   2
   0  -2  -6 1338.55 259.474   7
   0   2   7 12717.6 744.478   4
   0   2   8 2797.26 414.146   4
   0   3  -9-125.558 195.337   7
   0   3  -8 209.832 140.409   6
   0   3  -8 313.182 167.306   7
   0   3  -7 17266.2 794.221   7
   0   3  -7 17086.3 790.999   6
   0   3  -6 4662.58 367.757   5
   0   3  -6 3805.37 347.669   6
   0   3  -6 3866.85 350.298   7
   0   3  -5 4302.12 337.851   6
   0   3  -5 3879.39 319.336   5
   0   3  -5 4277.13 321.494   7
   0  -3   5 4326.38 336.643   2
   0   3  -4 3494.53 230.406  14
   0   3  -4 3631.47 249.830   7
   0  -3   4 3586.36 272.372   2
   0   3  -4 3338.31 278.290   5
   0   3  -3 20301.1 1115.74   9
   0   3  -3 18773.3 601.502   5
   0   3  -2 2807.82 216.001   5
   0   3  -1 209273. 2276.57   5
   0  -3   0 23674.0 574.819   5
   0  -3  -1 2694.07 225.048   8
   0   3   1 2391.06 213.568   4
   0   3   1 1941.41 334.244   3
   0   3   1 2108.36 141.175   2
   0  -3  -1 2348.00 184.019   5
   0  -3  -1 2491.94 200.563  13
   0  -3  -1 2354.02 168.634  11
   0   3   2 49069.0 1057.04   4
   0  -3  -2 50078.5 929.449   5
   0  -3  -2 50260.5 1097.77   8
   0  -3  -2 48839.5 978.047  13
   0   3   2 47311.4 920.398   2
   0   3   3 17222.7 672.658   4
   0   3   3 16207.7 611.214   2
   0  -3  -3 17703.8 619.452   7
   0  -3  -3 17123.8 695.473   8
   0  -3  -3 17150.4 595.443  13
   0   3   4 17375.6 722.685   4
   0   3   4 17277.5 716.374   2
   0  -3  -4 16430.4 676.501   7
   0   3   5 30585.9 1053.29   4
   0   3   6 202.055 139.595   4
   0   3   7 560.605 241.496   4
   0   4  -9 3063.59 409.238   6
   0   4  -8 7926.08 591.188   6
   0   4  -7 1849.85 280.309   6
   0   4  -7 1821.27 272.306   7
   0   4  -7 2316.00 302.886   5
   0   4  -6 21061.3 769.760   7
   0   4  -6 20201.3 830.406   6
   0   4  -5 4627.48 319.080   7
   0   4  -5 4333.62 356.410   5
   0   4  -4 728.098 146.862   5
   0   4  -3 76393.8 1398.18   5
   0   4  -2 30682.3 806.414   5
   0   4  -1 24.0292 67.9600   5
   0  -4   0 13483.1 451.098  11
   0  -4   0 13881.7 499.701   5
   0  -4  -1 60838.8 1130.12   5
   0  -4  -1 64737.8 1287.23   8
   0  -4  -1 60699.8 1207.67  13
   0  -4  -1 63629.4 1071.04  11
   0   4   1 61480.3 1252.23   4
   0  -4  -2 3350.84 260.093   5
   0   4   2 3255.72 299.823   4
   0  -4  -2 3648.33 327.067   8
   0  -4  -2 3323.66 277.906  13
   0  -4  -3 46484.9 1265.33   8
   0  -4  -3 48723.5 1139.92  13
   0   4   3 46540.7 1233.57   4
   0   4   4 27.7434 133.122   4
   0   4   5 4914.54 461.208   4
   0   4   6 17775.4 929.282   4
   0   5  -9 1302.64 272.801   6
   0   5  -8 18048.7 917.913   6
   0   5  -8 18568.5 894.215   5
   0   5  -7 2366.48 322.893   6
   0   5  -7 2415.23 329.502   5
   0   5  -6 3829.13 384.047   5
   0   5  -5 28705.4 965.913   5
   0   5  -4 22956.6 836.602   5
   0   5  -3 12036.1 577.781   5
   0   5  -2 9690.22 493.378   5
   0  -5   1 10185.5 488.392   5
   0  -5   0 1062.01 183.126   8
   0  -5   0 1082.28 147.934  11
   0  -5   0 917.367 159.934   5
   0  -5  -1 11795.3 524.737   5
   0  -5  -1 11571.8 556.918  13
   0  -5  -1 11825.5 588.024   8
   0  -5  -2 14108.9 635.921  13
   0   5   2 15145.5 698.130   4
   0  -5  -2 15043.3 712.864   8
   0  -5  -3 6202.12 439.586  13
   0  -5  -3 6626.16 522.775   8
   0   5   3 6231.06 484.070   4
   0   5   4 478.004 200.165   4
   0   5   5 3282.79 417.008   4
   0   6  -8 1038.57 240.053   5
   0   6  -8 1232.66 275.824   6
   0   6  -7-240.591 197.384   5
   0   6  -6 11520.0 677.115   5
   0   6  -5 38195.9 1200.95   5
   0   6  -4 1622.48 259.943   5
   0   6  -3 10984.3 593.401   5
   0   6  -2 488.124 149.161   5
   0  -6   1 274.614 128.935   5
   0  -6   0 11095.3 571.420   5
   0  -6   0 11165.9 590.878   8
   0  -6  -1 72297.2 1676.86   8
   0  -6  -1 72986.8 1605.09  13
   0  -6  -2 10391.9 654.482   8
   0  -6  -2 9851.14 588.869  13
   0  -6  -3 4661.00 484.364   8
   0   6   4 3242.86 417.039   4
   0   7  -8 5778.91 564.594   6
   0   7  -8 4863.28 506.260   5
   0   7  -7 193.687 168.024   5
   0   7  -6 6879.89 561.600   5
   0   7  -5 5838.58 506.845   5
   0   7  -4 23657.2 977.014   5
   0   7  -3 21222.6 911.741   5
   0  -7   2 823.007 211.319   5
   0  -7   1 3137.25 349.904   5
   0  -7   1 3134.07 336.769   8
   0  -7   0 11344.5 656.763   8
   0  -7   0 11153.5 623.911   5
   0  -7  -1 65.7847 109.118  13
   0  -7  -1 272.742 188.836   8
   0  -7  -2 1879.31 302.626  13
   0  -7  -2 1838.48 320.388   8
   0  -7  -3 53.6903 138.260   8
   0   8  -7 5281.08 539.730   5
   0   8  -6 18385.3 968.489   5
   0   8  -5 38477.4 1381.72   5
   0   8  -4-51.9956 180.545   5
   0  -8   3-114.882 187.647   5
   0  -8   2 8577.28 602.540   5
   0  -8   1 3151.75 386.533   5
   0  -8   0 3773.72 424.934   8
   0  -8   0 3438.83 397.916  13
   0  -8  -1 7226.35 578.865  13
   0  -8  -1 6094.94 568.981   8
   0   9  -5 995.028 265.759   5
   0  -9   4 324.745 188.201   5
   0  -9   3-219.416 183.025   5
   0  -9   2 2561.73 369.308   5
   0  -9   0 5310.20 536.079  13
   1  -9  -1 64.0677 129.945  13
   1  -9   0 1321.67 309.309  13
   1  -9   1 22.9786 174.326  13
   1  -9   2 4551.91 479.499   5
  -1   9  -3 19650.9 998.642   5
  -1   9  -4 1173.31 279.414   5
  -1   9  -5 441.588 209.925   5
   1  -8  -3 28.0404 154.324  13
   1  -8  -2 6433.94 571.712   8
   1  -8  -2 6868.37 582.473  13
   1  -8  -1 89.3314 130.633  13
   1  -8  -1 344.048 178.830   8
   1  -8   0 429.981 175.399  13
   1  -8   1 3420.17 384.346   5
  -1   8  -2 11381.0 681.199   5
  -1   8  -3 914.895 247.853   5
  -1   8  -4 3767.33 430.631   5
  -1   8  -5 760.577 222.642   5
  -1   8  -6-114.630 183.131   5
  -1   8  -7 3178.15 413.687   5
   1  -7  -3 14171.9 791.194  13
   1  -7  -2 3698.65 409.697   8
   1  -7  -2 4143.72 421.181  13
   1  -7  -1 280.563 159.304  13
   1  -7  -1-6.07180 119.522   8
   1  -7   0 5010.84 401.969   8
   1  -7   0 5736.53 422.026   5
   1  -7   0 5451.83 408.637  11
   1  -7   0 5443.76 451.135  13
  -1   7  -1 27648.4 956.696   5
  -1   7  -2 809.344 199.559   5
  -1   7  -3 19902.8 867.353   5
  -1   7  -4 769.443 193.518   5
  -1   7  -5 34660.4 1215.94   5
  -1   7  -6 2010.31 333.232   5
  -1   7  -7 41244.3 1436.14   5
  -1   7  -8 1184.02 285.217   6
  -1   7  -8 789.938 241.101   5
  -1   6   5 9283.96 700.734   4
  -1   6   4 17231.2 887.027   4
  -1   6   3-140.025 126.398   4
   1  -6  -3 92.7561 127.800  13
   1  -6  -2 80.4958 114.827  13
   1  -6  -2-65.7149 151.331   8
  -1   6   2-72.7107 147.281   4
   1  -6  -1 2897.31 315.935  13
   1  -6  -1 2612.14 269.641  11
   1  -6  -1 2759.80 298.736   8
   1  -6   0 264.120 104.052   5
   1  -6   0 357.065 119.156  11
   1  -6   0 289.914 116.523   8
  -1   6  -1 38239.9 1043.68   5
  -1   6  -2 58033.1 1351.36   5
  -1   6  -3 247.785 147.025   5
  -1   6  -4 11698.9 654.377   5
  -1   6  -5 17200.7 807.189   5
  -1   6  -6-3.03024 131.602   5
  -1   6  -7 2090.91 328.974   5
  -1   6  -8 5844.59 550.389   5
  -1   6  -8 5111.38 505.201   6
  -1   5   6 4704.71 506.915   4
  -1   5   5 4006.45 431.859   4
  -1   5   4 3210.73 366.860   4
  -1   5   3 13240.5 682.077   4
   1  -5  -3 12983.0 635.560  13
   1  -5  -2 3975.08 363.198   8
   1  -5  -2 2996.05 299.635  13
  -1   5   2 4055.11 364.491   4
   1  -5  -1 393.875 112.217  11
   1  -5  -1 455.121 132.300  13
   1  -5  -1 361.209 115.946   8
   1  -5  -1 331.634 93.2205   5
  -1   5   0 31510.1 823.899   5
   1  -5   0 32017.2 823.843   8
   1  -5   0 33181.8 850.860  11
  -1   5  -1 20452.2 677.029   5
   1  -5   1 20775.3 589.863   8
  -1   5  -2 94163.1 1650.07   5
  -1   5  -3 9129.11 502.567   5
  -1   5  -4 8977.36 532.829   5
  -1   5  -5 44532.3 1256.57   5
  -1   5  -6 736.472 211.780   5
  -1   5  -7 2613.05 336.775   6
  -1   5  -7 3242.22 385.636   5
  -1   5  -8 1672.34 306.004   5
  -1   5  -8 1027.05 242.737   6
  -1   4   7 4938.42 512.947   4
  -1   4   6 4191.30 447.219   4
  -1   4   5 60472.7 1578.24   4
  -1   4   4 5104.50 421.731   4
   1  -4  -3 17506.9 673.782  13
  -1   4   3 17000.4 690.550   4
  -1   4   2 110758. 1782.32   4
   1  -4  -2 108038. 1816.79   8
   1  -4  -2 114280. 1773.92  13
   1  -4  -1 19391.2 643.051  13
   1  -4  -1 21626.1 569.346   5
   1  -4  -1 20794.1 645.162   8
  -1   4   1 21150.0 646.686   4
   1  -4  -1 20287.8 609.061  11
  -1   4   0 9022.32 378.828   5
   1  -4   0 9489.77 379.793   8
  -1   4  -1 18421.7 577.568   5
   1  -4   1 16847.5 444.920   8
  -1   4  -2 894.455 155.820   5
  -1   4  -2 1516.12 323.078   9
  -1   4  -3-56.6923 90.9366   5
  -1   4  -4 34263.8 989.953   5
  -1   4  -5 24587.7 883.359   5
  -1   4  -6 7892.47 537.271   5
  -1   4  -6 7333.58 497.534   6
  -1   4  -6 7890.84 508.217   7
  -1   4  -7 170.597 124.078   7
  -1   4  -7 7.02592 129.693   6
  -1   4  -8 258.450 166.054   7
  -1   4  -9 16860.9 970.157   7
  -1   3   7 160.875 152.592   4
  -1   3   6 367.154 148.699   2
  -1   3   5 12693.6 640.518   2
  -1   3   4 916.510 165.715   2
  -1   3   3 6960.79 360.640   2
  -1   3   3 6988.50 400.161   4
   1  -3  -2 86413.8 1385.03  13
  -1   3   2 86464.6 1235.85   2
  -1   3   2 88464.2 1396.81   4
  -1   3   2 89869.3 2223.51   3
   1  -3  -2 87644.4 1120.44   5
   1  -3  -1 3905.96 200.808   5
  -1   3   1 3530.17 234.282   4
   1  -3  -1 3552.75 235.599  13
   1  -3  -1 3319.20 218.592  11
   1  -3  -1 3914.40 243.001   8
  -1   3   0 14358.6 513.501  10
  -1   3   0 14259.8 411.046   5
   1  -3   0 14815.3 398.713   8
  -1   3  -1 3578.13 231.272   5
   1  -3   1 2819.66 162.525  10
  -1   3  -2 27508.8 1227.33   9
  -1   3  -2 26680.8 710.361   5
  -1   3  -3 104777. 1644.25   5
   1  -3   3 105177. 2704.46   9
  -1   3  -4 146083. 2153.17   5
  -1   3  -5 4493.67 364.173   5
  -1   3  -5 3916.94 322.639   6
  -1   3  -6 5751.51 437.969   5
  -1   3  -6 6050.75 462.631   7
  -1   3  -6 5582.22 410.309   6
  -1   3  -7 7112.83 527.602   5
  -1   3  -7 6547.86 532.318   7
  -1   3  -8 17835.2 955.813   7
  -1   2   8 2828.42 414.108   2
  -1   2   7 56831.2 1675.50   2
  -1   2   6 11617.8 661.751   2
  -1   2   5 61243.8 1407.27   2
  -1   2   4 21100.9 702.828   2
   1  -2  -3 1332.74 267.684   3
  -1   2   3 1259.48 153.663   2
  -1   2   2 304894. 2949.00   2
   1  -2  -2 308906. 3032.89  13
  -1   2   2 304001. 4078.30   3
   1  -2  -1 394590. 3542.98  11
  -1   2   1 398034. 3519.11   4
   1  -2  -1 396845. 3584.41  13
  -1   2   0 18803.0 518.713  10
  -1   2  -1 5159.71 245.915   5
  -1   2  -1 4313.49 389.130   9
   1  -2   2 388704. 5078.38   9
  -1   2  -2 389380. 3706.85   5
   1  -2   3 89037.0 2314.19   9
  -1   2  -3 85822.0 1369.86   5
  -1   2  -4 425.335 124.723   5
  -1   2  -4 555.104 118.773   6
  -1   2  -5 3821.90 295.447   6
  -1   2  -5 4005.55 325.908   5
  -1   2  -6 1645.14 248.967   5
  -1   2  -6 1148.59 237.971   7
  -1   2  -7 170.578 134.063   7
  -1   2  -8 9942.89 733.115   7
  -1   1   8 13574.9 857.870   2
  -1   1   7 1214.66 250.688   2
  -1   1   6 3850.02 374.585   2
  -1   1   5 23091.1 806.744   2
   1  -1  -4 4039.63 480.755   3
  -1   1   4 4337.65 306.652   2
  -1   1   3 312490. 3177.41   2
   1  -1  -3 316717. 4219.22   3
  -1   1   2 123757. 1447.24   2
   1  -1  -2 123968. 1999.72   3
  -1   1   1 56773.1 960.666   3
   1  -1   0 44731.2 827.239  10
  -1   1   0 43454.0 836.385   9
  -1   1  -1 66588.1 887.786   5
  -1   1  -2 7533.65 304.625   5
  -1   1  -3 157693. 1952.91   5
  -1   1  -3 158583. 1782.36   6
  -1   1  -4 39202.7 920.943   5
  -1   1  -4 40126.4 831.009   6
  -1   1  -5-46.6060 134.518   7
  -1   1  -5 61.0452 109.748   5
  -1   1  -6 598.551 196.836   7
  -1   1  -7 2547.08 363.149   7
  -1   1  -8 22353.7 1116.13   7
  -1   0   9 2924.56 435.286   2
  -1   0   8 25370.1 1143.89   2
  -1   0   7 43220.4 1367.99   2
   1   0  -6 365.679 138.559   7
  -1   0   6 647.045 178.966   2
   1   0  -5 108.452 86.4442   7
  -1   0   5 120.345 88.8733   2
  -1   0   5 61.7599 60.5623   1
  -1   0   4 161139. 2119.93   2
  -1   0   4 161540. 1866.69   1
   1   0  -4 159569. 1740.26   5
   1   0  -4 156882. 2064.08   7
  -1   0   3 306323. 3060.68   2
  -1   0   3 307081. 2884.75   1
   1   0  -2 11683.2 339.215  14
  -1   0   2 11092.9 325.651   2
  -1   0   1 6017.18 315.063  10
  -1   0   0 15417.6 441.269   3
  -1   0  -1 70343.5 939.750   5
  -1   0  -2 53800.7 856.420   8
  -1   0  -2 55167.9 903.386   5
  -1   0  -3 172894. 2080.14   5
  -1   0  -3 173467. 2048.54   8
  -1   0  -4 47992.3 1183.95   7
  -1   0  -4 50311.0 1048.45   5
  -1   0  -5 3890.07 372.180   7
  -1   0  -5 4840.43 344.281   5
  -1   0  -6 25579.2 1044.64   7
  -1   0  -7 607.869 223.586   7
  -1  -1   9 20628.8 1099.90   2
  -1  -1   8 48122.2 1555.66   2
  -1  -1   7 3139.95 355.564   2
   1   1  -7 2277.58 293.930   7
   1   1  -6 10957.3 566.136   7
  -1  -1   6 11837.2 615.796   2
   1   1  -5 67682.2 1313.53   7
  -1  -1   5 68668.7 1370.00   2
   1   1  -5 69119.4 1171.57   5
   1   1  -4 58956.4 1088.48   6
  -1  -1   4 59604.6 1117.24   2
  -1  -1   4 59620.1 886.278   1
   1   1  -4 57267.1 962.054   5
   1   1  -4 60215.3 1072.16   7
  -1  -1   3 45860.1 825.912   2
  -1  -1   3 42800.2 1310.43   9
   1   1  -3 45078.3 828.004  14
   1   1  -3 45232.6 736.426   5
  -1  -1   3 45714.5 692.381   1
   1   1  -3 44326.4 828.097   6
   1   1  -2 308437. 3717.98   9
   1   1  -2 318552. 2893.98   6
  -1  -1   2 310723. 3539.28  10
   1   1  -2 318258. 2809.27   5
  -1  -1   2 318211. 2841.23   2
   1   1  -1 92763.7 1428.50  10
  -1  -1   0 354229. 3167.98   5
   1   1   0 351880. 3902.68   3
  -1  -1  -1 305601. 4056.75   3
  -1  -1  -1 310102. 2966.08   5
   1   1   1 310934. 2896.24   4
  -1  -1  -2 8847.03 668.242   3
   1   1   2 8489.00 344.005   4
  -1  -1  -2 8727.10 356.882   5
  -1  -1  -2 8644.45 372.947   8
  -1  -1  -3 42796.4 1020.72   7
  -1  -1  -3 42613.5 962.025   8
  -1  -1  -3 43682.6 920.339   5
  -1  -1  -4 2454.05 272.097   7
  -1  -1  -4 2795.14 266.543   8
  -1  -1  -4 2683.76 245.884   5
  -1  -1  -5 7727.25 537.270   7
  -1  -1  -6 136.270 141.057   7
  -1  -1  -7 7213.06 613.756   7
  -1  -2   9 4841.51 524.655   2
  -1  -2   8 4632.21 471.072   2
  -1  -2   7 3697.76 378.136   2
   1   2  -7 2914.35 319.550   7
  -1  -2   6 8081.11 495.666   2
   1   2  -6 7596.04 468.039   6
   1   2  -6 7216.15 441.234   7
   1   2  -5 4475.75 330.145   6
   1   2  -5 4321.54 304.898  14
  -1  -2   5 4477.15 322.818   2
   1   2  -5 4507.41 307.977   7
   1   2  -5 4173.19 287.213   5
   1   2  -4 423946. 4180.35  14
  -1  -2   4 434666. 5915.12   9
  -1  -2   4 429508. 4171.17   2
   1   2  -4 425728. 4249.94   6
   1   2  -4 433630. 4045.03   7
   1   2  -4 428591. 4107.76   5
   1   2  -3 123472. 2574.87   9
  -1  -2   3 118682. 1464.22   2
   1   2  -3 119641. 1522.24   5
  -1  -2   3 118727. 2043.49  10
   1   2  -2 14981.8 550.138  10
   1   2  -2 14957.1 431.311   5
  -1  -2   1 999999. 8210.95   5
   1   2   0 152943. 2644.03   3
  -1  -2   0 152597. 1783.30   5
  -1  -2  -1 10366.8 343.456  13
  -1  -2  -1 10740.2 407.611   5
   1   2   1 10882.7 407.750   4
   1   2   1 10255.1 712.411   3
  -1  -2  -2 1258.33 171.478   8
  -1  -2  -2 1652.24 181.776   7
   1   2   2 1711.51 190.292   4
  -1  -2  -2 1814.24 154.929  13
  -1  -2  -2 1640.63 176.386   5
  -1  -2  -3 4547.69 343.686   8
  -1  -2  -3 4993.64 349.406   7
   1   2   3 4635.28 329.340   4
  -1  -2  -3 4967.77 320.039   5
  -1  -2  -4 745.673 164.426   8
   1   2   4 593.527 147.697   4
  -1  -2  -4 770.441 174.514   7
   1   2   5 18181.5 774.872   4
  -1  -2  -5 19098.1 859.842   7
  -1  -2  -6 11320.3 720.837   7
   1   2   6 10977.5 657.019   4
  -1  -2  -7 128.655 183.524   7
  -1  -3   9 12515.3 823.235   2
   1   3  -8 9133.54 619.967   6
   1   3  -8 9229.01 598.463   7
  -1  -3   8 8936.04 629.836   2
   1   3  -7 4252.59 373.530   7
  -1  -3   7 4541.12 416.544   2
   1   3  -7 4767.70 420.802   6
   1   3  -6 5077.30 357.212   7
   1   3  -6 5364.98 375.930   5
   1   3  -6 5618.29 379.645  14
   1   3  -6 4963.29 394.527   6
  -1  -3   6 5688.57 411.378   2
   1   3  -5 13556.4 594.052   6
   1   3  -5 13858.6 510.529   7
   1   3  -5 14342.4 564.456  14
  -1  -3   5 14388.8 566.600   2
   1   3  -5 13041.8 547.261   5
   1   3  -4 12482.6 928.668   9
   1   3  -4 12946.9 509.434   5
  -1  -3   4 11400.4 643.875  10
  -1  -3   4 13216.5 464.725   2
  -1  -3   3 11970.0 533.035  10
   1   3  -3 13938.1 878.463   9
  -1  -3   3 13155.6 378.391   2
   1   3  -3 13527.1 488.083   5
   1   3  -2 1464.29 181.686  10
   1   3  -2 1570.86 169.567   5
  -1  -3   1 59304.1 1065.86   5
  -1  -3   0 145.282 64.0261   7
  -1  -3   0 402.184 106.974   5
  -1  -3   0 360.326 73.5972  11
  -1  -3  -1 32715.7 708.955   7
   1   3   1 33152.3 834.399   4
  -1  -3  -1 32970.3 757.547  13
  -1  -3  -1 32021.0 797.576   5
  -1  -3  -2 118.512 92.6783   8
  -1  -3  -2 226.737 79.6441   7
   1   3   2 218.693 90.4026   4
  -1  -3  -2 251.372 105.712   5
  -1  -3  -2 354.367 90.7465  13
  -1  -3  -3-16.6216 123.969   8
  -1  -3  -3-78.0462 105.413   7
  -1  -3  -3 196.079 112.849   5
   1   3   3 136.458 108.433   4
   1   3   4 21328.9 847.204   4
  -1  -3  -4 23431.7 869.912   7
  -1  -3  -4 22023.6 904.691   8
  -1  -3  -5 16545.6 815.098   7
   1   3   5 15763.3 789.355   4
  -1  -3  -6 928.031 231.148   7
   1   3   6 1655.71 312.021   4
   1   4  -9-104.620 158.084   6
  -1  -4   8 4821.37 458.718   2
   1   4  -8 5052.48 487.446   6
  -1  -4   7 16229.2 760.593   2
   1   4  -7 14739.9 700.233   5
   1   4  -7 14568.6 750.501   6
  -1  -4   6 39827.4 1081.44   2
   1   4  -6 38204.9 1079.87   5
   1   4  -5 1940.39 241.627   5
   1   4  -5 2543.68 257.427  14
  -1  -4   5 2334.22 229.888   2
   1   4  -4 67290.8 1351.34   5
   1   4  -3 83.7070 98.2088   5
  -1  -4   2 44.3564 97.0667   5
  -1  -4   1 129192. 1889.16   5
  -1  -4   0 151264. 2118.41   5
  -1  -4  -1 2892.42 252.997  13
  -1  -4  -1 2815.55 254.122   5
  -1  -4  -2 229.340 122.343   5
  -1  -4  -2 113.677 120.337   8
   1   4   2-165.213 133.594   4
  -1  -4  -3 33937.8 1143.10   8
   1   4   3 35302.6 1101.12   4
  -1  -4  -4 25256.6 1052.30   8
   1   4   4 25317.2 1001.26   4
   1   4   5 55.9906 146.527   4
   1   4   6 1689.73 344.783   4
   1   5  -9 1853.61 341.343   6
   1   5  -8 1914.09 317.382   6
   1   5  -7 8535.92 600.076   6
   1   5  -7 7133.33 524.221   5
   1   5  -6 4948.61 423.920   5
   1   5  -5 25042.8 894.166   5
   1   5  -4 12.6688 103.375   5
   1   5  -3 716.533 171.225   5
  -1  -5   2 106644. 1847.10   5
  -1  -5   1 67593.0 1413.94   5
  -1  -5   0 6787.91 435.656   5
  -1  -5  -1 8233.62 533.201   8
  -1  -5  -1 8145.41 486.084   5
  -1  -5  -1 8631.89 486.772  13
  -1  -5  -2 9777.69 616.001   8
  -1  -5  -3 1431.17 279.242   8
  -1  -5  -4 29324.6 1219.52   8
   1   5   4 28927.3 1151.89   4
   1   5   5 6111.64 575.074   4
   1   6  -8 800.312 225.205   6
   1   6  -8 794.914 232.828   5
   1   6  -7 21197.2 955.826   5
   1   6  -7 23625.3 1036.38   6
   1   6  -6 14364.1 752.568   5
   1   6  -5 1325.52 251.797   5
   1   6  -4 20.9415 130.582   5
  -1  -6   3 16466.7 741.243   5
  -1  -6   2 18340.5 777.165   5
  -1  -6   1 1741.00 262.637   5
  -1  -6   0 3788.36 364.010   5
  -1  -6  -1 1182.98 256.745   8
  -1  -6  -1 637.374 186.589   5
  -1  -6  -1 1278.98 229.684  13
  -1  -6  -2 2714.97 369.798   8
  -1  -6  -3 7193.00 614.902   8
   1   7  -8 9192.76 709.680   6
   1   7  -8 8465.26 660.561   5
   1   7  -7 9766.53 686.028   5
   1   7  -6 596.794 229.036   5
   1   7  -5 4087.28 437.013   5
  -1  -7   4 7181.51 546.875   5
  -1  -7   3 139.819 144.643   5
  -1  -7   2 24620.0 985.682   5
  -1  -7   1 10310.9 645.896   5
  -1  -7   0-86.2302 171.568   8
  -1  -7   0 202.471 152.698   5
  -1  -7   0 36.4128 98.8517  13
  -1  -7  -1 494.347 187.592   8
  -1  -7  -2 6837.07 613.449   8
   1   8  -7 92.8575 178.741   5
   1   8  -6 2010.77 357.292   5
  -1  -8   5-72.0379 181.974   5
  -1  -8   4 16.8573 169.558   5
  -1  -8   3 2711.60 372.727   5
  -1  -8   2 7862.38 608.985   5
  -1  -8   1 356.035 171.870   5
  -1  -8   1 244.717 155.155   8
  -1  -8   0 3610.44 450.112   8
  -1  -9   4 9562.72 729.647   5
  -1  -9   3 404.707 197.806   5
  -1  -9   2 563.442 204.193   5
  -1  -9   1 517.639 243.266   5
  -1  -9   1 364.930 207.637   8
   2 -10   2 578.407 219.280  11
  -2  10  -3 1584.24 326.772   5
   2  -9  -1 21340.7 1059.95  13
   2  -9   0 38828.2 1402.50  13
   2  -9   1 667.169 202.132  11
   2  -9   1 617.534 193.679  13
  -2   9  -2 201.555 153.331   5
  -2   9  -3 10181.6 710.726   5
  -2   9  -4 1748.63 338.191   5
  -2   9  -5 10130.5 745.189   5
   2  -8  -3 75.1209 128.680  13
   2  -8  -2 5036.62 499.889  13
   2  -8  -1 1590.72 280.401  13
   2  -8   0 9420.55 634.962  13
   2  -8   0 8710.62 569.998  11
  -2   8  -1 5197.19 450.451   5
   2  -8   1 6433.30 488.970  11
  -2   8  -2 587.511 173.016   5
  -2   8  -3 508.663 194.751   5
  -2   8  -4 30844.4 1189.69   5
  -2   8  -5 7389.80 615.473   5
  -2   8  -6 1527.88 322.565   5
  -2   7   4 440.811 203.776   4
  -2   7   3 721.532 214.007   4
   2  -7  -3 650.467 204.265  13
   2  -7  -2 120.659 128.907  13
   2  -7  -1 39764.1 1234.77  13
   2  -7  -1 39043.6 1162.71  11
   2  -7   0 34877.8 1074.76  11
   2  -7   0 34961.2 1128.74  13
  -2   7  -1 3216.54 326.795   5
  -2   7  -2 6007.25 461.238   5
  -2   7  -3 23007.3 934.270   5
  -2   7  -4 7327.92 549.060   5
  -2   7  -5 1315.87 273.310   5
  -2   7  -6 1267.03 263.897   5
  -2   7  -7 3928.74 477.398   5
  -2   6   5 143.228 157.709   4
  -2   6   4 1956.07 302.442   4
   2  -6  -3 2037.22 297.334  13
  -2   6   3 2276.80 309.644   4
  -2   6   2 16057.1 715.089   4
   2  -6  -2 15567.8 729.017  13
   2  -6  -2 16829.7 711.687  11
   2  -6  -1 19729.3 790.822  13
   2  -6  -1 19836.0 754.331  11
  -2   6   0 396.266 109.681   5
   2  -6   0 66.5731 85.9393  11
   2  -6   0 109.253 115.733  13
  -2   6  -1 1379.50 204.547   5
  -2   6  -2 10202.9 557.642   5
  -2   6  -3 77.1565 114.554   5
  -2   6  -4 53872.8 1452.26   5
  -2   6  -5 47336.7 1418.15   5
  -2   6  -6 4.05373 154.025   5
  -2   6  -7 8960.21 676.559   5
  -2   6  -8 43448.1 1580.53   5
  -2   5   6 3690.11 436.148   4
  -2   5   5 63.4815 139.670   4
  -2   5   4 7170.94 514.276   4
  -2   5   3 24747.8 879.454   4
   2  -5  -3 23429.3 861.091  13
   2  -5  -2 8.95866 77.9472  11
  -2   5   2-3.80218 109.575   4
   2  -5  -2-47.2348 90.3196  13
   2  -5  -1 3682.30 310.391  13
  -2   5   1 3633.44 249.280   5
  -2   5   1 3377.14 275.524   4
   2  -5  -1 3574.74 292.797  11
  -2   5   0 2740.44 240.223   5
   2  -5   0 2623.45 250.525  13
   2  -5   0 2134.21 227.315  11
  -2   5  -1 18019.8 653.218   5
  -2   5  -2 24995.2 836.062   5
  -2   5  -3 73099.0 1551.19   5
  -2   5  -4 16406.5 749.379   5
  -2   5  -5 205.021 149.374   5
  -2   5  -6 79545.3 1924.85   5
  -2   5  -7 11195.0 747.715   5
  -2   5  -8 2316.04 365.902   7
  -2   5  -8 2824.46 421.861   5
  -2   4   7-101.123 191.098   4
  -2   4   6 1593.74 279.618   4
  -2   4   5 15616.8 752.500   4
  -2   4   4 3130.90 288.160   2
  -2   4   4 2838.65 312.777   4
  -2   4   3 1855.26 224.166   4
   2  -4  -3 1824.57 229.568  13
  -2   4   3 2216.47 217.343   2
   2  -4  -2 35871.3 887.985  11
   2  -4  -2 34291.8 904.764  13
  -2   4   1 11539.0 666.348  10
   2  -4  -1 11333.0 470.979  11
  -2   4   1 12108.0 400.699   5
  -2   4   1 11977.1 445.124   4
   2  -4  -1 11089.9 472.867  13
  -2   4   0 65636.9 1387.40  10
   2  -4   0 64982.5 1001.47  12
  -2   4   0 62860.6 1114.81   5
   2  -4   0 62916.1 1149.94  13
   2  -4   1 130029. 1962.76  10
  -2   4  -1 131471. 1882.53   5
   2  -4   1 130607. 1565.05  12
  -2   4  -2 6550.50 393.278   5
  -2   4  -3 3637.98 333.481   5
  -2   4  -4 4733.84 386.297   5
  -2   4  -5 3155.86 351.747   5
  -2   4  -6 2223.96 327.928   5
  -2   4  -7 23367.7 1040.30   7
  -2   4  -7 25444.4 1089.16   5
  -2   4  -8 22089.9 1101.66   7
  -2   3   8 1862.51 325.990   2
  -2   3   7 723.026 198.698   2
  -2   3   6 22725.3 927.919   2
  -2   3   5 1509.81 228.613   2
  -2   3   4 78016.1 1473.98   2
  -2   3   3 213.989 141.476   3
  -2   3   3 16.7356 59.8088   2
  -2   3   2 5545.10 480.651   3
   2  -3  -2 5751.07 325.112  13
  -2   3   1 76073.2 1682.92  10
   2  -3  -1 73815.4 1183.07  11
  -2   3   1 75474.3 1016.61   5
  -2   3   1 73785.9 1080.85   4
   2  -3  -1 73866.5 1175.59  13
  -2   3   0 87377.7 1624.29  10
   2  -3   0 89836.9 1248.90  13
  -2   3   0 85468.4 1261.84   5
   2  -3   0 89567.2 1181.43  12
   2  -3   0 89829.6 1673.53  10
  -2   3  -1 296620. 4372.28   9
  -2   3  -1 292043. 2784.76   1
  -2   3  -1 297480. 3100.92   5
  -2   3  -2 261.604 101.684   5
   2  -3   2 834.788 250.582   9
  -2   3  -3 19214.3 685.469   5
  -2   3  -4 40365.2 1095.54   5
  -2   3  -5 3378.14 349.166   5
  -2   3  -6 34064.9 1159.79   5
  -2   3  -7 22586.2 1006.86   5
  -2   3  -7 20775.3 1018.82   7
  -2   3  -8 1049.64 290.721   7
  -2   2   8 1995.93 344.245   2
  -2   2   7 2037.20 311.906   2
  -2   2   6 67885.4 1602.20   2
  -2   2   5 54111.0 1283.84   2
   2  -2  -4 56702.8 1776.56   3
  -2   2   4 55199.6 1175.11   2
  -2   2   3 21125.0 617.117   2
   2  -2  -3 19368.3 876.642   3
  -2   2   2 9749.21 625.793  10
  -2   2   2 9471.46 503.026   3
  -2   2   1 65406.7 1483.99  10
   2  -2  -1 64895.8 958.524  13
   2  -2  -1 67359.9 983.260  12
   2  -2  -1 65069.1 1500.17  10
   2  -2  -1 65811.1 990.258  11
  -2   2   1 65727.7 1032.28   1
   2  -2   0 4596.86 360.632  10
  -2   2   0 4965.23 379.388   9
  -2   2   0 5435.93 238.848   1
  -2   2   0 5039.68 232.420   5
   2  -2   0 4799.83 202.669  13
   2  -2   1 99409.9 2117.96   9
  -2   2  -1 99686.9 1369.79   5
  -2   2  -2 76634.3 1277.88   5
   2  -2   2 76116.5 2021.63   9
  -2   2  -3 509.870 148.085   5
  -2   2  -4 2159.05 259.791   5
  -2   2  -5 49944.6 1290.10   5
  -2   2  -6 20894.9 889.967   5
  -2   2  -7 7993.91 642.893   7
  -2   1   9 3881.73 495.213   2
  -2   1   8 10406.3 720.533   2
  -2   1   7 1384.47 250.730   2
  -2   1   6 160025. 2570.51   2
  -2   1   6 163096. 2341.48   1
  -2   1   5 28007.6 796.617   1
  -2   1   5 27913.8 871.030   2
  -2   1   4 48473.2 1059.49   2
  -2   1   4 48604.8 1007.71   1
   2  -1  -4 48836.5 1482.17   3
  -2   1   3 14445.1 484.116   1
   2  -1  -3 13612.7 622.284   3
  -2   1   2 56023.0 931.796   1
   2  -1  -2 55722.9 956.192   3
   2  -1  -2 54953.3 906.435  12
  -2   1   2 54467.8 1460.29  10
   2  -1  -1 12558.3 607.918  10
   2  -1  -1 12743.7 336.811  11
   2  -1  -1 13300.7 348.048  14
  -2   1   1 13585.5 391.482   1
  -2   1   1 12357.7 604.278  10
   2  -1  -1 12820.3 369.764  12
  -2   1   0 364573. 3303.49   1
  -2   1   0 365883. 3309.64   5
  -2   1  -1 151978. 1807.17   5
  -2   1  -2 7633.40 279.732   8
  -2   1  -2 7126.25 353.705   5
  -2   1  -3 19656.3 529.739   8
  -2   1  -3 19546.0 649.586   5
  -2   1  -4 14915.3 620.976   5
  -2   1  -5 673.768 175.356   5
  -2   1  -6 3956.62 442.034   7
  -2   1  -6 4516.93 410.629   5
  -2   1  -7 274.531 201.924   7
  -2   0   9 19853.9 1068.84   2
  -2   0   8 9311.53 666.192   2
  -2   0   7 2880.42 337.168   2
  -2   0   6 48854.2 1270.19   2
  -2   0   5 98081.0 1697.00   2
  -2   0   5 95714.9 1505.80   1
  -2   0   4 15987.2 568.475   2
  -2   0   4 15585.8 504.191   1
  -2   0   3 25334.5 1047.36  10
   2   0  -3 26698.2 671.435  14
  -2   0   3 24895.1 602.427   1
   2   0  -2 308194. 3931.87  10
  -2   0   2 303738. 2975.26   1
  -2   0   2 305504. 3913.26  10
   2   0  -2 309740. 2896.46  12
   2   0  -2 311834. 3005.25  14
   2   0  -1 126816. 2152.68  10
   2   0  -1 125124. 1456.08   3
  -2   0   1 125437. 1403.68   5
  -2   0   0 119217. 1457.53   5
  -2   0   0 116097. 1873.37   3
   2   0   1 82895.3 1000.02   4
  -2   0  -1 79128.8 1230.25   5
   2   0   2 13691.7 406.272   4
  -2   0  -2 13993.1 514.194   5
  -2   0  -3 14881.0 534.447   8
   2   0   3 14876.7 489.459   4
  -2   0  -3 16306.4 598.738   5
  -2   0  -4 1983.97 219.129   8
  -2   0  -4 1736.50 224.150   5
  -2   0  -5 11561.5 600.307   5
  -2   0  -5 10899.9 665.562   7
  -2   0  -6 6008.59 544.966   7
  -2   0  -7 373.270 205.567   7
  -2  -1   9 1627.46 324.465   2
  -2  -1   8 14804.8 817.870   2
  -2  -1   7 6794.77 502.175   2
  -2  -1   6 38810.1 1091.48   2
  -2  -1   5 4495.91 524.991   9
  -2  -1   5 5351.74 354.356   2
   2   1  -5 5487.30 365.905  14
  -2  -1   5 5506.70 301.144   1
  -2  -1   4 22029.5 1060.56  10
  -2  -1   4 22099.5 1006.54   9
  -2  -1   4 21152.6 633.120   2
   2   1  -4 22190.4 659.178   6
   2   1  -4 22136.3 513.850   5
  -2  -1   4 22161.6 581.242   1
   2   1  -4 22416.4 685.632  14
   2   1  -3 29696.2 673.932   6
   2   1  -3 29717.4 991.581   9
  -2  -1   3 28095.8 586.071   5
   2   1  -3 27743.6 721.162  14
  -2  -1   3 29777.6 1086.95  10
  -2  -1   3 28604.6 642.556   1
  -2  -1   2 1456.53 218.037  10
   2   1  -2 1659.64 130.644  12
  -2  -1   2 1637.04 139.398   5
   2   1  -2 1761.00 243.311  10
   2   1  -2 1777.27 136.956   6
   2   1  -1 82042.3 1533.73   3
  -2  -1   1 83693.1 1181.59   5
  -2  -1   0 80.3762 66.5030   5
   2   1   0 47.9904 88.4463   3
  -2  -1  -1 286.409 100.515   5
  -2  -1  -1 85.9620 117.202   3
   2   1   1 201.750 83.9587   4
  -2  -1  -2 58247.1 1161.03   5
   2   1   2 56798.8 1036.84   4
  -2  -1  -3 15144.2 609.127   8
   2   1   3 15198.4 564.666   4
  -2  -1  -3 15394.0 615.076   5
  -2  -1  -4 5342.04 401.601   8
  -2  -1  -4 5677.44 456.777   7
  -2  -1  -4 5898.67 409.786   5
  -2  -1  -5-71.9567 135.116   7
  -2  -1  -6 317.124 169.074   7
  -2  -2   9 534.536 208.771   2
  -2  -2   8 12837.6 747.016   2
  -2  -2   7 37179.7 1155.95   2
   2   2  -6-138.922 117.355  14
  -2  -2   6-39.8374 82.5578   2
   2   2  -6 73.7438 106.083   6
   2   2  -5 1090.12 145.975   5
  -2  -2   5 818.618 248.496   9
   2   2  -5 1176.30 184.017   6
   2   2  -5 1142.75 191.678  14
  -2  -2   5 1291.89 181.558   2
  -2  -2   4 62539.2 1741.30  10
   2   2  -4 67771.2 1945.11   9
  -2  -2   4 65467.6 1135.00   2
   2   2  -4 61580.8 1250.99  14
   2   2  -4 64366.4 1196.45   6
   2   2  -4 62075.2 1075.01   5
  -2  -2   3 1501.80 160.770   5
   2   2  -3 1433.31 248.589   9
   2   2  -3 1847.70 175.033   6
  -2  -2   3 1362.52 243.508  10
   2   2  -3 1692.70 253.701  10
   2   2  -2 35580.8 1136.12  10
  -2  -2   2 36245.4 784.519   5
  -2  -2   1 109181. 1553.25   5
   2   2   0 78265.0 2008.89   3
  -2  -2   0 73367.3 1283.00   5
  -2  -2  -1 22113.8 691.077   5
  -2  -2  -2 153944. 2208.56   5
   2   2   2 153912. 2121.69   4
   2   2   3 48217.1 1153.35   4
  -2  -2  -3 48145.2 1241.63   8
  -2  -2  -3 49387.4 1249.49   7
  -2  -2  -3 50499.8 1213.58   5
  -2  -2  -4 1489.60 264.775   7
  -2  -2  -4 1343.73 219.639   5
   2   2   4 1321.61 211.349   4
  -2  -2  -4 1569.04 244.207   8
  -2  -2  -5-14.9183 131.258   7
  -2  -2  -6 2053.13 347.913   7
  -2  -3   9 34964.2 1347.58   2
   2   3  -8 5030.11 469.952   6
  -2  -3   8 4488.05 440.844   2
   2   3  -7 20039.2 870.149   6
   2   3  -7 20748.4 825.447  14
  -2  -3   7 20927.3 840.662   2
   2   3  -6 528.902 130.203   5
   2   3  -6 624.320 158.273   6
   2   3  -6 865.014 180.585  14
  -2  -3   6 457.987 119.894   2
  -2  -3   5 43500.6 989.955   2
   2   3  -5 46381.3 1133.27   6
   2   3  -5 42806.3 999.937   5
   2   3  -5 44278.3 1121.06  14
   2   3  -4 736.058 144.455   5
  -2  -3   4 693.177 194.252  10
   2   3  -4 610.730 222.168   9
   2   3  -4 874.259 152.158   6
  -2  -3   4 706.299 112.875   2
  -2  -3   3 218821. 2617.39   5
  -2  -3   3 218116. 2243.83   2
   2   3  -2 692.736 192.505  10
  -2  -3   2 325.666 107.198   5
  -2  -3   1 198947. 2496.81   5
  -2  -3   0 39530.5 977.126   5
  -2  -3  -1 63061.2 1317.69   5
  -2  -3  -2 3772.06 352.787   8
  -2  -3  -2 3891.97 338.172   5
  -2  -3  -3 17086.0 783.101   8
   2   3   3 16703.0 720.037   4
  -2  -3  -3 17442.2 737.004   5
   2   3   4 535.010 169.576   4
  -2  -3  -4 548.439 183.004   8
  -2  -3  -5 1675.67 305.918   8
  -2  -4  10 6207.28 605.763   2
  -2  -4   9 1122.08 266.796   2
   2   4  -9 1676.49 323.487   6
   2   4  -8 17950.4 905.408   6
  -2  -4   8 19912.6 897.893   2
   2   4  -7 11302.1 672.506   6
   2   4  -7 12757.6 658.842  14
   2   4  -6 928.520 205.353   6
   2   4  -6 1048.87 185.990   5
   2   4  -6 843.272 181.684  14
   2   4  -5 76659.9 1595.09   6
   2   4  -5 79546.5 1545.58   5
  -2  -4   4 130080. 2021.75   5
  -2  -4   3 9971.01 499.422   5
  -2  -4   2 4510.90 347.683   5
  -2  -4   1 989.492 191.324   5
  -2  -4   0 3406.09 318.185   5
  -2  -4  -1 3550.23 334.698   5
  -2  -4  -2 24548.8 963.467   8
  -2  -4  -2 23219.0 869.654   5
  -2  -4  -3 4672.14 455.105   8
   2   4   4-148.732 177.605   4
  -2  -4  -4 79.0134 153.876   8
   2   5  -9 28098.2 1252.47   6
   2   5  -8 138.675 139.860   6
   2   5  -7 6043.77 486.575   5
   2   5  -7 4489.38 449.920   6
   2   5  -6 948.422 208.512   5
   2   5  -6 1146.14 239.794   6
   2   5  -5 68110.4 1559.71   5
  -2  -5   4 12693.3 624.060   5
  -2  -5   3 29798.1 969.356   5
  -2  -5   2 44.6904 111.439   5
  -2  -5   1 17634.0 750.741   5
  -2  -5   0 3414.90 347.782   5
  -2  -5  -1 26365.7 1038.35   8
  -2  -5  -1 27232.1 979.573   5
  -2  -5  -2 1970.38 300.346   5
  -2  -5  -2 1847.68 298.786   8
  -2  -5  -3 465.136 179.570   8
   2   6  -8 1334.21 276.134   5
   2   6  -8 1634.70 330.086   6
   2   6  -7-155.020 187.100   5
   2   6  -7 292.873 167.081   6
   2   6  -6 4507.26 443.555   5
  -2  -6   5 7809.69 541.711   5
  -2  -6   4 35193.5 1155.68   5
  -2  -6   3 6418.59 496.567   5
  -2  -6   2-54.2820 122.552   5
  -2  -6   1 17844.7 827.496   5
  -2  -6   0 23159.7 958.497   5
  -2  -6  -1 532.435 211.145   8
  -2  -6  -1 842.338 226.718   5
  -2  -6  -2 251.933 183.076   8
   2   7  -8-251.384 182.652   5
   2   7  -8 264.363 186.177   6
   2   7  -7 1212.82 287.373   5
   2   7  -7 1715.38 318.794   6
  -2  -7   6 10031.1 690.175   5
  -2  -7   5 23680.7 1027.48   5
  -2  -7   4 2095.25 318.028   5
  -2  -7   3 3093.65 383.441   5
  -2  -7   2 7217.38 571.733   5
  -2  -7   1 1262.15 269.392   5
  -2  -7   0 4107.63 446.678   5
  -2  -7   0 3343.07 422.968   8
  -2  -7  -1 852.651 259.267   8
  -2  -8   6 3495.82 454.873   5
  -2  -8   5 92.6576 152.965   5
  -2  -8   4 344.686 204.300   5
  -2  -8   3 2602.98 378.193   5
  -2  -8   2 534.561 233.762   5
  -2  -8   1 3646.09 467.176   8
  -2  -8   1 4091.60 472.682   5
   3 -10   0 262.131 171.622  11
   3 -10   1 1289.17 286.307  11
   3 -10   2 4271.72 487.313  11
  -3  10  -3 19026.9 1037.63   5
   3  -9  -1 1087.61 260.913  11
   3  -9  -1 1447.81 306.316  13
   3  -9   0-11.6941 131.775  11
   3  -9   0 332.474 174.104  13
   3  -9   1 8957.34 639.536  11
   3  -9   1 10245.8 701.593  13
  -3   9  -2 8338.24 632.077   5
  -3   9  -3 4685.47 483.291   5
  -3   9  -4 3.45976 156.560   5
   3  -8  -3 12557.7 798.929  13
   3  -8  -2 7071.88 554.459  11
   3  -8  -2 6075.38 539.217  13
   3  -8  -1 8807.53 602.763  11
   3  -8  -1 8714.30 620.350  13
   3  -8   0 161.719 124.833  11
   3  -8   0 0.61536 132.457  13
   3  -8   1 22982.0 968.768  13
   3  -8   1 25583.1 1014.75  11
  -3   8  -2 6089.23 505.765   5
  -3   8  -3 16134.1 845.221   5
  -3   8  -4 387.801 176.530   5
  -3   8  -5 67.2389 156.391   5
  -3   8  -6 4523.46 520.528   5
  -3   7   5 13862.3 856.999   4
  -3   7   4 36527.1 1296.30   4
   3  -7  -3 98.8619 111.725  13
  -3   7   3-0.29150 119.026   4
   3  -7  -2 2595.04 328.987  11
   3  -7  -2 2832.75 351.421  13
   3  -7  -1 70272.9 1649.56  11
   3  -7  -1 68376.2 1650.26  13
   3  -7   0 4563.36 403.939  11
   3  -7   0 4189.14 390.442  13
  -3   7  -1 11953.7 634.241   5
   3  -7   1 11997.7 637.836  13
  -3   7  -2 7323.40 521.986   5
  -3   7  -3 1783.53 289.230   5
  -3   7  -4 2006.59 318.859   5
  -3   7  -5 35155.4 1319.46   5
  -3   7  -6 697.403 233.533   5
  -3   6   6 4508.40 492.595   4
  -3   6   5 380.303 197.044   4
  -3   6   4 789.209 203.405   4
  -3   6   3 2257.21 287.057   4
   3  -6  -3 2216.53 301.633  13
   3  -6  -2 518.734 157.600  11
   3  -6  -2 260.979 127.141  13
  -3   6   2 197.726 111.921   4
   3  -6  -1 518.042 156.685  11
   3  -6  -1 572.924 167.999  13
  -3   6   0 30814.8 903.456   5
   3  -6   0 31506.1 961.959  13
   3  -6   0 31634.2 982.299  11
  -3   6  -1 11363.1 576.774   5
  -3   6  -2 452.204 156.535   5
  -3   6  -3 12483.8 677.397   5
  -3   6  -4 38496.2 1273.65   5
  -3   6  -5 306.043 175.545   5
  -3   6  -6 15610.3 905.186   5
  -3   6  -7 20.7251 192.119   5
  -3   5   6 1011.49 232.291   4
  -3   5   5 18563.4 852.050   4
  -3   5   4 16505.9 748.086   4
   3  -5  -3 447.919 130.536  13
  -3   5   3 580.750 151.664   4
   3  -5  -2 39097.2 1054.12  11
  -3   5   2 37233.4 956.062   4
   3  -5  -2 36460.0 1041.10  13
   3  -5  -1 114809. 1895.33  11
  -3   5   1 112448. 1668.96   4
   3  -5  -1 114878. 1871.83  13
  -3   5   0 61113.2 1253.54   5
   3  -5   0 65772.6 1169.32  12
   3  -5   0 61860.1 1259.42  13
   3  -5   0 63197.2 1317.19  11
  -3   5  -1 639.453 157.617   5
  -3   5  -1 797.788 137.081   1
   3  -5   1 559.170 105.564  12
  -3   5  -2 1657.62 242.129   5
  -3   5  -3 53330.8 1375.80   5
  -3   5  -4 2606.84 339.782   5
  -3   5  -5 8312.27 606.721   5
  -3   5  -6 1164.51 269.711   5
  -3   5  -7 13077.4 860.889   5
  -3   4   7 1389.70 270.399   1
  -3   4   6 11179.3 666.264   2
  -3   4   5 6837.64 471.171   2
  -3   4   4 9.94412 74.1978   2
  -3   4   3 8541.37 438.749   4
   3  -4  -2 147017. 2121.41  11
  -3   4   2 144956. 2989.47  10
   3  -4  -2 146606. 2093.15  13
  -3   4   2 144885. 1943.92   4
   3  -4  -1 5427.28 347.462  11
  -3   4   1 4985.28 287.466   5
  -3   4   1 5515.36 281.553   4
   3  -4  -1 5978.25 346.182  13
   3  -4  -1 5628.64 321.974  12
  -3   4   1 6063.75 526.275  10
   3  -4   0 119409. 2382.81  10
  -3   4   0 120538. 1735.41   1
  -3   4   0 119130. 1756.08   5
   3  -4   0 120880. 1688.90  13
   3  -4   0 120993. 1674.28  12
   3  -4   1 18561.2 885.060  10
  -3   4  -1 16574.4 1040.17   9
  -3   4  -1 18207.5 544.027   1
  -3   4  -1 17488.3 634.797   5
   3  -4   1 17882.4 543.363  13
  -3   4  -2 30870.4 929.708   5
  -3   4  -3 41245.1 1157.48   5
  -3   4  -4 287014. 3822.59   5
  -3   4  -5 2062.70 309.787   5
  -3   4  -6 21009.2 998.507   5
  -3   4  -7 19653.9 1032.45   5
  -3   3   8 6106.97 568.515   2
  -3   3   7 30215.9 1122.16   1
  -3   3   7 30905.6 1179.05   2
  -3   3   6 27.2296 96.0341   1
  -3   3   6 24.8828 86.4075   2
  -3   3   5 7871.80 503.401   1
  -3   3   5 7340.21 475.858   2
  -3   3   4 7758.60 470.714   1
  -3   3   4 8370.67 459.793   2
  -3   3   3 13342.9 576.347   1
  -3   3   3 12060.7 697.200   3
   3  -3  -2 880.125 146.410  11
  -3   3   2 975.896 243.602  10
  -3   3   2 925.258 157.125   1
   3  -3  -1 110344. 2348.76  10
  -3   3   1 114243. 2330.33  10
  -3   3   1 111662. 1637.23   1
  -3   3   1 108705. 1439.11   5
  -3   3   1 110335. 1302.57   4
   3  -3  -1 109014. 1513.19  13
   3  -3  -1 110141. 1590.71  11
   3  -3  -1 110171. 1562.74  12
   3  -3   0 485.315 169.843  10
  -3   3   0 249.240 120.258   9
  -3   3   0 659.131 116.392   1
  -3   3   0 684.125 118.038   5
   3  -3   0 551.363 98.0788  13
   3  -3   1 4280.13 488.499   9
  -3   3  -1 3427.03 267.492   5
   3  -3   1 3690.21 199.503  13
  -3   3  -1 4020.51 235.165   1
  -3   3  -2 96451.2 1662.73   5
  -3   3  -3 55909.6 1319.84   5
  -3   3  -4 9485.17 573.617   5
  -3   3  -5 4189.37 416.723   5
  -3   3  -6 5610.22 511.364   5
  -3   3  -7 12487.1 807.569   5
  -3   2   9 12873.8 877.367   2
  -3   2   8 12287.7 787.913   2
  -3   2   7-39.7061 112.201   1
  -3   2   7 187.145 107.492   2
  -3   2   6 16358.1 724.424   1
  -3   2   6 17752.8 789.396   2
  -3   2   5 1677.83 229.704   2
  -3   2   5 1208.44 191.124   1
  -3   2   4 6926.91 413.592   1
  -3   2   3 146942. 2070.16   1
   3  -2  -2 279388. 4143.77  10
  -3   2   2 266269. 4088.73  10
  -3   2   2 271005. 2999.03   1
  -3   2   2 275992. 2881.33   3
   3  -2  -2 266464. 2915.96  12
   3  -2  -1 112162. 1469.83  11
  -3   2   1 110337. 1390.53   5
   3  -2  -1 114119. 2357.25  10
  -3   2   1 111052. 1727.53   9
  -3   2   1 113631. 1573.85   1
   3  -2  -1 112718. 1552.41  12
   3  -2   0 67.3132 78.6928   9
  -3   2   0 137.224 75.2871   5
  -3   2   0 31.8894 54.2103   1
   3  -2   1 20054.7 965.776   9
  -3   2  -1 19777.8 621.490   5
  -3   2  -2 70897.3 1362.45   5
  -3   2  -3 2452.94 269.504   5
  -3   2  -4 95858.8 1859.80   5
  -3   2  -5 553.463 177.913   5
  -3   2  -6 276.527 177.660   5
  -3   2  -7 13090.7 872.075   7
  -3   1   9 8113.29 686.907   2
  -3   1   8 8321.25 628.545   2
  -3   1   7 170.178 144.694   2
  -3   1   6 9837.35 572.719   2
  -3   1   6 9651.55 522.730   1
  -3   1   5 15903.3 658.837   2
  -3   1   5 14356.2 600.546   1
  -3   1   4 570.042 128.779   1
   3  -1  -3 39644.2 789.440   3
  -3   1   3 41995.2 1511.52  10
  -3   1   3 39765.5 903.814   1
   3  -1  -3 39263.9 877.237  12
   3  -1  -2 137905. 2692.81  10
  -3   1   2 137899. 2688.73  10
   3  -1  -2 138117. 1736.16  14
  -3   1   2 138067. 1529.55   5
  -3   1   2 138326. 1833.92   1
   3  -1  -2 136220. 1771.72  12
   3  -1  -1 2647.79 168.529  11
   3  -1  -1 2422.70 340.219  10
   3  -1  -1 3061.24 218.444   9
  -3   1   1 3292.50 233.792   1
  -3   1   1 2781.63 194.533   5
   3  -1  -1 3363.08 200.854  14
   3  -1   0 48974.0 745.706  11
  -3   1   0 49502.5 945.131   5
  -3   1  -1 11671.5 476.883   5
  -3   1  -2 22515.8 738.382   5
  -3   1  -3 27052.0 869.601   5
  -3   1  -4 2730.56 315.126   5
  -3   1  -5 307.578 156.982   5
  -3   1  -6 21741.6 973.385   5
  -3   0   9 13496.7 855.020   2
  -3   0   8 45019.2 1455.59   2
  -3   0   7 27020.4 1017.38   2
  -3   0   6 872.967 180.830   2
  -3   0   6 663.365 148.697   1
  -3   0   5 28963.4 880.449   2
  -3   0   5 29361.0 823.202   1
  -3   0   4 27991.0 957.859   9
   3   0  -4 29047.4 832.716  14
  -3   0   4 29881.7 791.079   1
  -3   0   3 26584.7 716.776   1
   3   0  -3 26822.7 1181.95  10
  -3   0   3 27291.8 1188.80  10
   3   0  -3 25777.0 671.707  12
  -3   0   3 25700.7 548.834   5
   3   0  -3 27397.8 743.263  14
   3   0  -2 16866.2 896.795  10
  -3   0   2 17105.9 557.403   1
   3   0  -2 17653.5 551.102  14
   3   0  -2 17519.2 522.831  12
  -3   0   2 16535.0 474.007   5
   3   0  -2 16624.9 405.406   3
  -3   0   1 22409.6 598.913   5
  -3   0   0 8892.24 402.648   5
  -3   0   0 9662.13 593.537   3
  -3   0  -1 47601.1 1064.52   5
  -3   0  -1 49028.9 1616.09   3
  -3   0  -2 22512.3 760.166   5
  -3   0  -3 1024.23 164.125   8
  -3   0  -3 942.186 190.540   5
  -3   0  -4 6310.90 466.102   5
  -3   0  -5 17633.1 828.338   5
  -3   0  -6 475.675 236.901   7
  -3  -1   9 2708.18 385.841   2
  -3  -1   8 7535.54 579.374   2
  -3  -1   7 61556.0 1539.66   2
  -3  -1   6 50830.8 1132.61   1
  -3  -1   6 47862.8 1228.43   2
   3   1  -6 47350.1 1271.63  14
  -3  -1   5 13751.0 577.993   2
  -3  -1   5 13484.6 537.883   1
   3   1  -5 13528.3 617.600  14
  -3  -1   4 16489.8 495.616   5
  -3  -1   4 16352.3 572.984   1
   3   1  -3 1485.75 278.935  10
  -3  -1   3 1360.20 266.601  10
   3   1  -3 1209.21 188.627   9
  -3  -1   3 1076.89 137.080   5
   3   1  -3 1111.38 137.557  12
   3   1  -2 8975.60 667.649  10
  -3  -1   2 8435.80 378.534   5
  -3  -1   1 146548. 1977.04   5
   3   1  -1 152477. 2531.49   3
  -3  -1   0 47391.9 1045.54   5
  -3  -1  -1 705.404 145.117   5
  -3  -1  -2 2842.37 290.776   5
  -3  -1  -3 158.356 110.451   8
  -3  -1  -3 392.113 153.251   5
  -3  -1  -4 4181.89 405.345   5
  -3  -1  -5 1331.45 290.147   7
  -3  -1  -6 4069.35 492.015   7
  -3  -2  10 8380.53 716.817   2
  -3  -2   9 5763.25 545.335   2
  -3  -2   8 579.739 187.708   2
   3   2  -7 2747.04 330.489  14
  -3  -2   7 3397.24 348.704   2
  -3  -2   6 69438.6 1470.80   2
   3   2  -6 64672.4 1530.36  14
  -3  -2   5 57174.4 1113.19   5
  -3  -2   5 57923.4 1215.78   2
   3   2  -5 56429.3 1241.56   6
   3   2  -5 55251.9 1319.37  14
  -3  -2   4 3740.88 270.375   5
  -3  -2   4 4221.51 487.450  10
   3   2  -4 3497.99 446.826  10
   3   2  -4 3560.63 271.529   6
   3   2  -3 41249.5 1479.55  10
   3   2  -3 39382.0 828.227   6
   3   2  -3 38991.6 793.343  12
  -3  -2   3 39746.6 922.277   5
   3   2  -2 108783. 2504.24  10
   3   2  -2 109024. 1369.03   6
  -3  -2   2 109271. 1683.68   5
   3   2  -1 103383. 2372.54   3
  -3  -2   1 107155. 1718.87   5
  -3  -2   0 24.1271 96.5327   5
  -3  -2  -1 8708.23 493.643   5
  -3  -2  -2 2331.07 287.101   5
  -3  -2  -3 76.6060 106.693   8
  -3  -2  -3-174.004 159.118   5
  -3  -2  -4 10463.6 648.313   8
  -3  -2  -4 9642.43 652.448   7
  -3  -2  -4 9726.76 620.987   5
  -3  -2  -5 23575.4 1110.64   7
  -3  -3  10 11075.7 811.874   2
  -3  -3   9 922.862 231.040   2
  -3  -3   8 123.576 120.882   2
   3   3  -8 83.9619 111.779  14
  -3  -3   7 39079.6 1152.12   2
   3   3  -7 37875.6 1214.07   6
   3   3  -7 37334.2 1201.79  14
  -3  -3   6 47153.1 1125.46   5
  -3  -3   6 49550.2 1183.97   2
   3   3  -6 47277.4 1259.35   6
   3   3  -6 45350.5 1287.44  14
   3   3  -5 1733.06 222.910   6
  -3  -3   5 1355.87 189.796   5
  -3  -3   5 1388.01 176.890   2
   3   3  -5 1361.85 222.574  14
  -3  -3   4 8367.37 450.131   5
   3   3  -4 8511.34 686.919  10
   3   3  -4 8588.11 435.958   6
   3   3  -3 13014.6 841.408  10
   3   3  -3 12230.0 465.653   6
  -3  -3   3 11286.4 531.819   5
  -3  -3   2 383.546 124.598   5
  -3  -3   1 7681.88 460.985   5
  -3  -3   0 17993.6 730.159   5
  -3  -3  -1 7152.34 474.430   5
  -3  -3  -2 3665.12 375.145   8
  -3  -3  -2 3184.83 343.833   5
  -3  -3  -3 2466.39 334.879   8
  -3  -3  -3 2343.05 319.817   5
  -3  -3  -4 9063.74 659.235   8
   3   4  -9 5177.47 533.871   6
   3   4  -8 28405.6 1153.10   6
   3   4  -8 29164.4 1122.49  14
   3   4  -7 21857.9 938.942   6
   3   4  -7 21367.7 921.687  14
  -3  -4   6 14353.0 657.729   5
   3   4  -6 14622.5 712.905   6
   3   4  -6 13504.2 710.875  14
  -3  -4   5 24922.5 865.275   5
   3   4  -5 25498.9 870.311   6
   3   4  -4 5.91892 72.8057   6
  -3  -4   4 65.6661 106.006   5
  -3  -4   3 186.110 130.547   5
  -3  -4   2 126988. 2150.40   5
  -3  -4   1 123650. 2185.88   5
  -3  -4   0 272.703 157.115   5
  -3  -4  -1 3826.01 383.436   5
  -3  -4  -2 18409.1 901.023   8
  -3  -4  -2 18711.4 860.681   5
  -3  -4  -3 2031.36 328.103   8
   3   5  -9 2563.22 399.743   6
   3   5  -8 948.240 253.264   6
   3   5  -8 1233.44 255.642  14
  -3  -5   7 10703.7 635.183   5
   3   5  -7 11834.6 713.874   6
   3   5  -7 11448.3 697.244  14
  -3  -5   6 5391.89 442.858   5
   3   5  -6 5016.79 441.869   6
  -3  -5   5 7545.34 527.107   5
   3   5  -5 8303.75 525.750   6
  -3  -5   4 5340.52 434.363   5
  -3  -5   3 11943.6 652.923   5
  -3  -5   2 1613.25 273.108   5
  -3  -5   1 580.753 198.445   5
  -3  -5   0 722.358 216.592   5
  -3  -5  -1-60.5474 162.949   5
  -3  -5  -2 539.073 209.463   8
  -3  -5  -2 1014.10 240.510   5
   3   6  -8 19995.4 1029.88   6
  -3  -6   7 12042.1 723.304   5
   3   6  -7 11971.9 750.708   6
   3   6  -7 13685.3 799.498  14
   3   6  -6 2170.56 317.115   6
  -3  -6   6 2332.40 334.493   5
  -3  -6   5 517.448 199.227   5
  -3  -6   4 5219.73 471.227   5
  -3  -6   3 2166.51 322.262   5
  -3  -6   2 10243.9 661.408   5
  -3  -6   1 5635.20 513.018   5
  -3  -6   0 264.554 179.418   5
  -3  -6  -1 3987.30 468.995   8
  -3  -6  -1 3351.70 418.294   5
   3   7  -8 709.838 243.491   6
  -3  -7   8 1025.52 264.330   5
   3   7  -7 216.416 162.844   6
  -3  -7   7 181.219 176.374   5
  -3  -7   6 2675.06 380.450   5
  -3  -7   5 6264.92 558.303   5
  -3  -7   4 2124.70 348.188   5
  -3  -7   3 5928.19 547.171   5
  -3  -7   2-27.2016 169.008   5
  -3  -7   1 355.556 177.363   5
   4  -9  -2 15269.2 890.708  11
   4  -9  -1 2559.70 363.687  11
   4  -9  -1 3381.82 427.390  13
   4  -9   0 542.948 196.992  11
   4  -9   0 835.557 223.387  13
   4  -9   1-54.5185 147.966  11
   4  -9   1-41.5131 101.270  13
   4  -9   2 1481.74 277.113  13
  -4   9  -3-673.857 236.290   5
  -4   9  -4 6555.46 613.172   5
  -4   8   4 473.813 187.194   4
   4  -8  -3 3208.08 411.130  13
   4  -8  -2 4114.21 437.780  11
   4  -8  -2 4203.01 446.790  13
   4  -8  -1 28786.2 1124.94  11
   4  -8  -1 26013.5 1067.50  13
   4  -8   0 748.744 206.224  11
   4  -8   0 613.123 179.368  13
   4  -8   1 1538.63 285.682  11
   4  -8   1 1625.35 264.100  13
  -4   8  -2 21127.3 956.597   5
  -4   8  -3 6917.36 573.179   5
  -4   8  -4 177.092 178.621   5
  -4   8  -5 1867.01 371.796   5
  -4   7   5-106.181 142.457   4
  -4   7   4 1128.01 229.098   4
   4  -7  -3 3201.56 379.885  13
  -4   7   3 3588.66 367.878   4
   4  -7  -2 9955.41 634.379  11
   4  -7  -2 9507.67 617.058  13
   4  -7  -1 21821.9 914.233  11
   4  -7  -1 22216.5 913.480  13
   4  -7   0 5709.54 462.765  11
   4  -7   0 5231.01 431.484  13
  -4   7  -1 13995.9 710.815   5
   4  -7   1 15599.4 711.792  13
  -4   7  -2 52272.9 1470.13   5
  -4   7  -3 362.461 179.379   5
  -4   7  -4 2869.83 388.998   5
  -4   7  -5 944.141 251.194   5
  -4   6   6 51.9236 155.185   1
  -4   6   6-26.0381 138.246   4
  -4   6   5 3706.98 404.433   4
  -4   6   4 7437.70 519.389   4
  -4   6   3 57460.8 1370.23   4
   4  -6  -2 24053.5 927.560  11
   4  -6  -2 24432.1 910.899  13
   4  -6  -1 52170.8 1342.04  11
  -4   6   1 50428.7 1316.10   1
   4  -6  -1 51465.4 1300.11  13
   4  -6   0 35033.3 1081.24  11
  -4   6   0 36479.3 1041.75   1
   4  -6   0 35950.7 1027.76  13
  -4   6  -1 1075.36 212.773   5
   4  -6   1 1175.05 195.078  13
  -4   6  -2 57603.8 1494.20   5
  -4   6  -3 28084.4 1083.16   5
  -4   6  -4 1551.62 307.189   5
  -4   6  -5-59.4232 159.191   5
  -4   6  -6 27593.8 1284.84   5
  -4   5   7-142.571 134.353   1
  -4   5   7 236.227 139.100   4
  -4   5   6 858.856 243.174   1
  -4   5   6 835.288 208.943   4
  -4   5   5 65035.3 1751.96   1
  -4   5   5 65837.8 1596.29   4
  -4   5   4 20295.7 913.760   1
  -4   5   4 21236.3 806.707   4
  -4   5   3 2163.35 293.426   1
  -4   5   3 2190.83 244.997   4
   4  -5  -2 57.2008 101.033  11
  -4   5   2 100.171 121.090   1
   4  -5  -2 322.580 128.348  13
   4  -5  -1 3565.98 327.807  11
  -4   5   1 3229.99 309.681   1
   4  -5  -1 3670.81 308.692  13
   4  -5  -1 2958.27 282.110  12
   4  -5   0 556.573 153.886  11
  -4   5   0 386.743 115.897   1
  -4   5   0 423.715 122.250   5
   4  -5   0 359.986 104.595  13
   4  -5   0 450.341 119.452  12
  -4   5  -1 99354.0 1836.89   5
  -4   5  -2 41661.0 1209.60   5
  -4   5  -3 1576.60 284.331   5
  -4   5  -4 1150.21 279.559   5
  -4   5  -5 16882.4 927.884   5
  -4   5  -6 2063.78 386.350   5
  -4   4   8 3757.88 454.777   2
  -4   4   8 4309.46 485.842   1
  -4   4   7 1385.30 257.318   2
  -4   4   7 1514.43 273.653   1
  -4   4   6 5174.56 475.929   1
  -4   4   6 4413.29 422.933   2
  -4   4   5 14144.4 694.637   2
  -4   4   5 13952.1 741.249   1
  -4   4   4 22744.8 898.467   1
  -4   4   3 54704.0 1365.56   1
   4  -4  -2 15633.9 633.547  11
  -4   4   2 16384.2 681.469   1
   4  -4  -2 15891.1 623.246  12
   4  -4  -1 1105.21 169.754  11
  -4   4   1 1452.43 198.557   1
  -4   4   1 863.195 137.006   5
   4  -4  -1 1202.29 164.753  13
   4  -4  -1 880.204 152.887  12
  -4   4   0 76461.8 1393.65   1
  -4   4   0 76145.8 1412.73   5
   4  -4   0 74432.7 1251.78  13
   4  -4   0 77523.6 1433.40  12
   4  -4   0 77042.7 1424.75  11
  -4   4  -1 53068.5 1238.13   5
  -4   4  -2 5016.96 404.244   5
  -4   4  -3 3248.52 363.794   5
  -4   4  -4 3819.50 423.117   5
  -4   4  -5 2872.17 388.999   5
  -4   4  -6 16130.7 943.308   5
  -4   3   8 1959.04 336.649   2
  -4   3   7 2594.63 342.146   1
  -4   3   7 2910.43 368.541   2
  -4   3   6 2180.15 294.840   2
  -4   3   6 2199.84 293.356   1
  -4   3   5 75231.8 1638.35   2
  -4   3   5 75352.7 1685.08   1
  -4   3   4 96731.5 1853.10   1
  -4   3   3 4046.72 341.282   1
   4  -3  -2 559.964 122.414  11
  -4   3   2 777.021 151.882   1
   4  -3  -2 862.167 157.287  12
   4  -3  -1 152260. 2042.79  11
  -4   3   1 147649. 2118.36   1
  -4   3   1 150939. 1935.23   5
   4  -3  -1 152471. 2120.04  12
  -4   3   0 63020.6 1220.41   5
  -4   3   0 62921.1 1209.99   1
   4  -3   0 63083.9 1169.69  11
   4  -3   1 25439.8 1255.65   9
  -4   3  -1 28425.2 861.257   5
  -4   3  -2 7778.45 483.963   5
  -4   3  -3 32679.6 1071.05   5
  -4   3  -4 5131.20 458.800   5
  -4   3  -5 36145.9 1301.92   5
  -4   3  -6 747.453 263.956   5
  -4   2   9 6841.23 635.756   2
  -4   2   8 393.589 144.428   2
  -4   2   7 128.362 121.659   1
  -4   2   7 87.3116 104.269   2
  -4   2   6 67581.8 1618.72   2
  -4   2   6 67861.3 1582.79   1
  -4   2   5 48594.1 1256.83   1
  -4   2   4 2060.27 241.392   1
  -4   2   3 5788.95 387.640   1
   4  -2  -3 5494.48 356.582  12
  -4   2   2 19013.1 669.313   1
  -4   2   2 17968.4 506.310   5
   4  -2  -2 18353.8 637.629  12
   4  -2  -1 11786.5 432.129  11
  -4   2   1 12050.8 512.028   1
  -4   2   1 10953.3 439.119   5
   4  -2  -1 11167.4 396.525  14
   4  -2   0 164492. 1972.90  11
  -4   2   0 169160. 2226.43   5
   4  -2   1 15998.5 956.624   9
  -4   2  -1 13588.8 586.264   5
  -4   2  -2 98.2808 106.950   5
  -4   2  -3 85728.9 1788.40   5
  -4   2  -4 12820.6 716.451   5
  -4   2  -5 10485.5 686.262   5
  -4   2  -6 757.277 257.998   5
  -4   1   9 611.761 210.062   2
  -4   1   8 4450.82 468.628   2
  -4   1   7 5774.99 487.194   2
  -4   1   7 4833.74 409.811   1
  -4   1   6 2042.99 278.242   2
  -4   1   6 1473.56 225.085   1
  -4   1   5 6759.85 437.380   1
  -4   1   4 19386.7 714.146   1
   4  -1  -4 19855.4 715.009  14
   4  -1  -3 8140.37 416.293  14
  -4   1   3 8041.53 324.400   5
   4  -1  -3 8510.90 432.802  12
  -4   1   3 7980.02 446.017   1
  -4   1   2 21096.0 707.042   1
  -4   1   2 21085.9 595.338   5
   4  -1  -2 21155.3 676.976  12
   4  -1  -2 22545.5 654.141  14
   4  -1  -1 60795.0 1058.70  14
  -4   1   1 59131.8 1138.35   5
  -4   1   0 32046.4 872.468   5
  -4   1  -1 23119.8 785.453   5
  -4   1  -2 15256.2 678.510   5
  -4   1  -3 40891.5 1205.02   5
  -4   1  -4 3211.93 372.159   5
  -4   1  -5 5563.28 522.194   5
  -4   1  -6 1996.55 355.145   5
  -4   0   9 883.669 241.181   2
  -4   0   8 1812.51 300.430   2
  -4   0   7 37849.0 1217.63   2
  -4   0   7 35834.8 1101.57   1
  -4   0   6 43644.9 1220.11   2
  -4   0   6 42832.3 1157.29   1
   4   0  -5 4407.08 377.348  14
  -4   0   5 4499.16 349.227   1
  -4   0   4 89482.9 1634.14   1
   4   0  -4 92931.2 1682.49  14
   4   0  -4 89342.2 1544.09  12
  -4   0   3 98042.6 1678.06   1
   4   0  -3 94967.7 1629.85  14
  -4   0   3 97553.7 1435.11   5
   4   0  -3 95909.2 1573.20  12
  -4   0   2 61587.4 1149.27   5
  -4   0   1-13.8691 83.1894   5
  -4   0   0 53328.9 1207.73   5
  -4   0  -1 12502.6 601.784   5
  -4   0  -2 3496.77 350.027   5
  -4   0  -3 50212.3 1389.35   5
  -4   0  -4 20604.8 927.886   5
  -4   0  -5 1316.40 272.720   5
  -4  -1   9 526.587 198.935   2
  -4  -1   8 260.347 142.228   2
  -4  -1   7 496.000 167.760   2
  -4  -1   6 13537.5 652.718   2
  -4  -1   6 13435.5 624.343   1
   4   1  -6 13670.5 703.734  14
   4   1  -5 37.0750 97.2834  14
  -4  -1   5 146.934 90.9400   1
   4   1  -4 27212.3 903.245  14
   4   1  -4 26837.6 766.609  12
  -4  -1   4 27007.0 728.751   5
   4   1  -3 57238.8 1145.74  12
  -4  -1   3 58160.5 1158.64   5
  -4  -1   2 14200.9 572.169   5
  -4  -1   1 13306.1 585.124   5
  -4  -1   0 99.0470 116.103   5
  -4  -1  -1 890.380 199.662   5
  -4  -1  -2 55642.5 1444.86   5
  -4  -1  -3 31252.0 1121.68   5
  -4  -1  -4 1220.89 254.987   5
  -4  -1  -5 224.224 202.061   5
  -4  -1  -5-5.52208 175.148   7
  -4  -2  10 645.416 263.169   2
  -4  -2   9 44400.5 1501.57   2
  -4  -2   8 19055.5 897.944   2
   4   2  -8 20048.0 962.869  14
  -4  -2   7 36843.1 1157.66   2
   4   2  -7 35954.5 1245.39  14
   4   2  -6 1003.96 215.987  14
  -4  -2   6 1331.45 212.495   2
   4   2  -5 19834.6 832.250  14
  -4  -2   5 21261.3 707.249   5
   4   2  -4 4816.38 312.795  12
  -4  -2   4 5125.93 351.191   5
   4   2  -3 83340.5 1419.83  12
  -4  -2   3 84381.9 1563.73   5
  -4  -2   2 42286.5 1099.74   5
  -4  -2   1 394.694 161.166   5
  -4  -2   0 3317.77 337.714   5
  -4  -2  -1 33732.5 1116.71   5
  -4  -2  -2 11877.5 686.514   5
  -4  -2  -3 716.496 194.264   8
  -4  -2  -3 789.954 221.946   5
  -4  -2  -4 1097.37 273.074   5
  -4  -3  10 24103.0 1166.84   2
  -4  -3   9 108.944 125.367   2
   4   3  -8 137.494 128.640  14
  -4  -3   8-23.8519 96.0971   2
   4   3  -7 2293.90 331.772  14
   4   3  -6 1651.08 242.754   6
   4   3  -6 1768.88 288.333  14
   4   3  -5 6652.03 423.687   6
  -4  -3   5 6030.69 421.919   5
  -4  -3   4 28900.3 935.843   5
  -4  -3   3 14330.5 665.448   5
  -4  -3   2 206.676 129.330   5
  -4  -3   1 1041.50 227.215   5
  -4  -3   0 6181.03 485.380   5
  -4  -3  -1 330.627 178.388   5
  -4  -3  -2 14470.9 793.838   8
  -4  -3  -2 13862.8 777.374   5
  -4  -3  -3 1802.14 319.671   8
  -4  -3  -3 2420.82 347.990   5
   4   4  -9 19513.1 1008.42  14
   4   4  -8 6136.76 544.416   6
   4   4  -8 6300.37 558.568  14
   4   4  -7 418.372 160.383   6
   4   4  -7 285.590 150.216  14
  -4  -4   6 7645.16 509.883   5
   4   4  -6 7960.30 525.670   6
   4   4  -6 7455.77 572.240  14
  -4  -4   5 28938.1 999.773   5
  -4  -4   4 12916.4 668.343   5
  -4  -4   3 631.512 180.849   5
  -4  -4   2 3761.93 395.396   5
  -4  -4   1 55.8253 160.098   5
  -4  -4   0 2205.06 324.426   5
  -4  -4  -1 5326.34 505.115   5
  -4  -4  -2 4726.03 493.769   8
  -4  -4  -2 5293.52 514.660   5
   4   5  -9 2598.36 384.597  14
   4   5  -9 2244.75 381.604   6
   4   5  -8 29.3009 119.148   6
   4   5  -8 1.52022 141.207  14
  -4  -5   7 5407.87 472.497   5
   4   5  -7 5212.74 475.578   6
   4   5  -7 4992.50 500.615  14
  -4  -5   6 4367.12 421.236   5
  -4  -5   5 249.114 146.395   5
  -4  -5   4 3032.51 359.027   5
  -4  -5   3 1316.92 254.271   5
  -4  -5   2 1184.36 267.750   5
  -4  -5   1 862.610 230.408   5
  -4  -5   0 9635.95 677.654   5
  -4  -5  -1 131.097 183.042   5
   4   6  -8 1447.95 305.039   6
   4   6  -8 1924.48 339.659  14
  -4  -6   7 423.887 181.428   5
  -4  -6   6 16162.0 859.475   5
  -4  -6   5 12167.1 750.663   5
  -4  -6   4 239.255 202.819   5
  -4  -6   3 15978.1 879.728   5
  -4  -6   2 34803.5 1333.08   5
  -4  -6   1 1231.84 299.871   5
  -4  -7   6 734.503 227.962   5
  -4  -7   5-81.1834 145.793   5
  -4  -7   4 683.341 248.571   5
  -5   9   2 845.908 253.218   1
   5  -9  -1 918.814 246.457  11
   5  -9  -1 918.441 238.525  13
   5  -9   0 3997.35 462.561  11
   5  -9   0 4108.31 450.652  13
   5  -9   1 6249.45 570.295  11
   5  -9   2 86.5214 139.998  11
  -5   9  -3 1791.01 342.180   5
  -5   8   3 124.924 183.824   1
   5  -8  -2 982.076 255.575  11
  -5   8   2 845.448 243.143   1
   5  -8  -2 601.981 189.852  13
   5  -8  -1 19211.7 947.010  11
   5  -8  -1 19757.5 933.296  13
   5  -8   0 1174.91 249.767  11
   5  -8   0 1029.11 211.678  13
   5  -8   1 2928.02 384.487  11
  -5   8  -2 2312.17 346.838   5
  -5   8  -3-114.102 172.892   5
  -5   8  -4 1405.25 320.585   5
  -5   7   5 3898.10 497.280   1
  -5   7   4 323.834 170.134   1
  -5   7   3 5461.30 525.981   1
   5  -7  -2 20473.9 933.732  11
  -5   7   2 20597.2 960.322   1
   5  -7  -2 21252.2 925.030  13
   5  -7  -1 569.923 183.800  11
   5  -7  -1 655.642 173.226  13
  -5   7   1 176.005 136.606   1
   5  -7   0 16688.8 813.543  11
   5  -7   1 429.914 177.998  11
  -5   7  -1 271.633 152.729   5
  -5   7  -2 914.579 229.585   5
  -5   7  -3 7114.70 603.670   5
  -5   7  -4 15607.4 940.208   5
  -5   6   6 275.759 163.694   1
  -5   6   6 348.240 172.093   4
  -5   6   5 9571.72 715.293   1
  -5   6   4 702.107 210.328   1
  -5   6   3 16.0302 120.312   1
   5  -6  -2 33080.5 1121.81  11
  -5   6   2 33003.0 1147.42   1
   5  -6  -1 20320.5 857.551  11
  -5   6   1 21097.2 862.921   1
   5  -6  -1 20818.1 807.755  13
   5  -6  -1 21182.4 825.985  12
   5  -6   0 8909.94 556.446  11
  -5   6  -1 221.692 152.692   5
  -5   6  -2-51.9616 161.056   5
  -5   6  -3 8156.83 622.160   5
  -5   6  -4 512.419 237.364   5
  -5   6  -5 5905.62 606.546   5
  -5   5   7 395.020 167.725   1
  -5   5   6 25894.4 1069.95   2
  -5   5   6 24419.3 1126.08   1
  -5   5   5 6027.91 535.371   1
  -5   5   4 984.225 226.119   1
  -5   5   3 12614.1 703.076   1
   5  -5  -2 211387. 3028.32  11
  -5   5   2 211265. 3120.56   1
   5  -5  -2 216308. 2997.56  12
   5  -5  -1 31970.4 1004.35  11
  -5   5   1 33035.2 1034.12   1
   5  -5  -1 32772.2 1010.93  12
   5  -5   0 8104.35 491.648  11
  -5   5   0 7358.50 474.612   5
   5  -5   0 7900.38 492.274  12
  -5   5  -1 29029.8 1009.30   5
  -5   5  -2 17893.7 855.428   5
  -5   5  -3 4615.12 471.941   5
  -5   5  -4 18231.7 965.316   5
  -5   5  -5 3189.05 449.088   5
  -5   4   8 4405.14 496.503   2
  -5   4   8 4490.96 503.191   1
  -5   4   7 29175.6 1190.49   2
  -5   4   7 30788.4 1246.86   1
  -5   4   6 343.105 183.395   1
  -5   4   6 483.348 157.822   2
  -5   4   5 18898.9 890.692   1
  -5   4   4 34883.9 1165.06   1
  -5   4   3 3366.33 349.246   1
   5  -4  -3 3337.24 329.037  12
   5  -4  -2 56581.4 1305.33  11
  -5   4   2 58371.1 1398.83   1
   5  -4  -2 55466.9 1327.23  12
   5  -4  -1 7743.17 453.354  11
  -5   4   1 7745.04 427.784   5
  -5   4   1 8369.64 493.264   1
   5  -4  -1 7270.99 461.068  12
   5  -4   0-23.7285 78.4547  11
  -5   4   0 1.44348 111.925   5
  -5   4   0-10.7710 81.1251   1
  -5   4  -1 2997.72 314.283   5
  -5   4  -2 36813.2 1184.46   5
  -5   4  -3 17212.7 859.234   5
  -5   4  -4 386.531 183.916   5
  -5   4  -5 3932.37 479.581   5
  -5   3   8 30301.2 1273.75   2
  -5   3   8 29577.5 1220.12   1
  -5   3   7 1462.12 271.629   1
  -5   3   7 1132.98 238.402   2
  -5   3   6 397.288 159.121   1
  -5   3   6 546.988 192.012   2
  -5   3   5 2529.44 322.039   1
  -5   3   4 7786.06 518.452   1
  -5   3   3 16070.6 721.435   1
   5  -3  -3 15303.7 676.058  12
  -5   3   2 91777.2 1760.54   1
   5  -3  -2 92704.4 1748.33  12
   5  -3  -1 11224.1 499.435  11
  -5   3   1 10658.2 544.212   1
  -5   3   1 10887.8 504.680   5
   5  -3  -1 9677.49 531.451  12
  -5   3   0 20793.6 741.371   1
  -5   3   0 20726.8 755.669   5
  -5   3  -1 50778.4 1298.63   5
  -5   3  -2 10964.7 639.845   5
  -5   3  -3 567.563 201.628   5
  -5   3  -4 631.598 192.152   5
  -5   3  -5 6400.40 591.442   5
  -5   2   8 2515.13 343.419   1
  -5   2   8 2522.80 370.425   2
  -5   2   7 10126.0 670.753   2
  -5   2   7 10759.6 663.468   1
  -5   2   6 7238.12 525.626   1
  -5   2   5 282.111 140.242   1
  -5   2   4 45540.2 1250.62   1
   5  -2  -4 46143.7 1206.48  12
  -5   2   3 27302.4 922.575   1
   5  -2  -3 24939.6 847.923  12
  -5   2   2 261.893 95.0868   5
  -5   2   2 287.074 124.173   1
   5  -2  -2 301.981 100.191  14
   5  -2  -2 246.164 111.603  12
  -5   2   1 536.073 134.883   5
  -5   2   1 530.860 150.462   1
  -5   2   0 41560.2 1096.51   5
  -5   2  -1 271.718 147.494   5
  -5   2  -2 32479.0 1094.27   5
  -5   2  -3 14321.0 771.446   5
  -5   2  -4 619.668 220.792   5
  -5   2  -5 2484.09 396.135   5
  -5   1   9 7226.29 635.029   2
  -5   1   8 13998.7 821.226   2
  -5   1   8 13942.7 774.007   1
  -5   1   7 1734.06 268.578   1
  -5   1   7 1842.52 293.290   2
  -5   1   6 3406.50 357.408   1
  -5   1   5 79421.2 1715.10   1
  -5   1   4 23327.7 864.490   1
   5  -1  -4 22333.9 804.251  14
   5  -1  -4 21744.1 797.121  12
  -5   1   3 31314.4 985.438   1
   5  -1  -3 31983.3 912.291  14
   5  -1  -3 29937.5 928.509  12
   5  -1  -2 5571.79 352.051  14
  -5   1   2 5499.74 356.100   5
   5  -1  -2 6053.79 409.486  12
  -5   1   1 56307.5 1265.85   5
  -5   1   0 1833.46 254.696   5
  -5   1  -1 70258.7 1586.85   5
  -5   1  -2 0.55525 128.639   5
  -5   1  -3 21953.6 968.174   5
  -5   1  -4 17955.5 939.442   5
  -5   0   9 4840.15 521.745   2
  -5   0   8 402.540 168.556   2
  -5   0   7 19887.1 870.365   1
  -5   0   7 19583.0 896.333   2
  -5   0   6 45717.7 1291.38   1
   5   0  -6 42877.5 1316.28  14
  -5   0   5 602.355 178.280   1
   5   0  -5 805.695 183.495  14
   5   0  -4 24195.5 869.764  14
   5   0  -4 24174.4 820.835  12
   5   0  -3 13361.8 611.507  14
  -5   0   3 12108.6 524.266   5
   5   0  -3 12951.9 592.916  12
  -5   0   2 1619.30 211.341   5
  -5   0   1 49385.1 1236.38   5
  -5   0   0 67679.8 1540.66   5
  -5   0  -1 1017.26 205.091   5
  -5   0  -2 311.355 164.379   5
  -5   0  -3-270.844 165.774   5
  -5   0  -4 504.709 221.971   5
  -5  -1   9 2226.75 363.238   2
  -5  -1   8 45.8847 122.308   2
  -5  -1   7 24559.6 985.104   2
   5   1  -7 22747.3 1026.88  14
   5   1  -6 2436.73 327.267  14
   5   1  -5 68798.4 1454.24  12
   5   1  -5 68426.4 1649.60  14
  -5  -1   4 142.226 115.801   5
   5   1  -4-8.80626 108.416  14
   5   1  -4 8.69599 103.312  12
  -5  -1   3 3519.34 310.481   5
   5   1  -3 3327.43 307.906  12
  -5  -1   2 18781.5 752.894   5
  -5  -1   1 93547.7 1859.03   5
  -5  -1   0 16082.2 761.156   5
  -5  -1  -1 13361.7 731.537   5
  -5  -1  -2 3328.82 403.097   5
  -5  -1  -3 13677.9 821.774   5
  -5  -2   9 232.895 165.585   2
  -5  -2   8 8061.75 591.467   2
   5   2  -8 8239.78 652.626  14
  -5  -2   7 31098.4 1089.16   2
   5   2  -7 28124.6 1153.24  14
   5   2  -6 33135.9 1202.40  14
   5   2  -5 32219.6 1152.91  14
  -5  -2   4 79.7817 117.957   5
  -5  -2   3 2429.11 295.165   5
  -5  -2   2 16073.2 742.788   5
  -5  -2   1 8546.83 575.828   5
  -5  -2   0 12821.3 722.884   5
  -5  -2  -1-130.441 142.111   5
  -5  -2  -2-156.303 191.555   5
   5   3  -9 6724.77 628.817  14
   5   3  -8 1868.29 328.667  14
   5   3  -7 45617.1 1515.71  14
   5   3  -6 177.903 156.940  14
  -5  -3   5 5667.18 444.343   5
  -5  -3   4 3327.89 357.107   5
  -5  -3   3 904.688 221.466   5
  -5  -3   2 13020.2 724.774   5
  -5  -3   1 25582.5 1039.93   5
  -5  -3   0 1853.11 312.071   5
  -5  -3  -1 2415.77 357.826   5
  -5  -3  -2 8272.07 653.892   8
   5   4  -9 3581.70 475.712  14
   5   4  -8 4447.22 507.418  14
   5   4  -7 8586.86 670.414  14
  -5  -4   6 2300.41 317.852   5
  -5  -4   5 3137.49 365.773   5
  -5  -4   4 9795.11 645.348   5
  -5  -4   3 16360.3 841.910   5
  -5  -4   2 7254.40 582.418   5
  -5  -4   1 1706.11 311.090   5
  -5  -4   0 1085.44 268.912   5
   5   5  -8 1021.34 280.648  14
   5   5  -7 1389.59 301.808  14
  -5  -5   6 1317.85 262.424   5
  -5  -5   5 2932.65 385.743   5
  -5  -5   4 5428.83 523.780   5
  -5  -5   3 68.4004 161.986   5
  -5  -5   2 4059.26 477.481   5
  -5  -6   7-162.876 194.089   5
  -5  -6   6 4314.94 488.569   5
  -5  -6   5 3674.74 463.285   5
  -5  -6   4 499.244 218.647   5
  -6   8   3 503.812 243.088   1
   6  -8  -2 6722.56 591.015  11
  -6   8   2 6215.74 575.538   1
   6  -8  -1 443.385 174.560  11
   6  -8   0 642.183 211.341  11
   6  -8   1 6157.55 558.703  11
   6  -8   2 23712.1 1106.90  11
  -6   7   4 17616.7 999.671   1
  -6   7   3 25048.1 1137.65   1
   6  -7  -2 1094.83 268.425  11
  -6   7   2 835.150 218.783   1
   6  -7  -1 903.354 224.556  11
   6  -7   0 9772.33 649.117  11
   6  -7   1 7263.48 568.962  11
  -6   7  -2 1210.91 276.117   5
  -6   7  -3 4907.52 549.484   5
  -6   6   5 17600.6 994.427   1
  -6   6   4 8693.34 670.034   1
  -6   6   3 1327.00 268.143   1
   6  -6  -2 961.639 219.416  11
  -6   6   2 761.861 211.563   1
   6  -6  -2 1038.65 223.387  12
   6  -6  -1 88.0695 118.996  11
   6  -6  -1 189.268 140.630  12
   6  -6   0 91.9061 96.3402  11
   6  -6   0-181.406 132.506  12
  -6   6  -1 18967.4 905.486   5
   6  -6   1 17156.5 835.327  12
   6  -6   1 19738.4 873.229  11
  -6   6  -2 25441.8 1124.08   5
  -6   6  -3 1922.88 342.283   5
  -6   5   7 1908.71 326.480   2
  -6   5   6 15874.4 937.111   1
  -6   5   5 4843.68 499.615   1
  -6   5   4 1165.57 254.955   1
  -6   5   3 341.601 179.040   1
   6  -5  -3-68.3740 137.752  12
   6  -5  -2 2731.59 313.066  11
  -6   5   2 2643.38 326.549   1
   6  -5  -2 2662.10 324.529  12
   6  -5  -1 10783.1 605.085  11
  -6   5   1 11889.1 655.904   1
   6  -5  -1 10561.5 630.614  12
   6  -5   0 11632.7 616.107  11
  -6   5   0 12652.4 670.991   5
   6  -5   0 12417.7 692.992  12
  -6   5  -1 12457.4 715.681   5
  -6   5  -2 9267.88 656.521   5
  -6   5  -3 1489.01 301.105   5
  -6   4   7 6904.97 599.177   2
  -6   4   7 6777.91 607.745   1
  -6   4   6 372.477 164.984   1
  -6   4   5 22447.8 1024.73   1
  -6   4   4 15731.4 817.251   1
  -6   4   3 4973.91 441.409   1
   6  -4  -3 5857.64 469.304  12
   6  -4  -2 643.995 155.858  11
  -6   4   2 408.792 165.835   1
   6  -4  -2 412.386 157.881  12
  -6   4   1 16155.7 749.839   1
   6  -4  -1 16194.1 767.171  12
  -6   4   0 4317.87 392.062   5
  -6   4  -1 15484.1 779.687   5
  -6   4  -2 117.918 135.596   5
  -6   4  -3 625.660 236.947   5
  -6   3   8 1774.26 322.720   2
  -6   3   8 1821.43 321.590   1
  -6   3   7 10259.2 718.756   2
  -6   3   7 10125.7 707.859   1
  -6   3   6 67592.5 1803.55   1
  -6   3   5 12127.2 718.844   1
  -6   3   4 260.100 144.341   1
   6  -3  -4 23.6943 130.043  12
   6  -3  -3 134168. 2346.25  12
  -6   3   3 133465. 2433.45   1
  -6   3   2 66698.9 1594.55   1
   6  -3  -2 67187.6 1588.44  12
  -6   3   1 14096.5 694.119   1
  -6   3   1 14140.3 653.349   5
  -6   3   0 1999.49 279.722   5
  -6   3  -1 2245.53 308.227   5
  -6   3  -2 25.5060 138.040   5
  -6   3  -3 15893.7 883.893   5
  -6   2   8 10366.6 745.994   2
  -6   2   8 10921.3 738.341   1
  -6   2   7 10948.6 727.494   2
  -6   2   7 11215.7 726.670   1
  -6   2   6 11754.7 720.010   1
  -6   2   5 179.324 139.798   1
  -6   2   4 2667.74 330.653   1
   6  -2  -4 2559.31 322.879  12
  -6   2   3 1558.23 260.840   1
   6  -2  -3 1609.46 259.248  12
  -6   2   2 17866.5 702.284   5
   6  -2  -2 16280.8 750.682  12
  -6   2   1 21075.2 817.675   5
  -6   2   0 328.514 144.536   5
  -6   2  -1 1748.53 283.163   5
  -6   2  -2 19908.6 942.613   5
  -6   2  -3 9297.57 693.765   5
  -6   1   8 13932.5 846.473   2
  -6   1   8 13681.8 816.254   1
  -6   1   7 4388.23 451.313   1
  -6   1   6 36496.3 1251.39   1
   6  -1  -5 289.762 116.862  14
  -6   1   5 663.204 194.598   1
   6  -1  -5 548.739 164.456  12
   6  -1  -4 793.791 178.296  14
  -6   1   4 761.132 203.177   1
   6  -1  -4 761.389 194.611  12
   6  -1  -3 117635. 2022.10  14
   6  -1  -3 115471. 2130.05  12
  -6   1   2 68260.8 1494.31   5
  -6   1   1 731.225 183.963   5
  -6   1   0 446.095 169.227   5
  -6   1  -1 17783.4 859.615   5
  -6   1  -2 5398.88 520.269   5
  -6   1  -3-164.529 189.418   5
  -6   0   9 1827.10 342.755   2
  -6   0   8 15845.6 883.890   2
  -6   0   8 14745.7 833.606   1
  -6   0   7 13508.7 770.604   1
  -6   0   6 713.226 194.472   1
   6   0  -6 1541.36 292.350  14
   6   0  -5-4.58224 118.687  14
   6   0  -5 76.2913 111.013  12
   6   0  -4 56442.6 1460.20  14
   6   0  -4 58581.3 1455.64  12
   6   0  -3 31393.9 1034.83  14
  -6   0   3 32426.9 992.860   5
   6   0  -3 32148.3 1059.98  12
  -6   0   2 13766.3 675.325   5
  -6   0   1 6718.74 503.657   5
  -6   0   0 3033.91 367.166   5
  -6   0  -1 761.957 222.346   5
  -6   0  -2 37985.4 1381.74   5
  -6  -1   9 23067.3 1112.35   2
  -6  -1   8 20773.5 996.458   2
   6   1  -8 19882.0 1046.46  14
   6   1  -7 5522.75 533.303  14
   6   1  -6 2.69393 115.695  14
   6   1  -5 18553.3 890.536  14
   6   1  -5 17711.7 776.198  12
   6   1  -4 30.5615 119.828  14
   6   1  -4 272.973 142.736  12
  -6  -1   3 12666.2 661.453   5
   6   1  -3 12918.5 663.719  12
  -6  -1   2 3514.19 376.145   5
  -6  -1   1 1296.96 265.605   5
  -6  -1   0 8914.34 640.933   5
  -6  -1  -1 12582.7 788.150   5
  -6  -2   9 6103.90 571.980   2
   6   2  -8-511.496 209.719  14
   6   2  -7 2531.60 380.567  14
   6   2  -6 2524.94 366.224  14
   6   2  -5 351.147 165.828  14
  -6  -2   4 43020.3 1280.02   5
  -6  -2   3 15010.6 770.932   5
  -6  -2   2 1077.75 242.229   5
  -6  -2   1 1159.21 267.023   5
  -6  -2   0 3750.84 451.515   5
   6   3  -8 871.247 260.939  14
   6   3  -7 198.275 146.763  14
   6   3  -6 6629.02 597.772  14
  -6  -3   5 5446.74 474.239   5
  -6  -3   4 2545.27 340.801   5
  -6  -3   3-167.980 199.199   5
  -6  -3   2 7674.50 613.929   5
  -6  -3   1 8350.03 658.599   5
   6   4  -7 1541.43 341.504  14
   6   4  -6 13710.6 901.295  14
  -6  -4   5-26.6650 163.038   5
  -6  -4   4 4001.88 462.992   5
  -6  -4   3 265.852 181.160   5
  -6  -4   2-174.179 215.537   5
  -6  -5   6 4590.26 512.945   5
  -6  -5   5 1632.29 331.953   5
  -7   7   4 224.328 168.327   1
  -7   7   3 1616.85 317.009   1
   7  -7  -2 1353.94 291.842  11
   7  -7  -1 29332.9 1188.34  11
   7  -7   0 7631.79 595.104  11
  -7   7  -2 1077.02 275.829   5
  -7   6   5 992.203 279.410   1
  -7   6   4 1170.93 295.583   1
  -7   6   3 2185.32 348.041   1
   7  -6  -3 3149.41 400.031  12
   7  -6  -2 26734.6 1083.04  11
   7  -6  -2 26271.5 1112.01  12
   7  -6  -1 14943.6 790.035  11
   7  -6  -1 15150.2 839.133  12
   7  -6   0 24.8374 149.785  12
  -7   6  -1 4934.86 517.178   5
   7  -6   1 4520.42 476.565  12
  -7   6  -2 9673.52 742.601   5
  -7   5   6 2368.32 386.488   1
  -7   5   5 3235.69 431.959   1
  -7   5   4 19859.1 1010.62   1
  -7   5   3 14885.9 845.110   1
   7  -5  -3 17226.8 879.526  12
  -7   5   2 482.242 209.457   1
   7  -5  -2 534.947 173.013  12
   7  -5  -1-22.6390 157.971  12
   7  -5   0 243.856 127.982  12
  -7   5  -1 1813.69 319.811   5
  -7   5  -2 3206.60 431.878   5
  -7   4   6 1708.94 331.747   1
  -7   4   5 5044.43 511.501   1
  -7   4   4-9.33675 124.897   1
   7  -4  -4 126.561 114.632  12
  -7   4   3 13422.7 784.692   1
   7  -4  -3 12555.8 737.605  12
  -7   4   2 15147.4 807.415   1
   7  -4  -2 16320.3 841.763  12
   7  -4  -1 568.845 176.921  12
  -7   4   0 9751.92 648.490   5
  -7   4  -1 24360.0 1076.70   5
  -7   4  -2 9784.45 725.159   5
  -7   3   7 342.507 174.270   1
  -7   3   6 5329.41 529.061   1
  -7   3   5 450.720 172.640   1
  -7   3   4 11091.2 720.133   1
   7  -3  -4 9865.11 655.383  12
  -7   3   3 6909.21 562.263   1
   7  -3  -3 6299.90 519.458  12
   7  -3  -2 14202.9 772.453  12
  -7   3   1 5482.55 458.131   5
  -7   3   0 24839.6 1032.54   5
  -7   3  -1 20731.4 996.319   5
  -7   3  -2 907.938 255.922   5
  -7   2   8 429.466 208.383   1
  -7   2   7 2642.10 385.178   1
  -7   2   6 3360.22 420.664   1
  -7   2   5 41951.1 1428.36   1
   7  -2  -5 41131.4 1359.19  12
  -7   2   4 7410.26 584.996   1
   7  -2  -4 8058.14 584.991  12
   7  -2  -3 33710.3 1195.69  12
   7  -2  -2-28.6170 147.574  12
  -7   2   1 15293.5 777.840   5
  -7   2   0 4253.81 444.162   5
  -7   2  -1 16512.9 897.477   5
  -7   1   8 196.895 115.137   2
  -7   1   8 455.472 194.044   1
  -7   1   7 32866.3 1312.23   1
  -7   1   6 54885.2 1671.68   1
   7  -1  -5-40.5196 126.215  14
   7  -1  -5 230.029 135.362  12
   7  -1  -4 2803.39 352.650  12
   7  -1  -3 7437.66 559.965  12
  -7   1   2 64.7236 108.322   5
  -7   1   1 4148.19 425.516   5
  -7   1   0 11548.7 732.790   5
  -7   1  -1 4508.91 495.997   5
  -7   0   8 1111.08 262.015   2
   7   0  -7 5888.67 564.024  14
   7   0  -6 15.6722 137.153  14
   7   0  -6 28.9255 103.636  12
   7   0  -5 16677.1 861.264  14
   7   0  -5 17416.8 854.212  12
   7   0  -4 2006.21 310.610  14
   7   0  -4 2790.10 349.500  12
  -7   0   3 891.225 220.263   5
   7   0  -3 931.583 226.871  12
  -7   0   2 6743.83 532.069   5
  -7   0   1 13246.0 779.842   5
  -7   0   0 2495.66 364.597   5
  -7  -1   8 393.749 205.945   2
   7   1  -8 729.071 237.204  14
   7   1  -7 19705.5 1051.10  14
   7   1  -6 24343.1 1129.01  14
   7   1  -5 3742.71 428.996  14
   7   1  -4 4785.99 487.959  14
   7   1  -4 4502.65 426.080  12
  -7  -1   3 19381.0 901.273   5
   7   1  -3 18871.6 894.725  12
  -7  -1   2 9181.90 653.099   5
  -7  -1   1 85.5208 155.175   5
   7   2  -7 11025.7 810.597  14
   7   2  -6-107.645 179.363  14
   7   2  -5 1997.20 354.129  14
   7   2  -4 10410.5 742.448  14
  -7  -2   4 10528.2 685.948   5
  -7  -2   3 523.042 200.729   5
  -7  -2   2 10935.3 747.475   5
   7   3  -6-9.61034 151.900  14
   7   3  -5 410.903 208.731  14
  -7  -3   4 707.898 228.118   5
  -7  -3   3 10299.3 752.884   5
  -8   6   3 856.727 273.725   1
   8  -6  -3 1095.32 276.649  12
   8  -6  -2 6557.53 605.230  12
   8  -6  -1 799.924 273.357  12
   8  -5  -4 6705.59 600.993  12
  -8   5   4 6366.54 612.928   1
  -8   5   3-193.827 145.342   1
   8  -5  -3 35.2715 157.369  12
   8  -5  -2 4153.50 481.574  12
   8  -5  -1 19015.5 1018.60  12
  -8   4   5 1210.83 274.810   1
  -8   4   4-16.4970 161.350   1
   8  -4  -4 136.377 142.906  12
  -8   4   3 12425.3 808.922   1
   8  -4  -3 10219.9 727.147  12
   8  -4  -2 25526.8 1154.74  12
   8  -4  -1 189.959 181.722  12
  -8   4   0 5554.80 543.787   5
  -8   3   6 1939.73 361.863   1
  -8   3   5 793.569 252.503   1
   8  -3  -5 803.925 228.894  12
  -8   3   4 7975.41 656.163   1
   8  -3  -4 6814.84 582.256  12
   8  -3  -3 14123.7 846.674  12
   8  -3  -2-8.79512 154.782  12
   8  -3  -1 11433.9 797.658  12
  -8   3   0-44.9360 147.526   5
  -8   2   6 4414.37 517.915   1
   8  -2  -5 185.709 151.271  12
   8  -2  -4 2002.78 333.197  12
   8  -2  -3 15039.6 867.561  12
   8  -2  -2 11349.3 771.138  12
  -8   2   1 5090.29 503.493   5
   8  -1  -6 1329.53 296.775  14
   8  -1  -6 782.723 231.983  12
   8  -1  -5 528.004 191.385  12
   8  -1  -4 16200.5 893.467  12
   8  -1  -3 44273.5 1509.04  12
  -8   1   2 1912.14 309.915   5
   8  -1  -2 1683.45 315.143  12
  -8   1   1-16.1238 152.085   5
   8   0  -7 651.603 232.842  14
   8   0  -6 2538.71 388.700  14
   8   0  -6 2237.43 350.283  12
   8   0  -5 7175.66 594.994  12
   8   0  -4 4854.08 493.333  12
   8   0  -3 3359.35 427.342  12
  -8   0   2 146.613 165.152   5
   8   1  -6 475.067 214.100  14
  -8  -1   3 4876.88 509.230   5
   0   0   0    0.00    0.00   0
TITL DB_synteza_zolty in P-1
REM P-1 (#2 in standard setting)
CELL 0.71073   6.963129   8.034964   8.088568 103.0213 111.5680 106.0068
ZERR    2.00   0.000813   0.000958   0.000960   0.0102   0.0109   0.0103
LATT  1
SFAC C H N O
UNIT 22.00 20.00 2.00 2.00
TREF
HKLF 4
END
;
_shelx_hkl_checksum              482
_shelx_res_file
;
    shelx.res created by SHELXL-2014/7
TITL db_synteza_zolty_a.res in P-1
CELL 0.71073 6.9631  8.0350 8.0886 103.021  111.568 106.007
ZERR 2       0.0008  0.0010 0.0010   0.010    0.011   0.010
LATT 1
SFAC C H K N O S
UNIT 8 10 2 8 4 2
L.S. 4
PLAN  -10
EQIV $1 -x+2, -y, -z+1
HTAB N4 O21_$1
EQIV $2 x, y, z-1
HTAB N4 S2_$2
HTAB N4 O22_$2
EQIV $3 -x+1, -y+1, -z+1
HTAB N6 N1_$3
EQIV $4 x-1, y, z-1
HTAB N6 O21_$4
BOND $H
conf
fmap 2
acta 50
WGHT    0.040800    0.257900
FVAR      10.82128
K1    3    0.701199   -0.164729    0.445789    11.00000    0.02962    0.04245 =
         0.04416    0.01623    0.02071    0.01814
N1    4    0.664260    0.367707    0.456670    11.00000    0.02699    0.03333 =
         0.02102    0.01043    0.01168    0.01786
C2    1    0.807003    0.285843    0.504863    11.00000    0.02402    0.03019 =
         0.01860    0.01046    0.00992    0.01206
S2    6    0.905245    0.296667    0.753296    11.00000    0.02847    0.03896 =
         0.01725    0.01038    0.01051    0.01948
O21   5    1.102161    0.242849    0.788043    11.00000    0.03691    0.06906 =
         0.02998    0.02536    0.01655    0.03501
O22   5    0.708479    0.134688    0.725403    11.00000    0.03642    0.06232 =
         0.03207    0.02474    0.01612    0.01598
N3    4    0.876606    0.192817    0.398653    11.00000    0.02917    0.03479 =
         0.02170    0.01317    0.01450    0.01940
C4    1    0.796056    0.186627    0.214848    11.00000    0.02636    0.03135 =
         0.02137    0.01163    0.01351    0.01269
N4    4    0.868432    0.094479    0.104529    11.00000    0.04768    0.05392 =
         0.02617    0.01914    0.02450    0.03471
AFIX  93
H41   2    0.959442    0.044484    0.151536    11.00000   -1.20000
H42   2    0.823344    0.086006   -0.012475    11.00000   -1.20000
AFIX   0
C5    1    0.650732    0.270400    0.148263    11.00000    0.03305    0.03752 =
         0.01951    0.01333    0.01231    0.01791
AFIX  43
H5    2    0.601731    0.270564    0.024739    11.00000   -1.20000
AFIX   0
C6    1    0.580014    0.354192    0.270720    11.00000    0.02504    0.02682 =
         0.02438    0.01108    0.01045    0.01190
N6    4    0.424965    0.427662    0.213557    11.00000    0.03599    0.04623 =
         0.02462    0.01421    0.01036    0.02860
AFIX  93
H61   2    0.384879    0.479212    0.293143    11.00000   -1.20000
H62   2    0.366626    0.422751    0.097682    11.00000   -1.20000
AFIX   0
HKLF 4
REM  db_synteza_zolty_a.res in P-1
REM R1 =  0.0329 for    1321 Fo > 4sig(Fo)  and  0.0388 for all    1507 data
REM    109 parameters refined using      0 restraints
END
WGHT      0.0417      0.2527
REM Highest difference peak  0.321,  deepest hole -0.304,  1-sigma level  0.062
Q1    1   0.8520  0.2922  0.6233  11.00000  0.05    0.32
Q2    1   1.1409  0.0234  0.8835  11.00000  0.05    0.32
Q3    1   1.1522 -0.2056  0.6901  11.00000  0.05    0.29
Q4    1   0.5886  0.2821  0.1978  11.00000  0.05    0.27
Q5    1   0.8191  0.1367  0.1613  11.00000  0.05    0.27
Q6    1   0.7377  0.2383  0.1739  11.00000  0.05    0.26
Q7    1   0.9686 -0.2778  0.1804  11.00000  0.05    0.26
Q8    1   0.3707 -0.3553  0.6352  11.00000  0.05    0.25
Q9    1   0.7673  0.0386  0.7210  11.00000  0.05    0.25
Q10   1   0.8173  0.1311  0.7021  11.00000  0.05    0.24
;
_shelx_res_checksum              59370
loop_
_space_group_symop_operation_xyz
'x, y, z'
'-x, -y, -z'
loop_
_atom_site_type_symbol
_atom_site_label
_atom_site_fract_x
_atom_site_fract_y
_atom_site_fract_z
_atom_site_U_iso_or_equiv
_atom_site_adp_type
_atom_site_calc_flag
_atom_site_occupancy
_atom_site_disorder_assembly
_atom_site_disorder_group
K K1 0.70120(9) -0.16473(8) 0.44579(9) 0.03648(19) Uani d 1 . .
N N1 0.6643(3) 0.3677(3) 0.4567(3) 0.0254(4) Uani d 1 . .
C C2 0.8070(4) 0.2858(3) 0.5049(3) 0.0236(5) Uani d 1 . .
S S2 0.90525(10) 0.29667(9) 0.75330(8) 0.02673(18) Uani d 1 . .
O O21 1.1022(3) 0.2428(3) 0.7880(3) 0.0401(5) Uani d 1 . .
O O22 0.7085(3) 0.1347(3) 0.7254(3) 0.0429(5) Uani d 1 . .
N N3 0.8766(3) 0.1928(3) 0.3987(3) 0.0254(4) Uani d 1 . .
C C4 0.7961(4) 0.1866(3) 0.2148(3) 0.0248(5) Uani d 1 . .
N N4 0.8684(4) 0.0945(3) 0.1045(3) 0.0357(5) Uani d 1 . .
H H41 0.9594 0.0445 0.1515 0.043 Uiso calc 1 . .
H H42 0.8233 0.0860 -0.0125 0.043 Uiso calc 1 . .
C C5 0.6507(4) 0.2704(3) 0.1483(3) 0.0284(5) Uani d 1 . .
H H5 0.6017 0.2706 0.0247 0.034 Uiso calc 1 . .
C C6 0.5800(4) 0.3542(3) 0.2707(3) 0.0250(5) Uani d 1 . .
N N6 0.4250(4) 0.4277(3) 0.2136(3) 0.0336(5) Uani d 1 . .
H H61 0.3849 0.4792 0.2931 0.040 Uiso calc 1 . .
H H62 0.3666 0.4228 0.0977 0.040 Uiso calc 1 . .
loop_
_atom_site_aniso_label
_atom_site_aniso_U_11
_atom_site_aniso_U_22
_atom_site_aniso_U_33
_atom_site_aniso_U_12
_atom_site_aniso_U_13
_atom_site_aniso_U_23
K1 0.0296(3) 0.0424(4) 0.0442(4) 0.0181(3) 0.0207(3) 0.0162(3)
N1 0.0270(10) 0.0333(11) 0.0210(10) 0.0179(9) 0.0117(8) 0.0104(8)
C2 0.0240(11) 0.0302(12) 0.0186(11) 0.0121(10) 0.0099(9) 0.0105(9)
S2 0.0285(3) 0.0390(4) 0.0172(3) 0.0195(3) 0.0105(2) 0.0104(2)
O21 0.0369(11) 0.0691(13) 0.0300(10) 0.0350(10) 0.0166(8) 0.0254(9)
O22 0.0364(11) 0.0623(13) 0.0321(10) 0.0160(10) 0.0161(9) 0.0247(9)
N3 0.0292(11) 0.0348(11) 0.0217(10) 0.0194(9) 0.0145(8) 0.0132(8)
C4 0.0264(12) 0.0314(12) 0.0214(11) 0.0127(10) 0.0135(10) 0.0116(9)
N4 0.0477(13) 0.0539(14) 0.0262(11) 0.0347(12) 0.0245(10) 0.0191(10)
C5 0.0331(13) 0.0375(13) 0.0195(11) 0.0179(11) 0.0123(10) 0.0133(10)
C6 0.0250(12) 0.0268(12) 0.0244(11) 0.0119(10) 0.0105(10) 0.0111(9)
N6 0.0360(12) 0.0462(13) 0.0246(10) 0.0286(11) 0.0104(9) 0.0142(9)
loop_
_atom_type_symbol
_atom_type_description
_atom_type_scat_dispersion_real
_atom_type_scat_dispersion_imag
_atom_type_scat_source
C C 0.0033 0.0016 'International Tables Vol C Tables 4.2.6.8 and 6.1.1.4'
H H 0.0000 0.0000 'International Tables Vol C Tables 4.2.6.8 and 6.1.1.4'
K K 0.2009 0.2494 'International Tables Vol C Tables 4.2.6.8 and 6.1.1.4'
N N 0.0061 0.0033 'International Tables Vol C Tables 4.2.6.8 and 6.1.1.4'
O O 0.0106 0.0060 'International Tables Vol C Tables 4.2.6.8 and 6.1.1.4'
S S 0.1246 0.1234 'International Tables Vol C Tables 4.2.6.8 and 6.1.1.4'
loop_
_geom_angle_atom_site_label_1
_geom_angle_atom_site_label_2
_geom_angle_atom_site_label_3
_geom_angle_site_symmetry_1
_geom_angle_site_symmetry_3
_geom_angle
_geom_angle_publ_flag
O21 K1 O22 2_756 2_656 116.17(6) ?
O21 K1 N3 2_756 2_756 60.51(5) ?
O22 K1 N3 2_656 2_756 176.53(6) ?
O21 K1 O22 2_756 . 142.94(6) ?
O22 K1 O22 2_656 . 73.93(6) ?
N3 K1 O22 2_756 . 108.03(6) ?
O21 K1 N3 2_756 . 76.44(6) ?
O22 K1 N3 2_656 . 82.65(6) ?
N3 K1 N3 2_756 . 95.30(5) ?
O22 K1 N3 . . 69.48(5) ?
O21 K1 N6 2_756 1_545 77.36(6) ?
O22 K1 N6 2_656 1_545 83.27(6) ?
N3 K1 N6 2_756 1_545 96.67(6) ?
O22 K1 N6 . 1_545 139.40(6) ?
N3 K1 N6 . 1_545 140.74(6) ?
O21 K1 N1 2_756 2_656 139.71(6) ?
O22 K1 N1 2_656 2_656 64.92(5) ?
N3 K1 N1 2_756 2_656 118.14(6) ?
O22 K1 N1 . 2_656 77.35(5) ?
N3 K1 N1 . 2_656 138.85(5) ?
N6 K1 N1 1_545 2_656 62.53(6) ?
O21 K1 C2 2_756 . 99.39(6) ?
O22 K1 C2 2_656 . 72.06(6) ?
N3 K1 C2 2_756 . 107.01(6) ?
O22 K1 C2 . . 47.50(5) ?
N3 K1 C2 . . 22.95(5) ?
N6 K1 C2 1_545 . 150.79(6) ?
N1 K1 C2 2_656 . 117.25(5) ?
O21 K1 O21 2_756 . 101.64(5) ?
O22 K1 O21 2_656 . 111.39(6) ?
N3 K1 O21 2_756 . 69.19(5) ?
O22 K1 O21 . . 45.25(5) ?
N3 K1 O21 . . 52.51(5) ?
N6 K1 O21 1_545 . 163.40(5) ?
N1 K1 O21 2_656 . 115.57(5) ?
C2 K1 O21 . . 45.76(5) ?
O21 K1 S2 2_756 . 118.06(5) ?
O22 K1 S2 2_656 . 86.64(5) ?
N3 K1 S2 2_756 . 94.13(5) ?
O22 K1 S2 . . 24.97(4) ?
N3 K1 S2 . . 48.75(4) ?
N6 K1 S2 1_545 . 164.28(5) ?
N1 K1 S2 2_656 . 102.21(4) ?
C2 K1 S2 . . 30.98(4) ?
O21 K1 S2 . . 25.06(3) ?
O21 K1 C6 2_756 1_545 68.84(6) ?
O22 K1 C6 2_656 1_545 105.28(6) ?
N3 K1 C6 2_756 1_545 74.78(6) ?
O22 K1 C6 . 1_545 146.15(6) ?
N3 K1 C6 . 1_545 144.35(6) ?
N6 K1 C6 1_545 1_545 22.04(5) ?
N1 K1 C6 2_656 1_545 72.25(5) ?
C2 K1 C6 . 1_545 165.77(6) ?
O21 K1 C6 . 1_545 142.22(5) ?
S2 K1 C6 . 1_545 162.28(4) ?
O21 K1 S2 2_756 2_656 120.97(5) ?
O22 K1 S2 2_656 2_656 22.37(4) ?
N3 K1 S2 2_756 2_656 159.43(5) ?
O22 K1 S2 . 2_656 82.55(4) ?
N3 K1 S2 . 2_656 105.02(4) ?
N6 K1 S2 1_545 2_656 65.50(4) ?
N1 K1 S2 2_656 2_656 45.61(4) ?
C2 K1 S2 . 2_656 93.18(4) ?
O21 K1 S2 . 2_656 126.34(4) ?
S2 K1 S2 . 2_656 101.55(2) ?
C6 K1 S2 1_545 2_656 86.65(4) ?
C2 N1 C6 . . 114.61(19) ?
C2 N1 K1 . 2_656 101.64(14) ?
C6 N1 K1 . 2_656 112.74(14) ?
N3 C2 N1 . . 129.4(2) ?
N3 C2 S2 . . 117.31(17) ?
N1 C2 S2 . . 113.22(16) ?
N3 C2 K1 . . 60.98(12) ?
N1 C2 K1 . . 129.51(16) ?
S2 C2 K1 . . 78.53(8) ?
O21 S2 O22 . . 108.96(12) ?
O21 S2 C2 . . 103.00(10) ?
O22 S2 C2 . . 99.05(10) ?
O21 S2 K1 . . 72.48(9) ?
O22 S2 K1 . . 53.69(8) ?
C2 S2 K1 . . 70.48(8) ?
O21 S2 K1 . 2_656 149.90(9) ?
O22 S2 K1 . 2_656 44.55(8) ?
C2 S2 K1 . 2_656 73.75(7) ?
K1 S2 K1 . 2_656 78.45(2) ?
S2 O21 K1 . 2_756 130.27(10) ?
S2 O21 K1 . . 82.46(9) ?
K1 O21 K1 2_756 . 78.36(5) ?
S2 O22 K1 . 2_656 113.08(10) ?
S2 O22 K1 . . 101.33(9) ?
K1 O22 K1 2_656 . 106.07(6) ?
C2 N3 C4 . . 114.94(19) ?
C2 N3 K1 . 2_756 122.60(15) ?
C4 N3 K1 . 2_756 115.99(14) ?
C2 N3 K1 . . 96.07(14) ?
C4 N3 K1 . . 115.55(14) ?
K1 N3 K1 2_756 . 84.70(5) ?
N4 C4 N3 . . 115.8(2) ?
N4 C4 C5 . . 122.8(2) ?
N3 C4 C5 . . 121.3(2) ?
C4 N4 H41 . . 120.0 ?
C4 N4 H42 . . 120.0 ?
H41 N4 H42 . . 120.0 ?
C4 C5 C6 . . 118.1(2) ?
C4 C5 H5 . . 121.0 ?
C6 C5 H5 . . 121.0 ?
N6 C6 N1 . . 116.3(2) ?
N6 C6 C5 . . 122.2(2) ?
N1 C6 C5 . . 121.5(2) ?
N6 C6 K1 . 1_565 56.44(13) ?
N1 C6 K1 . 1_565 86.70(13) ?
C5 C6 K1 . 1_565 125.28(16) ?
C6 N6 K1 . 1_565 101.52(15) ?
C6 N6 H61 . . 120.0 ?
K1 N6 H61 1_565 . 63.6 ?
C6 N6 H62 . . 120.0 ?
K1 N6 H62 1_565 . 104.1 ?
H61 N6 H62 . . 120.0 ?
loop_
_geom_bond_atom_site_label_1
_geom_bond_atom_site_label_2
_geom_bond_site_symmetry_2
_geom_bond_distance
_geom_bond_publ_flag
K1 O21 2_756 2.7729(19) ?
K1 O22 2_656 2.782(2) ?
K1 N3 2_756 2.837(2) ?
K1 O22 . 2.881(2) ?
K1 N3 . 2.965(2) ?
K1 N6 1_545 3.009(2) ?
K1 N1 2_656 3.086(2) ?
K1 C2 . 3.372(2) ?
K1 O21 . 3.372(2) ?
K1 S2 . 3.5059(11) ?
K1 C6 1_545 3.538(2) ?
K1 S2 2_656 3.6484(10) ?
N1 C2 . 1.328(3) ?
N1 C6 . 1.364(3) ?
N1 K1 2_656 3.086(2) ?
C2 N3 . 1.322(3) ?
C2 S2 . 1.842(2) ?
S2 O21 . 1.4982(18) ?
S2 O22 . 1.510(2) ?
S2 K1 2_656 3.6484(10) ?
O21 K1 2_756 2.7729(19) ?
O22 K1 2_656 2.782(2) ?
N3 C4 . 1.366(3) ?
N3 K1 2_756 2.837(2) ?
C4 N4 . 1.355(3) ?
C4 C5 . 1.380(3) ?
N4 H41 . 0.8600 ?
N4 H42 . 0.8600 ?
C5 C6 . 1.385(3) ?
C5 H5 . 0.9300 ?
C6 N6 . 1.355(3) ?
C6 K1 1_565 3.538(2) ?
N6 K1 1_565 3.009(2) ?
N6 H61 . 0.8600 ?
N6 H62 . 0.8600 ?
loop_
_geom_torsion_atom_site_label_1
_geom_torsion_atom_site_label_2
_geom_torsion_atom_site_label_3
_geom_torsion_atom_site_label_4
_geom_torsion_site_symmetry_1
_geom_torsion_site_symmetry_2
_geom_torsion_site_symmetry_3
_geom_torsion_site_symmetry_4
_geom_torsion
_geom_torsion_publ_flag
C6 N1 C2 N3 . . . . -0.6(4) ?
K1 N1 C2 N3 2_656 . . . 121.3(2) ?
C6 N1 C2 S2 . . . . -176.98(16) ?
K1 N1 C2 S2 2_656 . . . -55.09(16) ?
C6 N1 C2 K1 . . . . -82.8(2) ?
K1 N1 C2 K1 2_656 . . . 39.12(18) ?
N3 C2 S2 O21 . . . . 17.3(2) ?
N1 C2 S2 O21 . . . . -165.91(18) ?
K1 C2 S2 O21 . . . . 65.82(10) ?
N3 C2 S2 O22 . . . . -94.73(19) ?
N1 C2 S2 O22 . . . . 82.10(19) ?
K1 C2 S2 O22 . . . . -46.17(9) ?
N3 C2 S2 K1 . . . . -48.56(17) ?
N1 C2 S2 K1 . . . . 128.27(19) ?
N3 C2 S2 K1 . . . 2_656 -131.78(19) ?
N1 C2 S2 K1 . . . 2_656 45.05(16) ?
K1 C2 S2 K1 . . . 2_656 -83.22(4) ?
O22 S2 O21 K1 . . . 2_756 107.82(15) ?
C2 S2 O21 K1 . . . 2_756 3.35(18) ?
K1 S2 O21 K1 . . . 2_756 67.73(13) ?
K1 S2 O21 K1 2_656 . . 2_756 83.3(2) ?
O22 S2 O21 K1 . . . . 40.09(9) ?
C2 S2 O21 K1 . . . . -64.38(9) ?
K1 S2 O21 K1 2_656 . . . 15.58(15) ?
O21 S2 O22 K1 . . . 2_656 -162.75(9) ?
C2 S2 O22 K1 . . . 2_656 -55.56(11) ?
K1 S2 O22 K1 . . . 2_656 -113.09(10) ?
O21 S2 O22 K1 . . . . -49.65(10) ?
C2 S2 O22 K1 . . . . 57.54(10) ?
K1 S2 O22 K1 2_656 . . . 113.09(10) ?
N1 C2 N3 C4 . . . . 2.8(4) ?
S2 C2 N3 C4 . . . . 179.02(16) ?
K1 C2 N3 C4 . . . . 121.9(2) ?
N1 C2 N3 K1 . . . 2_756 153.4(2) ?
S2 C2 N3 K1 . . . 2_756 -30.4(2) ?
K1 C2 N3 K1 . . . 2_756 -87.58(12) ?
N1 C2 N3 K1 . . . . -119.1(2) ?
S2 C2 N3 K1 . . . . 57.16(16) ?
C2 N3 C4 N4 . . . . 179.0(2) ?
K1 N3 C4 N4 2_756 . . . 26.4(3) ?
K1 N3 C4 N4 . . . . -70.5(2) ?
C2 N3 C4 C5 . . . . -0.8(3) ?
K1 N3 C4 C5 2_756 . . . -153.39(19) ?
K1 N3 C4 C5 . . . . 109.8(2) ?
N4 C4 C5 C6 . . . . 177.3(2) ?
N3 C4 C5 C6 . . . . -2.9(4) ?
C2 N1 C6 N6 . . . . 176.7(2) ?
K1 N1 C6 N6 2_656 . . . 61.1(2) ?
C2 N1 C6 C5 . . . . -3.5(3) ?
K1 N1 C6 C5 2_656 . . . -119.2(2) ?
C2 N1 C6 K1 . . . 1_565 -133.56(18) ?
K1 N1 C6 K1 2_656 . . 1_565 110.81(9) ?
C4 C5 C6 N6 . . . . -175.0(2) ?
C4 C5 C6 N1 . . . . 5.2(4) ?
C4 C5 C6 K1 . . . 1_565 115.7(2) ?
N1 C6 N6 K1 . . . 1_565 66.1(2) ?
C5 C6 N6 K1 . . . 1_565 -113.7(2) ?

_cod_database_fobs_code 2022261
