#------------------------------------------------------------------------------
#$Date: 2020-04-10 08:40:22 +0300 (Fri, 10 Apr 2020) $
#$Revision: 250658 $
#$URL: file:///home/coder/svn-repositories/cod/cif/2/02/20/2022079.cif $
#------------------------------------------------------------------------------
#
# This file is available in the Crystallography Open Database (COD),
# http://www.crystallography.net/. The original data for this entry
# were provided by IUCr Journals, http://journals.iucr.org/.
#
# The file may be used within the scientific community so long as
# proper attribution is given to the journal article from which the
# data were obtained.
#
data_2022079
loop_
_publ_author_name
'Jha, Kunal Kumar'
'Gruza, Barbara'
'Kumar, Prashant'
'Chodkiewicz, Michal Leszek'
'Dominiak, Paulina Maria'
_publ_section_title
;
 TAAM: a reliable and user friendly tool for hydrogen-atom location using
 routine X-ray diffraction data
;
_journal_issue                   3
_journal_name_full
'Acta Crystallographica Section B Structural Science, Crystal Engineering and Materials'
_journal_paper_doi               10.1107/S2052520620002917
_journal_volume                  76
_journal_year                    2020
_chemical_formula_moiety         'C2 H4 N4 O4'
_chemical_formula_sum            'C2 H4 N4 O4'
_chemical_formula_weight         148.08
_space_group_crystal_system      monoclinic
_space_group_IT_number           14
_space_group_name_Hall           '-P 2yn'
_space_group_name_H-M_alt        'P 1 21/n 1'
_symmetry_Int_Tables_number      14
_audit_creation_date             2019-09-24
_audit_creation_method
;
Olex2 1.2
(compiled 2018.05.29 svn.r3508 for OlexSys, GUI svn.r5506)
;
_cell_angle_alpha                90
_cell_angle_beta                 90.4850(10)
_cell_angle_gamma                90
_cell_formula_units_Z            4
_cell_length_a                   6.9220(10)
_cell_length_b                   6.5010(10)
_cell_length_c                   11.2620(10)
_cell_measurement_temperature    100
_cell_volume                     506.77(12)
_computing_molecular_graphics    'Olex2 (Dolomanov et al., 2009)'
_computing_publication_material  'Olex2 (Dolomanov et al., 2009)'
_computing_structure_refinement  'olex2.refine (Bourhis et al., 2015)'
_diffrn_ambient_temperature      100
_diffrn_measured_fraction_theta_full 0.9940
_diffrn_measured_fraction_theta_max 0.9940
_diffrn_measurement_device_type  'Beamline E2; HASYLAB DESY'
_diffrn_radiation_type           synchrotron
_diffrn_radiation_wavelength     0.503
_diffrn_reflns_av_R_equivalents  0.0000
_diffrn_reflns_av_unetI/netI     0.0298
_diffrn_reflns_limit_h_max       15
_diffrn_reflns_limit_h_min       0
_diffrn_reflns_limit_k_max       14
_diffrn_reflns_limit_k_min       0
_diffrn_reflns_limit_l_max       24
_diffrn_reflns_limit_l_min       -24
_diffrn_reflns_number            5784
_diffrn_reflns_theta_full        52.1593
_diffrn_reflns_theta_max         52.16
_diffrn_reflns_theta_min         3.44
_exptl_absorpt_coefficient_mu    0.185
_exptl_crystal_density_diffrn    1.9407
_exptl_crystal_F_000             304.2144
_refine_diff_density_max         0.5156
_refine_diff_density_min         -1.0451
_refine_diff_density_rms         0.1927
_refine_ls_d_res_high            0.4500
_refine_ls_d_res_low             5.9193
_refine_ls_goodness_of_fit_ref   1.1205
_refine_ls_hydrogen_treatment    refall
_refine_ls_matrix_type           full
_refine_ls_number_constraints    0
_refine_ls_number_parameters     127
_refine_ls_number_reflns         5784
_refine_ls_number_restraints     0
_refine_ls_restrained_S_all      1.1205
_refine_ls_R_factor_all          0.0318
_refine_ls_R_factor_gt           0.0264
_refine_ls_shift/su_max          0.0010
_refine_ls_shift/su_mean         0.0001
_refine_ls_structure_factor_coef Fsqd
_refine_ls_weighting_details
'w=1/[\s^2^(Fo^2^)+(0.0844P)^2^] where P=(Fo^2^+2Fc^2^)/3'
_refine_ls_weighting_scheme      calc
_refine_ls_wR_factor_gt          0.0991
_refine_ls_wR_factor_ref         0.1106
_reflns_Friedel_coverage         0.0
_reflns_limit_h_max              13
_reflns_limit_h_min              -15
_reflns_limit_k_max              14
_reflns_limit_k_min              0
_reflns_limit_l_max              24
_reflns_limit_l_min              -12
_reflns_number_gt                5421
_reflns_number_total             5784
_reflns_threshold_expression     I>=2u(I)
_iucr_refine_instructions_details
;
TITL FOX-7
CELL 0.71073 6.922 6.501 11.262 90 90.485 90
ZERR 4 0 0 0 0 0 0
LATT 1
SYMM 0.5-X,0.5+Y,0.5-Z
SFAC C H N O
UNIT 8 16 16 16

ACTA 
BOND $H
WGHT 0.084372 0
FVAR 1.0001
REM <olex2.extras>
REM <HklSrc "%.\\cf3926f86d867325ebde8e1c4ee9896e.hkl">
REM </olex2.extras>

O(11  4     0.19465  0.33576  0.33699  11.00000  0.00932  0.02077  0.00612 =
 0.00117 -0.00031  0.00094 
O(12  4    -0.02028  0.44650  0.21285  11.00000  0.00841  0.01722  0.00847 =
 -0.00043  0.00029  0.00355 
O(21  4     0.58053  0.30092  0.08108  11.00000  0.00694  0.02167  0.01103 =
 -0.00416  0.00100  0.00014 
O(22  4     0.52183  0.44507  0.25064  11.00000  0.00842  0.01507  0.00914 =
 -0.00212 -0.00186 -0.00145 
N(11  3     0.14218  0.37541  0.23432  11.00000  0.00699  0.01045  0.00578 =
 -0.00023 -0.00012  0.00039 
N(12  3     0.46437  0.35840  0.15830  11.00000  0.00632  0.01093  0.00726 =
 -0.00066 -0.00051 -0.00021 
N(21  3    -0.00509  0.24524  0.01014  11.00000  0.00756  0.01327  0.00865 =
 -0.00142 -0.00148 -0.00037 
H(2a  2    -0.05096  0.19220 -0.06544  11.00000  0.02597  0.01945  0.01649 =
 -0.00967  0.00867 -0.01169 
H(2b  2    -0.09591  0.28880  0.06908  11.00000  0.02106  0.02929  0.01146 =
 0.00386 -0.00514 -0.00598 
N(22  3     0.29809  0.19878 -0.06185  11.00000  0.00966  0.01723  0.00739 =
 -0.00307  0.00079 -0.00050 
H(2c  2     0.23123  0.14865 -0.13149  11.00000  0.02900  0.03609  0.02413 =
 -0.01598 -0.00996 -0.00503 
H(2d  2     0.44075  0.19713 -0.05109  11.00000  0.04372  0.07326  0.01612 =
 0.02320  0.01054  0.02631 
C(1)  1     0.26640  0.33325  0.13719  11.00000  0.00601  0.01148  0.00604 =
 -0.00119 -0.00013 -0.00018 
C(2)  1     0.18525  0.26000  0.02559  11.00000  0.00731  0.00960  0.00609 =
 -0.00040 -0.00038 -0.00036 
HKLF 4

END
Q1 1 0.35 0.2 -0.0625 11 0.05 0.52
Q2 1 0.225 0.125 -0.15625 11 0.05 0.46
Q3 1 -0.075 0.25 0.015625 11 0.05 0.43
Q4 1 0.625 0.3 0.0625 11 0.05 0.41
Q5 1 0.125 0.25 0.015625 11 0.05 0.41
Q6 1 0.2 0.225 -0.234375 11 0.05 0.39
Q7 1 0.225 -0.025 -0.09375 11 0.05 0.39
Q8 1 0.3 -0.1 -0.15625 11 0.05 0.37
Q9 1 -0.025 0.375 0.21875 11 0.05 0.36
Q10 1 0.275 0.075 -0.234375 11 0.05 0.36
Q11 1 0.15 0.05 -0.03125 11 0.05 0.35
Q12 1 -0.1 0.125 0.09375 11 0.05 0.34
Q13 1 0.1 0.175 -0.109375 11 0.05 0.33
Q14 1 0.2 0.275 -0.140625 11 0.05 0.33
Q15 1 0.575 0.45 0.265625 11 0.05 0.32
Q16 1 0.75 0.4 0.171875 11 0.05 0.32
Q17 1 -0.2 0.1 0 11 0.05 0.3
Q18 1 0 0 0 11 0.05 0.3
Q19 1 0.675 0.575 0.28125 11 0.05 0.3
Q20 1 0.6 0.125 0 11 0.05 0.29

  REM The information below was added by Olex2.
  REM
  REM R1 = 0.0264 for 5421 Fo > 4sig(Fo) and 0.0318 for all 5784 data
  REM 127 parameters refined using 0 restraints
  REM Highest difference peak 0.5156, deepest hole -1.0451
  REM Mean Shift 0.0001, Max Shift 0.0010.

  REM +++ Tabular Listing of Refinement Information +++
  REM R1_all = 0.0318
  REM R1_gt = 0.0264
  REM wR_ref = 0.1106
  REM GOOF = 1.1205
  REM Shift_max = 0.0010
  REM Shift_mean = 0.0001
  REM Reflections_all = 5784
  REM Reflections_gt = 5421
  REM Parameters = 127
  REM Hole = -1.0451
  REM Peak = 0.5156
  REM Flack = n/a

  
;
_cod_data_source_file            21_TAAM_ANIS_max.cif
_cod_data_source_block           21_TAAM_ANIS_max
_cod_original_cell_volume        506.771(10)
_cod_original_sg_symbol_Hall     '-P 2ybc (x-z,y,z)'
_cod_database_code               2022079
_olex2_refinement_description
;
;
_iucr_refine_fcf_details
;
data_FOX-7
_computing_structure_refinement   'olex2.refine (Bourhis et al., 2015)'
_shelx_refln_list_code            4
loop_
  _space_group_symop_id
  _space_group_symop_operation_xyz
  1  x,y,z
  2  -x+1/2,y+1/2,-z+1/2
  3  -x,-y,-z
  4  x-1/2,-y-1/2,z-1/2

_space_group_crystal_system       monoclinic
_space_group_IT_number            14
_space_group_name_H-M_alt         'P 1 21/n 1'
_space_group_name_Hall            '-P 2ybc (x-z,y,z)'
_symmetry_space_group_name_H-M    'P 1 21/n 1'
_symmetry_space_group_name_Hall   '-P 2ybc (x-z,y,z)'
_symmetry_Int_Tables_number       14
_cell_length_a                    6.922
_cell_length_b                    6.501
_cell_length_c                    11.262
_cell_angle_alpha                 90
_cell_angle_beta                  90.485
_cell_angle_gamma                 90
_cell_volume                      506.770965
loop_
  _refln_index_h
  _refln_index_k
  _refln_index_l
  _refln_F_squared_calc
  _refln_F_squared_meas
  _refln_F_squared_sigma
  _refln_F_squared_weight
  _refln_observed_status
-15 0 -5 33.942 42.222 3.799 0.178 o
-15 0 -3 1.426 1.820 0.270 47.498 o
-15 0 -1 60.870 60.728 2.749 0.126 o
-15 0 1 14.290 15.347 0.780 2.006 o
-15 0 3 11.588 11.358 0.610 3.255 o
-15 0 5 0.690 2.869 0.860 5.681 o
-15 1 -5 4.504 9.568 1.030 3.211 o
-15 1 -4 1.849 2.330 0.310 34.305 o
-15 1 -3 2.130 2.420 0.210 53.938 o
-15 1 -2 1.663 1.920 0.210 65.010 o
-15 1 -1 2.543 2.909 0.230 41.383 o
-15 1 0 30.840 29.964 1.100 0.545 o
-15 1 1 123.975 116.007 4.029 0.035 o
-15 1 2 13.972 13.457 0.570 2.547 o
-15 1 3 23.946 24.155 0.960 0.852 o
-15 1 4 0.514 0.570 0.270 57.166 o
-15 1 5 2.383 5.589 0.940 4.422 o
-15 2 -4 2.709 9.738 0.840 4.827 o
-15 2 -3 51.265 51.110 2.450 0.174 o
-15 2 -2 3.501 3.479 0.300 24.207 o
-15 2 -1 0.000 -0.030 0.230 80.961 o
-15 2 0 17.416 17.387 0.860 1.478 o
-15 2 1 6.080 6.239 0.400 10.010 o
-15 2 2 2.299 2.320 0.300 33.493 o
-15 2 3 31.807 30.544 1.470 0.467 o
-15 2 4 13.617 13.677 2.070 0.764 o
-15 3 -1 28.744 31.164 1.930 0.431 o
-15 3 0 59.963 60.338 3.729 0.108 o
-15 3 1 2.484 8.408 1.430 1.959 o
-15 3 2 6.930 3.569 1.680 1.398 o
-14 0 -10 121.955 117.946 9.588 0.022 o
-14 0 -8 0.545 0.840 0.190 109.679 o
-14 0 -6 5.981 6.199 0.350 11.169 o
-14 0 -4 15.210 16.137 0.700 1.942 o
-14 0 -2 20.380 20.336 0.930 1.122 o
-14 0 0 1.481 2.240 0.220 61.349 o
-14 0 2 0.425 0.600 0.190 113.408 o
-14 0 4 12.688 12.557 0.800 2.408 o
-14 0 6 96.580 95.961 4.289 0.051 o
-14 0 8 0.108 0.170 0.270 58.655 o
-14 0 10 17.441 16.707 0.980 1.397 o
-14 1 -10 0.549 4.259 0.680 8.829 o
-14 1 -9 1.416 1.560 0.160 104.814 o
-14 1 -8 80.471 77.884 2.569 0.083 o
-14 1 -7 0.356 0.550 0.130 235.856 o
-14 1 -6 64.385 63.007 1.920 0.131 o
-14 1 -5 25.422 25.255 0.800 0.820 o
-14 1 -4 2.853 2.929 0.180 46.854 o
-14 1 -3 1.621 1.690 0.160 95.491 o
-14 1 -2 0.007 0.100 0.140 218.397 o
-14 1 -1 0.719 0.830 0.170 129.902 o
-14 1 0 10.029 10.098 0.510 4.372 o
-14 1 1 7.513 7.808 0.410 7.376 o
-14 1 2 6.942 7.369 0.400 8.278 o
-14 1 3 2.527 2.939 0.230 41.399 o
-14 1 4 0.540 0.790 0.170 135.253 o
-14 1 5 14.895 14.267 0.630 2.216 o
-14 1 6 77.220 73.115 3.259 0.083 o
-14 1 7 26.634 26.185 1.390 0.618 o
-14 1 8 0.667 0.760 0.220 82.567 o
-14 1 9 8.973 9.068 0.420 5.681 o
-14 1 10 0.011 1.540 0.650 10.091 o
-14 2 -9 19.737 19.096 0.780 1.289 o
-14 2 -8 24.125 24.835 0.890 0.853 o
-14 2 -7 8.292 8.638 0.330 6.995 o
-14 2 -6 8.645 8.928 0.410 6.015 o
-14 2 -5 26.809 26.165 1.190 0.664 o
-14 2 -4 24.248 24.745 1.040 0.804 o
-14 2 -3 0.039 0.150 0.160 167.030 o
-14 2 -2 1.029 1.280 0.190 95.343 o
-14 2 -1 2.144 2.460 0.210 53.450 o
-14 2 0 8.479 9.298 0.480 5.520 o
-14 2 1 0.101 0.260 0.170 147.337 o
-14 2 2 3.555 3.889 0.280 24.597 o
-14 2 3 1.097 1.190 0.210 80.569 o
-14 2 4 3.818 4.179 0.260 24.053 o
-14 2 5 40.426 39.092 1.610 0.306 o
-14 2 6 4.311 4.699 0.310 18.108 o
-14 2 7 19.694 21.246 1.020 1.084 o
-14 2 8 20.230 19.756 0.960 1.130 o
-14 2 9 0.775 0.830 0.230 74.640 o
-14 3 -8 20.144 19.686 0.750 1.256 o
-14 3 -7 17.838 17.486 0.760 1.522 o
-14 3 -6 12.055 12.447 0.610 2.996 o
-14 3 -5 40.667 38.732 1.590 0.307 o
-14 3 -4 19.137 19.636 0.840 1.275 o
-14 3 -3 0.458 0.810 0.170 137.032 o
-14 3 -2 0.179 0.230 0.180 131.077 o
-14 3 -1 1.798 1.780 0.190 72.633 o
-14 3 0 0.013 0.190 0.160 167.060 o
-14 3 1 12.853 12.598 0.620 2.772 o
-14 3 2 5.789 5.939 0.350 11.725 o
-14 3 3 7.939 8.138 0.430 6.678 o
-14 3 4 5.090 4.919 0.290 16.192 o
-14 3 5 23.636 23.205 0.990 0.872 o
-14 3 6 0.030 0.040 0.160 167.248 o
-14 3 7 15.343 14.837 0.730 1.971 o
-14 3 8 25.275 24.555 1.170 0.734 o
-14 3 9 10.098 7.608 0.830 3.293 o
-14 4 -7 30.120 28.664 1.650 0.477 o
-14 4 -6 58.213 55.639 2.260 0.150 o
-14 4 -5 41.435 40.272 1.650 0.291 o
-14 4 -4 12.714 12.787 0.580 2.871 o
-14 4 -3 2.820 3.229 0.240 35.738 o
-14 4 -2 6.977 7.349 0.410 8.125 o
-14 4 -1 0.985 1.130 0.190 98.000 o
-14 4 0 3.017 3.259 0.250 32.736 o
-14 4 1 1.366 1.500 0.230 63.861 o
-14 4 2 2.460 2.609 0.240 41.801 o
-14 4 3 8.353 8.918 0.460 5.858 o
-14 4 4 13.197 13.647 0.690 2.455 o
-14 4 5 1.598 1.760 0.220 63.136 o
-14 4 6 2.179 2.450 0.240 45.434 o
-14 4 7 0.884 1.320 0.220 76.551 o
-14 5 -5 28.169 29.974 1.690 0.489 o
-14 5 -4 24.377 22.985 0.980 0.851 o
-14 5 -3 16.234 15.967 0.700 1.825 o
-14 5 -2 4.072 4.129 0.280 21.676 o
-14 5 -1 0.129 0.150 0.180 131.654 o
-14 5 0 1.924 1.810 0.210 61.691 o
-14 5 1 0.012 0.110 0.180 132.129 o
-14 5 2 22.885 21.546 1.000 0.934 o
-14 5 3 0.808 0.870 0.200 95.412 o
-14 5 4 6.877 6.839 0.410 8.504 o
-14 5 5 4.346 4.649 0.380 15.016 o
-13 0 -11 0.185 0.340 0.170 146.177 o
-13 0 -9 5.320 5.609 0.340 13.198 o
-13 0 -7 10.054 10.708 0.450 4.490 o
-13 0 -5 149.706 140.952 4.499 0.025 o
-13 0 -3 150.300 142.312 4.549 0.024 o
-13 0 -1 73.104 74.995 2.569 0.094 o
-13 0 1 47.426 46.291 1.630 0.233 o
-13 0 3 47.096 47.201 1.590 0.233 o
-13 0 5 1.938 2.250 0.200 61.448 o
-13 0 7 81.907 80.444 2.819 0.078 o
-13 0 9 17.517 18.316 0.880 1.415 o
-13 0 11 1.264 1.080 0.250 58.834 o
-13 0 13 7.962 8.678 0.580 5.253 o
-13 1 -12 0.506 0.730 0.140 194.659 o
-13 1 -11 2.953 3.589 0.180 41.289 o
-13 1 -10 2.275 2.759 0.160 63.093 o
-13 1 -9 0.196 0.230 0.120 291.236 o
-13 1 -8 10.473 11.078 0.380 4.481 o
-13 1 -7 13.580 13.777 0.390 2.897 o
-13 1 -6 15.267 15.707 0.430 2.282 o
-13 1 -5 0.894 1.130 0.110 227.381 o
-13 1 -4 1.403 1.570 0.110 157.127 o
-13 1 -3 75.468 71.806 1.710 0.102 o
-13 1 -2 2.450 2.789 0.150 61.805 o
-13 1 -1 21.859 21.736 0.660 1.120 o
-13 1 0 1.129 1.310 0.140 144.325 o
-13 1 1 1.425 1.420 0.150 115.971 o
-13 1 2 17.047 17.727 0.630 1.698 o
-13 1 3 45.526 45.241 1.430 0.256 o
-13 1 4 17.758 16.977 0.580 1.702 o
-13 1 5 0.276 0.450 0.140 209.987 o
-13 1 6 25.020 24.365 0.780 0.858 o
-13 1 7 41.659 41.032 1.230 0.312 o
-13 1 8 41.932 41.602 1.730 0.277 o
-13 1 9 14.410 15.677 0.700 2.082 o
-13 1 10 11.430 12.048 0.560 3.352 o
-13 1 11 1.680 1.610 0.210 67.288 o
-13 1 12 10.563 11.278 0.560 3.742 o
-13 1 13 26.069 25.945 1.080 0.715 o
-13 2 -12 19.302 19.186 0.630 1.409 o
-13 2 -11 6.229 6.749 0.270 11.739 o
-13 2 -10 6.064 6.839 0.270 11.978 o
-13 2 -9 9.307 9.548 0.370 5.603 o
-13 2 -8 0.648 0.710 0.100 324.824 o
-13 2 -7 8.428 8.808 0.330 6.797 o
-13 2 -6 40.601 39.572 1.060 0.338 o
-13 2 -5 0.467 0.580 0.120 264.176 o
-13 2 -4 105.347 99.710 2.769 0.051 o
-13 2 -3 11.452 11.598 0.430 3.801 o
-13 2 -2 71.027 68.906 1.950 0.110 o
-13 2 -1 30.670 28.724 0.940 0.587 o
-13 2 0 22.265 22.965 0.800 1.009 o
-13 2 1 23.744 24.325 0.840 0.895 o
-13 2 2 23.309 23.215 0.830 0.942 o
-13 2 3 5.878 5.999 0.300 12.618 o
-13 2 4 0.614 0.670 0.170 134.894 o
-13 2 5 63.749 61.698 1.850 0.135 o
-13 2 6 6.942 7.159 0.320 9.459 o
-13 2 7 3.217 3.509 0.210 35.006 o
-13 2 8 41.242 41.642 1.710 0.283 o
-13 2 9 0.634 0.770 0.170 133.064 o
-13 2 10 6.742 6.719 0.350 9.614 o
-13 2 11 1.042 1.250 0.210 80.966 o
-13 2 12 1.135 1.600 0.250 57.607 o
-13 2 13 0.042 4.489 0.570 12.543 o
-13 3 -12 2.725 5.209 0.750 6.565 o
-13 3 -11 0.092 0.110 0.140 217.758 o
-13 3 -10 0.085 0.130 0.140 217.719 o
-13 3 -9 5.326 5.979 0.320 13.332 o
-13 3 -8 0.318 0.380 0.140 209.759 o
-13 3 -7 5.620 6.019 0.310 12.907 o
-13 3 -6 2.873 3.149 0.210 40.136 o
-13 3 -5 0.580 0.880 0.140 187.080 o
-13 3 -4 49.643 47.201 1.380 0.227 o
-13 3 -3 13.678 13.847 0.500 2.688 o
-13 3 -2 15.295 15.007 0.530 2.224 o
-13 3 -1 21.753 21.326 0.770 1.093 o
-13 3 0 39.691 37.612 1.300 0.342 o
-13 3 1 10.697 10.758 0.460 4.160 o
-13 3 2 8.004 8.768 0.400 6.632 o
-13 3 3 0.001 0.100 0.130 253.298 o
-13 3 4 0.003 0.030 0.160 167.292 o
-13 3 5 39.941 37.952 1.240 0.342 o
-13 3 6 0.003 0.020 0.120 297.409 o
-13 3 7 8.234 8.198 0.390 6.760 o
-13 3 8 12.188 13.017 0.580 2.968 o
-13 3 9 17.201 17.766 0.780 1.551 o
-13 3 10 4.342 4.369 0.270 20.618 o
-13 3 11 42.280 41.442 1.920 0.264 o
-13 3 12 1.412 1.910 0.260 50.191 o
-13 4 -11 3.130 6.899 0.630 8.021 o
-13 4 -10 25.296 24.345 1.020 0.781 o
-13 4 -9 7.648 7.578 0.370 7.774 o
-13 4 -8 16.595 16.187 0.700 1.770 o
-13 4 -7 0.884 1.110 0.160 133.196 o
-13 4 -6 0.835 1.010 0.150 151.948 o
-13 4 -5 11.075 11.238 0.500 3.783 o
-13 4 -4 1.507 1.970 0.180 82.273 o
-13 4 -3 22.206 21.396 0.710 1.090 o
-13 4 -2 20.804 20.086 0.710 1.218 o
-13 4 -1 4.308 4.649 0.280 19.681 o
-13 4 0 49.467 46.981 1.660 0.218 o
-13 4 1 0.146 0.080 0.150 189.431 o
-13 4 2 10.319 10.518 0.470 4.331 o
-13 4 3 8.651 8.648 0.440 5.895 o
-13 4 4 56.195 55.009 2.460 0.152 o
-13 4 5 4.242 4.639 0.260 21.007 o
-13 4 6 19.484 18.846 0.800 1.304 o
-13 4 7 0.001 0.090 0.130 253.321 o
-13 4 8 2.782 3.269 0.230 37.360 o
-13 4 9 23.134 22.666 0.960 0.915 o
-13 4 10 0.164 0.280 0.170 146.712 o
-13 4 11 0.033 0.110 0.230 80.924 o
-13 5 -9 0.001 0.080 0.160 167.263 o
-13 5 -8 0.198 0.260 0.150 187.515 o
-13 5 -7 1.262 1.180 0.170 107.747 o
-13 5 -6 1.799 1.930 0.180 75.688 o
-13 5 -5 14.175 13.857 0.610 2.404 o
-13 5 -4 15.021 15.007 0.650 2.111 o
-13 5 -3 15.527 15.457 0.670 1.982 o
-13 5 -2 0.177 0.220 0.140 215.638 o
-13 5 -1 0.971 1.230 0.170 116.207 o
-13 5 0 76.972 71.696 3.159 0.085 o
-13 5 1 1.534 1.530 0.180 87.169 o
-13 5 2 5.715 5.939 0.340 12.089 o
-13 5 3 2.443 2.549 0.240 42.257 o
-13 5 4 1.410 1.810 0.180 86.755 o
-13 5 5 0.110 0.150 0.130 251.806 o
-13 5 6 3.454 3.749 0.230 29.994 o
-13 5 7 0.375 0.460 0.130 237.184 o
-13 5 8 0.475 0.660 0.150 174.438 o
-13 5 9 1.308 1.350 0.180 95.512 o
-13 5 10 36.867 35.593 1.680 0.349 o
-13 6 -8 1.745 6.599 0.600 9.722 o
-13 6 -7 0.039 0.140 0.160 167.053 o
-13 6 -6 0.226 0.340 0.150 186.235 o
-13 6 -5 1.892 1.990 0.180 72.871 o
-13 6 -4 0.507 0.670 0.170 137.525 o
-13 6 -3 0.418 0.500 0.160 158.556 o
-13 6 -2 0.086 0.130 0.150 189.744 o
-13 6 -1 5.808 5.739 0.320 12.570 o
-13 6 0 1.463 1.570 0.190 82.207 o
-13 6 1 4.792 4.899 0.300 16.730 o
-13 6 2 43.383 39.722 1.770 0.271 o
-13 6 3 14.183 14.047 0.750 2.157 o
-13 6 4 1.479 1.620 0.180 87.448 o
-13 6 5 7.451 7.429 0.360 8.170 o
-13 6 6 0.065 0.070 0.140 218.159 o
-13 6 7 5.019 4.719 0.270 17.465 o
-13 6 8 0.008 1.290 0.430 22.995 o
-13 7 -4 1.397 1.540 0.190 84.047 o
-13 7 -3 4.378 4.359 0.270 20.490 o
-13 7 -2 1.098 1.390 0.200 85.353 o
-13 7 -1 23.883 22.436 1.020 0.867 o
-13 7 0 23.109 21.076 1.060 0.910 o
-13 7 1 8.788 8.038 0.430 6.083 o
-13 7 2 11.383 10.558 0.530 3.693 o
-13 7 3 2.481 2.430 0.250 40.507 o
-13 7 4 0.305 0.410 0.160 162.092 o
-13 7 5 2.315 3.959 0.610 9.949 o
-12 0 -10 51.328 50.260 1.700 0.200 o
-12 0 -8 2.701 2.809 0.180 49.943 o
-12 0 -6 8.235 8.898 0.360 6.705 o
-12 0 -4 37.286 35.483 1.190 0.389 o
-12 0 -2 81.319 78.854 2.539 0.081 o
-12 0 0 0.057 0.020 0.080 667.733 o
-12 0 2 22.258 22.196 0.830 1.017 o
-12 0 4 134.755 129.474 4.189 0.030 o
-12 0 6 40.101 38.652 1.300 0.333 o
-12 0 8 95.867 94.471 3.079 0.058 o
-12 0 10 97.088 92.431 3.229 0.057 o
-12 0 12 13.160 14.357 0.790 2.215 o
-12 0 14 19.502 20.586 1.110 1.060 o
-12 1 -11 20.939 21.726 0.660 1.178 o
-12 1 -10 22.110 21.926 0.560 1.134 o
-12 1 -9 28.323 28.464 0.710 0.687 o
-12 1 -8 4.487 4.939 0.180 23.081 o
-12 1 -7 0.136 0.280 0.090 513.417 o
-12 1 -6 66.298 64.087 1.490 0.130 o
-12 1 -5 0.169 0.310 0.080 636.244 o
-12 1 -4 15.808 16.477 0.430 2.125 o
-12 1 -3 0.540 0.690 0.090 404.809 o
-12 1 -2 45.076 44.251 1.060 0.278 o
-12 1 -1 7.327 7.668 0.270 9.167 o
-12 1 0 1.236 1.360 0.130 150.162 o
-12 1 1 0.011 0.000 0.080 669.158 o
-12 1 2 12.887 12.318 0.450 3.171 o
-12 1 3 10.977 11.378 0.430 4.025 o
-12 1 4 124.167 119.356 3.619 0.036 o
-12 1 5 20.423 20.036 0.660 1.271 o
-12 1 6 7.306 7.179 0.300 9.196 o
-12 1 7 9.748 10.288 0.380 5.060 o
-12 1 8 12.418 12.557 0.450 3.272 o
-12 1 9 15.646 15.377 0.530 2.137 o
-12 1 10 0.169 0.490 0.140 212.634 o
-12 1 11 7.628 7.538 0.290 8.648 o
-12 1 12 2.079 2.440 0.180 64.075 o
-12 1 13 11.731 12.028 0.490 3.463 o
-12 1 14 13.131 14.007 0.570 2.663 o
-12 1 15 1.868 2.100 0.220 56.840 o
-12 2 -11 22.166 22.416 0.680 1.074 o
-12 2 -10 0.558 0.690 0.100 340.502 o
-12 2 -9 13.897 14.597 0.400 2.707 o
-12 2 -8 21.734 22.106 0.580 1.145 o
-12 2 -7 0.042 0.080 0.080 667.003 o
-12 2 -6 10.896 10.938 0.330 4.477 o
-12 2 -5 12.389 12.827 0.470 3.196 o
-12 2 -4 3.763 4.169 0.210 28.116 o
-12 2 -3 43.916 42.022 1.200 0.290 o
-12 2 -2 3.553 4.009 0.200 31.087 o
-12 2 -1 20.126 20.356 0.640 1.291 o
-12 2 0 11.928 12.048 0.450 3.503 o
-12 2 1 13.907 13.777 0.490 2.662 o
-12 2 2 43.379 42.112 1.270 0.290 o
-12 2 3 8.132 8.938 0.390 6.542 o
-12 2 4 7.410 8.248 0.340 7.981 o
-12 2 5 57.660 55.719 1.590 0.167 o
-12 2 6 20.442 20.906 0.670 1.234 o
-12 2 7 57.253 55.509 1.580 0.169 o
-12 2 8 10.610 11.268 0.420 4.234 o
-12 2 9 2.880 2.969 0.190 44.423 o
-12 2 10 99.681 94.531 2.659 0.057 o
-12 2 11 13.752 13.237 0.590 2.578 o
-12 2 12 4.788 5.109 0.290 16.813 o
-12 2 13 16.482 17.447 0.770 1.645 o
-12 2 14 0.216 0.270 0.230 80.370 o
-12 2 15 33.885 32.584 1.300 0.443 o
-12 3 -11 10.032 10.208 0.350 5.053 o
-12 3 -10 2.861 3.549 0.170 44.190 o
-12 3 -9 4.408 4.709 0.190 23.685 o
-12 3 -8 0.138 0.220 0.120 293.448 o
-12 3 -7 57.261 54.879 1.560 0.170 o
-12 3 -6 23.945 23.885 0.740 0.926 o
-12 3 -5 11.843 12.088 0.430 3.576 o
-12 3 -4 21.176 21.326 0.660 1.175 o
-12 3 -3 1.626 1.720 0.140 109.367 o
-12 3 -2 9.561 9.638 0.360 5.462 o
-12 3 -1 12.164 12.627 0.450 3.338 o
-12 3 0 13.408 13.747 0.510 2.742 o
-12 3 1 21.897 20.956 0.740 1.108 o
-12 3 2 40.193 38.192 1.390 0.328 o
-12 3 3 17.974 18.626 0.680 1.519 o
-12 3 4 0.505 0.560 0.120 261.937 o
-12 3 5 136.133 124.525 3.959 0.031 o
-12 3 6 0.113 0.300 0.110 347.680 o
-12 3 7 0.008 0.110 0.110 353.582 o
-12 3 8 2.339 2.599 0.170 60.493 o
-12 3 9 2.825 3.169 0.200 42.177 o
-12 3 10 5.202 5.259 0.270 16.041 o
-12 3 11 23.986 24.085 1.030 0.828 o
-12 3 12 15.344 15.127 0.680 2.017 o
-12 3 13 3.630 3.679 0.250 27.248 o
-12 3 14 5.512 5.889 0.420 10.634 o
-12 4 -11 9.572 9.648 0.420 5.146 o
-12 4 -10 1.348 1.560 0.180 91.643 o
-12 4 -9 7.542 7.748 0.400 7.481 o
-12 4 -8 0.095 0.220 0.110 350.103 o
-12 4 -7 40.965 40.262 1.180 0.324 o
-12 4 -6 1.350 1.480 0.140 128.151 o
-12 4 -5 7.612 7.918 0.330 8.040 o
-12 4 -4 8.862 9.188 0.360 6.095 o
-12 4 -3 0.161 0.220 0.120 292.692 o
-12 4 -2 2.726 2.959 0.180 48.454 o
-12 4 -1 3.365 3.489 0.200 34.919 o
-12 4 0 66.422 61.238 2.150 0.124 o
-12 4 1 7.842 8.008 0.370 7.371 o
-12 4 2 5.114 5.479 0.310 14.702 o
-12 4 3 1.884 1.940 0.150 88.704 o
-12 4 4 1.140 1.420 0.140 140.723 o
-12 4 5 0.223 0.350 0.120 287.398 o
-12 4 6 62.341 61.528 2.060 0.135 o
-12 4 7 2.481 2.450 0.170 59.178 o
-12 4 8 17.825 17.346 0.640 1.627 o
-12 4 9 34.299 33.763 1.160 0.444 o
-12 4 10 2.300 2.809 0.210 48.925 o
-12 4 11 41.630 39.972 1.670 0.289 o
-12 4 12 10.871 10.468 0.490 4.036 o
-12 4 13 3.699 4.159 0.270 23.981 o
-12 4 14 38.677 36.333 1.630 0.332 o
-12 5 -11 0.370 0.600 0.160 158.505 o
-12 5 -10 11.255 10.468 0.470 3.960 o
-12 5 -9 38.093 34.443 1.410 0.367 o
-12 5 -8 25.472 24.765 1.020 0.768 o
-12 5 -7 15.088 15.537 0.670 2.037 o
-12 5 -6 13.292 13.177 0.480 2.891 o
-12 5 -5 0.426 0.530 0.130 232.629 o
-12 5 -4 36.008 33.743 1.150 0.421 o
-12 5 -3 0.601 0.700 0.130 216.712 o
-12 5 -2 0.967 1.160 0.140 157.606 o
-12 5 -1 3.079 3.029 0.190 41.622 o
-12 5 0 0.302 0.450 0.130 240.884 o
-12 5 1 81.699 75.445 2.599 0.083 o
-12 5 2 1.511 1.820 0.180 84.049 o
-12 5 3 13.306 12.678 0.530 2.851 o
-12 5 4 43.914 41.142 1.480 0.279 o
-12 5 5 15.779 14.887 0.620 2.048 o
-12 5 6 36.990 35.173 1.310 0.384 o
-12 5 7 17.389 17.506 0.680 1.631 o
-12 5 8 1.397 1.420 0.150 117.183 o
-12 5 9 1.591 1.420 0.160 101.120 o
-12 5 10 29.020 28.144 1.180 0.589 o
-12 5 11 0.168 0.310 0.160 165.174 o
-12 5 12 7.884 7.818 0.400 7.135 o
-12 5 13 21.410 23.595 1.400 0.786 o
-12 6 -11 13.279 12.307 0.580 2.796 o
-12 6 -10 5.965 5.949 0.310 12.271 o
-12 6 -9 2.326 2.440 0.190 56.438 o
-12 6 -8 8.509 8.758 0.410 6.173 o
-12 6 -7 0.787 0.790 0.140 178.265 o
-12 6 -6 13.648 13.707 0.600 2.534 o
-12 6 -5 2.880 3.279 0.210 39.383 o
-12 6 -4 1.248 1.280 0.140 138.705 o
-12 6 -3 0.683 0.720 0.140 185.849 o
-12 6 -2 6.680 6.809 0.310 10.246 o
-12 6 -1 26.773 25.055 0.880 0.756 o
-12 6 0 12.775 12.377 0.520 3.040 o
-12 6 1 2.881 3.019 0.210 40.742 o
-12 6 2 4.664 4.729 0.290 17.811 o
-12 6 3 0.557 0.720 0.130 218.934 o
-12 6 4 3.778 4.019 0.240 26.178 o
-12 6 5 4.116 4.009 0.260 23.004 o
-12 6 6 42.220 39.632 1.650 0.287 o
-12 6 7 5.740 5.349 0.280 14.159 o
-12 6 8 17.987 18.256 0.780 1.459 o
-12 6 9 0.865 0.950 0.150 151.964 o
-12 6 10 8.092 7.958 0.390 6.983 o
-12 6 11 0.000 0.030 0.170 148.192 o
-12 7 -9 44.657 40.342 1.650 0.267 o
-12 7 -8 12.511 12.148 0.540 3.093 o
-12 7 -7 0.037 0.060 0.140 218.352 o
-12 7 -6 0.131 0.170 0.150 189.106 o
-12 7 -5 24.417 22.855 0.950 0.862 o
-12 7 -4 1.010 1.050 0.160 129.580 o
-12 7 -3 4.215 3.909 0.240 24.051 o
-12 7 -2 1.577 1.610 0.170 91.405 o
-12 7 -1 4.462 4.659 0.280 19.085 o
-12 7 0 9.294 8.828 0.440 5.433 o
-12 7 1 15.848 15.687 0.730 1.854 o
-12 7 2 57.732 53.619 2.649 0.144 o
-12 7 3 16.103 15.597 0.730 1.829 o
-12 7 4 1.777 1.850 0.170 82.359 o
-12 7 5 1.410 1.450 0.170 98.838 o
-12 7 6 0.060 0.230 0.130 251.983 o
-12 7 7 12.577 11.748 0.530 3.153 o
-12 7 8 37.720 35.083 1.450 0.364 o
-12 7 9 1.510 1.450 0.180 88.847 o
-12 7 10 2.272 4.169 1.060 3.618 o
-12 8 -6 0.671 0.840 0.170 131.097 o
-12 8 -5 0.227 0.190 0.150 187.613 o
-12 8 -4 12.023 11.648 0.520 3.350 o
-12 8 -3 0.447 0.630 0.160 156.087 o
-12 8 -2 11.072 11.048 0.540 3.682 o
-12 8 -1 5.847 5.619 0.320 12.613 o
-12 8 0 0.010 0.090 0.150 190.268 o
-12 8 1 0.094 0.120 0.160 166.809 o
-12 8 2 5.933 5.989 0.380 10.797 o
-12 8 3 0.622 0.710 0.140 189.325 o
-12 8 4 12.856 11.778 0.570 2.980 o
-12 8 5 25.775 23.065 0.980 0.798 o
-12 8 6 13.646 12.837 0.580 2.659 o
-11 0 -9 31.037 29.814 1.030 0.553 o
-11 0 -7 41.309 40.572 1.340 0.310 o
-11 0 -5 328.994 309.678 7.219 0.005 o
-11 0 -3 22.822 23.585 0.710 0.997 o
-11 0 -1 159.640 153.389 3.569 0.023 o
-11 0 1 0.051 0.120 0.080 665.140 o
-11 0 3 122.807 118.276 3.029 0.038 o
-11 0 5 29.305 29.844 0.870 0.616 o
-11 0 7 368.357 353.869 11.378 0.004 o
-11 0 9 2.775 3.299 0.190 43.673 o
-11 0 11 14.622 13.837 0.540 2.433 o
-11 0 13 10.310 11.118 0.470 4.207 o
-11 0 15 57.388 55.779 2.519 0.146 o
-11 0 17 76.332 72.316 3.699 0.080 o
-11 1 -10 5.873 6.199 0.200 14.529 o
-11 1 -9 20.923 21.006 0.540 1.253 o
-11 1 -8 17.752 17.776 0.450 1.749 o
-11 1 -7 23.897 25.115 0.620 0.933 o
-11 1 -6 89.756 84.703 1.990 0.072 o
-11 1 -5 144.082 136.513 2.300 0.029 o
-11 1 -4 119.527 113.057 1.890 0.042 o
-11 1 -3 65.559 63.737 1.140 0.137 o
-11 1 -2 2.065 2.430 0.110 92.791 o
-11 1 -1 41.002 40.172 0.780 0.345 o
-11 1 0 4.215 4.389 0.150 28.082 o
-11 1 1 0.120 0.260 0.070 840.138 o
-11 1 2 0.638 0.650 0.090 388.022 o
-11 1 3 0.298 0.430 0.070 746.957 o
-11 1 4 0.082 0.090 0.060 1173.030 o
-11 1 5 1.095 1.260 0.090 244.436 o
-11 1 6 15.678 16.217 0.460 2.139 o
-11 1 7 229.268 221.626 5.689 0.011 o
-11 1 8 5.056 5.389 0.220 17.954 o
-11 1 9 215.009 204.749 5.459 0.012 o
-11 1 10 40.060 39.672 1.030 0.345 o
-11 1 11 2.026 2.510 0.150 75.709 o
-11 1 12 0.080 0.200 0.100 423.929 o
-11 1 13 0.518 0.660 0.110 297.884 o
-11 1 14 1.895 1.950 0.160 82.885 o
-11 1 15 2.922 3.129 0.200 41.296 o
-11 1 16 4.158 4.379 0.250 22.539 o
-11 1 17 0.225 0.320 0.170 145.830 o
-11 2 -10 2.485 2.589 0.130 68.956 o
-11 2 -9 11.105 11.348 0.310 4.339 o
-11 2 -8 5.542 5.989 0.190 16.056 o
-11 2 -7 132.061 123.455 2.819 0.034 o
-11 2 -6 9.350 9.988 0.300 5.778 o
-11 2 -5 17.341 17.926 0.480 1.769 o
-11 2 -4 96.224 92.712 1.680 0.064 o
-11 2 -3 136.470 128.274 2.300 0.032 o
-11 2 -2 29.181 29.594 0.660 0.653 o
-11 2 -1 3.791 4.059 0.190 29.883 o
-11 2 0 10.787 11.208 0.340 4.434 o
-11 2 1 146.685 141.232 2.589 0.027 o
-11 2 2 5.168 5.599 0.230 16.873 o
-11 2 3 0.000 0.080 0.080 668.666 o
-11 2 4 27.609 28.004 0.670 0.722 o
-11 2 5 63.896 61.358 1.820 0.135 o
-11 2 6 160.416 154.639 4.449 0.022 o
-11 2 7 37.029 36.153 1.100 0.396 o
-11 2 8 90.685 86.753 2.410 0.068 o
-11 2 9 10.251 11.178 0.410 4.451 o
-11 2 10 0.618 0.700 0.120 246.627 o
-11 2 11 3.141 3.189 0.190 39.994 o
-11 2 12 18.931 19.136 0.650 1.431 o
-11 2 13 4.063 4.549 0.230 23.788 o
-11 2 14 6.468 6.689 0.370 9.698 o
-11 2 15 7.692 7.928 0.430 6.965 o
-11 2 16 66.620 63.687 2.280 0.119 o
-11 2 17 4.218 4.619 0.400 14.525 o
-11 3 -10 11.410 11.608 0.320 4.117 o
-11 3 -9 65.072 61.188 1.470 0.138 o
-11 3 -8 17.509 16.977 0.500 1.793 o
-11 3 -7 28.731 28.074 0.860 0.656 o
-11 3 -6 26.188 25.965 0.770 0.786 o
-11 3 -5 45.397 44.851 1.270 0.265 o
-11 3 -4 129.865 120.726 3.309 0.034 o
-11 3 -3 8.651 9.088 0.340 6.424 o
-11 3 -2 8.295 8.638 0.290 7.288 o
-11 3 -1 15.674 15.587 0.420 2.231 o
-11 3 0 13.121 12.927 0.390 3.135 o
-11 3 1 3.137 3.349 0.190 39.157 o
-11 3 2 4.216 4.409 0.200 25.123 o
-11 3 3 0.318 0.490 0.100 389.276 o
-11 3 4 7.625 7.678 0.320 8.262 o
-11 3 5 31.344 31.124 1.040 0.532 o
-11 3 6 203.272 189.292 5.719 0.014 o
-11 3 7 97.058 90.562 2.839 0.059 o
-11 3 8 4.569 4.649 0.220 21.544 o
-11 3 9 27.644 26.975 0.880 0.699 o
-11 3 10 71.331 68.396 2.010 0.109 o
-11 3 11 45.857 45.931 1.400 0.253 o
-11 3 12 4.631 5.199 0.260 18.377 o
-11 3 13 5.395 5.869 0.310 13.566 o
-11 3 14 0.442 0.690 0.140 198.628 o
-11 3 15 0.136 0.330 0.170 146.738 o
-11 3 16 1.460 1.600 0.210 71.063 o
-11 4 -10 18.773 18.146 0.540 1.560 o
-11 4 -9 44.605 42.791 1.230 0.280 o
-11 4 -8 31.496 30.424 0.940 0.550 o
-11 4 -7 7.658 7.968 0.330 7.962 o
-11 4 -6 21.066 20.046 0.620 1.244 o
-11 4 -5 29.597 29.014 0.850 0.623 o
-11 4 -4 3.343 3.419 0.180 37.838 o
-11 4 -3 57.416 55.559 1.690 0.166 o
-11 4 -2 76.488 71.976 2.170 0.096 o
-11 4 -1 41.972 38.782 1.190 0.321 o
-11 4 0 68.787 64.647 2.020 0.118 o
-11 4 1 3.365 3.809 0.240 29.438 o
-11 4 2 60.165 56.689 1.960 0.150 o
-11 4 3 49.182 44.551 1.560 0.230 o
-11 4 4 39.968 38.002 1.350 0.334 o
-11 4 5 113.347 107.998 3.699 0.042 o
-11 4 6 2.415 2.709 0.180 55.349 o
-11 4 7 16.606 16.087 0.620 1.856 o
-11 4 8 3.926 3.959 0.210 27.721 o
-11 4 9 37.645 36.443 1.230 0.376 o
-11 4 10 14.268 13.587 0.520 2.558 o
-11 4 11 4.952 5.169 0.260 17.312 o
-11 4 12 23.701 22.735 0.970 0.886 o
-11 4 13 0.180 0.260 0.150 187.816 o
-11 4 14 1.371 1.630 0.190 83.621 o
-11 4 15 16.018 15.897 0.710 1.844 o
-11 4 16 22.154 21.636 1.700 0.677 o
-11 5 -10 1.468 1.690 0.150 108.604 o
-11 5 -9 1.057 1.210 0.140 151.122 o
-11 5 -8 37.209 35.573 1.090 0.398 o
-11 5 -7 6.882 6.839 0.290 10.198 o
-11 5 -6 7.092 7.109 0.290 9.670 o
-11 5 -5 57.842 53.599 1.580 0.170 o
-11 5 -4 9.987 9.198 0.340 5.428 o
-11 5 -3 4.109 4.019 0.210 26.338 o
-11 5 -2 28.620 27.325 0.930 0.657 o
-11 5 -1 7.841 7.968 0.330 7.766 o
-11 5 0 6.942 6.829 0.300 9.972 o
-11 5 1 3.051 2.939 0.180 44.117 o
-11 5 2 1.183 1.320 0.130 154.926 o
-11 5 3 6.521 6.389 0.300 11.017 o
-11 5 4 58.520 54.009 1.890 0.160 o
-11 5 5 196.304 178.504 6.099 0.015 o
-11 5 6 26.908 25.555 0.900 0.739 o
-11 5 7 6.301 6.259 0.290 11.715 o
-11 5 8 1.088 1.110 0.120 186.713 o
-11 5 9 8.830 8.598 0.360 6.343 o
-11 5 10 21.436 20.536 0.740 1.149 o
-11 5 11 43.178 41.342 1.720 0.270 o
-11 5 12 22.439 22.116 1.030 0.929 o
-11 5 13 12.098 11.998 0.550 3.198 o
-11 5 14 1.152 1.450 0.190 90.641 o
-11 5 15 7.839 8.708 0.580 5.308 o
-11 6 -10 82.219 76.695 3.319 0.075 o
-11 6 -9 1.772 2.050 0.170 79.820 o
-11 6 -8 3.245 3.429 0.200 36.337 o
-11 6 -7 0.751 0.940 0.120 224.018 o
-11 6 -6 11.082 10.768 0.420 4.140 o
-11 6 -5 18.194 17.986 0.650 1.551 o
-11 6 -4 16.306 15.707 0.580 1.961 o
-11 6 -3 18.369 17.477 0.630 1.573 o
-11 6 -2 2.068 1.800 0.150 85.007 o
-11 6 -1 78.325 72.885 2.370 0.091 o
-11 6 0 36.187 33.903 1.230 0.410 o
-11 6 1 0.006 0.120 0.090 527.846 o
-11 6 2 43.787 38.962 1.470 0.289 o
-11 6 3 106.628 96.181 3.309 0.049 o
-11 6 4 0.010 0.130 0.110 353.438 o
-11 6 5 22.413 21.556 0.830 1.026 o
-11 6 6 8.301 7.878 0.340 7.262 o
-11 6 7 0.168 0.170 0.100 419.787 o
-11 6 8 8.727 9.068 0.390 6.043 o
-11 6 9 1.119 1.370 0.140 143.234 o
-11 6 10 5.653 5.899 0.300 13.210 o
-11 6 11 41.377 38.662 1.610 0.300 o
-11 6 12 1.901 1.870 0.180 74.021 o
-11 6 13 5.895 5.609 0.310 12.760 o
-11 6 14 1.875 4.629 0.890 5.053 o
-11 7 -10 5.036 5.309 0.280 16.124 o
-11 7 -9 0.068 0.060 0.120 296.793 o
-11 7 -8 1.725 1.860 0.170 83.635 o
-11 7 -7 24.022 22.745 0.950 0.880 o
-11 7 -6 12.244 11.638 0.460 3.442 o
-11 7 -5 34.064 32.254 1.110 0.465 o
-11 7 -4 2.044 2.210 0.170 71.039 o
-11 7 -3 0.803 0.860 0.140 175.433 o
-11 7 -2 3.485 3.329 0.200 34.554 o
-11 7 -1 20.394 18.966 0.690 1.297 o
-11 7 0 9.326 9.588 0.420 5.304 o
-11 7 1 9.423 8.778 0.430 5.430 o
-11 7 2 1.390 1.420 0.140 127.633 o
-11 7 3 55.483 49.990 1.760 0.181 o
-11 7 4 102.871 92.371 3.159 0.053 o
-11 7 5 2.766 3.009 0.210 42.058 o
-11 7 6 11.139 10.718 0.440 4.059 o
-11 7 7 0.947 0.990 0.140 163.601 o
-11 7 8 0.814 0.940 0.140 172.595 o
-11 7 9 0.897 1.040 0.140 164.987 o
-11 7 10 1.305 1.260 0.150 124.704 o
-11 7 11 18.844 17.427 0.760 1.437 o
-11 7 12 11.363 11.068 0.520 3.648 o
-11 8 -9 15.626 14.427 0.630 2.091 o
-11 8 -8 8.915 8.968 0.420 5.751 o
-11 8 -7 10.448 10.158 0.460 4.394 o
-11 8 -6 1.063 1.150 0.160 125.637 o
-11 8 -5 0.018 0.070 0.140 218.412 o
-11 8 -4 9.689 9.468 0.430 5.079 o
-11 8 -3 32.907 29.624 1.220 0.493 o
-11 8 -2 13.483 13.277 0.580 2.647 o
-11 8 -1 2.260 2.529 0.200 53.990 o
-11 8 0 0.002 0.100 0.140 218.417 o
-11 8 1 93.005 86.923 4.289 0.055 o
-11 8 2 6.759 6.769 0.350 9.557 o
-11 8 3 3.472 3.769 0.230 29.803 o
-11 8 4 0.800 0.900 0.150 156.034 o
-11 8 5 12.157 11.598 0.580 3.156 o
-11 8 6 18.290 17.037 0.740 1.517 o
-11 8 7 9.628 9.418 0.430 5.126 o
-11 8 8 2.583 2.510 0.190 51.784 o
-11 8 9 0.257 0.450 0.140 210.602 o
-11 8 10 5.850 5.479 0.300 13.238 o
-11 9 -6 1.524 1.590 0.190 80.623 o
-11 9 -5 0.031 0.130 0.150 190.103 o
-11 9 -4 8.855 8.708 0.410 5.946 o
-11 9 -3 3.046 3.189 0.230 35.379 o
-11 9 -2 0.051 0.020 0.140 218.382 o
-11 9 -1 0.584 0.560 0.160 153.160 o
-11 9 0 20.029 19.086 0.880 1.209 o
-11 9 1 10.784 10.338 0.510 4.019 o
-11 9 2 34.323 30.714 1.740 0.395 o
-11 9 3 28.644 26.765 1.210 0.607 o
-11 9 4 0.023 0.060 0.140 218.414 o
-11 9 5 3.071 2.889 0.210 39.421 o
-11 9 6 0.320 0.440 0.150 182.841 o
-11 9 7 0.265 0.410 0.150 184.609 o
-10 0 -8 9.249 8.968 0.340 6.011 o
-10 0 -6 35.570 36.893 0.970 0.421 o
-10 0 -4 23.711 24.365 0.660 0.949 o
-10 0 -2 579.723 551.580 11.348 0.002 o
-10 0 0 95.543 93.571 1.990 0.063 o
-10 0 2 0.090 0.150 0.090 523.195 o
-10 0 4 19.781 19.666 0.560 1.386 o
-10 0 6 0.466 0.670 0.100 356.054 o
-10 0 8 48.685 48.690 1.260 0.232 o
-10 0 10 0.410 0.560 0.110 314.744 o
-10 0 12 14.855 15.127 0.580 2.222 o
-10 0 14 2.150 2.549 0.170 64.867 o
-10 0 16 67.281 63.857 2.649 0.112 o
-10 0 18 25.141 25.635 1.360 0.668 o
-10 1 -9 3.215 3.429 0.130 45.651 o
-10 1 -8 0.001 0.050 0.080 668.978 o
-10 1 -7 16.479 16.647 0.380 2.048 o
-10 1 -6 15.232 15.847 0.360 2.345 o
-10 1 -5 66.401 65.677 1.030 0.133 o
-10 1 -4 128.054 123.505 1.860 0.036 o
-10 1 -3 89.199 86.643 1.320 0.075 o
-10 1 -2 190.377 178.444 2.589 0.017 o
-10 1 -1 0.000 0.110 0.060 1186.520 o
-10 1 0 238.807 227.195 3.309 0.011 o
-10 1 1 48.399 47.300 0.790 0.251 o
-10 1 2 0.794 0.930 0.080 375.034 o
-10 1 3 0.567 0.620 0.070 584.068 o
-10 1 4 0.269 0.390 0.070 767.266 o
-10 1 5 30.220 29.694 0.570 0.634 o
-10 1 6 60.408 59.138 1.090 0.160 o
-10 1 7 67.049 64.707 1.170 0.131 o
-10 1 8 12.564 12.797 0.320 3.453 o
-10 1 9 51.895 50.290 0.950 0.218 o
-10 1 10 23.541 24.495 0.640 0.960 o
-10 1 11 0.050 0.060 0.080 667.097 o
-10 1 12 169.548 165.547 3.909 0.020 o
-10 1 13 2.173 2.110 0.110 95.013 o
-10 1 14 40.809 39.672 0.990 0.339 o
-10 1 15 18.930 19.096 0.510 1.515 o
-10 1 16 1.896 2.510 0.150 79.421 o
-10 1 17 0.355 0.440 0.120 277.275 o
-10 1 18 4.813 5.119 0.280 17.102 o
-10 1 19 2.559 8.098 0.780 5.736 o
-10 2 -9 20.756 20.546 0.510 1.295 o
-10 2 -8 15.797 16.247 0.360 2.207 o
-10 2 -7 8.918 9.308 0.240 6.685 o
-10 2 -6 2.518 3.089 0.110 66.552 o
-10 2 -5 2.959 2.869 0.110 58.516 o
-10 2 -4 123.011 117.317 1.810 0.040 o
-10 2 -3 113.626 108.218 1.710 0.047 o
-10 2 -2 212.077 201.680 3.079 0.013 o
-10 2 -1 71.158 70.046 1.130 0.116 o
-10 2 0 85.957 84.473 1.350 0.080 o
-10 2 1 14.675 15.167 0.360 2.523 o
-10 2 2 39.779 38.802 0.720 0.369 o
-10 2 3 0.667 0.800 0.090 366.053 o
-10 2 4 8.929 9.418 0.270 6.474 o
-10 2 5 0.192 0.260 0.080 636.538 o
-10 2 6 23.166 22.755 0.530 1.055 o
-10 2 7 30.845 30.174 0.660 0.602 o
-10 2 8 35.709 35.713 0.780 0.442 o
-10 2 9 39.809 39.732 1.070 0.345 o
-10 2 10 0.934 1.130 0.120 199.068 o
-10 2 11 4.939 5.059 0.250 17.917 o
-10 2 12 3.345 3.619 0.200 34.513 o
-10 2 13 5.921 6.229 0.260 13.137 o
-10 2 14 7.678 7.469 0.290 8.629 o
-10 2 15 6.144 5.859 0.250 13.256 o
-10 2 16 7.283 7.389 0.290 9.201 o
-10 2 17 35.240 35.013 1.150 0.423 o
-10 2 18 1.044 1.140 0.150 139.300 o
-10 3 -9 77.865 71.246 1.650 0.098 o
-10 3 -8 5.708 5.839 0.190 15.764 o
-10 3 -7 2.857 3.029 0.130 55.343 o
-10 3 -6 48.487 46.351 0.950 0.250 o
-10 3 -5 61.719 60.278 1.170 0.153 o
-10 3 -4 44.874 42.921 0.860 0.292 o
-10 3 -3 224.884 204.459 3.569 0.012 o
-10 3 -2 7.048 7.069 0.220 10.631 o
-10 3 -1 0.003 0.040 0.080 669.018 o
-10 3 0 44.283 42.192 0.770 0.303 o
-10 3 1 175.302 161.688 2.639 0.020 o
-10 3 2 44.363 42.522 0.780 0.301 o
-10 3 3 0.308 0.380 0.080 596.106 o
-10 3 4 28.343 27.225 0.640 0.716 o
-10 3 5 1.311 1.510 0.120 153.430 o
-10 3 6 7.636 7.169 0.260 9.189 o
-10 3 7 5.154 5.359 0.220 17.654 o
-10 3 8 64.319 61.358 1.860 0.134 o
-10 3 9 0.911 1.240 0.120 196.277 o
-10 3 10 6.142 6.539 0.260 12.308 o
-10 3 11 152.703 141.632 4.059 0.025 o
-10 3 12 74.358 70.386 2.060 0.101 o
-10 3 13 64.233 62.377 1.780 0.134 o
-10 3 14 8.617 8.898 0.340 6.529 o
-10 3 15 0.292 0.410 0.130 242.229 o
-10 3 16 11.623 11.788 0.540 3.391 o
-10 3 17 33.396 32.863 1.390 0.437 o
-10 3 18 8.308 8.498 0.350 6.890 o
-10 4 -9 0.177 0.240 0.100 416.633 o
-10 4 -8 12.954 13.437 0.440 3.019 o
-10 4 -7 0.761 0.930 0.110 254.062 o
-10 4 -6 50.686 47.011 0.980 0.233 o
-10 4 -5 86.183 80.214 1.510 0.081 o
-10 4 -4 125.508 116.127 2.120 0.039 o
-10 4 -3 20.145 20.026 0.490 1.373 o
-10 4 -2 0.213 0.300 0.090 502.800 o
-10 4 -1 15.004 14.347 0.380 2.518 o
-10 4 0 176.760 161.578 3.049 0.020 o
-10 4 1 26.173 25.195 0.670 0.823 o
-10 4 2 7.821 7.938 0.330 7.802 o
-10 4 3 29.725 29.874 0.990 0.587 o
-10 4 4 14.271 13.637 0.480 2.614 o
-10 4 5 15.450 15.307 0.530 2.174 o
-10 4 6 29.817 28.444 0.880 0.620 o
-10 4 7 50.445 46.371 1.700 0.214 o
-10 4 8 67.715 60.108 1.910 0.126 o
-10 4 9 41.558 40.482 1.260 0.313 o
-10 4 10 19.046 19.506 0.650 1.405 o
-10 4 11 9.512 9.588 0.390 5.355 o
-10 4 12 2.136 2.210 0.180 65.245 o
-10 4 13 9.444 9.048 0.410 5.451 o
-10 4 14 1.028 1.260 0.140 151.365 o
-10 4 15 0.171 0.140 0.130 250.687 o
-10 4 16 0.068 0.110 0.140 217.979 o
-10 4 17 7.612 7.658 0.390 7.561 o
-10 5 -9 26.431 26.555 0.790 0.763 o
-10 5 -8 88.285 83.113 2.300 0.073 o
-10 5 -7 13.507 12.997 0.450 2.915 o
-10 5 -6 8.533 9.118 0.330 6.574 o
-10 5 -5 19.386 17.906 0.590 1.482 o
-10 5 -4 135.345 125.555 3.749 0.031 o
-10 5 -3 6.552 6.369 0.250 11.814 o
-10 5 -2 11.638 10.718 0.380 4.045 o
-10 5 -1 3.586 3.759 0.190 32.784 o
-10 5 0 1.858 2.070 0.140 92.921 o
-10 5 1 40.814 37.413 1.080 0.346 o
-10 5 2 154.636 138.672 3.359 0.025 o
-10 5 3 17.734 17.436 0.590 1.671 o
-10 5 4 13.975 13.687 0.540 2.575 o
-10 5 5 2.315 2.320 0.160 67.124 o
-10 5 6 3.396 3.649 0.210 32.857 o
-10 5 7 0.623 0.720 0.100 327.938 o
-10 5 8 11.336 11.308 0.460 3.806 o
-10 5 9 22.755 21.106 0.790 1.036 o
-10 5 10 163.179 149.190 4.839 0.021 o
-10 5 11 6.239 6.679 0.300 11.260 o
-10 5 12 51.847 49.950 1.680 0.199 o
-10 5 13 0.000 0.050 0.130 253.392 o
-10 5 14 68.171 64.087 2.879 0.107 o
-10 5 15 30.288 29.534 1.160 0.551 o
-10 5 16 9.542 9.128 0.430 5.257 o
-10 5 17 18.061 20.106 1.090 1.161 o
-10 6 -9 15.208 15.047 0.520 2.247 o
-10 6 -8 29.985 28.044 0.900 0.617 o
-10 6 -7 28.817 26.525 0.820 0.682 o
-10 6 -6 102.473 94.711 2.689 0.055 o
-10 6 -5 16.025 15.537 0.570 2.023 o
-10 6 -4 18.198 17.506 0.640 1.581 o
-10 6 -3 1.884 2.090 0.150 86.273 o
-10 6 -2 3.266 3.329 0.180 39.168 o
-10 6 -1 27.278 26.785 0.910 0.706 o
-10 6 0 12.640 12.258 0.540 3.045 o
-10 6 1 104.062 98.390 3.389 0.050 o
-10 6 2 45.966 41.352 1.460 0.265 o
-10 6 3 0.003 0.020 0.090 528.713 o
-10 6 4 6.457 6.889 0.320 10.377 o
-10 6 5 40.924 37.663 1.340 0.327 o
-10 6 6 5.364 5.349 0.270 15.437 o
-10 6 7 63.297 56.979 1.890 0.142 o
-10 6 8 40.797 37.972 1.340 0.327 o
-10 6 9 32.530 29.574 1.020 0.527 o
-10 6 10 0.485 0.660 0.120 259.561 o
-10 6 11 24.395 24.015 0.860 0.868 o
-10 6 12 24.220 22.765 0.970 0.865 o
-10 6 13 0.387 0.430 0.140 206.447 o
-10 6 14 0.571 0.550 0.150 172.947 o
-10 6 15 0.550 0.610 0.150 172.620 o
-10 6 16 1.919 4.509 0.830 5.756 o
-10 7 -9 30.720 30.104 0.920 0.573 o
-10 7 -8 23.709 22.985 0.790 0.942 o
-10 7 -7 7.139 7.239 0.320 9.137 o
-10 7 -6 1.281 1.270 0.130 150.177 o
-10 7 -5 47.888 44.441 1.710 0.232 o
-10 7 -4 8.612 8.668 0.360 6.488 o
-10 7 -3 17.390 16.637 0.610 1.738 o
-10 7 -2 0.009 0.020 0.110 353.920 o
-10 7 -1 0.079 0.080 0.100 426.384 o
-10 7 0 6.310 6.019 0.330 11.159 o
-10 7 1 7.045 6.869 0.320 9.518 o
-10 7 2 43.887 41.422 1.470 0.279 o
-10 7 3 38.541 34.903 1.250 0.373 o
-10 7 4 53.722 50.810 1.790 0.186 o
-10 7 5 13.152 13.107 0.540 2.816 o
-10 7 6 1.631 1.870 0.140 105.919 o
-10 7 7 8.500 8.278 0.370 6.666 o
-10 7 8 93.270 84.193 2.889 0.065 o
-10 7 9 27.504 25.695 0.900 0.718 o
-10 7 10 0.067 0.140 0.110 352.214 o
-10 7 11 31.475 29.364 1.240 0.517 o
-10 7 12 12.800 12.228 0.550 2.985 o
-10 7 13 20.336 19.726 0.850 1.187 o
-10 7 14 21.916 20.556 0.890 1.052 o
-10 8 -9 0.000 0.060 0.120 297.361 o
-10 8 -8 102.211 95.271 3.829 0.050 o
-10 8 -7 4.623 4.789 0.260 19.164 o
-10 8 -6 20.924 20.346 0.720 1.197 o
-10 8 -5 0.134 0.220 0.120 293.565 o
-10 8 -4 6.416 6.459 0.300 11.140 o
-10 8 -3 0.267 0.310 0.110 338.235 o
-10 8 -2 21.903 20.586 0.740 1.119 o
-10 8 -1 0.020 0.060 0.100 427.952 o
-10 8 0 10.811 10.928 0.510 3.899 o
-10 8 1 0.298 0.370 0.110 333.599 o
-10 8 2 53.193 48.440 1.710 0.196 o
-10 8 3 52.851 47.340 1.670 0.201 o
-10 8 4 0.000 0.080 0.120 297.315 o
-10 8 5 0.381 0.370 0.120 277.851 o
-10 8 6 40.036 38.022 1.300 0.337 o
-10 8 7 5.504 5.689 0.280 14.323 o
-10 8 8 14.934 14.257 0.620 2.225 o
-10 8 9 0.818 0.820 0.130 197.647 o
-10 8 10 28.160 26.565 1.110 0.642 o
-10 8 11 3.611 3.339 0.220 31.338 o
-10 8 12 29.444 28.074 1.180 0.581 o
-10 9 -9 4.146 4.719 0.270 20.706 o
-10 9 -8 0.000 0.000 0.140 218.513 o
-10 9 -7 5.319 5.639 0.290 14.579 o
-10 9 -6 5.544 5.429 0.290 14.278 o
-10 9 -5 10.150 9.528 0.440 4.772 o
-10 9 -4 10.534 10.048 0.500 4.215 o
-10 9 -3 3.999 3.889 0.240 25.281 o
-10 9 -2 2.603 2.829 0.200 47.013 o
-10 9 -1 1.468 1.610 0.160 102.090 o
-10 9 0 2.298 2.360 0.190 57.581 o
-10 9 1 13.871 13.267 0.790 2.191 o
-10 9 2 0.532 0.610 0.130 224.048 o
-10 9 3 4.754 4.419 0.260 19.373 o
-10 9 4 16.657 15.157 0.710 1.812 o
-10 9 5 22.070 21.656 1.010 0.963 o
-10 9 6 73.950 68.056 2.799 0.096 o
-10 9 7 24.045 21.816 0.920 0.909 o
-10 9 8 5.870 6.079 0.310 12.331 o
-10 9 9 11.766 10.908 0.490 3.634 o
-10 9 10 0.408 0.470 0.150 179.901 o
-10 10 -6 16.482 15.597 0.680 1.839 o
-10 10 -5 0.982 1.050 0.170 118.683 o
-10 10 -4 3.049 3.219 0.230 35.226 o
-10 10 -3 0.191 0.210 0.170 146.785 o
-10 10 -2 7.568 7.469 0.390 7.697 o
-10 10 -1 6.287 6.069 0.330 11.156 o
-10 10 0 1.122 1.120 0.170 113.131 o
-10 10 1 4.137 4.289 0.300 19.929 o
-10 10 2 2.873 3.169 0.220 38.486 o
-10 10 3 9.199 8.808 0.440 5.496 o
-10 10 4 45.848 42.152 1.930 0.239 o
-10 10 5 0.073 0.080 0.130 252.816 o
-10 10 6 0.628 0.790 0.150 165.938 o
-10 10 7 1.931 1.770 0.260 46.201 o
-9 0 -7 33.431 34.113 0.820 0.490 o
-9 0 -5 66.724 65.387 1.430 0.129 o
-9 0 -3 119.037 112.657 2.430 0.041 o
-9 0 -1 0.070 0.110 0.080 664.083 o
-9 0 1 1.218 1.110 0.120 175.870 o
-9 0 3 229.911 225.485 4.679 0.011 o
-9 0 5 32.560 32.404 0.800 0.524 o
-9 0 7 23.085 23.745 0.630 1.004 o
-9 0 9 4.177 4.879 0.230 22.368 o
-9 0 11 20.782 21.746 0.720 1.161 o
-9 0 13 11.040 11.218 0.440 3.999 o
-9 0 15 0.018 0.340 0.120 295.127 o
-9 0 17 7.647 7.279 0.340 8.256 o
-9 0 19 30.009 29.314 1.250 0.544 o
-9 1 -8 109.556 105.669 1.600 0.050 o
-9 1 -7 43.144 42.661 0.710 0.313 o
-9 1 -6 52.908 52.419 0.840 0.209 o
-9 1 -5 5.498 6.229 0.170 16.244 o
-9 1 -4 2.842 2.949 0.110 60.252 o
-9 1 -3 208.816 202.020 2.969 0.014 o
-9 1 -2 23.868 23.335 0.420 1.026 o
-9 1 -1 0.200 0.160 0.050 1558.240 o
-9 1 0 0.033 0.190 0.060 1172.750 o
-9 1 1 3.539 4.529 0.140 33.933 o
-9 1 2 32.818 35.173 0.610 0.509 o
-9 1 3 309.106 295.931 4.339 0.006 o
-9 1 4 5.887 6.629 0.180 14.259 o
-9 1 5 56.952 55.539 0.920 0.182 o
-9 1 6 19.494 19.246 0.390 1.510 o
-9 1 7 0.027 0.040 0.050 1708.290 o
-9 1 8 0.575 0.680 0.080 473.374 o
-9 1 9 0.915 0.940 0.080 343.403 o
-9 1 10 0.160 0.260 0.060 1108.000 o
-9 1 11 8.419 8.948 0.240 7.336 o
-9 1 12 18.787 18.926 0.490 1.548 o
-9 1 13 78.400 76.755 1.790 0.092 o
-9 1 14 85.297 81.804 1.900 0.079 o
-9 1 15 58.319 58.228 1.380 0.164 o
-9 1 16 35.032 33.893 0.840 0.463 o
-9 1 17 0.000 0.060 0.090 528.557 o
-9 1 18 25.953 25.765 0.780 0.796 o
-9 1 19 28.371 28.534 0.950 0.643 o
-9 1 20 10.068 10.388 0.480 4.426 o
-9 2 -8 1.278 1.520 0.090 201.592 o
-9 2 -7 163.599 153.329 2.220 0.023 o
-9 2 -6 4.810 5.169 0.150 21.899 o
-9 2 -5 20.432 20.366 0.390 1.373 o
-9 2 -4 44.738 43.671 0.730 0.294 o
-9 2 -3 29.117 29.464 0.530 0.673 o
-9 2 -2 5.280 5.439 0.190 17.945 o
-9 2 -1 92.475 89.642 1.420 0.069 o
-9 2 0 43.432 42.291 0.760 0.311 o
-9 2 1 102.024 99.020 1.580 0.057 o
-9 2 2 30.643 31.994 0.610 0.590 o
-9 2 3 16.865 16.917 0.380 1.970 o
-9 2 4 6.018 6.679 0.210 13.333 o
-9 2 5 72.939 71.806 1.220 0.110 o
-9 2 6 34.487 34.423 0.650 0.482 o
-9 2 7 19.215 19.996 0.440 1.480 o
-9 2 8 0.515 0.510 0.090 429.341 o
-9 2 9 15.159 15.647 0.400 2.338 o
-9 2 10 3.208 3.519 0.160 41.293 o
-9 2 11 1.765 2.120 0.120 107.993 o
-9 2 12 0.332 0.530 0.090 464.107 o
-9 2 13 13.500 13.837 0.370 2.940 o
-9 2 14 5.219 5.529 0.200 17.718 o
-9 2 15 0.026 0.060 0.080 668.157 o
-9 2 16 6.656 6.669 0.240 11.466 o
-9 2 17 24.588 23.295 0.780 0.899 o
-9 2 18 2.397 2.819 0.170 57.277 o
-9 2 19 0.280 0.310 0.130 244.762 o
-9 2 20 15.745 18.116 1.110 1.347 o
-9 3 -8 29.902 29.064 0.570 0.651 o
-9 3 -7 64.037 62.148 0.980 0.145 o
-9 3 -6 0.241 0.350 0.060 1032.320 o
-9 3 -5 0.159 0.140 0.060 1137.090 o
-9 3 -4 124.279 115.887 1.860 0.039 o
-9 3 -3 18.661 20.046 0.420 1.540 o
-9 3 -2 132.971 126.915 1.990 0.034 o
-9 3 -1 24.078 23.545 0.460 1.001 o
-9 3 0 2.892 3.479 0.150 47.380 o
-9 3 1 29.625 30.404 0.570 0.641 o
-9 3 2 199.041 188.832 3.079 0.015 o
-9 3 3 26.179 24.535 0.490 0.871 o
-9 3 4 86.251 80.504 1.330 0.082 o
-9 3 5 46.863 44.831 0.820 0.270 o
-9 3 6 19.282 18.926 0.430 1.530 o
-9 3 7 14.216 13.547 0.350 2.823 o
-9 3 8 10.479 10.638 0.320 4.800 o
-9 3 9 2.458 2.749 0.150 62.081 o
-9 3 10 5.355 5.929 0.230 15.748 o
-9 3 11 26.921 26.205 0.790 0.752 o
-9 3 12 1.453 1.570 0.120 141.599 o
-9 3 13 13.275 13.487 0.470 2.876 o
-9 3 14 61.920 61.068 1.750 0.142 o
-9 3 15 26.598 27.025 0.850 0.737 o
-9 3 16 0.277 0.380 0.120 283.809 o
-9 3 17 58.433 56.109 2.170 0.151 o
-9 3 18 0.086 0.180 0.130 251.961 o
-9 3 19 1.273 1.570 0.160 109.813 o
-9 4 -8 0.374 0.440 0.090 464.686 o
-9 4 -7 5.037 5.549 0.190 18.683 o
-9 4 -6 158.325 145.721 2.280 0.025 o
-9 4 -5 39.340 38.182 0.700 0.379 o
-9 4 -4 10.569 10.888 0.290 4.782 o
-9 4 -3 9.137 9.508 0.260 6.313 o
-9 4 -2 52.036 50.810 0.870 0.217 o
-9 4 -1 103.350 97.320 1.580 0.057 o
-9 4 0 249.366 228.314 3.589 0.010 o
-9 4 1 27.039 25.955 0.670 0.776 o
-9 4 2 0.578 0.730 0.100 334.173 o
-9 4 3 39.483 37.623 0.930 0.369 o
-9 4 4 6.110 6.509 0.270 12.221 o
-9 4 5 0.902 1.000 0.110 233.777 o
-9 4 6 112.129 101.070 2.070 0.049 o
-9 4 7 1.566 1.650 0.120 131.787 o
-9 4 8 0.154 0.290 0.090 510.854 o
-9 4 9 17.199 16.437 0.460 1.898 o
-9 4 10 1.516 1.570 0.140 117.784 o
-9 4 11 0.594 0.650 0.100 337.966 o
-9 4 12 2.775 2.739 0.160 53.550 o
-9 4 13 0.228 0.420 0.110 337.046 o
-9 4 14 17.746 17.177 0.600 1.676 o
-9 4 15 1.239 1.240 0.130 153.826 o
-9 4 16 32.089 29.804 1.260 0.499 o
-9 4 17 1.294 1.440 0.160 111.427 o
-9 4 18 7.136 6.609 0.340 9.299 o
-9 4 19 0.018 1.670 0.320 40.905 o
-9 5 -8 5.064 5.059 0.220 18.548 o
-9 5 -7 19.991 18.986 0.470 1.441 o
-9 5 -6 0.232 0.210 0.100 413.445 o
-9 5 -5 101.557 94.471 1.760 0.059 o
-9 5 -4 3.525 3.809 0.170 35.045 o
-9 5 -3 74.250 65.787 1.150 0.114 o
-9 5 -2 5.132 5.489 0.240 16.864 o
-9 5 -1 82.020 78.394 1.800 0.086 o
-9 5 0 0.066 0.150 0.080 662.643 o
-9 5 1 141.012 127.944 2.689 0.031 o
-9 5 2 3.530 3.479 0.180 35.606 o
-9 5 3 52.680 48.790 1.170 0.212 o
-9 5 4 0.714 0.830 0.100 305.141 o
-9 5 5 62.496 57.099 1.540 0.150 o
-9 5 6 72.674 66.927 1.800 0.110 o
-9 5 7 5.005 4.849 0.220 19.198 o
-9 5 8 18.592 17.836 0.590 1.561 o
-9 5 9 0.077 0.110 0.080 663.478 o
-9 5 10 12.047 11.568 0.470 3.490 o
-9 5 11 0.710 0.740 0.130 208.026 o
-9 5 12 13.395 12.967 0.510 2.835 o
-9 5 13 8.810 9.078 0.370 6.111 o
-9 5 14 1.745 1.960 0.160 87.218 o
-9 5 15 2.674 2.809 0.170 52.514 o
-9 5 16 30.232 29.424 1.250 0.538 o
-9 5 17 0.013 0.040 0.130 253.371 o
-9 5 18 1.550 1.930 0.190 76.329 o
-9 6 -8 159.137 144.301 3.929 0.023 o
-9 6 -7 15.058 15.257 0.550 2.217 o
-9 6 -6 0.124 0.180 0.080 654.341 o
-9 6 -5 39.225 35.483 0.810 0.392 o
-9 6 -4 110.648 100.890 2.410 0.049 o
-9 6 -3 5.449 5.429 0.240 15.948 o
-9 6 -2 140.534 126.455 2.969 0.031 o
-9 6 -1 80.361 75.615 1.920 0.089 o
-9 6 0 54.915 49.580 1.290 0.197 o
-9 6 1 3.691 3.739 0.210 30.170 o
-9 6 2 196.785 177.135 4.239 0.016 o
-9 6 3 2.207 2.240 0.150 74.459 o
-9 6 4 41.855 38.642 1.080 0.329 o
-9 6 5 20.679 20.586 0.680 1.224 o
-9 6 6 5.036 5.129 0.270 16.747 o
-9 6 7 11.270 10.618 0.410 4.126 o
-9 6 8 14.739 14.567 0.560 2.317 o
-9 6 9 2.293 2.100 0.160 70.240 o
-9 6 10 5.106 5.089 0.240 17.634 o
-9 6 11 4.575 4.439 0.230 21.518 o
-9 6 12 0.220 0.310 0.130 246.932 o
-9 6 13 10.333 9.928 0.410 4.713 o
-9 6 14 13.320 12.678 0.930 2.051 o
-9 6 15 3.038 3.039 0.190 42.052 o
-9 6 16 9.675 9.848 0.460 4.833 o
-9 6 17 6.720 6.119 0.320 10.572 o
-9 7 -8 9.345 9.468 0.380 5.550 o
-9 7 -7 75.512 67.656 2.010 0.102 o
-9 7 -6 0.110 0.250 0.100 420.953 o
-9 7 -5 4.452 4.679 0.230 21.534 o
-9 7 -4 53.320 50.160 1.650 0.193 o
-9 7 -3 0.077 0.130 0.090 524.595 o
-9 7 -2 39.445 35.123 1.170 0.367 o
-9 7 -1 19.399 18.736 0.710 1.371 o
-9 7 0 0.008 0.060 0.070 873.238 o
-9 7 1 29.257 28.544 1.030 0.607 o
-9 7 2 44.569 41.002 1.450 0.276 o
-9 7 3 4.187 4.549 0.240 22.570 o
-9 7 4 19.355 18.816 0.720 1.365 o
-9 7 5 17.662 16.877 0.650 1.661 o
-9 7 6 35.848 32.743 1.190 0.426 o
-9 7 7 35.914 31.814 1.090 0.442 o
-9 7 8 23.684 21.406 0.790 0.981 o
-9 7 9 0.173 0.150 0.100 420.107 o
-9 7 10 5.230 5.309 0.250 16.520 o
-9 7 11 9.603 9.458 0.390 5.339 o
-9 7 12 10.665 10.888 0.440 4.220 o
-9 7 13 0.802 0.960 0.150 154.591 o
-9 7 14 0.199 0.270 0.150 187.407 o
-9 7 15 0.000 -0.020 0.130 253.423 o
-9 7 16 11.997 11.148 0.520 3.433 o
-9 8 -8 7.295 7.069 0.310 9.166 o
-9 8 -7 83.015 76.245 2.479 0.081 o
-9 8 -6 59.269 55.479 1.830 0.157 o
-9 8 -5 0.623 0.720 0.120 245.349 o
-9 8 -4 1.870 1.780 0.150 91.884 o
-9 8 -3 163.149 141.742 4.549 0.022 o
-9 8 -2 1.344 1.430 0.140 129.712 o
-9 8 -1 22.489 20.546 0.730 1.090 o
-9 8 0 3.033 3.049 0.190 42.053 o
-9 8 1 109.866 99.310 3.409 0.046 o
-9 8 2 1.558 1.490 0.150 109.015 o
-9 8 3 131.649 120.776 4.109 0.032 o
-9 8 4 1.968 2.040 0.160 79.515 o
-9 8 5 0.098 0.230 0.110 349.789 o
-9 8 6 0.341 0.430 0.100 390.077 o
-9 8 7 0.384 0.450 0.110 322.669 o
-9 8 8 6.938 6.649 0.300 10.117 o
-9 8 9 5.012 5.109 0.240 17.936 o
-9 8 10 0.885 0.980 0.140 167.429 o
-9 8 11 3.855 3.899 0.230 26.847 o
-9 8 12 12.361 11.688 0.530 3.221 o
-9 8 13 11.312 11.048 0.510 3.701 o
-9 8 14 3.651 3.939 0.250 26.355 o
-9 9 -8 68.807 64.597 2.609 0.109 o
-9 9 -7 1.158 1.290 0.150 130.633 o
-9 9 -6 18.667 17.576 0.650 1.525 o
-9 9 -5 4.786 4.719 0.240 19.537 o
-9 9 -4 5.637 5.559 0.270 14.415 o
-9 9 -3 32.246 29.464 1.020 0.534 o
-9 9 -2 1.942 2.000 0.160 80.820 o
-9 9 -1 0.039 0.130 0.120 296.720 o
-9 9 0 0.107 0.170 0.110 350.586 o
-9 9 1 2.588 2.809 0.180 51.692 o
-9 9 2 10.057 9.818 0.430 4.792 o
-9 9 3 16.057 15.777 0.630 1.936 o
-9 9 4 15.921 15.587 0.620 1.979 o
-9 9 5 8.459 8.088 0.380 6.700 o
-9 9 6 6.859 6.919 0.310 9.888 o
-9 9 7 1.344 1.390 0.140 130.754 o
-9 9 8 33.478 29.634 1.230 0.481 o
-9 9 9 9.884 9.058 0.420 5.136 o
-9 9 10 0.009 0.070 0.130 253.330 o
-9 9 11 15.680 15.087 0.660 1.999 o
-9 9 12 0.225 0.220 0.150 187.384 o
-9 10 -8 1.849 2.010 0.190 69.222 o
-9 10 -7 0.252 0.440 0.140 210.928 o
-9 10 -6 13.775 12.907 0.570 2.644 o
-9 10 -5 98.967 89.022 3.589 0.055 o
-9 10 -4 0.170 0.230 0.140 215.687 o
-9 10 -3 0.405 0.590 0.140 202.482 o
-9 10 -2 15.358 14.527 0.680 2.057 o
-9 10 -1 30.107 27.954 1.260 0.553 o
-9 10 0 13.458 12.508 0.590 2.714 o
-9 10 1 5.203 5.079 0.290 15.641 o
-9 10 2 51.967 47.300 2.110 0.190 o
-9 10 3 0.250 0.400 0.140 211.600 o
-9 10 4 10.975 10.548 0.530 3.836 o
-9 10 5 22.965 21.966 0.930 0.949 o
-9 10 6 0.547 0.750 0.130 218.598 o
-9 10 7 0.012 0.080 0.120 297.242 o
-9 10 8 0.194 0.190 0.130 249.515 o
-9 10 9 1.771 2.020 0.180 75.297 o
-9 10 10 1.387 1.350 0.180 93.388 o
-9 11 -6 4.279 4.879 0.450 12.401 o
-9 11 -5 2.860 2.829 0.220 40.316 o
-9 11 -4 3.345 3.539 0.240 30.504 o
-9 11 -3 18.273 16.797 0.780 1.498 o
-9 11 -2 3.601 3.489 0.240 28.928 o
-9 11 -1 1.866 2.190 0.210 59.611 o
-9 11 0 0.061 0.150 0.160 166.915 o
-9 11 1 0.103 0.100 0.180 131.884 o
-9 11 2 2.573 2.589 0.210 46.837 o
-9 11 3 1.753 1.960 0.190 71.688 o
-9 11 4 11.965 11.568 0.520 3.379 o
-9 11 5 4.895 4.989 0.280 17.049 o
-9 11 6 0.014 0.070 0.150 190.284 o
-8 0 -6 26.864 28.584 0.680 0.735 o
-8 0 -4 202.178 200.880 4.109 0.014 o
-8 0 -2 6.341 8.208 0.290 9.973 o
-8 0 0 0.591 0.830 0.090 378.864 o
-8 0 2 379.700 360.798 7.399 0.004 o
-8 0 4 45.578 43.401 1.030 0.278 o
-8 0 6 89.153 92.771 1.990 0.069 o
-8 0 8 414.180 402.849 8.248 0.003 o
-8 0 10 183.147 175.325 3.619 0.017 o
-8 0 12 8.540 8.588 0.320 6.866 o
-8 0 14 3.811 4.219 0.210 27.626 o
-8 0 16 1.174 1.500 0.140 136.783 o
-8 0 18 9.307 9.968 0.430 5.152 o
-8 0 20 15.405 15.427 0.700 1.963 o
-8 1 -7 58.322 59.258 0.920 0.169 o
-8 1 -6 64.599 63.907 0.990 0.140 o
-8 1 -5 19.421 20.606 0.380 1.456 o
-8 1 -4 1.950 2.609 0.100 98.374 o
-8 1 -3 4.783 4.889 0.130 23.503 o
-8 1 -2 15.312 14.607 0.290 2.515 o
-8 1 -1 9.041 8.378 0.190 7.258 o
-8 1 0 6.954 6.529 0.160 12.027 o
-8 1 1 7.352 9.038 0.200 8.811 o
-8 1 2 65.773 68.346 1.060 0.131 o
-8 1 3 98.022 98.170 1.500 0.061 o
-8 1 4 136.800 133.513 1.990 0.032 o
-8 1 5 133.064 131.174 1.990 0.033 o
-8 1 6 31.265 31.804 0.540 0.584 o
-8 1 7 105.012 103.629 1.580 0.053 o
-8 1 8 8.691 10.048 0.230 6.606 o
-8 1 9 93.020 92.541 1.400 0.068 o
-8 1 10 41.822 41.102 0.700 0.335 o
-8 1 11 75.681 73.745 1.140 0.103 o
-8 1 12 1.976 2.110 0.100 109.588 o
-8 1 13 30.570 29.694 0.610 0.621 o
-8 1 14 1.220 1.350 0.090 220.029 o
-8 1 15 69.893 68.116 1.600 0.117 o
-8 1 16 102.492 99.420 2.300 0.054 o
-8 1 17 63.314 61.588 1.460 0.142 o
-8 1 18 24.509 24.365 0.660 0.912 o
-8 1 19 1.402 1.620 0.120 143.343 o
-8 1 20 18.991 19.286 0.630 1.431 o
-8 1 21 0.755 0.870 0.150 158.731 o
-8 2 -7 21.562 22.086 0.410 1.212 o
-8 2 -6 45.888 47.370 0.760 0.269 o
-8 2 -5 10.541 10.448 0.240 5.073 o
-8 2 -4 69.105 68.796 1.050 0.122 o
-8 2 -3 66.306 67.946 1.030 0.130 o
-8 2 -2 14.911 15.587 0.330 2.461 o
-8 2 -1 6.163 6.359 0.200 13.544 o
-8 2 0 126.235 125.835 1.970 0.037 o
-8 2 1 47.494 45.061 0.770 0.266 o
-8 2 2 0.073 0.160 0.060 1165.620 o
-8 2 3 110.904 104.589 1.710 0.049 o
-8 2 4 119.061 119.306 1.910 0.041 o
-8 2 5 10.392 10.868 0.280 4.916 o
-8 2 6 53.086 50.480 0.880 0.212 o
-8 2 7 197.790 193.951 3.079 0.015 o
-8 2 8 68.048 66.807 1.100 0.127 o
-8 2 9 0.012 0.060 0.060 1187.840 o
-8 2 10 148.210 143.101 2.200 0.027 o
-8 2 11 83.321 80.784 1.290 0.085 o
-8 2 12 0.006 0.070 0.050 1709.580 o
-8 2 13 1.698 1.790 0.110 128.301 o
-8 2 14 0.195 0.330 0.070 806.568 o
-8 2 15 0.072 0.110 0.070 865.012 o
-8 2 16 15.515 15.357 0.410 2.289 o
-8 2 17 0.225 0.430 0.090 491.644 o
-8 2 18 1.840 1.910 0.120 109.454 o
-8 2 19 6.885 7.169 0.270 10.202 o
-8 2 20 8.461 8.638 0.350 6.697 o
-8 2 21 56.595 53.809 2.120 0.161 o
-8 3 -7 40.926 41.112 0.670 0.345 o
-8 3 -6 14.813 16.327 0.330 2.406 o
-8 3 -5 21.311 20.506 0.400 1.293 o
-8 3 -4 22.595 23.145 0.440 1.101 o
-8 3 -3 16.634 17.576 0.370 1.962 o
-8 3 -2 1.251 1.370 0.100 195.939 o
-8 3 -1 13.662 13.597 0.300 3.027 o
-8 3 0 2.759 3.639 0.140 49.822 o
-8 3 1 5.906 6.499 0.190 14.210 o
-8 3 2 10.229 10.488 0.250 5.221 o
-8 3 3 74.905 73.005 1.180 0.105 o
-8 3 4 38.556 38.582 0.690 0.387 o
-8 3 5 15.706 15.547 0.350 2.293 o
-8 3 6 130.526 124.925 2.020 0.035 o
-8 3 7 4.490 4.459 0.180 24.432 o
-8 3 8 108.859 103.629 1.660 0.051 o
-8 3 9 6.785 6.739 0.220 11.429 o
-8 3 10 38.233 38.082 0.700 0.394 o
-8 3 11 2.314 2.619 0.140 70.031 o
-8 3 12 44.652 42.002 0.870 0.297 o
-8 3 13 40.403 39.652 1.070 0.339 o
-8 3 14 67.864 65.217 1.780 0.122 o
-8 3 15 7.876 8.708 0.280 7.761 o
-8 3 16 21.696 21.596 0.600 1.157 o
-8 3 17 50.419 48.720 1.290 0.221 o
-8 3 18 7.802 7.848 0.310 8.060 o
-8 3 19 3.883 4.409 0.230 25.167 o
-8 3 20 15.670 16.297 0.580 2.009 o
-8 4 -7 0.001 0.050 0.050 1711.710 o
-8 4 -6 102.414 95.501 1.550 0.058 o
-8 4 -5 0.108 0.230 0.090 518.674 o
-8 4 -4 1.724 2.490 0.130 95.621 o
-8 4 -3 48.694 47.980 0.800 0.247 o
-8 4 -2 0.323 0.500 0.080 575.718 o
-8 4 -1 135.806 130.604 2.040 0.032 o
-8 4 0 1.767 1.760 0.110 124.941 o
-8 4 1 31.159 31.274 0.780 0.568 o
-8 4 2 2.149 2.549 0.140 75.521 o
-8 4 3 18.937 18.996 0.550 1.497 o
-8 4 4 6.354 6.509 0.260 11.904 o
-8 4 5 207.504 193.951 4.219 0.014 o
-8 4 6 22.354 20.866 0.480 1.179 o
-8 4 7 48.872 47.251 0.850 0.247 o
-8 4 8 34.668 31.144 0.630 0.511 o
-8 4 9 12.303 12.678 0.330 3.543 o
-8 4 10 0.401 0.370 0.090 466.158 o
-8 4 11 109.925 103.569 1.940 0.049 o
-8 4 12 42.525 41.232 1.290 0.300 o
-8 4 13 0.004 0.050 0.070 873.590 o
-8 4 14 5.200 5.579 0.230 16.799 o
-8 4 15 5.842 5.589 0.250 14.343 o
-8 4 16 0.633 0.770 0.110 278.492 o
-8 4 17 12.497 11.898 0.450 3.347 o
-8 4 18 0.955 1.010 0.140 162.557 o
-8 4 19 17.811 17.107 0.640 1.641 o
-8 4 20 49.146 45.411 1.750 0.221 o
-8 5 -7 7.730 8.238 0.240 8.531 o
-8 5 -6 12.035 12.238 0.310 3.759 o
-8 5 -5 8.490 9.238 0.260 7.004 o
-8 5 -4 5.136 5.279 0.180 19.140 o
-8 5 -3 39.225 36.733 0.670 0.391 o
-8 5 -2 31.320 30.764 0.770 0.571 o
-8 5 -1 3.302 3.429 0.170 39.456 o
-8 5 0 0.033 0.090 0.060 1183.380 o
-8 5 1 1.224 1.300 0.110 184.451 o
-8 5 2 19.388 18.436 0.550 1.481 o
-8 5 3 1.044 1.140 0.120 189.148 o
-8 5 4 7.813 7.888 0.300 8.119 o
-8 5 5 21.550 20.976 0.620 1.179 o
-8 5 6 0.290 0.400 0.110 333.025 o
-8 5 7 47.054 43.871 1.080 0.264 o
-8 5 8 19.750 18.746 0.610 1.401 o
-8 5 9 11.407 11.258 0.400 3.971 o
-8 5 10 27.996 24.535 0.600 0.780 o
-8 5 11 0.813 0.810 0.100 291.474 o
-8 5 12 49.123 47.820 1.480 0.225 o
-8 5 13 35.689 34.453 1.100 0.425 o
-8 5 14 9.588 9.178 0.360 5.593 o
-8 5 15 4.703 4.779 0.230 20.193 o
-8 5 16 10.001 10.818 0.420 4.615 o
-8 5 17 1.397 1.480 0.150 115.881 o
-8 5 18 0.316 0.150 0.130 246.355 o
-8 5 19 24.685 24.005 0.890 0.848 o
-8 6 -7 107.958 98.280 1.810 0.053 o
-8 6 -6 1.483 1.590 0.130 128.552 o
-8 6 -5 29.894 27.474 0.600 0.671 o
-8 6 -4 1.861 1.990 0.130 100.288 o
-8 6 -3 44.266 42.331 1.000 0.294 o
-8 6 -2 0.158 0.300 0.090 509.834 o
-8 6 -1 13.393 13.457 0.420 2.938 o
-8 6 0 15.607 15.487 0.460 2.211 o
-8 6 1 9.061 9.058 0.320 6.234 o
-8 6 2 4.143 4.039 0.200 26.733 o
-8 6 3 24.941 23.765 0.660 0.906 o
-8 6 4 25.546 24.065 0.660 0.873 o
-8 6 5 32.413 30.264 0.890 0.539 o
-8 6 6 8.212 7.898 0.330 7.423 o
-8 6 7 131.934 120.266 2.949 0.034 o
-8 6 8 1.842 1.890 0.140 96.934 o
-8 6 9 26.684 24.155 0.880 0.774 o
-8 6 10 14.624 14.517 0.610 2.269 o
-8 6 11 0.285 0.380 0.100 399.787 o
-8 6 12 56.790 52.719 1.760 0.171 o
-8 6 13 3.603 4.099 0.210 29.489 o
-8 6 14 8.251 8.498 0.360 6.862 o
-8 6 15 0.809 0.880 0.120 221.446 o
-8 6 16 0.261 0.130 0.110 344.375 o
-8 6 17 0.722 0.750 0.130 206.797 o
-8 6 18 35.103 32.733 1.390 0.415 o
-8 7 -7 38.189 35.933 1.160 0.378 o
-8 7 -6 5.703 5.769 0.250 14.473 o
-8 7 -5 2.087 2.270 0.160 73.259 o
-8 7 -4 10.266 10.168 0.370 4.852 o
-8 7 -3 0.317 0.340 0.100 398.341 o
-8 7 -2 57.603 52.979 1.360 0.177 o
-8 7 -1 14.168 12.917 0.490 2.699 o
-8 7 0 0.063 0.080 0.090 526.545 o
-8 7 1 6.761 6.519 0.280 10.810 o
-8 7 2 8.241 8.048 0.320 7.403 o
-8 7 3 1.890 1.930 0.150 88.677 o
-8 7 4 0.001 0.020 0.080 669.155 o
-8 7 5 13.337 13.517 0.500 2.803 o
-8 7 6 1.088 1.270 0.130 162.866 o
-8 7 7 1.759 1.830 0.130 108.364 o
-8 7 8 3.331 3.639 0.200 34.550 o
-8 7 9 2.770 2.659 0.160 54.352 o
-8 7 10 16.617 15.907 0.580 1.906 o
-8 7 11 38.033 35.003 1.260 0.377 o
-8 7 12 0.580 0.560 0.110 296.600 o
-8 7 13 2.066 2.280 0.160 73.688 o
-8 7 14 1.264 1.370 0.150 124.056 o
-8 7 15 0.494 0.680 0.120 257.972 o
-8 7 16 12.582 12.518 0.560 2.980 o
-8 7 17 0.002 0.000 0.140 218.513 o
-8 8 -7 4.734 4.809 0.220 20.426 o
-8 8 -6 64.216 59.028 1.930 0.136 o
-8 8 -5 1.515 1.410 0.130 131.769 o
-8 8 -4 0.912 1.080 0.120 203.272 o
-8 8 -3 5.087 4.739 0.230 18.711 o
-8 8 -2 2.525 2.539 0.160 60.161 o
-8 8 -1 14.867 14.367 0.570 2.298 o
-8 8 0 5.550 5.389 0.240 15.704 o
-8 8 1 0.285 0.330 0.090 489.977 o
-8 8 2 8.132 7.998 0.350 7.280 o
-8 8 3 2.208 2.090 0.150 76.504 o
-8 8 4 10.833 10.358 0.430 4.298 o
-8 8 5 64.137 58.798 2.050 0.134 o
-8 8 6 22.717 21.626 0.770 1.032 o
-8 8 7 0.577 0.640 0.110 292.441 o
-8 8 8 81.998 74.815 2.579 0.083 o
-8 8 9 1.669 1.760 0.140 106.654 o
-8 8 10 5.616 5.559 0.260 14.733 o
-8 8 11 9.938 9.878 0.400 4.977 o
-8 8 12 3.936 3.639 0.220 27.944 o
-8 8 13 3.920 4.029 0.260 23.919 o
-8 8 14 6.840 7.169 0.360 9.045 o
-8 8 15 0.452 0.640 0.120 262.959 o
-8 9 -7 47.228 43.301 1.440 0.251 o
-8 9 -6 32.359 31.204 1.060 0.510 o
-8 9 -5 8.956 9.098 0.370 5.997 o
-8 9 -4 0.114 0.230 0.110 349.162 o
-8 9 -3 12.728 12.547 0.480 3.119 o
-8 9 -2 1.280 1.510 0.140 130.969 o
-8 9 -1 29.841 27.375 1.000 0.612 o
-8 9 0 3.039 2.859 0.170 46.493 o
-8 9 1 12.245 11.478 0.470 3.441 o
-8 9 2 0.290 0.320 0.100 402.446 o
-8 9 3 0.006 0.060 0.100 428.111 o
-8 9 4 18.175 17.427 0.670 1.565 o
-8 9 5 0.417 0.440 0.120 273.087 o
-8 9 6 21.715 20.596 0.750 1.125 o
-8 9 7 0.638 0.900 0.120 236.048 o
-8 9 8 25.906 23.795 0.840 0.819 o
-8 9 9 5.897 5.709 0.270 13.583 o
-8 9 10 3.007 3.179 0.200 40.069 o
-8 9 11 2.720 2.779 0.200 45.827 o
-8 9 12 0.007 0.010 0.150 190.345 o
-8 9 13 1.203 1.220 0.170 108.966 o
-8 9 14 9.520 8.708 0.430 5.393 o
-8 10 -7 33.362 30.934 1.270 0.468 o
-8 10 -6 5.113 4.769 0.250 17.815 o
-8 10 -5 8.141 8.238 0.360 7.075 o
-8 10 -4 7.765 7.778 0.350 7.754 o
-8 10 -3 0.557 0.630 0.120 254.851 o
-8 10 -2 0.025 0.110 0.120 297.007 o
-8 10 -1 0.079 0.120 0.110 352.174 o
-8 10 0 17.204 15.767 0.680 1.745 o
-8 10 1 5.534 5.329 0.270 14.995 o
-8 10 2 0.273 0.260 0.100 407.343 o
-8 10 3 28.590 26.215 0.980 0.663 o
-8 10 4 42.977 39.832 1.430 0.294 o
-8 10 5 1.194 1.250 0.130 156.458 o
-8 10 6 18.057 16.967 0.650 1.615 o
-8 10 7 9.828 9.358 0.420 5.083 o
-8 10 8 0.000 0.070 0.110 353.839 o
-8 10 9 23.555 21.506 0.910 0.941 o
-8 10 10 0.184 0.340 0.140 214.174 o
-8 10 11 2.951 3.069 0.220 38.215 o
-8 10 12 0.265 0.250 0.160 164.204 o
-8 11 -7 0.240 0.300 0.150 186.354 o
-8 11 -6 16.849 16.037 0.700 1.750 o
-8 11 -5 23.777 21.856 0.920 0.919 o
-8 11 -4 11.860 11.958 0.530 3.325 o
-8 11 -3 0.416 0.590 0.160 157.449 o
-8 11 -2 5.907 5.649 0.320 12.460 o
-8 11 -1 3.655 3.709 0.250 27.005 o
-8 11 0 2.240 2.160 0.200 57.187 o
-8 11 1 12.040 11.758 0.560 3.220 o
-8 11 2 0.272 0.360 0.130 244.068 o
-8 11 3 10.832 10.418 0.510 3.986 o
-8 11 4 0.075 0.190 0.130 252.056 o
-8 11 5 17.307 16.387 0.710 1.671 o
-8 11 6 3.379 3.639 0.230 30.939 o
-8 11 7 43.957 39.782 1.640 0.275 o
-8 11 8 0.519 0.450 0.150 176.589 o
-8 11 9 6.596 6.049 0.330 10.657 o
-8 12 -4 7.605 9.328 0.790 3.892 o
-8 12 -3 5.327 5.079 0.320 14.359 o
-8 12 -2 0.384 0.300 0.180 128.602 o
-8 12 -1 0.292 0.410 0.180 129.072 o
-8 12 0 0.884 1.060 0.200 92.448 o
-8 12 1 0.298 0.310 0.190 116.541 o
-8 12 2 40.876 38.382 1.740 0.296 o
-8 12 3 12.262 11.238 0.520 3.340 o
-8 12 4 5.922 6.959 0.590 6.822 o
-7 0 -5 309.008 291.322 5.819 0.006 o
-7 0 -3 302.729 305.699 6.159 0.006 o
-7 0 -1 675.331 674.915 13.837 0.001 o
-7 0 1 328.189 326.725 6.569 0.005 o
-7 0 3 53.105 47.711 1.080 0.215 o
-7 0 5 55.546 57.039 1.320 0.178 o
-7 0 7 43.757 49.780 1.100 0.266 o
-7 0 9 8.662 7.878 0.270 7.442 o
-7 0 11 34.019 35.163 0.860 0.467 o
-7 0 13 765.234 724.335 14.837 0.001 o
-7 0 15 93.691 90.152 2.280 0.065 o
-7 0 17 11.871 11.128 0.470 3.620 o
-7 0 19 1.716 1.840 0.160 89.997 o
-7 0 21 0.071 0.120 0.160 166.945 o
-7 1 -6 0.054 0.200 0.050 1663.370 o
-7 1 -5 2.250 2.539 0.090 90.506 o
-7 1 -4 21.714 24.755 0.430 1.109 o
-7 1 -3 51.369 57.718 0.880 0.203 o
-7 1 -2 4.022 3.489 0.110 36.495 o
-7 1 -1 102.215 99.930 1.470 0.057 o
-7 1 0 18.651 19.076 0.330 1.632 o
-7 1 1 1.702 1.220 0.060 208.718 o
-7 1 2 36.395 37.362 0.590 0.430 o
-7 1 3 81.242 81.804 1.260 0.088 o
-7 1 4 56.444 55.249 0.870 0.185 o
-7 1 5 24.415 23.345 0.420 0.996 o
-7 1 6 33.784 32.124 0.540 0.525 o
-7 1 7 15.409 15.097 0.290 2.444 o
-7 1 8 26.262 26.545 0.460 0.830 o
-7 1 9 30.804 32.953 0.560 0.580 o
-7 1 10 1.053 1.330 0.070 300.751 o
-7 1 11 6.778 7.059 0.190 11.502 o
-7 1 12 13.883 14.477 0.320 2.828 o
-7 1 13 2.419 2.809 0.120 70.583 o
-7 1 14 53.358 52.180 0.980 0.205 o
-7 1 15 115.994 112.488 2.739 0.042 o
-7 1 16 23.687 23.615 0.620 0.980 o
-7 1 17 56.632 54.609 1.400 0.177 o
-7 1 18 0.376 0.450 0.080 567.878 o
-7 1 19 0.325 0.440 0.090 473.746 o
-7 1 20 10.895 11.578 0.410 4.082 o
-7 1 21 4.468 4.629 0.210 22.576 o
-7 1 22 32.299 31.074 1.150 0.500 o
-7 2 -6 254.671 242.751 3.469 0.009 o
-7 2 -5 105.523 108.218 1.580 0.052 o
-7 2 -4 124.742 122.426 1.780 0.038 o
-7 2 -3 123.250 118.386 1.710 0.040 o
-7 2 -2 285.683 284.113 4.239 0.007 o
-7 2 -1 6.326 6.989 0.180 12.685 o
-7 2 0 0.428 0.570 0.080 534.623 o
-7 2 1 632.658 614.127 9.128 0.001 o
-7 2 2 99.866 104.469 1.630 0.056 o
-7 2 3 0.637 1.130 0.080 390.450 o
-7 2 4 48.529 47.151 0.810 0.250 o
-7 2 5 4.455 4.709 0.170 24.383 o
-7 2 6 43.505 46.691 0.810 0.289 o
-7 2 7 15.125 15.627 0.360 2.386 o
-7 2 8 2.586 3.589 0.130 55.161 o
-7 2 9 0.231 0.350 0.060 1039.330 o
-7 2 10 6.894 7.149 0.200 11.071 o
-7 2 11 45.759 44.351 0.750 0.282 o
-7 2 12 374.228 354.949 5.249 0.004 o
-7 2 13 228.977 217.307 3.589 0.011 o
-7 2 14 49.071 48.340 0.910 0.241 o
-7 2 15 72.673 71.296 1.760 0.106 o
-7 2 16 41.086 39.392 1.010 0.337 o
-7 2 17 2.239 2.639 0.130 75.148 o
-7 2 18 1.144 1.190 0.100 218.888 o
-7 2 19 4.409 4.449 0.180 24.950 o
-7 2 20 0.388 0.390 0.100 386.727 o
-7 2 21 2.332 2.360 0.160 66.255 o
-7 2 22 16.700 20.356 1.110 1.217 o
-7 3 -6 267.380 259.908 3.749 0.008 o
-7 3 -5 1.623 1.760 0.080 163.279 o
-7 3 -4 6.702 7.738 0.190 10.987 o
-7 3 -3 52.331 50.350 0.830 0.217 o
-7 3 -2 25.303 24.715 0.460 0.911 o
-7 3 -1 5.421 6.169 0.170 16.608 o
-7 3 0 7.507 8.568 0.210 8.846 o
-7 3 1 80.365 75.385 1.230 0.094 o
-7 3 2 3.831 4.959 0.150 28.829 o
-7 3 3 2.461 2.479 0.110 77.247 o
-7 3 4 15.774 16.577 0.330 2.206 o
-7 3 5 31.298 30.344 0.550 0.600 o
-7 3 6 2.609 2.559 0.130 66.131 o
-7 3 7 35.692 35.483 0.640 0.453 o
-7 3 8 25.823 26.465 0.500 0.843 o
-7 3 9 7.056 7.219 0.210 10.597 o
-7 3 10 15.097 15.947 0.360 2.361 o
-7 3 11 3.739 4.219 0.170 31.221 o
-7 3 12 5.266 5.519 0.190 17.849 o
-7 3 13 88.826 84.643 1.570 0.075 o
-7 3 14 3.157 3.459 0.150 43.667 o
-7 3 15 1.706 1.710 0.110 130.338 o
-7 3 16 5.861 5.739 0.190 15.441 o
-7 3 17 70.267 66.867 1.610 0.117 o
-7 3 18 87.276 81.924 2.020 0.076 o
-7 3 19 0.021 0.070 0.090 528.103 o
-7 3 20 3.226 3.329 0.170 40.943 o
-7 3 21 27.953 27.415 0.940 0.672 o
-7 4 -6 18.849 19.786 0.400 1.544 o
-7 4 -5 33.721 33.233 0.590 0.512 o
-7 4 -4 197.440 187.533 2.869 0.015 o
-7 4 -3 22.633 21.966 0.430 1.139 o
-7 4 -2 0.036 0.110 0.050 1695.300 o
-7 4 -1 91.989 87.772 1.400 0.071 o
-7 4 0 174.580 166.857 3.439 0.019 o
-7 4 1 3.029 3.339 0.160 44.856 o
-7 4 2 408.481 387.333 7.808 0.004 o
-7 4 3 115.238 112.657 2.460 0.043 o
-7 4 4 0.672 0.620 0.100 328.118 o
-7 4 5 46.175 45.331 1.110 0.264 o
-7 4 6 4.550 4.639 0.170 24.026 o
-7 4 7 0.336 0.640 0.080 551.851 o
-7 4 8 6.112 6.349 0.200 13.687 o
-7 4 9 11.456 11.528 0.290 4.188 o
-7 4 10 69.292 65.787 1.120 0.125 o
-7 4 11 286.894 266.617 4.109 0.007 o
-7 4 12 146.170 138.562 2.479 0.028 o
-7 4 13 1.992 2.220 0.140 85.556 o
-7 4 14 9.908 9.378 0.320 5.514 o
-7 4 15 41.340 40.292 1.180 0.321 o
-7 4 16 51.485 49.030 1.350 0.213 o
-7 4 17 9.885 10.358 0.370 5.008 o
-7 4 18 4.152 4.589 0.190 25.548 o
-7 4 19 5.607 5.579 0.240 15.257 o
-7 4 20 1.873 1.860 0.140 96.302 o
-7 4 21 40.958 37.952 1.350 0.325 o
-7 5 -6 29.323 29.064 0.540 0.671 o
-7 5 -5 53.671 52.730 0.890 0.203 o
-7 5 -4 175.616 165.487 2.589 0.020 o
-7 5 -3 48.134 45.331 0.760 0.260 o
-7 5 -2 5.698 5.859 0.260 14.126 o
-7 5 -1 0.004 0.040 0.050 1711.890 o
-7 5 0 11.539 11.528 0.360 3.976 o
-7 5 1 30.191 30.204 0.750 0.607 o
-7 5 2 2.970 2.799 0.150 51.638 o
-7 5 3 1.439 1.270 0.110 166.580 o
-7 5 4 0.151 0.280 0.090 511.760 o
-7 5 5 1.565 1.790 0.130 118.814 o
-7 5 6 24.355 24.585 0.690 0.906 o
-7 5 7 7.094 7.149 0.290 9.638 o
-7 5 8 17.072 16.617 0.480 1.887 o
-7 5 9 24.146 23.175 0.480 1.003 o
-7 5 10 14.220 14.137 0.380 2.713 o
-7 5 11 36.888 36.043 0.820 0.419 o
-7 5 12 2.351 2.320 0.140 73.085 o
-7 5 13 10.386 10.258 0.390 4.686 o
-7 5 14 0.629 0.680 0.100 330.217 o
-7 5 15 40.608 38.022 1.110 0.343 o
-7 5 16 0.197 0.240 0.100 415.083 o
-7 5 17 12.236 12.248 0.460 3.350 o
-7 5 18 15.239 15.127 0.650 2.071 o
-7 5 19 105.559 97.141 3.929 0.047 o
-7 5 20 0.176 0.260 0.120 291.440 o
-7 6 -6 5.423 5.549 0.190 17.215 o
-7 6 -5 6.155 6.129 0.210 13.677 o
-7 6 -4 11.853 11.438 0.280 4.057 o
-7 6 -3 0.535 0.650 0.100 347.033 o
-7 6 -2 186.928 172.705 3.649 0.017 o
-7 6 -1 12.659 12.537 0.390 3.330 o
-7 6 0 78.340 73.225 1.600 0.096 o
-7 6 1 61.422 59.198 1.330 0.153 o
-7 6 2 11.175 11.468 0.390 4.052 o
-7 6 3 146.183 136.513 2.919 0.028 o
-7 6 4 44.981 43.751 1.070 0.280 o
-7 6 5 51.884 49.100 1.190 0.215 o
-7 6 6 2.394 2.609 0.160 62.166 o
-7 6 7 0.329 0.330 0.090 482.647 o
-7 6 8 8.723 8.498 0.340 6.607 o
-7 6 9 110.994 102.260 2.430 0.048 o
-7 6 10 143.646 131.514 3.099 0.029 o
-7 6 11 109.672 100.330 3.049 0.048 o
-7 6 12 0.671 0.790 0.110 272.809 o
-7 6 13 10.105 9.538 0.360 5.161 o
-7 6 14 5.096 5.449 0.250 16.725 o
-7 6 15 0.014 0.080 0.100 427.892 o
-7 6 16 27.864 26.975 0.860 0.696 o
-7 6 17 38.024 35.523 1.490 0.355 o
-7 6 18 0.019 0.130 0.130 253.089 o
-7 6 19 0.015 0.060 0.130 253.328 o
-7 7 -6 8.342 8.418 0.310 7.202 o
-7 7 -5 74.432 66.587 1.280 0.112 o
-7 7 -4 130.675 119.986 2.529 0.035 o
-7 7 -3 66.181 60.558 1.370 0.137 o
-7 7 -2 0.981 0.930 0.120 203.780 o
-7 7 -1 37.675 34.903 0.860 0.413 o
-7 7 0 15.180 14.707 0.450 2.367 o
-7 7 1 2.719 2.599 0.150 58.179 o
-7 7 2 2.472 2.679 0.150 62.537 o
-7 7 3 0.010 0.090 0.080 668.183 o
-7 7 4 1.505 1.680 0.130 124.860 o
-7 7 5 0.098 0.060 0.060 1172.720 o
-7 7 6 4.971 5.049 0.250 17.821 o
-7 7 7 18.329 18.286 0.620 1.544 o
-7 7 8 14.999 14.427 0.500 2.364 o
-7 7 9 12.646 12.208 0.490 3.166 o
-7 7 10 28.973 27.854 0.970 0.633 o
-7 7 11 0.360 0.380 0.100 390.916 o
-7 7 12 2.183 1.940 0.160 75.043 o
-7 7 13 31.968 28.844 1.000 0.548 o
-7 7 14 0.072 0.030 0.100 427.260 o
-7 7 15 0.622 0.670 0.110 285.601 o
-7 7 16 13.139 12.668 0.570 2.808 o
-7 7 17 11.889 11.368 0.520 3.432 o
-7 7 18 16.040 15.597 0.690 1.883 o
-7 8 -6 7.467 7.249 0.300 8.935 o
-7 8 -5 2.865 2.869 0.170 48.992 o
-7 8 -4 65.880 59.878 1.510 0.137 o
-7 8 -3 25.234 24.015 0.700 0.878 o
-7 8 -2 0.301 0.410 0.110 331.773 o
-7 8 -1 106.082 96.971 2.350 0.053 o
-7 8 0 0.728 0.860 0.110 262.007 o
-7 8 1 24.908 22.706 0.710 0.918 o
-7 8 2 11.019 10.928 0.410 4.166 o
-7 8 3 0.645 0.630 0.110 285.183 o
-7 8 4 2.311 2.420 0.170 62.862 o
-7 8 5 58.905 54.269 1.500 0.167 o
-7 8 6 15.988 15.477 0.570 2.033 o
-7 8 7 27.459 26.375 0.960 0.696 o
-7 8 8 56.248 51.610 1.800 0.174 o
-7 8 9 134.039 120.036 3.909 0.032 o
-7 8 10 34.375 31.924 1.150 0.458 o
-7 8 11 0.090 0.250 0.110 349.714 o
-7 8 12 15.950 15.217 0.570 2.058 o
-7 8 13 1.357 1.530 0.150 116.555 o
-7 8 14 0.394 0.500 0.130 235.150 o
-7 8 15 3.849 4.229 0.230 25.886 o
-7 8 16 5.628 5.719 0.300 13.467 o
-7 8 17 16.087 15.177 0.680 1.915 o
-7 9 -6 22.692 21.026 0.740 1.061 o
-7 9 -5 35.006 32.923 1.110 0.445 o
-7 9 -4 19.361 18.556 0.660 1.413 o
-7 9 -3 19.241 17.716 0.640 1.472 o
-7 9 -2 85.100 78.854 2.549 0.077 o
-7 9 -1 13.512 12.827 0.510 2.824 o
-7 9 0 0.612 0.600 0.100 338.999 o
-7 9 1 0.444 0.550 0.100 367.998 o
-7 9 2 1.051 1.200 0.120 186.005 o
-7 9 3 0.398 0.510 0.110 318.472 o
-7 9 4 0.157 0.250 0.100 417.792 o
-7 9 5 0.026 0.040 0.110 353.758 o
-7 9 6 4.629 4.889 0.240 19.831 o
-7 9 7 17.425 16.937 0.640 1.692 o
-7 9 8 7.102 7.019 0.300 9.595 o
-7 9 9 15.617 14.787 0.550 2.165 o
-7 9 10 0.003 0.100 0.100 427.899 o
-7 9 11 1.254 1.290 0.140 138.095 o
-7 9 12 17.915 16.557 0.780 1.541 o
-7 9 13 0.988 0.910 0.160 133.044 o
-7 9 14 11.155 11.158 0.510 3.736 o
-7 9 15 6.445 6.489 0.310 10.892 o
-7 10 -6 7.893 8.228 0.350 7.399 o
-7 10 -5 59.953 54.499 1.800 0.157 o
-7 10 -4 0.009 0.130 0.120 297.063 o
-7 10 -3 30.380 27.135 0.940 0.612 o
-7 10 -2 3.721 3.809 0.210 29.689 o
-7 10 -1 1.212 1.380 0.150 126.173 o
-7 10 0 24.494 23.075 0.860 0.883 o
-7 10 1 1.718 1.800 0.150 96.936 o
-7 10 2 3.697 3.719 0.210 30.194 o
-7 10 3 7.023 6.649 0.320 9.706 o
-7 10 4 1.364 1.430 0.130 140.064 o
-7 10 5 3.893 3.809 0.210 28.458 o
-7 10 6 0.302 0.410 0.110 331.646 o
-7 10 7 104.539 93.391 3.209 0.052 o
-7 10 8 43.959 40.612 1.370 0.287 o
-7 10 9 24.602 23.725 0.990 0.825 o
-7 10 10 6.351 6.129 0.320 11.182 o
-7 10 11 2.651 2.729 0.200 47.039 o
-7 10 12 0.001 0.140 0.140 218.333 o
-7 10 13 4.045 4.209 0.260 22.868 o
-7 11 -6 0.257 0.420 0.140 211.088 o
-7 11 -5 0.207 0.310 0.130 247.337 o
-7 11 -4 4.186 4.559 0.260 21.422 o
-7 11 -3 27.184 25.405 0.960 0.719 o
-7 11 -2 28.612 26.015 0.970 0.667 o
-7 11 -1 9.837 9.518 0.430 4.984 o
-7 11 0 0.159 0.220 0.130 250.045 o
-7 11 1 0.876 0.860 0.130 192.048 o
-7 11 2 0.008 -0.050 0.130 253.420 o
-7 11 3 0.000 0.060 0.120 297.360 o
-7 11 4 0.000 0.030 0.110 353.933 o
-7 11 5 6.409 7.009 0.340 10.039 o
-7 11 6 8.486 8.178 0.380 6.641 o
-7 11 7 1.286 1.500 0.150 120.226 o
-7 11 8 14.657 13.587 0.590 2.373 o
-7 11 9 0.128 0.230 0.140 216.441 o
-7 11 10 0.075 0.100 0.140 217.963 o
-7 11 11 2.352 2.290 0.220 49.171 o
-7 12 -6 10.896 10.338 0.490 4.052 o
-7 12 -5 7.049 7.668 0.390 8.127 o
-7 12 -4 17.179 16.287 0.770 1.633 o
-7 12 -3 2.466 2.869 0.240 40.495 o
-7 12 -2 3.967 3.799 0.290 22.185 o
-7 12 -1 0.047 0.090 0.160 167.122 o
-7 12 0 1.650 1.700 0.200 71.648 o
-7 12 1 1.041 1.150 0.200 88.745 o
-7 12 2 12.993 12.338 0.600 2.814 o
-7 12 3 0.702 0.870 0.150 161.069 o
-7 12 4 0.073 0.140 0.150 189.806 o
-7 12 5 10.596 10.028 0.460 4.358 o
-7 12 6 22.517 20.746 0.880 1.020 o
-7 12 7 49.636 44.431 1.840 0.217 o
-7 12 8 0.002 2.370 0.570 13.004 o
-6 0 -4 0.133 0.250 0.130 250.313 o
-6 0 -2 5.951 5.059 0.180 16.471 o
-6 0 0 502.145 480.734 9.908 0.002 o
-6 0 2 632.886 671.506 15.027 0.001 o
-6 0 4 3414.010 3383.080 84.243 0.000 o
-6 0 6 214.670 208.558 4.219 0.013 o
-6 0 8 54.918 47.820 1.050 0.206 o
-6 0 10 37.716 35.773 0.850 0.408 o
-6 0 12 128.000 126.175 2.689 0.035 o
-6 0 14 279.739 268.886 5.589 0.007 o
-6 0 16 3.215 3.799 0.200 34.881 o
-6 0 18 136.681 127.764 4.419 0.029 o
-6 0 20 0.813 0.910 0.130 194.771 o
-6 0 22 34.994 33.343 1.540 0.396 o
-6 1 -5 65.980 68.516 1.030 0.130 o
-6 1 -4 6.835 6.089 0.150 12.921 o
-6 1 -3 2.751 2.370 0.080 77.268 o
-6 1 -2 85.959 90.832 1.320 0.076 o
-6 1 -1 12.128 12.738 0.250 3.739 o
-6 1 0 100.895 106.749 1.550 0.055 o
-6 1 1 103.008 106.639 1.550 0.054 o
-6 1 2 147.814 154.359 2.220 0.026 o
-6 1 3 5.205 6.309 0.160 17.354 o
-6 1 4 27.192 30.674 0.530 0.713 o
-6 1 5 79.987 86.863 1.320 0.086 o
-6 1 6 24.102 27.175 0.460 0.910 o
-6 1 7 71.610 72.775 1.090 0.112 o
-6 1 8 14.039 15.117 0.280 2.755 o
-6 1 9 71.784 71.066 1.090 0.114 o
-6 1 10 93.342 91.862 1.420 0.068 o
-6 1 11 33.035 34.173 0.590 0.516 o
-6 1 12 40.697 40.762 0.720 0.347 o
-6 1 13 60.986 60.158 0.970 0.158 o
-6 1 14 185.989 175.035 2.659 0.018 o
-6 1 15 58.272 56.599 1.060 0.172 o
-6 1 16 6.824 7.239 0.220 10.882 o
-6 1 17 12.966 13.017 0.370 3.203 o
-6 1 18 36.447 36.153 0.930 0.417 o
-6 1 19 0.112 0.170 0.070 852.696 o
-6 1 20 34.373 33.553 0.880 0.473 o
-6 1 21 0.010 0.060 0.090 528.417 o
-6 1 22 35.806 34.783 1.140 0.418 o
-6 1 23 8.743 11.888 0.770 3.358 o
-6 2 -5 16.323 17.037 0.310 2.090 o
-6 2 -4 2.039 2.589 0.090 98.941 o
-6 2 -3 27.441 24.895 0.420 0.822 o
-6 2 -2 199.410 199.570 2.839 0.015 o
-6 2 -1 25.670 25.695 0.430 0.878 o
-6 2 0 23.288 28.604 0.470 0.913 o
-6 2 1 250.212 252.809 3.699 0.009 o
-6 2 2 323.855 313.197 4.659 0.006 o
-6 2 3 1407.800 1414.020 23.325 0.000 o
-6 2 4 245.303 240.942 3.669 0.010 o
-6 2 5 219.608 222.875 3.409 0.012 o
-6 2 6 921.956 881.704 13.937 0.001 o
-6 2 7 64.258 67.487 1.040 0.136 o
-6 2 8 2.357 3.419 0.110 66.463 o
-6 2 9 22.360 20.366 0.380 1.225 o
-6 2 10 21.381 22.305 0.410 1.217 o
-6 2 11 65.925 63.737 1.020 0.137 o
-6 2 12 0.011 0.060 0.050 1709.420 o
-6 2 13 196.258 189.182 2.899 0.016 o
-6 2 14 37.406 36.323 0.730 0.416 o
-6 2 15 118.740 112.428 1.990 0.042 o
-6 2 16 3.708 3.929 0.150 34.447 o
-6 2 17 50.224 48.410 1.240 0.225 o
-6 2 18 34.072 32.833 0.880 0.484 o
-6 2 19 17.964 17.996 0.540 1.652 o
-6 2 20 0.734 0.890 0.100 297.376 o
-6 2 21 13.119 12.617 0.460 3.046 o
-6 2 22 5.285 5.319 0.240 16.642 o
-6 3 -5 96.843 98.000 1.450 0.062 o
-6 3 -4 29.895 31.744 0.530 0.620 o
-6 3 -3 66.357 70.046 1.050 0.127 o
-6 3 -2 92.580 90.502 1.370 0.069 o
-6 3 -1 14.522 15.237 0.290 2.618 o
-6 3 0 34.310 33.793 0.560 0.497 o
-6 3 1 323.135 322.236 4.939 0.006 o
-6 3 2 0.634 1.160 0.070 447.928 o
-6 3 3 19.122 20.146 0.380 1.507 o
-6 3 4 6.224 7.189 0.190 12.553 o
-6 3 5 1.338 1.390 0.090 202.227 o
-6 3 6 30.904 31.604 0.570 0.592 o
-6 3 7 45.532 46.521 0.790 0.274 o
-6 3 8 167.416 160.548 2.479 0.021 o
-6 3 9 18.261 18.976 0.390 1.654 o
-6 3 10 8.241 8.448 0.230 7.862 o
-6 3 11 53.845 52.760 0.850 0.203 o
-6 3 12 173.316 165.437 2.510 0.020 o
-6 3 13 0.163 0.380 0.070 808.900 o
-6 3 14 0.288 0.480 0.060 955.855 o
-6 3 15 8.576 8.758 0.250 7.213 o
-6 3 16 134.798 126.695 3.079 0.032 o
-6 3 17 0.022 0.100 0.070 871.159 o
-6 3 18 6.765 7.229 0.250 10.616 o
-6 3 19 1.779 2.000 0.120 110.267 o
-6 3 20 30.594 29.504 0.990 0.572 o
-6 3 21 0.067 0.100 0.100 426.425 o
-6 3 22 4.504 4.739 0.230 21.158 o
-6 4 -5 28.951 31.614 0.550 0.645 o
-6 4 -4 139.906 135.263 2.070 0.030 o
-6 4 -3 98.151 95.671 1.450 0.062 o
-6 4 -2 1.717 1.640 0.080 159.972 o
-6 4 -1 89.054 91.292 1.530 0.072 o
-6 4 0 35.034 34.703 0.810 0.458 o
-6 4 1 198.948 196.681 4.009 0.014 o
-6 4 2 519.949 493.971 9.908 0.002 o
-6 4 3 66.640 66.357 1.490 0.127 o
-6 4 4 9.905 8.898 0.310 5.724 o
-6 4 5 65.503 62.318 1.410 0.136 o
-6 4 6 101.729 94.641 1.580 0.059 o
-6 4 7 562.132 540.552 8.478 0.002 o
-6 4 8 161.895 155.719 2.410 0.023 o
-6 4 9 8.646 9.608 0.250 6.744 o
-6 4 10 32.355 30.814 0.570 0.568 o
-6 4 11 7.917 8.378 0.250 8.137 o
-6 4 12 96.741 91.692 1.500 0.064 o
-6 4 13 21.728 21.676 0.520 1.181 o
-6 4 14 117.776 111.348 2.040 0.043 o
-6 4 15 79.573 75.955 2.040 0.089 o
-6 4 16 0.488 0.680 0.090 417.054 o
-6 4 17 55.042 52.459 1.320 0.189 o
-6 4 18 2.774 3.089 0.140 54.472 o
-6 4 19 10.770 10.938 0.350 4.474 o
-6 4 20 0.033 0.040 0.090 528.176 o
-6 4 21 11.551 11.588 0.450 3.709 o
-6 4 22 0.010 4.429 0.830 6.079 o
-6 5 -5 45.048 43.491 0.770 0.291 o
-6 5 -4 5.107 5.799 0.170 18.478 o
-6 5 -3 97.442 94.761 1.500 0.062 o
-6 5 -2 31.627 31.164 0.780 0.559 o
-6 5 -1 128.306 120.606 2.529 0.036 o
-6 5 0 78.083 76.355 1.660 0.094 o
-6 5 1 18.638 19.476 0.540 1.508 o
-6 5 2 85.902 84.643 1.810 0.077 o
-6 5 3 11.473 11.068 0.360 4.098 o
-6 5 4 10.452 10.318 0.350 4.792 o
-6 5 5 1.899 1.730 0.130 104.277 o
-6 5 6 51.305 50.560 1.230 0.213 o
-6 5 7 15.281 15.237 0.460 2.289 o
-6 5 8 4.385 4.939 0.170 24.112 o
-6 5 9 9.417 9.808 0.280 5.887 o
-6 5 10 275.535 254.289 3.979 0.008 o
-6 5 11 1.124 1.300 0.110 194.135 o
-6 5 12 0.122 0.240 0.080 650.430 o
-6 5 13 0.840 1.030 0.120 211.920 o
-6 5 14 31.974 31.824 0.870 0.534 o
-6 5 15 5.298 5.429 0.220 17.023 o
-6 5 16 36.851 35.743 1.060 0.404 o
-6 5 17 13.488 13.557 0.480 2.798 o
-6 5 18 32.957 31.604 0.860 0.518 o
-6 5 19 6.062 6.219 0.260 12.829 o
-6 5 20 8.278 8.318 0.330 7.156 o
-6 5 21 6.527 6.539 0.280 11.207 o
-6 6 -5 0.770 0.930 0.090 331.385 o
-6 6 -4 116.481 110.098 1.760 0.045 o
-6 6 -3 45.117 44.731 1.010 0.277 o
-6 6 -2 1.056 0.920 0.100 247.889 o
-6 6 -1 64.825 60.898 1.340 0.140 o
-6 6 0 150.633 144.301 3.229 0.026 o
-6 6 1 43.021 41.322 0.960 0.311 o
-6 6 2 187.705 177.475 3.719 0.017 o
-6 6 3 27.468 26.095 0.680 0.757 o
-6 6 4 3.909 4.309 0.200 27.390 o
-6 6 5 5.240 5.069 0.220 17.867 o
-6 6 6 8.497 8.968 0.350 6.530 o
-6 6 7 2.746 2.619 0.160 55.155 o
-6 6 8 313.533 283.373 5.969 0.006 o
-6 6 9 68.520 61.978 1.130 0.131 o
-6 6 10 2.248 2.190 0.120 86.047 o
-6 6 11 44.073 41.342 0.880 0.305 o
-6 6 12 1.026 1.100 0.110 214.598 o
-6 6 13 80.812 75.335 2.290 0.086 o
-6 6 14 79.774 74.195 2.020 0.091 o
-6 6 15 0.047 0.070 0.080 666.999 o
-6 6 16 4.664 5.079 0.240 19.305 o
-6 6 17 18.837 18.606 0.620 1.482 o
-6 6 18 44.391 41.902 1.900 0.250 o
-6 6 19 0.532 0.570 0.130 225.288 o
-6 6 20 1.966 2.050 0.160 79.430 o
-6 7 -5 14.831 14.807 0.330 2.559 o
-6 7 -4 5.169 5.149 0.180 19.276 o
-6 7 -3 3.352 3.679 0.190 35.274 o
-6 7 -2 195.298 178.264 3.669 0.016 o
-6 7 -1 37.766 36.073 0.870 0.404 o
-6 7 0 0.097 0.110 0.070 861.219 o
-6 7 1 10.742 10.748 0.350 4.534 o
-6 7 2 0.068 0.110 0.070 865.564 o
-6 7 3 27.466 26.575 0.720 0.742 o
-6 7 4 40.955 37.992 0.960 0.348 o
-6 7 5 3.123 2.979 0.180 42.939 o
-6 7 6 0.288 0.210 0.080 621.676 o
-6 7 7 0.550 0.630 0.100 346.350 o
-6 7 8 88.242 81.634 1.990 0.076 o
-6 7 9 70.608 66.017 1.630 0.117 o
-6 7 10 0.573 0.560 0.100 348.116 o
-6 7 11 33.635 31.944 1.010 0.486 o
-6 7 12 57.179 53.019 1.630 0.173 o
-6 7 13 3.002 3.279 0.190 41.063 o
-6 7 14 3.919 4.239 0.210 26.846 o
-6 7 15 2.170 2.400 0.160 69.592 o
-6 7 16 10.260 10.528 0.410 4.601 o
-6 7 17 0.704 1.000 0.130 199.288 o
-6 7 18 42.407 40.732 1.700 0.279 o
-6 7 19 1.574 1.630 0.180 84.880 o
-6 8 -5 0.215 0.190 0.090 509.638 o
-6 8 -4 10.313 9.938 0.360 4.930 o
-6 8 -3 9.672 9.188 0.320 5.736 o
-6 8 -2 89.537 82.493 1.840 0.074 o
-6 8 -1 17.250 16.197 0.480 1.892 o
-6 8 0 53.094 49.570 1.150 0.209 o
-6 8 1 99.290 89.762 2.020 0.061 o
-6 8 2 46.581 44.461 1.090 0.265 o
-6 8 3 58.128 53.359 1.270 0.176 o
-6 8 4 0.073 0.090 0.080 664.641 o
-6 8 5 9.861 9.358 0.360 5.362 o
-6 8 6 9.971 9.628 0.350 5.259 o
-6 8 7 7.860 7.928 0.320 7.860 o
-6 8 8 16.139 14.847 0.490 2.144 o
-6 8 9 66.193 59.598 2.070 0.128 o
-6 8 10 21.656 20.806 0.740 1.127 o
-6 8 11 12.133 12.008 0.460 3.419 o
-6 8 12 65.506 60.338 2.010 0.130 o
-6 8 13 45.955 44.201 1.490 0.254 o
-6 8 14 0.755 0.920 0.130 198.538 o
-6 8 15 0.410 0.430 0.120 273.875 o
-6 8 16 7.581 7.888 0.380 7.583 o
-6 8 17 10.865 10.628 0.490 4.008 o
-6 8 18 24.328 22.506 0.970 0.866 o
-6 9 -5 5.321 5.329 0.250 16.203 o
-6 9 -4 16.926 16.757 0.610 1.785 o
-6 9 -3 28.445 26.115 0.760 0.710 o
-6 9 -2 109.149 99.760 2.430 0.050 o
-6 9 -1 16.681 15.737 0.510 1.976 o
-6 9 0 2.089 2.050 0.140 85.171 o
-6 9 1 0.201 0.210 0.090 510.034 o
-6 9 2 1.349 1.390 0.130 142.207 o
-6 9 3 2.586 2.549 0.160 58.858 o
-6 9 4 3.192 3.229 0.190 39.205 o
-6 9 5 11.838 11.338 0.470 3.596 o
-6 9 6 41.864 38.912 1.320 0.314 o
-6 9 7 48.706 43.981 1.550 0.235 o
-6 9 8 12.393 12.277 0.550 3.082 o
-6 9 9 7.511 6.979 0.300 9.055 o
-6 9 10 0.893 0.950 0.120 210.760 o
-6 9 11 9.600 9.178 0.410 5.318 o
-6 9 12 15.180 14.937 0.570 2.198 o
-6 9 13 12.034 11.568 0.470 3.494 o
-6 9 14 24.108 22.555 0.960 0.877 o
-6 9 15 3.796 3.879 0.230 27.277 o
-6 9 16 0.155 0.130 0.130 251.155 o
-6 10 -5 0.302 0.380 0.110 332.908 o
-6 10 -4 9.965 9.888 0.400 4.960 o
-6 10 -3 0.011 0.100 0.090 527.967 o
-6 10 -2 49.892 44.561 1.490 0.229 o
-6 10 -1 17.830 17.197 0.720 1.569 o
-6 10 0 84.239 76.465 2.659 0.079 o
-6 10 1 0.744 0.970 0.110 253.773 o
-6 10 2 22.548 20.556 0.780 1.066 o
-6 10 3 0.000 0.030 0.100 428.254 o
-6 10 4 68.382 62.377 2.210 0.118 o
-6 10 5 0.405 0.630 0.110 311.704 o
-6 10 6 0.001 -0.020 0.090 528.747 o
-6 10 7 8.961 9.158 0.370 5.972 o
-6 10 8 0.338 0.390 0.110 329.487 o
-6 10 9 11.349 10.708 0.430 4.010 o
-6 10 10 21.450 19.676 0.720 1.184 o
-6 10 11 0.908 0.960 0.180 111.253 o
-6 10 12 69.079 64.537 2.669 0.108 o
-6 10 13 0.041 0.060 0.140 218.333 o
-6 10 14 0.000 0.030 0.120 297.405 o
-6 10 15 0.887 1.070 0.620 10.959 o
-6 11 -5 1.777 1.950 0.190 71.291 o
-6 11 -4 50.775 47.511 1.590 0.213 o
-6 11 -3 16.733 16.457 0.620 1.817 o
-6 11 -2 0.025 0.150 0.110 353.037 o
-6 11 -1 28.895 27.834 1.030 0.624 o
-6 11 0 9.499 9.428 0.420 5.250 o
-6 11 1 0.006 -0.030 0.110 353.951 o
-6 11 2 0.008 0.040 0.110 353.882 o
-6 11 3 0.050 0.040 0.110 353.502 o
-6 11 4 0.287 0.370 0.120 283.546 o
-6 11 5 17.635 16.917 0.660 1.653 o
-6 11 6 33.366 31.134 1.130 0.484 o
-6 11 7 3.408 3.509 0.210 33.336 o
-6 11 8 0.279 0.330 0.130 244.401 o
-6 11 9 2.003 2.040 0.180 69.844 o
-6 11 10 5.397 5.009 0.280 15.518 o
-6 11 11 0.747 0.740 0.160 144.944 o
-6 11 12 1.765 1.990 0.200 66.799 o
-6 12 -5 0.688 0.920 0.170 129.499 o
-6 12 -4 2.630 2.749 0.230 41.314 o
-6 12 -3 7.530 7.778 0.410 7.374 o
-6 12 -2 52.294 48.060 2.340 0.179 o
-6 12 -1 1.076 1.180 0.180 103.993 o
-6 12 0 0.367 0.580 0.160 158.823 o
-6 12 1 14.070 13.637 0.650 2.375 o
-6 12 2 20.690 20.536 0.980 1.072 o
-6 12 3 14.020 13.047 0.580 2.561 o
-6 12 4 0.060 0.130 0.130 252.689 o
-6 12 5 3.514 3.639 0.230 29.962 o
-6 12 6 26.502 25.545 1.080 0.708 o
-6 12 7 0.463 0.530 0.150 177.136 o
-6 12 8 6.522 6.469 0.340 10.274 o
-6 12 9 1.381 1.550 0.190 84.293 o
-6 12 10 31.006 27.185 3.039 0.276 o
-6 13 -4 9.760 9.718 0.750 3.457 o
-6 13 -3 3.143 3.569 0.280 27.586 o
-6 13 -2 3.818 4.029 0.300 21.667 o
-6 13 -1 0.018 0.160 0.190 118.539 o
-6 13 0 10.024 9.798 0.510 4.438 o
-6 13 1 2.017 2.250 0.270 41.124 o
-6 13 2 0.225 0.390 0.210 95.900 o
-6 13 3 2.165 2.360 0.200 56.799 o
-6 13 4 7.734 6.709 0.560 6.094 o
-5 0 -3 51.026 55.649 1.160 0.204 o
-5 0 -1 717.830 706.729 16.367 0.001 o
-5 0 1 101.562 111.458 2.280 0.051 o
-5 0 3 1550.630 1561.730 36.533 0.000 o
-5 0 5 452.491 465.617 9.518 0.003 o
-5 0 7 9.195 7.838 0.270 6.939 o
-5 0 9 604.630 590.832 13.057 0.002 o
-5 0 11 60.276 56.719 1.310 0.161 o
-5 0 13 111.975 108.168 2.410 0.046 o
-5 0 15 5.917 6.279 0.260 13.090 o
-5 0 17 139.295 134.583 4.709 0.027 o
-5 0 19 58.606 57.209 2.010 0.152 o
-5 0 21 0.457 0.470 0.130 232.543 o
-5 0 23 33.505 31.054 1.440 0.442 o
-5 1 -4 28.148 29.264 0.470 0.712 o
-5 1 -3 51.615 44.641 0.680 0.241 o
-5 1 -2 0.427 0.520 0.040 1384.410 o
-5 1 -1 80.462 76.925 1.130 0.093 o
-5 1 0 46.952 44.031 0.660 0.276 o
-5 1 1 193.172 181.854 2.589 0.016 o
-5 1 2 51.914 56.639 0.850 0.203 o
-5 1 3 1185.000 1174.280 19.706 0.000 o
-5 1 4 23.280 25.845 0.430 0.988 o
-5 1 5 254.081 254.569 3.669 0.009 o
-5 1 6 62.944 67.266 1.020 0.140 o
-5 1 7 0.422 1.060 0.060 661.981 o
-5 1 8 0.019 0.060 0.030 4719.410 o
-5 1 9 12.243 12.408 0.270 3.724 o
-5 1 10 3.881 4.929 0.150 28.562 o
-5 1 11 5.466 6.189 0.170 16.419 o
-5 1 12 12.048 13.097 0.290 3.634 o
-5 1 13 41.227 39.732 0.680 0.349 o
-5 1 14 27.601 27.605 0.510 0.753 o
-5 1 15 30.894 29.704 0.550 0.618 o
-5 1 16 13.429 13.487 0.330 3.066 o
-5 1 17 13.518 13.227 0.380 3.001 o
-5 1 18 8.865 9.098 0.270 6.667 o
-5 1 19 9.098 9.248 0.280 6.351 o
-5 1 20 2.675 2.889 0.130 60.642 o
-5 1 21 8.620 8.818 0.290 6.892 o
-5 1 22 0.756 0.830 0.110 260.487 o
-5 1 23 8.217 7.858 0.310 7.606 o
-5 2 -4 195.488 199.460 2.839 0.015 o
-5 2 -3 1269.150 1252.110 20.166 0.000 o
-5 2 -2 0.059 0.080 0.030 4600.280 o
-5 2 -1 0.490 0.610 0.040 1189.960 o
-5 2 0 111.234 115.717 1.660 0.046 o
-5 2 1 354.551 356.549 5.219 0.005 o
-5 2 2 448.306 461.818 7.059 0.003 o
-5 2 3 72.707 76.065 1.150 0.107 o
-5 2 4 726.527 742.512 11.818 0.001 o
-5 2 5 0.973 1.640 0.060 310.913 o
-5 2 6 191.216 187.932 2.769 0.016 o
-5 2 7 13.557 13.117 0.260 3.176 o
-5 2 8 158.620 161.688 2.350 0.023 o
-5 2 9 170.977 166.687 2.510 0.020 o
-5 2 10 42.579 43.661 0.730 0.313 o
-5 2 11 67.326 64.137 1.020 0.133 o
-5 2 12 93.971 91.012 1.420 0.067 o
-5 2 13 21.793 21.916 0.420 1.199 o
-5 2 14 34.216 32.893 0.600 0.505 o
-5 2 15 25.377 24.495 0.540 0.897 o
-5 2 16 46.560 45.861 0.910 0.266 o
-5 2 17 21.822 21.696 0.580 1.153 o
-5 2 18 0.207 0.290 0.070 809.436 o
-5 2 19 92.910 88.332 2.120 0.067 o
-5 2 20 34.566 34.373 0.900 0.461 o
-5 2 21 9.780 9.568 0.320 5.535 o
-5 2 22 8.584 8.298 0.300 7.100 o
-5 2 23 0.008 0.020 0.120 297.399 o
-5 3 -4 77.064 81.584 1.210 0.094 o
-5 3 -3 17.968 17.567 0.310 1.814 o
-5 3 -2 11.392 13.967 0.260 3.769 o
-5 3 -1 0.433 0.520 0.040 1372.000 o
-5 3 0 181.938 179.524 2.689 0.018 o
-5 3 1 199.091 203.379 4.029 0.014 o
-5 3 2 261.284 265.307 5.149 0.008 o
-5 3 3 201.550 193.671 2.899 0.015 o
-5 3 4 167.502 169.006 2.510 0.021 o
-5 3 5 88.350 86.123 1.350 0.076 o
-5 3 6 198.196 198.950 2.969 0.015 o
-5 3 7 86.901 85.383 1.320 0.078 o
-5 3 8 3.340 3.689 0.120 43.046 o
-5 3 9 6.340 7.538 0.190 11.912 o
-5 3 10 29.456 29.674 0.530 0.660 o
-5 3 11 2.833 2.719 0.100 65.251 o
-5 3 12 62.598 60.678 0.970 0.151 o
-5 3 13 109.630 104.019 1.580 0.050 o
-5 3 14 25.058 24.345 0.480 0.927 o
-5 3 15 2.719 2.579 0.110 68.020 o
-5 3 16 33.367 31.714 0.650 0.529 o
-5 3 17 24.877 24.075 0.640 0.907 o
-5 3 18 14.437 14.177 0.390 2.646 o
-5 3 19 1.950 2.190 0.110 103.339 o
-5 3 20 8.324 8.528 0.270 7.455 o
-5 3 21 1.444 1.800 0.120 134.732 o
-5 3 22 28.295 26.595 0.910 0.679 o
-5 3 23 0.005 1.410 0.300 46.758 o
-5 4 -4 198.451 196.451 2.899 0.015 o
-5 4 -3 115.202 115.667 1.710 0.044 o
-5 4 -2 575.118 559.018 8.588 0.002 o
-5 4 -1 349.253 342.851 7.339 0.005 o
-5 4 0 116.051 112.597 2.330 0.043 o
-5 4 1 210.106 215.707 4.369 0.013 o
-5 4 2 7.993 8.698 0.290 7.564 o
-5 4 3 80.933 82.833 1.810 0.085 o
-5 4 4 53.747 54.819 1.240 0.191 o
-5 4 5 395.016 377.794 5.949 0.004 o
-5 4 6 38.485 37.523 0.640 0.397 o
-5 4 7 3.994 4.329 0.140 30.665 o
-5 4 8 166.316 160.198 2.479 0.022 o
-5 4 9 1.509 1.390 0.090 182.488 o
-5 4 10 14.620 14.997 0.340 2.574 o
-5 4 11 1.573 1.720 0.100 149.040 o
-5 4 12 124.897 119.356 1.860 0.038 o
-5 4 13 24.693 23.345 0.480 0.970 o
-5 4 14 0.357 0.460 0.070 715.073 o
-5 4 15 85.200 79.194 1.410 0.084 o
-5 4 16 2.082 2.539 0.110 89.878 o
-5 4 17 14.872 14.107 0.390 2.559 o
-5 4 18 7.610 7.459 0.260 9.025 o
-5 4 19 2.621 2.839 0.130 62.442 o
-5 4 20 113.703 107.768 3.229 0.043 o
-5 4 21 19.399 19.426 0.610 1.402 o
-5 4 22 0.762 0.930 0.130 197.689 o
-5 5 -4 18.080 17.986 0.340 1.758 o
-5 5 -3 151.201 145.381 2.250 0.026 o
-5 5 -2 20.944 21.226 0.380 1.299 o
-5 5 -1 75.285 75.045 1.600 0.100 o
-5 5 0 212.576 205.879 4.189 0.013 o
-5 5 1 125.615 119.636 2.510 0.037 o
-5 5 2 12.276 12.477 0.380 3.484 o
-5 5 3 16.112 16.177 0.460 2.074 o
-5 5 4 40.398 40.342 0.980 0.341 o
-5 5 5 37.694 37.782 0.940 0.389 o
-5 5 6 43.836 43.221 1.100 0.290 o
-5 5 7 199.318 186.173 2.899 0.015 o
-5 5 8 81.240 79.024 1.270 0.090 o
-5 5 9 0.093 0.130 0.060 1164.220 o
-5 5 10 5.814 5.529 0.190 15.919 o
-5 5 11 149.552 140.602 2.220 0.027 o
-5 5 12 3.704 3.979 0.170 32.570 o
-5 5 13 3.133 3.349 0.160 43.371 o
-5 5 14 1.099 1.280 0.110 197.637 o
-5 5 15 144.220 134.643 3.469 0.028 o
-5 5 16 5.213 4.989 0.170 19.744 o
-5 5 17 20.619 20.106 0.550 1.306 o
-5 5 18 10.097 10.058 0.310 5.221 o
-5 5 19 39.962 38.762 1.050 0.350 o
-5 5 20 11.386 11.038 0.380 4.083 o
-5 5 21 22.306 21.776 0.750 1.058 o
-5 5 22 0.510 4.349 0.850 5.746 o
-5 6 -4 6.886 6.119 0.190 12.267 o
-5 6 -3 0.472 0.600 0.080 516.984 o
-5 6 -2 21.104 21.476 0.570 1.212 o
-5 6 -1 521.985 493.801 9.928 0.002 o
-5 6 0 69.216 66.527 1.460 0.121 o
-5 6 1 33.810 35.943 0.850 0.465 o
-5 6 2 26.869 28.164 0.720 0.735 o
-5 6 3 0.001 0.080 0.050 1709.550 o
-5 6 4 76.495 71.696 1.630 0.101 o
-5 6 5 149.884 141.292 3.179 0.026 o
-5 6 6 15.187 15.287 0.450 2.312 o
-5 6 7 80.132 77.264 1.730 0.090 o
-5 6 8 51.910 48.920 0.850 0.223 o
-5 6 9 67.757 64.817 1.120 0.130 o
-5 6 10 6.179 6.129 0.210 13.616 o
-5 6 11 3.456 3.979 0.170 34.886 o
-5 6 12 9.644 9.408 0.290 5.821 o
-5 6 13 21.366 20.356 0.510 1.256 o
-5 6 14 65.687 61.978 1.700 0.132 o
-5 6 15 23.948 23.945 0.730 0.928 o
-5 6 16 0.258 0.440 0.100 399.417 o
-5 6 17 4.114 4.229 0.220 25.017 o
-5 6 18 25.391 24.095 0.690 0.872 o
-5 6 19 14.793 15.147 0.510 2.323 o
-5 6 20 0.005 0.030 0.110 353.916 o
-5 6 21 8.150 8.118 0.390 6.864 o
-5 7 -4 21.670 21.456 0.440 1.218 o
-5 7 -3 0.029 0.040 0.060 1187.220 o
-5 7 -2 146.725 136.803 2.869 0.028 o
-5 7 -1 50.064 47.560 1.080 0.232 o
-5 7 0 58.337 55.929 1.250 0.170 o
-5 7 1 0.009 0.070 0.050 1708.870 o
-5 7 2 19.071 18.006 0.510 1.555 o
-5 7 3 2.069 2.260 0.140 82.375 o
-5 7 4 0.008 0.090 0.070 872.487 o
-5 7 5 12.731 13.077 0.430 3.149 o
-5 7 6 0.927 0.920 0.120 209.032 o
-5 7 7 18.933 18.396 0.550 1.526 o
-5 7 8 89.593 83.343 1.840 0.074 o
-5 7 9 158.812 144.581 2.350 0.025 o
-5 7 10 11.511 11.108 0.330 4.156 o
-5 7 11 4.646 4.889 0.210 21.076 o
-5 7 12 4.619 4.599 0.210 21.894 o
-5 7 13 60.407 56.769 1.670 0.154 o
-5 7 14 18.437 17.856 0.550 1.602 o
-5 7 15 2.426 2.499 0.160 62.656 o
-5 7 16 38.740 35.973 1.110 0.375 o
-5 7 17 63.235 59.198 1.780 0.141 o
-5 7 18 17.393 17.926 0.780 1.526 o
-5 7 19 34.641 32.324 1.350 0.429 o
-5 7 20 26.482 25.725 0.960 0.736 o
-5 8 -4 7.018 7.389 0.220 10.406 o
-5 8 -3 68.549 62.718 1.390 0.128 o
-5 8 -2 13.402 13.937 0.420 2.875 o
-5 8 -1 25.791 25.065 0.670 0.840 o
-5 8 0 33.413 30.464 0.770 0.530 o
-5 8 1 83.901 78.004 1.750 0.084 o
-5 8 2 41.509 40.402 1.020 0.327 o
-5 8 3 71.120 68.006 1.550 0.115 o
-5 8 4 56.883 51.140 1.250 0.186 o
-5 8 5 2.221 2.400 0.160 68.372 o
-5 8 6 0.475 0.480 0.090 440.771 o
-5 8 7 71.268 66.357 1.750 0.114 o
-5 8 8 44.064 42.172 1.110 0.292 o
-5 8 9 41.228 39.292 1.070 0.333 o
-5 8 10 12.868 12.527 0.480 3.084 o
-5 8 11 4.894 5.319 0.250 17.617 o
-5 8 12 0.372 0.420 0.100 386.851 o
-5 8 13 3.076 3.499 0.200 37.663 o
-5 8 14 47.853 44.701 1.390 0.244 o
-5 8 15 5.225 5.519 0.260 15.900 o
-5 8 16 5.633 5.589 0.290 13.866 o
-5 8 17 0.359 0.440 0.130 238.448 o
-5 8 18 9.185 9.508 0.450 5.239 o
-5 9 -4 0.001 0.060 0.100 428.151 o
-5 9 -3 41.143 39.942 1.080 0.330 o
-5 9 -2 39.703 36.503 1.080 0.363 o
-5 9 -1 3.060 3.169 0.170 44.073 o
-5 9 0 0.594 0.670 0.100 336.456 o
-5 9 1 13.024 12.367 0.460 3.105 o
-5 9 2 2.247 2.479 0.160 66.841 o
-5 9 3 2.320 2.350 0.160 66.648 o
-5 9 4 0.264 0.390 0.100 401.497 o
-5 9 5 5.600 5.319 0.230 15.933 o
-5 9 6 1.907 1.910 0.130 100.012 o
-5 9 7 1.838 1.850 0.140 97.891 o
-5 9 8 1.269 1.320 0.130 149.370 o
-5 9 9 90.073 84.023 2.889 0.067 o
-5 9 10 28.051 27.045 0.940 0.674 o
-5 9 11 32.698 31.704 1.090 0.495 o
-5 9 12 12.829 12.348 0.470 3.140 o
-5 9 13 5.358 5.479 0.260 15.566 o
-5 9 14 22.049 21.236 0.690 1.111 o
-5 9 15 1.451 1.450 0.150 114.256 o
-5 9 16 15.243 14.977 0.660 2.068 o
-5 9 17 11.208 11.268 0.520 3.666 o
-5 10 -4 2.263 2.410 0.170 63.959 o
-5 10 -3 6.957 6.939 0.290 10.002 o
-5 10 -2 7.698 7.958 0.330 7.924 o
-5 10 -1 14.667 13.757 0.550 2.417 o
-5 10 0 8.716 8.518 0.370 6.395 o
-5 10 1 19.096 18.286 0.700 1.421 o
-5 10 2 1.663 1.850 0.150 98.015 o
-5 10 3 124.749 113.847 3.929 0.036 o
-5 10 4 2.053 2.240 0.170 70.481 o
-5 10 5 0.190 0.180 0.090 513.023 o
-5 10 6 8.130 8.058 0.340 7.339 o
-5 10 7 0.739 0.780 0.120 232.363 o
-5 10 8 46.961 44.601 1.490 0.246 o
-5 10 9 8.055 8.128 0.350 7.292 o
-5 10 10 1.161 1.140 0.140 147.260 o
-5 10 11 18.864 18.076 0.710 1.443 o
-5 10 12 0.082 0.170 0.120 295.614 o
-5 10 13 7.055 6.829 0.340 9.260 o
-5 10 14 0.050 0.120 0.120 296.626 o
-5 10 15 15.570 14.567 0.650 2.063 o
-5 10 16 1.031 0.420 0.350 33.624 o
-5 11 -4 0.076 0.090 0.120 296.470 o
-5 11 -3 32.219 31.434 1.080 0.507 o
-5 11 -2 0.683 0.720 0.130 210.538 o
-5 11 -1 0.446 0.520 0.120 268.064 o
-5 11 0 3.882 4.049 0.230 26.224 o
-5 11 1 2.946 3.159 0.190 42.431 o
-5 11 2 1.360 1.420 0.140 129.166 o
-5 11 3 2.978 3.229 0.210 38.630 o
-5 11 4 0.005 0.050 0.110 353.871 o
-5 11 5 1.346 1.530 0.140 127.098 o
-5 11 6 0.632 0.610 0.120 249.302 o
-5 11 7 10.730 9.978 0.410 4.507 o
-5 11 8 5.040 5.299 0.260 16.812 o
-5 11 9 7.631 7.538 0.370 7.812 o
-5 11 10 0.820 1.010 0.160 137.481 o
-5 11 11 40.936 40.382 1.690 0.292 o
-5 11 12 14.060 13.607 0.610 2.447 o
-5 11 13 0.010 0.000 0.140 218.509 o
-5 11 14 1.482 4.209 0.560 12.087 o
-5 12 -4 6.287 6.419 0.350 10.498 o
-5 12 -3 57.652 55.659 2.470 0.147 o
-5 12 -2 0.216 0.280 0.150 187.009 o
-5 12 -1 2.851 3.389 0.220 37.631 o
-5 12 0 0.014 0.090 0.130 253.257 o
-5 12 1 39.204 37.373 1.370 0.343 o
-5 12 2 0.841 0.910 0.160 138.537 o
-5 12 3 12.045 11.728 0.480 3.438 o
-5 12 4 18.455 17.477 0.750 1.475 o
-5 12 5 14.327 14.137 0.620 2.336 o
-5 12 6 0.282 0.330 0.130 244.267 o
-5 12 7 9.892 9.878 0.460 4.718 o
-5 12 8 0.471 0.550 0.140 200.512 o
-5 12 9 5.829 6.079 0.330 11.969 o
-5 12 10 8.666 8.718 0.430 5.933 o
-5 12 11 1.009 2.360 0.390 25.606 o
-5 13 -4 7.494 7.738 0.480 6.701 o
-5 13 -3 5.947 6.179 0.360 11.037 o
-5 13 -2 8.116 8.438 0.450 6.260 o
-5 13 -1 0.700 0.750 0.200 98.108 o
-5 13 0 1.146 1.500 0.220 71.650 o
-5 13 1 1.599 1.760 0.210 67.398 o
-5 13 2 1.752 1.860 0.190 72.753 o
-5 13 3 0.076 0.180 0.140 217.544 o
-5 13 4 0.108 0.230 0.140 216.768 o
-5 13 5 1.397 1.770 0.180 87.623 o
-5 13 6 0.276 0.330 0.170 145.109 o
-5 13 7 10.671 10.208 0.880 2.742 o
-4 0 -2 160.473 188.892 3.779 0.019 o
-4 0 0 2352.130 2372.990 58.668 0.000 o
-4 0 2 13.991 13.937 0.380 2.790 o
-4 0 4 47.478 38.852 0.890 0.286 o
-4 0 6 13.603 10.288 0.290 3.580 o
-4 0 8 58.910 69.086 1.540 0.143 o
-4 0 10 286.658 286.723 5.949 0.007 o
-4 0 12 1.136 1.110 0.100 224.807 o
-4 0 14 84.290 83.283 1.840 0.080 o
-4 0 16 18.393 18.976 0.550 1.550 o
-4 0 18 1.456 1.510 0.120 143.383 o
-4 0 20 2.711 2.969 0.170 50.610 o
-4 0 22 96.059 90.442 3.799 0.055 o
-4 0 24 30.495 27.974 1.640 0.478 o
-4 1 -3 379.611 387.563 5.869 0.004 o
-4 1 -2 280.652 292.402 4.109 0.007 o
-4 1 -1 192.646 196.681 2.789 0.016 o
-4 1 0 128.627 121.126 1.780 0.037 o
-4 1 1 71.600 66.297 0.970 0.120 o
-4 1 2 126.869 115.607 1.710 0.039 o
-4 1 3 27.752 31.664 0.500 0.684 o
-4 1 4 16.557 15.137 0.270 2.236 o
-4 1 5 414.623 410.228 6.259 0.003 o
-4 1 6 626.069 640.262 10.058 0.001 o
-4 1 7 66.826 75.275 1.170 0.119 o
-4 1 8 359.968 357.229 5.199 0.005 o
-4 1 9 0.796 1.600 0.070 330.358 o
-4 1 10 18.175 20.606 0.390 1.575 o
-4 1 11 13.626 14.977 0.310 2.842 o
-4 1 12 25.312 26.495 0.480 0.868 o
-4 1 13 8.080 8.988 0.220 7.803 o
-4 1 14 90.287 89.192 1.370 0.072 o
-4 1 15 0.491 0.580 0.070 627.210 o
-4 1 16 24.659 25.085 0.490 0.927 o
-4 1 17 4.182 4.359 0.140 28.997 o
-4 1 18 2.764 2.679 0.110 65.479 o
-4 1 19 4.683 4.769 0.160 23.316 o
-4 1 20 5.561 5.699 0.210 15.981 o
-4 1 21 17.692 17.167 0.480 1.773 o
-4 1 22 20.038 19.176 0.650 1.338 o
-4 1 23 27.172 25.975 0.810 0.743 o
-4 1 24 32.004 30.584 1.140 0.511 o
-4 2 -3 12.778 13.327 0.240 3.416 o
-4 2 -2 327.266 317.517 4.629 0.006 o
-4 2 -1 351.648 367.796 5.559 0.005 o
-4 2 0 7.119 8.168 0.160 10.129 o
-4 2 1 218.738 224.625 3.209 0.012 o
-4 2 2 1105.270 1099.860 18.386 0.000 o
-4 2 3 12.972 16.107 0.280 2.898 o
-4 2 4 313.037 313.537 4.629 0.006 o
-4 2 5 11.966 18.546 0.320 2.799 o
-4 2 6 157.591 168.836 2.479 0.022 o
-4 2 7 3.150 4.809 0.130 37.385 o
-4 2 8 35.615 35.573 0.600 0.456 o
-4 2 9 74.145 78.914 1.190 0.101 o
-4 2 10 27.808 30.484 0.530 0.697 o
-4 2 11 82.964 80.724 1.240 0.086 o
-4 2 12 4.857 4.959 0.140 22.546 o
-4 2 13 27.884 28.444 0.510 0.729 o
-4 2 14 44.902 44.111 0.740 0.291 o
-4 2 15 1.507 1.680 0.080 179.665 o
-4 2 16 15.192 15.387 0.360 2.396 o
-4 2 17 8.518 8.768 0.240 7.328 o
-4 2 18 0.066 0.100 0.050 1684.620 o
-4 2 19 0.111 0.160 0.060 1152.580 o
-4 2 20 5.209 5.349 0.180 18.694 o
-4 2 21 29.965 29.674 0.770 0.617 o
-4 2 22 1.567 1.840 0.120 126.083 o
-4 2 23 48.792 46.661 1.420 0.232 o
-4 3 -3 410.651 405.859 5.999 0.003 o
-4 3 -2 191.939 192.532 2.739 0.016 o
-4 3 -1 49.370 51.120 0.780 0.233 o
-4 3 0 61.563 62.208 1.340 0.148 o
-4 3 1 186.627 181.394 3.719 0.017 o
-4 3 2 1.062 1.530 0.100 208.293 o
-4 3 3 96.481 97.890 1.860 0.061 o
-4 3 4 201.566 204.349 2.969 0.014 o
-4 3 5 100.579 96.181 1.470 0.059 o
-4 3 6 24.020 24.315 0.430 0.990 o
-4 3 7 104.389 101.010 1.470 0.055 o
-4 3 8 198.954 205.539 2.949 0.014 o
-4 3 9 294.407 287.293 4.159 0.007 o
-4 3 10 29.083 28.524 0.490 0.692 o
-4 3 11 12.473 12.707 0.270 3.584 o
-4 3 12 0.130 0.280 0.060 1118.080 o
-4 3 13 224.805 218.946 3.209 0.012 o
-4 3 14 18.294 18.426 0.380 1.687 o
-4 3 15 9.375 9.088 0.230 6.430 o
-4 3 16 3.311 3.669 0.120 43.613 o
-4 3 17 23.017 22.456 0.570 1.061 o
-4 3 18 3.520 3.459 0.130 41.126 o
-4 3 19 0.010 0.010 0.050 1712.620 o
-4 3 20 11.796 11.688 0.330 3.916 o
-4 3 21 2.954 3.149 0.140 50.673 o
-4 3 22 17.239 16.967 0.540 1.795 o
-4 3 23 30.628 28.974 0.990 0.577 o
-4 4 -3 4.003 4.919 0.120 29.218 o
-4 4 -2 0.785 0.820 0.050 610.403 o
-4 4 -1 26.323 29.514 0.730 0.729 o
-4 4 0 92.255 91.292 1.910 0.067 o
-4 4 1 199.372 196.741 4.059 0.014 o
-4 4 2 4.643 4.359 0.170 24.300 o
-4 4 3 731.465 711.838 15.467 0.001 o
-4 4 4 291.784 296.271 6.309 0.007 o
-4 4 5 293.548 299.170 4.629 0.007 o
-4 4 6 108.226 106.519 1.680 0.050 o
-4 4 7 60.840 60.338 0.960 0.158 o
-4 4 8 0.039 0.030 0.030 4711.260 o
-4 4 9 0.728 1.000 0.080 383.249 o
-4 4 10 0.380 0.440 0.060 903.399 o
-4 4 11 29.746 29.754 0.510 0.653 o
-4 4 12 4.891 5.379 0.150 20.956 o
-4 4 13 98.713 92.941 1.400 0.062 o
-4 4 14 1.994 2.080 0.090 115.028 o
-4 4 15 2.234 2.340 0.100 91.751 o
-4 4 16 0.442 0.490 0.070 669.717 o
-4 4 17 15.098 14.677 0.390 2.454 o
-4 4 18 0.710 0.900 0.080 401.797 o
-4 4 19 6.144 6.589 0.210 13.135 o
-4 4 20 8.300 8.558 0.260 7.535 o
-4 4 21 0.008 0.080 0.090 528.281 o
-4 4 22 10.588 10.818 0.360 4.558 o
-4 4 23 0.351 0.750 0.270 57.435 o
-4 5 -3 150.479 147.081 2.220 0.026 o
-4 5 -2 270.979 265.307 4.029 0.008 o
-4 5 -1 121.505 123.105 2.689 0.038 o
-4 5 0 24.401 25.785 0.630 0.892 o
-4 5 1 1.896 2.020 0.120 104.162 o
-4 5 2 128.642 129.304 2.789 0.034 o
-4 5 3 24.583 25.195 0.640 0.895 o
-4 5 4 29.239 27.285 0.680 0.682 o
-4 5 5 101.023 100.040 2.070 0.056 o
-4 5 6 159.145 150.260 2.330 0.024 o
-4 5 7 2.277 2.549 0.110 82.313 o
-4 5 8 86.239 81.524 1.300 0.081 o
-4 5 9 0.649 0.990 0.090 349.832 o
-4 5 10 232.447 219.126 3.389 0.011 o
-4 5 11 159.247 152.989 2.380 0.024 o
-4 5 12 118.825 113.507 1.760 0.043 o
-4 5 13 27.349 27.415 0.540 0.761 o
-4 5 14 51.678 49.030 0.950 0.222 o
-4 5 15 0.095 0.180 0.060 1154.880 o
-4 5 16 0.003 0.040 0.050 1712.040 o
-4 5 17 24.591 23.735 0.600 0.938 o
-4 5 18 4.569 5.079 0.180 22.265 o
-4 5 19 4.643 4.729 0.170 23.233 o
-4 5 20 0.069 0.140 0.080 662.864 o
-4 5 21 12.591 12.877 0.420 3.238 o
-4 5 22 12.424 12.387 0.450 3.296 o
-4 6 -3 403.693 393.471 6.129 0.004 o
-4 6 -2 106.192 103.219 1.680 0.052 o
-4 6 -1 132.402 125.725 2.609 0.034 o
-4 6 0 2.923 4.069 0.210 35.133 o
-4 6 1 141.677 135.953 2.789 0.029 o
-4 6 2 18.068 17.227 0.480 1.724 o
-4 6 3 91.168 89.312 1.940 0.069 o
-4 6 4 230.779 228.604 4.909 0.011 o
-4 6 5 258.612 245.871 5.349 0.009 o
-4 6 6 36.997 35.483 0.630 0.433 o
-4 6 7 100.824 98.170 1.550 0.058 o
-4 6 8 7.258 7.688 0.210 9.862 o
-4 6 9 12.332 12.637 0.290 3.614 o
-4 6 10 12.696 12.338 0.310 3.503 o
-4 6 11 19.616 19.386 0.420 1.479 o
-4 6 12 2.531 2.649 0.130 66.967 o
-4 6 13 58.094 54.959 1.070 0.176 o
-4 6 14 34.848 33.743 0.740 0.475 o
-4 6 15 0.776 0.880 0.090 335.158 o
-4 6 16 0.587 0.720 0.080 463.703 o
-4 6 17 4.700 4.929 0.180 21.977 o
-4 6 18 0.089 0.100 0.080 662.825 o
-4 6 19 5.371 5.769 0.230 15.944 o
-4 6 20 0.347 0.530 0.100 382.964 o
-4 6 21 3.047 3.239 0.180 42.272 o
-4 7 -3 8.002 8.428 0.220 8.224 o
-4 7 -2 99.466 91.692 1.500 0.062 o
-4 7 -1 205.066 197.870 4.029 0.014 o
-4 7 0 93.634 91.242 1.970 0.066 o
-4 7 1 11.875 11.978 0.390 3.685 o
-4 7 2 19.597 19.826 0.550 1.400 o
-4 7 3 11.304 10.898 0.360 4.208 o
-4 7 4 160.444 149.870 3.309 0.023 o
-4 7 5 21.044 20.676 0.620 1.223 o
-4 7 6 25.763 25.805 0.720 0.816 o
-4 7 7 49.352 47.191 0.810 0.245 o
-4 7 8 49.336 46.761 0.810 0.246 o
-4 7 9 23.698 22.726 0.460 1.044 o
-4 7 10 84.079 80.554 1.320 0.084 o
-4 7 11 228.739 212.018 3.829 0.012 o
-4 7 12 32.180 30.744 0.670 0.563 o
-4 7 13 4.013 4.179 0.190 27.818 o
-4 7 14 2.579 2.699 0.140 62.557 o
-4 7 15 3.698 3.609 0.180 33.394 o
-4 7 16 16.759 16.427 0.550 1.881 o
-4 7 17 0.354 0.400 0.110 327.685 o
-4 7 18 15.015 15.187 0.540 2.243 o
-4 7 19 0.760 0.990 0.120 220.928 o
-4 7 20 6.418 6.349 0.260 11.936 o
-4 8 -3 0.203 0.360 0.090 500.139 o
-4 8 -2 337.798 308.088 4.709 0.005 o
-4 8 -1 127.403 120.156 2.529 0.036 o
-4 8 0 45.403 42.752 1.050 0.281 o
-4 8 1 26.339 25.605 0.700 0.802 o
-4 8 2 64.772 62.038 1.430 0.138 o
-4 8 3 1.016 1.140 0.110 213.516 o
-4 8 4 23.329 21.966 0.620 1.042 o
-4 8 5 19.639 18.746 0.540 1.449 o
-4 8 6 111.122 102.709 2.300 0.048 o
-4 8 7 6.342 6.489 0.240 12.291 o
-4 8 8 68.921 65.387 1.090 0.126 o
-4 8 9 39.746 37.542 0.780 0.374 o
-4 8 10 22.497 22.265 0.550 1.103 o
-4 8 11 1.708 1.750 0.140 105.193 o
-4 8 12 2.159 2.280 0.140 79.260 o
-4 8 13 0.123 0.160 0.090 520.396 o
-4 8 14 43.736 40.552 1.180 0.298 o
-4 8 15 8.335 8.308 0.330 7.107 o
-4 8 16 4.758 5.209 0.250 18.298 o
-4 8 17 0.563 0.560 0.120 257.264 o
-4 8 18 0.316 0.450 0.140 208.640 o
-4 8 19 0.062 0.080 0.130 252.930 o
-4 9 -3 5.600 5.659 0.200 16.168 o
-4 9 -2 0.014 0.100 0.080 667.844 o
-4 9 -1 25.108 23.915 0.650 0.898 o
-4 9 0 167.884 156.119 3.309 0.021 o
-4 9 1 14.852 15.197 0.490 2.334 o
-4 9 2 63.695 60.448 1.390 0.143 o
-4 9 3 31.124 29.034 0.790 0.593 o
-4 9 4 4.695 4.839 0.240 19.663 o
-4 9 5 49.374 45.641 1.240 0.237 o
-4 9 6 0.512 0.710 0.110 295.793 o
-4 9 7 14.929 14.117 0.470 2.446 o
-4 9 8 1.152 1.060 0.120 183.382 o
-4 9 9 112.894 102.769 3.229 0.045 o
-4 9 10 37.377 34.943 1.150 0.395 o
-4 9 11 9.589 9.418 0.380 5.411 o
-4 9 12 19.636 18.646 0.660 1.386 o
-4 9 13 15.303 15.487 0.540 2.171 o
-4 9 14 7.628 7.888 0.330 8.039 o
-4 9 15 1.431 1.590 0.150 112.168 o
-4 9 16 1.617 1.710 0.160 95.296 o
-4 9 17 10.556 10.208 0.480 4.255 o
-4 9 18 0.404 0.720 0.160 156.047 o
-4 10 -3 23.461 21.696 0.560 1.060 o
-4 10 -2 1.760 1.870 0.130 107.384 o
-4 10 -1 85.902 78.964 2.010 0.080 o
-4 10 0 120.955 112.767 2.789 0.040 o
-4 10 1 1.743 1.720 0.130 111.688 o
-4 10 2 23.154 22.465 0.750 0.995 o
-4 10 3 0.057 0.060 0.070 869.827 o
-4 10 4 10.969 10.758 0.420 4.190 o
-4 10 5 0.340 1.060 0.160 152.994 o
-4 10 6 0.066 0.080 0.070 867.703 o
-4 10 7 38.780 37.193 1.250 0.357 o
-4 10 8 16.801 16.247 0.600 1.841 o
-4 10 9 41.068 38.232 1.370 0.321 o
-4 10 10 5.131 5.329 0.280 15.818 o
-4 10 11 0.995 1.110 0.120 194.612 o
-4 10 12 0.012 0.040 0.100 428.143 o
-4 10 13 7.406 7.728 0.350 8.165 o
-4 10 14 4.331 4.459 0.250 21.553 o
-4 10 15 7.008 6.879 0.340 9.289 o
-4 10 16 8.608 8.118 0.400 6.413 o
-4 11 -3 0.008 0.040 0.090 528.589 o
-4 11 -2 0.002 0.080 0.110 353.795 o
-4 11 -1 8.900 9.298 0.410 5.717 o
-4 11 0 35.509 33.453 1.220 0.423 o
-4 11 1 8.947 8.878 0.400 5.890 o
-4 11 2 71.514 68.686 2.390 0.104 o
-4 11 3 15.738 15.427 0.610 2.027 o
-4 11 4 0.881 0.990 0.120 210.056 o
-4 11 5 0.001 0.030 0.100 428.251 o
-4 11 6 9.541 8.958 0.390 5.532 o
-4 11 7 17.285 17.267 0.640 1.689 o
-4 11 8 18.901 17.477 0.650 1.508 o
-4 11 9 13.774 13.347 0.530 2.670 o
-4 11 10 9.182 8.848 0.390 5.803 o
-4 11 11 0.896 1.090 0.160 133.136 o
-4 11 12 0.703 0.850 0.180 117.567 o
-4 11 13 0.455 0.500 0.140 202.291 o
-4 11 14 8.632 8.588 0.420 6.073 o
-4 12 -3 1.217 1.190 0.160 118.987 o
-4 12 -2 1.186 1.220 0.160 119.605 o
-4 12 -1 1.993 2.220 0.190 64.334 o
-4 12 0 13.543 13.377 0.610 2.568 o
-4 12 1 35.964 34.783 1.280 0.402 o
-4 12 2 11.648 12.028 0.480 3.517 o
-4 12 3 9.929 9.638 0.410 5.000 o
-4 12 4 6.858 7.748 0.350 8.793 o
-4 12 5 3.243 3.449 0.200 36.261 o
-4 12 6 0.157 0.200 0.130 250.328 o
-4 12 7 0.012 0.130 0.130 253.142 o
-4 12 8 16.391 15.967 0.700 1.807 o
-4 12 9 0.348 0.500 0.160 160.215 o
-4 12 10 1.875 2.000 0.190 68.788 o
-4 12 11 3.249 3.669 0.250 29.679 o
-4 12 12 8.653 9.258 0.510 5.233 o
-4 13 -3 1.065 1.160 0.190 95.892 o
-4 13 -2 4.195 4.469 0.300 19.395 o
-4 13 -1 4.129 4.409 0.300 19.740 o
-4 13 0 0.810 0.980 0.220 79.687 o
-4 13 1 0.343 0.340 0.160 162.034 o
-4 13 2 10.237 10.928 0.500 4.157 o
-4 13 3 19.223 18.346 0.790 1.348 o
-4 13 4 10.148 9.578 0.460 4.667 o
-4 13 5 3.152 3.659 0.250 30.367 o
-4 13 6 2.093 2.320 0.210 55.202 o
-4 13 7 9.408 8.568 0.430 5.503 o
-4 13 8 0.045 0.150 0.210 97.017 o
-3 0 -1 2619.980 2710.440 74.705 0.000 o
-3 0 1 0.392 0.640 0.050 1044.030 o
-3 0 3 259.820 299.560 6.339 0.007 o
-3 0 5 98.839 106.349 2.250 0.055 o
-3 0 7 6.873 7.169 0.220 10.855 o
-3 0 9 1.134 0.720 0.070 358.099 o
-3 0 11 8.594 8.778 0.280 6.999 o
-3 0 13 2.927 3.539 0.170 43.383 o
-3 0 15 41.747 40.782 0.950 0.326 o
-3 0 17 14.032 13.397 0.480 2.692 o
-3 0 19 260.152 232.693 7.598 0.008 o
-3 0 21 2.425 2.799 0.170 56.945 o
-3 0 23 82.068 76.925 3.459 0.074 o
-3 1 -2 378.246 401.090 6.309 0.004 o
-3 1 -1 4440.520 4385.220 144.721 0.000 o
-3 1 0 931.439 903.289 14.837 0.001 o
-3 1 1 4.937 3.639 0.090 28.064 o
-3 1 2 45.384 39.322 0.600 0.311 o
-3 1 3 113.662 105.439 1.550 0.048 o
-3 1 4 318.004 322.346 5.089 0.006 o
-3 1 5 700.868 711.268 11.608 0.001 o
-3 1 6 9.602 13.727 0.250 4.652 o
-3 1 7 491.684 468.176 7.009 0.002 o
-3 1 8 4.414 5.269 0.130 24.594 o
-3 1 9 34.499 32.973 0.540 0.503 o
-3 1 10 312.921 303.199 4.339 0.006 o
-3 1 11 308.776 293.541 4.219 0.006 o
-3 1 12 274.018 268.486 3.929 0.008 o
-3 1 13 32.614 34.383 0.590 0.522 o
-3 1 14 231.135 224.005 3.259 0.011 o
-3 1 15 192.221 184.753 2.719 0.016 o
-3 1 16 104.680 99.820 1.530 0.055 o
-3 1 17 1.207 1.340 0.080 244.024 o
-3 1 18 0.044 0.050 0.050 1702.860 o
-3 1 19 70.430 64.427 1.550 0.120 o
-3 1 20 1.610 1.730 0.090 155.798 o
-3 1 21 3.035 3.029 0.130 51.957 o
-3 1 22 29.371 27.614 0.820 0.652 o
-3 1 23 64.536 59.818 1.740 0.137 o
-3 1 24 9.499 9.578 0.330 5.672 o
-3 2 -2 137.005 136.403 1.970 0.031 o
-3 2 -1 161.855 171.336 2.430 0.021 o
-3 2 0 276.762 286.613 4.779 0.007 o
-3 2 1 119.449 116.857 2.040 0.041 o
-3 2 2 77.342 90.442 1.340 0.087 o
-3 2 3 122.848 119.876 1.730 0.039 o
-3 2 4 80.250 86.463 1.290 0.086 o
-3 2 5 0.962 1.090 0.050 442.106 o
-3 2 6 0.146 0.200 0.030 3924.470 o
-3 2 7 94.279 93.621 1.400 0.066 o
-3 2 8 4.209 4.739 0.120 28.292 o
-3 2 9 21.912 24.215 0.440 1.111 o
-3 2 10 8.364 9.178 0.210 7.447 o
-3 2 11 33.054 34.703 0.580 0.511 o
-3 2 12 0.212 0.470 0.050 1367.620 o
-3 2 13 11.896 12.238 0.270 3.893 o
-3 2 14 11.981 12.398 0.280 3.809 o
-3 2 15 0.226 0.330 0.070 795.388 o
-3 2 16 13.531 13.457 0.310 3.070 o
-3 2 17 48.425 45.451 0.850 0.256 o
-3 2 18 94.702 86.863 2.090 0.066 o
-3 2 19 25.289 25.085 0.610 0.874 o
-3 2 20 17.082 16.417 0.420 1.946 o
-3 2 21 82.835 75.845 1.760 0.087 o
-3 2 22 4.907 5.329 0.190 19.688 o
-3 2 23 0.002 0.040 0.090 528.645 o
-3 2 24 56.337 51.880 1.590 0.179 o
-3 3 -2 257.997 261.838 3.879 0.009 o
-3 3 -1 65.649 62.837 0.940 0.139 o
-3 3 0 1303.720 1336.750 31.084 0.000 o
-3 3 1 639.763 627.195 14.657 0.001 o
-3 3 2 9.626 10.088 0.310 5.510 o
-3 3 3 125.728 132.424 1.990 0.036 o
-3 3 4 497.888 490.782 7.838 0.002 o
-3 3 5 29.588 28.414 0.450 0.683 o
-3 3 6 47.955 46.031 0.720 0.260 o
-3 3 7 241.987 245.821 3.539 0.010 o
-3 3 8 286.122 287.183 4.139 0.007 o
-3 3 9 62.076 63.687 0.980 0.148 o
-3 3 10 53.423 50.080 0.800 0.213 o
-3 3 11 97.403 97.141 1.470 0.062 o
-3 3 12 3.105 3.219 0.110 51.942 o
-3 3 13 289.258 274.745 4.059 0.007 o
-3 3 14 10.666 11.808 0.270 4.547 o
-3 3 15 39.125 39.732 0.690 0.373 o
-3 3 16 3.173 3.569 0.130 45.231 o
-3 3 17 17.769 17.697 0.410 1.777 o
-3 3 18 197.676 180.144 4.239 0.015 o
-3 3 19 21.615 20.296 0.530 1.233 o
-3 3 20 49.982 46.791 1.140 0.234 o
-3 3 21 14.236 14.257 0.400 2.669 o
-3 3 22 25.646 24.535 0.760 0.835 o
-3 3 23 0.033 0.070 0.100 427.656 o
-3 3 24 10.846 1.860 0.660 4.898 o
-3 4 -2 14.408 16.247 0.290 2.533 o
-3 4 -1 123.471 130.204 1.910 0.037 o
-3 4 0 33.852 33.173 0.740 0.498 o
-3 4 1 2.561 2.300 0.120 73.855 o
-3 4 2 173.693 183.723 3.929 0.018 o
-3 4 3 0.625 1.420 0.100 273.885 o
-3 4 4 74.132 68.456 1.010 0.112 o
-3 4 5 1.631 2.629 0.080 126.437 o
-3 4 6 21.379 21.726 0.380 1.247 o
-3 4 7 3.721 3.979 0.110 37.135 o
-3 4 8 70.968 71.356 1.070 0.115 o
-3 4 9 37.508 37.362 0.610 0.413 o
-3 4 10 68.338 70.616 1.070 0.122 o
-3 4 11 0.249 0.490 0.050 1309.430 o
-3 4 12 1.728 2.030 0.090 134.220 o
-3 4 13 22.363 22.226 0.420 1.150 o
-3 4 14 1.578 1.640 0.090 162.880 o
-3 4 15 0.983 1.030 0.070 356.834 o
-3 4 16 43.760 40.782 0.790 0.314 o
-3 4 17 77.281 74.645 1.770 0.096 o
-3 4 18 5.937 6.299 0.200 14.213 o
-3 4 19 9.802 9.798 0.280 5.617 o
-3 4 20 11.464 11.688 0.340 4.026 o
-3 4 21 14.951 15.167 0.480 2.331 o
-3 4 22 37.313 34.873 1.070 0.403 o
-3 4 23 0.043 0.130 0.110 352.876 o
-3 5 -2 2.168 2.010 0.070 116.497 o
-3 5 -1 75.449 78.394 1.160 0.100 o
-3 5 0 17.351 17.716 0.320 1.881 o
-3 5 1 304.220 302.919 6.209 0.006 o
-3 5 2 616.006 602.200 13.057 0.002 o
-3 5 3 55.002 57.438 1.310 0.179 o
-3 5 4 70.828 67.776 1.090 0.119 o
-3 5 5 1.084 1.070 0.080 291.489 o
-3 5 6 24.510 25.285 0.460 0.935 o
-3 5 7 45.719 47.410 0.760 0.271 o
-3 5 8 146.334 140.492 2.120 0.028 o
-3 5 9 49.687 51.120 0.850 0.230 o
-3 5 10 6.261 6.259 0.180 13.749 o
-3 5 11 0.374 0.550 0.060 868.018 o
-3 5 12 52.851 52.030 0.840 0.210 o
-3 5 13 1.776 1.760 0.080 149.072 o
-3 5 14 12.464 12.947 0.290 3.513 o
-3 5 15 1.173 1.100 0.080 271.083 o
-3 5 16 21.020 19.616 0.510 1.310 o
-3 5 17 102.002 95.151 2.380 0.056 o
-3 5 18 30.518 29.374 0.730 0.612 o
-3 5 19 135.272 126.405 2.969 0.032 o
-3 5 20 13.306 13.187 0.380 3.064 o
-3 5 21 0.064 0.170 0.090 524.175 o
-3 5 22 6.141 6.269 0.260 12.601 o
-3 5 23 1.350 3.659 0.840 5.806 o
-3 6 -2 234.613 230.534 3.439 0.011 o
-3 6 -1 20.874 18.096 0.340 1.452 o
-3 6 0 198.221 190.082 2.949 0.015 o
-3 6 1 0.155 0.190 0.050 1587.400 o
-3 6 2 3.678 4.499 0.140 32.739 o
-3 6 3 53.365 54.059 0.890 0.202 o
-3 6 4 26.058 24.695 0.440 0.881 o
-3 6 5 17.477 15.357 0.310 2.041 o
-3 6 6 6.138 7.299 0.190 12.622 o
-3 6 7 7.612 7.598 0.200 9.472 o
-3 6 8 15.926 16.717 0.350 2.153 o
-3 6 9 71.234 69.876 1.140 0.116 o
-3 6 10 0.059 0.040 0.060 1183.260 o
-3 6 11 1.109 1.100 0.090 254.841 o
-3 6 12 24.693 24.595 0.480 0.939 o
-3 6 13 0.085 0.100 0.050 1674.360 o
-3 6 14 3.308 3.639 0.150 40.516 o
-3 6 15 29.846 28.394 0.710 0.645 o
-3 6 16 61.985 58.458 1.400 0.151 o
-3 6 17 18.744 19.086 0.500 1.539 o
-3 6 18 9.163 8.978 0.270 6.461 o
-3 6 19 4.883 5.329 0.200 19.443 o
-3 6 20 2.710 2.729 0.140 59.359 o
-3 6 21 0.407 0.510 0.120 271.293 o
-3 6 22 2.020 2.150 0.280 39.398 o
-3 7 -2 4.409 4.719 0.150 25.570 o
-3 7 -1 9.179 9.268 0.220 6.566 o
-3 7 0 8.549 8.788 0.210 7.457 o
-3 7 1 33.662 32.144 0.560 0.526 o
-3 7 2 336.060 310.748 4.889 0.005 o
-3 7 3 47.315 45.501 0.790 0.265 o
-3 7 4 29.515 27.715 0.510 0.689 o
-3 7 5 5.853 5.949 0.170 15.543 o
-3 7 6 0.718 0.850 0.090 350.076 o
-3 7 7 27.316 27.914 0.530 0.755 o
-3 7 8 0.067 0.160 0.060 1167.540 o
-3 7 9 2.200 2.370 0.130 80.563 o
-3 7 10 23.696 23.275 0.480 1.024 o
-3 7 11 9.670 9.888 0.270 5.719 o
-3 7 12 15.313 14.857 0.380 2.404 o
-3 7 13 0.293 0.330 0.090 488.632 o
-3 7 14 10.748 10.588 0.320 4.671 o
-3 7 15 70.203 66.127 1.680 0.117 o
-3 7 16 51.865 48.870 1.260 0.214 o
-3 7 17 3.265 3.319 0.140 44.440 o
-3 7 18 40.699 39.682 1.080 0.335 o
-3 7 19 19.083 19.106 0.660 1.413 o
-3 7 20 6.750 7.369 0.290 9.990 o
-3 7 21 10.900 10.868 0.420 4.195 o
-3 8 -2 17.530 16.597 0.350 1.917 o
-3 8 -1 230.489 212.637 3.259 0.012 o
-3 8 0 6.659 6.459 0.200 12.255 o
-3 8 1 18.014 16.797 0.350 1.838 o
-3 8 2 0.072 0.170 0.060 1164.420 o
-3 8 3 20.114 20.846 0.450 1.358 o
-3 8 4 11.639 11.458 0.290 4.123 o
-3 8 5 27.791 25.715 0.510 0.780 o
-3 8 6 11.239 10.928 0.280 4.455 o
-3 8 7 3.608 4.029 0.170 33.212 o
-3 8 8 14.471 14.627 0.350 2.636 o
-3 8 9 8.789 8.818 0.260 6.919 o
-3 8 10 1.170 1.410 0.110 184.378 o
-3 8 11 16.075 15.627 0.410 2.169 o
-3 8 12 0.026 0.040 0.080 668.483 o
-3 8 13 4.668 4.989 0.220 20.319 o
-3 8 14 15.450 15.507 0.510 2.180 o
-3 8 15 74.100 70.216 1.990 0.103 o
-3 8 16 23.783 22.346 0.710 0.980 o
-3 8 17 0.640 0.840 0.110 273.566 o
-3 8 18 0.208 0.270 0.100 412.954 o
-3 8 19 0.470 0.420 0.120 269.984 o
-3 8 20 0.220 0.370 0.150 186.056 o
-3 9 -2 13.384 13.527 0.340 3.058 o
-3 9 -1 0.020 0.060 0.070 872.651 o
-3 9 0 16.039 15.387 0.360 2.240 o
-3 9 1 75.876 70.106 1.170 0.106 o
-3 9 2 1.042 0.890 0.100 251.986 o
-3 9 3 42.501 39.162 0.730 0.336 o
-3 9 4 40.014 37.043 0.700 0.378 o
-3 9 5 21.169 19.916 0.430 1.317 o
-3 9 6 0.478 0.540 0.090 433.867 o
-3 9 7 9.759 9.858 0.320 5.454 o
-3 9 8 2.123 2.150 0.130 86.940 o
-3 9 9 1.931 2.070 0.130 95.745 o
-3 9 10 0.232 0.260 0.100 411.201 o
-3 9 11 3.231 3.139 0.170 42.057 o
-3 9 12 8.846 8.508 0.310 6.699 o
-3 9 13 81.242 75.675 2.130 0.087 o
-3 9 14 54.839 51.170 1.530 0.188 o
-3 9 15 2.114 2.380 0.170 67.497 o
-3 9 16 14.247 13.617 0.610 2.412 o
-3 9 17 7.012 6.859 0.350 9.160 o
-3 9 18 1.491 1.640 0.170 93.520 o
-3 9 19 2.119 4.939 0.710 7.504 o
-3 10 -2 86.911 78.394 1.510 0.081 o
-3 10 -1 0.810 0.860 0.100 288.094 o
-3 10 0 41.704 38.002 0.830 0.347 o
-3 10 1 9.049 8.658 0.300 6.524 o
-3 10 2 0.868 0.980 0.120 211.649 o
-3 10 3 0.184 0.300 0.110 343.930 o
-3 10 4 19.323 18.286 0.530 1.505 o
-3 10 5 1.812 2.090 0.130 100.238 o
-3 10 6 14.279 13.887 0.500 2.556 o
-3 10 7 0.095 0.090 0.090 524.707 o
-3 10 8 24.355 23.535 0.850 0.883 o
-3 10 9 6.662 6.639 0.340 9.938 o
-3 10 10 0.047 0.110 0.110 352.989 o
-3 10 11 0.005 0.030 0.100 428.229 o
-3 10 12 1.483 1.770 0.140 114.687 o
-3 10 13 11.740 11.968 0.450 3.579 o
-3 10 14 60.820 59.028 2.460 0.134 o
-3 10 15 15.994 15.517 0.690 1.894 o
-3 10 16 2.855 2.829 0.210 42.065 o
-3 10 17 1.126 1.040 0.180 104.528 o
-3 11 -2 4.898 5.059 0.240 18.444 o
-3 11 -1 1.476 1.530 0.150 111.568 o
-3 11 0 33.127 31.284 1.040 0.497 o
-3 11 1 0.004 0.090 0.100 427.961 o
-3 11 2 14.361 14.307 0.570 2.393 o
-3 11 3 0.584 0.830 0.120 243.878 o
-3 11 4 11.418 11.098 0.460 3.814 o
-3 11 5 23.905 21.976 0.780 0.960 o
-3 11 6 3.723 3.879 0.200 30.273 o
-3 11 7 0.201 0.280 0.110 343.483 o
-3 11 8 14.780 14.507 0.550 2.329 o
-3 11 9 3.862 3.729 0.220 28.139 o
-3 11 10 10.361 10.278 0.430 4.531 o
-3 11 11 5.633 6.169 0.310 12.723 o
-3 11 12 53.807 52.889 2.200 0.170 o
-3 11 13 29.482 27.634 1.180 0.585 o
-3 11 14 11.048 10.758 0.500 3.879 o
-3 11 15 2.138 2.040 0.200 59.850 o
-3 12 -2 3.078 3.379 0.220 35.586 o
-3 12 -1 14.395 14.347 0.580 2.368 o
-3 12 0 0.132 0.170 0.160 166.327 o
-3 12 1 4.264 4.559 0.260 21.086 o
-3 12 2 5.341 5.499 0.270 15.293 o
-3 12 3 8.083 8.438 0.370 6.953 o
-3 12 4 0.726 0.830 0.120 231.281 o
-3 12 5 9.843 10.178 0.420 4.855 o
-3 12 6 3.082 3.219 0.200 39.053 o
-3 12 7 3.668 4.159 0.240 26.409 o
-3 12 8 14.772 14.347 0.630 2.229 o
-3 12 9 4.991 5.679 0.310 14.759 o
-3 12 10 0.280 0.520 0.160 161.469 o
-3 12 11 1.089 1.230 0.160 123.107 o
-3 12 12 6.669 6.859 0.360 9.467 o
-3 12 13 29.868 29.584 1.790 0.450 o
-3 13 -2 9.146 9.228 0.480 5.162 o
-3 13 -1 2.209 2.270 0.220 51.120 o
-3 13 0 1.111 1.310 0.180 101.311 o
-3 13 1 13.718 14.467 0.640 2.381 o
-3 13 2 0.974 1.280 0.160 126.532 o
-3 13 3 5.791 6.099 0.320 12.245 o
-3 13 4 1.265 1.670 0.180 92.399 o
-3 13 5 2.143 2.070 0.200 59.517 o
-3 13 6 15.683 15.057 0.680 1.976 o
-3 13 7 0.180 0.280 0.170 146.549 o
-3 13 8 0.098 0.100 0.210 96.963 o
-3 13 9 6.582 5.919 0.420 9.219 o
-3 14 -2 0.026 0.190 0.400 26.760 o
-3 14 -1 5.647 5.609 0.430 10.421 o
-3 14 0 3.236 3.329 0.330 23.162 o
-3 14 1 0.022 0.080 0.240 74.339 o
-3 14 2 0.005 0.120 0.280 54.619 o
-3 14 3 4.820 9.548 2.150 0.872 o
-2 0 0 1249.200 1298.690 32.863 0.000 o
-2 0 2 551.050 530.614 12.518 0.002 o
-2 0 4 8603.750 8618.190 1056.500 0.000 o
-2 0 6 44.432 36.403 0.800 0.328 o
-2 0 8 43.919 53.249 1.140 0.251 o
-2 0 10 261.326 278.544 5.639 0.008 o
-2 0 12 86.935 89.872 1.890 0.073 o
-2 0 14 26.566 26.575 0.680 0.780 o
-2 0 16 0.074 0.090 0.060 1175.050 o
-2 0 18 103.836 99.080 2.380 0.053 o
-2 0 20 0.361 0.580 0.110 318.659 o
-2 0 22 0.456 0.510 0.120 267.710 o
-2 0 24 32.010 28.944 1.190 0.519 o
-2 1 -1 2.349 2.510 0.060 95.789 o
-2 1 0 1089.860 1061.220 19.986 0.000 o
-2 1 1 1188.280 1183.370 23.425 0.000 o
-2 1 2 1793.090 1833.280 37.623 0.000 o
-2 1 3 1246.860 1258.360 21.026 0.000 o
-2 1 4 84.026 82.943 1.220 0.083 o
-2 1 5 665.108 693.661 11.328 0.001 o
-2 1 6 376.564 396.991 6.079 0.004 o
-2 1 7 381.588 401.990 5.869 0.004 o
-2 1 8 2.893 2.859 0.090 63.682 o
-2 1 9 0.024 0.080 0.040 2655.100 o
-2 1 10 330.518 330.014 4.709 0.005 o
-2 1 11 24.774 26.455 0.470 0.894 o
-2 1 12 193.113 183.833 2.639 0.016 o
-2 1 13 145.306 143.101 2.090 0.028 o
-2 1 14 176.171 168.726 2.479 0.019 o
-2 1 15 9.231 9.728 0.230 6.282 o
-2 1 16 36.984 35.103 0.600 0.438 o
-2 1 17 2.090 2.290 0.100 99.321 o
-2 1 18 18.478 17.486 0.390 1.715 o
-2 1 19 78.145 73.515 1.760 0.095 o
-2 1 20 377.055 342.801 7.838 0.004 o
-2 1 21 72.076 67.487 1.560 0.113 o
-2 1 22 2.520 2.709 0.120 69.176 o
-2 1 23 0.001 0.050 0.080 668.976 o
-2 1 24 4.913 4.489 0.180 22.016 o
-2 2 -1 287.327 312.687 4.969 0.007 o
-2 2 0 1324.280 1319.150 31.394 0.000 o
-2 2 1 34.943 41.822 0.910 0.400 o
-2 2 2 2715.070 2776.910 68.366 0.000 o
-2 2 3 1909.200 1964.520 36.153 0.000 o
-2 2 4 264.982 270.426 4.059 0.008 o
-2 2 5 478.616 525.335 8.348 0.002 o
-2 2 6 655.342 650.480 10.528 0.001 o
-2 2 7 180.678 188.722 2.739 0.017 o
-2 2 8 31.326 33.263 0.540 0.566 o
-2 2 9 175.464 184.753 2.689 0.018 o
-2 2 10 189.005 194.461 2.819 0.016 o
-2 2 11 7.063 8.368 0.190 9.812 o
-2 2 12 71.681 74.025 1.110 0.111 o
-2 2 13 4.388 5.259 0.150 24.014 o
-2 2 14 17.026 16.467 0.330 2.012 o
-2 2 15 2.820 3.359 0.120 54.574 o
-2 2 16 32.200 32.303 0.570 0.554 o
-2 2 17 54.114 51.040 0.920 0.205 o
-2 2 18 24.775 23.825 0.510 0.947 o
-2 2 19 25.873 24.475 0.610 0.862 o
-2 2 20 0.232 0.220 0.060 1078.870 o
-2 2 21 1.567 1.810 0.100 146.016 o
-2 2 22 17.389 16.967 0.450 1.845 o
-2 2 23 9.836 10.158 0.330 5.268 o
-2 2 24 0.376 0.480 0.100 382.413 o
-2 3 -1 0.041 0.130 0.030 4578.200 o
-2 3 0 3.816 3.109 0.090 43.096 o
-2 3 1 845.751 887.952 20.736 0.001 o
-2 3 2 331.297 337.113 5.459 0.005 o
-2 3 3 106.002 123.735 1.810 0.046 o
-2 3 4 758.972 791.942 12.777 0.001 o
-2 3 5 4.400 6.479 0.140 20.962 o
-2 3 6 172.237 181.174 2.639 0.019 o
-2 3 7 9.068 10.708 0.220 6.060 o
-2 3 8 18.769 20.156 0.360 1.550 o
-2 3 9 571.533 585.713 8.998 0.002 o
-2 3 10 167.487 163.837 2.380 0.021 o
-2 3 11 47.820 48.950 0.770 0.250 o
-2 3 12 2.223 3.239 0.110 72.792 o
-2 3 13 220.099 205.199 2.969 0.013 o
-2 3 14 0.296 0.460 0.060 956.596 o
-2 3 15 3.555 3.909 0.130 37.904 o
-2 3 16 56.138 52.050 0.850 0.194 o
-2 3 17 5.614 6.209 0.180 15.688 o
-2 3 18 163.247 151.290 3.649 0.022 o
-2 3 19 68.624 64.987 1.510 0.124 o
-2 3 20 2.730 2.859 0.120 61.922 o
-2 3 21 78.908 74.255 1.730 0.094 o
-2 3 22 55.370 53.569 1.570 0.180 o
-2 3 23 34.612 32.283 1.010 0.467 o
-2 3 24 0.121 0.220 0.110 349.064 o
-2 4 -1 511.270 478.284 7.728 0.002 o
-2 4 0 191.772 177.644 2.529 0.017 o
-2 4 1 1962.270 1954.290 33.973 0.000 o
-2 4 2 84.439 92.712 1.340 0.077 o
-2 4 3 10.873 14.187 0.240 3.968 o
-2 4 4 141.396 145.151 2.120 0.029 o
-2 4 5 2.973 2.669 0.080 65.747 o
-2 4 6 8.704 8.468 0.180 7.617 o
-2 4 7 306.514 308.368 4.499 0.006 o
-2 4 8 478.840 482.544 7.159 0.003 o
-2 4 9 170.626 168.786 2.460 0.020 o
-2 4 10 0.148 0.200 0.050 1589.020 o
-2 4 11 3.807 4.409 0.140 31.969 o
-2 4 12 57.428 55.539 0.880 0.180 o
-2 4 13 12.968 14.467 0.310 3.086 o
-2 4 14 36.932 36.493 0.630 0.427 o
-2 4 15 10.501 10.888 0.270 4.880 o
-2 4 16 114.081 107.379 1.860 0.046 o
-2 4 17 3.476 3.619 0.130 40.660 o
-2 4 18 14.604 13.897 0.380 2.652 o
-2 4 19 6.452 6.569 0.210 12.444 o
-2 4 20 35.131 34.283 0.860 0.456 o
-2 4 21 16.121 15.727 0.440 2.126 o
-2 4 22 0.992 1.370 0.110 203.986 o
-2 4 23 1.176 1.260 0.120 173.246 o
-2 5 -1 38.720 44.891 0.690 0.348 o
-2 5 0 3.121 3.539 0.090 51.106 o
-2 5 1 13.326 14.807 0.270 2.989 o
-2 5 2 156.552 171.056 2.529 0.022 o
-2 5 3 112.479 109.248 1.660 0.047 o
-2 5 4 0.569 0.710 0.050 823.339 o
-2 5 5 119.135 129.814 1.940 0.039 o
-2 5 6 0.750 1.160 0.050 529.028 o
-2 5 7 59.277 61.698 0.940 0.161 o
-2 5 8 256.259 256.559 3.699 0.009 o
-2 5 9 115.798 114.017 1.710 0.044 o
-2 5 10 149.559 150.490 2.200 0.026 o
-2 5 11 14.016 14.607 0.300 2.802 o
-2 5 12 1.633 2.080 0.100 131.362 o
-2 5 13 71.270 67.886 1.070 0.118 o
-2 5 14 18.119 17.337 0.360 1.784 o
-2 5 15 32.763 31.464 0.630 0.546 o
-2 5 16 78.218 73.965 1.350 0.098 o
-2 5 17 21.199 21.146 0.540 1.228 o
-2 5 18 78.509 73.175 1.790 0.095 o
-2 5 19 1.410 1.550 0.100 170.541 o
-2 5 20 7.534 7.788 0.250 9.000 o
-2 5 21 6.771 6.349 0.230 11.704 o
-2 5 22 9.629 10.168 0.350 5.303 o
-2 5 23 27.482 26.015 1.350 0.611 o
-2 6 -1 397.494 396.311 6.049 0.004 o
-2 6 0 280.721 266.727 3.959 0.008 o
-2 6 1 0.181 0.120 0.050 1595.430 o
-2 6 2 0.000 0.060 0.040 2671.980 o
-2 6 3 293.455 290.132 4.469 0.007 o
-2 6 4 8.284 7.439 0.190 8.702 o
-2 6 5 283.686 277.744 4.159 0.007 o
-2 6 6 4.346 4.889 0.130 26.298 o
-2 6 7 170.039 165.257 2.479 0.021 o
-2 6 8 281.358 273.715 4.009 0.008 o
-2 6 9 57.361 58.058 0.960 0.174 o
-2 6 10 0.246 0.370 0.060 1022.770 o
-2 6 11 16.115 15.657 0.310 2.242 o
-2 6 12 15.254 15.197 0.320 2.440 o
-2 6 13 0.446 0.470 0.060 845.232 o
-2 6 14 111.752 105.669 1.810 0.048 o
-2 6 15 22.060 21.156 0.460 1.195 o
-2 6 16 21.849 21.326 0.550 1.174 o
-2 6 17 38.022 35.823 0.880 0.401 o
-2 6 18 0.121 0.150 0.070 852.944 o
-2 6 19 33.278 32.283 0.810 0.511 o
-2 6 20 16.792 17.587 0.560 1.795 o
-2 6 21 1.725 1.910 0.120 115.358 o
-2 6 22 1.208 1.520 0.150 123.244 o
-2 7 -1 5.231 5.399 0.150 19.328 o
-2 7 0 17.790 18.886 0.360 1.729 o
-2 7 1 2.245 2.919 0.130 70.980 o
-2 7 2 14.694 17.107 0.340 2.345 o
-2 7 3 51.189 51.610 0.880 0.219 o
-2 7 4 50.172 51.080 0.850 0.227 o
-2 7 5 45.969 47.300 0.820 0.267 o
-2 7 6 67.260 65.047 1.090 0.131 o
-2 7 7 107.533 105.889 1.680 0.051 o
-2 7 8 0.004 0.070 0.060 1188.080 o
-2 7 9 24.315 24.985 0.490 0.946 o
-2 7 10 22.513 23.265 0.460 1.098 o
-2 7 11 4.397 4.759 0.170 24.576 o
-2 7 12 45.375 44.291 0.850 0.283 o
-2 7 13 4.016 4.009 0.140 31.883 o
-2 7 14 0.994 0.930 0.090 288.678 o
-2 7 15 104.316 97.430 2.300 0.054 o
-2 7 16 18.336 18.176 0.490 1.634 o
-2 7 17 6.427 6.579 0.210 12.491 o
-2 7 18 8.846 9.108 0.280 6.622 o
-2 7 19 30.572 29.464 0.950 0.579 o
-2 7 20 2.647 2.829 0.150 57.322 o
-2 7 21 0.193 0.340 0.120 289.029 o
-2 8 -1 28.166 26.845 0.480 0.751 o
-2 8 0 0.497 0.500 0.070 642.482 o
-2 8 1 70.751 69.026 1.140 0.118 o
-2 8 2 58.951 57.209 0.950 0.170 o
-2 8 3 40.931 39.812 0.710 0.351 o
-2 8 4 202.803 191.172 2.949 0.015 o
-2 8 5 58.272 56.569 0.970 0.174 o
-2 8 6 239.468 225.425 3.489 0.011 o
-2 8 7 10.344 10.618 0.280 5.015 o
-2 8 8 2.059 2.230 0.130 87.778 o
-2 8 9 8.692 9.088 0.250 6.942 o
-2 8 10 58.538 56.479 1.110 0.171 o
-2 8 11 0.939 0.990 0.100 259.377 o
-2 8 12 9.008 9.048 0.280 6.509 o
-2 8 13 28.725 28.774 0.770 0.661 o
-2 8 14 83.836 78.174 1.920 0.083 o
-2 8 15 1.473 1.610 0.100 162.069 o
-2 8 16 1.372 1.510 0.100 176.127 o
-2 8 17 3.746 4.029 0.170 31.981 o
-2 8 18 52.737 51.370 1.750 0.190 o
-2 8 19 3.941 4.709 0.200 25.887 o
-2 8 20 0.289 0.370 0.130 243.187 o
-2 9 -1 14.133 14.737 0.340 2.712 o
-2 9 0 8.472 8.588 0.240 7.468 o
-2 9 1 0.775 0.700 0.080 411.567 o
-2 9 2 0.503 0.520 0.090 430.674 o
-2 9 3 1.444 1.700 0.110 148.922 o
-2 9 4 185.823 175.885 2.839 0.017 o
-2 9 5 21.134 19.936 0.440 1.316 o
-2 9 6 4.122 4.409 0.190 26.309 o
-2 9 7 0.681 0.800 0.100 312.599 o
-2 9 8 2.660 2.709 0.140 60.656 o
-2 9 9 0.684 0.890 0.100 305.164 o
-2 9 10 8.449 8.668 0.320 6.913 o
-2 9 11 2.995 3.309 0.160 45.555 o
-2 9 12 9.768 9.878 0.360 5.260 o
-2 9 13 1.153 1.190 0.120 177.969 o
-2 9 14 34.089 33.523 0.960 0.470 o
-2 9 15 39.901 37.633 1.080 0.355 o
-2 9 16 0.451 0.540 0.120 266.930 o
-2 9 17 0.657 0.860 0.120 236.080 o
-2 9 18 6.397 6.509 0.280 11.475 o
-2 9 19 15.843 15.547 0.570 2.049 o
-2 10 -1 18.997 18.836 0.480 1.537 o
-2 10 0 57.094 54.339 1.090 0.181 o
-2 10 1 0.008 0.020 0.070 873.875 o
-2 10 2 73.633 69.646 1.410 0.109 o
-2 10 3 16.021 15.217 0.420 2.204 o
-2 10 4 47.556 44.751 0.970 0.261 o
-2 10 5 120.848 112.997 2.120 0.041 o
-2 10 6 0.278 0.380 0.100 400.502 o
-2 10 7 4.616 4.609 0.210 21.884 o
-2 10 8 7.284 7.469 0.320 8.800 o
-2 10 9 5.130 4.989 0.220 18.430 o
-2 10 10 11.564 11.918 0.420 3.730 o
-2 10 11 0.613 0.650 0.110 287.745 o
-2 10 12 49.358 48.600 1.410 0.224 o
-2 10 13 24.879 25.095 0.790 0.847 o
-2 10 14 1.857 1.770 0.150 92.500 o
-2 10 15 16.777 16.337 0.720 1.721 o
-2 10 16 4.370 4.679 0.270 19.886 o
-2 10 17 9.832 10.058 0.400 4.986 o
-2 11 -1 2.910 3.169 0.190 42.816 o
-2 11 0 0.599 0.810 0.120 243.482 o
-2 11 1 0.296 0.310 0.120 284.689 o
-2 11 2 23.894 23.875 0.750 0.926 o
-2 11 3 67.731 64.817 2.060 0.119 o
-2 11 4 22.573 20.996 0.670 1.095 o
-2 11 5 20.297 20.016 0.630 1.296 o
-2 11 6 3.714 4.069 0.210 28.802 o
-2 11 7 0.526 0.550 0.120 260.633 o
-2 11 8 2.918 2.979 0.180 45.612 o
-2 11 9 8.733 9.178 0.360 6.195 o
-2 11 10 0.441 0.500 0.140 202.890 o
-2 11 11 0.464 0.530 0.120 266.341 o
-2 11 12 5.581 5.969 0.310 13.046 o
-2 11 13 7.539 7.249 0.360 8.173 o
-2 11 14 21.561 20.856 0.910 1.053 o
-2 11 15 0.419 0.630 0.170 139.937 o
-2 12 -1 14.412 13.827 0.520 2.505 o
-2 12 0 19.454 20.226 0.730 1.298 o
-2 12 1 27.869 26.555 0.870 0.700 o
-2 12 2 2.760 3.039 0.180 47.397 o
-2 12 3 25.260 23.325 0.780 0.870 o
-2 12 4 14.122 13.997 0.510 2.561 o
-2 12 5 1.142 1.330 0.140 143.065 o
-2 12 6 1.360 1.390 0.150 119.420 o
-2 12 7 5.692 5.799 0.280 13.726 o
-2 12 8 2.947 2.859 0.190 44.270 o
-2 12 9 1.022 1.080 0.160 128.522 o
-2 12 10 12.161 13.187 0.600 2.907 o
-2 12 11 15.921 16.007 0.710 1.849 o
-2 12 12 21.062 20.826 0.990 1.041 o
-2 12 13 0.706 0.870 0.210 88.819 o
-2 13 -1 1.027 1.290 0.180 103.840 o
-2 13 0 0.065 0.180 0.150 189.707 o
-2 13 1 19.291 19.396 0.830 1.279 o
-2 13 2 31.474 31.154 1.310 0.491 o
-2 13 3 0.550 0.540 0.140 197.097 o
-2 13 4 4.617 4.689 0.270 18.924 o
-2 13 5 0.208 0.430 0.160 163.682 o
-2 13 6 8.202 7.818 0.390 6.949 o
-2 13 7 12.301 12.508 0.580 3.003 o
-2 13 8 1.523 1.490 0.230 61.908 o
-2 13 9 1.108 1.220 0.220 74.173 o
-2 13 10 0.402 0.630 0.220 85.610 o
-2 14 -1 16.387 16.557 0.880 1.586 o
-2 14 0 3.927 4.069 0.350 18.224 o
-2 14 1 8.961 9.108 0.560 4.803 o
-2 14 2 4.267 3.709 0.360 17.254 o
-2 14 3 0.643 0.740 0.330 38.189 o
-2 14 4 3.965 4.209 0.380 16.409 o
-2 14 5 0.304 6.159 1.640 1.571 o
-1 0 1 1258.970 0.010 0.040 0.001 o
-1 0 3 77.340 76.295 1.590 0.096 o
-1 0 5 196.347 198.950 4.029 0.015 o
-1 0 7 20.657 23.715 0.550 1.174 o
-1 0 9 3944.120 3885.850 100.200 0.000 o
-1 0 11 36.457 40.092 0.930 0.390 o
-1 0 13 16.680 16.837 0.460 1.942 o
-1 0 15 76.020 74.025 1.590 0.100 o
-1 0 17 0.300 0.400 0.090 481.772 o
-1 0 19 8.902 8.688 0.350 6.319 o
-1 0 21 3.987 3.859 0.200 28.400 o
-1 0 23 0.179 0.300 0.120 290.522 o
-1 1 0 30.061 27.924 1.400 0.529 o
-1 1 1 1118.010 1077.700 28.984 0.000 o
-1 1 2 2.160 2.919 0.080 89.466 o
-1 1 3 1233.290 1287.330 22.236 0.000 o
-1 1 4 161.802 159.928 2.330 0.022 o
-1 1 5 127.730 125.155 1.810 0.036 o
-1 1 6 54.776 55.799 0.840 0.192 o
-1 1 7 232.215 227.754 3.229 0.011 o
-1 1 8 180.950 183.553 2.639 0.018 o
-1 1 9 13.527 15.227 0.290 2.858 o
-1 1 10 467.899 474.995 6.959 0.003 o
-1 1 11 961.150 973.735 15.177 0.001 o
-1 1 12 420.672 422.785 6.049 0.003 o
-1 1 13 5.916 5.829 0.160 15.724 o
-1 1 14 33.256 34.133 0.580 0.513 o
-1 1 15 13.248 13.427 0.280 3.197 o
-1 1 16 33.005 32.434 0.560 0.537 o
-1 1 17 0.540 0.490 0.060 771.977 o
-1 1 18 115.043 104.879 1.760 0.047 o
-1 1 19 225.531 202.250 4.629 0.012 o
-1 1 20 72.641 66.467 1.590 0.113 o
-1 1 21 0.234 0.360 0.070 787.063 o
-1 1 22 50.441 47.241 1.140 0.230 o
-1 1 23 110.484 102.490 3.049 0.047 o
-1 1 24 2.004 2.230 0.120 94.772 o
-1 2 0 952.124 887.952 16.527 0.001 o
-1 2 1 132.680 122.206 1.940 0.035 o
-1 2 2 42.653 43.571 0.650 0.316 o
-1 2 3 540.851 523.735 8.428 0.002 o
-1 2 4 0.222 0.210 0.030 3458.590 o
-1 2 5 19.618 19.936 0.340 1.484 o
-1 2 6 29.688 26.545 0.430 0.711 o
-1 2 7 1184.660 1223.140 19.726 0.000 o
-1 2 8 1005.220 1012.370 16.287 0.001 o
-1 2 9 472.090 478.404 7.059 0.003 o
-1 2 10 769.155 764.677 11.868 0.001 o
-1 2 11 136.572 136.453 2.020 0.031 o
-1 2 12 9.504 10.318 0.230 5.839 o
-1 2 13 7.083 7.029 0.180 11.042 o
-1 2 14 10.984 11.518 0.250 4.509 o
-1 2 15 16.373 16.777 0.340 2.083 o
-1 2 16 11.066 11.198 0.270 4.499 o
-1 2 17 7.134 7.139 0.190 10.742 o
-1 2 18 8.653 8.388 0.220 7.503 o
-1 2 19 18.125 16.867 0.430 1.772 o
-1 2 20 7.099 6.939 0.220 10.656 o
-1 2 21 1.750 1.820 0.100 132.223 o
-1 2 22 0.208 0.230 0.070 818.860 o
-1 2 23 22.786 21.336 0.660 1.077 o
-1 2 24 2.796 2.849 0.140 56.372 o
-1 3 0 134.504 123.395 1.780 0.034 o
-1 3 1 195.163 209.458 3.079 0.015 o
-1 3 2 9.410 13.807 0.230 4.784 o
-1 3 3 119.121 121.856 1.780 0.040 o
-1 3 4 670.095 701.620 11.068 0.001 o
-1 3 5 2.126 3.499 0.100 74.422 o
-1 3 6 14.943 16.637 0.300 2.376 o
-1 3 7 5.831 6.589 0.150 14.971 o
-1 3 8 52.239 52.370 0.820 0.213 o
-1 3 9 590.745 606.739 9.278 0.002 o
-1 3 10 22.974 23.955 0.420 1.059 o
-1 3 11 13.694 15.067 0.290 2.836 o
-1 3 12 56.932 60.158 0.930 0.173 o
-1 3 13 323.598 305.929 4.399 0.006 o
-1 3 14 277.983 258.998 3.699 0.008 o
-1 3 15 36.247 35.413 0.610 0.447 o
-1 3 16 101.317 94.591 1.420 0.060 o
-1 3 17 111.642 103.459 1.760 0.049 o
-1 3 18 27.347 25.555 0.630 0.780 o
-1 3 19 0.306 0.440 0.070 741.436 o
-1 3 20 11.730 11.888 0.330 3.902 o
-1 3 21 166.261 151.570 3.569 0.022 o
-1 3 22 39.048 37.832 1.110 0.361 o
-1 3 23 5.183 5.329 0.200 18.230 o
-1 3 24 0.129 0.180 0.100 421.891 o
-1 4 0 85.446 64.197 0.960 0.096 o
-1 4 1 10.298 7.928 0.150 6.428 o
-1 4 2 47.182 45.451 0.690 0.269 o
-1 4 3 33.356 35.363 0.550 0.501 o
-1 4 4 122.998 114.637 1.680 0.041 o
-1 4 5 416.954 413.417 6.229 0.003 o
-1 4 6 854.305 873.745 13.707 0.001 o
-1 4 7 578.404 605.029 9.278 0.002 o
-1 4 8 15.628 15.267 0.300 2.376 o
-1 4 9 13.573 13.357 0.270 3.124 o
-1 4 10 57.540 58.348 0.910 0.174 o
-1 4 11 307.038 293.711 4.239 0.006 o
-1 4 12 41.111 42.441 0.680 0.336 o
-1 4 13 34.701 33.943 0.590 0.487 o
-1 4 14 6.909 7.918 0.210 10.247 o
-1 4 15 1.346 1.400 0.090 200.638 o
-1 4 16 3.484 3.839 0.130 39.183 o
-1 4 17 3.384 3.549 0.130 42.351 o
-1 4 18 18.191 17.137 0.450 1.735 o
-1 4 19 30.766 28.784 0.700 0.617 o
-1 4 20 17.810 16.897 0.440 1.803 o
-1 4 21 21.950 21.446 0.550 1.163 o
-1 4 22 8.255 8.478 0.280 7.482 o
-1 4 23 3.362 3.379 0.170 39.056 o
-1 4 24 6.643 7.419 0.830 4.166 o
-1 5 0 42.989 39.252 0.600 0.335 o
-1 5 1 4.698 7.399 0.150 17.434 o
-1 5 2 0.176 0.140 0.040 2390.980 o
-1 5 3 11.141 12.837 0.240 4.144 o
-1 5 4 47.161 48.920 0.740 0.255 o
-1 5 5 200.741 202.420 2.869 0.014 o
-1 5 6 101.522 103.509 1.550 0.056 o
-1 5 7 193.373 190.602 2.919 0.016 o
-1 5 8 21.264 21.706 0.390 1.253 o
-1 5 9 11.669 12.797 0.260 3.890 o
-1 5 10 6.884 8.748 0.210 9.619 o
-1 5 11 18.499 18.596 0.360 1.663 o
-1 5 12 12.929 13.957 0.300 3.186 o
-1 5 13 6.919 7.089 0.190 11.194 o
-1 5 14 127.699 121.006 1.840 0.037 o
-1 5 15 391.964 359.948 5.999 0.004 o
-1 5 16 25.648 25.425 0.540 0.865 o
-1 5 17 0.301 0.430 0.070 745.699 o
-1 5 18 10.654 10.238 0.300 4.881 o
-1 5 19 14.524 14.857 0.410 2.529 o
-1 5 20 24.796 24.575 0.630 0.902 o
-1 5 21 93.142 87.493 2.639 0.065 o
-1 5 22 1.045 1.180 0.110 208.356 o
-1 5 23 5.256 5.289 0.220 17.413 o
-1 6 0 246.159 252.520 3.649 0.009 o
-1 6 1 32.039 39.252 0.630 0.484 o
-1 6 2 6.825 6.359 0.150 12.623 o
-1 6 3 4.584 7.129 0.160 18.167 o
-1 6 4 126.034 130.554 1.910 0.036 o
-1 6 5 685.273 670.936 10.158 0.001 o
-1 6 6 87.232 93.741 1.400 0.073 o
-1 6 7 44.485 45.861 0.720 0.287 o
-1 6 8 8.433 9.048 0.210 7.442 o
-1 6 9 3.020 2.749 0.100 60.203 o
-1 6 10 7.752 7.299 0.210 9.402 o
-1 6 11 69.378 65.787 1.030 0.125 o
-1 6 12 24.386 24.925 0.460 0.950 o
-1 6 13 91.019 87.713 1.340 0.072 o
-1 6 14 4.383 4.729 0.150 25.707 o
-1 6 15 3.076 3.579 0.130 46.639 o
-1 6 16 12.439 11.858 0.330 3.640 o
-1 6 17 1.918 2.020 0.100 115.317 o
-1 6 18 25.500 24.295 0.620 0.879 o
-1 6 19 11.136 11.088 0.330 4.328 o
-1 6 20 33.096 31.504 0.930 0.509 o
-1 6 21 6.978 7.309 0.260 10.068 o
-1 6 22 6.427 6.639 0.280 11.298 o
-1 7 0 0.637 0.600 0.050 811.715 o
-1 7 1 0.278 0.200 0.040 2085.950 o
-1 7 2 0.143 0.080 0.040 2511.100 o
-1 7 3 0.373 0.560 0.070 685.469 o
-1 7 4 4.503 4.659 0.140 25.594 o
-1 7 5 2.807 2.739 0.100 65.683 o
-1 7 6 216.793 208.718 3.159 0.013 o
-1 7 7 8.373 9.228 0.220 7.355 o
-1 7 8 0.351 0.610 0.060 863.332 o
-1 7 9 44.220 43.031 0.700 0.302 o
-1 7 10 11.052 11.878 0.270 4.341 o
-1 7 11 23.493 23.175 0.430 1.050 o
-1 7 12 16.143 15.627 0.330 2.224 o
-1 7 13 37.811 36.763 0.710 0.408 o
-1 7 14 12.636 12.907 0.320 3.410 o
-1 7 15 102.152 95.391 2.330 0.056 o
-1 7 16 32.795 31.574 0.810 0.527 o
-1 7 17 73.403 69.596 1.660 0.108 o
-1 7 18 21.171 21.396 0.560 1.214 o
-1 7 19 3.510 3.999 0.180 33.331 o
-1 7 20 29.402 28.624 0.890 0.626 o
-1 7 21 18.838 18.696 0.660 1.452 o
-1 8 0 75.082 70.956 1.110 0.107 o
-1 8 1 154.289 152.649 2.250 0.025 o
-1 8 2 0.061 0.090 0.040 2618.500 o
-1 8 3 109.680 110.268 1.680 0.048 o
-1 8 4 160.904 153.899 2.410 0.023 o
-1 8 5 152.520 149.700 2.280 0.025 o
-1 8 6 0.966 1.160 0.080 306.605 o
-1 8 7 2.378 2.629 0.120 74.417 o
-1 8 8 35.831 36.063 0.630 0.447 o
-1 8 9 19.302 18.816 0.390 1.551 o
-1 8 10 35.030 33.773 0.600 0.482 o
-1 8 11 4.939 5.349 0.170 20.169 o
-1 8 12 0.857 0.970 0.080 353.936 o
-1 8 13 24.009 23.485 0.670 0.953 o
-1 8 14 43.892 43.311 1.090 0.290 o
-1 8 15 0.960 1.290 0.090 263.484 o
-1 8 16 5.560 5.789 0.200 16.085 o
-1 8 17 23.089 21.796 0.580 1.073 o
-1 8 18 0.001 0.020 0.080 669.156 o
-1 8 19 11.117 11.378 0.380 4.125 o
-1 8 20 1.338 1.620 0.140 125.227 o
-1 9 0 2.704 2.679 0.130 62.381 o
-1 9 1 3.545 3.829 0.160 35.712 o
-1 9 2 5.738 5.879 0.200 15.389 o
-1 9 3 0.009 0.020 0.040 2674.840 o
-1 9 4 7.140 7.189 0.220 10.367 o
-1 9 5 21.806 21.016 0.440 1.224 o
-1 9 6 3.322 3.379 0.150 41.995 o
-1 9 7 11.110 11.488 0.330 4.249 o
-1 9 8 31.100 30.014 0.660 0.598 o
-1 9 9 13.218 13.467 0.380 3.050 o
-1 9 10 61.454 57.888 1.130 0.158 o
-1 9 11 25.674 25.345 0.680 0.837 o
-1 9 12 21.605 21.426 0.570 1.180 o
-1 9 13 3.837 3.949 0.180 30.743 o
-1 9 14 0.247 0.410 0.080 607.829 o
-1 9 15 52.441 50.280 1.230 0.208 o
-1 9 16 0.309 0.410 0.090 479.231 o
-1 9 17 48.937 48.320 1.490 0.224 o
-1 9 18 3.118 3.389 0.180 40.512 o
-1 9 19 28.661 27.424 0.910 0.658 o
-1 10 0 1.437 1.640 0.110 151.743 o
-1 10 1 85.072 81.354 1.590 0.081 o
-1 10 2 0.273 0.370 0.090 488.749 o
-1 10 3 151.747 144.521 2.659 0.026 o
-1 10 4 49.170 47.241 0.950 0.242 o
-1 10 5 14.930 15.057 0.420 2.416 o
-1 10 6 25.701 25.545 0.620 0.845 o
-1 10 7 0.346 0.460 0.100 387.565 o
-1 10 8 3.420 3.279 0.170 38.961 o
-1 10 9 68.566 65.447 1.870 0.119 o
-1 10 10 0.589 0.700 0.100 334.880 o
-1 10 11 0.118 0.220 0.100 421.367 o
-1 10 12 1.221 1.460 0.120 161.950 o
-1 10 13 0.023 0.100 0.100 427.555 o
-1 10 14 5.864 6.219 0.250 13.495 o
-1 10 15 31.496 30.944 1.010 0.535 o
-1 10 16 1.033 1.290 0.130 165.925 o
-1 10 17 0.085 0.140 0.120 295.853 o
-1 10 18 2.509 6.729 0.910 4.569 o
-1 11 0 1.847 2.020 0.140 94.261 o
-1 11 1 9.829 10.418 0.380 4.979 o
-1 11 2 0.362 0.460 0.100 385.538 o
-1 11 3 5.274 5.579 0.240 16.259 o
-1 11 4 1.957 2.090 0.150 83.952 o
-1 11 5 1.128 1.200 0.130 162.566 o
-1 11 6 0.133 0.190 0.100 421.338 o
-1 11 7 0.901 1.260 0.130 176.105 o
-1 11 8 1.492 1.560 0.140 119.183 o
-1 11 9 15.194 14.987 0.520 2.255 o
-1 11 10 23.338 23.045 0.740 0.975 o
-1 11 11 22.230 22.305 0.730 1.055 o
-1 11 12 11.443 11.298 0.510 3.615 o
-1 11 13 10.695 10.578 0.490 4.084 o
-1 11 14 38.195 38.002 1.610 0.331 o
-1 11 15 8.206 8.088 0.410 6.660 o
-1 11 16 3.930 3.779 0.400 16.030 o
-1 12 0 10.701 10.768 0.400 4.375 o
-1 12 1 27.647 26.705 0.830 0.713 o
-1 12 2 11.699 11.868 0.410 3.717 o
-1 12 3 82.081 78.794 2.290 0.082 o
-1 12 4 2.279 2.659 0.180 58.168 o
-1 12 5 5.645 6.179 0.280 13.389 o
-1 12 6 3.445 3.539 0.210 32.905 o
-1 12 7 37.295 35.303 1.080 0.399 o
-1 12 8 7.384 7.409 0.330 8.599 o
-1 12 9 0.519 0.750 0.160 152.249 o
-1 12 10 6.094 6.069 0.320 11.698 o
-1 12 11 9.251 9.708 0.470 5.035 o
-1 12 12 0.003 0.080 0.160 167.261 o
-1 12 13 0.059 0.130 0.170 147.948 o
-1 13 0 3.031 3.159 0.270 30.552 o
-1 13 1 0.010 0.090 0.160 167.237 o
-1 13 2 3.396 3.929 0.270 26.137 o
-1 13 3 0.174 0.280 0.140 215.089 o
-1 13 4 0.023 0.170 0.150 190.037 o
-1 13 5 0.045 0.120 0.160 167.072 o
-1 13 6 4.216 4.529 0.290 19.735 o
-1 13 7 0.923 1.120 0.180 108.820 o
-1 13 8 1.054 1.310 0.200 86.973 o
-1 13 9 3.815 3.549 0.280 24.155 o
-1 13 10 3.450 3.129 0.270 28.087 o
-1 14 0 10.745 11.058 0.650 3.397 o
-1 14 1 12.835 13.007 1.040 1.891 o
-1 14 2 7.464 7.439 0.510 6.529 o
-1 14 3 0.983 0.910 0.340 35.065 o
-1 14 4 16.616 16.487 0.890 1.558 o
-1 14 5 4.094 4.049 0.380 16.290 o
0 0 2 490.465 -0.030 0.030 0.006 o
0 0 4 1133.980 1197.000 28.214 0.000 o
0 0 6 32.477 33.193 0.720 0.526 o
0 0 8 87.019 99.820 2.070 0.067 o
0 0 10 555.106 554.869 11.838 0.002 o
0 0 12 426.852 405.059 8.148 0.003 o
0 0 14 112.529 113.907 2.460 0.044 o
0 0 16 17.788 20.256 0.550 1.547 o
0 0 18 1.017 1.040 0.110 218.759 o
0 0 20 1.214 1.480 0.120 161.708 o
0 0 22 81.101 72.146 2.350 0.087 o
0 0 24 6.784 7.179 0.340 9.388 o
0 1 1 209.097 -0.020 0.030 0.031 o
0 1 2 993.976 982.823 16.757 0.001 o
0 1 3 828.657 799.330 12.907 0.001 o
0 1 4 16.678 25.825 0.410 1.457 o
0 1 5 244.610 235.133 3.389 0.010 o
0 1 6 42.946 44.101 0.660 0.310 o
0 1 7 196.919 213.557 3.049 0.014 o
0 1 8 23.598 25.855 0.420 0.974 o
0 1 9 233.322 242.581 3.489 0.010 o
0 1 10 427.371 438.802 6.439 0.003 o
0 1 11 80.659 86.463 1.290 0.085 o
0 1 12 25.492 25.715 0.460 0.880 o
0 1 13 41.696 42.112 0.690 0.331 o
0 1 14 237.364 226.845 3.309 0.011 o
0 1 15 0.028 0.170 0.060 1176.580 o
0 1 16 192.517 179.754 2.639 0.017 o
0 1 17 21.485 21.076 0.400 1.258 o
0 1 18 17.446 16.137 0.360 1.956 o
0 1 19 4.225 4.169 0.140 29.410 o
0 1 20 58.900 51.800 1.240 0.176 o
0 1 21 0.489 0.570 0.080 516.305 o
0 1 22 0.037 0.210 0.090 524.589 o
0 1 23 1.451 1.580 0.100 165.406 o
0 1 24 0.362 0.390 0.090 471.495 o
0 2 0 4517.200 4551.680 558.518 0.000 o
0 2 2 7473.300 7629.680 935.853 0.000 o
0 2 3 10.133 12.258 0.210 4.861 o
0 2 4 412.386 418.126 6.439 0.003 o
0 2 5 39.616 50.610 0.760 0.308 o
0 2 6 495.304 514.527 8.088 0.002 o
0 2 7 1.562 2.060 0.070 163.756 o
0 2 8 83.699 84.423 1.250 0.083 o
0 2 9 184.819 192.252 2.769 0.017 o
0 2 10 1.127 1.320 0.070 285.338 o
0 2 11 566.119 549.590 7.838 0.002 o
0 2 12 83.849 86.073 1.300 0.081 o
0 2 13 0.350 0.310 0.060 971.484 o
0 2 14 60.054 57.209 0.890 0.167 o
0 2 15 47.718 48.720 0.780 0.251 o
0 2 16 2.872 3.269 0.120 54.423 o
0 2 17 4.957 5.369 0.160 20.355 o
0 2 18 0.093 0.170 0.050 1646.880 o
0 2 19 1.736 1.910 0.090 138.100 o
0 2 20 37.486 34.643 0.830 0.420 o
0 2 21 10.728 10.628 0.290 4.766 o
0 2 22 0.551 0.660 0.090 405.813 o
0 2 23 16.865 16.577 0.520 1.884 o
0 2 24 18.137 17.207 0.520 1.690 o
0 3 1 32.231 26.045 0.410 0.644 o
0 3 2 29.176 34.193 0.530 0.607 o
0 3 3 27.509 20.316 0.330 0.931 o
0 3 4 771.702 736.263 12.128 0.001 o
0 3 5 222.420 232.414 3.359 0.011 o
0 3 6 41.654 46.311 0.710 0.310 o
0 3 7 40.980 39.202 0.620 0.357 o
0 3 8 184.913 200.030 2.839 0.016 o
0 3 9 58.569 60.048 0.910 0.167 o
0 3 10 3.829 4.059 0.120 34.814 o
0 3 11 11.664 13.467 0.270 3.743 o
0 3 12 310.766 305.869 4.369 0.006 o
0 3 13 44.834 44.701 0.710 0.290 o
0 3 14 48.500 48.700 0.780 0.246 o
0 3 15 0.955 1.090 0.080 316.800 o
0 3 16 78.846 74.025 1.140 0.098 o
0 3 17 25.332 24.505 0.500 0.907 o
0 3 18 15.904 15.207 0.340 2.297 o
0 3 19 132.518 118.386 2.719 0.035 o
0 3 20 4.798 5.139 0.160 21.697 o
0 3 21 46.035 42.392 1.000 0.280 o
0 3 22 0.089 0.150 0.080 660.432 o
0 3 23 0.034 0.110 0.090 527.106 o
0 3 24 1.528 1.600 0.120 135.713 o
0 4 0 1.049 0.680 0.060 441.371 o
0 4 1 21.014 18.316 0.310 1.438 o
0 4 2 1448.150 1465.160 24.435 0.000 o
0 4 3 2727.360 2713.280 48.150 0.000 o
0 4 4 536.090 534.873 8.148 0.002 o
0 4 5 323.616 315.587 4.549 0.006 o
0 4 6 11.271 8.518 0.190 5.357 o
0 4 7 265.214 278.034 4.009 0.008 o
0 4 8 0.179 0.210 0.040 2307.440 o
0 4 9 15.485 16.377 0.310 2.290 o
0 4 10 285.377 279.284 4.009 0.007 o
0 4 11 202.317 198.840 2.899 0.014 o
0 4 12 10.740 10.768 0.240 4.864 o
0 4 13 11.605 11.438 0.250 4.231 o
0 4 14 0.002 0.040 0.040 2674.290 o
0 4 15 38.866 38.902 0.650 0.383 o
0 4 16 18.496 18.426 0.390 1.659 o
0 4 17 0.068 0.060 0.050 1692.410 o
0 4 18 32.002 30.134 0.740 0.567 o
0 4 19 18.890 17.747 0.460 1.615 o
0 4 20 4.057 4.479 0.160 28.344 o
0 4 21 5.729 6.219 0.200 14.909 o
0 4 22 3.771 3.829 0.160 33.485 o
0 4 23 1.656 1.860 0.120 120.437 o
0 4 24 0.212 3.089 0.520 15.287 o
0 5 1 0.058 0.180 0.040 2565.090 o
0 5 2 0.475 1.290 0.060 565.966 o
0 5 3 12.787 13.117 0.250 3.434 o
0 5 4 5.634 3.779 0.100 22.639 o
0 5 5 112.073 108.108 1.580 0.048 o
0 5 6 313.583 308.658 4.419 0.006 o
0 5 7 5.898 7.139 0.170 13.702 o
0 5 8 5.342 6.389 0.160 16.713 o
0 5 9 22.409 21.146 0.390 1.191 o
0 5 10 22.544 24.405 0.440 1.067 o
0 5 11 30.055 30.244 0.520 0.636 o
0 5 12 194.079 189.812 2.769 0.016 o
0 5 13 10.688 10.588 0.250 4.918 o
0 5 14 14.003 14.867 0.320 2.751 o
0 5 15 10.045 10.008 0.240 5.530 o
0 5 16 23.393 22.835 0.480 1.053 o
0 5 17 87.505 80.104 1.860 0.078 o
0 5 18 4.113 4.499 0.170 27.274 o
0 5 19 34.703 33.583 0.810 0.473 o
0 5 20 93.109 86.073 2.000 0.068 o
0 5 21 0.468 0.610 0.090 428.657 o
0 5 22 13.659 13.777 0.460 2.767 o
0 5 23 18.117 17.077 0.560 1.671 o
0 6 0 10.272 8.458 0.260 5.841 o
0 6 1 54.657 56.059 0.870 0.191 o
0 6 2 62.972 62.208 0.960 0.148 o
0 6 3 42.994 46.031 0.720 0.299 o
0 6 4 800.319 787.393 11.998 0.001 o
0 6 5 325.444 328.364 4.729 0.005 o
0 6 6 19.841 18.886 0.350 1.510 o
0 6 7 7.238 6.979 0.170 10.895 o
0 6 8 77.023 82.204 1.260 0.094 o
0 6 9 65.978 65.617 1.030 0.134 o
0 6 10 167.767 162.478 2.380 0.021 o
0 6 11 0.029 0.130 0.050 1694.010 o
0 6 12 5.433 6.029 0.170 16.812 o
0 6 13 13.362 12.977 0.290 3.217 o
0 6 14 23.091 23.005 0.480 1.066 o
0 6 15 0.294 0.410 0.070 752.781 o
0 6 16 2.504 2.969 0.120 66.145 o
0 6 17 43.885 42.112 1.030 0.297 o
0 6 18 13.689 13.467 0.380 2.925 o
0 6 19 2.680 2.819 0.130 61.331 o
0 6 20 0.744 0.790 0.100 303.590 o
0 6 21 2.214 2.220 0.130 82.574 o
0 6 22 1.122 1.460 0.120 169.568 o
0 7 1 1.520 2.070 0.080 158.265 o
0 7 2 0.083 0.230 0.050 1631.980 o
0 7 3 9.625 8.778 0.200 6.474 o
0 7 4 12.649 13.247 0.260 3.445 o
0 7 5 0.395 0.540 0.060 856.685 o
0 7 6 75.284 72.436 1.090 0.106 o
0 7 7 22.871 22.605 0.400 1.111 o
0 7 8 104.642 102.490 1.530 0.054 o
0 7 9 11.970 12.367 0.280 3.819 o
0 7 10 6.974 8.208 0.210 9.901 o
0 7 11 43.426 42.172 0.730 0.312 o
0 7 12 17.046 17.946 0.370 1.879 o
0 7 13 24.448 24.025 0.530 0.954 o
0 7 14 81.829 76.585 1.370 0.090 o
0 7 15 0.186 0.250 0.060 1096.240 o
0 7 16 32.477 31.324 0.860 0.530 o
0 7 17 46.367 44.061 1.110 0.267 o
0 7 18 25.307 24.305 0.650 0.881 o
0 7 19 0.454 0.690 0.100 356.331 o
0 7 20 19.047 18.926 0.630 1.442 o
0 7 21 16.991 16.807 0.600 1.784 o
0 8 0 7.438 7.269 0.250 9.507 o
0 8 1 116.815 112.088 1.680 0.044 o
0 8 2 48.386 46.941 0.750 0.253 o
0 8 3 28.788 28.904 0.490 0.695 o
0 8 4 45.739 46.111 0.740 0.276 o
0 8 5 132.749 128.674 1.910 0.034 o
0 8 6 144.854 142.701 2.120 0.028 o
0 8 7 2.173 2.360 0.100 93.964 o
0 8 8 65.308 65.677 1.020 0.136 o
0 8 9 55.989 54.489 0.870 0.189 o
0 8 10 9.851 10.388 0.250 5.498 o
0 8 11 19.474 19.786 0.440 1.465 o
0 8 12 3.717 3.889 0.140 35.375 o
0 8 13 0.094 0.230 0.060 1145.540 o
0 8 14 12.701 12.887 0.370 3.302 o
0 8 15 3.089 3.599 0.140 44.963 o
0 8 16 22.396 22.136 0.600 1.097 o
0 8 17 8.326 8.778 0.270 7.325 o
0 8 18 2.379 2.809 0.140 65.966 o
0 8 19 0.565 0.760 0.110 286.966 o
0 8 20 5.345 5.669 0.250 15.616 o
0 9 1 0.222 0.290 0.060 1063.820 o
0 9 2 29.300 29.404 0.530 0.668 o
0 9 3 7.371 7.299 0.190 10.186 o
0 9 4 0.805 0.940 0.070 426.335 o
0 9 5 1.261 1.330 0.080 236.076 o
0 9 6 46.529 45.621 0.760 0.271 o
0 9 7 0.106 0.080 0.050 1668.370 o
0 9 8 51.061 50.010 0.920 0.224 o
0 9 9 4.967 4.739 0.150 22.205 o
0 9 10 36.846 37.073 0.720 0.419 o
0 9 11 6.446 6.519 0.200 12.665 o
0 9 12 2.763 2.849 0.120 61.266 o
0 9 13 2.375 2.559 0.130 72.380 o
0 9 14 26.459 26.455 0.680 0.786 o
0 9 15 83.090 80.274 1.880 0.083 o
0 9 16 2.540 2.859 0.150 59.174 o
0 9 17 7.492 7.948 0.290 8.562 o
0 9 18 9.797 9.808 0.340 5.356 o
0 9 19 3.314 3.219 0.190 37.959 o
0 10 0 168.972 157.309 3.409 0.021 o
0 10 1 0.000 0.100 0.050 1707.730 o
0 10 2 26.706 25.775 0.520 0.819 o
0 10 3 7.931 8.848 0.250 7.849 o
0 10 4 37.764 36.543 0.740 0.408 o
0 10 5 24.114 23.675 0.510 0.984 o
0 10 6 90.364 86.583 1.550 0.073 o
0 10 7 1.010 1.110 0.090 270.142 o
0 10 8 82.366 80.274 1.860 0.084 o
0 10 9 0.231 0.300 0.070 799.017 o
0 10 10 4.366 4.769 0.180 24.245 o
0 10 11 0.344 0.440 0.080 578.306 o
0 10 12 3.210 3.359 0.150 43.622 o
0 10 13 10.129 10.798 0.330 4.911 o
0 10 14 1.515 1.540 0.110 149.625 o
0 10 15 0.331 0.450 0.100 390.143 o
0 10 16 12.359 12.957 0.440 3.253 o
0 10 17 2.587 2.919 0.180 50.852 o
0 10 18 0.523 5.969 0.880 5.266 o
0 11 1 8.648 8.638 0.280 7.014 o
0 11 2 7.131 7.229 0.250 10.007 o
0 11 3 9.201 9.138 0.300 6.205 o
0 11 4 5.850 5.909 0.230 14.360 o
0 11 5 25.417 24.755 0.720 0.850 o
0 11 6 2.442 2.320 0.140 70.596 o
0 11 7 3.180 3.249 0.180 40.607 o
0 11 8 29.381 30.374 0.860 0.610 o
0 11 9 0.247 0.300 0.090 498.090 o
0 11 10 15.213 14.897 0.500 2.284 o
0 11 11 7.274 7.269 0.270 9.527 o
0 11 12 2.977 3.329 0.170 44.117 o
0 11 13 4.406 4.629 0.210 22.898 o
0 11 14 7.843 8.108 0.360 7.414 o
0 11 15 23.326 23.355 0.780 0.955 o
0 11 16 26.444 26.305 1.240 0.659 o
0 12 0 0.346 0.430 0.150 182.291 o
0 12 1 22.813 21.406 0.690 1.062 o
0 12 2 41.902 42.291 1.180 0.306 o
0 12 3 12.698 12.607 0.450 3.184 o
0 12 4 6.548 7.069 0.320 10.097 o
0 12 5 1.053 1.440 0.130 159.511 o
0 12 6 90.920 86.863 2.330 0.068 o
0 12 7 0.283 0.360 0.110 335.130 o
0 12 8 5.611 6.009 0.290 13.423 o
0 12 9 14.636 14.787 0.660 2.172 o
0 12 10 2.291 2.150 0.200 56.465 o
0 12 11 0.123 0.170 0.180 131.629 o
0 12 12 2.495 3.009 0.220 43.245 o
0 12 13 6.136 6.419 0.300 11.687 o
0 13 1 2.810 2.619 0.960 4.391 o
0 13 2 1.043 0.740 0.600 11.691 o
0 13 4 20.073 18.866 0.980 1.153 o
0 13 5 0.733 0.920 0.210 88.118 o
0 13 6 0.302 0.410 0.170 144.141 o
0 13 7 6.966 7.868 0.420 7.752 o
0 13 8 7.823 7.648 0.430 6.972 o
0 13 9 7.683 7.888 0.440 6.891 o
0 13 10 4.599 4.829 0.340 15.787 o
0 14 2 7.277 6.879 0.860 3.883 o
0 14 3 11.918 11.358 0.690 2.941 o
0 14 4 6.587 7.139 0.560 6.691 o
0 14 5 29.833 28.494 1.220 0.561 o
0 14 6 1.556 8.958 1.210 2.712 o
1 0 1 2051.260 -0.010 0.020 0.000 o
1 0 3 3475.380 3464.890 168.926 0.000 o
1 0 5 8225.770 8226.200 713.267 0.000 o
1 0 7 358.830 344.161 7.059 0.005 o
1 0 9 77.135 82.603 1.740 0.090 o
1 0 11 78.010 82.493 1.740 0.089 o
1 0 13 204.833 190.652 3.909 0.014 o
1 0 15 27.878 28.044 0.700 0.708 o
1 0 17 55.386 53.119 1.180 0.189 o
1 0 19 0.743 1.040 0.100 284.684 o
1 0 21 35.518 33.633 1.140 0.430 o
1 0 23 3.214 3.549 0.210 34.855 o
1 1 1 558.637 538.222 9.468 0.002 o
1 1 2 100.250 86.293 1.240 0.064 o
1 1 3 14.045 21.106 0.330 2.116 o
1 1 4 1.782 0.560 0.040 284.557 o
1 1 5 276.878 274.055 3.879 0.008 o
1 1 6 30.755 37.822 0.580 0.526 o
1 1 7 160.144 176.005 2.510 0.021 o
1 1 8 79.759 79.594 1.180 0.092 o
1 1 9 202.258 210.938 3.049 0.014 o
1 1 10 35.238 34.543 0.570 0.473 o
1 1 11 1.929 2.629 0.100 98.919 o
1 1 12 83.551 85.333 1.280 0.082 o
1 1 13 8.045 8.048 0.190 8.615 o
1 1 14 103.065 99.140 1.470 0.056 o
1 1 15 42.726 42.522 0.690 0.319 o
1 1 16 28.847 29.014 0.510 0.690 o
1 1 17 6.144 5.699 0.160 15.210 o
1 1 18 5.797 6.129 0.180 15.245 o
1 1 19 0.285 0.470 0.070 744.308 o
1 1 20 0.026 0.060 0.050 1706.480 o
1 1 21 30.110 27.954 0.680 0.647 o
1 1 22 0.329 0.430 0.080 583.677 o
1 1 23 0.001 0.060 0.080 668.878 o
1 1 24 7.128 6.959 0.250 10.231 o
1 2 1 159.171 160.948 2.460 0.023 o
1 2 2 3441.750 3406.370 107.978 0.000 o
1 2 3 2819.690 2913.830 62.088 0.000 o
1 2 4 349.603 352.340 5.409 0.005 o
1 2 5 812.074 864.097 13.967 0.001 o
1 2 6 1463.880 1452.090 23.815 0.000 o
1 2 7 329.465 340.412 4.969 0.005 o
1 2 8 44.989 45.661 0.710 0.284 o
1 2 9 110.297 113.337 1.660 0.047 o
1 2 10 39.958 45.411 0.730 0.330 o
1 2 11 5.224 5.299 0.150 19.580 o
1 2 12 24.878 23.445 0.420 0.970 o
1 2 13 124.407 120.666 1.780 0.039 o
1 2 14 21.767 21.096 0.390 1.239 o
1 2 15 16.798 17.686 0.340 1.950 o
1 2 16 75.900 71.926 1.110 0.105 o
1 2 17 24.741 23.205 0.470 0.973 o
1 2 18 13.019 13.127 0.320 3.254 o
1 2 19 0.022 0.050 0.050 1708.330 o
1 2 20 28.866 27.744 0.690 0.684 o
1 2 21 22.061 21.006 0.570 1.163 o
1 2 22 7.372 7.309 0.220 9.886 o
1 2 23 0.016 0.050 0.080 668.634 o
1 2 24 6.689 6.519 0.230 11.698 o
1 3 1 93.893 101.690 1.470 0.063 o
1 3 2 200.615 176.335 2.559 0.016 o
1 3 3 213.776 218.496 3.129 0.013 o
1 3 4 98.042 99.470 1.420 0.060 o
1 3 5 55.602 63.567 0.940 0.171 o
1 3 6 116.460 117.087 1.680 0.043 o
1 3 7 61.779 65.957 0.990 0.146 o
1 3 8 139.019 141.512 2.040 0.030 o
1 3 9 234.258 224.805 3.229 0.011 o
1 3 10 417.932 417.956 5.919 0.003 o
1 3 11 31.404 33.213 0.560 0.563 o
1 3 12 103.904 100.610 1.530 0.055 o
1 3 13 56.513 57.548 0.910 0.180 o
1 3 14 3.418 4.359 0.130 36.900 o
1 3 15 2.518 2.889 0.110 69.312 o
1 3 16 24.697 23.135 0.440 0.983 o
1 3 17 17.007 17.037 0.370 1.947 o
1 3 18 27.217 24.415 0.600 0.811 o
1 3 19 0.529 0.570 0.070 612.099 o
1 3 20 32.114 30.514 0.740 0.560 o
1 3 21 9.030 8.818 0.260 6.700 o
1 3 22 26.312 24.845 0.730 0.811 o
1 3 23 4.865 4.889 0.180 21.253 o
1 3 24 22.027 19.876 0.590 1.196 o
1 4 1 1592.090 1587.860 26.765 0.000 o
1 4 2 1819.530 1849.760 30.644 0.000 o
1 4 3 15.013 12.578 0.240 2.867 o
1 4 4 1.825 1.230 0.050 200.673 o
1 4 5 77.285 90.722 1.340 0.087 o
1 4 6 93.090 96.521 1.420 0.066 o
1 4 7 144.890 147.940 2.120 0.027 o
1 4 8 330.678 333.653 4.759 0.005 o
1 4 9 3.582 4.149 0.120 37.027 o
1 4 10 4.595 4.979 0.140 23.997 o
1 4 11 66.112 62.438 0.960 0.139 o
1 4 12 47.507 48.660 0.770 0.253 o
1 4 13 0.315 0.580 0.070 706.927 o
1 4 14 46.882 45.261 0.750 0.270 o
1 4 15 1.805 2.080 0.090 127.028 o
1 4 16 88.655 79.994 1.380 0.079 o
1 4 17 32.518 31.174 0.610 0.556 o
1 4 18 0.049 0.130 0.050 1685.190 o
1 4 19 67.600 62.887 1.460 0.129 o
1 4 20 15.570 15.427 0.400 2.283 o
1 4 21 18.301 17.187 0.450 1.719 o
1 4 22 9.584 9.398 0.320 5.725 o
1 4 23 1.250 1.500 0.110 173.019 o
1 5 1 31.763 36.513 0.580 0.519 o
1 5 2 3.336 2.440 0.080 59.397 o
1 5 3 299.194 289.392 4.159 0.007 o
1 5 4 85.850 88.962 1.320 0.077 o
1 5 5 14.744 15.257 0.280 2.576 o
1 5 6 62.423 59.708 0.920 0.154 o
1 5 7 403.650 400.920 6.049 0.004 o
1 5 8 34.824 38.232 0.620 0.446 o
1 5 9 105.669 107.209 1.600 0.052 o
1 5 10 37.581 37.872 0.630 0.408 o
1 5 11 378.910 353.359 5.069 0.004 o
1 5 12 0.823 1.090 0.080 347.631 o
1 5 13 56.237 55.329 0.900 0.185 o
1 5 14 36.292 34.573 0.610 0.453 o
1 5 15 65.960 63.287 1.130 0.136 o
1 5 16 11.060 10.568 0.270 4.664 o
1 5 17 36.908 33.703 0.830 0.435 o
1 5 18 4.776 4.859 0.170 22.163 o
1 5 19 61.675 57.269 1.380 0.155 o
1 5 20 0.103 0.150 0.070 856.469 o
1 5 21 25.346 25.015 0.820 0.822 o
1 5 22 24.016 22.655 0.690 0.967 o
1 5 23 1.932 1.950 0.130 98.148 o
1 6 1 663.259 648.780 10.028 0.001 o
1 6 2 38.438 34.463 0.550 0.424 o
1 6 3 8.245 9.458 0.200 7.478 o
1 6 4 234.543 234.513 3.389 0.011 o
1 6 5 44.067 42.541 0.680 0.306 o
1 6 6 119.651 122.655 1.810 0.040 o
1 6 7 10.708 11.668 0.240 4.637 o
1 6 8 62.952 63.177 0.970 0.147 o
1 6 9 18.099 18.686 0.360 1.704 o
1 6 10 65.143 65.107 1.030 0.137 o
1 6 11 33.023 33.403 0.590 0.524 o
1 6 12 14.950 14.697 0.330 2.545 o
1 6 13 21.697 21.856 0.430 1.205 o
1 6 14 24.240 23.175 0.490 0.995 o
1 6 15 0.412 0.480 0.070 685.906 o
1 6 16 2.501 2.559 0.110 74.674 o
1 6 17 6.519 6.529 0.200 12.489 o
1 6 18 100.953 94.141 2.170 0.058 o
1 6 19 1.306 1.490 0.100 183.667 o
1 6 20 33.838 31.914 1.000 0.484 o
1 6 21 7.033 6.779 0.250 10.540 o
1 6 22 4.302 4.389 0.190 25.241 o
1 7 1 34.222 34.333 0.560 0.494 o
1 7 2 1.020 0.840 0.050 472.713 o
1 7 3 2.720 2.400 0.090 75.491 o
1 7 4 100.408 99.990 1.470 0.058 o
1 7 5 275.270 260.308 3.749 0.008 o
1 7 6 55.701 53.299 0.840 0.193 o
1 7 7 31.616 31.294 0.530 0.583 o
1 7 8 121.181 118.106 1.780 0.040 o
1 7 9 86.566 85.383 1.330 0.078 o
1 7 10 21.541 21.696 0.420 1.225 o
1 7 11 1.308 1.320 0.080 229.599 o
1 7 12 71.062 66.587 1.060 0.120 o
1 7 13 122.834 115.557 2.020 0.040 o
1 7 14 37.243 36.613 0.740 0.415 o
1 7 15 92.771 84.533 2.020 0.069 o
1 7 16 25.578 24.765 0.650 0.859 o
1 7 17 47.736 45.771 1.120 0.251 o
1 7 18 27.770 26.885 0.700 0.730 o
1 7 19 4.407 4.719 0.180 24.151 o
1 7 20 25.546 25.245 0.790 0.818 o
1 7 21 10.894 11.038 0.380 4.296 o
1 8 1 3.881 4.259 0.130 32.632 o
1 8 2 16.983 16.597 0.320 2.015 o
1 8 3 99.448 93.681 1.400 0.061 o
1 8 4 19.890 19.676 0.370 1.460 o
1 8 5 171.518 166.687 2.430 0.020 o
1 8 6 28.124 28.014 0.500 0.730 o
1 8 7 0.885 1.030 0.070 385.749 o
1 8 8 67.743 66.977 1.050 0.128 o
1 8 9 0.783 0.840 0.070 451.623 o
1 8 10 15.976 16.147 0.340 2.201 o
1 8 11 17.037 16.967 0.390 1.935 o
1 8 12 19.490 19.376 0.450 1.478 o
1 8 13 1.502 1.560 0.090 174.277 o
1 8 14 2.910 3.179 0.140 51.179 o
1 8 15 0.016 0.090 0.070 871.943 o
1 8 16 12.127 11.908 0.350 3.701 o
1 8 17 7.302 7.538 0.240 9.612 o
1 8 18 5.264 5.469 0.210 17.367 o
1 8 19 51.963 47.691 1.470 0.210 o
1 8 20 0.083 0.040 0.130 252.922 o
1 9 1 5.157 5.189 0.170 19.551 o
1 9 2 8.860 9.288 0.240 6.747 o
1 9 3 0.795 0.770 0.070 460.184 o
1 9 4 18.693 18.276 0.360 1.659 o
1 9 5 111.281 106.129 1.600 0.049 o
1 9 6 122.481 116.067 1.730 0.040 o
1 9 7 0.363 0.420 0.060 923.163 o
1 9 8 26.263 25.835 0.540 0.832 o
1 9 9 14.203 13.777 0.330 2.823 o
1 9 10 38.455 36.633 0.720 0.400 o
1 9 11 21.892 21.466 0.540 1.170 o
1 9 12 13.420 13.797 0.380 2.951 o
1 9 13 12.007 12.268 0.340 3.701 o
1 9 14 108.532 101.580 2.430 0.050 o
1 9 15 4.316 4.559 0.170 25.710 o
1 9 16 63.898 60.678 1.480 0.141 o
1 9 17 4.842 5.089 0.200 20.137 o
1 9 18 18.577 18.386 0.590 1.536 o
1 9 19 7.576 7.598 0.320 8.365 o
1 10 1 1.230 1.400 0.110 179.297 o
1 10 2 0.157 0.200 0.070 838.425 o
1 10 3 0.114 0.170 0.080 656.382 o
1 10 4 73.460 70.446 1.270 0.110 o
1 10 5 6.137 6.219 0.180 14.134 o
1 10 6 7.374 7.459 0.200 9.955 o
1 10 7 69.337 67.487 1.200 0.122 o
1 10 8 0.186 0.290 0.070 816.446 o
1 10 9 15.833 15.437 0.400 2.236 o
1 10 10 2.520 2.729 0.130 66.231 o
1 10 11 12.749 12.847 0.350 3.330 o
1 10 12 0.892 1.090 0.100 258.982 o
1 10 13 0.415 0.600 0.090 440.737 o
1 10 14 6.315 7.059 0.240 11.755 o
1 10 15 2.502 2.539 0.140 66.280 o
1 10 16 4.233 4.339 0.190 25.821 o
1 10 17 2.502 2.609 0.180 54.717 o
1 11 1 0.000 0.040 0.100 428.231 o
1 11 2 0.002 0.080 0.090 528.379 o
1 11 3 22.753 22.675 0.720 1.020 o
1 11 4 4.719 4.939 0.210 20.624 o
1 11 5 1.222 1.270 0.110 186.086 o
1 11 6 25.480 25.395 0.660 0.848 o
1 11 7 52.835 50.910 1.200 0.206 o
1 11 8 4.934 5.149 0.180 20.311 o
1 11 9 0.203 0.260 0.080 634.365 o
1 11 10 8.411 9.138 0.280 7.002 o
1 11 11 20.004 19.556 0.530 1.387 o
1 11 12 31.756 31.174 0.930 0.538 o
1 11 13 4.909 5.029 0.210 19.599 o
1 11 14 3.282 3.629 0.180 37.365 o
1 11 15 30.651 30.714 1.060 0.547 o
1 11 16 0.138 4.999 1.070 3.670 o
1 12 1 2.704 2.739 0.210 44.320 o
1 12 2 4.427 4.949 0.270 19.148 o
1 12 3 2.408 2.519 0.190 54.427 o
1 12 4 4.001 4.339 0.210 26.016 o
1 12 5 3.640 4.009 0.200 30.406 o
1 12 6 12.659 12.578 0.430 3.242 o
1 12 7 0.054 0.120 0.110 352.754 o
1 12 8 22.386 22.096 0.630 1.088 o
1 12 9 4.233 5.119 0.230 21.527 o
1 12 10 0.026 0.050 0.120 297.253 o
1 12 11 10.891 11.518 0.440 3.999 o
1 12 12 0.001 0.100 0.140 218.421 o
1 12 13 2.288 2.479 0.200 53.954 o
1 13 1 6.540 7.149 0.420 8.562 o
1 13 2 1.392 1.300 0.210 74.745 o
1 13 3 5.139 5.239 0.410 11.943 o
1 13 4 1.729 1.720 0.290 40.667 o
1 13 5 1.121 1.180 0.350 32.504 o
1 13 6 0.003 0.340 0.340 37.019 o
1 13 7 9.935 10.258 0.520 4.332 o
1 13 8 4.773 4.879 0.300 16.819 o
1 13 9 15.455 15.097 0.570 2.142 o
1 13 10 0.719 0.790 0.200 97.496 o
1 14 1 3.319 3.109 0.330 23.267 o
1 14 2 6.253 6.029 0.430 9.377 o
1 14 3 0.642 0.870 0.270 55.935 o
1 14 4 0.401 0.310 0.240 73.114 o
1 14 5 1.302 2.529 0.640 9.950 o
2 0 2 1179.490 1223.710 30.594 0.000 o
2 0 4 1.164 1.790 0.080 216.121 o
2 0 6 1358.360 1374.820 32.423 0.000 o
2 0 8 948.273 935.673 21.336 0.001 o
2 0 10 64.895 68.626 1.460 0.129 o
2 0 12 168.892 167.017 3.389 0.020 o
2 0 14 1.949 2.070 0.120 100.577 o
2 0 16 2.011 2.519 0.150 75.987 o
2 0 18 99.151 89.192 2.150 0.061 o
2 0 20 217.030 192.991 6.209 0.012 o
2 0 22 34.942 32.464 1.100 0.451 o
2 0 24 107.771 97.371 4.269 0.045 o
2 1 2 785.062 796.491 12.847 0.001 o
2 1 3 133.582 152.480 2.150 0.030 o
2 1 4 73.021 70.166 1.050 0.112 o
2 1 5 18.940 28.534 0.460 1.157 o
2 1 6 17.925 24.785 0.410 1.392 o
2 1 7 0.352 0.370 0.050 1255.320 o
2 1 8 77.379 84.643 1.250 0.091 o
2 1 9 69.105 69.876 1.050 0.121 o
2 1 10 224.179 217.467 3.159 0.012 o
2 1 11 51.552 51.150 0.810 0.220 o
2 1 12 23.839 25.465 0.440 0.967 o
2 1 13 4.626 4.489 0.140 25.344 o
2 1 14 12.303 13.197 0.280 3.542 o
2 1 15 0.450 0.560 0.070 650.046 o
2 1 16 51.991 49.220 0.790 0.223 o
2 1 17 15.195 14.937 0.330 2.469 o
2 1 18 30.267 28.314 0.560 0.653 o
2 1 19 81.057 73.115 1.720 0.092 o
2 1 20 72.068 64.477 1.500 0.117 o
2 1 21 26.281 25.115 0.610 0.832 o
2 1 22 0.459 0.490 0.080 537.431 o
2 1 23 0.808 1.140 0.100 267.531 o
2 1 24 0.684 0.950 0.100 300.555 o
2 2 2 642.055 651.620 10.498 0.001 o
2 2 3 4.537 5.759 0.120 22.720 o
2 2 4 1049.800 1114.630 18.026 0.001 o
2 2 5 66.466 68.626 1.010 0.129 o
2 2 6 0.880 1.750 0.080 265.199 o
2 2 7 908.853 883.983 14.247 0.001 o
2 2 8 56.082 57.778 0.880 0.181 o
2 2 9 22.471 24.625 0.420 1.069 o
2 2 10 201.395 206.789 2.969 0.014 o
2 2 11 12.474 12.707 0.260 3.600 o
2 2 12 31.124 33.843 0.560 0.562 o
2 2 13 59.695 59.368 0.930 0.164 o
2 2 14 4.026 3.949 0.130 32.723 o
2 2 15 3.828 4.349 0.140 32.047 o
2 2 16 21.144 19.956 0.390 1.331 o
2 2 17 10.698 10.428 0.260 4.929 o
2 2 18 0.976 1.050 0.080 316.603 o
2 2 19 134.207 118.566 2.719 0.034 o
2 2 20 1.036 1.240 0.080 283.975 o
2 2 21 57.395 53.039 1.230 0.180 o
2 2 22 51.779 46.661 1.350 0.218 o
2 2 23 62.106 56.509 1.770 0.148 o
2 2 24 0.750 0.960 0.110 253.649 o
2 3 2 132.442 133.273 1.890 0.033 o
2 3 3 5.055 6.479 0.130 18.252 o
2 3 4 104.965 122.206 1.760 0.047 o
2 3 5 91.501 88.002 1.290 0.072 o
2 3 6 28.336 30.304 0.480 0.689 o
2 3 7 24.026 27.595 0.450 0.905 o
2 3 8 25.973 26.685 0.450 0.841 o
2 3 9 283.864 286.323 4.089 0.007 o
2 3 10 3.293 4.279 0.130 38.830 o
2 3 11 102.536 101.860 1.500 0.056 o
2 3 12 7.015 6.229 0.170 12.109 o
2 3 13 4.518 4.959 0.150 24.133 o
2 3 14 1.841 1.880 0.090 131.448 o
2 3 15 133.671 123.735 1.840 0.034 o
2 3 16 44.406 43.001 0.730 0.300 o
2 3 17 30.641 29.054 0.570 0.631 o
2 3 18 26.291 24.705 0.610 0.840 o
2 3 19 31.611 29.174 0.720 0.589 o
2 3 20 10.849 10.998 0.300 4.576 o
2 3 21 1.167 1.330 0.090 228.752 o
2 3 22 14.152 14.287 0.430 2.643 o
2 3 23 2.915 2.759 0.130 56.901 o
2 3 24 16.190 15.197 0.700 1.878 o
2 4 2 204.772 200.140 2.949 0.014 o
2 4 3 672.892 694.801 11.248 0.001 o
2 4 4 11.702 11.788 0.230 4.147 o
2 4 5 233.060 243.941 3.469 0.010 o
2 4 6 7.528 6.239 0.140 11.318 o
2 4 7 213.369 215.027 3.079 0.013 o
2 4 8 11.523 12.058 0.250 4.128 o
2 4 9 82.750 81.354 1.230 0.086 o
2 4 10 107.014 110.388 1.630 0.050 o
2 4 11 22.633 23.235 0.410 1.104 o
2 4 12 3.720 3.919 0.130 35.985 o
2 4 13 24.307 26.115 0.470 0.923 o
2 4 14 7.326 8.258 0.210 9.321 o
2 4 15 41.761 39.592 0.680 0.344 o
2 4 16 0.008 0.010 0.050 1712.750 o
2 4 17 15.120 14.777 0.350 2.481 o
2 4 18 25.726 25.065 0.610 0.856 o
2 4 19 8.425 8.388 0.240 7.626 o
2 4 20 6.114 6.239 0.220 13.458 o
2 4 21 30.162 27.755 0.680 0.649 o
2 4 22 67.978 63.347 1.820 0.123 o
2 4 23 0.970 1.060 0.110 222.840 o
2 5 2 51.324 47.310 0.720 0.234 o
2 5 3 52.894 52.260 0.800 0.210 o
2 5 4 1.006 0.780 0.050 494.347 o
2 5 5 2.696 2.909 0.090 68.375 o
2 5 6 67.847 71.296 1.080 0.122 o
2 5 7 196.140 195.601 2.869 0.015 o
2 5 8 135.441 137.652 2.020 0.031 o
2 5 9 0.000 0.040 0.030 4751.770 o
2 5 10 108.322 109.758 1.630 0.049 o
2 5 11 0.738 0.880 0.080 396.826 o
2 5 12 6.247 6.219 0.180 13.838 o
2 5 13 0.377 0.570 0.070 681.121 o
2 5 14 91.366 87.323 1.320 0.072 o
2 5 15 29.282 28.724 0.580 0.673 o
2 5 16 67.639 61.408 1.090 0.135 o
2 5 17 25.424 23.785 0.590 0.901 o
2 5 18 1.676 1.840 0.100 136.701 o
2 5 19 4.194 4.149 0.150 29.159 o
2 5 20 1.206 1.300 0.090 225.404 o
2 5 21 0.161 0.320 0.090 508.225 o
2 5 22 0.015 0.020 0.090 528.618 o
2 5 23 8.321 8.358 0.420 6.383 o
2 6 2 97.292 92.891 1.370 0.064 o
2 6 3 127.583 125.385 1.840 0.036 o
2 6 4 45.209 49.070 0.760 0.268 o
2 6 5 4.245 4.199 0.120 30.202 o
2 6 6 25.558 24.615 0.440 0.905 o
2 6 7 124.170 123.105 1.840 0.038 o
2 6 8 3.936 4.519 0.130 30.946 o
2 6 9 100.503 97.940 1.500 0.059 o
2 6 10 14.191 14.147 0.300 2.815 o
2 6 11 54.379 55.069 0.880 0.195 o
2 6 12 0.007 0.090 0.060 1186.870 o
2 6 13 1.708 1.980 0.090 137.579 o
2 6 14 0.067 0.140 0.050 1673.120 o
2 6 15 6.455 6.949 0.210 12.025 o
2 6 16 36.671 34.863 0.860 0.428 o
2 6 17 5.303 5.669 0.190 17.432 o
2 6 18 10.199 9.898 0.280 5.322 o
2 6 19 5.953 5.969 0.200 14.627 o
2 6 20 5.958 6.469 0.230 13.370 o
2 6 21 34.478 32.953 0.980 0.467 o
2 6 22 11.481 10.958 0.380 4.060 o
2 7 2 11.157 12.557 0.260 4.159 o
2 7 3 17.060 16.467 0.320 2.013 o
2 7 4 56.463 54.939 0.880 0.186 o
2 7 5 2.121 2.240 0.090 103.573 o
2 7 6 122.831 120.206 1.760 0.039 o
2 7 7 141.275 136.693 2.070 0.030 o
2 7 8 43.393 43.501 0.730 0.307 o
2 7 9 26.335 27.395 0.500 0.805 o
2 7 10 3.667 3.789 0.130 37.309 o
2 7 11 17.397 17.187 0.360 1.889 o
2 7 12 12.655 12.518 0.310 3.487 o
2 7 13 24.326 24.415 0.550 0.946 o
2 7 14 6.314 6.679 0.210 12.631 o
2 7 15 28.660 28.174 0.710 0.681 o
2 7 16 14.738 14.877 0.410 2.483 o
2 7 17 1.605 1.960 0.110 128.840 o
2 7 18 3.134 3.449 0.150 44.057 o
2 7 19 0.420 0.590 0.090 440.778 o
2 7 20 19.057 18.196 0.580 1.505 o
2 7 21 2.764 3.189 0.170 48.112 o
2 8 2 103.028 100.330 1.550 0.056 o
2 8 3 0.465 0.490 0.070 659.221 o
2 8 4 14.696 14.057 0.300 2.704 o
2 8 5 51.010 49.110 0.780 0.229 o
2 8 6 63.279 61.238 0.960 0.149 o
2 8 7 0.686 0.800 0.070 496.111 o
2 8 8 1.199 1.380 0.080 241.993 o
2 8 9 11.896 11.818 0.280 3.959 o
2 8 10 106.093 100.780 1.730 0.053 o
2 8 11 0.000 0.060 0.050 1711.180 o
2 8 12 4.314 4.429 0.150 27.209 o
2 8 13 0.988 1.160 0.080 302.021 o
2 8 14 0.886 1.110 0.090 291.981 o
2 8 15 4.284 4.549 0.170 25.950 o
2 8 16 25.327 25.335 0.710 0.844 o
2 8 17 2.112 2.340 0.120 88.335 o
2 8 18 13.634 13.777 0.450 2.789 o
2 8 19 1.856 2.300 0.140 88.848 o
2 8 20 20.535 19.096 0.680 1.287 o
2 9 2 0.244 0.350 0.090 494.806 o
2 9 3 1.632 1.620 0.110 138.256 o
2 9 4 1.276 1.420 0.100 190.522 o
2 9 5 134.826 126.975 1.910 0.033 o
2 9 6 21.112 20.546 0.400 1.307 o
2 9 7 16.808 17.007 0.370 1.978 o
2 9 8 32.567 31.544 0.630 0.550 o
2 9 9 7.573 7.618 0.210 9.430 o
2 9 10 2.324 2.460 0.110 82.241 o
2 9 11 22.157 21.406 0.540 1.155 o
2 9 12 5.349 5.879 0.200 16.637 o
2 9 13 0.105 0.100 0.070 860.707 o
2 9 14 4.245 4.419 0.170 26.638 o
2 9 15 6.478 6.969 0.230 11.669 o
2 9 16 1.163 1.210 0.110 194.765 o
2 9 17 0.039 0.090 0.100 427.331 o
2 9 18 2.363 2.499 0.140 70.315 o
2 9 19 11.062 10.918 0.460 3.982 o
2 10 2 0.792 0.910 0.120 221.638 o
2 10 3 3.305 3.339 0.170 39.938 o
2 10 4 38.985 37.663 0.800 0.382 o
2 10 5 25.864 25.835 0.580 0.840 o
2 10 6 2.371 2.659 0.130 71.091 o
2 10 7 0.110 0.160 0.070 854.061 o
2 10 8 0.013 0.090 0.060 1186.200 o
2 10 9 13.149 13.637 0.360 3.078 o
2 10 10 26.150 25.425 0.640 0.825 o
2 10 11 36.136 35.823 0.870 0.428 o
2 10 12 0.398 0.530 0.080 549.852 o
2 10 13 0.088 0.180 0.090 522.288 o
2 10 14 7.246 7.508 0.260 9.505 o
2 10 15 10.106 10.068 0.340 5.092 o
2 10 16 7.951 8.518 0.330 7.374 o
2 10 17 0.653 0.770 0.160 147.632 o
2 11 2 2.538 2.569 0.180 54.458 o
2 11 3 22.830 22.805 0.730 1.010 o
2 11 4 21.039 20.146 0.640 1.233 o
2 11 5 17.120 16.557 0.550 1.827 o
2 11 6 17.126 17.187 0.560 1.779 o
2 11 7 6.198 6.699 0.260 12.027 o
2 11 8 1.539 1.590 0.110 145.979 o
2 11 9 11.383 11.128 0.330 4.208 o
2 11 10 2.223 2.529 0.130 77.293 o
2 11 11 8.173 8.568 0.270 7.593 o
2 11 12 0.795 0.920 0.110 250.704 o
2 11 13 0.556 0.720 0.120 251.119 o
2 11 14 2.845 3.039 0.180 46.200 o
2 11 15 3.141 3.389 0.210 36.264 o
2 12 2 36.506 35.433 1.150 0.403 o
2 12 3 0.411 0.550 0.140 203.099 o
2 12 4 4.836 4.999 0.270 17.610 o
2 12 5 0.276 0.360 0.140 211.407 o
2 12 6 0.354 0.510 0.130 236.948 o
2 12 7 0.058 0.170 0.130 252.459 o
2 12 8 13.015 13.447 0.500 2.888 o
2 12 9 3.558 3.879 0.250 27.077 o
2 12 10 6.603 7.459 0.320 9.728 o
2 12 11 13.223 13.377 0.480 2.883 o
2 12 12 5.933 6.069 0.290 12.648 o
2 12 13 9.288 9.328 0.400 5.518 o
2 13 2 2.988 3.509 0.260 30.856 o
2 13 3 18.192 17.677 0.830 1.427 o
2 13 4 0.024 0.120 0.170 148.081 o
2 13 5 0.003 0.110 0.180 132.144 o
2 13 6 11.648 12.467 0.680 2.905 o
2 13 7 2.999 3.309 0.290 28.058 o
2 13 8 7.446 8.188 0.580 5.651 o
2 13 9 2.890 2.879 0.280 31.092 o
2 13 10 0.218 2.769 1.480 1.948 o
2 14 2 1.282 1.280 0.280 47.540 o
2 14 3 5.076 4.929 0.410 12.305 o
2 14 4 6.013 6.569 0.570 7.156 o
2 14 5 0.567 6.579 1.100 3.407 o
3 0 3 36.677 33.613 0.720 0.447 o
3 0 5 190.367 196.341 4.009 0.015 o
3 0 7 69.346 85.553 1.780 0.100 o
3 0 9 1.311 1.410 0.100 187.340 o
3 0 11 26.155 29.654 0.750 0.729 o
3 0 13 43.733 42.331 0.980 0.300 o
3 0 15 428.646 384.213 7.758 0.003 o
3 0 17 100.340 91.462 2.200 0.059 o
3 0 19 42.257 38.942 1.340 0.309 o
3 0 21 64.924 58.798 1.930 0.134 o
3 0 23 6.344 6.349 0.310 11.187 o
3 1 3 347.756 355.069 5.409 0.005 o
3 1 4 6.513 9.168 0.180 10.145 o
3 1 5 148.659 150.950 2.150 0.026 o
3 1 6 85.063 82.943 1.230 0.082 o
3 1 7 35.351 31.384 0.500 0.504 o
3 1 8 300.476 304.219 4.319 0.006 o
3 1 9 106.932 112.537 1.660 0.049 o
3 1 10 481.939 466.187 6.649 0.003 o
3 1 11 347.480 332.683 4.809 0.005 o
3 1 12 315.838 302.000 4.289 0.006 o
3 1 13 38.642 38.832 0.650 0.386 o
3 1 14 11.151 11.378 0.250 4.461 o
3 1 15 87.408 81.124 1.230 0.080 o
3 1 16 7.697 7.938 0.200 9.097 o
3 1 17 103.739 95.961 1.630 0.057 o
3 1 18 0.992 1.030 0.080 315.229 o
3 1 19 31.212 28.824 0.690 0.606 o
3 1 20 17.952 16.927 0.430 1.789 o
3 1 21 4.782 4.939 0.170 21.923 o
3 1 22 6.009 6.419 0.210 13.680 o
3 1 23 16.012 15.857 0.480 2.095 o
3 1 24 10.754 9.978 0.320 4.829 o
3 2 3 862.450 864.097 13.937 0.001 o
3 2 4 35.467 34.653 0.530 0.471 o
3 2 5 131.307 140.552 1.990 0.032 o
3 2 6 28.170 34.073 0.540 0.634 o
3 2 7 136.953 134.133 1.970 0.032 o
3 2 8 0.022 0.090 0.040 2653.130 o
3 2 9 71.177 74.995 1.130 0.111 o
3 2 10 36.327 38.192 0.630 0.423 o
3 2 11 54.265 54.189 0.850 0.198 o
3 2 12 0.938 0.760 0.070 412.006 o
3 2 13 117.692 111.748 1.680 0.044 o
3 2 14 101.561 95.391 1.420 0.059 o
3 2 15 159.446 147.421 2.150 0.024 o
3 2 16 9.875 9.588 0.230 5.835 o
3 2 17 143.780 130.724 2.170 0.030 o
3 2 18 9.899 9.738 0.270 5.612 o
3 2 19 4.096 4.179 0.140 30.439 o
3 2 20 48.004 43.791 1.030 0.259 o
3 2 21 1.560 1.650 0.100 152.920 o
3 2 22 26.912 25.015 0.740 0.784 o
3 2 23 0.009 0.010 0.090 528.708 o
3 2 24 0.004 0.090 0.120 297.266 o
3 3 3 354.676 360.748 5.409 0.005 o
3 3 4 686.061 705.019 11.508 0.001 o
3 3 5 43.816 37.173 0.590 0.338 o
3 3 6 164.636 169.756 2.430 0.021 o
3 3 7 97.797 106.749 1.550 0.057 o
3 3 8 23.391 22.885 0.390 1.073 o
3 3 9 259.108 247.870 3.569 0.009 o
3 3 10 25.284 23.795 0.430 0.939 o
3 3 11 153.880 153.219 2.220 0.025 o
3 3 12 43.124 43.031 0.690 0.313 o
3 3 13 28.651 28.794 0.500 0.700 o
3 3 14 150.951 139.872 2.040 0.027 o
3 3 15 4.054 3.829 0.130 33.036 o
3 3 16 302.447 269.226 4.499 0.007 o
3 3 17 16.061 15.657 0.350 2.220 o
3 3 18 30.945 28.994 0.710 0.608 o
3 3 19 3.238 3.419 0.130 45.374 o
3 3 20 13.891 13.807 0.360 2.859 o
3 3 21 16.952 16.677 0.430 1.939 o
3 3 22 20.451 19.916 0.590 1.308 o
3 3 23 28.580 26.245 0.770 0.702 o
3 4 3 16.946 17.576 0.310 1.954 o
3 4 4 527.496 524.245 7.858 0.002 o
3 4 5 203.778 197.531 2.899 0.014 o
3 4 6 100.521 100.560 1.500 0.058 o
3 4 7 15.849 16.047 0.310 2.254 o
3 4 8 80.825 82.374 1.230 0.088 o
3 4 9 79.295 76.975 1.150 0.095 o
3 4 10 123.556 118.956 1.760 0.039 o
3 4 11 0.248 0.620 0.060 934.141 o
3 4 12 51.977 50.010 0.800 0.221 o
3 4 13 267.389 246.501 3.569 0.009 o
3 4 14 32.468 32.673 0.570 0.545 o
3 4 15 20.689 21.046 0.410 1.317 o
3 4 16 0.427 0.540 0.070 665.452 o
3 4 17 28.710 26.665 0.670 0.709 o
3 4 18 65.663 59.088 1.370 0.140 o
3 4 19 8.854 8.878 0.250 6.888 o
3 4 20 16.917 16.407 0.420 1.970 o
3 4 21 22.172 21.076 0.620 1.136 o
3 4 22 3.742 3.979 0.160 33.053 o
3 4 23 3.987 3.929 0.170 30.369 o
3 5 3 0.047 0.160 0.040 2593.700 o
3 5 4 158.753 157.988 2.330 0.023 o
3 5 5 394.562 405.409 5.919 0.004 o
3 5 6 1.243 1.410 0.070 253.218 o
3 5 7 118.950 109.878 1.660 0.043 o
3 5 8 19.446 19.356 0.350 1.526 o
3 5 9 14.052 16.177 0.310 2.599 o
3 5 10 8.276 9.188 0.210 7.535 o
3 5 11 14.263 14.607 0.300 2.742 o
3 5 12 33.133 32.283 0.560 0.535 o
3 5 13 58.895 56.169 0.890 0.173 o
3 5 14 0.003 0.070 0.050 1710.000 o
3 5 15 318.815 288.082 4.679 0.006 o
3 5 16 7.429 7.758 0.230 9.358 o
3 5 17 92.584 86.353 1.990 0.069 o
3 5 18 1.031 1.140 0.080 295.032 o
3 5 19 17.006 16.667 0.440 1.924 o
3 5 20 2.875 2.999 0.130 55.286 o
3 5 21 56.466 52.849 1.520 0.178 o
3 5 22 17.712 16.007 0.490 1.836 o
3 6 3 5.823 6.069 0.160 15.636 o
3 6 4 79.848 77.035 1.190 0.094 o
3 6 5 133.229 126.805 1.860 0.034 o
3 6 6 143.690 142.082 2.090 0.028 o
3 6 7 0.405 0.450 0.060 882.087 o
3 6 8 90.986 88.002 1.320 0.072 o
3 6 9 62.747 61.238 0.980 0.150 o
3 6 10 2.332 2.959 0.110 73.744 o
3 6 11 39.044 37.842 0.650 0.387 o
3 6 12 271.211 252.639 3.669 0.008 o
3 6 13 52.606 51.690 0.950 0.210 o
3 6 14 3.014 3.009 0.120 54.199 o
3 6 15 8.539 8.428 0.240 7.482 o
3 6 16 0.347 0.530 0.070 703.899 o
3 6 17 0.016 0.050 0.060 1187.960 o
3 6 18 9.389 9.488 0.290 5.979 o
3 6 19 14.672 14.477 0.430 2.513 o
3 6 20 5.669 5.949 0.230 14.800 o
3 6 21 34.221 33.113 1.020 0.465 o
3 6 22 3.524 4.809 0.360 17.782 o
3 7 3 0.403 0.300 0.070 729.811 o
3 7 4 10.450 11.618 0.260 4.736 o
3 7 5 36.408 37.772 0.620 0.426 o
3 7 6 118.277 113.057 1.680 0.043 o
3 7 7 9.566 11.028 0.270 5.403 o
3 7 8 9.604 9.928 0.230 5.911 o
3 7 9 1.284 1.260 0.090 217.442 o
3 7 10 22.870 22.465 0.440 1.105 o
3 7 11 161.711 150.440 2.250 0.023 o
3 7 12 6.225 6.009 0.180 14.180 o
3 7 13 63.006 59.988 1.110 0.150 o
3 7 14 77.271 73.565 1.770 0.097 o
3 7 15 0.884 1.090 0.090 294.064 o
3 7 16 71.954 67.836 1.640 0.112 o
3 7 17 5.573 5.739 0.200 16.125 o
3 7 18 22.542 22.655 0.610 1.070 o
3 7 19 0.360 0.530 0.100 381.155 o
3 7 20 8.814 9.028 0.350 6.255 o
3 7 21 69.209 63.287 1.960 0.119 o
3 8 3 106.018 100.390 1.580 0.054 o
3 8 4 0.238 0.350 0.070 787.400 o
3 8 5 8.142 8.458 0.230 7.971 o
3 8 6 0.949 1.070 0.090 284.263 o
3 8 7 123.136 116.287 1.730 0.040 o
3 8 8 0.136 0.240 0.060 1124.930 o
3 8 9 0.522 0.620 0.070 603.802 o
3 8 10 52.020 50.100 0.950 0.217 o
3 8 11 189.691 177.305 2.969 0.017 o
3 8 12 28.915 27.954 0.710 0.677 o
3 8 13 13.233 12.727 0.350 3.201 o
3 8 14 0.015 0.050 0.060 1188.020 o
3 8 15 10.094 10.378 0.310 5.127 o
3 8 16 1.628 1.640 0.100 147.870 o
3 8 17 0.092 0.170 0.080 658.988 o
3 8 18 0.077 0.130 0.100 425.573 o
3 8 19 9.112 9.648 0.340 5.865 o
3 8 20 0.271 0.430 0.150 184.222 o
3 9 3 0.078 0.110 0.080 663.383 o
3 9 4 1.521 1.810 0.120 129.698 o
3 9 5 0.150 0.280 0.090 511.949 o
3 9 6 3.003 2.929 0.140 51.748 o
3 9 7 11.581 11.598 0.300 4.094 o
3 9 8 1.494 1.630 0.110 147.821 o
3 9 9 74.442 70.336 1.240 0.108 o
3 9 10 98.550 91.692 2.220 0.060 o
3 9 11 2.981 3.279 0.130 50.693 o
3 9 12 93.878 89.472 2.150 0.065 o
3 9 13 2.540 2.619 0.120 69.859 o
3 9 14 5.805 5.849 0.200 15.230 o
3 9 15 2.023 2.240 0.120 93.806 o
3 9 16 0.459 0.490 0.100 370.197 o
3 9 17 13.439 13.677 0.470 2.813 o
3 9 18 0.248 0.320 0.120 286.911 o
3 10 3 7.778 7.938 0.270 8.404 o
3 10 4 0.504 0.530 0.110 306.564 o
3 10 5 32.110 30.374 0.690 0.567 o
3 10 6 5.707 5.589 0.230 15.207 o
3 10 7 0.177 0.100 0.070 845.997 o
3 10 8 0.065 0.070 0.080 665.923 o
3 10 9 94.634 91.642 2.300 0.063 o
3 10 10 59.266 56.269 1.390 0.164 o
3 10 11 9.407 9.238 0.270 6.157 o
3 10 12 12.562 13.017 0.370 3.325 o
3 10 13 0.187 0.240 0.090 509.998 o
3 10 14 12.626 12.547 0.410 3.298 o
3 10 15 0.310 0.580 0.110 323.539 o
3 10 16 3.234 3.469 0.180 38.749 o
3 10 17 3.822 4.139 0.290 22.083 o
3 11 3 0.054 0.140 0.100 426.221 o
3 11 4 5.769 6.009 0.260 13.762 o
3 11 5 0.541 0.540 0.120 259.876 o
3 11 6 0.764 0.940 0.130 197.211 o
3 11 7 22.890 23.265 0.730 0.995 o
3 11 8 44.270 42.801 1.250 0.282 o
3 11 9 30.616 29.224 0.830 0.598 o
3 11 10 23.115 23.085 0.660 1.011 o
3 11 11 22.352 22.326 0.740 1.044 o
3 11 12 0.821 1.010 0.120 214.530 o
3 11 13 5.040 5.309 0.260 16.796 o
3 11 14 3.447 3.929 0.220 30.358 o
3 11 15 0.035 0.190 0.190 118.464 o
3 12 3 2.017 2.090 0.180 68.996 o
3 12 4 19.798 18.606 0.680 1.363 o
3 12 5 0.012 0.110 0.130 253.212 o
3 12 6 0.947 1.080 0.150 145.212 o
3 12 7 16.882 17.556 0.620 1.735 o
3 12 8 30.302 29.904 1.240 0.534 o
3 12 9 26.805 26.715 1.120 0.673 o
3 12 10 0.009 0.070 0.150 190.298 o
3 12 11 0.978 1.160 0.200 89.829 o
3 12 12 0.642 0.670 0.170 134.161 o
3 12 13 9.193 12.547 1.230 1.887 o
3 13 3 0.004 0.200 0.180 132.047 o
3 13 4 0.095 0.220 0.180 131.646 o
3 13 5 0.140 0.270 0.170 146.982 o
3 13 6 24.427 24.365 1.120 0.779 o
3 13 7 31.651 32.493 1.820 0.405 o
3 13 8 0.019 0.040 0.260 63.351 o
3 13 9 7.370 7.479 0.590 5.797 o
3 14 3 0.189 4.549 1.490 1.913 o
4 0 4 118.227 112.028 2.280 0.042 o
4 0 6 1431.510 1408.910 32.164 0.000 o
4 0 8 147.965 162.987 3.309 0.024 o
4 0 10 83.956 85.273 1.790 0.079 o
4 0 12 0.185 0.160 0.080 646.713 o
4 0 14 37.290 39.362 0.920 0.385 o
4 0 16 5.215 5.529 0.230 16.835 o
4 0 18 5.217 4.799 0.220 18.461 o
4 0 20 127.059 114.467 3.699 0.035 o
4 0 22 0.014 -0.020 0.100 428.257 o
4 1 4 283.390 293.991 4.189 0.007 o
4 1 5 46.883 47.281 0.710 0.264 o
4 1 6 1330.040 1335.050 21.516 0.000 o
4 1 7 159.990 164.977 2.350 0.022 o
4 1 8 25.625 29.054 0.480 0.803 o
4 1 9 0.027 0.300 0.050 1647.950 o
4 1 10 111.592 114.877 1.680 0.046 o
4 1 11 0.068 0.140 0.050 1673.030 o
4 1 12 4.967 5.069 0.140 21.661 o
4 1 13 4.068 4.749 0.140 28.372 o
4 1 14 51.512 48.100 0.770 0.229 o
4 1 15 131.824 124.195 1.840 0.035 o
4 1 16 494.398 446.871 7.269 0.003 o
4 1 17 257.269 231.954 3.779 0.009 o
4 1 18 39.455 37.033 0.870 0.376 o
4 1 19 75.718 69.426 1.610 0.104 o
4 1 20 35.073 34.093 0.790 0.464 o
4 1 21 7.599 7.818 0.230 9.072 o
4 1 22 43.598 40.592 1.180 0.299 o
4 1 23 2.215 2.200 0.120 87.088 o
4 2 4 21.561 19.186 0.320 1.349 o
4 2 5 382.155 385.293 5.479 0.004 o
4 2 6 734.438 745.931 11.968 0.001 o
4 2 7 140.275 136.013 1.970 0.030 o
4 2 8 191.444 195.321 2.789 0.016 o
4 2 9 6.574 7.578 0.180 11.504 o
4 2 10 56.630 58.518 0.900 0.177 o
4 2 11 11.343 12.527 0.260 4.084 o
4 2 12 24.681 25.925 0.460 0.912 o
4 2 13 19.110 19.676 0.370 1.536 o
4 2 14 8.845 9.518 0.230 6.706 o
4 2 15 3.395 3.979 0.130 39.414 o
4 2 16 6.858 6.939 0.200 11.344 o
4 2 17 7.027 6.939 0.200 11.018 o
4 2 18 57.611 52.030 1.300 0.180 o
4 2 19 26.959 26.375 0.640 0.777 o
4 2 20 3.010 3.289 0.130 50.111 o
4 2 21 11.434 11.128 0.310 4.238 o
4 2 22 46.167 42.891 1.250 0.267 o
4 2 23 0.404 0.490 0.100 377.896 o
4 3 4 58.459 60.788 0.910 0.166 o
4 3 5 424.669 426.875 6.209 0.003 o
4 3 6 64.225 64.537 0.970 0.141 o
4 3 7 593.429 601.630 9.208 0.002 o
4 3 8 45.905 44.331 0.700 0.283 o
4 3 9 39.121 39.592 0.640 0.376 o
4 3 10 55.115 51.720 0.830 0.200 o
4 3 11 59.017 58.628 0.910 0.168 o
4 3 12 14.948 14.127 0.290 2.648 o
4 3 13 97.200 90.502 1.370 0.065 o
4 3 14 233.767 216.957 3.129 0.011 o
4 3 15 13.316 13.597 0.290 3.138 o
4 3 16 8.893 9.128 0.230 6.841 o
4 3 17 153.781 138.452 3.179 0.026 o
4 3 18 196.366 177.754 4.059 0.016 o
4 3 19 1.046 1.350 0.090 245.106 o
4 3 20 2.371 2.539 0.120 75.994 o
4 3 21 28.106 26.385 0.780 0.713 o
4 3 22 61.617 56.609 1.640 0.151 o
4 3 23 13.035 12.977 0.410 3.116 o
4 4 4 717.265 707.868 11.018 0.001 o
4 4 5 262.259 262.358 3.699 0.009 o
4 4 6 3.085 2.899 0.100 57.037 o
4 4 7 50.411 50.870 0.800 0.227 o
4 4 8 235.736 231.904 3.309 0.011 o
4 4 9 41.051 42.422 0.680 0.336 o
4 4 10 81.681 80.674 1.250 0.088 o
4 4 11 1.079 1.220 0.080 277.674 o
4 4 12 75.214 73.965 1.150 0.104 o
4 4 13 0.037 0.090 0.060 1182.620 o
4 4 14 0.690 0.800 0.070 494.670 o
4 4 15 4.299 4.049 0.130 29.854 o
4 4 16 70.428 64.477 1.140 0.124 o
4 4 17 34.202 31.494 0.750 0.506 o
4 4 18 14.195 14.217 0.370 2.722 o
4 4 19 0.359 0.370 0.080 583.722 o
4 4 20 4.188 4.089 0.150 29.442 o
4 4 21 12.310 12.148 0.380 3.528 o
4 4 22 0.331 0.400 0.100 393.212 o
4 4 23 77.239 74.305 3.669 0.078 o
4 5 4 69.728 70.046 1.090 0.119 o
4 5 5 27.127 26.385 0.440 0.802 o
4 5 6 211.022 209.688 3.029 0.013 o
4 5 7 34.219 35.563 0.570 0.482 o
4 5 8 75.662 74.935 1.140 0.102 o
4 5 9 122.775 115.607 1.730 0.040 o
4 5 10 15.857 16.847 0.330 2.169 o
4 5 11 0.065 0.150 0.060 1169.550 o
4 5 12 273.446 251.220 3.619 0.008 o
4 5 13 38.444 38.192 0.650 0.393 o
4 5 14 0.800 0.880 0.080 380.281 o
4 5 15 15.548 15.297 0.360 2.337 o
4 5 16 0.541 0.640 0.070 591.133 o
4 5 17 0.604 0.590 0.070 574.326 o
4 5 18 70.459 64.877 1.540 0.119 o
4 5 19 17.756 17.217 0.440 1.789 o
4 5 20 73.978 67.606 2.020 0.105 o
4 5 21 16.959 16.637 0.500 1.885 o
4 5 22 2.590 2.829 0.150 58.467 o
4 6 4 163.115 158.328 2.510 0.022 o
4 6 5 94.043 92.541 1.450 0.066 o
4 6 6 0.035 0.040 0.040 2660.720 o
4 6 7 34.882 34.373 0.580 0.480 o
4 6 8 51.846 51.440 0.820 0.217 o
4 6 9 16.879 17.427 0.340 1.957 o
4 6 10 135.797 131.694 1.990 0.032 o
4 6 11 2.739 3.139 0.110 60.436 o
4 6 12 41.711 39.822 0.670 0.344 o
4 6 13 13.961 13.587 0.310 2.934 o
4 6 14 23.805 23.095 0.490 1.021 o
4 6 15 72.543 65.507 1.530 0.114 o
4 6 16 30.838 30.374 0.760 0.588 o
4 6 17 0.001 0.050 0.060 1188.980 o
4 6 18 5.573 5.739 0.190 16.367 o
4 6 19 6.319 6.339 0.220 12.848 o
4 6 20 1.238 1.510 0.110 173.584 o
4 6 21 10.629 9.888 0.320 4.923 o
4 7 4 2.068 2.280 0.110 95.874 o
4 7 5 19.801 20.526 0.410 1.414 o
4 7 6 35.786 34.623 0.610 0.461 o
4 7 7 28.810 28.914 0.540 0.689 o
4 7 8 2.193 2.270 0.100 95.084 o
4 7 9 37.025 34.423 0.600 0.443 o
4 7 10 8.014 8.228 0.220 8.333 o
4 7 11 120.342 112.028 1.970 0.042 o
4 7 12 44.553 42.821 0.830 0.296 o
4 7 13 22.467 21.846 0.550 1.118 o
4 7 14 2.747 2.889 0.120 61.163 o
4 7 15 5.736 5.789 0.190 15.755 o
4 7 16 1.338 1.410 0.090 201.046 o
4 7 17 8.493 8.888 0.270 7.107 o
4 7 18 47.988 46.151 1.340 0.241 o
4 7 19 0.589 0.650 0.100 338.655 o
4 7 20 36.831 34.693 1.020 0.415 o
4 8 4 28.877 27.994 0.530 0.702 o
4 8 5 1.739 1.880 0.110 123.049 o
4 8 6 83.481 78.684 1.310 0.087 o
4 8 7 3.220 3.339 0.150 43.620 o
4 8 8 7.568 7.459 0.210 9.559 o
4 8 9 6.504 6.849 0.200 12.167 o
4 8 10 61.035 57.489 1.040 0.161 o
4 8 11 11.221 11.568 0.320 4.208 o
4 8 12 25.514 25.035 0.650 0.856 o
4 8 13 0.132 0.230 0.070 840.919 o
4 8 14 106.936 101.640 2.410 0.051 o
4 8 15 9.562 10.268 0.310 5.493 o
4 8 16 0.003 0.010 0.080 669.176 o
4 8 17 5.204 4.959 0.210 18.543 o
4 8 18 8.385 8.898 0.340 6.724 o
4 8 19 5.620 5.929 0.250 14.481 o
4 9 4 0.523 0.540 0.100 357.269 o
4 9 5 3.068 3.389 0.160 43.971 o
4 9 6 0.026 0.030 0.060 1187.910 o
4 9 7 5.363 5.439 0.210 17.072 o
4 9 8 27.092 25.545 0.630 0.789 o
4 9 9 2.891 3.079 0.180 45.305 o
4 9 10 4.413 4.649 0.180 24.321 o
4 9 11 40.331 39.572 1.000 0.344 o
4 9 12 4.952 5.349 0.190 19.453 o
4 9 13 3.135 3.429 0.140 45.547 o
4 9 14 0.022 0.110 0.080 667.247 o
4 9 15 13.472 13.637 0.490 2.775 o
4 9 16 31.396 30.254 0.950 0.552 o
4 9 17 26.736 26.625 0.870 0.734 o
4 9 18 0.067 0.150 0.130 252.474 o
4 10 4 9.131 9.178 0.350 5.963 o
4 10 5 17.627 16.377 0.560 1.768 o
4 10 6 13.808 13.637 0.460 2.748 o
4 10 7 0.040 0.050 0.090 527.889 o
4 10 8 29.184 28.654 0.860 0.636 o
4 10 9 6.975 7.379 0.300 9.518 o
4 10 10 4.094 3.959 0.200 27.321 o
4 10 11 1.873 2.090 0.140 92.010 o
4 10 12 38.776 38.612 0.990 0.367 o
4 10 13 6.856 7.299 0.270 10.144 o
4 10 14 40.412 40.362 1.200 0.328 o
4 10 15 4.929 5.169 0.220 18.861 o
4 10 16 5.198 5.169 0.240 17.179 o
4 11 4 0.029 0.010 0.090 528.504 o
4 11 5 0.900 1.190 0.140 160.540 o
4 11 6 1.624 1.880 0.150 98.916 o
4 11 7 1.849 2.000 0.160 83.508 o
4 11 8 15.695 15.697 0.550 2.082 o
4 11 9 0.297 0.330 0.120 284.112 o
4 11 10 7.257 7.369 0.320 8.899 o
4 11 11 1.151 1.340 0.160 118.646 o
4 11 12 12.113 12.477 0.620 2.953 o
4 11 13 1.582 1.730 0.140 111.093 o
4 11 14 0.424 0.540 0.170 140.778 o
4 12 4 12.293 11.718 0.500 3.313 o
4 12 5 3.683 3.889 0.230 27.966 o
4 12 6 5.860 6.549 0.330 11.482 o
4 12 7 4.960 5.309 0.290 16.005 o
4 12 8 13.007 13.177 0.590 2.739 o
4 12 9 0.200 0.290 0.170 146.289 o
4 12 10 1.858 1.860 0.200 66.292 o
4 12 11 5.274 5.709 0.410 11.354 o
4 12 12 26.374 27.954 2.430 0.387 o
4 13 4 0.127 0.300 0.180 131.203 o
4 13 5 0.149 0.180 0.180 131.451 o
4 13 6 0.226 0.210 0.250 68.148 o
4 13 7 6.048 6.529 0.460 8.811 o
4 13 8 0.043 0.160 0.350 34.948 o
5 0 5 1951.900 1925.880 46.771 0.000 o
5 0 7 341.650 346.151 6.959 0.005 o
5 0 9 528.917 500.160 9.978 0.002 o
5 0 11 101.551 101.810 2.220 0.055 o
5 0 13 13.456 14.597 0.430 2.766 o
5 0 15 3.061 3.419 0.170 42.435 o
5 0 17 29.544 27.524 0.940 0.628 o
5 0 19 16.160 15.367 0.560 2.027 o
5 0 21 5.101 5.009 0.260 17.084 o
5 0 23 1.471 1.430 0.150 113.816 o
5 1 5 65.500 67.716 1.020 0.133 o
5 1 6 291.389 295.471 4.219 0.007 o
5 1 7 951.780 931.694 14.997 0.001 o
5 1 8 737.393 731.724 11.478 0.001 o
5 1 9 180.742 183.443 2.639 0.018 o
5 1 10 166.777 164.007 2.410 0.021 o
5 1 11 2.245 2.759 0.100 83.022 o
5 1 12 31.490 30.844 0.530 0.591 o
5 1 13 31.237 31.614 0.560 0.585 o
5 1 14 68.362 64.307 1.010 0.130 o
5 1 15 159.990 145.201 2.150 0.024 o
5 1 16 60.239 56.159 1.000 0.167 o
5 1 17 0.040 0.070 0.050 1701.180 o
5 1 18 71.215 65.217 1.500 0.118 o
5 1 19 201.582 179.294 4.089 0.015 o
5 1 20 19.225 18.226 0.470 1.550 o
5 1 21 16.180 15.757 0.460 2.096 o
5 1 22 1.346 1.560 0.110 162.189 o
5 1 23 0.442 0.500 0.100 371.958 o
5 2 5 16.419 17.326 0.310 2.052 o
5 2 6 603.763 600.490 8.998 0.002 o
5 2 7 232.867 225.255 3.209 0.011 o
5 2 8 298.589 287.293 4.139 0.007 o
5 2 9 24.876 24.445 0.420 0.945 o
5 2 10 2.433 2.549 0.100 80.034 o
5 2 11 158.985 154.979 2.280 0.024 o
5 2 12 16.517 16.587 0.330 2.082 o
5 2 13 13.754 15.107 0.320 2.782 o
5 2 14 0.942 1.160 0.080 311.846 o
5 2 15 0.356 0.460 0.060 913.542 o
5 2 16 7.223 7.598 0.210 9.992 o
5 2 17 10.317 9.888 0.270 5.287 o
5 2 18 0.137 0.240 0.070 838.250 o
5 2 19 20.654 19.716 0.500 1.340 o
5 2 20 2.174 2.320 0.110 90.584 o
5 2 21 0.479 0.570 0.090 430.520 o
5 2 22 8.030 7.519 0.250 8.525 o
5 2 23 0.002 0.060 0.100 428.146 o
5 3 5 356.436 357.339 5.039 0.005 o
5 3 6 2.038 2.070 0.080 118.012 o
5 3 7 48.218 50.200 0.790 0.243 o
5 3 8 364.651 362.797 5.199 0.004 o
5 3 9 301.885 288.882 4.089 0.007 o
5 3 10 45.716 45.071 0.720 0.281 o
5 3 11 95.089 90.782 1.340 0.067 o
5 3 12 197.457 186.503 2.739 0.016 o
5 3 13 159.505 150.550 2.200 0.024 o
5 3 14 1.543 1.830 0.090 157.357 o
5 3 15 2.040 2.240 0.100 102.943 o
5 3 16 1.430 1.570 0.090 181.283 o
5 3 17 168.906 155.329 3.539 0.021 o
5 3 18 51.857 48.110 1.120 0.220 o
5 3 19 3.243 3.369 0.130 45.676 o
5 3 20 17.585 17.416 0.450 1.791 o
5 3 21 32.591 30.374 0.890 0.534 o
5 3 22 14.800 14.327 0.440 2.489 o
5 3 23 0.866 3.559 1.320 2.427 o
5 4 5 17.099 16.447 0.310 2.015 o
5 4 6 14.129 13.787 0.260 2.921 o
5 4 7 342.345 326.095 4.599 0.005 o
5 4 8 5.782 6.429 0.170 15.024 o
5 4 9 38.795 38.822 0.650 0.384 o
5 4 10 40.725 42.242 0.680 0.341 o
5 4 11 4.661 5.209 0.150 22.591 o
5 4 12 32.715 32.514 0.560 0.542 o
5 4 13 39.129 38.272 0.650 0.384 o
5 4 14 8.214 8.528 0.230 7.848 o
5 4 15 0.574 0.730 0.080 466.095 o
5 4 16 10.991 10.868 0.290 4.566 o
5 4 17 5.499 5.709 0.180 16.911 o
5 4 18 0.008 0.050 0.060 1188.510 o
5 4 19 2.187 2.170 0.110 93.161 o
5 4 20 16.025 15.337 0.470 2.144 o
5 4 21 0.051 0.090 0.090 526.845 o
5 4 22 3.229 3.159 0.160 43.358 o
5 5 5 1.162 1.500 0.090 217.702 o
5 5 6 42.468 44.581 0.720 0.311 o
5 5 7 3.255 3.909 0.120 42.703 o
5 5 8 41.348 42.102 0.680 0.335 o
5 5 9 32.185 32.654 0.550 0.553 o
5 5 10 96.858 89.872 1.340 0.065 o
5 5 11 256.923 238.662 3.439 0.009 o
5 5 12 89.247 82.773 1.260 0.077 o
5 5 13 19.219 18.586 0.400 1.567 o
5 5 14 3.328 3.429 0.120 45.137 o
5 5 15 77.240 72.316 1.680 0.098 o
5 5 16 7.837 7.958 0.230 8.655 o
5 5 17 84.218 79.084 1.870 0.082 o
5 5 18 0.427 0.610 0.090 437.249 o
5 5 19 0.281 0.500 0.080 587.250 o
5 5 20 0.030 0.120 0.090 527.089 o
5 5 21 5.975 6.249 0.230 13.597 o
5 6 5 74.355 71.466 1.180 0.108 o
5 6 6 0.070 0.070 0.050 1689.710 o
5 6 7 115.380 109.358 1.730 0.045 o
5 6 8 0.902 1.240 0.080 311.861 o
5 6 9 56.849 54.759 0.860 0.185 o
5 6 10 13.880 13.407 0.280 3.017 o
5 6 11 0.290 0.490 0.060 950.190 o
5 6 12 4.517 4.639 0.150 25.132 o
5 6 13 13.114 12.967 0.310 3.265 o
5 6 14 20.426 19.306 0.480 1.384 o
5 6 15 0.258 0.340 0.070 781.509 o
5 6 16 16.390 15.797 0.410 2.104 o
5 6 17 1.608 1.900 0.100 139.502 o
5 6 18 2.917 3.219 0.140 50.709 o
5 6 19 0.283 0.380 0.090 486.283 o
5 6 20 12.473 11.868 0.380 3.520 o
5 6 21 3.026 4.729 0.480 13.286 o
5 7 5 0.472 0.480 0.090 441.240 o
5 7 6 23.238 23.125 0.490 1.051 o
5 7 7 32.014 31.244 0.590 0.569 o
5 7 8 0.067 0.060 0.060 1179.950 o
5 7 9 84.136 79.024 1.260 0.086 o
5 7 10 1.329 1.320 0.080 226.352 o
5 7 11 122.740 112.887 1.910 0.041 o
5 7 12 12.375 12.328 0.330 3.579 o
5 7 13 23.965 22.895 0.580 0.995 o
5 7 14 45.088 43.101 1.040 0.283 o
5 7 15 5.084 5.309 0.180 19.299 o
5 7 16 5.875 5.989 0.200 14.819 o
5 7 17 35.264 34.163 0.850 0.456 o
5 7 18 20.324 19.986 0.610 1.305 o
5 7 19 1.660 1.960 0.130 109.934 o
5 7 20 0.216 0.520 0.160 162.734 o
5 8 5 25.577 25.165 0.510 0.880 o
5 8 6 52.059 48.950 0.860 0.222 o
5 8 7 46.240 44.211 0.910 0.274 o
5 8 8 21.605 20.786 0.500 1.227 o
5 8 9 5.897 5.899 0.220 14.465 o
5 8 10 2.876 3.079 0.150 50.850 o
5 8 11 22.607 21.336 0.570 1.118 o
5 8 12 0.157 0.260 0.070 829.946 o
5 8 13 2.551 2.809 0.120 66.986 o
5 8 14 6.436 6.269 0.210 12.822 o
5 8 15 1.146 1.390 0.100 206.694 o
5 8 16 0.827 1.010 0.100 274.260 o
5 8 17 11.561 11.658 0.390 3.861 o
5 8 18 0.049 0.080 0.100 427.209 o
5 8 19 1.576 5.589 0.510 13.361 o
5 9 5 9.124 8.748 0.290 6.482 o
5 9 6 41.205 38.192 0.840 0.351 o
5 9 7 24.564 23.925 0.750 0.895 o
5 9 8 37.331 36.393 1.050 0.394 o
5 9 9 0.006 -0.030 0.100 428.280 o
5 9 10 0.371 0.390 0.110 326.585 o
5 9 11 113.557 104.759 2.689 0.045 o
5 9 12 3.060 3.079 0.140 49.478 o
5 9 13 25.206 24.555 0.640 0.882 o
5 9 14 0.112 0.220 0.090 518.784 o
5 9 15 14.053 13.887 0.450 2.680 o
5 9 16 7.726 8.128 0.290 8.172 o
5 9 17 1.234 1.480 0.140 134.145 o
5 10 5 124.118 113.907 3.389 0.037 o
5 10 6 1.281 1.320 0.130 148.585 o
5 10 7 6.505 6.679 0.290 10.957 o
5 10 8 0.024 0.090 0.100 427.638 o
5 10 9 24.831 24.245 0.760 0.874 o
5 10 10 1.399 1.640 0.140 121.755 o
5 10 11 4.668 5.049 0.260 18.515 o
5 10 12 5.789 6.179 0.310 12.393 o
5 10 13 0.038 0.080 0.130 253.137 o
5 10 14 0.312 0.480 0.120 278.752 o
5 10 15 1.063 1.120 0.150 138.883 o
5 10 16 0.248 3.259 0.510 15.789 o
5 11 5 5.075 4.929 0.250 17.667 o
5 11 6 11.520 11.308 0.450 3.770 o
5 11 7 20.912 20.716 0.730 1.181 o
5 11 8 9.020 8.678 0.360 6.167 o
5 11 9 5.681 6.099 0.310 12.695 o
5 11 10 55.886 53.329 2.170 0.163 o
5 11 11 5.901 5.689 0.300 12.896 o
5 11 12 25.315 25.075 1.170 0.725 o
5 11 13 40.682 39.172 1.280 0.326 o
5 12 5 0.228 0.540 0.150 183.926 o
5 12 6 21.791 20.846 0.890 1.051 o
5 12 7 22.398 22.246 0.950 0.960 o
5 12 8 3.939 4.179 0.290 21.506 o
5 12 9 0.088 0.250 0.170 147.462 o
5 12 10 1.097 1.090 0.190 95.957 o
5 12 11 3.298 4.109 0.680 7.743 o
5 13 5 0.567 0.710 0.270 56.658 o
5 13 6 1.362 1.550 0.310 38.739 o
5 13 7 0.319 4.719 1.390 2.191 o
6 0 6 16.082 16.127 0.420 2.118 o
6 0 8 157.330 156.339 3.209 0.023 o
6 0 10 3.870 4.749 0.200 26.207 o
6 0 12 16.465 17.896 0.490 1.875 o
6 0 14 46.779 44.581 1.030 0.265 o
6 0 16 30.003 28.134 0.960 0.606 o
6 0 18 1.931 2.160 0.150 83.660 o
6 0 20 12.965 12.738 0.490 3.009 o
6 0 22 69.142 61.698 2.519 0.113 o
6 1 6 267.527 270.016 3.829 0.008 o
6 1 7 12.186 13.557 0.260 3.552 o
6 1 8 36.771 36.783 0.600 0.429 o
6 1 9 13.726 14.627 0.290 2.884 o
6 1 10 320.810 307.968 4.399 0.006 o
6 1 11 0.247 0.380 0.070 778.272 o
6 1 12 138.283 128.334 1.940 0.032 o
6 1 13 85.368 81.464 1.230 0.083 o
6 1 14 15.071 15.397 0.340 2.438 o
6 1 15 14.351 14.437 0.330 2.708 o
6 1 16 22.643 20.926 0.530 1.142 o
6 1 17 12.305 12.287 0.330 3.611 o
6 1 18 0.393 0.450 0.080 562.854 o
6 1 19 22.864 21.216 0.550 1.113 o
6 1 20 3.648 3.819 0.150 35.612 o
6 1 21 4.738 4.949 0.190 21.334 o
6 1 22 1.693 1.910 0.120 117.036 o
6 2 6 36.145 39.272 0.630 0.418 o
6 2 7 44.603 46.081 0.730 0.285 o
6 2 8 81.666 80.614 1.210 0.088 o
6 2 9 17.466 18.246 0.340 1.820 o
6 2 10 0.016 0.070 0.040 2662.860 o
6 2 11 3.691 4.709 0.140 31.658 o
6 2 12 1.692 1.840 0.100 135.548 o
6 2 13 36.799 36.823 0.630 0.426 o
6 2 14 0.552 0.620 0.070 590.609 o
6 2 15 41.340 38.402 0.720 0.353 o
6 2 16 8.034 7.688 0.220 8.652 o
6 2 17 18.405 17.247 0.440 1.709 o
6 2 18 12.319 12.258 0.330 3.611 o
6 2 19 0.001 0.070 0.070 873.324 o
6 2 20 9.760 9.768 0.310 5.527 o
6 2 21 23.615 22.795 0.680 0.986 o
6 2 22 1.534 1.630 0.120 134.392 o
6 3 6 33.667 33.883 0.550 0.509 o
6 3 7 16.071 16.997 0.330 2.121 o
6 3 8 155.909 151.060 2.200 0.025 o
6 3 9 99.312 96.581 1.420 0.060 o
6 3 10 89.982 86.813 1.290 0.074 o
6 3 11 68.847 66.927 1.050 0.125 o
6 3 12 22.245 21.116 0.400 1.201 o
6 3 13 46.869 44.821 0.740 0.272 o
6 3 14 17.695 17.416 0.390 1.816 o
6 3 15 69.553 62.148 1.100 0.129 o
6 3 16 42.538 40.112 0.950 0.322 o
6 3 17 62.229 57.888 1.310 0.153 o
6 3 18 19.341 18.886 0.480 1.501 o
6 3 19 3.050 3.379 0.130 48.669 o
6 3 20 2.656 2.889 0.140 58.819 o
6 3 21 15.198 14.957 0.460 2.329 o
6 3 22 10.389 10.218 0.340 4.890 o
6 4 6 44.494 43.931 0.700 0.296 o
6 4 7 33.718 32.933 0.550 0.518 o
6 4 8 0.933 1.220 0.070 344.484 o
6 4 9 20.610 21.456 0.390 1.314 o
6 4 10 11.914 11.298 0.250 4.123 o
6 4 11 2.535 2.589 0.110 73.168 o
6 4 12 11.950 12.307 0.270 3.857 o
6 4 13 0.110 0.190 0.050 1626.860 o
6 4 14 45.542 42.541 0.800 0.290 o
6 4 15 4.602 4.699 0.160 23.985 o
6 4 16 31.556 29.494 0.710 0.588 o
6 4 17 21.314 20.596 0.520 1.247 o
6 4 18 14.312 13.787 0.370 2.745 o
6 4 19 17.584 17.247 0.570 1.714 o
6 4 20 0.296 0.430 0.100 395.639 o
6 4 21 0.428 0.530 0.090 445.212 o
6 5 6 1.346 1.630 0.100 172.816 o
6 5 7 11.926 12.557 0.280 3.799 o
6 5 8 232.775 218.316 3.159 0.011 o
6 5 9 1.426 1.510 0.080 199.652 o
6 5 10 11.741 11.918 0.260 4.044 o
6 5 11 1.923 2.360 0.100 105.822 o
6 5 12 52.194 48.230 0.900 0.223 o
6 5 13 145.709 130.664 2.200 0.029 o
6 5 14 8.042 8.048 0.230 8.337 o
6 5 15 17.475 16.927 0.460 1.829 o
6 5 16 94.521 86.863 1.990 0.067 o
6 5 17 12.619 12.967 0.350 3.352 o
6 5 18 28.652 27.695 0.680 0.693 o
6 5 19 3.465 3.459 0.150 39.686 o
6 5 20 29.564 28.994 0.860 0.622 o
6 5 21 1.151 1.280 0.160 119.786 o
6 6 6 45.724 43.461 0.800 0.285 o
6 6 7 2.350 2.789 0.140 66.941 o
6 6 8 5.780 6.519 0.200 14.343 o
6 6 9 7.505 7.309 0.190 9.954 o
6 6 10 9.780 9.598 0.240 5.864 o
6 6 11 0.057 0.060 0.040 2637.100 o
6 6 12 0.229 0.260 0.060 1068.370 o
6 6 13 18.624 17.727 0.450 1.651 o
6 6 14 3.733 3.839 0.140 35.471 o
6 6 15 41.186 38.792 0.920 0.344 o
6 6 16 4.548 4.909 0.170 23.261 o
6 6 17 16.632 15.977 0.420 2.044 o
6 6 18 12.170 12.508 0.390 3.492 o
6 6 19 3.751 3.929 0.170 32.375 o
6 6 20 2.599 2.629 0.150 60.336 o
6 7 6 3.741 4.069 0.180 31.042 o
6 7 7 49.910 46.581 0.830 0.243 o
6 7 8 9.136 9.238 0.290 6.271 o
6 7 9 67.973 64.027 1.240 0.129 o
6 7 10 27.004 24.915 0.570 0.815 o
6 7 11 0.944 1.030 0.080 326.016 o
6 7 12 61.269 56.369 1.330 0.158 o
6 7 13 96.894 89.472 2.170 0.063 o
6 7 14 90.623 83.173 1.970 0.072 o
6 7 15 2.753 3.239 0.130 55.329 o
6 7 16 7.503 7.808 0.250 9.029 o
6 7 17 12.288 12.607 0.390 3.437 o
6 7 18 11.471 10.928 0.350 4.157 o
6 7 19 22.657 22.375 0.750 1.023 o
6 8 6 12.765 11.868 0.360 3.464 o
6 8 7 16.008 16.467 0.440 2.086 o
6 8 8 10.444 10.338 0.360 4.753 o
6 8 9 2.894 3.069 0.170 47.075 o
6 8 10 1.479 1.630 0.130 127.626 o
6 8 11 0.931 0.950 0.110 233.332 o
6 8 12 6.048 5.989 0.200 14.333 o
6 8 13 0.492 0.650 0.090 419.405 o
6 8 14 16.007 15.827 0.440 2.136 o
6 8 15 4.164 4.349 0.180 26.839 o
6 8 16 20.543 19.836 0.630 1.285 o
6 8 17 0.471 0.540 0.120 265.384 o
6 8 18 0.272 0.470 0.160 162.152 o
6 9 6 6.998 6.779 0.290 10.062 o
6 9 7 1.326 1.440 0.130 142.089 o
6 9 8 5.834 5.879 0.250 13.989 o
6 9 9 0.049 0.150 0.110 352.535 o
6 9 10 11.162 11.208 0.390 4.111 o
6 9 11 101.240 92.032 2.559 0.057 o
6 9 12 10.019 10.108 0.380 4.960 o
6 9 13 31.810 32.283 1.330 0.473 o
6 9 14 25.342 24.355 0.800 0.841 o
6 9 15 24.469 22.476 0.740 0.935 o
6 9 16 19.716 18.476 0.630 1.404 o
6 10 6 0.478 0.460 0.110 312.925 o
6 10 7 1.087 1.110 0.130 168.421 o
6 10 8 9.458 9.438 0.380 5.487 o
6 10 9 5.583 5.839 0.260 14.450 o
6 10 10 0.846 0.850 0.120 219.503 o
6 10 11 0.915 1.040 0.140 164.004 o
6 10 12 0.575 0.660 0.160 151.921 o
6 10 13 9.757 10.058 0.510 4.498 o
6 10 14 0.724 0.800 0.140 181.470 o
6 10 15 5.762 9.538 0.880 3.806 o
6 11 6 0.218 0.260 0.140 214.310 o
6 11 7 0.262 0.320 0.140 212.416 o
6 11 8 0.034 -0.010 0.130 253.368 o
6 11 9 0.992 1.080 0.160 129.659 o
6 11 10 11.384 11.568 0.520 3.559 o
6 11 11 16.588 16.477 0.710 1.745 o
6 11 12 35.460 34.943 1.440 0.391 o
6 12 6 1.048 1.060 0.170 116.437 o
6 12 7 0.151 0.170 0.180 131.470 o
6 12 8 0.057 0.080 0.160 167.106 o
6 12 9 6.642 6.659 0.360 9.640 o
7 0 7 446.052 427.784 8.508 0.003 o
7 0 9 13.907 15.097 0.450 2.581 o
7 0 11 0.038 0.180 0.080 663.797 o
7 0 13 16.534 15.727 0.490 2.016 o
7 0 15 23.797 22.236 0.770 0.962 o
7 0 17 175.130 158.328 5.119 0.019 o
7 0 19 13.040 12.508 0.480 3.040 o
7 0 21 2.480 2.779 0.200 49.011 o
7 1 7 153.681 153.389 2.220 0.025 o
7 1 8 11.314 11.848 0.250 4.270 o
7 1 9 10.122 10.738 0.250 5.210 o
7 1 10 90.050 86.183 1.300 0.074 o
7 1 11 45.863 43.541 0.730 0.285 o
7 1 12 33.886 33.153 0.570 0.511 o
7 1 13 1.186 1.210 0.090 234.688 o
7 1 14 13.118 13.277 0.310 3.217 o
7 1 15 16.688 16.307 0.430 2.003 o
7 1 16 2.283 2.519 0.110 82.638 o
7 1 17 14.380 13.657 0.360 2.757 o
7 1 18 1.675 1.910 0.100 134.285 o
7 1 19 5.958 5.929 0.190 14.866 o
7 1 20 7.049 6.709 0.240 10.702 o
7 1 21 42.812 37.752 1.100 0.323 o
7 1 22 2.576 5.769 0.580 9.942 o
7 2 7 3.416 3.699 0.120 41.930 o
7 2 8 83.946 82.493 1.240 0.084 o
7 2 9 49.796 48.280 0.760 0.240 o
7 2 10 0.813 0.840 0.080 382.039 o
7 2 11 22.619 22.386 0.420 1.129 o
7 2 12 3.440 3.509 0.120 42.913 o
7 2 13 0.000 0.070 0.060 1188.390 o
7 2 14 10.408 10.408 0.270 5.073 o
7 2 15 2.542 2.769 0.120 67.776 o
7 2 16 100.080 90.102 2.120 0.060 o
7 2 17 22.433 22.285 0.550 1.106 o
7 2 18 68.733 63.227 1.470 0.126 o
7 2 19 1.745 1.910 0.110 121.798 o
7 2 20 4.953 5.239 0.190 19.683 o
7 2 21 0.090 0.140 0.100 424.835 o
7 3 7 61.569 60.618 0.940 0.155 o
7 3 8 160.032 151.230 2.200 0.024 o
7 3 9 20.497 20.646 0.400 1.353 o
7 3 10 0.766 0.890 0.080 387.988 o
7 3 11 9.706 9.898 0.240 5.808 o
7 3 12 9.141 9.288 0.230 6.545 o
7 3 13 22.779 22.386 0.470 1.106 o
7 3 14 3.893 3.869 0.140 33.697 o
7 3 15 2.437 2.440 0.110 78.704 o
7 3 16 2.804 3.099 0.120 57.577 o
7 3 17 2.490 2.609 0.110 74.253 o
7 3 18 41.140 38.672 0.930 0.344 o
7 3 19 15.435 14.907 0.500 2.244 o
7 3 20 19.230 17.946 0.680 1.437 o
7 3 21 1.435 1.590 0.120 142.095 o
7 4 7 5.885 5.879 0.160 15.741 o
7 4 8 16.288 16.317 0.320 2.148 o
7 4 9 0.423 0.640 0.070 644.315 o
7 4 10 82.707 77.605 1.200 0.089 o
7 4 11 0.266 0.340 0.060 1019.180 o
7 4 12 2.834 3.119 0.120 56.729 o
7 4 13 0.047 0.160 0.050 1678.870 o
7 4 14 8.808 8.718 0.240 7.064 o
7 4 15 63.013 58.968 1.370 0.148 o
7 4 16 14.376 14.207 0.380 2.669 o
7 4 17 41.704 38.402 0.920 0.340 o
7 4 18 6.972 7.409 0.230 10.353 o
7 4 19 36.383 35.373 1.080 0.411 o
7 4 20 0.147 0.210 0.100 419.877 o
7 4 21 11.770 12.837 0.840 2.444 o
7 5 7 200.509 185.543 2.869 0.015 o
7 5 8 14.631 14.427 0.330 2.645 o
7 5 9 55.262 52.210 0.850 0.198 o
7 5 10 22.935 22.246 0.460 1.103 o
7 5 11 14.846 14.847 0.330 2.551 o
7 5 12 1.092 1.130 0.080 283.772 o
7 5 13 9.201 9.228 0.260 6.376 o
7 5 14 7.834 7.768 0.230 8.785 o
7 5 15 17.318 16.507 0.430 1.900 o
7 5 16 10.662 10.398 0.320 4.766 o
7 5 17 23.290 22.835 0.580 1.032 o
7 5 18 44.685 41.572 1.270 0.282 o
7 5 19 3.559 3.619 0.160 36.658 o
7 5 20 0.330 0.310 0.120 282.801 o
7 6 7 0.092 0.180 0.070 855.759 o
7 6 8 9.794 9.918 0.290 5.541 o
7 6 9 13.772 13.087 0.340 3.012 o
7 6 10 1.015 1.010 0.090 277.826 o
7 6 11 10.516 10.208 0.290 5.001 o
7 6 12 8.334 8.138 0.230 7.934 o
7 6 13 12.638 12.408 0.340 3.456 o
7 6 14 29.961 28.654 0.700 0.639 o
7 6 15 2.253 2.510 0.120 80.286 o
7 6 16 21.717 20.786 0.530 1.208 o
7 6 17 7.624 7.519 0.260 8.965 o
7 6 18 25.147 24.055 0.720 0.875 o
7 6 19 9.126 9.308 0.340 5.976 o
7 7 7 14.739 14.637 0.400 2.519 o
7 7 8 26.976 25.505 0.600 0.800 o
7 7 9 22.874 23.055 0.690 1.014 o
7 7 10 17.509 17.436 0.570 1.712 o
7 7 11 54.277 49.850 1.450 0.195 o
7 7 12 1.117 1.340 0.090 235.186 o
7 7 13 28.788 27.294 0.700 0.692 o
7 7 14 4.528 4.569 0.170 24.364 o
7 7 15 27.790 26.535 0.680 0.739 o
7 7 16 30.995 29.654 0.870 0.579 o
7 7 17 13.006 13.157 0.410 3.099 o
7 7 18 11.318 10.098 0.350 4.414 o
7 8 7 7.130 6.819 0.280 9.960 o
7 8 8 0.222 0.160 0.100 416.260 o
7 8 9 0.030 0.040 0.090 528.229 o
7 8 10 1.294 1.490 0.130 142.485 o
7 8 11 1.521 1.670 0.140 115.223 o
7 8 12 18.313 17.497 0.570 1.621 o
7 8 13 4.853 5.049 0.220 19.410 o
7 8 14 0.434 0.480 0.110 316.320 o
7 8 15 14.238 13.757 0.480 2.609 o
7 8 16 1.383 1.460 0.130 138.004 o
7 8 17 11.691 11.218 0.450 3.725 o
7 9 7 22.680 21.326 0.720 1.061 o
7 9 8 0.044 0.040 0.090 527.909 o
7 9 9 0.215 0.370 0.110 339.713 o
7 9 10 33.439 31.954 1.000 0.491 o
7 9 11 0.018 0.070 0.120 297.236 o
7 9 12 37.085 35.663 1.450 0.368 o
7 9 13 1.190 1.430 0.160 115.481 o
7 9 14 31.093 30.274 1.170 0.527 o
7 9 15 16.233 15.357 0.530 2.049 o
7 10 7 3.315 3.459 0.200 35.529 o
7 10 8 3.651 3.849 0.210 30.059 o
7 10 9 6.449 6.409 0.320 10.778 o
7 10 10 0.633 0.840 0.140 185.341 o
7 10 11 1.831 1.780 0.170 81.834 o
7 10 12 6.315 6.349 0.320 11.054 o
7 10 13 1.010 1.080 0.210 82.841 o
7 11 7 8.261 8.018 0.390 6.813 o
7 11 8 43.086 41.412 1.690 0.272 o
7 11 9 0.002 0.060 0.140 218.476 o
7 11 10 0.181 0.150 0.180 131.344 o
7 11 11 7.422 7.718 0.590 5.704 o
7 12 7 21.365 20.996 0.910 1.060 o
8 0 8 165.941 161.738 3.389 0.021 o
8 0 10 8.225 8.788 0.320 7.062 o
8 0 12 14.373 13.897 0.480 2.566 o
8 0 14 25.122 24.425 0.850 0.834 o
8 0 16 134.831 120.556 3.909 0.032 o
8 0 18 37.609 36.253 1.230 0.378 o
8 0 20 147.731 133.953 5.459 0.024 o
8 1 8 68.313 69.536 1.090 0.123 o
8 1 9 61.677 61.638 0.980 0.153 o
8 1 10 28.644 29.074 0.530 0.693 o
8 1 11 0.006 0.050 0.050 1711.070 o
8 1 12 172.995 159.408 2.639 0.020 o
8 1 13 0.962 1.240 0.080 299.070 o
8 1 14 3.623 4.079 0.150 34.541 o
8 1 15 60.773 55.789 1.340 0.161 o
8 1 16 35.442 33.583 0.830 0.459 o
8 1 17 38.569 36.583 0.900 0.388 o
8 1 18 0.469 0.610 0.090 428.531 o
8 1 19 17.499 17.396 0.530 1.746 o
8 1 20 22.540 21.996 0.740 1.043 o
8 1 21 0.023 1.300 0.240 72.551 o
8 2 8 63.830 62.547 0.980 0.145 o
8 2 9 102.715 98.220 1.500 0.057 o
8 2 10 1.532 1.760 0.090 161.537 o
8 2 11 0.284 0.400 0.060 986.730 o
8 2 12 0.082 0.240 0.060 1148.360 o
8 2 13 24.032 23.265 0.590 0.979 o
8 2 14 26.562 25.855 0.630 0.803 o
8 2 15 11.874 11.618 0.320 3.922 o
8 2 16 20.867 20.386 0.510 1.293 o
8 2 17 51.448 48.910 1.160 0.219 o
8 2 18 23.369 23.045 0.690 0.989 o
8 2 19 88.013 83.223 2.410 0.073 o
8 2 20 9.620 10.088 0.330 5.425 o
8 3 8 30.063 30.074 0.530 0.637 o
8 3 9 41.566 41.712 0.690 0.334 o
8 3 10 2.879 3.169 0.110 56.986 o
8 3 11 150.184 138.622 2.350 0.027 o
8 3 12 58.514 55.739 1.000 0.174 o
8 3 13 163.139 148.900 3.409 0.023 o
8 3 14 8.469 8.678 0.250 7.363 o
8 3 15 0.094 0.100 0.070 862.444 o
8 3 16 18.133 17.596 0.450 1.714 o
8 3 17 4.842 5.019 0.170 21.421 o
8 3 18 46.563 44.411 1.300 0.257 o
8 3 19 0.805 0.840 0.100 290.349 o
8 3 20 10.248 9.668 0.330 5.167 o
8 4 8 33.469 32.483 0.580 0.525 o
8 4 9 75.966 72.146 1.240 0.104 o
8 4 10 58.545 54.369 0.960 0.177 o
8 4 11 0.375 0.460 0.070 706.917 o
8 4 12 9.026 8.968 0.260 6.637 o
8 4 13 34.461 32.064 0.770 0.494 o
8 4 14 8.748 9.068 0.260 6.842 o
8 4 15 1.216 1.260 0.090 226.843 o
8 4 16 2.038 2.270 0.110 97.442 o
8 4 17 0.687 0.840 0.090 357.477 o
8 4 18 98.666 91.922 2.659 0.058 o
8 4 19 4.360 4.609 0.190 24.242 o
8 4 20 2.108 8.858 1.650 1.499 o
8 5 8 39.675 38.152 0.770 0.372 o
8 5 9 47.943 45.571 0.890 0.258 o
8 5 10 82.974 76.755 1.390 0.088 o
8 5 11 9.510 9.668 0.270 5.915 o
8 5 12 139.371 128.624 2.919 0.031 o
8 5 13 18.518 18.596 0.470 1.604 o
8 5 14 80.513 75.555 1.750 0.090 o
8 5 15 9.680 9.468 0.280 5.819 o
8 5 16 11.065 11.348 0.320 4.329 o
8 5 17 4.311 4.839 0.200 23.355 o
8 5 18 0.497 0.580 0.100 358.155 o
8 5 19 9.140 8.768 0.320 6.286 o
8 6 8 6.116 6.519 0.230 12.936 o
8 6 9 20.012 18.896 0.580 1.389 o
8 6 10 29.084 27.954 0.830 0.653 o
8 6 11 11.955 11.558 0.340 3.855 o
8 6 12 53.501 49.260 1.190 0.207 o
8 6 13 10.265 10.488 0.310 4.995 o
8 6 14 0.597 0.730 0.090 388.359 o
8 6 15 5.551 5.749 0.200 16.182 o
8 6 16 10.775 11.488 0.360 4.312 o
8 6 17 16.443 15.947 0.490 2.014 o
8 6 18 48.511 45.201 1.390 0.239 o
8 7 8 72.462 67.207 1.940 0.109 o
8 7 9 34.704 32.694 0.980 0.465 o
8 7 10 7.784 7.379 0.300 8.453 o
8 7 11 46.272 43.111 1.280 0.264 o
8 7 12 0.965 1.290 0.140 154.050 o
8 7 13 35.156 33.793 0.960 0.451 o
8 7 14 5.501 5.319 0.210 16.805 o
8 7 15 29.951 28.744 0.890 0.611 o
8 7 16 19.330 18.656 0.570 1.465 o
8 7 17 2.026 2.140 0.150 81.063 o
8 8 8 46.688 43.461 1.390 0.256 o
8 8 9 3.568 3.989 0.220 29.268 o
8 8 10 0.284 0.330 0.110 336.216 o
8 8 11 5.710 5.839 0.260 14.122 o
8 8 12 49.452 46.751 1.890 0.210 o
8 8 13 1.793 1.810 0.170 82.463 o
8 8 14 6.893 6.929 0.350 9.269 o
8 8 15 11.918 12.008 0.430 3.565 o
8 9 8 6.709 6.669 0.300 10.465 o
8 9 9 15.107 14.467 0.540 2.289 o
8 9 10 11.391 11.108 0.490 3.728 o
8 9 11 3.267 3.059 0.230 34.066 o
8 9 12 1.629 1.820 0.190 75.793 o
8 9 13 2.085 2.200 0.190 62.791 o
8 9 14 1.404 1.570 0.180 90.035 o
8 10 8 3.532 3.739 0.230 29.489 o
8 10 9 1.537 1.590 0.170 92.873 o
8 10 10 8.625 8.458 0.400 6.271 o
8 10 11 15.563 14.257 0.620 2.126 o
8 10 12 1.958 3.039 0.420 19.950 o
8 11 8 6.630 6.799 0.350 9.715 o
8 11 9 1.381 2.170 0.370 27.430 o
9 0 9 89.208 85.273 1.840 0.073 o
9 0 11 286.037 260.428 5.999 0.007 o
9 0 13 136.315 124.645 4.089 0.030 o
9 0 15 1.735 1.950 0.140 99.973 o
9 0 17 0.171 0.210 0.110 347.026 o
9 0 19 20.731 20.156 1.190 0.969 o
9 1 9 63.341 60.338 1.080 0.148 o
9 1 10 25.271 25.065 0.510 0.895 o
9 1 11 0.355 0.610 0.070 682.051 o
9 1 12 8.576 8.718 0.270 7.109 o
9 1 13 157.090 144.871 3.339 0.024 o
9 1 14 31.414 29.684 0.760 0.583 o
9 1 15 14.178 14.207 0.390 2.701 o
9 1 16 0.439 0.650 0.090 430.622 o
9 1 17 0.481 0.500 0.090 437.428 o
9 1 18 0.906 1.120 0.110 226.625 o
9 1 19 13.470 13.787 0.430 2.860 o
9 1 20 6.079 9.218 0.530 6.666 o
9 2 9 60.024 57.888 1.030 0.164 o
9 2 10 48.763 47.401 0.870 0.246 o
9 2 11 189.501 174.755 2.969 0.017 o
9 2 12 8.068 8.108 0.240 8.193 o
9 2 13 80.199 74.705 1.780 0.091 o
9 2 14 48.215 44.701 1.060 0.254 o
9 2 15 3.486 3.759 0.140 38.678 o
9 2 16 0.263 0.430 0.090 485.470 o
9 2 17 0.006 0.070 0.090 528.402 o
9 2 18 10.024 10.178 0.330 5.149 o
9 2 19 19.352 18.716 0.570 1.460 o
9 3 9 11.129 11.668 0.280 4.330 o
9 3 10 0.592 0.730 0.070 548.999 o
9 3 11 2.318 2.539 0.120 77.657 o
9 3 12 113.638 106.129 2.510 0.045 o
9 3 13 0.005 0.060 0.060 1188.370 o
9 3 14 157.999 144.071 3.309 0.024 o
9 3 15 13.863 13.627 0.370 2.874 o
9 3 16 0.439 0.640 0.090 431.677 o
9 3 17 0.141 0.370 0.090 507.621 o
9 3 18 18.672 18.866 0.580 1.510 o
9 3 19 21.468 21.116 0.650 1.167 o
9 4 9 247.051 227.984 3.779 0.010 o
9 4 10 39.437 37.672 0.890 0.371 o
9 4 11 6.196 6.489 0.200 13.299 o
9 4 12 8.354 8.418 0.250 7.620 o
9 4 13 28.185 27.105 0.670 0.718 o
9 4 14 48.794 46.021 1.090 0.245 o
9 4 15 40.580 38.582 0.930 0.351 o
9 4 16 2.240 2.180 0.120 86.535 o
9 4 17 8.553 8.918 0.300 6.843 o
9 4 18 21.788 20.806 0.660 1.153 o
9 5 9 0.001 0.070 0.080 668.759 o
9 5 10 15.752 15.387 0.490 2.163 o
9 5 11 68.738 63.517 1.560 0.125 o
9 5 12 6.236 6.509 0.200 13.175 o
9 5 13 108.108 100.840 2.330 0.050 o
9 5 14 0.255 0.360 0.090 492.309 o
9 5 15 58.570 55.239 1.610 0.164 o
9 5 16 9.758 9.558 0.320 5.553 o
9 5 17 24.768 24.075 0.760 0.880 o
9 5 18 18.101 18.646 0.970 1.290 o
9 6 9 66.253 62.547 1.750 0.129 o
9 6 10 29.843 28.324 0.840 0.627 o
9 6 11 2.751 2.899 0.170 50.539 o
9 6 12 1.209 1.370 0.110 182.623 o
9 6 13 1.718 2.010 0.130 106.108 o
9 6 14 8.275 8.028 0.280 7.697 o
9 6 15 45.798 43.241 1.260 0.268 o
9 6 16 4.190 4.379 0.190 25.971 o
9 6 17 33.885 33.003 1.560 0.409 o
9 7 9 45.403 42.202 1.350 0.271 o
9 7 10 7.463 7.598 0.310 8.608 o
9 7 11 19.383 18.896 0.630 1.414 o
9 7 12 56.009 54.379 2.190 0.160 o
9 7 13 1.754 1.850 0.170 82.978 o
9 7 14 24.524 24.795 0.910 0.833 o
9 7 15 0.742 0.930 0.130 199.112 o
9 7 16 0.065 4.659 1.140 3.250 o
9 8 9 10.487 10.278 0.410 4.552 o
9 8 10 1.112 1.300 0.160 120.913 o
9 8 11 27.510 25.665 1.140 0.664 o
9 8 12 2.293 2.370 0.180 60.596 o
9 8 13 0.076 0.140 0.140 217.768 o
9 8 14 3.476 3.529 0.220 31.648 o
9 9 9 5.958 6.149 0.310 12.086 o
9 9 10 23.594 22.675 0.940 0.902 o
9 9 11 6.183 6.049 0.310 11.752 o
9 9 12 0.741 0.800 0.150 160.903 o
9 10 9 0.531 0.650 0.160 153.391 o
9 10 10 5.189 5.419 0.440 10.952 o
10 0 10 54.189 52.690 1.750 0.182 o
10 0 12 12.352 12.477 0.490 3.211 o
10 0 14 24.138 23.575 0.910 0.872 o
10 0 16 108.639 101.180 4.159 0.044 o
10 0 18 0.000 0.050 0.150 190.332 o
10 1 10 29.458 29.174 0.710 0.645 o
10 1 11 42.402 41.282 0.990 0.316 o
10 1 12 110.428 103.899 2.410 0.048 o
10 1 13 129.095 119.416 2.739 0.036 o
10 1 14 23.587 23.445 0.590 0.997 o
10 1 15 126.540 118.506 2.739 0.037 o
10 1 16 143.330 133.453 3.879 0.028 o
10 1 17 50.412 47.660 1.400 0.221 o
10 1 18 11.338 11.228 0.370 4.093 o
10 2 10 3.226 3.659 0.140 42.610 o
10 2 11 0.139 0.250 0.070 836.461 o
10 2 12 48.151 44.861 1.070 0.253 o
10 2 13 4.993 5.439 0.180 19.408 o
10 2 14 28.491 27.654 0.690 0.697 o
10 2 15 14.822 15.157 0.410 2.438 o
10 2 16 22.173 21.576 0.680 1.098 o
10 2 17 17.981 17.816 0.550 1.653 o
10 2 18 21.585 21.036 0.680 1.150 o
10 3 10 77.391 73.005 1.680 0.098 o
10 3 11 9.050 8.928 0.260 6.634 o
10 3 12 12.866 12.917 0.350 3.283 o
10 3 13 13.891 13.887 0.380 2.821 o
10 3 14 174.640 161.628 3.719 0.019 o
10 3 15 17.181 17.127 0.530 1.801 o
10 3 16 6.587 7.059 0.250 11.083 o
10 3 17 0.002 -0.010 0.100 428.284 o
10 3 18 74.093 75.445 6.129 0.056 o
10 4 10 12.627 12.557 0.360 3.397 o
10 4 11 28.121 26.715 0.650 0.730 o
10 4 12 37.364 36.413 0.900 0.405 o
10 4 13 1.914 2.100 0.110 107.345 o
10 4 14 28.392 27.584 0.830 0.678 o
10 4 15 3.061 3.319 0.150 46.041 o
10 4 16 0.593 0.670 0.110 288.923 o
10 4 17 0.056 0.100 0.110 352.924 o
10 5 10 31.330 29.924 0.890 0.565 o
10 5 11 7.586 7.878 0.300 8.390 o
10 5 12 26.081 25.435 0.680 0.819 o
10 5 13 4.721 5.229 0.200 20.365 o
10 5 14 30.338 29.944 0.890 0.587 o
10 5 15 4.723 5.199 0.200 20.424 o
10 5 16 17.376 16.677 0.570 1.771 o
10 6 10 28.060 27.205 0.830 0.693 o
10 6 11 13.104 12.857 0.460 3.018 o
10 6 12 12.957 13.117 0.570 2.799 o
10 6 13 2.824 3.009 0.210 41.416 o
10 6 14 15.069 14.807 0.490 2.329 o
10 6 15 0.096 0.140 0.110 351.420 o
10 7 10 0.044 0.040 0.130 253.227 o
10 7 11 13.208 13.267 0.570 2.726 o
10 7 12 0.138 0.140 0.140 217.000 o
10 7 13 1.366 1.590 0.190 84.172 o
10 7 14 34.952 31.754 1.240 0.441 o
10 8 10 16.482 15.307 0.660 1.879 o
10 8 11 9.800 9.568 0.440 4.941 o
10 8 12 4.259 4.169 0.280 20.814 o
10 9 10 5.694 5.869 0.310 12.910 o
11 0 11 1.501 1.870 0.150 103.753 o
11 0 13 64.176 60.278 2.010 0.133 o
11 0 15 0.124 0.250 0.140 216.347 o
11 0 17 0.994 1.020 0.190 99.004 o
11 1 11 16.454 16.467 0.430 2.026 o
11 1 12 2.741 3.079 0.140 55.191 o
11 1 13 6.560 7.479 0.240 10.888 o
11 1 14 3.917 4.399 0.180 28.400 o
11 1 15 37.045 36.793 1.090 0.392 o
11 1 16 2.796 3.079 0.160 50.322 o
11 1 17 0.283 1.140 0.250 66.091 o
11 2 11 0.151 0.220 0.080 647.417 o
11 2 12 27.074 26.295 0.660 0.771 o
11 2 13 21.716 20.916 0.540 1.200 o
11 2 14 15.339 15.347 0.480 2.246 o
11 2 15 0.481 0.660 0.110 301.981 o
11 2 16 1.993 2.180 0.150 81.443 o
11 3 11 5.287 5.669 0.200 17.215 o
11 3 12 1.614 2.160 0.120 114.633 o
11 3 13 20.470 20.946 0.630 1.250 o
11 3 14 3.550 3.939 0.170 34.175 o
11 3 15 4.885 5.269 0.210 19.201 o
11 3 16 14.275 14.207 0.470 2.568 o
11 4 11 8.659 8.968 0.280 6.851 o
11 4 12 18.586 17.716 0.570 1.581 o
11 4 13 4.904 5.219 0.200 19.586 o
11 4 14 14.303 14.027 0.440 2.625 o
11 4 15 2.512 2.679 0.160 59.022 o
11 5 11 44.135 44.121 1.780 0.251 o
11 5 12 0.196 0.260 0.160 165.134 o
11 5 13 10.433 10.928 0.390 4.499 o
11 5 14 0.020 0.060 0.110 353.720 o
11 5 15 0.768 7.648 1.220 2.754 o
11 6 11 1.869 2.130 0.180 71.806 o
11 6 12 0.644 0.690 0.150 167.312 o
11 6 13 14.831 14.237 0.560 2.329 o
11 7 11 5.959 6.509 0.330 11.342 o
12 0 12 16.842 17.037 0.740 1.658 o
12 0 14 89.844 83.683 3.449 0.064 o
12 1 12 0.135 0.130 0.100 422.946 o
12 1 13 24.723 25.175 0.760 0.859 o
12 1 14 4.981 5.329 0.220 18.350 o
12 1 15 35.372 33.473 1.190 0.428 o
12 2 12 10.454 10.838 0.350 4.656 o
12 2 13 44.812 42.831 1.370 0.272 o
12 2 14 10.826 10.828 0.380 4.374 o
12 2 15 41.288 42.572 1.960 0.264 o
12 3 12 28.896 29.014 0.870 0.637 o
12 3 13 14.540 14.567 0.490 2.451 o
12 3 14 28.218 27.544 0.880 0.674 o
12 4 12 38.887 36.903 1.160 0.364 o
12 4 13 0.438 0.590 0.130 230.238 o
12 5 12 27.543 27.445 1.080 0.653 o
13 0 13 74.372 80.954 6.809 0.049 o
13 1 13 0.073 4.689 0.600 11.316 o
;
_olex2_submission_special_instructions 'No special instructions were received'
loop_
_space_group_symop_id
_space_group_symop_operation_xyz
1 x,y,z
2 -x+1/2,y+1/2,-z+1/2
3 -x,-y,-z
4 x-1/2,-y-1/2,z-1/2
loop_
_atom_site_label
_atom_site_type_symbol
_atom_site_fract_x
_atom_site_fract_y
_atom_site_fract_z
_atom_site_U_iso_or_equiv
_atom_site_adp_type
_atom_site_occupancy
_atom_site_refinement_flags_posn
O(11 O 0.19465(3) 0.33576(3) 0.336989(15) 0.01207(4) Uani 1.000000 .
O(12 O -0.02028(3) 0.44650(3) 0.212846(16) 0.01136(4) Uani 1.000000 .
O(21 O 0.58053(3) 0.30092(4) 0.081076(18) 0.01321(4) Uani 1.000000 .
O(22 O 0.52183(3) 0.44507(3) 0.250639(16) 0.01089(4) Uani 1.000000 .
N(11 N 0.14218(3) 0.37541(3) 0.234322(14) 0.00774(3) Uani 1.000000 .
N(12 N 0.46437(3) 0.35840(3) 0.158300(16) 0.00817(3) Uani 1.000000 .
N(21 N -0.00509(3) 0.24524(3) 0.010144(17) 0.00983(4) Uani 1.000000 .
H(2a H -0.0510(13) 0.1922(10) -0.0654(8) 0.0206(18) Uani 1.000000 .
H(2b H -0.0959(13) 0.2888(12) 0.0691(8) 0.0206(17) Uani 1.000000 .
N(22 N 0.29809(3) 0.19878(4) -0.061846(17) 0.01142(4) Uani 1.000000 .
H(2c H 0.2312(14) 0.1487(14) -0.1315(8) 0.030(2) Uani 1.000000 .
H(2d H 0.4407(18) 0.1971(17) -0.0511(9) 0.044(3) Uani 1.000000 .
C(1) C 0.26640(3) 0.33325(3) 0.137191(17) 0.00784(4) Uani 1.000000 .
C(2) C 0.18525(3) 0.26000(3) 0.025587(17) 0.00767(4) Uani 1.000000 .
loop_
_atom_site_aniso_label
_atom_site_aniso_U_11
_atom_site_aniso_U_22
_atom_site_aniso_U_33
_atom_site_aniso_U_12
_atom_site_aniso_U_13
_atom_site_aniso_U_23
O(11 0.00932(6) 0.02077(8) 0.00612(5) 0.00094(5) -0.00031(4) 0.00117(4)
O(12 0.00841(6) 0.01722(7) 0.00847(6) 0.00355(4) 0.00029(4) -0.00043(4)
O(21 0.00694(6) 0.02167(9) 0.01103(6) 0.00014(5) 0.00100(5) -0.00416(5)
O(22 0.00842(6) 0.01507(7) 0.00914(6) -0.00145(4) -0.00186(4) -0.00212(4)
N(11 0.00699(6) 0.01045(6) 0.00578(6) 0.00039(4) -0.00012(4) -0.00023(4)
N(12 0.00632(6) 0.01093(6) 0.00726(6) -0.00021(4) -0.00051(4) -0.00066(4)
N(21 0.00756(6) 0.01327(7) 0.00865(6) -0.00037(4) -0.00148(5) -0.00142(4)
H(2a 0.026(4) 0.019(3) 0.016(4) -0.012(3) 0.009(3) -0.010(3)
H(2b 0.021(4) 0.029(4) 0.011(4) -0.006(3) -0.005(3) 0.004(3)
N(22 0.00966(7) 0.01723(8) 0.00739(6) -0.00050(5) 0.00079(5) -0.00307(5)
H(2c 0.029(5) 0.036(5) 0.024(5) -0.005(4) -0.010(4) -0.016(4)
H(2d 0.044(7) 0.073(8) 0.016(4) 0.026(6) 0.011(4) 0.023(5)
C(1) 0.00601(6) 0.01148(7) 0.00604(6) -0.00018(5) -0.00013(4) -0.00119(4)
C(2) 0.00731(7) 0.00960(7) 0.00609(6) -0.00036(4) -0.00038(5) -0.00040(4)
loop_
_atom_type_symbol
_atom_type_description
_atom_type_scat_dispersion_real
_atom_type_scat_dispersion_imag
_atom_type_scat_source
_atom_type_scat_dispersion_source
C C 0.00347 0.00161
'Clementi & Roetti, C., At. Data Nucl. Data Tables 1974, 14, (177-478); Clementi & Raimondi, J. Chem. Phys., 1963, 38, (2686-2689)'
'Henke, Gullikson and Davis, At. Data and Nucl. Data Tables, 1993, 54, 2'
H H 0.00000 0.00000
'Clementi & Roetti, C., At. Data Nucl. Data Tables 1974, 14, (177-478); Clementi & Raimondi, J. Chem. Phys., 1963, 38, (2686-2689)'
'Henke, Gullikson and Davis, At. Data and Nucl. Data Tables, 1993, 54, 2'
N N 0.00653 0.00323
'Clementi & Roetti, C., At. Data Nucl. Data Tables 1974, 14, (177-478); Clementi & Raimondi, J. Chem. Phys., 1963, 38, (2686-2689)'
'Henke, Gullikson and Davis, At. Data and Nucl. Data Tables, 1993, 54, 2'
O O 0.01158 0.00611
'Clementi & Roetti, C., At. Data Nucl. Data Tables 1974, 14, (177-478); Clementi & Raimondi, J. Chem. Phys., 1963, 38, (2686-2689)'
'Henke, Gullikson and Davis, At. Data and Nucl. Data Tables, 1993, 54, 2'
loop_
_geom_angle_atom_site_label_1
_geom_angle_atom_site_label_2
_geom_angle_atom_site_label_3
_geom_angle
_geom_angle_site_symmetry_1
_geom_angle_site_symmetry_3
_geom_angle_publ_flag
O(12 N(11 O(11 121.324(18) . . ?
C(1) N(11 O(11 120.260(19) . . ?
C(1) N(11 O(12 118.382(17) . . ?
O(22 N(12 O(21 120.993(19) . . ?
C(1) N(12 O(21 118.896(18) . . ?
C(1) N(12 O(22 120.037(18) . . ?
H(2b N(21 H(2a 120.0(7) . . ?
C(2) N(21 H(2a 117.2(5) . . ?
C(2) N(21 H(2b 122.8(5) . . ?
H(2d N(22 H(2c 124.4(8) . . ?
C(2) N(22 H(2c 115.1(5) . . ?
C(2) N(22 H(2d 120.3(6) . . ?
N(12 C(1) N(11 116.372(17) . . ?
C(2) C(1) N(11 119.755(18) . . ?
C(2) C(1) N(12 123.822(18) . . ?
N(22 C(2) N(21 118.095(19) . . ?
C(1) C(2) N(21 120.784(18) . . ?
C(1) C(2) N(22 121.07(2) . . ?
loop_
_geom_bond_atom_site_label_1
_geom_bond_atom_site_label_2
_geom_bond_distance
_geom_bond_site_symmetry_2
_geom_bond_publ_flag
O(11 N(11 1.2362(2) . ?
O(12 N(11 1.2378(3) . ?
O(21 N(12 1.2468(3) . ?
O(22 N(12 1.2450(2) . ?
N(11 C(1) 1.4237(3) . ?
N(12 C(1) 1.3984(3) . ?
N(21 H(2a 0.969(9) . ?
N(21 H(2b 0.961(9) . ?
N(21 C(2) 1.3310(3) . ?
N(22 H(2c 0.964(9) . ?
N(22 H(2d 0.994(12) . ?
N(22 C(2) 1.3233(3) . ?
C(1) C(2) 1.4526(3) . ?
loop_
_refln_index_h
_refln_index_k
_refln_index_l
_refln_F_squared_meas
_refln_F_squared_sigma
1 0 0 0 0.01
2 0 0 1298.95 32.87
3 0 0 0.01 0.02
4 0 0 2373.46 58.68
5 0 0 0.04 0.04
6 0 0 480.83 9.91
7 0 0 0.01 0.04
8 0 0 0.83 0.09
9 0 0 0.04 0.06
10 0 0 93.59 1.99
11 0 0 0.03 0.07
12 0 0 0.02 0.08
13 0 0 0.07 0.13
14 0 0 2.24 0.22
15 0 0 0.14 0.23
0 1 0 -0.01 0.02
1 1 0 27.93 1.4
2 1 0 1061.43 19.99
3 1 0 903.47 14.84
4 1 0 121.15 1.78
5 1 0 44.04 0.66
6 1 0 106.77 1.55
7 1 0 19.08 0.33
8 1 0 6.53 0.16
9 1 0 0.19 0.06
10 1 0 227.24 3.31
11 1 0 4.39 0.15
12 1 0 1.36 0.13
13 1 0 1.31 0.14
14 1 0 10.1 0.51
15 1 0 29.97 1.1
0 2 0 4552.59 558.63
1 2 0 888.13 16.53
2 2 0 1319.41 31.4
3 2 0 286.67 4.78
4 2 0 8.17 0.16
5 2 0 115.74 1.66
6 2 0 28.61 0.47
7 2 0 0.57 0.08
8 2 0 125.86 1.97
9 2 0 42.3 0.76
10 2 0 84.49 1.35
11 2 0 11.21 0.34
12 2 0 12.05 0.45
13 2 0 22.97 0.8
14 2 0 9.3 0.48
15 2 0 17.39 0.86
0 3 0 0 0.01
1 3 0 123.42 1.78
2 3 0 3.11 0.09
3 3 0 1337.02 31.09
4 3 0 62.22 1.34
5 3 0 179.56 2.69
6 3 0 33.8 0.56
7 3 0 8.57 0.21
8 3 0 3.64 0.14
9 3 0 3.48 0.15
10 3 0 42.2 0.77
11 3 0 12.93 0.39
12 3 0 13.75 0.51
13 3 0 37.62 1.3
14 3 0 0.19 0.16
15 3 0 60.35 3.73
0 4 0 0.68 0.06
1 4 0 64.21 0.96
2 4 0 177.68 2.53
3 4 0 33.18 0.74
4 4 0 91.31 1.91
5 4 0 112.62 2.33
6 4 0 34.71 0.81
7 4 0 166.89 3.44
8 4 0 1.76 0.11
9 4 0 228.36 3.59
10 4 0 161.61 3.05
11 4 0 64.66 2.02
12 4 0 61.25 2.15
13 4 0 46.99 1.66
14 4 0 3.26 0.25
0 5 0 0.03 0.03
1 5 0 39.26 0.6
2 5 0 3.54 0.09
3 5 0 17.72 0.32
4 5 0 25.79 0.63
5 5 0 205.92 4.19
6 5 0 76.37 1.66
7 5 0 11.53 0.36
8 5 0 0.09 0.06
9 5 0 0.15 0.08
10 5 0 2.07 0.14
11 5 0 6.83 0.3
12 5 0 0.45 0.13
13 5 0 71.71 3.16
14 5 0 1.81 0.21
0 6 0 8.46 0.26
1 6 0 252.57 3.65
2 6 0 266.78 3.96
3 6 0 190.12 2.95
4 6 0 4.07 0.21
5 6 0 66.54 1.46
6 6 0 144.33 3.23
7 6 0 73.24 1.6
8 6 0 15.49 0.46
9 6 0 49.59 1.29
10 6 0 12.26 0.54
11 6 0 33.91 1.23
12 6 0 12.38 0.52
13 6 0 1.57 0.19
0 7 0 0.01 0.04
1 7 0 0.6 0.05
2 7 0 18.89 0.36
3 7 0 8.79 0.21
4 7 0 91.26 1.97
5 7 0 55.94 1.25
6 7 0 0.11 0.07
7 7 0 14.71 0.45
8 7 0 0.08 0.09
9 7 0 0.06 0.07
10 7 0 6.02 0.33
11 7 0 9.59 0.42
12 7 0 8.83 0.44
13 7 0 21.08 1.06
0 8 0 7.27 0.25
1 8 0 70.97 1.11
2 8 0 0.5 0.07
3 8 0 6.46 0.2
4 8 0 42.76 1.05
5 8 0 30.47 0.77
6 8 0 49.58 1.15
7 8 0 0.86 0.11
8 8 0 5.39 0.24
9 8 0 3.05 0.19
10 8 0 10.93 0.51
11 8 0 0.1 0.14
12 8 0 0.09 0.15
0 9 0 0.05 0.05
1 9 0 2.68 0.13
2 9 0 8.59 0.24
3 9 0 15.39 0.36
4 9 0 156.15 3.31
5 9 0 0.67 0.1
6 9 0 2.05 0.14
7 9 0 0.6 0.1
8 9 0 2.86 0.17
9 9 0 0.17 0.11
10 9 0 2.36 0.19
11 9 0 19.09 0.88
0 10 0 157.34 3.41
1 10 0 1.64 0.11
2 10 0 54.35 1.09
3 10 0 38.01 0.83
4 10 0 112.79 2.79
5 10 0 8.52 0.37
6 10 0 76.48 2.66
7 10 0 23.08 0.86
8 10 0 15.77 0.68
9 10 0 12.51 0.59
10 10 0 1.12 0.17
0 11 0 -0.02 0.09
1 11 0 2.02 0.14
2 11 0 0.81 0.12
3 11 0 31.29 1.04
4 11 0 33.46 1.22
5 11 0 4.05 0.23
6 11 0 9.43 0.42
7 11 0 0.22 0.13
8 11 0 2.16 0.2
9 11 0 0.15 0.16
0 12 0 0.43 0.15
1 12 0 10.77 0.4
2 12 0 20.23 0.73
3 12 0 0.17 0.16
4 12 0 13.38 0.61
5 12 0 0.09 0.13
6 12 0 0.58 0.16
7 12 0 1.7 0.2
8 12 0 1.06 0.2
0 13 0 0.1 0.43
1 13 0 3.16 0.27
2 13 0 0.18 0.15
3 13 0 1.31 0.18
4 13 0 0.98 0.22
5 13 0 1.5 0.22
6 13 0 9.8 0.51
1 14 0 11.06 0.65
2 14 0 4.07 0.35
3 14 0 3.33 0.33
15 0 -1 15.35 0.78
14 0 -1 0.03 0.17
13 0 -1 46.3 1.63
12 0 -1 0.04 0.08
11 0 -1 0.12 0.08
10 0 -1 0.05 0.08
9 0 -1 1.11 0.12
8 0 -1 0.02 0.04
7 0 -1 326.79 6.57
6 0 -1 0.04 0.03
5 0 -1 111.48 2.28
4 0 -1 0.31 0.06
3 0 -1 0.64 0.05
2 0 -1 0.02 0.02
1 0 -1 0.01 0.04
0 0 1 0 0.01
1 0 1 -0.01 0.02
2 0 1 0.02 0.02
3 0 1 2710.98 74.72
4 0 1 0.04 0.03
5 0 1 706.87 16.37
6 0 1 0.09 0.07
7 0 1 675.05 13.84
8 0 1 0.03 0.06
9 0 1 0.11 0.08
10 0 1 0.05 0.08
11 0 1 153.42 3.57
12 0 1 0.12 0.09
13 0 1 75.01 2.57
14 0 1 0.05 0.16
15 0 1 60.74 2.75
15 1 -1 116.03 4.03
14 1 -1 7.81 0.41
13 1 -1 1.42 0.15
12 1 -1 0 0.08
11 1 -1 0.26 0.07
10 1 -1 47.31 0.79
9 1 -1 4.53 0.14
8 1 -1 9.04 0.2
7 1 -1 1.22 0.06
6 1 -1 106.66 1.55
5 1 -1 181.89 2.59
4 1 -1 66.31 0.97
3 1 -1 3.64 0.09
2 1 -1 1183.61 23.43
1 1 -1 1077.92 28.99
0 1 1 -0.02 0.03
1 1 1 538.33 9.47
2 1 1 2.51 0.06
3 1 1 4386.1 144.75
4 1 1 196.72 2.79
5 1 1 76.94 1.13
6 1 1 12.74 0.25
7 1 1 99.95 1.47
8 1 1 8.38 0.19
9 1 1 0.16 0.05
10 1 1 0.11 0.06
11 1 1 40.18 0.78
12 1 1 7.67 0.27
13 1 1 21.74 0.66
14 1 1 0.83 0.17
15 1 1 2.91 0.23
15 2 -1 6.24 0.4
14 2 -1 0.26 0.17
13 2 -1 24.33 0.84
12 2 -1 13.78 0.49
11 2 -1 141.26 2.59
10 2 -1 15.17 0.36
9 2 -1 99.04 1.58
8 2 -1 45.07 0.77
7 2 -1 614.25 9.13
6 2 -1 252.86 3.7
5 2 -1 356.62 5.22
4 2 -1 224.67 3.21
3 2 -1 116.88 2.04
2 2 -1 41.83 0.91
1 2 -1 122.23 1.94
1 2 1 160.98 2.46
2 2 1 312.75 4.97
3 2 1 171.37 2.43
4 2 1 367.87 5.56
5 2 1 0.61 0.04
6 2 1 25.7 0.43
7 2 1 6.99 0.18
8 2 1 6.36 0.2
9 2 1 89.66 1.42
10 2 1 70.06 1.13
11 2 1 4.06 0.19
12 2 1 20.36 0.64
13 2 1 28.73 0.94
14 2 1 2.46 0.21
15 2 1 -0.03 0.23
15 3 -1 8.41 1.43
14 3 -1 12.6 0.62
13 3 -1 10.76 0.46
12 3 -1 20.96 0.74
11 3 -1 3.35 0.19
10 3 -1 161.72 2.64
9 3 -1 30.41 0.57
8 3 -1 6.5 0.19
7 3 -1 75.4 1.23
6 3 -1 322.3 4.94
5 3 -1 203.42 4.03
4 3 -1 181.43 3.72
3 3 -1 627.32 14.66
2 3 -1 888.13 20.74
1 3 -1 209.5 3.08
0 3 1 26.05 0.41
1 3 1 101.71 1.47
2 3 1 0.13 0.03
3 3 1 62.85 0.94
4 3 1 51.13 0.78
5 3 1 0.52 0.04
6 3 1 15.24 0.29
7 3 1 6.17 0.17
8 3 1 13.6 0.3
9 3 1 23.55 0.46
10 3 1 0.04 0.08
11 3 1 15.59 0.42
12 3 1 12.63 0.45
13 3 1 21.33 0.77
14 3 1 1.78 0.19
15 3 1 31.17 1.93
14 4 -1 1.5 0.23
13 4 -1 0.08 0.15
12 4 -1 8.01 0.37
11 4 -1 3.81 0.24
10 4 -1 25.2 0.67
9 4 -1 25.96 0.67
8 4 -1 31.28 0.78
7 4 -1 3.34 0.16
6 4 -1 196.72 4.01
5 4 -1 215.75 4.37
4 4 -1 196.78 4.06
3 4 -1 2.3 0.12
2 4 -1 1954.68 33.98
1 4 -1 7.93 0.15
0 4 1 18.32 0.31
1 4 1 1588.18 26.77
2 4 1 478.38 7.73
3 4 1 130.23 1.91
4 4 1 29.52 0.73
5 4 1 342.92 7.34
6 4 1 91.31 1.53
7 4 1 87.79 1.4
8 4 1 130.63 2.04
9 4 1 97.34 1.58
10 4 1 14.35 0.38
11 4 1 38.79 1.19
12 4 1 3.49 0.2
13 4 1 4.65 0.28
14 4 1 1.13 0.19
14 5 -1 0.11 0.18
13 5 -1 1.53 0.18
12 5 -1 75.46 2.6
11 5 -1 2.94 0.18
10 5 -1 37.42 1.08
9 5 -1 127.97 2.69
8 5 -1 1.3 0.11
7 5 -1 30.21 0.75
6 5 -1 19.48 0.54
5 5 -1 119.66 2.51
4 5 -1 2.02 0.12
3 5 -1 302.98 6.21
2 5 -1 14.81 0.27
1 5 -1 7.4 0.15
0 5 1 0.18 0.04
1 5 1 36.52 0.58
2 5 1 44.9 0.69
3 5 1 78.41 1.16
4 5 1 123.13 2.69
5 5 1 75.06 1.6
6 5 1 120.63 2.53
7 5 1 0.04 0.05
8 5 1 3.43 0.17
9 5 1 78.41 1.8
10 5 1 3.76 0.19
11 5 1 7.97 0.33
12 5 1 3.03 0.19
13 5 1 1.23 0.17
14 5 1 0.15 0.18
13 6 -1 4.9 0.3
12 6 -1 3.02 0.21
11 6 -1 0.12 0.09
10 6 -1 98.41 3.39
9 6 -1 3.74 0.21
8 6 -1 9.06 0.32
7 6 -1 59.21 1.33
6 6 -1 41.33 0.96
5 6 -1 35.95 0.85
4 6 -1 135.98 2.79
3 6 -1 0.19 0.05
2 6 -1 0.12 0.05
1 6 -1 39.26 0.63
0 6 1 56.07 0.87
1 6 1 648.91 10.03
2 6 1 396.39 6.05
3 6 1 18.1 0.34
4 6 1 125.75 2.61
5 6 1 493.9 9.93
6 6 1 60.91 1.34
7 6 1 12.54 0.39
8 6 1 13.46 0.42
9 6 1 75.63 1.92
10 6 1 26.79 0.91
11 6 1 72.9 2.37
12 6 1 25.06 0.88
13 6 1 5.74 0.32
13 7 -1 8.04 0.43
12 7 -1 15.69 0.73
11 7 -1 8.78 0.43
10 7 -1 6.87 0.32
9 7 -1 28.55 1.03
8 7 -1 6.52 0.28
7 7 -1 2.6 0.15
6 7 -1 10.75 0.35
5 7 -1 0.07 0.05
4 7 -1 11.98 0.39
3 7 -1 32.15 0.56
2 7 -1 2.92 0.13
1 7 -1 0.2 0.04
0 7 1 2.07 0.08
1 7 1 34.34 0.56
2 7 1 5.4 0.15
3 7 1 9.27 0.22
4 7 1 197.91 4.03
5 7 1 47.57 1.08
6 7 1 36.08 0.87
7 7 1 34.91 0.86
8 7 1 12.92 0.49
9 7 1 18.74 0.71
10 7 1 0.08 0.1
11 7 1 18.97 0.69
12 7 1 4.66 0.28
13 7 1 22.44 1.02
12 8 -1 0.12 0.16
11 8 -1 86.94 4.29
10 8 -1 0.37 0.11
9 8 -1 99.33 3.41
8 8 -1 0.33 0.09
7 8 -1 22.71 0.71
6 8 -1 89.78 2.02
5 8 -1 78.02 1.75
4 8 -1 25.61 0.7
3 8 -1 16.8 0.35
2 8 -1 69.04 1.14
1 8 -1 152.68 2.25
0 8 1 112.11 1.68
1 8 1 4.26 0.13
2 8 1 26.85 0.48
3 8 1 212.68 3.26
4 8 1 120.18 2.53
5 8 1 25.07 0.67
6 8 1 16.2 0.48
7 8 1 96.99 2.35
8 8 1 14.37 0.57
9 8 1 20.55 0.73
10 8 1 0.06 0.1
11 8 1 2.53 0.2
12 8 1 5.62 0.32
11 9 -1 10.34 0.51
10 9 -1 13.27 0.79
9 9 -1 2.81 0.18
8 9 -1 11.48 0.47
7 9 -1 0.55 0.1
6 9 -1 0.21 0.09
5 9 -1 12.37 0.46
4 9 -1 15.2 0.49
3 9 -1 70.12 1.17
2 9 -1 0.7 0.08
1 9 -1 3.83 0.16
0 9 1 0.29 0.06
1 9 1 5.19 0.17
2 9 1 14.74 0.34
3 9 1 0.06 0.07
4 9 1 23.92 0.65
5 9 1 3.17 0.17
6 9 1 15.74 0.51
7 9 1 12.83 0.51
8 9 1 27.38 1
9 9 1 0.13 0.12
10 9 1 1.61 0.16
11 9 1 0.56 0.16
10 10 -1 4.29 0.3
9 10 -1 5.08 0.29
8 10 -1 5.33 0.27
7 10 -1 1.8 0.15
6 10 -1 0.97 0.11
5 10 -1 18.29 0.7
4 10 -1 1.72 0.13
3 10 -1 8.66 0.3
2 10 -1 0.02 0.07
1 10 -1 81.37 1.59
0 10 1 0.1 0.05
1 10 1 1.4 0.11
2 10 1 18.84 0.48
3 10 1 0.86 0.1
4 10 1 78.98 2.01
5 10 1 13.76 0.55
6 10 1 17.2 0.72
7 10 1 1.38 0.15
8 10 1 0.12 0.11
9 10 1 27.96 1.26
10 10 1 6.07 0.33
9 11 -1 0.1 0.18
8 11 -1 11.76 0.56
7 11 -1 0.86 0.13
6 11 -1 -0.03 0.11
5 11 -1 3.16 0.19
4 11 -1 8.88 0.4
3 11 -1 0.09 0.1
2 11 -1 0.31 0.12
1 11 -1 10.42 0.38
0 11 1 8.64 0.28
1 11 1 0.04 0.1
2 11 1 3.17 0.19
3 11 1 1.53 0.15
4 11 1 9.3 0.41
5 11 1 0.52 0.12
6 11 1 27.84 1.03
7 11 1 9.52 0.43
8 11 1 3.71 0.25
9 11 1 2.19 0.21
8 12 -1 0.31 0.19
7 12 -1 1.15 0.2
6 12 -1 13.64 0.65
5 12 -1 37.38 1.37
4 12 -1 34.79 1.28
3 12 -1 4.56 0.26
2 12 -1 26.56 0.87
1 12 -1 26.71 0.83
0 12 1 21.41 0.69
1 12 1 2.74 0.21
2 12 1 13.83 0.52
3 12 1 14.35 0.58
4 12 1 2.22 0.19
5 12 1 3.39 0.22
6 12 1 1.18 0.18
7 12 1 0.09 0.16
8 12 1 0.41 0.18
6 13 -1 2.25 0.27
5 13 -1 1.76 0.21
4 13 -1 0.34 0.16
3 13 -1 14.47 0.64
2 13 -1 19.4 0.83
1 13 -1 0.09 0.16
0 13 1 2.62 0.96
1 13 1 7.15 0.42
2 13 1 1.29 0.18
3 13 1 2.27 0.22
4 13 1 4.41 0.3
5 13 1 0.75 0.2
6 13 1 0.16 0.19
3 14 -1 0.08 0.24
2 14 -1 9.11 0.56
1 14 -1 13.01 1.04
1 14 1 3.11 0.33
2 14 1 16.56 0.88
3 14 1 5.61 0.43
15 0 -2 0.14 0.23
14 0 -2 0.6 0.19
13 0 -2 0.09 0.13
12 0 -2 22.2 0.83
11 0 -2 0.07 0.09
10 0 -2 0.15 0.09
9 0 -2 0 0.07
8 0 -2 360.87 7.4
7 0 -2 0.18 0.06
6 0 -2 671.64 15.03
5 0 -2 0.04 0.07
4 0 -2 13.94 0.38
3 0 -2 0 0.02
2 0 -2 530.72 12.52
1 0 -2 0.05 0.02
0 0 2 -0.03 0.03
1 0 2 0.04 0.02
2 0 2 1223.95 30.6
3 0 2 0.04 0.03
4 0 2 188.93 3.78
5 0 2 0.05 0.04
6 0 2 5.06 0.18
7 0 2 0.04 0.05
8 0 2 8.21 0.29
9 0 2 0.01 0.05
10 0 2 551.69 11.35
11 0 2 0.1 0.1
12 0 2 78.87 2.54
13 0 2 0.09 0.12
14 0 2 20.34 0.93
15 0 2 0.09 0.25
15 1 -2 13.46 0.57
14 1 -2 7.37 0.4
13 1 -2 17.73 0.63
12 1 -2 12.32 0.45
11 1 -2 0.65 0.09
10 1 -2 0.93 0.08
9 1 -2 35.18 0.61
8 1 -2 68.36 1.06
7 1 -2 37.37 0.59
6 1 -2 154.39 2.22
5 1 -2 56.65 0.85
4 1 -2 115.63 1.71
3 1 -2 39.33 0.6
2 1 -2 1833.65 37.63
1 1 -2 2.92 0.08
0 1 2 983.02 16.76
1 1 2 86.31 1.24
2 1 2 796.65 12.85
3 1 2 401.17 6.31
4 1 2 292.46 4.11
5 1 2 0.52 0.04
6 1 2 90.85 1.32
7 1 2 3.49 0.11
8 1 2 14.61 0.29
9 1 2 23.34 0.42
10 1 2 178.48 2.59
11 1 2 2.43 0.11
12 1 2 44.26 1.06
13 1 2 2.79 0.15
14 1 2 0.1 0.14
15 1 2 1.92 0.21
15 2 -2 2.32 0.3
14 2 -2 3.89 0.28
13 2 -2 23.22 0.83
12 2 -2 42.12 1.27
11 2 -2 5.6 0.23
10 2 -2 38.81 0.72
9 2 -2 32 0.61
8 2 -2 0.16 0.06
7 2 -2 104.49 1.63
6 2 -2 313.26 4.66
5 2 -2 461.91 7.06
4 2 -2 1100.08 18.39
3 2 -2 90.46 1.34
2 2 -2 2777.47 68.38
1 2 -2 43.58 0.65
0 2 2 7631.21 936.04
1 2 2 3407.05 108
2 2 2 651.75 10.5
3 2 2 136.43 1.97
4 2 2 317.58 4.63
5 2 2 0.08 0.03
6 2 2 199.61 2.84
7 2 2 284.17 4.24
8 2 2 15.59 0.33
9 2 2 5.44 0.19
10 2 2 201.72 3.08
11 2 2 29.6 0.66
12 2 2 4.01 0.2
13 2 2 68.92 1.95
14 2 2 1.28 0.19
15 2 2 3.48 0.3
15 3 -2 3.57 1.68
14 3 -2 5.94 0.35
13 3 -2 8.77 0.4
12 3 -2 38.2 1.39
11 3 -2 4.41 0.2
10 3 -2 42.53 0.78
9 3 -2 188.87 3.08
8 3 -2 10.49 0.25
7 3 -2 4.96 0.15
6 3 -2 1.16 0.07
5 3 -2 265.36 5.15
4 3 -2 1.53 0.1
3 3 -2 10.09 0.31
2 3 -2 337.18 5.46
1 3 -2 13.81 0.23
0 3 2 34.2 0.53
1 3 2 176.37 2.56
2 3 2 133.3 1.89
3 3 2 261.89 3.88
4 3 2 192.57 2.74
5 3 2 13.97 0.26
6 3 2 90.52 1.37
7 3 2 24.72 0.46
8 3 2 1.37 0.1
9 3 2 126.94 1.99
10 3 2 7.07 0.22
11 3 2 8.64 0.29
12 3 2 9.64 0.36
13 3 2 15.01 0.53
14 3 2 0.23 0.18
14 4 -2 2.61 0.24
13 4 -2 10.52 0.47
12 4 -2 5.48 0.31
11 4 -2 56.7 1.96
10 4 -2 7.94 0.33
9 4 -2 0.73 0.1
8 4 -2 2.55 0.14
7 4 -2 387.41 7.81
6 4 -2 494.07 9.91
5 4 -2 8.7 0.29
4 4 -2 4.36 0.17
3 4 -2 183.76 3.93
2 4 -2 92.73 1.34
1 4 -2 45.46 0.69
0 4 2 1465.45 24.44
1 4 2 1850.13 30.65
2 4 2 200.18 2.95
3 4 2 16.25 0.29
4 4 2 0.82 0.05
5 4 2 559.13 8.59
6 4 2 1.64 0.08
7 4 2 0.11 0.05
8 4 2 0.5 0.08
9 4 2 50.82 0.87
10 4 2 0.3 0.09
11 4 2 71.99 2.17
12 4 2 2.96 0.18
13 4 2 20.09 0.71
14 4 2 7.35 0.41
14 5 -2 21.55 1
13 5 -2 5.94 0.34
12 5 -2 1.82 0.18
11 5 -2 1.32 0.13
10 5 -2 138.7 3.36
9 5 -2 3.48 0.18
8 5 -2 18.44 0.55
7 5 -2 2.8 0.15
6 5 -2 84.66 1.81
5 5 -2 12.48 0.38
4 5 -2 129.33 2.79
3 5 -2 602.32 13.06
2 5 -2 171.09 2.53
1 5 -2 0.14 0.04
0 5 2 1.29 0.06
1 5 2 2.44 0.08
2 5 2 47.32 0.72
3 5 2 2.01 0.07
4 5 2 265.36 4.03
5 5 2 21.23 0.38
6 5 2 31.17 0.78
7 5 2 5.86 0.26
8 5 2 30.77 0.77
9 5 2 5.49 0.24
10 5 2 10.72 0.38
11 5 2 27.33 0.93
12 5 2 1.16 0.14
13 5 2 0.22 0.14
14 5 2 4.13 0.28
13 6 -2 39.73 1.77
12 6 -2 4.73 0.29
11 6 -2 38.97 1.47
10 6 -2 41.36 1.46
9 6 -2 177.17 4.24
8 6 -2 4.04 0.2
7 6 -2 11.47 0.39
6 6 -2 177.51 3.72
5 6 -2 28.17 0.72
4 6 -2 17.23 0.48
3 6 -2 4.5 0.14
2 6 -2 0.06 0.04
1 6 -2 6.36 0.15
0 6 2 62.22 0.96
1 6 2 34.47 0.55
2 6 2 92.91 1.37
3 6 2 230.58 3.44
4 6 2 103.24 1.68
5 6 2 21.48 0.57
6 6 2 0.92 0.1
7 6 2 172.74 3.65
8 6 2 0.3 0.09
9 6 2 126.48 2.97
10 6 2 3.33 0.18
11 6 2 1.8 0.15
12 6 2 6.81 0.31
13 6 2 0.13 0.15
13 7 -2 10.56 0.53
12 7 -2 53.63 2.65
11 7 -2 1.42 0.14
10 7 -2 41.43 1.47
9 7 -2 41.01 1.45
8 7 -2 8.05 0.32
7 7 -2 2.68 0.15
6 7 -2 0.11 0.07
5 7 -2 18.01 0.51
4 7 -2 19.83 0.55
3 7 -2 310.81 4.89
2 7 -2 17.11 0.34
1 7 -2 0.08 0.04
0 7 2 0.23 0.05
1 7 2 0.84 0.05
2 7 2 12.56 0.26
3 7 2 4.72 0.15
4 7 2 91.71 1.5
5 7 2 136.83 2.87
6 7 2 178.3 3.67
7 7 2 0.93 0.12
8 7 2 52.99 1.36
9 7 2 35.13 1.17
10 7 2 0.02 0.11
11 7 2 3.33 0.2
12 7 2 1.61 0.17
13 7 2 1.39 0.2
12 8 -2 5.99 0.38
11 8 -2 6.77 0.35
10 8 -2 48.45 1.71
9 8 -2 1.49 0.15
8 8 -2 8 0.35
7 8 -2 10.93 0.41
6 8 -2 44.47 1.09
5 8 -2 40.41 1.02
4 8 -2 62.05 1.43
3 8 -2 0.17 0.06
2 8 -2 57.22 0.95
1 8 -2 0.09 0.04
0 8 2 46.95 0.75
1 8 2 16.6 0.32
2 8 2 100.35 1.55
3 8 2 16.6 0.35
4 8 2 308.15 4.71
5 8 2 13.94 0.42
6 8 2 82.51 1.84
7 8 2 0.41 0.11
8 8 2 2.54 0.16
9 8 2 1.43 0.14
10 8 2 20.59 0.74
11 8 2 13.28 0.58
12 8 2 11.05 0.54
11 9 -2 30.72 1.74
10 9 -2 0.61 0.13
9 9 -2 9.82 0.43
8 9 -2 0.32 0.1
7 9 -2 1.2 0.12
6 9 -2 1.39 0.13
5 9 -2 2.48 0.16
4 9 -2 60.46 1.39
3 9 -2 0.89 0.1
2 9 -2 0.52 0.09
1 9 -2 5.88 0.2
0 9 2 29.41 0.53
1 9 2 9.29 0.24
2 9 2 0.35 0.09
3 9 2 13.53 0.34
4 9 2 0.1 0.08
5 9 2 36.51 1.08
6 9 2 99.78 2.43
7 9 2 78.87 2.55
8 9 2 1.51 0.14
9 9 2 2 0.16
10 9 2 2.83 0.2
11 9 2 0.02 0.14
10 10 -2 3.17 0.22
9 10 -2 47.31 2.11
8 10 -2 0.26 0.1
7 10 -2 3.72 0.21
6 10 -2 20.56 0.78
5 10 -2 1.85 0.15
4 10 -2 22.47 0.75
3 10 -2 0.98 0.12
2 10 -2 69.66 1.41
1 10 -2 0.37 0.09
0 10 2 25.78 0.52
1 10 2 0.2 0.07
2 10 2 0.91 0.12
3 10 2 78.41 1.51
4 10 2 1.87 0.13
5 10 2 7.96 0.33
6 10 2 44.57 1.49
7 10 2 3.81 0.21
8 10 2 0.11 0.12
9 10 2 14.53 0.68
10 10 2 7.47 0.39
9 11 -2 2.59 0.21
8 11 -2 0.36 0.13
7 11 -2 -0.05 0.13
6 11 -2 0.04 0.11
5 11 -2 1.42 0.14
4 11 -2 68.7 2.39
3 11 -2 14.31 0.57
2 11 -2 23.88 0.75
1 11 -2 0.46 0.1
0 11 2 7.23 0.25
1 11 2 0.08 0.09
2 11 2 2.57 0.18
3 11 2 5.06 0.24
4 11 2 0.08 0.11
5 11 2 0.72 0.13
6 11 2 0.15 0.11
7 11 2 26.02 0.97
8 11 2 5.65 0.32
9 11 2 3.49 0.24
8 12 -2 38.39 1.74
7 12 -2 12.34 0.6
6 12 -2 20.54 0.98
5 12 -2 0.91 0.16
4 12 -2 12.03 0.48
3 12 -2 5.5 0.27
2 12 -2 3.04 0.18
1 12 -2 11.87 0.41
0 12 2 42.3 1.18
1 12 2 4.95 0.27
2 12 2 35.44 1.15
3 12 2 3.38 0.22
4 12 2 1.22 0.16
5 12 2 0.28 0.15
6 12 2 48.07 2.34
7 12 2 3.8 0.29
8 12 2 0.3 0.18
6 13 -2 0.39 0.21
5 13 -2 1.86 0.19
4 13 -2 10.93 0.5
3 13 -2 1.28 0.16
2 13 -2 31.16 1.31
1 13 -2 3.93 0.27
0 13 2 0.74 0.6
1 13 2 1.3 0.21
2 13 2 3.51 0.26
3 13 2 9.23 0.48
4 13 2 4.47 0.3
5 13 2 8.44 0.45
6 13 2 4.03 0.3
3 14 -2 0.12 0.28
2 14 -2 3.71 0.36
1 14 -2 7.44 0.51
0 14 2 6.88 0.86
1 14 2 6.03 0.43
2 14 2 1.28 0.28
3 14 2 0.19 0.4
15 0 -3 11.36 0.61
14 0 -3 0.09 0.19
13 0 -3 47.21 1.59
12 0 -3 0.09 0.11
11 0 -3 118.3 3.03
10 0 -3 0.07 0.09
9 0 -3 225.53 4.68
8 0 -3 0.04 0.05
7 0 -3 47.72 1.08
6 0 -3 0.01 0.04
5 0 -3 1562.04 36.54
4 0 -3 0.03 0.03
3 0 -3 299.62 6.34
2 0 -3 0.02 0.02
1 0 -3 76.31 1.59
0 0 3 0.01 0.01
1 0 3 3465.58 168.96
2 0 3 0.03 0.02
3 0 3 33.62 0.72
4 0 3 0.01 0.03
5 0 3 55.66 1.16
6 0 3 0.03 0.05
7 0 3 305.76 6.16
8 0 3 0.04 0.06
9 0 3 112.68 2.43
10 0 3 0 0.05
11 0 3 23.59 0.71
12 0 3 0.01 0.08
13 0 3 142.34 4.55
14 0 3 0.15 0.17
15 0 3 1.82 0.27
15 1 -3 24.16 0.96
14 1 -3 2.94 0.23
13 1 -3 45.25 1.43
12 1 -3 11.38 0.43
11 1 -3 0.43 0.07
10 1 -3 0.62 0.07
9 1 -3 295.99 4.34
8 1 -3 98.19 1.5
7 1 -3 81.82 1.26
6 1 -3 6.31 0.16
5 1 -3 1174.51 19.71
4 1 -3 31.67 0.5
3 1 -3 105.46 1.55
2 1 -3 1258.61 21.03
1 1 -3 1287.59 22.24
0 1 3 799.49 12.91
1 1 3 21.11 0.33
2 1 3 152.51 2.15
3 1 3 355.14 5.41
4 1 3 387.64 5.87
5 1 3 44.65 0.68
6 1 3 2.37 0.08
7 1 3 57.73 0.88
8 1 3 4.89 0.13
9 1 3 202.06 2.97
10 1 3 86.66 1.32
11 1 3 63.75 1.14
12 1 3 0.69 0.09
13 1 3 71.82 1.71
14 1 3 1.69 0.16
15 1 3 2.42 0.21
15 2 -3 30.55 1.47
14 2 -3 1.19 0.21
13 2 -3 6 0.3
12 2 -3 8.94 0.39
11 2 -3 0.08 0.08
10 2 -3 0.8 0.09
9 2 -3 16.92 0.38
8 2 -3 104.61 1.71
7 2 -3 1.13 0.08
6 2 -3 1414.3 23.33
5 2 -3 76.08 1.15
4 2 -3 16.11 0.28
3 2 -3 119.9 1.73
2 2 -3 1964.91 36.16
1 2 -3 523.84 8.43
0 2 3 12.26 0.21
1 2 3 2914.41 62.1
2 2 3 5.76 0.12
3 2 3 864.27 13.94
4 2 3 13.33 0.24
5 2 3 1252.36 20.17
6 2 3 24.9 0.42
7 2 3 118.41 1.71
8 2 3 67.96 1.03
9 2 3 29.47 0.53
10 2 3 108.24 1.71
11 2 3 128.3 2.3
12 2 3 42.03 1.2
13 2 3 11.6 0.43
14 2 3 0.15 0.16
15 2 3 51.12 2.45
14 3 -3 8.14 0.43
13 3 -3 0.1 0.13
12 3 -3 18.63 0.68
11 3 -3 0.49 0.1
10 3 -3 0.38 0.08
9 3 -3 24.54 0.49
8 3 -3 73.02 1.18
7 3 -3 2.48 0.11
6 3 -3 20.15 0.38
5 3 -3 193.71 2.9
4 3 -3 97.91 1.86
3 3 -3 132.45 1.99
2 3 -3 123.76 1.81
1 3 -3 121.88 1.78
0 3 3 20.32 0.33
1 3 3 218.54 3.13
2 3 3 6.48 0.13
3 3 3 360.82 5.41
4 3 3 405.94 6
5 3 3 17.57 0.31
6 3 3 70.06 1.05
7 3 3 50.36 0.83
8 3 3 17.58 0.37
9 3 3 20.05 0.42
10 3 3 204.5 3.57
11 3 3 9.09 0.34
12 3 3 1.72 0.14
13 3 3 13.85 0.5
14 3 3 0.81 0.17
14 4 -3 8.92 0.46
13 4 -3 8.65 0.44
12 4 -3 1.94 0.15
11 4 -3 44.56 1.56
10 4 -3 29.88 0.99
9 4 -3 37.63 0.93
8 4 -3 19 0.55
7 4 -3 112.68 2.46
6 4 -3 66.37 1.49
5 4 -3 82.85 1.81
4 4 -3 711.98 15.47
3 4 -3 1.42 0.1
2 4 -3 14.19 0.24
1 4 -3 35.37 0.55
0 4 3 2713.82 48.16
1 4 3 12.58 0.24
2 4 3 694.94 11.25
3 4 3 17.58 0.31
4 4 3 4.92 0.12
5 4 3 115.69 1.71
6 4 3 95.69 1.45
7 4 3 21.97 0.43
8 4 3 47.99 0.8
9 4 3 9.51 0.26
10 4 3 20.03 0.49
11 4 3 55.57 1.69
12 4 3 0.22 0.12
13 4 3 21.4 0.71
14 4 3 3.23 0.24
14 5 -3 0.87 0.2
13 5 -3 2.55 0.24
12 5 -3 12.68 0.53
11 5 -3 6.39 0.3
10 5 -3 17.44 0.59
9 5 -3 48.8 1.17
8 5 -3 1.14 0.12
7 5 -3 1.27 0.11
6 5 -3 11.07 0.36
5 5 -3 16.18 0.46
4 5 -3 25.2 0.64
3 5 -3 57.45 1.31
2 5 -3 109.27 1.66
1 5 -3 12.84 0.24
0 5 3 13.12 0.25
1 5 3 289.45 4.16
2 5 3 52.27 0.8
3 5 3 0.16 0.04
4 5 3 147.11 2.22
5 5 3 145.41 2.25
6 5 3 94.78 1.5
7 5 3 45.34 0.76
8 5 3 36.74 0.67
9 5 3 65.8 1.15
10 5 3 6.37 0.25
11 5 3 4.02 0.21
12 5 3 0.7 0.13
13 5 3 15.46 0.67
14 5 3 15.97 0.7
13 6 -3 14.05 0.75
12 6 -3 0.72 0.13
11 6 -3 96.2 3.31
10 6 -3 0.02 0.09
9 6 -3 2.24 0.15
8 6 -3 23.77 0.66
7 6 -3 136.54 2.92
6 6 -3 26.1 0.68
5 6 -3 0.08 0.05
4 6 -3 89.33 1.94
3 6 -3 54.07 0.89
2 6 -3 290.19 4.47
1 6 -3 7.13 0.16
0 6 3 46.04 0.72
1 6 3 9.46 0.2
2 6 3 125.41 1.84
3 6 3 6.07 0.16
4 6 3 393.55 6.13
5 6 3 0.6 0.08
6 6 3 44.74 1.01
7 6 3 0.65 0.1
8 6 3 42.34 1
9 6 3 5.43 0.24
10 6 3 2.09 0.15
11 6 3 17.48 0.63
12 6 3 0.72 0.14
13 6 3 0.5 0.16
13 7 -3 2.43 0.25
12 7 -3 15.6 0.73
11 7 -3 50 1.76
10 7 -3 34.91 1.25
9 7 -3 4.55 0.24
8 7 -3 1.93 0.15
7 7 -3 0.09 0.08
6 7 -3 26.58 0.72
5 7 -3 2.26 0.14
4 7 -3 10.9 0.36
3 7 -3 45.51 0.79
2 7 -3 51.62 0.88
1 7 -3 0.56 0.07
0 7 3 8.78 0.2
1 7 3 2.4 0.09
2 7 3 16.47 0.32
3 7 3 0.3 0.07
4 7 3 8.43 0.22
5 7 3 0.04 0.06
6 7 3 3.68 0.19
7 7 3 60.57 1.37
8 7 3 0.34 0.1
9 7 3 0.13 0.09
10 7 3 16.64 0.61
11 7 3 0.86 0.14
12 7 3 3.91 0.24
13 7 3 4.36 0.27
12 8 -3 0.71 0.14
11 8 -3 3.77 0.23
10 8 -3 47.35 1.67
9 8 -3 120.8 4.11
8 8 -3 2.09 0.15
7 8 -3 0.63 0.11
6 8 -3 53.37 1.27
5 8 -3 68.02 1.55
4 8 -3 1.14 0.11
3 8 -3 20.85 0.45
2 8 -3 39.82 0.71
1 8 -3 110.29 1.68
0 8 3 28.91 0.49
1 8 3 93.7 1.4
2 8 3 0.49 0.07
3 8 3 100.41 1.58
4 8 3 0.36 0.09
5 8 3 62.73 1.39
6 8 3 9.19 0.32
7 8 3 24.02 0.7
8 8 3 4.74 0.23
9 8 3 141.77 4.55
10 8 3 0.31 0.11
11 8 3 29.63 1.22
12 8 3 0.63 0.16
11 9 -3 26.77 1.21
10 9 -3 4.42 0.26
9 9 -3 15.78 0.63
8 9 -3 0.06 0.1
7 9 -3 0.51 0.11
6 9 -3 2.55 0.16
5 9 -3 2.35 0.16
4 9 -3 29.04 0.79
3 9 -3 39.17 0.73
2 9 -3 1.7 0.11
1 9 -3 0.02 0.04
0 9 3 7.3 0.19
1 9 3 0.77 0.07
2 9 3 1.62 0.11
3 9 3 0.11 0.08
4 9 3 5.66 0.2
5 9 3 39.95 1.08
6 9 3 26.12 0.76
7 9 3 17.72 0.64
8 9 3 12.55 0.48
9 9 3 29.47 1.02
10 9 3 3.89 0.24
11 9 3 3.19 0.23
10 10 -3 8.81 0.44
9 10 -3 0.4 0.14
8 10 -3 26.22 0.98
7 10 -3 6.65 0.32
6 10 -3 0.03 0.1
5 10 -3 113.87 3.93
4 10 -3 0.06 0.07
3 10 -3 0.3 0.11
2 10 -3 15.22 0.42
1 10 -3 144.55 2.66
0 10 3 8.85 0.25
1 10 3 0.17 0.08
2 10 3 3.34 0.17
3 10 3 7.94 0.27
4 10 3 21.7 0.56
5 10 3 6.94 0.29
6 10 3 0.1 0.09
7 10 3 27.14 0.94
8 10 3 0.63 0.12
9 10 3 0.59 0.14
10 10 3 0.21 0.17
9 11 -3 1.96 0.19
8 11 -3 10.42 0.51
7 11 -3 0.06 0.12
6 11 -3 0.04 0.11
5 11 -3 3.23 0.21
4 11 -3 15.43 0.61
3 11 -3 0.83 0.12
2 11 -3 64.83 2.06
1 11 -3 5.58 0.24
0 11 3 9.14 0.3
1 11 3 22.68 0.72
2 11 3 22.81 0.73
3 11 3 0.14 0.1
4 11 3 0.04 0.09
5 11 3 31.44 1.08
6 11 3 16.46 0.62
7 11 3 25.41 0.96
8 11 3 0.59 0.16
9 11 3 16.8 0.78
8 12 -3 11.24 0.52
7 12 -3 0.87 0.15
6 12 -3 13.05 0.58
5 12 -3 11.73 0.48
4 12 -3 9.64 0.41
3 12 -3 8.44 0.37
2 12 -3 23.33 0.78
1 12 -3 78.81 2.29
0 12 3 12.61 0.45
1 12 3 2.52 0.19
2 12 3 0.55 0.14
3 12 3 2.09 0.18
4 12 3 1.19 0.16
5 12 3 55.67 2.47
6 12 3 7.78 0.41
7 12 3 2.87 0.24
8 12 3 5.08 0.32
6 13 -3 2.36 0.2
5 13 -3 0.18 0.14
4 13 -3 18.35 0.79
3 13 -3 6.1 0.32
2 13 -3 0.54 0.14
1 13 -3 0.28 0.14
1 13 3 5.24 0.41
2 13 3 17.68 0.83
3 13 3 0.2 0.18
4 13 3 1.16 0.19
5 13 3 6.18 0.36
6 13 3 3.57 0.28
3 14 -3 9.55 2.15
2 14 -3 0.74 0.33
1 14 -3 0.91 0.34
0 14 3 11.36 0.69
1 14 3 0.87 0.27
2 14 3 4.93 0.41
3 14 3 4.55 1.49
15 0 -4 0.27 0.28
14 0 -4 12.56 0.8
13 0 -4 0.01 0.13
12 0 -4 129.5 4.19
11 0 -4 0.03 0.09
10 0 -4 19.67 0.56
9 0 -4 0.04 0.06
8 0 -4 43.41 1.03
7 0 -4 0.01 0.04
6 0 -4 3383.76 84.26
5 0 -4 0.02 0.03
4 0 -4 38.86 0.89
3 0 -4 0.02 0.02
2 0 -4 8619.91 1056.71
1 0 -4 0.04 0.04
0 0 4 1197.24 28.22
1 0 4 0.02 0.02
2 0 4 1.79 0.08
3 0 4 0.17 0.05
4 0 4 112.05 2.28
5 0 4 0.04 0.03
6 0 4 0.25 0.13
7 0 4 0.03 0.04
8 0 4 200.92 4.11
9 0 4 0.01 0.05
10 0 4 24.37 0.66
11 0 4 0.06 0.07
12 0 4 35.49 1.19
13 0 4 0.09 0.13
14 0 4 16.14 0.7
15 0 4 0.11 0.28
15 1 -4 0.57 0.27
14 1 -4 0.79 0.17
13 1 -4 16.98 0.58
12 1 -4 119.38 3.62
11 1 -4 0.09 0.06
10 1 -4 0.39 0.07
9 1 -4 6.63 0.18
8 1 -4 133.54 1.99
7 1 -4 55.26 0.87
6 1 -4 30.68 0.53
5 1 -4 25.85 0.43
4 1 -4 15.14 0.27
3 1 -4 322.41 5.09
2 1 -4 82.96 1.22
1 1 -4 159.96 2.33
0 1 4 25.83 0.41
1 1 4 0.56 0.04
2 1 4 70.18 1.05
3 1 4 9.17 0.18
4 1 4 294.05 4.19
5 1 4 29.27 0.47
6 1 4 6.09 0.15
7 1 4 24.76 0.43
8 1 4 2.61 0.1
9 1 4 2.95 0.11
10 1 4 123.53 1.86
11 1 4 113.08 1.89
12 1 4 16.48 0.43
13 1 4 1.57 0.11
14 1 4 2.93 0.18
15 1 4 2.33 0.31
15 2 -4 13.68 2.07
14 2 -4 4.18 0.26
13 2 -4 0.67 0.17
12 2 -4 8.25 0.34
11 2 -4 28.01 0.67
10 2 -4 9.42 0.27
9 2 -4 6.68 0.21
8 2 -4 119.33 1.91
7 2 -4 47.16 0.81
6 2 -4 240.99 3.67
5 2 -4 742.66 11.82
4 2 -4 313.6 4.63
3 2 -4 86.48 1.29
2 2 -4 270.48 4.06
1 2 -4 0.21 0.03
0 2 4 418.21 6.44
1 2 4 352.41 5.41
2 2 4 1114.85 18.03
3 2 4 34.66 0.53
4 2 4 19.19 0.32
5 2 4 199.5 2.84
6 2 4 2.59 0.09
7 2 4 122.45 1.78
8 2 4 68.81 1.05
9 2 4 43.68 0.73
10 2 4 117.34 1.81
11 2 4 92.73 1.68
12 2 4 4.17 0.21
13 2 4 99.73 2.77
14 2 4 24.75 1.04
15 2 4 9.74 0.84
14 3 -4 4.92 0.29
13 3 -4 0.03 0.16
12 3 -4 0.56 0.12
11 3 -4 7.68 0.32
10 3 -4 27.23 0.64
9 3 -4 80.52 1.33
8 3 -4 38.59 0.69
7 3 -4 16.58 0.33
6 3 -4 7.19 0.19
5 3 -4 169.04 2.51
4 3 -4 204.39 2.97
3 3 -4 490.88 7.84
2 3 -4 792.1 12.78
1 3 -4 701.76 11.07
0 3 4 736.41 12.13
1 3 4 99.49 1.42
2 3 4 122.23 1.76
3 3 4 705.16 11.51
4 3 4 60.8 0.91
5 3 4 81.6 1.21
6 3 4 31.75 0.53
7 3 4 7.74 0.19
8 3 4 23.15 0.44
9 3 4 115.91 1.86
10 3 4 42.93 0.86
11 3 4 120.75 3.31
12 3 4 21.33 0.66
13 3 4 47.21 1.38
14 3 4 19.64 0.84
14 4 -4 13.65 0.69
13 4 -4 55.02 2.46
12 4 -4 1.42 0.14
11 4 -4 38.01 1.35
10 4 -4 13.64 0.48
9 4 -4 6.51 0.27
8 4 -4 6.51 0.26
7 4 -4 0.62 0.1
6 4 -4 8.9 0.31
5 4 -4 54.83 1.24
4 4 -4 296.33 6.31
3 4 -4 68.47 1.01
2 4 -4 145.18 2.12
1 4 -4 114.66 1.68
0 4 4 534.98 8.15
1 4 4 1.23 0.05
2 4 4 11.79 0.23
3 4 4 524.35 7.86
4 4 4 708.01 11.02
5 4 4 196.49 2.9
6 4 4 135.29 2.07
7 4 4 187.57 2.87
8 4 4 2.49 0.13
9 4 4 10.89 0.29
10 4 4 116.15 2.12
11 4 4 3.42 0.18
12 4 4 9.19 0.36
13 4 4 1.97 0.18
14 4 4 12.79 0.58
14 5 -4 6.84 0.41
13 5 -4 1.81 0.18
12 5 -4 41.15 1.48
11 5 -4 54.02 1.89
10 5 -4 13.69 0.54
9 5 -4 0.83 0.1
8 5 -4 7.89 0.3
7 5 -4 0.28 0.09
6 5 -4 10.32 0.35
5 5 -4 40.35 0.98
4 5 -4 27.29 0.68
3 5 -4 67.79 1.09
2 5 -4 0.71 0.05
1 5 -4 48.93 0.74
0 5 4 3.78 0.1
1 5 4 88.98 1.32
2 5 4 0.78 0.05
3 5 4 158.02 2.33
4 5 4 70.06 1.09
5 5 4 17.99 0.34
6 5 4 5.8 0.17
7 5 4 165.52 2.59
8 5 4 5.28 0.18
9 5 4 3.81 0.17
10 5 4 125.58 3.75
11 5 4 9.2 0.34
12 5 4 33.75 1.15
13 5 4 15.01 0.65
14 5 4 22.99 0.98
13 6 -4 1.62 0.18
12 6 -4 4.02 0.24
11 6 -4 0.13 0.11
10 6 -4 6.89 0.32
9 6 -4 38.65 1.08
8 6 -4 24.07 0.66
7 6 -4 43.76 1.07
6 6 -4 4.31 0.2
5 6 -4 71.71 1.63
4 6 -4 228.65 4.91
3 6 -4 24.7 0.44
2 6 -4 7.44 0.19
1 6 -4 130.58 1.91
0 6 4 787.55 12
1 6 4 234.56 3.39
2 6 4 49.08 0.76
3 6 4 77.05 1.19
4 6 4 158.36 2.51
5 6 4 6.12 0.19
6 6 4 110.12 1.76
7 6 4 11.44 0.28
8 6 4 1.99 0.13
9 6 4 100.91 2.41
10 6 4 17.51 0.64
11 6 4 15.71 0.58
12 6 4 1.28 0.14
13 6 4 0.67 0.17
13 7 -4 0.41 0.16
12 7 -4 1.85 0.17
11 7 -4 92.39 3.16
10 7 -4 50.82 1.79
9 7 -4 18.82 0.72
8 7 -4 0.02 0.08
7 7 -4 1.68 0.13
6 7 -4 38 0.96
5 7 -4 0.09 0.07
4 7 -4 149.9 3.31
3 7 -4 27.72 0.51
2 7 -4 51.09 0.85
1 7 -4 4.66 0.14
0 7 4 13.25 0.26
1 7 4 100.01 1.47
2 7 4 54.95 0.88
3 7 4 11.62 0.26
4 7 4 2.28 0.11
5 7 4 21.46 0.44
6 7 4 5.15 0.18
7 7 4 120.01 2.53
8 7 4 10.17 0.37
9 7 4 50.17 1.65
10 7 4 8.67 0.36
11 7 4 2.21 0.17
12 7 4 1.05 0.16
13 7 4 1.54 0.19
12 8 -4 11.78 0.57
11 8 -4 0.9 0.15
10 8 -4 0.08 0.12
9 8 -4 2.04 0.16
8 8 -4 10.36 0.43
7 8 -4 2.42 0.17
6 8 -4 0.09 0.08
5 8 -4 51.15 1.25
4 8 -4 21.97 0.62
3 8 -4 11.46 0.29
2 8 -4 191.21 2.95
1 8 -4 153.93 2.41
0 8 4 46.12 0.74
1 8 4 19.68 0.37
2 8 4 14.06 0.3
3 8 4 0.35 0.07
4 8 4 28 0.53
5 8 4 7.39 0.22
6 8 4 9.94 0.36
7 8 4 59.89 1.51
8 8 4 1.08 0.12
9 8 4 1.78 0.15
10 8 4 6.46 0.3
11 8 4 9.47 0.43
12 8 4 11.65 0.52
11 9 -4 0.06 0.14
10 9 -4 15.16 0.71
9 9 -4 15.59 0.62
8 9 -4 17.43 0.67
7 9 -4 0.25 0.1
6 9 -4 3.23 0.19
5 9 -4 0.39 0.1
4 9 -4 4.84 0.24
3 9 -4 37.05 0.7
2 9 -4 175.92 2.84
1 9 -4 7.19 0.22
0 9 4 0.94 0.07
1 9 4 18.28 0.36
2 9 4 1.42 0.1
3 9 4 1.81 0.12
4 9 4 0.54 0.1
5 9 4 0.06 0.1
6 9 4 16.76 0.61
7 9 4 18.56 0.66
8 9 4 0.23 0.11
9 9 4 5.56 0.27
10 9 4 10.05 0.5
11 9 4 8.71 0.41
10 10 -4 42.16 1.93
9 10 -4 10.55 0.53
8 10 -4 39.84 1.43
7 10 -4 1.43 0.13
6 10 -4 62.39 2.21
5 10 -4 2.24 0.17
4 10 -4 10.76 0.42
3 10 -4 18.29 0.53
2 10 -4 44.76 0.97
1 10 -4 47.25 0.95
0 10 4 36.55 0.74
1 10 4 70.46 1.27
2 10 4 37.67 0.8
3 10 4 0.53 0.11
4 10 4 9.18 0.35
5 10 4 2.41 0.17
6 10 4 9.89 0.4
7 10 4 0.13 0.12
8 10 4 7.78 0.35
9 10 4 0.23 0.14
10 10 4 3.22 0.23
9 11 -4 11.57 0.52
8 11 -4 0.19 0.13
7 11 -4 0.03 0.11
6 11 -4 0.37 0.12
5 11 -4 0.05 0.11
4 11 -4 0.99 0.12
3 11 -4 11.1 0.46
2 11 -4 21 0.67
1 11 -4 2.09 0.15
0 11 4 5.91 0.23
1 11 4 4.94 0.21
2 11 4 20.15 0.64
3 11 4 6.01 0.26
4 11 4 0.01 0.09
5 11 4 0.09 0.12
6 11 4 47.52 1.59
7 11 4 4.56 0.26
8 11 4 11.96 0.53
9 11 4 3.54 0.24
8 12 -4 6.96 0.59
7 12 -4 0.14 0.15
6 12 -4 0.13 0.13
5 12 -4 17.48 0.75
4 12 -4 7.75 0.35
3 12 -4 0.83 0.12
2 12 -4 14 0.51
1 12 -4 2.66 0.18
0 12 4 7.07 0.32
1 12 4 4.34 0.21
2 12 4 5 0.27
3 12 4 18.61 0.68
4 12 4 11.72 0.5
5 12 4 6.42 0.35
6 12 4 2.75 0.23
7 12 4 16.29 0.77
8 12 4 9.33 0.79
6 13 -4 6.71 0.56
5 13 -4 0.23 0.14
4 13 -4 9.58 0.46
3 13 -4 1.67 0.18
2 13 -4 4.69 0.27
1 13 -4 0.17 0.15
0 13 4 18.87 0.98
1 13 4 1.72 0.29
2 13 4 0.12 0.17
3 13 4 0.22 0.18
4 13 4 0.3 0.18
5 13 4 7.74 0.48
6 13 4 9.72 0.75
2 14 -4 4.21 0.38
1 14 -4 16.49 0.89
0 14 4 7.14 0.56
1 14 4 0.31 0.24
2 14 4 6.57 0.57
15 0 -5 2.87 0.86
14 0 -5 0.06 0.23
13 0 -5 2.25 0.2
12 0 -5 0.05 0.09
11 0 -5 29.85 0.87
10 0 -5 0.03 0.05
9 0 -5 32.41 0.8
8 0 -5 0.03 0.06
7 0 -5 57.05 1.32
6 0 -5 0.1 0.05
5 0 -5 465.71 9.52
4 0 -5 0.09 0.04
3 0 -5 106.37 2.25
2 0 -5 0.02 0.02
1 0 -5 198.99 4.03
0 0 5 0.01 0.02
1 0 5 8227.84 713.41
2 0 5 0.02 0.03
3 0 5 196.38 4.01
4 0 5 0.05 0.04
5 0 5 1926.27 46.78
6 0 5 0 0.03
7 0 5 291.38 5.82
8 0 5 0.05 0.05
9 0 5 65.4 1.43
10 0 5 0.02 0.05
11 0 5 309.74 7.22
12 0 5 0 0.08
13 0 5 140.98 4.5
14 0 5 0.11 0.16
15 0 5 42.23 3.8
15 1 -5 5.59 0.94
14 1 -5 14.27 0.63
13 1 -5 0.45 0.14
12 1 -5 20.04 0.66
11 1 -5 1.26 0.09
10 1 -5 29.7 0.57
9 1 -5 55.55 0.92
8 1 -5 131.2 1.99
7 1 -5 23.35 0.42
6 1 -5 86.88 1.32
5 1 -5 254.62 3.67
4 1 -5 410.31 6.26
3 1 -5 711.41 11.61
2 1 -5 693.8 11.33
1 1 -5 125.18 1.81
0 1 5 235.18 3.39
1 1 5 274.11 3.88
2 1 5 28.54 0.46
3 1 5 150.98 2.15
4 1 5 47.29 0.71
5 1 5 67.73 1.02
6 1 5 68.53 1.03
7 1 5 2.54 0.09
8 1 5 20.61 0.38
9 1 5 6.23 0.17
10 1 5 65.69 1.03
11 1 5 136.54 2.3
12 1 5 0.31 0.08
13 1 5 1.13 0.11
14 1 5 25.26 0.8
15 1 5 9.57 1.03
14 2 -5 39.1 1.61
13 2 -5 61.71 1.85
12 2 -5 55.73 1.59
11 2 -5 61.37 1.82
10 2 -5 0.26 0.08
9 2 -5 71.82 1.22
8 2 -5 10.87 0.28
7 2 -5 4.71 0.17
6 2 -5 222.92 3.41
5 2 -5 1.64 0.06
4 2 -5 18.55 0.32
3 2 -5 1.09 0.05
2 2 -5 525.44 8.35
1 2 -5 19.94 0.34
0 2 5 50.62 0.76
1 2 5 864.27 13.97
2 2 5 68.64 1.01
3 2 5 140.58 1.99
4 2 5 385.37 5.48
5 2 5 17.33 0.31
6 2 5 17.04 0.31
7 2 5 108.24 1.58
8 2 5 10.45 0.24
9 2 5 20.37 0.39
10 2 5 2.87 0.11
11 2 5 17.93 0.48
12 2 5 12.83 0.47
13 2 5 0.58 0.12
14 2 5 26.17 1.19
14 3 -5 23.21 0.99
13 3 -5 37.96 1.24
12 3 -5 124.55 3.96
11 3 -5 31.13 1.04
10 3 -5 1.51 0.12
9 3 -5 44.84 0.82
8 3 -5 15.55 0.35
7 3 -5 30.35 0.55
6 3 -5 1.39 0.09
5 3 -5 86.14 1.35
4 3 -5 96.2 1.47
3 3 -5 28.42 0.45
2 3 -5 6.48 0.14
1 3 -5 3.5 0.1
0 3 5 232.46 3.36
1 3 5 63.58 0.94
2 3 5 88.02 1.29
3 3 5 37.18 0.59
4 3 5 426.96 6.21
5 3 5 357.41 5.04
6 3 5 98.02 1.45
7 3 5 1.76 0.08
8 3 5 20.51 0.4
9 3 5 0.14 0.06
10 3 5 60.29 1.17
11 3 5 44.86 1.27
12 3 5 12.09 0.43
13 3 5 0.88 0.14
14 3 5 38.74 1.59
14 4 -5 1.76 0.22
13 4 -5 4.64 0.26
12 4 -5 0.35 0.12
11 4 -5 108.02 3.7
10 4 -5 15.31 0.53
9 4 -5 1 0.11
8 4 -5 193.99 4.22
7 4 -5 45.34 1.11
6 4 -5 62.33 1.41
5 4 -5 377.87 5.95
4 4 -5 299.23 4.63
3 4 -5 2.63 0.08
2 4 -5 2.67 0.08
1 4 -5 413.5 6.23
0 4 5 315.65 4.55
1 4 5 90.74 1.34
2 4 5 243.99 3.47
3 4 5 197.57 2.9
4 4 5 262.41 3.7
5 4 5 16.45 0.31
6 4 5 31.62 0.55
7 4 5 33.24 0.59
8 4 5 0.23 0.09
9 4 5 38.19 0.7
10 4 5 80.23 1.51
11 4 5 29.02 0.85
12 4 5 7.92 0.33
13 4 5 11.24 0.5
14 4 5 40.28 1.65
14 5 -5 4.65 0.38
13 5 -5 0.15 0.13
12 5 -5 14.89 0.62
11 5 -5 178.54 6.1
10 5 -5 2.32 0.16
9 5 -5 57.11 1.54
8 5 -5 20.98 0.62
7 5 -5 1.79 0.13
6 5 -5 1.73 0.13
5 5 -5 37.79 0.94
4 5 -5 100.06 2.07
3 5 -5 1.07 0.08
2 5 -5 129.84 1.94
1 5 -5 202.46 2.87
0 5 5 108.13 1.58
1 5 5 15.26 0.28
2 5 5 2.91 0.09
3 5 5 405.49 5.92
4 5 5 26.39 0.44
5 5 5 1.5 0.09
6 5 5 43.5 0.77
7 5 5 52.74 0.89
8 5 5 9.24 0.26
9 5 5 94.49 1.76
10 5 5 17.91 0.59
11 5 5 53.61 1.58
12 5 5 0.53 0.13
13 5 5 13.86 0.61
14 5 5 29.98 1.69
13 6 -5 7.43 0.36
12 6 -5 4.01 0.26
11 6 -5 21.56 0.83
10 6 -5 37.67 1.34
9 6 -5 20.59 0.68
8 6 -5 30.27 0.89
7 6 -5 49.11 1.19
6 6 -5 5.07 0.22
5 6 -5 141.32 3.18
4 6 -5 245.92 5.35
3 6 -5 15.36 0.31
2 6 -5 277.8 4.16
1 6 -5 671.07 10.16
0 6 5 328.43 4.73
1 6 5 42.55 0.68
2 6 5 4.2 0.12
3 6 5 126.83 1.86
4 6 5 92.56 1.45
5 6 5 71.48 1.18
6 6 5 0.93 0.09
7 6 5 6.13 0.21
8 6 5 27.48 0.6
9 6 5 35.49 0.81
10 6 5 15.54 0.57
11 6 5 17.99 0.65
12 6 5 3.28 0.21
13 6 5 1.99 0.18
13 7 -5 3.96 0.61
12 7 -5 1.45 0.17
11 7 -5 3.01 0.21
10 7 -5 13.11 0.54
9 7 -5 16.88 0.65
8 7 -5 13.52 0.5
7 7 -5 0.06 0.06
6 7 -5 2.98 0.18
5 7 -5 13.08 0.43
4 7 -5 20.68 0.62
3 7 -5 5.95 0.17
2 7 -5 47.31 0.82
1 7 -5 2.74 0.1
0 7 5 0.54 0.06
1 7 5 260.36 3.75
2 7 5 2.24 0.09
3 7 5 37.78 0.62
4 7 5 20.53 0.41
5 7 5 0.48 0.09
6 7 5 14.81 0.33
7 7 5 66.6 1.28
8 7 5 2.27 0.16
9 7 5 4.68 0.23
10 7 5 44.45 1.71
11 7 5 32.26 1.11
12 7 5 22.86 0.95
12 8 -5 23.07 0.98
11 8 -5 11.6 0.58
10 8 -5 0.37 0.12
9 8 -5 0.23 0.11
8 8 -5 58.81 2.05
7 8 -5 54.28 1.5
6 8 -5 9.36 0.36
5 8 -5 2.4 0.16
4 8 -5 18.75 0.54
3 8 -5 25.72 0.51
2 8 -5 56.58 0.97
1 8 -5 149.73 2.28
0 8 5 128.7 1.91
1 8 5 166.72 2.43
2 8 5 49.12 0.78
3 8 5 8.46 0.23
4 8 5 1.88 0.11
5 8 5 25.17 0.51
6 8 5 0.19 0.09
7 8 5 2.87 0.17
8 8 5 1.41 0.13
9 8 5 0.72 0.12
10 8 5 0.22 0.12
11 8 5 0.07 0.14
12 8 5 0.19 0.15
11 9 -5 2.89 0.21
10 9 -5 21.66 1.01
9 9 -5 8.09 0.38
8 9 -5 0.44 0.12
7 9 -5 0.04 0.11
6 9 -5 11.34 0.47
5 9 -5 5.32 0.23
4 9 -5 45.65 1.24
3 9 -5 19.92 0.43
2 9 -5 19.94 0.44
1 9 -5 21.02 0.44
0 9 5 1.33 0.08
1 9 5 106.15 1.6
2 9 5 127 1.91
3 9 5 0.28 0.09
4 9 5 3.39 0.16
5 9 5 8.75 0.29
6 9 5 5.33 0.25
7 9 5 32.93 1.11
8 9 5 9.1 0.37
9 9 5 4.72 0.24
10 9 5 9.53 0.44
11 9 5 0.13 0.15
10 10 -5 0.08 0.13
9 10 -5 21.97 0.93
8 10 -5 1.25 0.13
7 10 -5 3.81 0.21
6 10 -5 0.63 0.11
5 10 -5 0.18 0.09
4 10 -5 1.06 0.16
3 10 -5 2.09 0.13
2 10 -5 113.02 2.12
1 10 -5 15.06 0.42
0 10 5 23.68 0.51
1 10 5 6.22 0.18
2 10 5 25.84 0.58
3 10 5 30.38 0.69
4 10 5 16.38 0.56
5 10 5 113.93 3.39
6 10 5 0.38 0.11
7 10 5 54.51 1.8
8 10 5 8.24 0.36
9 10 5 89.04 3.59
10 10 5 1.05 0.17
9 11 -5 4.99 0.28
8 11 -5 16.39 0.71
7 11 -5 7.01 0.34
6 11 -5 16.92 0.66
5 11 -5 1.53 0.14
4 11 -5 0.03 0.1
3 11 -5 21.98 0.78
2 11 -5 20.02 0.63
1 11 -5 1.2 0.13
0 11 5 24.76 0.72
1 11 5 1.27 0.11
2 11 5 16.56 0.55
3 11 5 0.54 0.12
4 11 5 1.19 0.14
5 11 5 4.93 0.25
6 11 5 1.95 0.19
7 11 5 0.31 0.13
8 11 5 21.86 0.92
9 11 5 2.83 0.22
7 12 -5 10.03 0.46
6 12 -5 3.64 0.23
5 12 -5 14.14 0.62
4 12 -5 3.45 0.2
3 12 -5 10.18 0.42
2 12 -5 1.33 0.14
1 12 -5 6.18 0.28
0 12 5 1.44 0.13
1 12 5 4.01 0.2
2 12 5 0.36 0.14
3 12 5 0.11 0.13
4 12 5 3.89 0.23
5 12 5 0.54 0.15
6 12 5 0.92 0.17
7 12 5 7.67 0.39
5 13 -5 1.77 0.18
4 13 -5 3.66 0.25
3 13 -5 2.07 0.2
2 13 -5 0.43 0.16
1 13 -5 0.12 0.16
0 13 5 0.92 0.21
1 13 5 1.18 0.35
2 13 5 0.11 0.18
3 13 5 0.27 0.17
4 13 5 0.18 0.18
5 13 5 0.71 0.27
2 14 -5 6.16 1.64
1 14 -5 4.05 0.38
0 14 5 28.5 1.22
1 14 5 2.53 0.64
2 14 5 6.58 1.1
14 0 -6 95.98 4.29
13 0 -6 0 0.17
12 0 -6 38.66 1.3
11 0 -6 0.02 0.08
10 0 -6 0.67 0.1
9 0 -6 0.06 0.06
8 0 -6 92.79 1.99
7 0 -6 0.01 0.05
6 0 -6 208.6 4.22
5 0 -6 0.04 0.04
4 0 -6 10.29 0.29
3 0 -6 0.02 0.03
2 0 -6 36.41 0.8
1 0 -6 0.01 0.04
0 0 6 33.2 0.72
1 0 6 0.06 0.05
2 0 6 1375.09 32.43
3 0 6 0 0.03
4 0 6 1409.19 32.17
5 0 6 0.02 0.03
6 0 6 16.13 0.42
7 0 6 0.09 0.06
8 0 6 28.59 0.68
9 0 6 0.03 0.07
10 0 6 36.9 0.97
11 0 6 0.03 0.1
12 0 6 8.9 0.36
13 0 6 0.05 0.13
14 0 6 6.2 0.35
14 1 -6 73.13 3.26
13 1 -6 24.37 0.78
12 1 -6 7.18 0.3
11 1 -6 16.22 0.46
10 1 -6 59.15 1.09
9 1 -6 19.25 0.39
8 1 -6 31.81 0.54
7 1 -6 32.13 0.54
6 1 -6 27.18 0.46
5 1 -6 67.28 1.02
4 1 -6 640.39 10.06
3 1 -6 13.73 0.25
2 1 -6 397.07 6.08
1 1 -6 55.81 0.84
0 1 6 44.11 0.66
1 1 6 37.83 0.58
2 1 6 24.79 0.41
3 1 6 82.96 1.23
4 1 6 1335.32 21.52
5 1 6 295.53 4.22
6 1 6 270.07 3.83
7 1 6 0.2 0.05
8 1 6 63.92 0.99
9 1 6 52.43 0.84
10 1 6 15.85 0.36
11 1 6 84.72 1.99
12 1 6 64.1 1.49
13 1 6 15.71 0.43
14 1 6 63.02 1.92
14 2 -6 4.7 0.31
13 2 -6 7.16 0.32
12 2 -6 20.91 0.67
11 2 -6 154.67 4.45
10 2 -6 22.76 0.53
9 2 -6 34.43 0.65
8 2 -6 50.49 0.88
7 2 -6 46.7 0.81
6 2 -6 881.88 13.94
5 2 -6 187.97 2.77
4 2 -6 168.87 2.48
3 2 -6 0.2 0.03
2 2 -6 650.61 10.53
1 2 -6 26.55 0.43
0 2 6 514.63 8.09
1 2 6 1452.38 23.82
2 2 6 1.75 0.08
3 2 6 34.08 0.54
4 2 6 746.08 11.97
5 2 6 600.61 9
6 2 6 39.28 0.63
7 2 6 242.8 3.47
8 2 6 47.38 0.76
9 2 6 5.17 0.15
10 2 6 3.09 0.11
11 2 6 9.99 0.3
12 2 6 10.94 0.33
13 2 6 39.58 1.06
14 2 6 8.93 0.41
14 3 -6 0.04 0.16
13 3 -6 0.02 0.12
12 3 -6 0.3 0.11
11 3 -6 189.33 5.72
10 3 -6 7.17 0.26
9 3 -6 18.93 0.43
8 3 -6 124.95 2.02
7 3 -6 2.56 0.13
6 3 -6 31.61 0.57
5 3 -6 198.99 2.97
4 3 -6 24.32 0.43
3 3 -6 46.04 0.72
2 3 -6 181.21 2.64
1 3 -6 16.64 0.3
0 3 6 46.32 0.71
1 3 6 117.11 1.68
2 3 6 30.31 0.48
3 3 6 169.79 2.43
4 3 6 64.55 0.97
5 3 6 2.07 0.08
6 3 6 33.89 0.55
7 3 6 259.96 3.75
8 3 6 16.33 0.33
9 3 6 0.35 0.06
10 3 6 46.36 0.95
11 3 6 25.97 0.77
12 3 6 23.89 0.74
13 3 6 3.15 0.21
14 3 6 12.45 0.61
14 4 -6 2.45 0.24
13 4 -6 18.85 0.8
12 4 -6 61.54 2.06
11 4 -6 2.71 0.18
10 4 -6 28.45 0.88
9 4 -6 101.09 2.07
8 4 -6 20.87 0.48
7 4 -6 4.64 0.17
6 4 -6 94.66 1.58
5 4 -6 37.53 0.64
4 4 -6 106.54 1.68
3 4 -6 21.73 0.38
2 4 -6 8.47 0.18
1 4 -6 873.92 13.71
0 4 6 8.52 0.19
1 4 6 96.54 1.42
2 4 6 6.24 0.14
3 4 6 100.58 1.5
4 4 6 2.9 0.1
5 4 6 13.79 0.26
6 4 6 43.94 0.7
7 4 6 19.79 0.4
8 4 6 95.52 1.55
9 4 6 145.75 2.28
10 4 6 47.02 0.98
11 4 6 20.05 0.62
12 4 6 1.48 0.14
13 4 6 1.01 0.15
14 4 6 55.65 2.26
13 5 -6 3.75 0.23
12 5 -6 35.18 1.31
11 5 -6 25.56 0.9
10 5 -6 3.65 0.21
9 5 -6 66.94 1.8
8 5 -6 0.4 0.11
7 5 -6 24.59 0.69
6 5 -6 50.57 1.23
5 5 -6 43.23 1.1
4 5 -6 150.29 2.33
3 5 -6 25.29 0.46
2 5 -6 1.16 0.05
1 5 -6 103.53 1.55
0 5 6 308.72 4.42
1 5 6 59.72 0.92
2 5 6 71.31 1.08
3 5 6 1.41 0.07
4 5 6 209.73 3.03
5 5 6 44.59 0.72
6 5 6 1.63 0.1
7 5 6 29.07 0.54
8 5 6 12.24 0.31
9 5 6 0.21 0.1
10 5 6 9.12 0.33
11 5 6 7.11 0.29
12 5 6 13.18 0.48
13 5 6 1.93 0.18
13 6 -6 0.07 0.14
12 6 -6 39.64 1.65
11 6 -6 7.88 0.34
10 6 -6 5.35 0.27
9 6 -6 5.13 0.27
8 6 -6 7.9 0.33
7 6 -6 2.61 0.16
6 6 -6 8.97 0.35
5 6 -6 15.29 0.45
4 6 -6 35.49 0.63
3 6 -6 7.3 0.19
2 6 -6 4.89 0.13
1 6 -6 93.76 1.4
0 6 6 18.89 0.35
1 6 6 122.68 1.81
2 6 6 24.62 0.44
3 6 6 142.11 2.09
4 6 6 0.04 0.04
5 6 6 0.07 0.05
6 6 6 43.47 0.8
7 6 6 5.55 0.19
8 6 6 1.59 0.13
9 6 6 0.18 0.08
10 6 6 94.73 2.69
11 6 6 10.77 0.42
12 6 6 13.71 0.6
13 6 6 0.34 0.15
12 7 -6 0.23 0.13
11 7 -6 10.72 0.44
10 7 -6 1.87 0.14
9 7 -6 32.75 1.19
8 7 -6 1.27 0.13
7 7 -6 5.05 0.25
6 7 -6 0.21 0.08
5 7 -6 0.92 0.12
4 7 -6 25.81 0.72
3 7 -6 0.85 0.09
2 7 -6 65.06 1.09
1 7 -6 208.76 3.16
0 7 6 72.45 1.09
1 7 6 53.31 0.84
2 7 6 120.23 1.76
3 7 6 113.08 1.68
4 7 6 34.63 0.61
5 7 6 23.13 0.49
6 7 6 4.07 0.18
7 7 6 8.42 0.31
8 7 6 5.77 0.25
9 7 6 0.25 0.1
10 7 6 1.27 0.13
11 7 6 11.64 0.46
12 7 6 0.17 0.15
12 8 -6 12.84 0.58
11 8 -6 17.04 0.74
10 8 -6 38.03 1.3
9 8 -6 0.43 0.1
8 8 -6 21.63 0.77
7 8 -6 15.48 0.57
6 8 -6 9.63 0.35
5 8 -6 0.48 0.09
4 8 -6 102.73 2.3
3 8 -6 10.93 0.28
2 8 -6 225.47 3.49
1 8 -6 1.16 0.08
0 8 6 142.73 2.12
1 8 6 28.02 0.5
2 8 6 61.25 0.96
3 8 6 1.07 0.09
4 8 6 78.7 1.31
5 8 6 48.96 0.86
6 8 6 11.87 0.36
7 8 6 7.25 0.3
8 8 6 59.04 1.93
9 8 6 55.49 1.83
10 8 6 20.35 0.72
11 8 6 1.15 0.16
12 8 6 0.84 0.17
11 9 -6 0.44 0.15
10 9 -6 68.07 2.8
9 9 -6 6.92 0.31
8 9 -6 20.6 0.75
7 9 -6 4.89 0.24
6 9 -6 38.92 1.32
5 9 -6 1.91 0.13
4 9 -6 0.71 0.11
3 9 -6 0.54 0.09
2 9 -6 4.41 0.19
1 9 -6 3.38 0.15
0 9 6 45.63 0.76
1 9 6 116.09 1.73
2 9 6 20.55 0.4
3 9 6 2.93 0.14
4 9 6 0.03 0.06
5 9 6 38.2 0.84
6 9 6 6.78 0.29
7 9 6 21.03 0.74
8 9 6 31.21 1.06
9 9 6 17.58 0.65
10 9 6 5.43 0.29
11 9 6 1.59 0.19
10 10 -6 0.79 0.15
9 10 -6 0.75 0.13
8 10 -6 16.97 0.65
7 10 -6 0.41 0.11
6 10 -6 -0.02 0.09
5 10 -6 8.06 0.34
4 10 -6 0.08 0.07
3 10 -6 13.89 0.5
2 10 -6 0.38 0.1
1 10 -6 25.55 0.62
0 10 6 86.6 1.55
1 10 6 7.46 0.2
2 10 6 2.66 0.13
3 10 6 5.59 0.23
4 10 6 13.64 0.46
5 10 6 1.32 0.13
6 10 6 0.46 0.11
7 10 6 8.23 0.35
8 10 6 4.77 0.25
9 10 6 12.91 0.57
10 10 6 15.6 0.68
9 11 -6 0.07 0.15
8 11 -6 3.64 0.23
7 11 -6 8.18 0.38
6 11 -6 31.14 1.13
5 11 -6 0.61 0.12
4 11 -6 8.96 0.39
3 11 -6 3.88 0.2
2 11 -6 4.07 0.21
1 11 -6 0.19 0.1
0 11 6 2.32 0.14
1 11 6 25.4 0.66
2 11 6 17.19 0.56
3 11 6 0.94 0.13
4 11 6 1.88 0.15
5 11 6 11.31 0.45
6 11 6 0.26 0.14
7 11 6 0.42 0.14
8 11 6 16.04 0.7
9 11 6 4.88 0.45
7 12 -6 20.75 0.88
6 12 -6 25.55 1.08
5 12 -6 0.33 0.13
4 12 -6 0.2 0.13
3 12 -6 3.22 0.2
2 12 -6 1.39 0.15
1 12 -6 3.54 0.21
0 12 6 86.88 2.33
1 12 6 12.58 0.43
2 12 6 0.51 0.13
3 12 6 1.08 0.15
4 12 6 6.55 0.33
5 12 6 20.85 0.89
6 12 6 1.06 0.17
7 12 6 10.34 0.49
5 13 -6 0.33 0.17
4 13 -6 2.32 0.21
3 13 -6 15.06 0.68
2 13 -6 7.82 0.39
1 13 -6 4.53 0.29
0 13 6 0.41 0.17
1 13 6 0.34 0.34
2 13 6 12.47 0.68
3 13 6 24.37 1.12
4 13 6 0.21 0.25
5 13 6 1.55 0.31
0 14 6 8.96 1.21
14 0 -7 0.22 0.26
13 0 -7 80.46 2.82
12 0 -7 0.05 0.11
11 0 -7 353.94 11.38
10 0 -7 0.04 0.07
9 0 -7 23.75 0.63
8 0 -7 0.01 0.06
7 0 -7 49.79 1.1
6 0 -7 0.01 0.04
5 0 -7 7.84 0.27
4 0 -7 0.06 0.05
3 0 -7 7.17 0.22
2 0 -7 0.02 0.02
1 0 -7 23.72 0.55
0 0 7 0.02 0.03
1 0 7 344.23 7.06
2 0 7 0.02 0.02
3 0 7 85.57 1.78
4 0 7 0.13 0.06
5 0 7 346.22 6.96
6 0 7 0.04 0.04
7 0 7 427.87 8.51
8 0 7 0.02 0.05
9 0 7 34.12 0.82
10 0 7 0.03 0.05
11 0 7 40.58 1.34
12 0 7 0.08 0.13
13 0 7 10.71 0.45
14 0 7 0.03 0.17
14 1 -7 26.19 1.39
13 1 -7 41.04 1.23
12 1 -7 10.29 0.38
11 1 -7 221.67 5.69
10 1 -7 64.72 1.17
9 1 -7 0.04 0.05
8 1 -7 103.65 1.58
7 1 -7 15.1 0.29
6 1 -7 72.79 1.09
5 1 -7 1.06 0.06
4 1 -7 75.29 1.17
3 1 -7 468.27 7.01
2 1 -7 402.07 5.87
1 1 -7 227.8 3.23
0 1 7 213.6 3.05
1 1 7 176.04 2.51
2 1 7 0.37 0.05
3 1 7 31.39 0.5
4 1 7 165.01 2.35
5 1 7 931.88 15
6 1 7 13.56 0.26
7 1 7 153.42 2.22
8 1 7 59.27 0.92
9 1 7 42.67 0.71
10 1 7 16.65 0.38
11 1 7 25.12 0.62
12 1 7 0.28 0.09
13 1 7 13.78 0.39
14 1 7 0.55 0.13
14 2 -7 21.25 1.02
13 2 -7 3.51 0.21
12 2 -7 55.52 1.58
11 2 -7 36.16 1.1
10 2 -7 30.18 0.66
9 2 -7 20 0.44
8 2 -7 193.99 3.08
7 2 -7 15.63 0.36
6 2 -7 67.5 1.04
5 2 -7 13.12 0.26
4 2 -7 4.81 0.13
3 2 -7 93.64 1.4
2 2 -7 188.76 2.74
1 2 -7 1223.38 19.73
0 2 7 2.06 0.07
1 2 7 340.48 4.97
2 2 7 884.16 14.25
3 2 7 134.16 1.97
4 2 7 136.04 1.97
5 2 7 225.3 3.21
6 2 7 46.09 0.73
7 2 7 3.7 0.12
8 2 7 22.09 0.41
9 2 7 153.36 2.22
10 2 7 9.31 0.24
11 2 7 123.48 2.82
12 2 7 0.08 0.08
13 2 7 8.81 0.33
14 2 7 8.64 0.33
14 3 -7 14.84 0.73
13 3 -7 8.2 0.39
12 3 -7 0.11 0.11
11 3 -7 90.58 2.84
10 3 -7 5.36 0.22
9 3 -7 13.55 0.35
8 3 -7 4.46 0.18
7 3 -7 35.49 0.64
6 3 -7 46.53 0.79
5 3 -7 85.4 1.32
4 3 -7 101.03 1.47
3 3 -7 245.87 3.54
2 3 -7 10.71 0.22
1 3 -7 6.59 0.15
0 3 7 39.21 0.62
1 3 7 65.97 0.99
2 3 7 27.6 0.45
3 3 7 106.77 1.55
4 3 7 601.75 9.21
5 3 7 50.21 0.79
6 3 7 17 0.33
7 3 7 60.63 0.94
8 3 7 41.12 0.67
9 3 7 62.16 0.98
10 3 7 3.03 0.13
11 3 7 28.08 0.86
12 3 7 54.89 1.56
13 3 7 6.02 0.31
14 3 7 17.49 0.76
14 4 -7 1.32 0.22
13 4 -7 0.09 0.13
12 4 -7 2.45 0.17
11 4 -7 16.09 0.62
10 4 -7 46.38 1.7
9 4 -7 1.65 0.12
8 4 -7 47.26 0.85
7 4 -7 0.64 0.08
6 4 -7 540.66 8.48
5 4 -7 4.33 0.14
4 4 -7 60.35 0.96
3 4 -7 3.98 0.11
2 4 -7 308.43 4.5
1 4 -7 605.15 9.28
0 4 7 278.09 4.01
1 4 7 147.97 2.12
2 4 7 215.07 3.08
3 4 7 16.05 0.31
4 4 7 50.88 0.8
5 4 7 326.16 4.6
6 4 7 32.94 0.55
7 4 7 5.88 0.16
8 4 7 0.05 0.05
9 4 7 5.55 0.19
10 4 7 0.93 0.11
11 4 7 7.97 0.33
12 4 7 40.27 1.18
13 4 7 1.11 0.16
14 4 7 28.67 1.65
13 5 -7 0.46 0.13
12 5 -7 17.51 0.68
11 5 -7 6.26 0.29
10 5 -7 0.72 0.1
9 5 -7 4.85 0.22
8 5 -7 43.88 1.08
7 5 -7 7.15 0.29
6 5 -7 15.24 0.46
5 5 -7 186.21 2.9
4 5 -7 2.55 0.11
3 5 -7 47.42 0.76
2 5 -7 61.71 0.94
1 5 -7 190.64 2.92
0 5 7 7.14 0.17
1 5 7 401 6.05
2 5 7 195.64 2.87
3 5 7 109.9 1.66
4 5 7 35.57 0.57
5 5 7 3.91 0.12
6 5 7 12.56 0.28
7 5 7 185.58 2.87
8 5 7 8.24 0.24
9 5 7 18.99 0.47
10 5 7 13 0.45
11 5 7 6.84 0.29
12 5 7 15.54 0.67
13 5 7 1.18 0.17
13 6 -7 4.72 0.27
12 6 -7 5.35 0.28
11 6 -7 0.17 0.1
10 6 -7 56.99 1.89
9 6 -7 10.62 0.41
8 6 -7 120.29 2.95
7 6 -7 0.33 0.09
6 6 -7 2.62 0.16
5 6 -7 77.28 1.73
4 6 -7 98.19 1.55
3 6 -7 7.6 0.2
2 6 -7 165.29 2.48
1 6 -7 45.87 0.72
0 6 7 6.98 0.17
1 6 7 11.67 0.24
2 6 7 123.13 1.84
3 6 7 0.45 0.06
4 6 7 34.38 0.58
5 6 7 109.38 1.73
6 6 7 2.79 0.14
7 6 7 0.18 0.07
8 6 7 98.3 1.81
9 6 7 15.26 0.55
10 6 7 26.53 0.82
11 6 7 0.94 0.12
12 6 7 0.79 0.14
13 6 7 0.14 0.16
12 7 -7 11.75 0.53
11 7 -7 0.99 0.14
10 7 -7 8.28 0.37
9 7 -7 31.82 1.09
8 7 -7 1.83 0.13
7 7 -7 18.29 0.62
6 7 -7 0.63 0.1
5 7 -7 18.4 0.55
4 7 -7 47.2 0.81
3 7 -7 27.92 0.53
2 7 -7 105.91 1.68
1 7 -7 9.23 0.22
0 7 7 22.61 0.4
1 7 7 31.3 0.53
2 7 7 136.72 2.07
3 7 7 11.03 0.27
4 7 7 28.92 0.54
5 7 7 31.25 0.59
6 7 7 46.59 0.83
7 7 7 14.64 0.4
8 7 7 35.94 1.16
9 7 7 67.67 2.01
10 7 7 7.24 0.32
11 7 7 22.75 0.95
12 7 7 0.06 0.14
11 8 -7 9.42 0.43
10 8 -7 5.69 0.28
9 8 -7 0.45 0.11
8 8 -7 0.64 0.11
7 8 -7 26.38 0.96
6 8 -7 7.93 0.32
5 8 -7 66.37 1.75
4 8 -7 6.49 0.24
3 8 -7 4.03 0.17
2 8 -7 10.62 0.28
1 8 -7 2.63 0.12
0 8 7 2.36 0.1
1 8 7 1.03 0.07
2 8 7 0.8 0.07
3 8 7 116.31 1.73
4 8 7 3.34 0.15
5 8 7 44.22 0.91
6 8 7 16.47 0.44
7 8 7 6.82 0.28
8 8 7 4.81 0.22
9 8 7 76.26 2.48
10 8 7 4.79 0.26
11 8 7 10.16 0.46
11 9 -7 0.41 0.15
10 9 -7 21.82 0.92
9 9 -7 1.39 0.14
8 9 -7 0.9 0.12
7 9 -7 16.94 0.64
6 9 -7 43.99 1.55
5 9 -7 1.85 0.14
4 9 -7 14.12 0.47
3 9 -7 9.86 0.32
2 9 -7 0.8 0.1
1 9 -7 11.49 0.33
0 9 7 0.08 0.05
1 9 7 0.42 0.06
2 9 7 17.01 0.37
3 9 7 11.6 0.3
4 9 7 5.44 0.21
5 9 7 23.93 0.75
6 9 7 1.44 0.13
7 9 7 21.33 0.72
8 9 7 43.31 1.44
9 9 7 1.29 0.15
10 9 7 5.64 0.29
10 10 -7 1.77 0.26
9 10 -7 0.08 0.12
8 10 -7 9.36 0.42
7 10 -7 93.41 3.21
6 10 -7 9.16 0.37
5 10 -7 0.78 0.12
4 10 -7 37.2 1.25
3 10 -7 0.09 0.09
2 10 -7 4.61 0.21
1 10 -7 0.46 0.1
0 10 7 1.11 0.09
1 10 7 67.5 1.2
2 10 7 0.16 0.07
3 10 7 0.1 0.07
4 10 7 0.05 0.09
5 10 7 6.68 0.29
6 10 7 1.11 0.13
7 10 7 3.46 0.2
8 10 7 30.94 1.27
9 10 7 0.44 0.14
8 11 -7 39.79 1.64
7 11 -7 1.5 0.15
6 11 -7 3.51 0.21
5 11 -7 9.98 0.41
4 11 -7 17.27 0.64
3 11 -7 0.28 0.11
2 11 -7 0.55 0.12
1 11 -7 1.26 0.13
0 11 7 3.25 0.18
1 11 7 50.92 1.2
2 11 7 6.7 0.26
3 11 7 23.27 0.73
4 11 7 2 0.16
5 11 7 20.72 0.73
6 11 7 0.32 0.14
7 11 7 8.02 0.39
8 11 7 0.3 0.15
7 12 -7 44.44 1.84
6 12 -7 0.53 0.15
5 12 -7 9.88 0.46
4 12 -7 0.13 0.13
3 12 -7 4.16 0.24
2 12 -7 5.8 0.28
1 12 -7 35.31 1.08
0 12 7 0.36 0.11
1 12 7 0.12 0.11
2 12 7 0.17 0.13
3 12 7 17.56 0.62
4 12 7 5.31 0.29
5 12 7 22.25 0.95
6 12 7 0.17 0.18
7 12 7 21 0.91
5 13 -7 10.21 0.88
4 13 -7 8.57 0.43
3 13 -7 0.28 0.17
2 13 -7 12.51 0.58
1 13 -7 1.12 0.18
0 13 7 7.87 0.42
1 13 7 10.26 0.52
2 13 7 3.31 0.29
3 13 7 32.5 1.82
4 13 7 6.53 0.46
5 13 7 4.72 1.39
14 0 -8 0.17 0.27
13 0 -8 0.06 0.15
12 0 -8 94.49 3.08
11 0 -8 0.07 0.09
10 0 -8 48.7 1.26
9 0 -8 0.04 0.07
8 0 -8 402.93 8.25
7 0 -8 0.1 0.07
6 0 -8 47.83 1.05
5 0 -8 0.01 0.04
4 0 -8 69.1 1.54
3 0 -8 0.14 0.08
2 0 -8 53.26 1.14
1 0 -8 0.02 0.04
0 0 8 99.84 2.07
1 0 8 0.06 0.04
2 0 8 935.86 21.34
3 0 8 0.02 0.03
4 0 8 163.02 3.31
5 0 8 0.04 0.05
6 0 8 156.37 3.21
7 0 8 0.08 0.09
8 0 8 161.77 3.39
9 0 8 0 0.06
10 0 8 8.97 0.34
11 0 8 -0.04 0.09
12 0 8 2.81 0.18
13 0 8 -0.01 0.11
14 0 8 0.84 0.19
14 1 -8 0.76 0.22
13 1 -8 41.61 1.73
12 1 -8 12.56 0.45
11 1 -8 5.39 0.22
10 1 -8 12.8 0.32
9 1 -8 0.68 0.08
8 1 -8 10.05 0.23
7 1 -8 26.55 0.46
6 1 -8 15.12 0.28
5 1 -8 0.06 0.03
4 1 -8 357.3 5.2
3 1 -8 5.27 0.13
2 1 -8 2.86 0.09
1 1 -8 183.59 2.64
0 1 8 25.86 0.42
1 1 8 79.61 1.18
2 1 8 84.66 1.25
3 1 8 304.28 4.32
4 1 8 29.06 0.48
5 1 8 731.87 11.48
6 1 8 36.79 0.6
7 1 8 11.85 0.25
8 1 8 69.55 1.09
9 1 8 105.69 1.6
10 1 8 0.05 0.08
11 1 8 17.78 0.45
12 1 8 4.94 0.18
13 1 8 11.08 0.38
14 1 8 77.9 2.57
14 2 -8 19.76 0.96
13 2 -8 41.65 1.71
12 2 -8 11.27 0.42
11 2 -8 86.77 2.41
10 2 -8 35.72 0.78
9 2 -8 0.51 0.09
8 2 -8 66.82 1.1
7 2 -8 3.59 0.13
6 2 -8 3.42 0.11
5 2 -8 161.72 2.35
4 2 -8 35.58 0.6
3 2 -8 4.74 0.12
2 2 -8 33.27 0.54
1 2 -8 1012.57 16.29
0 2 8 84.44 1.25
1 2 8 45.67 0.71
2 2 8 57.79 0.88
3 2 8 0.09 0.04
4 2 8 195.36 2.79
5 2 8 287.35 4.14
6 2 8 80.63 1.21
7 2 8 82.51 1.24
8 2 8 62.56 0.98
9 2 8 1.52 0.09
10 2 8 16.25 0.36
11 2 8 5.99 0.19
12 2 8 22.11 0.58
13 2 8 0.71 0.1
14 2 8 24.84 0.89
14 3 -8 24.56 1.17
13 3 -8 13.02 0.58
12 3 -8 2.6 0.17
11 3 -8 4.65 0.22
10 3 -8 61.37 1.86
9 3 -8 10.64 0.32
8 3 -8 103.65 1.66
7 3 -8 26.47 0.5
6 3 -8 160.58 2.48
5 3 -8 3.69 0.12
4 3 -8 205.58 2.95
3 3 -8 287.24 4.14
2 3 -8 20.16 0.36
1 3 -8 52.38 0.82
0 3 8 200.07 2.84
1 3 8 141.54 2.04
2 3 8 26.69 0.45
3 3 8 22.89 0.39
4 3 8 44.34 0.7
5 3 8 362.87 5.2
6 3 8 151.09 2.2
7 3 8 151.26 2.2
8 3 8 30.08 0.53
9 3 8 29.07 0.57
10 3 8 5.84 0.19
11 3 8 16.98 0.5
12 3 8 0.22 0.12
13 3 8 0.38 0.14
14 3 8 19.69 0.75
13 4 -8 3.27 0.23
12 4 -8 17.35 0.64
11 4 -8 3.96 0.21
10 4 -8 60.12 1.91
9 4 -8 0.29 0.09
8 4 -8 31.15 0.63
7 4 -8 6.35 0.2
6 4 -8 155.75 2.41
5 4 -8 160.23 2.48
4 4 -8 0.03 0.03
3 4 -8 71.37 1.07
2 4 -8 482.64 7.16
1 4 -8 15.27 0.3
0 4 8 0.21 0.04
1 4 8 333.72 4.76
2 4 8 12.06 0.25
3 4 8 82.39 1.23
4 4 8 231.95 3.31
5 4 8 6.43 0.17
6 4 8 1.22 0.07
7 4 8 16.32 0.32
8 4 8 32.49 0.58
9 4 8 0.44 0.09
10 4 8 13.44 0.44
11 4 8 30.43 0.94
12 4 8 0.22 0.11
13 4 8 16.19 0.7
13 5 -8 0.66 0.15
12 5 -8 1.42 0.15
11 5 -8 1.11 0.12
10 5 -8 11.31 0.46
9 5 -8 17.84 0.59
8 5 -8 18.75 0.61
7 5 -8 16.62 0.48
6 5 -8 4.94 0.17
5 5 -8 79.04 1.27
4 5 -8 81.54 1.3
3 5 -8 140.52 2.12
2 5 -8 256.61 3.7
1 5 -8 21.71 0.39
0 5 8 6.39 0.16
1 5 8 38.24 0.62
2 5 8 137.68 2.02
3 5 8 19.36 0.35
4 5 8 74.95 1.14
5 5 8 42.11 0.68
6 5 8 218.36 3.16
7 5 8 14.43 0.33
8 5 8 38.16 0.77
9 5 8 5.06 0.22
10 5 8 83.13 2.3
11 5 8 35.58 1.09
12 5 8 24.77 1.02
13 5 8 0.26 0.15
13 6 -8 1.29 0.43
12 6 -8 18.26 0.78
11 6 -8 9.07 0.39
10 6 -8 37.98 1.34
9 6 -8 14.57 0.56
8 6 -8 1.89 0.14
7 6 -8 8.5 0.34
6 6 -8 283.43 5.97
5 6 -8 48.93 0.85
4 6 -8 7.69 0.21
3 6 -8 16.72 0.35
2 6 -8 273.77 4.01
1 6 -8 9.05 0.21
0 6 8 82.22 1.26
1 6 8 63.19 0.97
2 6 8 4.52 0.13
3 6 8 88.02 1.32
4 6 8 51.45 0.82
5 6 8 1.24 0.08
6 6 8 6.52 0.2
7 6 8 9.92 0.29
8 6 8 6.52 0.23
9 6 8 144.33 3.93
10 6 8 28.05 0.9
11 6 8 3.43 0.2
12 6 8 8.76 0.41
13 6 8 6.6 0.6
12 7 -8 35.09 1.45
11 7 -8 0.94 0.14
10 7 -8 84.21 2.89
9 7 -8 21.41 0.79
8 7 -8 3.64 0.2
7 7 -8 14.43 0.5
6 7 -8 81.65 1.99
5 7 -8 83.36 1.84
4 7 -8 46.77 0.81
3 7 -8 0.16 0.06
2 7 -8 0.07 0.06
1 7 -8 0.61 0.06
0 7 8 102.51 1.53
1 7 8 118.13 1.78
2 7 8 43.51 0.73
3 7 8 9.93 0.23
4 7 8 2.27 0.1
5 7 8 0.06 0.06
6 7 8 9.24 0.29
7 7 8 25.51 0.6
8 7 8 67.22 1.94
9 7 8 9.47 0.38
10 7 8 22.99 0.79
11 7 8 1.86 0.17
12 7 8 12.15 0.54
11 8 -8 2.51 0.19
10 8 -8 14.26 0.62
9 8 -8 6.65 0.3
8 8 -8 74.83 2.58
7 8 -8 51.62 1.8
6 8 -8 14.85 0.49
5 8 -8 42.18 1.11
4 8 -8 65.4 1.09
3 8 -8 14.63 0.35
2 8 -8 2.23 0.13
1 8 -8 36.07 0.63
0 8 8 65.69 1.02
1 8 8 66.99 1.05
2 8 8 1.38 0.08
3 8 8 0.24 0.06
4 8 8 7.46 0.21
5 8 8 20.79 0.5
6 8 8 10.34 0.36
7 8 8 0.16 0.1
8 8 8 43.47 1.39
9 8 8 7.07 0.31
10 8 8 95.29 3.83
11 8 8 8.97 0.42
10 9 -8 6.08 0.31
9 9 -8 29.64 1.23
8 9 -8 23.8 0.84
7 9 -8 7.02 0.3
6 9 -8 12.28 0.55
5 9 -8 1.32 0.13
4 9 -8 1.06 0.12
3 9 -8 2.15 0.13
2 9 -8 2.71 0.14
1 9 -8 30.02 0.66
0 9 8 50.02 0.92
1 9 8 25.84 0.54
2 9 8 31.55 0.63
3 9 8 1.63 0.11
4 9 8 25.55 0.63
5 9 8 36.4 1.05
6 9 8 5.88 0.25
7 9 8 0.04 0.09
8 9 8 6.67 0.3
9 9 8 64.61 2.61
10 9 8 0 0.14
9 10 -8 0.19 0.13
8 10 -8 0.07 0.11
7 10 -8 40.62 1.37
6 10 -8 0.39 0.11
5 10 -8 44.61 1.49
4 10 -8 16.25 0.6
3 10 -8 23.54 0.85
2 10 -8 7.47 0.32
1 10 -8 3.28 0.17
0 10 8 80.29 1.86
1 10 8 0.29 0.07
2 10 8 0.09 0.06
3 10 8 0.07 0.08
4 10 8 28.66 0.86
5 10 8 0.09 0.1
6 10 8 9.44 0.38
7 10 8 3.85 0.21
8 10 8 3.74 0.23
9 10 8 2.01 0.19
8 11 -8 0.45 0.15
7 11 -8 13.59 0.59
6 11 -8 0.33 0.13
5 11 -8 5.3 0.26
4 11 -8 17.48 0.65
3 11 -8 14.51 0.55
2 11 -8 2.98 0.18
1 11 -8 1.56 0.14
0 11 8 30.38 0.86
1 11 8 5.15 0.18
2 11 8 1.59 0.11
3 11 8 42.81 1.25
4 11 8 15.7 0.55
5 11 8 8.68 0.36
6 11 8 -0.01 0.13
7 11 8 41.42 1.69
8 11 8 6.8 0.35
7 12 -8 2.37 0.57
6 12 -8 6.47 0.34
5 12 -8 0.55 0.14
4 12 -8 15.97 0.7
3 12 -8 14.35 0.63
2 12 -8 2.86 0.19
1 12 -8 7.41 0.33
0 12 8 6.01 0.29
1 12 8 22.1 0.63
2 12 8 13.45 0.5
3 12 8 29.91 1.24
4 12 8 13.18 0.59
5 12 8 4.18 0.29
6 12 8 0.08 0.16
4 13 -8 0.15 0.21
3 13 -8 0.1 0.21
2 13 -8 1.49 0.23
1 13 -8 1.31 0.2
0 13 8 7.65 0.43
1 13 8 4.88 0.3
2 13 8 8.19 0.58
3 13 8 0.04 0.26
4 13 8 0.16 0.35
14 0 -9 0.09 0.21
13 0 -9 18.32 0.88
12 0 -9 0.08 0.12
11 0 -9 3.3 0.19
10 0 -9 0.04 0.09
9 0 -9 4.88 0.23
8 0 -9 0.04 0.05
7 0 -9 7.88 0.27
6 0 -9 0.01 0.05
5 0 -9 590.95 13.06
4 0 -9 0.02 0.04
3 0 -9 0.72 0.07
2 0 -9 0.02 0.04
1 0 -9 3886.63 100.22
0 0 9 0.05 0.04
1 0 9 82.62 1.74
2 0 9 0.04 0.04
3 0 9 1.41 0.1
4 0 9 0.29 0.08
5 0 9 500.26 9.98
6 0 9 0.05 0.05
7 0 9 15.1 0.45
8 0 9 0.05 0.07
9 0 9 85.29 1.84
10 0 9 0.06 0.07
11 0 9 29.82 1.03
12 0 9 0.09 0.11
13 0 9 5.61 0.34
14 0 9 0.17 0.19
14 1 -9 9.07 0.42
13 1 -9 15.68 0.7
12 1 -9 15.38 0.53
11 1 -9 204.79 5.46
10 1 -9 50.3 0.95
9 1 -9 0.94 0.08
8 1 -9 92.56 1.4
7 1 -9 32.96 0.56
6 1 -9 71.08 1.09
5 1 -9 12.41 0.27
4 1 -9 1.6 0.07
3 1 -9 32.98 0.54
2 1 -9 0.08 0.04
1 1 -9 15.23 0.29
0 1 9 242.63 3.49
1 1 9 210.98 3.05
2 1 9 69.89 1.05
3 1 9 112.56 1.66
4 1 9 0.3 0.05
5 1 9 183.48 2.64
6 1 9 14.63 0.29
7 1 9 10.74 0.25
8 1 9 61.65 0.98
9 1 9 60.35 1.08
10 1 9 3.43 0.13
11 1 9 21.01 0.54
12 1 9 28.47 0.71
13 1 9 0.23 0.12
14 1 9 1.56 0.16
14 2 -9 0.83 0.23
13 2 -9 0.77 0.17
12 2 -9 2.97 0.19
11 2 -9 11.18 0.41
10 2 -9 39.74 1.07
9 2 -9 15.65 0.4
8 2 -9 0.06 0.06
7 2 -9 0.35 0.06
6 2 -9 20.37 0.38
5 2 -9 166.72 2.51
4 2 -9 78.93 1.19
3 2 -9 24.22 0.44
2 2 -9 184.79 2.69
1 2 -9 478.5 7.06
0 2 9 192.29 2.77
1 2 9 113.36 1.66
2 2 9 24.63 0.42
3 2 9 75.01 1.13
4 2 9 7.58 0.18
5 2 9 24.45 0.42
6 2 9 18.25 0.34
7 2 9 48.29 0.76
8 2 9 98.24 1.5
9 2 9 57.9 1.03
10 2 9 20.55 0.51
11 2 9 11.35 0.31
12 2 9 14.6 0.4
13 2 9 9.55 0.37
14 2 9 19.1 0.78
14 3 -9 7.61 0.83
13 3 -9 17.77 0.78
12 3 -9 3.17 0.2
11 3 -9 26.98 0.88
10 3 -9 1.24 0.12
9 3 -9 2.75 0.15
8 3 -9 6.74 0.22
7 3 -9 7.22 0.21
6 3 -9 18.98 0.39
5 3 -9 7.54 0.19
4 3 -9 287.35 4.16
3 3 -9 63.7 0.98
2 3 -9 585.83 9
1 3 -9 606.86 9.28
0 3 9 60.06 0.91
1 3 9 224.85 3.23
2 3 9 286.38 4.09
3 3 9 247.92 3.57
4 3 9 39.6 0.64
5 3 9 288.94 4.09
6 3 9 96.6 1.42
7 3 9 20.65 0.4
8 3 9 41.72 0.69
9 3 9 11.67 0.28
10 3 9 71.26 1.65
11 3 9 61.2 1.47
12 3 9 4.71 0.19
13 3 9 5.98 0.32
13 4 -9 22.67 0.96
12 4 -9 33.77 1.16
11 4 -9 36.45 1.23
10 4 -9 40.49 1.26
9 4 -9 16.44 0.46
8 4 -9 12.68 0.33
7 4 -9 11.53 0.29
6 4 -9 9.61 0.25
5 4 -9 1.39 0.09
4 4 -9 1 0.08
3 4 -9 37.37 0.61
2 4 -9 168.82 2.46
1 4 -9 13.36 0.27
0 4 9 16.38 0.31
1 4 9 4.15 0.12
2 4 9 81.37 1.23
3 4 9 76.99 1.15
4 4 9 42.43 0.68
5 4 9 38.83 0.65
6 4 9 21.46 0.39
7 4 9 0.64 0.07
8 4 9 72.16 1.24
9 4 9 228.03 3.78
10 4 9 0.24 0.1
11 4 9 42.8 1.23
12 4 9 7.75 0.4
13 4 9 7.58 0.37
13 5 -9 1.35 0.18
12 5 -9 1.42 0.16
11 5 -9 8.6 0.36
10 5 -9 21.11 0.79
9 5 -9 0.11 0.08
8 5 -9 11.26 0.4
7 5 -9 23.18 0.48
6 5 -9 9.81 0.28
5 5 -9 0.13 0.06
4 5 -9 0.99 0.09
3 5 -9 51.13 0.85
2 5 -9 114.04 1.71
1 5 -9 12.8 0.26
0 5 9 21.15 0.39
1 5 9 107.23 1.6
2 5 9 0.04 0.03
3 5 9 16.18 0.31
4 5 9 115.63 1.73
5 5 9 32.66 0.55
6 5 9 1.51 0.08
7 5 9 52.22 0.85
8 5 9 45.58 0.89
9 5 9 0.07 0.08
10 5 9 26.56 0.79
11 5 9 1.21 0.14
12 5 9 34.45 1.41
13 5 9 0.08 0.16
12 6 -9 0.95 0.15
11 6 -9 1.37 0.14
10 6 -9 29.58 1.02
9 6 -9 2.1 0.16
8 6 -9 24.16 0.88
7 6 -9 102.28 2.43
6 6 -9 61.99 1.13
5 6 -9 64.83 1.12
4 6 -9 12.64 0.29
3 6 -9 69.89 1.14
2 6 -9 58.07 0.96
1 6 -9 2.75 0.1
0 6 9 65.63 1.03
1 6 9 18.69 0.36
2 6 9 97.96 1.5
3 6 9 61.25 0.98
4 6 9 17.43 0.34
5 6 9 54.77 0.86
6 6 9 7.31 0.19
7 6 9 13.09 0.34
8 6 9 18.9 0.58
9 6 9 62.56 1.75
10 6 9 15.05 0.52
11 6 9 2.05 0.17
12 6 9 2.44 0.19
12 7 -9 1.45 0.18
11 7 -9 1.04 0.14
10 7 -9 25.7 0.9
9 7 -9 0.15 0.1
8 7 -9 2.66 0.16
7 7 -9 12.21 0.49
6 7 -9 66.03 1.63
5 7 -9 144.61 2.35
4 7 -9 22.73 0.46
3 7 -9 2.37 0.13
2 7 -9 24.99 0.49
1 7 -9 43.04 0.7
0 7 9 12.37 0.28
1 7 9 85.4 1.33
2 7 9 27.4 0.5
3 7 9 1.26 0.09
4 7 9 34.43 0.6
5 7 9 79.04 1.26
6 7 9 64.04 1.24
7 7 9 23.06 0.69
8 7 9 32.7 0.98
9 7 9 42.21 1.35
10 7 9 30.11 0.92
11 7 9 0.06 0.12
12 7 9 40.35 1.65
11 8 -9 0.45 0.14
10 8 -9 0.82 0.13
9 8 -9 5.11 0.24
8 8 -9 1.76 0.14
7 8 -9 120.06 3.91
6 8 -9 59.61 2.07
5 8 -9 39.3 1.07
4 8 -9 37.55 0.78
3 8 -9 8.82 0.26
2 8 -9 9.09 0.25
1 8 -9 18.82 0.39
0 8 9 54.5 0.87
1 8 9 0.84 0.07
2 8 9 11.82 0.28
3 8 9 0.62 0.07
4 8 9 6.85 0.2
5 8 9 5.9 0.22
6 8 9 3.07 0.17
7 8 9 0.04 0.09
8 8 9 3.99 0.22
9 8 9 10.28 0.41
10 8 9 0.06 0.12
11 8 9 14.43 0.63
10 9 -9 10.91 0.49
9 9 -9 9.06 0.42
8 9 -9 5.71 0.27
7 9 -9 14.79 0.55
6 9 -9 6.98 0.3
5 9 -9 84.04 2.89
4 9 -9 102.79 3.23
3 9 -9 2.07 0.13
2 9 -9 0.89 0.1
1 9 -9 13.47 0.38
0 9 9 4.74 0.15
1 9 9 13.78 0.33
2 9 9 7.62 0.21
3 9 9 70.35 1.24
4 9 9 3.08 0.18
5 9 9 -0.03 0.1
6 9 9 0.15 0.11
7 9 9 0.37 0.11
8 9 9 14.47 0.54
9 9 9 6.15 0.31
10 9 9 4.72 0.27
9 10 -9 2.02 0.18
8 10 -9 21.51 0.91
7 10 -9 23.73 0.99
6 10 -9 10.71 0.43
5 10 -9 8.13 0.35
4 10 -9 38.24 1.37
3 10 -9 6.64 0.34
2 10 -9 4.99 0.22
1 10 -9 65.46 1.87
0 10 9 0.3 0.07
1 10 9 15.44 0.4
2 10 9 13.64 0.36
3 10 9 91.66 2.3
4 10 9 7.38 0.3
5 10 9 24.25 0.76
6 10 9 5.84 0.26
7 10 9 6.41 0.32
8 10 9 1.59 0.17
9 10 9 0.65 0.16
8 11 -9 6.05 0.33
7 11 -9 0.23 0.14
6 11 -9 2.04 0.18
5 11 -9 7.54 0.37
4 11 -9 13.35 0.53
3 11 -9 3.73 0.22
2 11 -9 9.18 0.36
1 11 -9 14.99 0.52
0 11 9 0.3 0.09
1 11 9 0.26 0.08
2 11 9 11.13 0.33
3 11 9 29.23 0.83
4 11 9 0.33 0.12
5 11 9 6.1 0.31
6 11 9 1.08 0.16
7 11 9 0.06 0.14
8 11 9 2.17 0.37
6 12 -9 1.55 0.19
5 12 -9 6.08 0.33
4 12 -9 0.5 0.16
3 12 -9 5.68 0.31
2 12 -9 1.08 0.16
1 12 -9 0.75 0.16
0 12 9 14.79 0.66
1 12 9 5.12 0.23
2 12 9 3.88 0.25
3 12 9 26.72 1.12
4 12 9 0.29 0.17
5 12 9 0.25 0.17
6 12 9 6.66 0.36
3 13 -9 5.92 0.42
2 13 -9 1.22 0.22
1 13 -9 3.55 0.28
0 13 9 7.89 0.44
1 13 9 15.1 0.57
2 13 9 2.88 0.28
3 13 9 7.48 0.59
14 0 -10 16.71 0.98
13 0 -10 0.03 0.18
12 0 -10 92.45 3.23
11 0 -10 0.06 0.1
10 0 -10 0.56 0.11
9 0 -10 0.03 0.09
8 0 -10 175.36 3.62
7 0 -10 0.07 0.06
6 0 -10 35.78 0.85
5 0 -10 0.05 0.05
4 0 -10 286.78 5.95
3 0 -10 0.42 0.1
2 0 -10 278.6 5.64
1 0 -10 0.05 0.05
0 0 10 554.98 11.84
1 0 10 0.03 0.04
2 0 10 68.64 1.46
3 0 10 0.03 0.04
4 0 10 85.29 1.79
5 0 10 0.01 0.04
6 0 10 4.75 0.2
7 0 10 0.07 0.08
8 0 10 8.79 0.32
9 0 10 0.07 0.08
10 0 10 52.7 1.75
11 0 10 0.07 0.1
12 0 10 50.27 1.7
13 0 10 0.07 0.16
14 0 10 117.97 9.59
14 1 -10 1.54 0.65
13 1 -10 12.05 0.56
12 1 -10 0.49 0.14
11 1 -10 39.68 1.03
10 1 -10 24.5 0.64
9 1 -10 0.26 0.06
8 1 -10 41.11 0.7
7 1 -10 1.33 0.07
6 1 -10 91.88 1.42
5 1 -10 4.93 0.15
4 1 -10 20.61 0.39
3 1 -10 303.26 4.34
2 1 -10 330.08 4.71
1 1 -10 475.09 6.96
0 1 10 438.89 6.44
1 1 10 34.55 0.57
2 1 10 217.51 3.16
3 1 10 466.28 6.65
4 1 10 114.9 1.68
5 1 10 164.04 2.41
6 1 10 308.03 4.4
7 1 10 86.2 1.3
8 1 10 29.08 0.53
9 1 10 25.07 0.51
10 1 10 29.18 0.71
11 1 10 6.2 0.2
12 1 10 21.93 0.56
13 1 10 2.76 0.16
14 1 10 4.26 0.68
13 2 -10 6.72 0.35
12 2 -10 94.55 2.66
11 2 -10 0.7 0.12
10 2 -10 1.13 0.12
9 2 -10 3.52 0.16
8 2 -10 143.13 2.2
7 2 -10 7.15 0.2
6 2 -10 22.31 0.41
5 2 -10 43.67 0.73
4 2 -10 30.49 0.53
3 2 -10 9.18 0.21
2 2 -10 194.5 2.82
1 2 -10 764.83 11.87
0 2 10 1.32 0.07
1 2 10 45.42 0.73
2 2 10 206.83 2.97
3 2 10 38.2 0.63
4 2 10 58.53 0.9
5 2 10 2.55 0.1
6 2 10 0.07 0.04
7 2 10 0.84 0.08
8 2 10 1.76 0.09
9 2 10 47.41 0.87
10 2 10 3.66 0.14
11 2 10 2.59 0.13
12 2 10 0.69 0.1
13 2 10 6.84 0.27
13 3 -10 4.37 0.27
12 3 -10 5.26 0.27
11 3 -10 68.41 2.01
10 3 -10 6.54 0.26
9 3 -10 5.93 0.23
8 3 -10 38.09 0.7
7 3 -10 15.95 0.36
6 3 -10 8.45 0.23
5 3 -10 29.68 0.53
4 3 -10 28.53 0.49
3 3 -10 50.09 0.8
2 3 -10 163.87 2.38
1 3 -10 23.96 0.42
0 3 10 4.06 0.12
1 3 10 418.04 5.92
2 3 10 4.28 0.13
3 3 10 23.8 0.43
4 3 10 51.73 0.83
5 3 10 45.08 0.72
6 3 10 86.83 1.29
7 3 10 0.89 0.08
8 3 10 3.17 0.11
9 3 10 0.73 0.07
10 3 10 73.02 1.68
11 3 10 11.61 0.32
12 3 10 3.55 0.17
13 3 10 0.13 0.14
13 4 -10 0.28 0.17
12 4 -10 2.81 0.21
11 4 -10 13.59 0.52
10 4 -10 19.51 0.65
9 4 -10 1.57 0.14
8 4 -10 0.37 0.09
7 4 -10 65.8 1.12
6 4 -10 30.82 0.57
5 4 -10 15 0.34
4 4 -10 0.44 0.06
3 4 -10 70.63 1.07
2 4 -10 0.2 0.05
1 4 -10 58.36 0.91
0 4 10 279.34 4.01
1 4 10 4.98 0.14
2 4 10 110.41 1.63
3 4 10 118.98 1.76
4 4 10 80.69 1.25
5 4 10 42.25 0.68
6 4 10 11.3 0.25
7 4 10 77.62 1.2
8 4 10 54.38 0.96
9 4 10 37.68 0.89
10 4 10 12.56 0.36
11 4 10 18.15 0.54
12 4 10 1.56 0.18
13 4 10 24.35 1.02
13 5 -10 35.6 1.68
12 5 -10 28.15 1.18
11 5 -10 20.54 0.74
10 5 -10 149.22 4.84
9 5 -10 11.57 0.47
8 5 -10 24.54 0.6
7 5 -10 14.14 0.38
6 5 -10 254.34 3.98
5 5 -10 5.53 0.19
4 5 -10 219.17 3.39
3 5 -10 6.26 0.18
2 5 -10 150.52 2.2
1 5 -10 8.75 0.21
0 5 10 24.41 0.44
1 5 10 37.88 0.63
2 5 10 109.78 1.63
3 5 10 9.19 0.21
4 5 10 16.85 0.33
5 5 10 89.89 1.34
6 5 10 11.92 0.26
7 5 10 22.25 0.46
8 5 10 76.77 1.39
9 5 10 15.39 0.49
10 5 10 29.93 0.89
11 5 10 1.69 0.15
12 5 10 10.47 0.47
12 6 -10 7.96 0.39
11 6 -10 5.9 0.3
10 6 -10 0.66 0.12
9 6 -10 5.09 0.24
8 6 -10 14.52 0.61
7 6 -10 131.54 3.1
6 6 -10 2.19 0.12
5 6 -10 6.13 0.21
4 6 -10 12.34 0.31
3 6 -10 0.04 0.06
2 6 -10 0.37 0.06
1 6 -10 7.3 0.21
0 6 10 162.51 2.38
1 6 10 65.12 1.03
2 6 10 14.15 0.3
3 6 10 2.96 0.11
4 6 10 131.72 1.99
5 6 10 13.41 0.28
6 6 10 9.6 0.24
7 6 10 1.01 0.09
8 6 10 27.96 0.83
9 6 10 28.33 0.84
10 6 10 27.21 0.83
11 6 10 76.71 3.32
12 6 10 5.95 0.31
12 7 -10 4.17 1.06
11 7 -10 1.26 0.15
10 7 -10 0.14 0.11
9 7 -10 5.31 0.25
8 7 -10 15.91 0.58
7 7 -10 27.86 0.97
6 7 -10 0.56 0.1
5 7 -10 11.11 0.33
4 7 -10 80.57 1.32
3 7 -10 23.28 0.48
2 7 -10 23.27 0.46
1 7 -10 11.88 0.27
0 7 10 8.21 0.21
1 7 10 21.7 0.42
2 7 10 3.79 0.13
3 7 10 22.47 0.44
4 7 10 8.23 0.22
5 7 10 1.32 0.08
6 7 10 24.92 0.57
7 7 10 17.44 0.57
8 7 10 7.38 0.3
9 7 10 7.6 0.31
10 7 10 0.04 0.13
11 7 10 5.31 0.28
11 8 -10 5.48 0.3
10 8 -10 26.57 1.11
9 8 -10 0.98 0.14
8 8 -10 5.56 0.26
7 8 -10 31.93 1.15
6 8 -10 20.81 0.74
5 8 -10 12.53 0.48
4 8 -10 22.27 0.55
3 8 -10 1.41 0.11
2 8 -10 56.49 1.11
1 8 -10 33.78 0.6
0 8 10 10.39 0.25
1 8 10 16.15 0.34
2 8 10 100.8 1.73
3 8 10 50.11 0.95
4 8 10 57.5 1.04
5 8 10 3.08 0.15
6 8 10 1.63 0.13
7 8 10 1.49 0.13
8 8 10 0.33 0.11
9 8 10 1.3 0.16
10 8 10 15.31 0.66
10 9 -10 0.47 0.15
9 9 -10 0.07 0.13
8 9 -10 3.18 0.2
7 9 -10 0.1 0.1
6 9 -10 0.95 0.12
5 9 -10 27.05 0.94
4 9 -10 34.95 1.15
3 9 -10 0.26 0.1
2 9 -10 8.67 0.32
1 9 -10 57.9 1.13
0 9 10 37.08 0.72
1 9 10 36.64 0.72
2 9 10 2.46 0.11
3 9 10 91.71 2.22
4 9 10 4.65 0.18
5 9 10 0.39 0.11
6 9 10 11.21 0.39
7 9 10 31.96 1
8 9 10 11.11 0.49
9 9 10 22.68 0.94
10 9 10 5.87 0.31
9 10 -10 1.35 0.18
8 10 -10 0.34 0.14
7 10 -10 6.13 0.32
6 10 -10 19.68 0.72
5 10 -10 1.14 0.14
4 10 -10 5.33 0.28
3 10 -10 0.11 0.11
2 10 -10 11.92 0.42
1 10 -10 0.7 0.1
0 10 10 4.77 0.18
1 10 10 2.73 0.13
2 10 10 25.43 0.64
3 10 10 56.28 1.39
4 10 10 3.96 0.2
5 10 10 1.64 0.14
6 10 10 0.85 0.12
7 10 10 0.84 0.14
8 10 10 8.46 0.4
9 10 10 5.42 0.44
7 11 -10 0.1 0.14
6 11 -10 5.01 0.28
5 11 -10 1.01 0.16
4 11 -10 8.85 0.39
3 11 -10 10.28 0.43
2 11 -10 0.5 0.14
1 11 -10 23.05 0.74
0 11 10 14.9 0.5
1 11 10 9.14 0.28
2 11 10 2.53 0.13
3 11 10 23.09 0.66
4 11 10 7.37 0.32
5 11 10 53.34 2.17
6 11 10 11.57 0.52
7 11 10 0.15 0.18
6 12 -10 27.19 3.04
5 12 -10 8.72 0.43
4 12 -10 2 0.19
3 12 -10 0.52 0.16
2 12 -10 13.19 0.6
1 12 -10 6.07 0.32
0 12 10 2.15 0.2
1 12 10 0.05 0.12
2 12 10 7.46 0.32
3 12 10 0.07 0.15
4 12 10 1.86 0.2
5 12 10 1.09 0.19
2 13 -10 0.63 0.22
1 13 -10 3.13 0.27
0 13 10 4.83 0.34
1 13 10 0.79 0.2
2 13 10 2.77 1.48
13 0 -11 1.08 0.25
12 0 -11 -0.04 0.17
11 0 -11 13.84 0.54
10 0 -11 0.1 0.11
9 0 -11 21.75 0.72
8 0 -11 0.02 0.06
7 0 -11 35.17 0.86
6 0 -11 0.04 0.05
5 0 -11 56.73 1.31
4 0 -11 0.04 0.04
3 0 -11 8.78 0.28
2 0 -11 0.04 0.05
1 0 -11 40.1 0.93
0 0 11 0.13 0.06
1 0 11 82.51 1.74
2 0 11 0 0.05
3 0 11 29.66 0.75
4 0 11 0.03 0.05
5 0 11 101.83 2.22
6 0 11 0.04 0.06
7 0 11 0.18 0.08
8 0 11 0.14 0.07
9 0 11 260.48 6
10 0 11 0.04 0.09
11 0 11 1.87 0.15
12 0 11 0.05 0.12
13 0 11 0.34 0.17
13 1 -11 1.61 0.21
12 1 -11 7.54 0.29
11 1 -11 2.51 0.15
10 1 -11 0.06 0.08
9 1 -11 8.95 0.24
8 1 -11 73.76 1.14
7 1 -11 7.06 0.19
6 1 -11 34.18 0.59
5 1 -11 6.19 0.17
4 1 -11 14.98 0.31
3 1 -11 293.6 4.22
2 1 -11 26.46 0.47
1 1 -11 973.93 15.18
0 1 11 86.48 1.29
1 1 11 2.63 0.1
2 1 11 51.16 0.81
3 1 11 332.75 4.81
4 1 11 0.14 0.05
5 1 11 2.76 0.1
6 1 11 0.38 0.07
7 1 11 43.55 0.73
8 1 11 0.05 0.05
9 1 11 0.61 0.07
10 1 11 41.29 0.99
11 1 11 16.47 0.43
12 1 11 21.73 0.66
13 1 11 3.59 0.18
13 2 -11 1.25 0.21
12 2 -11 13.24 0.59
11 2 -11 3.19 0.19
10 2 -11 5.06 0.25
9 2 -11 2.12 0.12
8 2 -11 80.8 1.29
7 2 -11 44.36 0.75
6 2 -11 63.75 1.02
5 2 -11 64.15 1.02
4 2 -11 80.74 1.24
3 2 -11 34.71 0.58
2 2 -11 8.37 0.19
1 2 -11 136.48 2.02
0 2 11 549.7 7.84
1 2 11 5.3 0.15
2 2 11 12.71 0.26
3 2 11 54.2 0.85
4 2 11 12.53 0.26
5 2 11 155.01 2.28
6 2 11 4.71 0.14
7 2 11 22.39 0.42
8 2 11 0.4 0.06
9 2 11 174.79 2.97
10 2 11 0.25 0.07
11 2 11 0.22 0.08
12 2 11 22.42 0.68
13 2 11 6.75 0.27
13 3 -11 41.45 1.92
12 3 -11 24.09 1.03
11 3 -11 45.94 1.4
10 3 -11 141.66 4.06
9 3 -11 26.21 0.79
8 3 -11 2.62 0.14
7 3 -11 4.22 0.17
6 3 -11 52.77 0.85
5 3 -11 2.72 0.1
4 3 -11 12.71 0.27
3 3 -11 97.16 1.47
2 3 -11 48.96 0.77
1 3 -11 15.07 0.29
0 3 11 13.47 0.27
1 3 11 33.22 0.56
2 3 11 101.88 1.5
3 3 11 153.25 2.22
4 3 11 58.64 0.91
5 3 11 90.8 1.34
6 3 11 66.94 1.05
7 3 11 9.9 0.24
8 3 11 138.65 2.35
9 3 11 2.54 0.12
10 3 11 8.93 0.26
11 3 11 5.67 0.2
12 3 11 10.21 0.35
13 3 11 0.11 0.14
13 4 -11 0.11 0.23
12 4 -11 39.98 1.67
11 4 -11 5.17 0.26
10 4 -11 9.59 0.39
9 4 -11 0.65 0.1
8 4 -11 103.59 1.94
7 4 -11 266.67 4.11
6 4 -11 8.38 0.25
5 4 -11 1.72 0.1
4 4 -11 29.76 0.51
3 4 -11 0.49 0.05
2 4 -11 4.41 0.14
1 4 -11 293.77 4.24
0 4 11 198.88 2.9
1 4 11 62.45 0.96
2 4 11 23.24 0.41
3 4 11 0.62 0.06
4 4 11 1.22 0.08
5 4 11 5.21 0.15
6 4 11 2.59 0.11
7 4 11 0.34 0.06
8 4 11 0.46 0.07
9 4 11 6.49 0.2
10 4 11 26.72 0.65
11 4 11 8.97 0.28
12 4 11 9.65 0.42
13 4 11 6.9 0.63
12 5 -11 0.31 0.16
11 5 -11 41.35 1.72
10 5 -11 6.68 0.3
9 5 -11 0.74 0.13
8 5 -11 0.81 0.1
7 5 -11 36.05 0.82
6 5 -11 1.3 0.11
5 5 -11 140.63 2.22
4 5 -11 153.02 2.38
3 5 -11 0.55 0.06
2 5 -11 14.61 0.3
1 5 -11 18.6 0.36
0 5 11 30.25 0.52
1 5 11 353.43 5.07
2 5 11 0.88 0.08
3 5 11 14.61 0.3
4 5 11 0.15 0.06
5 5 11 238.71 3.44
6 5 11 2.36 0.1
7 5 11 14.85 0.33
8 5 11 9.67 0.27
9 5 11 63.53 1.56
10 5 11 7.88 0.3
11 5 11 44.13 1.78
12 5 11 0.6 0.16
12 6 -11 0.03 0.17
11 6 -11 38.67 1.61
10 6 -11 24.02 0.86
9 6 -11 4.44 0.23
8 6 -11 0.38 0.1
7 6 -11 100.35 3.05
6 6 -11 41.35 0.88
5 6 -11 3.98 0.17
4 6 -11 19.39 0.42
3 6 -11 1.1 0.09
2 6 -11 15.66 0.31
1 6 -11 65.8 1.03
0 6 11 0.13 0.05
1 6 11 33.41 0.59
2 6 11 55.08 0.88
3 6 11 37.85 0.65
4 6 11 3.14 0.11
5 6 11 0.49 0.06
6 6 11 0.06 0.04
7 6 11 10.21 0.29
8 6 11 11.56 0.34
9 6 11 2.9 0.17
10 6 11 12.86 0.46
11 6 11 2.13 0.18
12 6 11 12.31 0.58
11 7 -11 17.43 0.76
10 7 -11 29.37 1.24
9 7 -11 9.46 0.39
8 7 -11 35.01 1.26
7 7 -11 0.38 0.1
6 7 -11 31.95 1.01
5 7 -11 4.89 0.21
4 7 -11 212.06 3.83
3 7 -11 9.89 0.27
2 7 -11 4.76 0.17
1 7 -11 23.18 0.43
0 7 11 42.18 0.73
1 7 11 1.32 0.08
2 7 11 17.19 0.36
3 7 11 150.47 2.25
4 7 11 112.05 1.97
5 7 11 112.91 1.91
6 7 11 1.03 0.08
7 7 11 49.86 1.45
8 7 11 43.12 1.28
9 7 11 18.9 0.63
10 7 11 13.27 0.57
11 7 11 6.51 0.33
10 8 -11 3.34 0.22
9 8 -11 3.9 0.23
8 8 -11 9.88 0.4
7 8 -11 0.25 0.11
6 8 -11 12.01 0.46
5 8 -11 5.32 0.25
4 8 -11 1.75 0.14
3 8 -11 15.63 0.41
2 8 -11 0.99 0.1
1 8 -11 5.35 0.17
0 8 11 19.79 0.44
1 8 11 16.97 0.39
2 8 11 0.06 0.05
3 8 11 177.34 2.97
4 8 11 11.57 0.32
5 8 11 21.34 0.57
6 8 11 0.95 0.11
7 8 11 1.67 0.14
8 8 11 5.84 0.26
9 8 11 25.67 1.14
10 8 11 9.57 0.44
9 9 -11 15.09 0.66
8 9 -11 2.78 0.2
7 9 -11 1.29 0.14
6 9 -11 9.18 0.41
5 9 -11 31.71 1.09
4 9 -11 9.42 0.38
3 9 -11 3.14 0.17
2 9 -11 3.31 0.16
1 9 -11 25.35 0.68
0 9 11 6.52 0.2
1 9 11 21.47 0.54
2 9 11 21.41 0.54
3 9 11 3.28 0.13
4 9 11 39.58 1
5 9 11 104.78 2.69
6 9 11 92.05 2.56
7 9 11 0.07 0.12
8 9 11 3.06 0.23
9 9 11 6.05 0.31
8 10 -11 3.07 0.22
7 10 -11 2.73 0.2
6 10 -11 0.96 0.18
5 10 -11 18.08 0.71
4 10 -11 1.11 0.12
3 10 -11 0.03 0.1
2 10 -11 0.65 0.11
1 10 -11 0.22 0.1
0 10 11 0.44 0.08
1 10 11 12.85 0.35
2 10 11 35.83 0.87
3 10 11 9.24 0.27
4 10 11 2.09 0.14
5 10 11 5.05 0.26
6 10 11 1.04 0.14
7 10 11 1.78 0.17
8 10 11 14.26 0.62
7 11 -11 2.29 0.22
6 11 -11 0.74 0.16
5 11 -11 40.39 1.69
4 11 -11 1.09 0.16
3 11 -11 6.17 0.31
2 11 -11 0.53 0.12
1 11 -11 22.31 0.73
0 11 11 7.27 0.27
1 11 11 19.56 0.53
2 11 11 8.57 0.27
3 11 11 22.33 0.74
4 11 11 1.34 0.16
5 11 11 5.69 0.3
6 11 11 16.48 0.71
7 11 11 7.72 0.59
5 12 -11 2.36 0.39
4 12 -11 3.67 0.25
3 12 -11 1.23 0.16
2 12 -11 16.01 0.71
1 12 -11 9.71 0.47
0 12 11 0.17 0.18
1 12 11 11.52 0.44
2 12 11 13.38 0.48
3 12 11 1.16 0.2
4 12 11 5.71 0.41
5 12 11 4.11 0.68
13 0 -12 -0.05 0.25
12 0 -12 14.36 0.79
11 0 -12 0.06 0.12
10 0 -12 15.13 0.58
9 0 -12 0.04 0.09
8 0 -12 8.59 0.32
7 0 -12 -0.03 0.06
6 0 -12 126.2 2.69
5 0 -12 0.01 0.05
4 0 -12 1.11 0.1
3 0 -12 0.01 0.04
2 0 -12 89.89 1.89
1 0 -12 0.02 0.04
0 0 12 405.14 8.15
1 0 12 0.02 0.04
2 0 12 167.05 3.39
3 0 12 0.05 0.08
4 0 12 0.16 0.08
5 0 12 0.02 0.06
6 0 12 17.9 0.49
7 0 12 0.01 0.07
8 0 12 13.9 0.48
9 0 12 0.02 0.09
10 0 12 12.48 0.49
11 0 12 0 0.1
12 0 12 17.04 0.74
13 0 12 0.05 0.18
13 1 -12 11.28 0.56
12 1 -12 2.44 0.18
11 1 -12 0.2 0.1
10 1 -12 165.58 3.91
9 1 -12 18.93 0.49
8 1 -12 2.11 0.1
7 1 -12 14.48 0.32
6 1 -12 40.77 0.72
5 1 -12 13.1 0.29
4 1 -12 26.5 0.48
3 1 -12 268.54 3.93
2 1 -12 183.87 2.64
1 1 -12 422.87 6.05
0 1 12 25.72 0.46
1 1 12 85.35 1.28
2 1 12 25.47 0.44
3 1 12 302.06 4.29
4 1 12 5.07 0.14
5 1 12 30.85 0.53
6 1 12 128.36 1.94
7 1 12 33.16 0.57
8 1 12 159.44 2.64
9 1 12 8.72 0.27
10 1 12 103.92 2.41
11 1 12 3.08 0.14
12 1 12 0.13 0.1
13 1 12 0.73 0.14
13 2 -12 1.6 0.25
12 2 -12 5.11 0.29
11 2 -12 19.14 0.65
10 2 -12 3.62 0.2
9 2 -12 0.53 0.09
8 2 -12 0.07 0.05
7 2 -12 355.02 5.25
6 2 -12 0.06 0.05
5 2 -12 91.03 1.42
4 2 -12 4.96 0.14
3 2 -12 0.47 0.05
2 2 -12 74.04 1.11
1 2 -12 10.32 0.23
0 2 12 86.09 1.3
1 2 12 23.45 0.42
2 2 12 33.85 0.56
3 2 12 0.76 0.07
4 2 12 25.93 0.46
5 2 12 16.59 0.33
6 2 12 1.84 0.1
7 2 12 3.51 0.12
8 2 12 0.24 0.06
9 2 12 8.11 0.24
10 2 12 44.87 1.07
11 2 12 26.3 0.66
12 2 12 10.84 0.35
13 2 12 19.19 0.63
13 3 -12 1.91 0.26
12 3 -12 15.13 0.68
11 3 -12 5.2 0.26
10 3 -12 70.4 2.06
9 3 -12 1.57 0.12
8 3 -12 42.01 0.87
7 3 -12 5.52 0.19
6 3 -12 165.47 2.51
5 3 -12 60.69 0.97
4 3 -12 0.28 0.06
3 3 -12 3.22 0.11
2 3 -12 3.24 0.11
1 3 -12 60.17 0.93
0 3 12 305.93 4.37
1 3 12 100.63 1.53
2 3 12 6.23 0.17
3 3 12 43.04 0.69
4 3 12 14.13 0.29
5 3 12 186.54 2.74
6 3 12 21.12 0.4
7 3 12 9.29 0.23
8 3 12 55.75 1
9 3 12 106.15 2.51
10 3 12 12.92 0.35
11 3 12 2.16 0.12
12 3 12 29.02 0.87
13 3 12 5.21 0.75
12 4 -12 10.47 0.49
11 4 -12 22.74 0.97
10 4 -12 2.21 0.18
9 4 -12 2.74 0.16
8 4 -12 41.24 1.29
7 4 -12 138.59 2.48
6 4 -12 91.71 1.5
5 4 -12 119.38 1.86
4 4 -12 5.38 0.15
3 4 -12 2.03 0.09
2 4 -12 55.55 0.88
1 4 -12 42.45 0.68
0 4 12 10.77 0.24
1 4 12 48.67 0.77
2 4 12 3.92 0.13
3 4 12 50.02 0.8
4 4 12 73.98 1.15
5 4 12 32.52 0.56
6 4 12 12.31 0.27
7 4 12 3.12 0.12
8 4 12 8.97 0.26
9 4 12 8.42 0.25
10 4 12 36.42 0.9
11 4 12 17.72 0.57
12 4 12 36.91 1.16
12 5 -12 7.82 0.4
11 5 -12 22.12 1.03
10 5 -12 49.96 1.68
9 5 -12 12.97 0.51
8 5 -12 47.83 1.48
7 5 -12 2.32 0.14
6 5 -12 0.24 0.08
5 5 -12 3.98 0.17
4 5 -12 113.53 1.76
3 5 -12 52.04 0.84
2 5 -12 2.08 0.1
1 5 -12 13.96 0.3
0 5 12 189.85 2.77
1 5 12 1.09 0.08
2 5 12 6.22 0.18
3 5 12 32.29 0.56
4 5 12 251.27 3.62
5 5 12 82.79 1.26
6 5 12 48.24 0.9
7 5 12 1.13 0.08
8 5 12 128.65 2.92
9 5 12 6.51 0.2
10 5 12 25.44 0.68
11 5 12 0.26 0.16
12 5 12 27.45 1.08
11 6 -12 1.87 0.18
10 6 -12 22.77 0.97
9 6 -12 0.31 0.13
8 6 -12 52.73 1.76
7 6 -12 0.79 0.11
6 6 -12 1.1 0.11
5 6 -12 9.41 0.29
4 6 -12 2.65 0.13
3 6 -12 24.6 0.48
2 6 -12 15.2 0.32
1 6 -12 24.93 0.46
0 6 12 6.03 0.17
1 6 12 14.7 0.33
2 6 12 0.09 0.06
3 6 12 252.69 3.67
4 6 12 39.83 0.67
5 6 12 4.64 0.15
6 6 12 0.26 0.06
7 6 12 8.14 0.23
8 6 12 49.27 1.19
9 6 12 1.37 0.11
10 6 12 13.12 0.57
11 6 12 0.69 0.15
11 7 -12 11.07 0.52
10 7 -12 12.23 0.55
9 7 -12 10.89 0.44
8 7 -12 0.56 0.11
7 7 -12 1.94 0.16
6 7 -12 53.03 1.63
5 7 -12 4.6 0.21
4 7 -12 30.75 0.67
3 7 -12 14.86 0.38
2 7 -12 44.3 0.85
1 7 -12 15.63 0.33
0 7 12 17.95 0.37
1 7 12 66.6 1.06
2 7 12 12.52 0.31
3 7 12 6.01 0.18
4 7 12 42.83 0.83
5 7 12 12.33 0.33
6 7 12 56.38 1.33
7 7 12 1.34 0.09
8 7 12 1.29 0.14
9 7 12 54.39 2.19
10 7 12 0.14 0.14
10 8 -12 28.08 1.18
9 8 -12 11.69 0.53
8 8 -12 3.64 0.22
7 8 -12 15.22 0.57
6 8 -12 60.35 2.01
5 8 -12 0.42 0.1
4 8 -12 2.28 0.14
3 8 -12 0.04 0.08
2 8 -12 9.05 0.28
1 8 -12 0.97 0.08
0 8 12 3.89 0.14
1 8 12 19.38 0.45
2 8 12 4.43 0.15
3 8 12 27.96 0.71
4 8 12 25.04 0.65
5 8 12 0.26 0.07
6 8 12 5.99 0.2
7 8 12 17.5 0.57
8 8 12 46.76 1.89
9 8 12 2.37 0.18
10 8 12 4.17 0.28
9 9 -12 0.22 0.15
8 9 -12 0.01 0.15
7 9 -12 16.56 0.78
6 9 -12 14.94 0.57
5 9 -12 12.35 0.47
4 9 -12 18.65 0.66
3 9 -12 8.51 0.31
2 9 -12 9.88 0.36
1 9 -12 21.43 0.57
0 9 12 2.85 0.12
1 9 12 13.8 0.38
2 9 12 5.88 0.2
3 9 12 89.49 2.15
4 9 12 5.35 0.19
5 9 12 3.08 0.14
6 9 12 10.11 0.38
7 9 12 35.67 1.45
8 9 12 1.82 0.19
9 9 12 0.8 0.15
8 10 -12 0.25 0.16
7 10 -12 0.14 0.14
6 10 -12 64.55 2.67
5 10 -12 0.17 0.12
4 10 -12 0.04 0.1
3 10 -12 1.77 0.14
2 10 -12 48.61 1.41
1 10 -12 1.46 0.12
0 10 12 3.36 0.15
1 10 12 1.09 0.1
2 10 12 0.53 0.08
3 10 12 13.02 0.37
4 10 12 38.62 0.99
5 10 12 6.18 0.31
6 10 12 0.66 0.16
7 10 12 6.35 0.32
8 10 12 3.04 0.42
6 11 -12 1.99 0.2
5 11 -12 13.61 0.61
4 11 -12 0.85 0.18
3 11 -12 52.9 2.2
2 11 -12 5.97 0.31
1 11 -12 11.3 0.51
0 11 12 3.33 0.17
1 11 12 31.18 0.93
2 11 12 0.92 0.11
3 11 12 1.01 0.12
4 11 12 12.48 0.62
5 11 12 25.08 1.17
6 11 12 34.95 1.44
4 12 -12 9.26 0.51
3 12 -12 6.86 0.36
2 12 -12 20.83 0.99
1 12 -12 0.08 0.16
0 12 12 3.01 0.22
1 12 12 0.1 0.14
2 12 12 6.07 0.29
3 12 12 0.67 0.17
4 12 12 27.96 2.43
13 0 -13 8.68 0.58
12 0 -13 0.1 0.21
11 0 -13 11.12 0.47
10 0 -13 0.11 0.11
9 0 -13 11.22 0.44
8 0 -13 0.04 0.09
7 0 -13 724.48 14.84
6 0 -13 0.04 0.08
5 0 -13 108.19 2.41
4 0 -13 0.04 0.06
3 0 -13 3.54 0.17
2 0 -13 0.19 0.09
1 0 -13 16.84 0.46
0 0 13 0.08 0.07
1 0 13 190.69 3.91
2 0 13 0.03 0.05
3 0 13 42.34 0.98
4 0 13 0.06 0.07
5 0 13 14.6 0.43
6 0 13 0.01 0.06
7 0 13 15.73 0.49
8 0 13 0.03 0.07
9 0 13 124.67 4.09
10 0 13 0.08 0.09
11 0 13 60.29 2.01
12 0 13 0.08 0.14
13 0 13 80.97 6.81
13 1 -13 25.95 1.08
12 1 -13 12.03 0.49
11 1 -13 0.66 0.11
10 1 -13 2.11 0.11
9 1 -13 76.77 1.79
8 1 -13 29.7 0.61
7 1 -13 2.81 0.12
6 1 -13 60.17 0.97
5 1 -13 39.74 0.68
4 1 -13 8.99 0.22
3 1 -13 34.39 0.59
2 1 -13 143.13 2.09
1 1 -13 5.83 0.16
0 1 13 42.12 0.69
1 1 13 8.05 0.19
2 1 13 4.49 0.14
3 1 13 38.84 0.65
4 1 13 4.75 0.14
5 1 13 31.62 0.56
6 1 13 81.48 1.23
7 1 13 1.21 0.09
8 1 13 1.24 0.08
9 1 13 144.9 3.34
10 1 13 119.44 2.74
11 1 13 7.48 0.24
12 1 13 25.18 0.76
13 1 13 4.69 0.6
13 2 -13 4.49 0.57
12 2 -13 17.45 0.77
11 2 -13 4.55 0.23
10 2 -13 6.23 0.26
9 2 -13 13.84 0.37
8 2 -13 1.79 0.11
7 2 -13 217.35 3.59
6 2 -13 189.22 2.9
5 2 -13 21.92 0.42
4 2 -13 28.45 0.51
3 2 -13 12.24 0.27
2 2 -13 5.26 0.15
1 2 -13 7.03 0.18
0 2 13 0.31 0.06
1 2 13 120.69 1.78
2 2 13 59.38 0.93
3 2 13 111.77 1.68
4 2 13 19.68 0.37
5 2 13 15.11 0.32
6 2 13 36.83 0.63
7 2 13 0.07 0.06
8 2 13 23.27 0.59
9 2 13 74.72 1.78
10 2 13 5.44 0.18
11 2 13 20.92 0.54
12 2 13 42.84 1.37
12 3 -13 3.68 0.25
11 3 -13 5.87 0.31
10 3 -13 62.39 1.78
9 3 -13 13.49 0.47
8 3 -13 39.66 1.07
7 3 -13 84.66 1.57
6 3 -13 0.38 0.07
5 3 -13 104.04 1.58
4 3 -13 218.99 3.21
3 3 -13 274.8 4.06
2 3 -13 205.24 2.97
1 3 -13 305.99 4.4
0 3 13 44.71 0.71
1 3 13 57.56 0.91
2 3 13 4.96 0.15
3 3 13 28.8 0.5
4 3 13 90.52 1.37
5 3 13 150.58 2.2
6 3 13 44.83 0.74
7 3 13 22.39 0.47
8 3 13 148.93 3.41
9 3 13 0.06 0.06
10 3 13 13.89 0.38
11 3 13 20.95 0.63
12 3 13 14.57 0.49
12 4 -13 4.16 0.27
11 4 -13 0.26 0.15
10 4 -13 9.05 0.41
9 4 -13 0.42 0.11
8 4 -13 0.05 0.07
7 4 -13 2.22 0.14
6 4 -13 21.68 0.52
5 4 -13 23.35 0.48
4 4 -13 92.96 1.4
3 4 -13 22.23 0.42
2 4 -13 14.47 0.31
1 4 -13 33.95 0.59
0 4 13 11.44 0.25
1 4 13 0.58 0.07
2 4 13 26.12 0.47
3 4 13 246.55 3.57
4 4 13 0.09 0.06
5 4 13 38.28 0.65
6 4 13 0.19 0.05
7 4 13 0.16 0.05
8 4 13 32.07 0.77
9 4 13 27.11 0.67
10 4 13 2.1 0.11
11 4 13 5.22 0.2
12 4 13 0.59 0.13
12 5 -13 23.6 1.4
11 5 -13 12 0.55
10 5 -13 0.05 0.13
9 5 -13 9.08 0.37
8 5 -13 34.46 1.1
7 5 -13 10.26 0.39
6 5 -13 1.03 0.12
5 5 -13 3.35 0.16
4 5 -13 27.42 0.54
3 5 -13 1.76 0.08
2 5 -13 67.9 1.07
1 5 -13 7.09 0.19
0 5 13 10.59 0.25
1 5 13 55.34 0.9
2 5 13 0.57 0.07
3 5 13 56.18 0.89
4 5 13 38.2 0.65
5 5 13 18.59 0.4
6 5 13 130.69 2.2
7 5 13 9.23 0.26
8 5 13 18.6 0.47
9 5 13 100.86 2.33
10 5 13 5.23 0.2
11 5 13 10.93 0.39
11 6 -13 5.61 0.31
10 6 -13 0.43 0.14
9 6 -13 9.93 0.41
8 6 -13 4.1 0.21
7 6 -13 9.54 0.36
6 6 -13 75.35 2.29
5 6 -13 20.36 0.51
4 6 -13 54.97 1.07
3 6 -13 0.1 0.05
2 6 -13 0.47 0.06
1 6 -13 87.73 1.34
0 6 13 12.98 0.29
1 6 13 21.86 0.43
2 6 13 1.98 0.09
3 6 13 51.7 0.95
4 6 13 13.59 0.31
5 6 13 12.97 0.31
6 6 13 17.73 0.45
7 6 13 12.41 0.34
8 6 13 10.49 0.31
9 6 13 2.01 0.13
10 6 13 3.01 0.21
11 6 13 14.24 0.56
10 7 -13 19.73 0.85
9 7 -13 0.96 0.15
8 7 -13 2.28 0.16
7 7 -13 28.85 1
6 7 -13 3.28 0.19
5 7 -13 56.78 1.67
4 7 -13 4.18 0.19
3 7 -13 0.33 0.09
2 7 -13 4.01 0.14
1 7 -13 36.77 0.71
0 7 13 24.03 0.53
1 7 13 115.58 2.02
2 7 13 24.42 0.55
3 7 13 60 1.11
4 7 13 21.85 0.55
5 7 13 22.9 0.58
6 7 13 89.49 2.17
7 7 13 27.3 0.7
8 7 13 33.8 0.96
9 7 13 1.85 0.17
10 7 13 1.59 0.19
9 8 -13 11.05 0.51
8 8 -13 4.03 0.26
7 8 -13 1.53 0.15
6 8 -13 44.21 1.49
5 8 -13 3.5 0.2
4 8 -13 0.16 0.09
3 8 -13 4.99 0.22
2 8 -13 28.78 0.77
1 8 -13 23.49 0.67
0 8 13 0.23 0.06
1 8 13 1.56 0.09
2 8 13 1.16 0.08
3 8 13 12.73 0.35
4 8 13 0.23 0.07
5 8 13 2.81 0.12
6 8 13 0.65 0.09
7 8 13 5.05 0.22
8 8 13 1.81 0.17
9 8 13 0.14 0.14
8 9 -13 1.22 0.17
7 9 -13 0.91 0.16
6 9 -13 11.57 0.47
5 9 -13 5.48 0.26
4 9 -13 15.49 0.54
3 9 -13 75.69 2.13
2 9 -13 1.19 0.12
1 9 -13 3.95 0.18
0 9 13 2.56 0.13
1 9 13 12.27 0.34
2 9 13 0.1 0.07
3 9 13 2.62 0.12
4 9 13 3.43 0.14
5 9 13 24.56 0.64
6 9 13 32.29 1.33
7 9 13 1.43 0.16
8 9 13 2.2 0.19
7 10 -13 4.21 0.26
6 10 -13 0.06 0.14
5 10 -13 6.83 0.34
4 10 -13 7.73 0.35
3 10 -13 11.97 0.45
2 10 -13 25.1 0.79
1 10 -13 0.1 0.1
0 10 13 10.8 0.33
1 10 13 0.6 0.09
2 10 13 0.18 0.09
3 10 13 0.24 0.09
4 10 13 7.3 0.27
5 10 13 0.08 0.13
6 10 13 10.06 0.51
7 10 13 1.08 0.21
5 11 -13 0 0.14
4 11 -13 0.5 0.14
3 11 -13 27.64 1.18
2 11 -13 7.25 0.36
1 11 -13 10.58 0.49
0 11 13 4.63 0.21
1 11 13 5.03 0.21
2 11 13 0.72 0.12
3 11 13 5.31 0.26
4 11 13 1.73 0.14
5 11 13 39.18 1.28
3 12 -13 29.59 1.79
2 12 -13 0.87 0.21
1 12 -13 0.13 0.17
0 12 13 6.42 0.3
1 12 13 2.48 0.2
2 12 13 9.33 0.4
3 12 13 12.55 1.23
12 0 -14 20.59 1.11
11 0 -14 0.15 0.16
10 0 -14 2.55 0.17
9 0 -14 0.01 0.1
8 0 -14 4.22 0.21
7 0 -14 -0.01 0.07
6 0 -14 268.94 5.59
5 0 -14 0.04 0.07
4 0 -14 83.3 1.84
3 0 -14 0.06 0.06
2 0 -14 26.58 0.68
1 0 -14 0.01 0.05
0 0 14 113.93 2.46
1 0 14 0.03 0.05
2 0 14 2.07 0.12
3 0 14 0.01 0.05
4 0 14 39.37 0.92
5 0 14 0 0.06
6 0 14 44.59 1.03
7 0 14 0.03 0.07
8 0 14 24.43 0.85
9 0 14 0.06 0.09
10 0 14 23.58 0.91
11 0 14 0.13 0.13
12 0 14 83.7 3.45
12 1 -14 14.01 0.57
11 1 -14 1.95 0.16
10 1 -14 39.68 0.99
9 1 -14 81.82 1.9
8 1 -14 1.35 0.09
7 1 -14 52.19 0.98
6 1 -14 175.07 2.66
5 1 -14 27.61 0.51
4 1 -14 89.21 1.37
3 1 -14 224.05 3.26
2 1 -14 168.76 2.48
1 1 -14 34.14 0.58
0 1 14 226.89 3.31
1 1 14 99.16 1.47
2 1 14 13.2 0.28
3 1 14 11.38 0.25
4 1 14 48.11 0.77
5 1 14 64.32 1.01
6 1 14 15.4 0.34
7 1 14 13.28 0.31
8 1 14 4.08 0.15
9 1 14 29.69 0.76
10 1 14 23.45 0.59
11 1 14 4.4 0.18
12 1 14 5.33 0.22
12 2 -14 0.27 0.23
11 2 -14 6.69 0.37
10 2 -14 7.47 0.29
9 2 -14 5.53 0.2
8 2 -14 0.33 0.07
7 2 -14 48.35 0.91
6 2 -14 36.33 0.73
5 2 -14 32.9 0.6
4 2 -14 44.12 0.74
3 2 -14 12.4 0.28
2 2 -14 16.47 0.33
1 2 -14 11.52 0.25
0 2 14 57.22 0.89
1 2 14 21.1 0.39
2 2 14 3.95 0.13
3 2 14 95.41 1.42
4 2 14 9.52 0.23
5 2 14 1.16 0.08
6 2 14 0.62 0.07
7 2 14 10.41 0.27
8 2 14 25.86 0.63
9 2 14 44.71 1.06
10 2 14 27.66 0.69
11 2 14 15.35 0.48
12 2 14 10.83 0.38
12 3 -14 5.89 0.42
11 3 -14 0.69 0.14
10 3 -14 8.9 0.34
9 3 -14 61.08 1.75
8 3 -14 65.23 1.78
7 3 -14 3.46 0.15
6 3 -14 0.48 0.06
5 3 -14 24.35 0.48
4 3 -14 18.43 0.38
3 3 -14 11.81 0.27
2 3 -14 0.46 0.06
1 3 -14 259.05 3.7
0 3 14 48.71 0.78
1 3 14 4.36 0.13
2 3 14 1.88 0.09
3 3 14 139.9 2.04
4 3 14 217 3.13
5 3 14 1.83 0.09
6 3 14 17.42 0.39
7 3 14 3.87 0.14
8 3 14 8.68 0.25
9 3 14 144.1 3.31
10 3 14 161.66 3.72
11 3 14 3.94 0.17
12 3 14 27.55 0.88
12 4 -14 36.34 1.63
11 4 -14 1.63 0.19
10 4 -14 1.26 0.14
9 4 -14 17.18 0.6
8 4 -14 5.58 0.23
7 4 -14 9.38 0.32
6 4 -14 111.37 2.04
5 4 -14 0.46 0.07
4 4 -14 2.08 0.09
3 4 -14 1.64 0.09
2 4 -14 36.5 0.63
1 4 -14 7.92 0.21
0 4 14 0.04 0.04
1 4 14 45.27 0.75
2 4 14 8.26 0.21
3 4 14 32.68 0.57
4 4 14 0.8 0.07
5 4 14 8.53 0.23
6 4 14 42.55 0.8
7 4 14 8.72 0.24
8 4 14 9.07 0.26
9 4 14 46.03 1.09
10 4 14 27.59 0.83
11 4 14 14.03 0.44
11 5 -14 1.45 0.19
10 5 -14 64.1 2.88
9 5 -14 1.96 0.16
8 5 -14 9.18 0.36
7 5 -14 0.68 0.1
6 5 -14 31.83 0.87
5 5 -14 1.28 0.11
4 5 -14 49.04 0.95
3 5 -14 12.95 0.29
2 5 -14 17.34 0.36
1 5 -14 121.03 1.84
0 5 14 14.87 0.32
1 5 14 34.58 0.61
2 5 14 87.34 1.32
3 5 14 0.07 0.05
4 5 14 0.88 0.08
5 5 14 3.43 0.12
6 5 14 8.05 0.23
7 5 14 7.77 0.23
8 5 14 75.57 1.75
9 5 14 0.36 0.09
10 5 14 29.95 0.89
11 5 14 0.06 0.11
11 6 -14 4.63 0.89
10 6 -14 0.55 0.15
9 6 -14 12.68 0.93
8 6 -14 8.5 0.36
7 6 -14 5.45 0.25
6 6 -14 74.21 2.02
5 6 -14 61.99 1.7
4 6 -14 33.75 0.74
3 6 -14 3.64 0.15
2 6 -14 105.69 1.81
1 6 -14 4.73 0.15
0 6 14 23.01 0.48
1 6 14 23.18 0.49
2 6 14 0.14 0.05
3 6 14 3.01 0.12
4 6 14 23.1 0.49
5 6 14 19.31 0.48
6 6 14 3.84 0.14
7 6 14 28.66 0.7
8 6 14 0.73 0.09
9 6 14 8.03 0.28
10 6 14 14.81 0.49
10 7 -14 20.56 0.89
9 7 -14 0.27 0.15
8 7 -14 1.37 0.15
7 7 -14 0.03 0.1
6 7 -14 4.24 0.21
5 7 -14 17.86 0.55
4 7 -14 2.7 0.14
3 7 -14 10.59 0.32
2 7 -14 0.93 0.09
1 7 -14 12.91 0.32
0 7 14 76.6 1.37
1 7 14 36.62 0.74
2 7 14 6.68 0.21
3 7 14 73.58 1.77
4 7 14 2.89 0.12
5 7 14 43.11 1.04
6 7 14 83.19 1.97
7 7 14 4.57 0.17
8 7 14 5.32 0.21
9 7 14 24.8 0.91
10 7 14 31.76 1.24
9 8 -14 3.94 0.25
8 8 -14 7.17 0.36
7 8 -14 0.5 0.13
6 8 -14 0.92 0.13
5 8 -14 44.71 1.39
4 8 -14 40.56 1.18
3 8 -14 15.51 0.51
2 8 -14 78.19 1.92
1 8 -14 43.32 1.09
0 8 14 12.89 0.37
1 8 14 3.18 0.14
2 8 14 1.11 0.09
3 8 14 0.05 0.06
4 8 14 101.66 2.41
5 8 14 6.27 0.21
6 8 14 15.83 0.44
7 8 14 0.48 0.11
8 8 14 6.93 0.35
9 8 14 3.53 0.22
8 9 -14 8.71 0.43
7 9 -14 11.16 0.51
6 9 -14 22.56 0.96
5 9 -14 21.24 0.69
4 9 -14 7.89 0.33
3 9 -14 51.18 1.53
2 9 -14 33.53 0.96
1 9 -14 0.41 0.08
0 9 14 26.46 0.68
1 9 14 101.6 2.43
2 9 14 4.42 0.17
3 9 14 5.85 0.2
4 9 14 0.11 0.08
5 9 14 0.22 0.09
6 9 14 24.36 0.8
7 9 14 30.28 1.17
8 9 14 1.57 0.18
6 10 -14 0.03 0.12
5 10 -14 0.12 0.12
4 10 -14 4.46 0.25
3 10 -14 59.04 2.46
2 10 -14 1.77 0.15
1 10 -14 6.22 0.25
0 10 14 1.54 0.11
1 10 14 7.06 0.24
2 10 14 7.51 0.26
3 10 14 12.55 0.41
4 10 14 40.37 1.2
5 10 14 0.48 0.12
6 10 14 0.8 0.14
5 11 -14 4.21 0.56
4 11 -14 8.59 0.42
3 11 -14 10.76 0.5
2 11 -14 20.86 0.91
1 11 -14 38.01 1.61
0 11 14 8.11 0.36
1 11 14 3.63 0.18
2 11 14 3.04 0.18
3 11 14 3.93 0.22
4 11 14 0.54 0.17
12 0 -15 0.08 0.27
11 0 -15 55.79 2.52
10 0 -15 0.08 0.11
9 0 -15 0.34 0.12
8 0 -15 0.03 0.08
7 0 -15 90.17 2.28
6 0 -15 0.03 0.08
5 0 -15 6.28 0.26
4 0 -15 0.05 0.08
3 0 -15 40.79 0.95
2 0 -15 0.04 0.05
1 0 -15 74.04 1.59
0 0 15 0.02 0.05
1 0 15 28.05 0.7
2 0 15 0.04 0.05
3 0 15 384.29 7.76
4 0 15 0.08 0.1
5 0 15 3.42 0.17
6 0 15 0.01 0.07
7 0 15 22.24 0.77
8 0 15 0.09 0.08
9 0 15 1.95 0.14
10 0 15 0.1 0.11
11 0 15 0.25 0.14
12 0 15 0.03 0.18
12 1 -15 2.1 0.22
11 1 -15 3.13 0.2
10 1 -15 19.1 0.51
9 1 -15 58.24 1.38
8 1 -15 68.13 1.6
7 1 -15 112.51 2.74
6 1 -15 56.61 1.06
5 1 -15 29.71 0.55
4 1 -15 0.58 0.07
3 1 -15 184.79 2.72
2 1 -15 9.73 0.23
1 1 -15 13.43 0.28
0 1 15 0.17 0.06
1 1 15 42.53 0.69
2 1 15 0.56 0.07
3 1 15 81.14 1.23
4 1 15 124.22 1.84
5 1 15 145.23 2.15
6 1 15 14.44 0.33
7 1 15 16.31 0.43
8 1 15 55.8 1.34
9 1 15 14.21 0.39
10 1 15 118.53 2.74
11 1 15 36.8 1.09
12 1 15 33.48 1.19
12 2 -15 32.59 1.3
11 2 -15 7.93 0.43
10 2 -15 5.86 0.25
9 2 -15 0.06 0.08
8 2 -15 0.11 0.07
7 2 -15 71.31 1.76
6 2 -15 112.45 1.99
5 2 -15 24.5 0.54
4 2 -15 1.68 0.08
3 2 -15 0.33 0.07
2 2 -15 3.36 0.12
1 2 -15 16.78 0.34
0 2 15 48.73 0.78
1 2 15 17.69 0.34
2 2 15 4.35 0.14
3 2 15 147.45 2.15
4 2 15 3.98 0.13
5 2 15 0.46 0.06
6 2 15 38.41 0.72
7 2 15 2.77 0.12
8 2 15 11.62 0.32
9 2 15 3.76 0.14
10 2 15 15.16 0.41
11 2 15 0.66 0.11
12 2 15 42.58 1.96
11 3 -15 0.33 0.17
10 3 -15 0.41 0.13
9 3 -15 27.03 0.85
8 3 -15 8.71 0.28
7 3 -15 1.71 0.11
6 3 -15 8.76 0.25
5 3 -15 2.58 0.11
4 3 -15 9.09 0.23
3 3 -15 39.74 0.69
2 3 -15 3.91 0.13
1 3 -15 35.42 0.61
0 3 15 1.09 0.08
1 3 15 2.89 0.11
2 3 15 123.76 1.84
3 3 15 3.83 0.13
4 3 15 13.6 0.29
5 3 15 2.24 0.1
6 3 15 62.16 1.1
7 3 15 2.44 0.11
8 3 15 0.1 0.07
9 3 15 13.63 0.37
10 3 15 17.13 0.53
11 3 15 5.27 0.21
11 4 -15 15.9 0.71
10 4 -15 0.14 0.13
9 4 -15 1.24 0.13
8 4 -15 5.59 0.25
7 4 -15 40.3 1.18
6 4 -15 75.97 2.04
5 4 -15 79.21 1.41
4 4 -15 2.34 0.1
3 4 -15 1.03 0.07
2 4 -15 10.89 0.27
1 4 -15 1.4 0.09
0 4 15 38.91 0.65
1 4 15 2.08 0.09
2 4 15 39.6 0.68
3 4 15 21.05 0.41
4 4 15 4.05 0.13
5 4 15 0.73 0.08
6 4 15 4.7 0.16
7 4 15 58.98 1.37
8 4 15 1.26 0.09
9 4 15 38.59 0.93
10 4 15 3.32 0.15
11 4 15 2.68 0.16
11 5 -15 8.71 0.58
10 5 -15 29.54 1.16
9 5 -15 2.81 0.17
8 5 -15 4.78 0.23
7 5 -15 38.03 1.11
6 5 -15 5.43 0.22
5 5 -15 134.67 3.47
4 5 -15 0.18 0.06
3 5 -15 1.1 0.08
2 5 -15 31.47 0.63
1 5 -15 360.02 6
0 5 15 10.01 0.24
1 5 15 63.3 1.13
2 5 15 28.73 0.58
3 5 15 288.14 4.68
4 5 15 15.3 0.36
5 5 15 72.33 1.68
6 5 15 16.93 0.46
7 5 15 16.51 0.43
8 5 15 9.47 0.28
9 5 15 55.25 1.61
10 5 15 5.2 0.2
11 5 15 7.65 1.22
10 6 -15 0.61 0.15
9 6 -15 3.04 0.19
8 6 -15 0.88 0.12
7 6 -15 0.08 0.1
6 6 -15 0.07 0.08
5 6 -15 23.95 0.73
4 6 -15 0.88 0.09
3 6 -15 28.4 0.71
2 6 -15 21.16 0.46
1 6 -15 3.58 0.13
0 6 15 0.41 0.07
1 6 15 0.48 0.07
2 6 15 6.95 0.21
3 6 15 8.43 0.24
4 6 15 65.52 1.53
5 6 15 0.34 0.07
6 6 15 38.8 0.92
7 6 15 2.51 0.12
8 6 15 5.75 0.2
9 6 15 43.25 1.26
10 6 15 0.14 0.11
9 7 -15 -0.02 0.13
8 7 -15 0.68 0.12
7 7 -15 0.67 0.11
6 7 -15 2.4 0.16
5 7 -15 2.5 0.16
4 7 -15 3.61 0.18
3 7 -15 66.14 1.68
2 7 -15 97.45 2.3
1 7 -15 95.41 2.33
0 7 15 0.25 0.06
1 7 15 84.55 2.02
2 7 15 28.18 0.71
3 7 15 1.09 0.09
4 7 15 5.79 0.19
5 7 15 5.31 0.18
6 7 15 3.24 0.13
7 7 15 26.54 0.68
8 7 15 28.75 0.89
9 7 15 0.93 0.13
8 8 -15 0.64 0.12
7 8 -15 4.23 0.23
6 8 -15 0.43 0.12
5 8 -15 5.52 0.26
4 8 -15 8.31 0.33
3 8 -15 70.23 1.99
2 8 -15 1.61 0.1
1 8 -15 1.29 0.09
0 8 15 3.6 0.14
1 8 15 0.09 0.07
2 8 15 4.55 0.17
3 8 15 10.38 0.31
4 8 15 10.27 0.31
5 8 15 1.39 0.1
6 8 15 4.35 0.18
7 8 15 13.76 0.48
8 8 15 12.01 0.43
7 9 -15 6.49 0.31
6 9 -15 3.88 0.23
5 9 -15 1.45 0.15
4 9 -15 1.59 0.15
3 9 -15 2.38 0.17
2 9 -15 37.64 1.08
1 9 -15 50.29 1.23
0 9 15 80.29 1.88
1 9 15 4.56 0.17
2 9 15 6.97 0.23
3 9 15 2.24 0.12
4 9 15 13.64 0.49
5 9 15 13.89 0.45
6 9 15 22.48 0.74
7 9 15 15.36 0.53
6 10 -15 1.07 0.62
5 10 -15 14.57 0.65
4 10 -15 6.88 0.34
3 10 -15 15.52 0.69
2 10 -15 16.34 0.72
1 10 -15 30.95 1.01
0 10 15 0.45 0.1
1 10 15 2.54 0.14
2 10 15 10.07 0.34
3 10 15 0.58 0.11
4 10 15 5.17 0.22
5 10 15 1.12 0.15
6 10 15 9.54 0.88
3 11 -15 2.04 0.2
2 11 -15 0.63 0.17
1 11 -15 8.09 0.41
0 11 15 23.36 0.78
1 11 15 30.72 1.06
2 11 15 3.39 0.21
3 11 15 0.19 0.19
11 0 -16 -0.09 0.2
10 0 -16 63.87 2.65
9 0 -16 0.04 0.11
8 0 -16 1.5 0.14
7 0 -16 0.02 0.08
6 0 -16 3.8 0.2
5 0 -16 0.02 0.07
4 0 -16 18.98 0.55
3 0 -16 -0.01 0.06
2 0 -16 0.09 0.06
1 0 -16 0.03 0.06
0 0 16 20.26 0.55
1 0 16 0.08 0.09
2 0 16 2.52 0.15
3 0 16 0.04 0.06
4 0 16 5.53 0.23
5 0 16 0 0.06
6 0 16 28.14 0.96
7 0 16 0.05 0.08
8 0 16 120.58 3.91
9 0 16 0.1 0.1
10 0 16 101.2 4.16
11 0 16 0.09 0.15
11 1 -16 4.38 0.25
10 1 -16 2.51 0.15
9 1 -16 33.9 0.84
8 1 -16 99.44 2.3
7 1 -16 23.62 0.62
6 1 -16 7.24 0.22
5 1 -16 13.49 0.33
4 1 -16 25.09 0.49
3 1 -16 99.84 1.53
2 1 -16 35.11 0.6
1 1 -16 32.44 0.56
0 1 16 179.79 2.64
1 1 16 29.02 0.51
2 1 16 49.23 0.79
3 1 16 7.94 0.2
4 1 16 446.96 7.27
5 1 16 56.17 1
6 1 16 20.93 0.53
7 1 16 2.52 0.11
8 1 16 33.59 0.83
9 1 16 0.65 0.09
10 1 16 133.48 3.88
11 1 16 3.08 0.16
11 2 -16 63.7 2.28
10 2 -16 7.39 0.29
9 2 -16 6.67 0.24
8 2 -16 15.36 0.41
7 2 -16 39.4 1.01
6 2 -16 3.93 0.15
5 2 -16 45.87 0.91
4 2 -16 15.39 0.36
3 2 -16 13.46 0.31
2 2 -16 32.31 0.57
1 2 -16 11.2 0.27
0 2 16 3.27 0.12
1 2 16 71.94 1.11
2 2 16 19.96 0.39
3 2 16 9.59 0.23
4 2 16 6.94 0.2
5 2 16 7.6 0.21
6 2 16 7.69 0.22
7 2 16 90.12 2.12
8 2 16 20.39 0.51
9 2 16 0.43 0.09
10 2 16 21.58 0.68
11 2 16 2.18 0.15
11 3 -16 1.6 0.21
10 3 -16 11.79 0.54
9 3 -16 0.38 0.12
8 3 -16 21.6 0.6
7 3 -16 5.74 0.19
6 3 -16 126.72 3.08
5 3 -16 31.72 0.65
4 3 -16 3.67 0.12
3 3 -16 3.57 0.13
2 3 -16 52.06 0.85
1 3 -16 94.61 1.42
0 3 16 74.04 1.14
1 3 16 23.14 0.44
2 3 16 43.01 0.73
3 3 16 269.28 4.5
4 3 16 9.13 0.23
5 3 16 1.57 0.09
6 3 16 40.12 0.95
7 3 16 3.1 0.12
8 3 16 17.6 0.45
9 3 16 0.64 0.09
10 3 16 7.06 0.25
11 3 16 14.21 0.47
11 4 -16 21.64 1.7
10 4 -16 0.11 0.14
9 4 -16 29.81 1.26
8 4 -16 0.77 0.11
7 4 -16 49.04 1.35
6 4 -16 0.68 0.09
5 4 -16 2.54 0.11
4 4 -16 0.49 0.07
3 4 -16 40.79 0.79
2 4 -16 107.4 1.86
1 4 -16 3.84 0.13
0 4 16 18.43 0.39
1 4 16 80.01 1.38
2 4 16 0.01 0.05
3 4 16 0.54 0.07
4 4 16 64.49 1.14
5 4 16 10.87 0.29
6 4 16 29.5 0.71
7 4 16 14.21 0.38
8 4 16 2.27 0.11
9 4 16 2.18 0.12
10 4 16 0.67 0.11
10 5 -16 9.13 0.43
9 5 -16 29.43 1.25
8 5 -16 10.82 0.42
7 5 -16 0.24 0.1
6 5 -16 35.75 1.06
5 5 -16 4.99 0.17
4 5 -16 0.04 0.05
3 5 -16 19.62 0.51
2 5 -16 73.98 1.35
1 5 -16 25.43 0.54
0 5 16 22.84 0.48
1 5 16 10.57 0.27
2 5 16 61.42 1.09
3 5 16 7.76 0.23
4 5 16 0.64 0.07
5 5 16 7.96 0.23
6 5 16 86.88 1.99
7 5 16 10.4 0.32
8 5 16 11.35 0.32
9 5 16 9.56 0.32
10 5 16 16.68 0.57
10 6 -16 4.51 0.83
9 6 -16 9.85 0.46
8 6 -16 0.13 0.11
7 6 -16 26.98 0.86
6 6 -16 5.08 0.24
5 6 -16 0.44 0.1
4 6 -16 0.72 0.08
3 6 -16 58.47 1.4
2 6 -16 21.33 0.55
1 6 -16 11.86 0.33
0 6 16 2.97 0.12
1 6 16 2.56 0.11
2 6 16 34.87 0.86
3 6 16 0.53 0.07
4 6 16 30.38 0.76
5 6 16 15.8 0.41
6 6 16 4.91 0.17
7 6 16 20.79 0.53
8 6 16 11.49 0.36
9 6 16 4.38 0.19
9 7 -16 11.15 0.52
8 7 -16 12.52 0.56
7 7 -16 12.67 0.57
6 7 -16 10.53 0.41
5 7 -16 35.98 1.11
4 7 -16 16.43 0.55
3 7 -16 48.88 1.26
2 7 -16 18.18 0.49
1 7 -16 31.58 0.81
0 7 16 31.33 0.86
1 7 16 24.77 0.65
2 7 16 14.88 0.41
3 7 16 67.85 1.64
4 7 16 1.41 0.09
5 7 16 5.99 0.2
6 7 16 7.81 0.25
7 7 16 29.66 0.87
8 7 16 18.66 0.57
9 7 16 4.66 1.14
7 8 -16 5.72 0.3
6 8 -16 7.89 0.38
5 8 -16 5.59 0.29
4 8 -16 5.21 0.25
3 8 -16 22.35 0.71
2 8 -16 1.51 0.1
1 8 -16 5.79 0.2
0 8 16 22.14 0.6
1 8 16 11.91 0.35
2 8 16 25.34 0.71
3 8 16 1.64 0.1
4 8 16 0.01 0.08
5 8 16 1.01 0.1
6 8 16 19.84 0.63
7 8 16 1.46 0.13
6 9 -16 0.13 0.13
5 9 -16 14.98 0.66
4 9 -16 1.71 0.16
3 9 -16 13.62 0.61
2 9 -16 0.54 0.12
1 9 -16 0.41 0.09
0 9 16 2.86 0.15
1 9 16 60.69 1.48
2 9 16 1.21 0.11
3 9 16 0.49 0.1
4 9 16 30.26 0.95
5 9 16 8.13 0.29
6 9 16 18.48 0.63
5 10 -16 0.42 0.35
4 10 -16 8.12 0.4
3 10 -16 2.83 0.21
2 10 -16 4.68 0.27
1 10 -16 1.29 0.13
0 10 16 12.96 0.44
1 10 16 4.34 0.19
2 10 16 8.52 0.33
3 10 16 3.47 0.18
4 10 16 5.17 0.24
5 10 16 3.26 0.51
1 11 -16 3.78 0.4
0 11 16 26.31 1.24
1 11 16 5 1.07
11 0 -17 72.33 3.7
10 0 -17 0.1 0.15
9 0 -17 7.28 0.34
8 0 -17 0.03 0.11
7 0 -17 11.13 0.47
6 0 -17 0.05 0.1
5 0 -17 134.61 4.71
4 0 -17 0.03 0.07
3 0 -17 13.4 0.48
2 0 -17 0.01 0.06
1 0 -17 0.4 0.09
0 0 17 0.03 0.04
1 0 17 53.13 1.18
2 0 17 0.05 0.06
3 0 17 91.48 2.2
4 0 17 0.06 0.06
5 0 17 27.53 0.94
6 0 17 0.02 0.07
7 0 17 158.36 5.12
8 0 17 0.16 0.11
9 0 17 0.21 0.11
10 0 17 0.01 0.13
11 0 17 1.02 0.19
11 1 -17 0.32 0.17
10 1 -17 0.44 0.12
9 1 -17 0.06 0.09
8 1 -17 61.6 1.46
7 1 -17 54.62 1.4
6 1 -17 13.02 0.37
5 1 -17 13.23 0.38
4 1 -17 4.36 0.14
3 1 -17 1.34 0.08
2 1 -17 2.29 0.1
1 1 -17 0.49 0.06
0 1 17 21.08 0.4
1 1 17 5.7 0.16
2 1 17 14.94 0.33
3 1 17 95.98 1.63
4 1 17 232 3.78
5 1 17 0.07 0.05
6 1 17 12.29 0.33
7 1 17 13.66 0.36
8 1 17 36.59 0.9
9 1 17 0.5 0.09
10 1 17 47.67 1.4
11 1 17 1.14 0.25
11 2 -17 4.62 0.4
10 2 -17 35.02 1.15
9 2 -17 23.3 0.78
8 2 -17 0.43 0.09
7 2 -17 2.64 0.13
6 2 -17 48.42 1.24
5 2 -17 21.7 0.58
4 2 -17 8.77 0.24
3 2 -17 45.46 0.85
2 2 -17 51.05 0.92
1 2 -17 7.14 0.19
0 2 17 5.37 0.16
1 2 17 23.21 0.47
2 2 17 10.43 0.26
3 2 17 130.75 2.17
4 2 17 6.94 0.2
5 2 17 9.89 0.27
6 2 17 17.25 0.44
7 2 17 22.29 0.55
8 2 17 48.92 1.16
9 2 17 0.07 0.09
10 2 17 17.82 0.55
10 3 -17 32.87 1.39
9 3 -17 56.12 2.17
8 3 -17 48.73 1.29
7 3 -17 66.88 1.61
6 3 -17 0.1 0.07
5 3 -17 24.08 0.64
4 3 -17 22.46 0.57
3 3 -17 17.7 0.41
2 3 -17 6.21 0.18
1 3 -17 103.48 1.76
0 3 17 24.51 0.5
1 3 17 17.04 0.37
2 3 17 29.06 0.57
3 3 17 15.66 0.35
4 3 17 138.48 3.18
5 3 17 155.36 3.54
6 3 17 57.9 1.31
7 3 17 2.61 0.11
8 3 17 5.02 0.17
9 3 17 0.37 0.09
10 3 17 -0.01 0.1
10 4 -17 7.66 0.39
9 4 -17 1.44 0.16
8 4 -17 11.9 0.45
7 4 -17 10.36 0.37
6 4 -17 52.47 1.32
5 4 -17 14.11 0.39
4 4 -17 14.68 0.39
3 4 -17 74.66 1.77
2 4 -17 3.62 0.13
1 4 -17 3.55 0.13
0 4 17 0.06 0.05
1 4 17 31.18 0.61
2 4 17 14.78 0.35
3 4 17 26.67 0.67
4 4 17 31.5 0.75
5 4 17 5.71 0.18
6 4 17 20.6 0.52
7 4 17 38.41 0.92
8 4 17 0.84 0.09
9 4 17 8.92 0.3
10 4 17 0.1 0.11
10 5 -17 20.11 1.09
9 5 -17 0.04 0.13
8 5 -17 1.48 0.15
7 5 -17 12.25 0.46
6 5 -17 13.56 0.48
5 5 -17 20.11 0.55
4 5 -17 23.74 0.6
3 5 -17 95.17 2.38
2 5 -17 21.15 0.54
1 5 -17 0.43 0.07
0 5 17 80.12 1.86
1 5 17 33.71 0.83
2 5 17 23.79 0.59
3 5 17 86.37 1.99
4 5 17 0.59 0.07
5 5 17 79.1 1.87
6 5 17 12.97 0.35
7 5 17 22.84 0.58
8 5 17 4.84 0.2
9 5 17 24.08 0.76
9 6 -17 6.12 0.32
8 6 -17 0.75 0.13
7 6 -17 35.53 1.49
6 6 -17 18.61 0.62
5 6 -17 4.23 0.22
4 6 -17 4.93 0.18
3 6 -17 19.09 0.5
2 6 -17 35.83 0.88
1 6 -17 2.02 0.1
0 6 17 42.12 1.03
1 6 17 6.53 0.2
2 6 17 5.67 0.19
3 6 17 0.05 0.06
4 6 17 0.05 0.06
5 6 17 1.9 0.1
6 6 17 15.98 0.42
7 6 17 7.52 0.26
8 6 17 15.95 0.49
9 6 17 33.01 1.56
8 7 -17 0 0.14
7 7 -17 11.37 0.52
6 7 -17 1 0.13
5 7 -17 59.21 1.78
4 7 -17 0.4 0.11
3 7 -17 3.32 0.14
2 7 -17 6.58 0.21
1 7 -17 69.61 1.66
0 7 17 44.07 1.11
1 7 17 45.78 1.12
2 7 17 1.96 0.11
3 7 17 5.74 0.2
4 7 17 8.89 0.27
5 7 17 34.17 0.85
6 7 17 12.61 0.39
7 7 17 13.16 0.41
8 7 17 2.14 0.15
7 8 -17 15.18 0.68
6 8 -17 10.63 0.49
5 8 -17 0.44 0.13
4 8 -17 0.56 0.12
3 8 -17 0.84 0.11
2 8 -17 4.03 0.17
1 8 -17 21.8 0.58
0 8 17 8.78 0.27
1 8 17 7.54 0.24
2 8 17 2.34 0.12
3 8 17 0.17 0.08
4 8 17 4.96 0.21
5 8 17 11.66 0.39
6 8 17 0.54 0.12
7 8 17 11.22 0.45
5 9 -17 11.27 0.52
4 9 -17 10.21 0.48
3 9 -17 6.86 0.35
2 9 -17 0.86 0.12
1 9 -17 48.33 1.49
0 9 17 7.95 0.29
1 9 17 5.09 0.2
2 9 17 0.09 0.1
3 9 17 13.68 0.47
4 9 17 26.63 0.87
5 9 17 1.48 0.14
3 10 -17 1.04 0.18
2 10 -17 10.06 0.4
1 10 -17 0.14 0.12
0 10 17 2.92 0.18
1 10 17 2.61 0.18
2 10 17 0.77 0.16
3 10 17 4.14 0.29
10 0 -18 25.64 1.36
9 0 -18 0.06 0.14
8 0 -18 9.97 0.43
7 0 -18 0 0.11
6 0 -18 127.79 4.42
5 0 -18 0.08 0.09
4 0 -18 1.51 0.12
3 0 -18 0.01 0.06
2 0 -18 99.1 2.38
1 0 -18 0.02 0.06
0 0 18 1.04 0.11
1 0 18 0.05 0.07
2 0 18 89.21 2.15
3 0 18 0.03 0.06
4 0 18 4.8 0.22
5 0 18 0.02 0.09
6 0 18 2.16 0.15
7 0 18 0.14 0.09
8 0 18 36.26 1.23
9 0 18 0.01 0.1
10 0 18 0.05 0.15
10 1 -18 5.12 0.28
9 1 -18 25.77 0.78
8 1 -18 24.37 0.66
7 1 -18 0.45 0.08
6 1 -18 36.16 0.93
5 1 -18 9.1 0.27
4 1 -18 2.68 0.11
3 1 -18 0.05 0.05
2 1 -18 17.49 0.39
1 1 -18 104.9 1.76
0 1 18 16.14 0.36
1 1 18 6.13 0.18
2 1 18 28.32 0.56
3 1 18 1.03 0.08
4 1 18 37.04 0.87
5 1 18 65.23 1.5
6 1 18 0.45 0.08
7 1 18 1.91 0.1
8 1 18 0.61 0.09
9 1 18 1.12 0.11
10 1 18 11.23 0.37
10 2 -18 1.14 0.15
9 2 -18 2.82 0.17
8 2 -18 1.91 0.12
7 2 -18 1.19 0.1
6 2 -18 32.84 0.88
5 2 -18 0.29 0.07
4 2 -18 0.1 0.05
3 2 -18 86.88 2.09
2 2 -18 23.83 0.51
1 2 -18 8.39 0.22
0 2 18 0.17 0.05
1 2 18 13.13 0.32
2 2 18 1.05 0.08
3 2 18 9.74 0.27
4 2 18 52.04 1.3
5 2 18 0.24 0.07
6 2 18 12.26 0.33
7 2 18 63.24 1.47
8 2 18 23.05 0.69
9 2 18 10.18 0.33
10 2 18 21.04 0.68
10 3 -18 8.5 0.35
9 3 -18 0.18 0.13
8 3 -18 7.85 0.31
7 3 -18 81.94 2.02
6 3 -18 7.23 0.25
5 3 -18 14.18 0.39
4 3 -18 3.46 0.13
3 3 -18 180.18 4.24
2 3 -18 151.32 3.65
1 3 -18 25.56 0.63
0 3 18 15.21 0.34
1 3 18 24.42 0.6
2 3 18 24.71 0.61
3 3 18 29 0.71
4 3 18 177.79 4.06
5 3 18 48.12 1.12
6 3 18 18.89 0.48
7 3 18 38.68 0.93
8 3 18 44.42 1.3
9 3 18 18.87 0.58
10 3 18 75.46 6.13
9 4 -18 6.61 0.34
8 4 -18 1.01 0.14
7 4 -18 4.59 0.19
6 4 -18 3.09 0.14
5 4 -18 7.46 0.26
4 4 -18 0.9 0.08
3 4 -18 6.3 0.2
2 4 -18 13.9 0.38
1 4 -18 17.14 0.45
0 4 18 30.14 0.74
1 4 18 0.13 0.05
2 4 18 25.07 0.61
3 4 18 59.1 1.37
4 4 18 14.22 0.37
5 4 18 0.05 0.06
6 4 18 13.79 0.37
7 4 18 7.41 0.23
8 4 18 91.94 2.66
9 4 18 20.81 0.66
9 5 -18 1.93 0.19
8 5 -18 0.15 0.13
7 5 -18 15.13 0.65
6 5 -18 31.61 0.86
5 5 -18 10.06 0.31
4 5 -18 5.08 0.18
3 5 -18 29.38 0.73
2 5 -18 73.19 1.79
1 5 -18 10.24 0.3
0 5 18 4.5 0.17
1 5 18 4.86 0.17
2 5 18 1.84 0.1
3 5 18 1.14 0.08
4 5 18 64.89 1.54
5 5 18 0.61 0.09
6 5 18 27.7 0.68
7 5 18 41.58 1.27
8 5 18 0.58 0.1
9 5 18 18.65 0.97
8 6 -18 32.74 1.39
7 6 -18 0.13 0.13
6 6 -18 41.91 1.9
5 6 -18 24.1 0.69
4 6 -18 0.1 0.08
3 6 -18 8.98 0.27
2 6 -18 0.15 0.07
1 6 -18 24.3 0.62
0 6 18 13.47 0.38
1 6 18 94.16 2.17
2 6 18 9.9 0.28
3 6 18 9.49 0.29
4 6 18 5.74 0.19
5 6 18 3.22 0.14
6 6 18 12.51 0.39
7 6 18 24.06 0.72
8 6 18 45.21 1.39
7 7 -18 15.6 0.69
6 7 -18 40.74 1.7
5 7 -18 17.93 0.78
4 7 -18 15.19 0.54
3 7 -18 39.69 1.08
2 7 -18 9.11 0.28
1 7 -18 21.4 0.56
0 7 18 24.31 0.65
1 7 18 26.89 0.7
2 7 18 3.45 0.15
3 7 18 22.66 0.61
4 7 18 46.16 1.34
5 7 18 19.99 0.61
6 7 18 10.93 0.35
7 7 18 10.1 0.35
6 8 -18 22.51 0.97
5 8 -18 9.51 0.45
4 8 -18 0.45 0.14
3 8 -18 0.27 0.1
2 8 -18 51.38 1.75
1 8 -18 0.02 0.08
0 8 18 2.81 0.14
1 8 18 5.47 0.21
2 8 18 13.78 0.45
3 8 18 0.13 0.1
4 8 18 8.9 0.34
5 8 18 0.08 0.1
6 8 18 0.47 0.16
4 9 -18 0.72 0.16
3 9 -18 1.64 0.17
2 9 -18 6.51 0.28
1 9 -18 3.39 0.18
0 9 18 9.81 0.34
1 9 18 18.39 0.59
2 9 18 2.5 0.14
3 9 18 0.32 0.12
4 9 18 0.15 0.13
1 10 -18 6.73 0.91
0 10 18 5.97 0.88
10 0 -19 3.47 0.78
9 0 -19 29.32 1.25
8 0 -19 0.09 0.13
7 0 -19 1.84 0.16
6 0 -19 0.02 0.11
5 0 -19 57.22 2.01
4 0 -19 0.1 0.09
3 0 -19 232.74 7.6
2 0 -19 0.05 0.08
1 0 -19 8.69 0.35
0 0 19 -0.01 0.07
1 0 19 1.04 0.1
2 0 19 0.09 0.07
3 0 19 38.95 1.34
4 0 19 0.1 0.08
5 0 19 15.37 0.56
6 0 19 0.03 0.09
7 0 19 12.51 0.48
8 0 19 0.06 0.12
9 0 19 20.16 1.19
10 1 -19 8.1 0.78
9 1 -19 28.54 0.95
8 1 -19 1.62 0.12
7 1 -19 0.44 0.09
6 1 -19 0.17 0.07
5 1 -19 9.25 0.28
4 1 -19 4.77 0.16
3 1 -19 64.44 1.55
2 1 -19 73.53 1.76
1 1 -19 202.29 4.63
0 1 19 4.17 0.14
1 1 19 0.47 0.07
2 1 19 73.13 1.72
3 1 19 28.83 0.69
4 1 19 69.44 1.61
5 1 19 179.33 4.09
6 1 19 21.22 0.55
7 1 19 5.93 0.19
8 1 19 17.4 0.53
9 1 19 13.79 0.43
9 2 -19 0.31 0.13
8 2 -19 7.17 0.27
7 2 -19 4.45 0.18
6 2 -19 18 0.54
5 2 -19 88.35 2.12
4 2 -19 0.16 0.06
3 2 -19 25.09 0.61
2 2 -19 24.48 0.61
1 2 -19 16.87 0.43
0 2 19 1.91 0.09
1 2 19 0.05 0.05
2 2 19 118.59 2.72
3 2 19 4.18 0.14
4 2 19 26.38 0.64
5 2 19 19.72 0.5
6 2 19 0.07 0.07
7 2 19 1.91 0.11
8 2 19 83.24 2.41
9 2 19 18.72 0.57
9 3 -19 1.57 0.16
8 3 -19 4.41 0.23
7 3 -19 0.07 0.09
6 3 -19 2 0.12
5 3 -19 2.19 0.11
4 3 -19 0.01 0.05
3 3 -19 20.3 0.53
2 3 -19 65 1.51
1 3 -19 0.44 0.07
0 3 19 118.41 2.72
1 3 19 0.57 0.07
2 3 19 29.18 0.72
3 3 19 3.42 0.13
4 3 19 1.35 0.09
5 3 19 3.37 0.13
6 3 19 3.38 0.13
7 3 19 14.91 0.5
8 3 19 0.84 0.1
9 3 19 21.12 0.65
9 4 -19 1.67 0.32
8 4 -19 17.11 0.64
7 4 -19 5.58 0.24
6 4 -19 10.94 0.35
5 4 -19 2.84 0.13
4 4 -19 6.59 0.21
3 4 -19 9.8 0.28
2 4 -19 6.57 0.21
1 4 -19 28.79 0.7
0 4 19 17.75 0.46
1 4 19 62.9 1.46
2 4 19 8.39 0.24
3 4 19 8.88 0.25
4 4 19 0.37 0.08
5 4 19 2.17 0.11
6 4 19 17.25 0.57
7 4 19 35.38 1.08
8 4 19 4.61 0.19
8 5 -19 24.01 0.89
7 5 -19 97.16 3.93
6 5 -19 6.22 0.26
5 5 -19 38.77 1.05
4 5 -19 4.73 0.17
3 5 -19 126.43 2.97
2 5 -19 1.55 0.1
1 5 -19 14.86 0.41
0 5 19 33.59 0.81
1 5 19 57.28 1.38
2 5 19 4.15 0.15
3 5 19 16.67 0.44
4 5 19 17.22 0.44
5 5 19 0.5 0.08
6 5 19 3.46 0.15
7 5 19 3.62 0.16
8 5 19 8.77 0.32
7 6 -19 0.06 0.13
6 6 -19 0.57 0.13
5 6 -19 15.15 0.51
4 6 -19 5.77 0.23
3 6 -19 5.33 0.2
2 6 -19 32.29 0.81
1 6 -19 11.09 0.33
0 6 19 2.82 0.13
1 6 19 1.49 0.1
2 6 19 5.97 0.2
3 6 19 14.48 0.43
4 6 19 6.34 0.22
5 6 19 0.38 0.09
6 6 19 3.93 0.17
7 6 19 9.31 0.34
6 7 -19 1.63 0.18
5 7 -19 32.33 1.35
4 7 -19 0.99 0.12
3 7 -19 19.11 0.66
2 7 -19 29.47 0.95
1 7 -19 4 0.18
0 7 19 0.69 0.1
1 7 19 4.72 0.18
2 7 19 0.59 0.09
3 7 19 0.53 0.1
4 7 19 0.65 0.1
5 7 19 1.96 0.13
6 7 19 22.38 0.75
4 8 -19 0.08 0.13
3 8 -19 0.42 0.12
2 8 -19 4.71 0.2
1 8 -19 11.38 0.38
0 8 19 0.76 0.11
1 8 19 47.7 1.47
2 8 19 2.3 0.14
3 8 19 9.65 0.34
4 8 19 5.93 0.25
5 8 19 5.59 0.51
3 9 -19 4.94 0.71
2 9 -19 15.55 0.57
1 9 -19 27.43 0.91
0 9 19 3.22 0.19
1 9 19 7.6 0.32
2 9 19 10.92 0.46
9 0 -20 0.06 0.23
8 0 -20 15.43 0.7
7 0 -20 0.06 0.13
6 0 -20 0.91 0.13
5 0 -20 0.07 0.11
4 0 -20 2.97 0.17
3 0 -20 0.05 0.08
2 0 -20 0.58 0.11
1 0 -20 -0.04 0.08
0 0 20 1.48 0.12
1 0 20 0.02 0.07
2 0 20 193.03 6.21
3 0 20 0 0.08
4 0 20 114.49 3.7
5 0 20 0 0.1
6 0 20 12.74 0.49
7 0 20 0.05 0.12
8 0 20 133.98 5.46
9 0 20 2.41 0.47
9 1 -20 10.39 0.48
8 1 -20 19.29 0.63
7 1 -20 11.58 0.41
6 1 -20 33.56 0.88
5 1 -20 2.89 0.13
4 1 -20 5.7 0.21
3 1 -20 1.73 0.09
2 1 -20 342.87 7.84
1 1 -20 66.48 1.59
0 1 20 51.81 1.24
1 1 20 0.06 0.05
2 1 20 64.49 1.5
3 1 20 16.93 0.43
4 1 20 34.1 0.79
5 1 20 18.23 0.47
6 1 20 3.82 0.15
7 1 20 6.71 0.24
8 1 20 22 0.74
9 1 20 9.22 0.53
9 2 -20 18.12 1.11
8 2 -20 8.64 0.35
7 2 -20 0.39 0.1
6 2 -20 0.89 0.1
5 2 -20 34.38 0.9
4 2 -20 5.35 0.18
3 2 -20 16.42 0.42
2 2 -20 0.22 0.06
1 2 -20 6.94 0.22
0 2 20 34.65 0.83
1 2 20 27.75 0.69
2 2 20 1.24 0.08
3 2 20 43.8 1.03
4 2 20 3.29 0.13
5 2 20 2.32 0.11
6 2 20 9.77 0.31
7 2 20 5.24 0.19
8 2 20 10.09 0.33
8 3 -20 16.3 0.58
7 3 -20 3.33 0.17
6 3 -20 29.51 0.99
5 3 -20 8.53 0.27
4 3 -20 11.69 0.33
3 3 -20 46.8 1.14
2 3 -20 2.86 0.12
1 3 -20 11.89 0.33
0 3 20 5.14 0.16
1 3 20 30.52 0.74
2 3 20 11 0.3
3 3 20 13.81 0.36
4 3 20 2.54 0.12
5 3 20 17.42 0.45
6 3 20 2.89 0.14
7 3 20 17.95 0.68
8 3 20 9.67 0.33
8 4 -20 45.42 1.75
7 4 -20 1.86 0.14
6 4 -20 0.04 0.09
5 4 -20 107.79 3.23
4 4 -20 8.56 0.26
3 4 -20 11.69 0.34
2 4 -20 34.29 0.86
1 4 -20 16.9 0.44
0 4 20 4.48 0.16
1 4 20 15.43 0.4
2 4 20 6.24 0.22
3 4 20 16.41 0.42
4 4 20 4.09 0.15
5 4 20 15.34 0.47
6 4 20 0.43 0.1
7 4 20 0.21 0.1
8 4 20 8.86 1.65
7 5 -20 0.26 0.12
6 5 -20 8.32 0.33
5 5 -20 11.04 0.38
4 5 -20 0.14 0.08
3 5 -20 13.19 0.38
2 5 -20 7.79 0.25
1 5 -20 24.58 0.63
0 5 20 86.09 2
1 5 20 0.15 0.07
2 5 20 1.3 0.09
3 5 20 3 0.13
4 5 20 67.62 2.02
5 5 20 0.12 0.09
6 5 20 29 0.86
7 5 20 0.31 0.12
6 6 -20 2.05 0.16
5 6 -20 0.03 0.11
4 6 -20 0.53 0.1
3 6 -20 2.73 0.14
2 6 -20 17.59 0.56
1 6 -20 31.51 0.93
0 6 20 0.79 0.1
1 6 20 31.92 1
2 6 20 6.47 0.23
3 6 20 5.95 0.23
4 6 20 1.51 0.11
5 6 20 11.87 0.38
6 6 20 2.63 0.15
5 7 -20 25.73 0.96
4 7 -20 6.35 0.26
3 7 -20 7.37 0.29
2 7 -20 2.83 0.15
1 7 -20 28.63 0.89
0 7 20 18.93 0.63
1 7 20 25.25 0.79
2 7 20 18.2 0.58
3 7 20 9.03 0.35
4 7 20 34.7 1.02
5 7 20 0.52 0.16
3 8 -20 0.37 0.15
2 8 -20 0.37 0.13
1 8 -20 1.62 0.14
0 8 20 5.67 0.25
1 8 20 0.04 0.13
2 8 20 19.1 0.68
3 8 20 0.43 0.15
8 0 -21 0 0.22
7 0 -21 0.12 0.16
6 0 -21 0.01 0.13
5 0 -21 0.47 0.13
4 0 -21 -0.02 0.09
3 0 -21 2.8 0.17
2 0 -21 0.03 0.08
1 0 -21 3.86 0.2
0 0 21 0.03 0.09
1 0 21 33.64 1.14
2 0 21 0.01 0.09
3 0 21 58.81 1.93
4 0 21 0.04 0.1
5 0 21 5.01 0.26
6 0 21 0.05 0.11
7 0 21 2.78 0.2
8 0 21 0.35 0.24
8 1 -21 0.87 0.15
7 1 -21 4.63 0.21
6 1 -21 0.06 0.09
5 1 -21 8.82 0.29
4 1 -21 17.17 0.48
3 1 -21 3.03 0.13
2 1 -21 67.5 1.56
1 1 -21 0.36 0.07
0 1 21 0.57 0.08
1 1 21 27.96 0.68
2 1 21 25.12 0.61
3 1 21 4.94 0.17
4 1 21 7.82 0.23
5 1 21 15.76 0.46
6 1 21 4.95 0.19
7 1 21 37.76 1.1
8 1 21 1.3 0.24
8 2 -21 53.82 2.12
7 2 -21 2.36 0.16
6 2 -21 12.62 0.46
5 2 -21 9.57 0.32
4 2 -21 29.68 0.77
3 2 -21 75.86 1.76
2 2 -21 1.81 0.1
1 2 -21 1.82 0.1
0 2 21 10.63 0.29
1 2 21 21.01 0.57
2 2 21 53.05 1.23
3 2 21 1.65 0.1
4 2 21 11.13 0.31
5 2 21 0.57 0.09
6 2 21 22.8 0.68
7 2 21 0.14 0.1
7 3 -21 27.42 0.94
6 3 -21 0.1 0.1
5 3 -21 1.8 0.12
4 3 -21 3.15 0.14
3 3 -21 14.26 0.4
2 3 -21 74.27 1.73
1 3 -21 151.6 3.57
0 3 21 42.4 1
1 3 21 8.82 0.26
2 3 21 1.33 0.09
3 3 21 16.68 0.43
4 3 21 26.39 0.78
5 3 21 30.38 0.89
6 3 21 14.96 0.46
7 3 21 1.59 0.12
7 4 -21 37.96 1.35
6 4 -21 11.59 0.45
5 4 -21 19.43 0.61
4 4 -21 0.08 0.09
3 4 -21 15.17 0.48
2 4 -21 15.73 0.44
1 4 -21 21.45 0.55
0 4 21 6.22 0.2
1 4 21 17.19 0.45
2 4 21 27.76 0.68
3 4 21 21.08 0.62
4 4 21 12.15 0.38
5 4 21 0.09 0.09
6 4 21 0.53 0.09
7 4 21 12.84 0.84
6 5 -21 6.54 0.28
5 5 -21 21.78 0.75
4 5 -21 12.88 0.42
3 5 -21 0.17 0.09
2 5 -21 6.35 0.23
1 5 -21 87.51 2.64
0 5 21 0.61 0.09
1 5 21 25.02 0.82
2 5 21 0.32 0.09
3 5 21 52.86 1.52
4 5 21 16.64 0.5
5 5 21 6.25 0.23
6 5 21 1.28 0.16
5 6 -21 8.12 0.39
4 6 -21 3.24 0.18
3 6 -21 0.51 0.12
2 6 -21 1.91 0.12
1 6 -21 7.31 0.26
0 6 21 2.22 0.13
1 6 21 6.78 0.25
2 6 21 32.96 0.98
3 6 21 33.12 1.02
4 6 21 9.89 0.32
5 6 21 4.73 0.48
3 7 -21 10.87 0.42
2 7 -21 0.34 0.12
1 7 -21 18.7 0.66
0 7 21 16.81 0.6
1 7 21 11.04 0.38
2 7 21 3.19 0.17
3 7 21 63.3 1.96
7 0 -22 -0.01 0.21
6 0 -22 33.35 1.54
5 0 -22 0.13 0.14
4 0 -22 90.46 3.8
3 0 -22 0.04 0.11
2 0 -22 0.51 0.12
1 0 -22 0.01 0.09
0 0 22 72.16 2.35
1 0 22 0.07 0.1
2 0 22 32.47 1.1
3 0 22 0.04 0.1
4 0 22 -0.02 0.1
5 0 22 0.04 0.12
6 0 22 61.71 2.52
7 0 22 0.95 0.3
7 1 -22 31.08 1.15
6 1 -22 34.79 1.14
5 1 -22 0.83 0.11
4 1 -22 19.18 0.65
3 1 -22 27.62 0.82
2 1 -22 2.71 0.12
1 1 -22 47.25 1.14
0 1 22 0.21 0.09
1 1 22 0.43 0.08
2 1 22 0.49 0.08
3 1 22 6.42 0.21
4 1 22 40.6 1.18
5 1 22 1.56 0.11
6 1 22 1.91 0.12
7 1 22 5.77 0.58
7 2 -22 20.36 1.11
6 2 -22 5.32 0.24
5 2 -22 8.3 0.3
4 2 -22 1.84 0.12
3 2 -22 5.33 0.19
2 2 -22 16.97 0.45
1 2 -22 0.23 0.07
0 2 22 0.66 0.09
1 2 22 7.31 0.22
2 2 22 46.67 1.35
3 2 22 25.02 0.74
4 2 22 42.9 1.25
5 2 22 7.52 0.25
6 2 22 1.63 0.12
6 3 -22 4.74 0.23
5 3 -22 26.6 0.91
4 3 -22 16.97 0.54
3 3 -22 24.54 0.76
2 3 -22 53.58 1.57
1 3 -22 37.84 1.11
0 3 22 0.15 0.08
1 3 22 24.85 0.73
2 3 22 14.29 0.43
3 3 22 19.92 0.59
4 3 22 56.62 1.64
5 3 22 14.33 0.44
6 3 22 10.22 0.34
6 4 -22 4.43 0.83
5 4 -22 0.93 0.13
4 4 -22 10.82 0.36
3 4 -22 34.88 1.07
2 4 -22 1.37 0.11
1 4 -22 8.48 0.28
0 4 22 3.83 0.16
1 4 22 9.4 0.32
2 4 22 63.36 1.82
3 4 22 3.98 0.16
4 4 22 0.4 0.1
5 4 22 3.16 0.16
5 5 -22 4.35 0.85
4 5 -22 12.39 0.45
3 5 -22 6.27 0.26
2 5 -22 10.17 0.35
1 5 -22 1.18 0.11
0 5 22 13.78 0.46
1 5 22 22.66 0.69
2 5 22 0.02 0.09
3 5 22 16.01 0.49
4 5 22 2.83 0.15
3 6 -22 2.15 0.28
2 6 -22 1.52 0.15
1 6 -22 6.64 0.28
0 6 22 1.46 0.12
1 6 22 4.39 0.19
2 6 22 10.96 0.38
3 6 22 4.81 0.36
6 0 -23 2.74 0.6
5 0 -23 31.06 1.44
4 0 -23 0.03 0.13
3 0 -23 76.94 3.46
2 0 -23 0.06 0.11
1 0 -23 0.3 0.12
0 0 23 0.03 0.11
1 0 23 3.55 0.21
2 0 23 -0.01 0.12
3 0 23 6.35 0.31
4 0 23 0.01 0.12
5 0 23 1.43 0.15
6 1 -23 11.89 0.77
5 1 -23 7.86 0.31
4 1 -23 25.98 0.81
3 1 -23 59.83 1.74
2 1 -23 0.05 0.08
1 1 -23 102.51 3.05
0 1 23 1.58 0.1
1 1 23 0.06 0.08
2 1 23 1.14 0.1
3 1 23 15.86 0.48
4 1 23 2.2 0.12
5 1 23 0.5 0.1
5 2 -23 0.02 0.12
4 2 -23 46.67 1.42
3 2 -23 0.04 0.09
2 2 -23 10.16 0.33
1 2 -23 21.34 0.66
0 2 23 16.58 0.52
1 2 23 0.05 0.08
2 2 23 56.52 1.77
3 2 23 0.01 0.09
4 2 23 0.49 0.1
5 2 23 0.06 0.1
5 3 -23 1.41 0.3
4 3 -23 28.98 0.99
3 3 -23 0.07 0.1
2 3 -23 32.29 1.01
1 3 -23 5.33 0.2
0 3 23 0.11 0.09
1 3 23 4.89 0.18
2 3 23 2.76 0.13
3 3 23 26.25 0.77
4 3 23 12.98 0.41
5 3 23 3.56 1.32
4 4 -23 0.75 0.27
3 4 -23 0.13 0.11
2 4 -23 1.26 0.12
1 4 -23 3.38 0.17
0 4 23 1.86 0.12
1 4 23 1.5 0.11
2 4 23 1.06 0.11
3 4 23 3.93 0.17
4 4 23 74.32 3.67
3 5 -23 3.66 0.84
2 5 -23 26.02 1.35
1 5 -23 5.29 0.22
0 5 23 17.08 0.56
1 5 23 1.95 0.13
2 5 23 8.36 0.42
4 0 -24 27.98 1.64
3 0 -24 0.01 0.13
2 0 -24 28.95 1.19
1 0 -24 0.06 0.13
0 0 24 7.18 0.34
1 0 24 0.09 0.12
2 0 24 97.39 4.27
3 0 24 0.12 0.13
4 1 -24 30.59 1.14
3 1 -24 9.58 0.33
2 1 -24 4.49 0.18
1 1 -24 2.23 0.12
0 1 24 0.39 0.09
1 1 24 6.96 0.25
2 1 24 0.95 0.1
3 1 24 9.98 0.32
3 2 -24 51.89 1.59
2 2 -24 0.48 0.1
1 2 -24 2.85 0.14
0 2 24 17.21 0.52
1 2 24 6.52 0.23
2 2 24 0.96 0.11
3 2 24 0.09 0.12
3 3 -24 1.86 0.66
2 3 -24 0.22 0.11
1 3 -24 0.18 0.1
0 3 24 1.6 0.12
1 3 24 19.88 0.59
2 3 24 15.2 0.7
1 4 -24 7.42 0.83
0 4 24 3.09 0.52
