#------------------------------------------------------------------------------
#$Date: 2020-04-10 08:22:51 +0300 (Fri, 10 Apr 2020) $
#$Revision: 250630 $
#$URL: file:///home/coder/svn-repositories/cod/cif/2/02/20/2022051.cif $
#------------------------------------------------------------------------------
#
# This file is available in the Crystallography Open Database (COD),
# http://www.crystallography.net/. The original data for this entry
# were provided by IUCr Journals, http://journals.iucr.org/.
#
# The file may be used within the scientific community so long as
# proper attribution is given to the journal article from which the
# data were obtained.
#
data_2022051
loop_
_publ_author_name
'Jha, Kunal Kumar'
'Gruza, Barbara'
'Kumar, Prashant'
'Chodkiewicz, Michal Leszek'
'Dominiak, Paulina Maria'
_publ_section_title
;
 TAAM: a reliable and user friendly tool for hydrogen-atom location using
 routine X-ray diffraction data
;
_journal_issue                   3
_journal_name_full
'Acta Crystallographica Section B Structural Science, Crystal Engineering and Materials'
_journal_paper_doi               10.1107/S2052520620002917
_journal_volume                  76
_journal_year                    2020
_chemical_absolute_configuration unk
_chemical_formula_moiety         'C5 H10 N2 O3'
_chemical_formula_sum            'C5 H10 N2 O3'
_chemical_formula_weight         146.15
_space_group_crystal_system      orthorhombic
_space_group_IT_number           19
_space_group_name_Hall           'P 2ac 2ab'
_space_group_name_H-M_alt        'P 21 21 21'
_symmetry_Int_Tables_number      19
_audit_creation_date             2019-09-26
_audit_creation_method
;
Olex2 1.2
(compiled 2018.05.29 svn.r3508 for OlexSys, GUI svn.r5506)
;
_cell_angle_alpha                90
_cell_angle_beta                 90
_cell_angle_gamma                90
_cell_formula_units_Z            4
_cell_length_a                   7.4871(16)
_cell_length_b                   9.4966(19)
_cell_length_c                   9.7078(19)
_cell_measurement_temperature    12(2)
_cell_volume                     690.2(2)
_computing_molecular_graphics    'Olex2 (Dolomanov et al., 2009)'
_computing_publication_material  'Olex2 (Dolomanov et al., 2009)'
_computing_structure_refinement  'olex2.refine (Bourhis et al., 2015)'
_diffrn_ambient_temperature      12(2)
_diffrn_measured_fraction_theta_full 0.9839
_diffrn_measured_fraction_theta_max 0.9839
_diffrn_measurement_device_type  'Bruker Smart CCD'
_diffrn_radiation_type           synchrotron
_diffrn_radiation_wavelength     0.52590
_diffrn_reflns_av_R_equivalents  0.0253
_diffrn_reflns_av_unetI/netI     0.0260
_diffrn_reflns_limit_h_max       10
_diffrn_reflns_limit_h_min       -11
_diffrn_reflns_limit_k_max       13
_diffrn_reflns_limit_k_min       -14
_diffrn_reflns_limit_l_max       14
_diffrn_reflns_limit_l_min       -14
_diffrn_reflns_number            8493
_diffrn_reflns_theta_full        26.4619
_diffrn_reflns_theta_max         26.46
_diffrn_reflns_theta_min         3.47
_exptl_absorpt_coefficient_mu    0.116
_exptl_crystal_density_diffrn    1.4062
_exptl_crystal_F_000             312.1923
_refine_diff_density_max         0.1297
_refine_diff_density_min         -0.1509
_refine_diff_density_rms         0.0532
_refine_ls_abs_structure_details
'Flack, H. D. (1983). Acta Cryst. A39, 876-881.'
_refine_ls_abs_structure_Flack   0.3(3)
_refine_ls_d_res_high            0.7975
_refine_ls_d_res_low             5.8796
_refine_ls_goodness_of_fit_ref   1.1373
_refine_ls_hydrogen_treatment    refall
_refine_ls_matrix_type           full
_refine_ls_number_constraints    0
_refine_ls_number_parameters     131
_refine_ls_number_reflns         1405
_refine_ls_number_restraints     0
_refine_ls_restrained_S_all      1.1373
_refine_ls_R_factor_all          0.0138
_refine_ls_R_factor_gt           0.0135
_refine_ls_shift/su_max          0.0002
_refine_ls_shift/su_mean         0.0000
_refine_ls_structure_factor_coef Fsqd
_refine_ls_weighting_details
'w=1/[\s^2^(Fo^2^)+(0.0147P)^2^] where P=(Fo^2^+2Fc^2^)/3'
_refine_ls_weighting_scheme      calc
_refine_ls_wR_factor_gt          0.0299
_refine_ls_wR_factor_ref         0.0300
_reflns_Friedel_coverage         0.988
_reflns_limit_h_max              9
_reflns_limit_h_min              -9
_reflns_limit_k_max              11
_reflns_limit_k_min              -11
_reflns_limit_l_max              12
_reflns_limit_l_min              -12
_reflns_number_gt                1377
_reflns_number_total             1405
_reflns_threshold_expression     I>=2u(I)
_iucr_refine_instructions_details
;
TITL GLYALB
CELL 0.71073 7.4871 9.4966 9.7078 90 90 90
ZERR 4 0.0016 0.0019 0.0019 0 0 0
LATT -1
SYMM 0.5-X,-Y,0.5+Z
SYMM -X,0.5+Y,0.5-Z
SYMM 0.5+X,0.5-Y,-Z
SFAC C H N O
UNIT 20 40 8 12

ACTA 
BOND $H
OMIT -10 53
WGHT 0.014708 0
FVAR 1.776106
REM <olex2.extras>
REM <HklSrc "%.\\a79f2608901e4a335b06b0e759c68498.hkl">
REM </olex2.extras>

O1    4    -0.26784 -0.96262 -0.77795  11.00000  0.00764  0.00431  0.00266 =
 -0.00120  0.00164 -0.00268 
O2    4    -0.43043 -1.12556 -0.88344  11.00000  0.00565  0.00561  0.00181 =
 -0.00149  0.00011 -0.00168 
O3    4    -0.70861 -0.94888 -0.60023  11.00000  0.00558  0.00468  0.00376 =
 -0.00124 -0.00144  0.00144 
N1    3    -0.44246 -1.03637 -0.52573  11.00000  0.00487  0.00305  0.00110 =
 -0.00024  0.00012  0.00079 
H1    2    -0.35896 -1.03991 -0.45039  11.00000  0.01310 
N2    3    -0.73431 -0.75559 -0.40101  11.00000  0.00451  0.00271  0.00355 =
 -0.00022  0.00046  0.00129 
H2a   2    -0.73411 -0.67893 -0.32639  11.00000  0.02326 
H2b   2    -0.70190 -0.70185 -0.48798  11.00000  0.02020 
H2c   2    -0.85954 -0.79868 -0.40834  11.00000  0.02054 
C1    1    -0.37324 -1.06536 -0.77663  11.00000  0.00333  0.00195  0.00226 =
 -0.00117 -0.00072  0.00066 
C2    1    -0.42599 -1.13480 -0.63942  11.00000  0.00491  0.00209  0.00181 =
 -0.00011 -0.00014  0.00056 
H2    2    -0.55364 -1.18571 -0.65454  11.00000  0.01382 
C3    1    -0.28342 -1.24504 -0.60452  11.00000  0.01131  0.00532  0.00522 =
 0.00042 -0.00031  0.00494 
H3a   2    -0.32071 -1.30454 -0.51308  11.00000  0.02904 
H3b   2    -0.26891 -1.31430 -0.68960  11.00000  0.02546 
H3c   2    -0.15494 -1.19459 -0.58671  11.00000  0.02568 
C4    1    -0.58868 -0.95484 -0.51395  11.00000  0.00429  0.00248  0.00126 =
 0.00005  0.00010  0.00019 
C5    1    -0.59815 -0.86696 -0.38220  11.00000  0.00577  0.00387  0.00215 =
 -0.00114 -0.00032  0.00078 
H5a   2    -0.47041 -0.81633 -0.35961  11.00000  0.02034 
H5b   2    -0.63632 -0.93335 -0.29471  11.00000  0.02777 
HKLF 4

END
Q1 1 -0.5 -1 -0.125 11 0.05 0.13
Q2 1 -0.208333 -1.233333 -0.75 11 0.05 0.13
Q3 1 -0.916667 -0.733333 -0.5 11 0.05 0.13
Q4 1 -0.041667 -1.233333 -0.5 11 0.05 0.12
Q5 1 -0.541667 -1 -0.875 11 0.05 0.12
Q6 1 -0.791667 -0.766667 -0.25 11 0.05 0.12
Q7 1 -0.083333 -1.366667 -0.78125 11 0.05 0.11
Q8 1 -0.916667 -0.866667 -0.46875 11 0.05 0.11
Q9 1 -0.166667 -1.3 -0.46875 11 0.05 0.11
Q10 1 -0.625 -1.133333 -0.71875 11 0.05 0.11
Q11 1 -0.875 -0.933333 -0.625 11 0.05 0.11
Q12 1 -0.5 -1.033333 -0.375 11 0.05 0.1
Q13 1 -0.333333 -0.9 -0.375 11 0.05 0.1
Q14 1 -0.375 -0.866667 -0.90625 11 0.05 0.1
Q15 1 -0.666667 -1.1 -0.625 11 0.05 0.09
Q16 1 -0.125 -1.133333 -0.65625 11 0.05 0.09
Q17 1 -0.291667 -1 -0.625 11 0.05 0.09
Q18 1 -0.5 -1 -0.65625 11 0.05 0.09
Q19 1 -0.166667 -1.4 -0.59375 11 0.05 0.08
Q20 1 -0.291667 -1 -0.875 11 0.05 0.08

  REM The information below was added by Olex2.
  REM
  REM R1 = 0.0135 for 1377 Fo > 4sig(Fo) and 0.0138 for all 1405 data
  REM 131 parameters refined using 0 restraints
  REM Highest difference peak 0.1297, deepest hole -0.1509
  REM Mean Shift 0.0000, Max Shift 0.0002.

  REM +++ Tabular Listing of Refinement Information +++
  REM R1_all = 0.0138
  REM R1_gt = 0.0135
  REM wR_ref = 0.0300
  REM GOOF = 1.1373
  REM Shift_max = 0.0002
  REM Shift_mean = 0.0000
  REM Reflections_all = 1405
  REM Reflections_gt = 1377
  REM Parameters = 131
  REM Hole = -0.1509
  REM Peak = 0.1297
  REM Flack = 0.3(3)

  
;
_cod_data_source_file            23_TAAM_iso_0.8.cif
_cod_data_source_block           23_TAAM_iso_8
_cod_original_sg_symbol_Hall     ' P 2ac 2ab'
_cod_database_code               2022051
_olex2_refinement_description
;
;
_iucr_refine_fcf_details
;
data_GLYALB
_computing_structure_refinement   'olex2.refine (Bourhis et al., 2015)'
_shelx_refln_list_code            4
loop_
  _space_group_symop_id
  _space_group_symop_operation_xyz
  1  x,y,z
  2  x+1/2,-y+1/2,-z
  3  -x,y+1/2,-z+1/2
  4  -x+1/2,-y,z+1/2

_space_group_crystal_system       orthorhombic
_space_group_IT_number            19
_space_group_name_H-M_alt         'P 21 21 21'
_space_group_name_Hall            ' P 2ac 2ab'
_symmetry_space_group_name_H-M    'P 21 21 21'
_symmetry_space_group_name_Hall   ' P 2ac 2ab'
_symmetry_Int_Tables_number       19
_cell_length_a                    7.4871(16)
_cell_length_b                    9.4966(19)
_cell_length_c                    9.7078(19)
_cell_angle_alpha                 90
_cell_angle_beta                  90
_cell_angle_gamma                 90
_cell_volume                      690.2(2)
loop_
  _refln_index_h
  _refln_index_k
  _refln_index_l
  _refln_F_squared_calc
  _refln_F_squared_meas
  _refln_F_squared_sigma
  _refln_F_squared_weight
  _refln_observed_status
-9 -3 -1 32.529 32.489 1.069 94.910 o
-9 -2 -2 21.880 22.607 0.963 126.052 o
-9 -2 -1 130.812 125.378 2.394 13.951 o
-9 -1 -3 98.184 95.295 2.029 21.132 o
-9 -1 -2 118.047 123.570 3.895 7.123 o
-9 -1 -1 41.735 41.715 1.139 77.773 o
-8 -6 -1 57.605 53.860 1.659 37.850 o
-8 -5 -3 32.888 32.435 1.259 71.650 o
-8 -5 -2 173.801 172.570 2.768 9.191 o
-8 -5 -1 32.941 34.029 0.859 133.054 o
-8 -4 -4 163.206 157.140 3.373 7.658 o
-8 -4 -3 14.956 14.590 1.547 53.347 o
-8 -4 -2 92.372 92.580 1.796 25.654 o
-8 -4 -1 18.075 16.942 0.677 247.650 o
-8 -3 -5 198.988 200.493 4.100 5.121 o
-8 -3 -4 14.797 13.807 0.785 196.635 o
-8 -3 -3 227.118 225.582 4.642 3.986 o
-8 -3 -2 60.755 59.673 1.272 54.102 o
-8 -3 -1 49.626 48.642 1.124 72.730 o
-8 -2 -6 37.680 37.316 1.112 84.489 o
-8 -2 -5 53.088 51.661 1.257 59.751 o
-8 -2 -4 34.661 33.622 1.418 57.470 o
-8 -2 -3 63.731 63.520 1.348 48.318 o
-8 -2 -2 252.043 253.247 4.383 3.945 o
-8 -2 -1 132.764 133.248 3.110 9.648 o
-8 -1 -6 182.552 186.466 3.308 7.131 o
-8 -1 -5 24.279 24.942 0.889 141.362 o
-8 -1 -4 304.463 315.036 6.312 2.157 o
-8 -1 -3 40.108 40.529 1.020 93.602 o
-8 -1 -2 103.893 106.915 1.988 20.555 o
-8 -1 -1 53.354 54.408 1.185 64.210 o
-7 -7 -3 60.679 59.926 1.294 52.841 o
-7 -7 -2 88.309 90.654 2.455 16.807 o
-7 -7 -1 31.632 30.126 1.054 98.522 o
-7 -6 -5 58.777 59.582 1.883 30.286 o
-7 -6 -4 98.486 98.187 2.763 13.380 o
-7 -6 -3 41.445 40.563 0.988 96.934 o
-7 -6 -2 51.968 50.918 1.138 69.533 o
-7 -6 -1 19.337 18.582 0.873 154.823 o
-7 -5 -6 76.267 75.008 1.530 36.308 o
-7 -5 -5 30.129 29.718 0.997 109.584 o
-7 -5 -4 16.174 16.378 0.798 187.767 o
-7 -5 -3 18.843 18.274 0.795 183.934 o
-7 -5 -2 22.422 21.587 0.731 203.416 o
-7 -5 -1 21.333 20.530 0.629 264.593 o
-7 -4 -7 27.392 27.845 0.949 122.283 o
-7 -4 -6 54.062 52.491 1.199 63.278 o
-7 -4 -5 159.173 153.533 3.242 8.208 o
-7 -4 -4 5.997 6.589 0.672 283.090 o
-7 -4 -3 30.828 31.420 0.843 141.777 o
-7 -4 -2 53.081 53.666 1.139 68.078 o
-7 -4 -1 10.853 10.721 0.514 449.376 o
-7 -3 -7 2.741 2.047 0.707 259.870 o
-7 -3 -6 378.589 381.566 6.521 1.767 o
-7 -3 -5 4.973 3.753 0.674 284.005 o
-7 -3 -4 241.654 238.922 4.194 4.321 o
-7 -3 -3 70.064 69.397 2.059 24.589 o
-7 -3 -2 286.410 294.001 5.796 2.520 o
-7 -3 -1 102.177 104.278 2.192 18.347 o
-7 -2 -7 27.663 25.900 0.927 127.790 o
-7 -2 -6 105.157 105.396 4.200 6.497 o
-7 -2 -5 70.870 70.618 1.439 41.286 o
-7 -2 -4 152.838 150.051 2.686 10.664 o
-7 -2 -3 70.315 73.144 2.154 22.692 o
-7 -2 -2 103.365 104.093 1.903 21.905 o
-7 -2 -1 69.840 71.341 1.381 43.720 o
-7 -1 -8 32.687 33.166 1.034 99.886 o
-7 -1 -7 98.007 96.882 1.895 23.035 o
-7 -1 -6 88.861 89.464 1.547 31.680 o
-7 -1 -5 3.734 4.576 0.594 365.424 o
-7 -1 -4 7.524 7.931 0.592 358.788 o
-7 -1 -3 132.162 135.123 2.533 12.702 o
-7 -1 -2 393.961 395.572 6.814 1.625 o
-7 -1 -1 277.680 284.679 4.829 3.232 o
-6 -9 -1 83.584 83.074 2.889 13.217 o
-6 -8 -4 564.434 557.040 9.684 0.803 o
-6 -8 -3 48.988 48.867 1.314 57.994 o
-6 -8 -2 59.206 56.410 2.585 17.557 o
-6 -8 -1 24.030 23.612 0.915 135.534 o
-6 -7 -6 48.688 50.005 1.158 69.836 o
-6 -7 -5 35.800 36.053 1.621 44.781 o
-6 -7 -4 25.736 25.574 0.928 129.591 o
-6 -7 -3 59.664 57.155 1.751 34.135 o
-6 -7 -2 89.133 87.288 2.179 20.204 o
-6 -7 -1 111.690 115.361 2.387 15.393 o
-6 -6 -7 120.109 119.944 2.907 11.252 o
-6 -6 -6 81.754 80.311 1.604 32.531 o
-6 -6 -5 73.446 73.115 1.443 40.109 o
-6 -6 -4 15.486 15.466 0.626 293.405 o
-6 -6 -3 27.168 27.561 0.733 186.208 o
-6 -6 -2 129.383 128.198 3.280 9.066 o
-6 -6 -1 339.717 328.849 12.512 0.719 o
-6 -5 -7 52.876 52.372 1.182 65.155 o
-6 -5 -6 59.540 58.555 1.249 56.158 o
-6 -5 -5 35.139 34.847 1.074 91.694 o
-6 -5 -4 323.726 320.312 5.434 2.502 o
-6 -5 -3 51.733 53.094 1.228 62.075 o
-6 -5 -2 403.298 405.986 7.020 1.539 o
-6 -5 -1 18.061 17.324 0.617 289.662 o
-6 -4 -8 201.931 198.527 3.589 6.027 o
-6 -4 -7 27.681 26.907 0.952 121.849 o
-6 -4 -6 78.567 76.442 1.497 36.634 o
-6 -4 -5 5.441 5.112 0.516 477.677 o
-6 -4 -4 346.635 344.491 5.914 2.139 o
-6 -4 -3 49.940 51.760 1.186 66.443 o
-6 -4 -2 194.743 192.579 3.322 6.787 o
-6 -4 -1 59.201 58.167 1.022 72.536 o
-6 -3 -8 5.086 4.464 0.654 300.864 o
-6 -3 -7 157.951 156.227 2.794 9.891 o
-6 -3 -6 67.634 66.404 1.795 30.991 o
-6 -3 -5 51.880 52.034 1.085 73.924 o
-6 -3 -4 147.780 148.040 2.345 12.727 o
-6 -3 -3 46.742 46.866 0.966 92.592 o
-6 -3 -2 179.497 177.171 3.069 7.972 o
-6 -3 -1 6.800 6.522 0.423 689.581 o
-6 -2 -9 84.391 83.730 1.685 29.790 o
-6 -2 -8 45.455 45.049 1.074 81.440 o
-6 -2 -7 133.319 133.216 2.427 13.374 o
-6 -2 -6 88.899 89.285 1.697 28.336 o
-6 -2 -5 349.576 353.735 5.432 2.319 o
-6 -2 -4 412.762 411.531 6.938 1.533 o
-6 -2 -3 431.094 430.397 7.325 1.388 o
-6 -2 -2 111.360 114.067 2.363 15.665 o
-6 -2 -1 116.475 120.479 2.115 17.419 o
-6 -1 -9 185.244 183.267 3.265 7.221 o
-6 -1 -8 308.326 302.686 5.935 2.344 o
-6 -1 -7 153.836 146.546 3.770 6.791 o
-6 -1 -6 72.963 71.975 2.055 24.274 o
-6 -1 -5 142.324 141.669 2.257 13.757 o
-6 -1 -4 263.063 259.371 4.535 3.678 o
-6 -1 -3 5.887 6.021 0.507 491.316 o
-6 -1 -2 135.364 134.856 2.400 13.403 o
-6 -1 -1 128.393 129.831 2.252 15.022 o
-5 -10 -1 57.194 52.832 1.834 32.265 o
-5 -9 -4 45.413 45.722 1.096 78.979 o
-5 -9 -3 116.704 114.522 2.489 14.297 o
-5 -9 -2 1.176 1.026 0.959 141.425 o
-5 -9 -1 5.261 4.503 0.975 136.240 o
-5 -8 -6 64.618 65.790 1.580 38.165 o
-5 -8 -5 123.952 125.058 2.613 12.800 o
-5 -8 -4 30.978 30.175 0.867 136.276 o
-5 -8 -3 43.246 42.783 1.104 80.323 o
-5 -8 -2 65.645 68.214 1.540 39.100 o
-5 -8 -1 83.270 81.848 3.517 9.400 o
-5 -7 -7 78.088 77.423 1.572 34.403 o
-5 -7 -6 155.079 155.152 3.264 8.210 o
-5 -7 -5 98.384 99.724 2.123 19.661 o
-5 -7 -4 153.278 156.309 4.407 5.299 o
-5 -7 -3 243.068 247.463 4.247 4.203 o
-5 -7 -2 104.321 104.147 2.678 13.667 o
-5 -7 -1 119.267 115.970 2.407 14.770 o
-5 -6 -8 159.253 162.411 3.871 6.336 o
-5 -6 -7 48.637 49.022 1.391 53.183 o
-5 -6 -6 206.298 210.926 3.648 5.746 o
-5 -6 -5 50.161 49.224 1.225 63.903 o
-5 -6 -4 10.946 11.590 0.732 231.576 o
-5 -6 -3 61.880 63.797 2.301 21.200 o
-5 -6 -2 124.397 120.867 2.922 11.011 o
-5 -6 -1 265.296 257.648 6.256 2.408 o
-5 -5 -8 19.652 20.313 0.747 202.333 o
-5 -5 -7 247.114 247.414 4.257 4.154 o
-5 -5 -6 8.899 9.624 0.546 411.132 o
-5 -5 -5 45.504 45.320 0.973 93.457 o
-5 -5 -4 205.800 203.400 3.516 6.069 o
-5 -5 -3 56.824 58.190 1.107 67.239 o
-5 -5 -2 84.922 82.040 1.729 28.840 o
-5 -5 -1 344.672 344.245 6.847 1.794 o
-5 -4 -9 116.705 118.031 3.138 10.159 o
-5 -4 -8 24.491 26.749 0.801 166.872 o
-5 -4 -7 83.396 81.387 1.568 33.045 o
-5 -4 -6 284.508 285.347 4.911 3.125 o
-5 -4 -5 195.990 195.408 3.400 6.556 o
-5 -4 -4 226.402 227.143 3.896 4.951 o
-5 -4 -3 2.158 2.726 0.365 970.523 o
-5 -4 -2 279.412 278.357 4.733 3.317 o
-5 -4 -1 267.080 265.395 4.497 3.658 o
-5 -3 -9 20.284 19.264 1.200 85.290 o
-5 -3 -8 76.276 79.504 2.248 20.516 o
-5 -3 -7 2.598 2.388 0.505 508.583 o
-5 -3 -6 387.337 394.754 6.716 1.670 o
-5 -3 -5 213.286 212.422 3.662 5.606 o
-5 -3 -4 465.201 465.511 7.893 1.193 o
-5 -3 -3 818.492 803.234 12.246 0.444 o
-5 -3 -2 391.854 384.951 7.511 1.459 o
-5 -3 -1 7.199 7.000 0.346 995.365 o
-5 -2 -10 3.858 3.568 0.698 265.246 o
-5 -2 -9 67.155 64.845 1.366 46.177 o
-5 -2 -8 280.803 280.078 5.561 2.715 o
-5 -2 -7 74.942 76.391 1.464 38.575 o
-5 -2 -6 138.923 142.196 2.489 12.478 o
-5 -2 -5 152.383 157.601 2.715 10.408 o
-5 -2 -4 54.187 55.743 0.953 83.712 o
-5 -2 -3 22.532 21.367 0.484 383.049 o
-5 -2 -2 254.922 252.189 4.330 3.981 o
-5 -2 -1 65.033 64.507 1.177 56.704 o
-5 -1 -10 11.232 11.304 0.753 219.237 o
-5 -1 -9 66.312 66.902 1.489 41.021 o
-5 -1 -8 97.136 95.113 3.025 11.660 o
-5 -1 -7 97.957 98.940 1.805 24.352 o
-5 -1 -6 17.865 18.705 0.574 324.646 o
-5 -1 -5 355.175 356.778 5.459 2.277 o
-5 -1 -4 7.814 6.566 0.463 576.156 o
-5 -1 -3 146.143 151.008 3.584 7.409 o
-5 -1 -2 33.553 33.705 0.702 176.765 o
-5 -1 -1 19.189 19.236 0.475 426.131 o
-4 -10 -4 76.669 80.808 3.966 7.638 o
-4 -10 -3 21.013 20.021 0.972 125.551 o
-4 -10 -2 13.154 12.643 1.065 111.112 o
-4 -10 -1 21.000 21.470 1.172 88.575 o
-4 -9 -6 111.675 107.130 5.635 3.787 o
-4 -9 -5 17.710 16.785 0.931 139.764 o
-4 -9 -4 2.624 2.401 0.767 220.742 o
-4 -9 -3 12.092 12.388 0.798 194.598 o
-4 -9 -2 15.137 15.279 1.097 103.910 o
-4 -9 -1 17.261 17.288 0.993 123.892 o
-4 -8 -7 129.658 127.490 5.900 3.390 o
-4 -8 -6 57.920 59.286 1.425 47.042 o
-4 -8 -5 219.062 221.156 4.437 4.320 o
-4 -8 -4 69.063 67.666 1.714 32.911 o
-4 -8 -3 48.658 47.824 1.031 82.938 o
-4 -8 -2 1.234 0.409 0.622 336.057 o
-4 -8 -1 207.722 202.875 5.136 3.660 o
-4 -7 -8 19.860 19.494 0.863 157.155 o
-4 -7 -7 62.830 63.369 1.521 41.053 o
-4 -7 -6 76.331 74.713 1.700 31.492 o
-4 -7 -5 277.835 269.106 9.047 1.326 o
-4 -7 -4 434.466 439.813 8.713 1.112 o
-4 -7 -3 44.370 43.761 1.064 83.776 o
-4 -7 -2 75.917 77.769 2.140 22.260 o
-4 -7 -1 106.507 102.071 3.119 10.748 o
-4 -6 -9 57.420 57.067 1.255 56.941 o
-4 -6 -8 97.559 99.987 1.854 23.536 o
-4 -6 -7 16.265 16.557 0.738 216.260 o
-4 -6 -6 63.758 61.113 2.559 17.588 o
-4 -6 -5 107.450 108.491 2.275 16.936 o
-4 -6 -4 423.991 424.991 8.317 1.204 o
-4 -6 -3 304.812 308.677 6.378 2.136 o
-4 -6 -2 134.069 136.185 3.961 6.637 o
-4 -6 -1 85.402 86.832 2.141 21.067 o
-4 -5 -9 28.789 29.016 1.161 85.158 o
-4 -5 -8 183.898 184.743 4.056 5.472 o
-4 -5 -7 154.573 157.679 2.791 9.994 o
-4 -5 -6 346.194 347.812 5.996 2.101 o
-4 -5 -5 834.053 839.069 19.832 0.239 o
-4 -5 -4 1997.360 2003.180 38.800 0.055 o
-4 -5 -3 51.174 50.416 1.783 34.805 o
-4 -5 -2 68.997 66.967 1.415 43.211 o
-4 -5 -1 145.842 151.458 3.017 9.420 o
-4 -4 -10 145.745 140.938 2.596 11.588 o
-4 -4 -9 158.076 160.625 2.847 9.596 o
-4 -4 -8 348.176 355.270 6.164 2.016 o
-4 -4 -7 166.674 167.579 2.911 8.975 o
-4 -4 -6 304.959 313.716 5.247 2.710 o
-4 -4 -5 122.163 121.605 2.178 16.353 o
-4 -4 -4 314.520 311.191 5.295 2.641 o
-4 -4 -3 128.896 134.603 2.684 11.937 o
-4 -4 -2 87.331 87.785 1.808 26.444 o
-4 -4 -1 686.349 667.653 13.137 0.478 o
-4 -3 -10 70.569 73.637 1.524 37.941 o
-4 -3 -9 238.094 239.131 4.105 4.466 o
-4 -3 -8 231.677 230.574 4.063 4.636 o
-4 -3 -7 143.605 146.077 3.365 8.221 o
-4 -3 -6 30.401 30.702 0.776 162.089 o
-4 -3 -5 267.656 273.095 5.729 2.683 o
-4 -3 -4 25.276 25.645 0.588 268.554 o
-4 -3 -3 25.383 26.209 0.661 224.468 o
-4 -3 -2 106.878 103.643 1.622 25.765 o
-4 -3 -1 392.132 375.753 7.381 1.499 o
-4 -2 -10 54.842 55.759 1.232 59.817 o
-4 -2 -9 56.842 57.637 1.210 59.996 o
-4 -2 -8 374.860 382.502 6.477 1.789 o
-4 -2 -7 206.941 206.800 3.557 5.942 o
-4 -2 -6 223.270 225.750 4.456 4.237 o
-4 -2 -5 24.087 23.708 0.574 287.202 o
-4 -2 -4 82.742 82.792 1.537 33.870 o
-4 -2 -3 21.652 23.541 0.477 388.816 o
-4 -2 -2 493.090 477.256 8.139 1.106 o
-4 -2 -1 1028.810 1014.150 17.278 0.248 o
-4 -1 -10 38.060 38.381 0.983 101.558 o
-4 -1 -9 85.941 83.379 1.629 30.841 o
-4 -1 -8 122.122 122.357 2.479 13.889 o
-4 -1 -7 120.977 123.330 2.181 16.347 o
-4 -1 -6 150.038 142.660 2.920 9.836 o
-4 -1 -5 134.916 140.276 2.406 13.243 o
-4 -1 -4 74.468 75.529 1.214 48.471 o
-4 -1 -3 1413.030 1365.690 26.120 0.118 o
-4 -1 -2 136.543 134.280 2.327 13.846 o
-4 -1 -1 361.692 358.533 8.734 1.247 o
-3 -11 -2 13.117 13.775 1.123 100.219 o
-3 -11 -1 19.794 19.267 2.149 27.684 o
-3 -10 -5 49.331 47.917 1.405 52.300 o
-3 -10 -4 26.579 27.182 1.063 101.378 o
-3 -10 -3 17.326 16.216 0.898 150.002 o
-3 -10 -2 11.089 9.717 0.793 199.115 o
-3 -10 -1 71.955 72.310 2.102 23.492 o
-3 -9 -6 42.220 41.426 1.494 49.848 o
-3 -9 -5 54.609 56.898 1.712 36.205 o
-3 -9 -4 6.902 6.476 0.726 242.496 o
-3 -9 -3 16.240 15.907 0.789 191.626 o
-3 -9 -2 38.827 37.299 1.431 55.060 o
-3 -9 -1 103.842 106.159 2.785 12.862 o
-3 -8 -8 285.078 284.263 7.024 1.946 o
-3 -8 -7 276.595 283.508 6.901 2.020 o
-3 -8 -6 75.746 75.952 2.154 22.122 o
-3 -8 -5 0.567 0.685 0.753 229.693 o
-3 -8 -4 173.746 170.244 3.986 5.830 o
-3 -8 -3 112.490 111.353 2.396 15.387 o
-3 -8 -2 146.443 145.693 3.027 9.443 o
-3 -8 -1 311.797 316.486 7.622 1.641 o
-3 -7 -9 145.546 150.266 3.826 6.739 o
-3 -7 -8 34.969 36.080 1.342 62.857 o
-3 -7 -7 206.718 190.643 7.559 1.975 o
-3 -7 -6 147.959 149.100 3.101 9.054 o
-3 -7 -5 274.281 274.564 5.452 2.830 o
-3 -7 -4 114.654 112.862 2.370 15.438 o
-3 -7 -3 253.580 250.223 4.288 4.046 o
-3 -7 -2 259.040 255.103 5.021 3.289 o
-3 -7 -1 9.203 9.868 0.545 411.864 o
-3 -6 -9 65.475 64.978 1.562 38.705 o
-3 -6 -8 104.811 105.578 2.189 18.130 o
-3 -6 -7 229.415 234.342 4.642 3.934 o
-3 -6 -6 20.204 20.944 1.243 79.656 o
-3 -6 -5 128.071 133.344 2.719 11.796 o
-3 -6 -4 34.694 35.793 0.916 117.784 o
-3 -6 -3 819.500 809.660 15.909 0.328 o
-3 -6 -2 336.102 344.870 5.797 2.227 o
-3 -6 -1 72.032 71.688 1.309 45.948 o
-3 -5 -10 39.335 40.143 0.892 114.707 o
-3 -5 -9 27.151 27.060 0.771 172.648 o
-3 -5 -8 30.273 29.889 0.986 111.326 o
-3 -5 -7 127.697 127.269 3.033 10.235 o
-3 -5 -6 15.882 16.698 0.678 251.982 o
-3 -5 -5 600.401 602.746 16.902 0.358 o
-3 -5 -4 39.480 42.232 3.104 13.034 o
-3 -5 -3 348.209 357.696 6.811 1.781 o
-3 -5 -2 138.660 139.185 2.746 11.118 o
-3 -5 -1 128.137 130.365 2.219 15.283 o
-3 -4 -10 33.927 34.024 0.800 146.363 o
-3 -4 -9 86.805 86.671 1.649 29.934 o
-3 -4 -8 4.909 4.713 0.465 587.451 o
-3 -4 -7 400.534 405.961 7.170 1.506 o
-3 -4 -6 286.083 283.017 6.710 2.080 o
-3 -4 -5 86.377 87.913 1.914 24.577 o
-3 -4 -4 75.319 78.706 1.984 25.040 o
-3 -4 -3 863.271 861.701 20.474 0.224 o
-3 -4 -2 317.082 324.116 6.237 2.135 o
-3 -4 -1 153.118 153.536 3.661 7.042 o
-3 -3 -11 92.736 88.639 2.055 21.591 o
-3 -3 -10 26.319 25.302 0.696 206.451 o
-3 -3 -9 266.481 266.321 4.560 3.601 o
-3 -3 -8 99.620 102.458 1.862 23.016 o
-3 -3 -7 56.260 57.418 1.176 62.684 o
-3 -3 -6 8.798 9.329 0.396 745.598 o
-3 -3 -5 113.199 118.305 2.051 18.430 o
-3 -3 -4 102.957 104.956 2.087 19.491 o
-3 -3 -3 263.448 264.541 5.184 3.105 o
-3 -3 -2 538.733 526.239 10.704 0.738 o
-3 -3 -1 405.150 434.788 19.884 0.301 o
-3 -2 -11 4.254 4.979 0.581 380.995 o
-3 -2 -10 39.848 39.550 0.861 120.261 o
-3 -2 -9 128.659 124.247 2.640 12.435 o
-3 -2 -8 372.959 383.410 6.376 1.826 o
-3 -2 -7 469.287 486.182 8.143 1.131 o
-3 -2 -6 10.000 10.143 0.562 385.028 o
-3 -2 -5 112.910 112.181 2.095 18.250 o
-3 -2 -4 298.994 303.149 5.187 2.805 o
-3 -2 -3 212.472 208.795 3.591 5.774 o
-3 -2 -2 1760.580 1689.320 28.636 0.088 o
-3 -2 -1 270.516 268.969 5.261 2.997 o
-3 -1 -11 106.217 104.686 1.780 23.303 o
-3 -1 -10 2.846 2.780 0.376 911.861 o
-3 -1 -9 40.073 39.708 0.716 151.766 o
-3 -1 -8 32.037 32.270 0.583 231.208 o
-3 -1 -7 24.231 25.494 0.532 314.055 o
-3 -1 -6 61.398 65.140 1.211 56.217 o
-3 -1 -5 562.337 569.162 9.726 0.796 o
-3 -1 -4 719.616 702.632 11.965 0.514 o
-3 -1 -3 51.907 51.782 1.156 67.830 o
-3 -1 -2 345.118 343.466 6.509 1.913 o
-3 -1 -1 399.794 388.546 13.565 0.597 o
-2 -11 -3 60.782 64.318 1.603 38.284 o
-2 -11 -2 63.118 62.652 1.934 28.318 o
-2 -11 -1 122.218 121.307 3.229 9.544 o
-2 -10 -6 572.697 577.798 11.273 0.656 o
-2 -10 -5 5.341 5.701 0.814 194.818 o
-2 -10 -4 157.215 163.605 3.362 7.751 o
-2 -10 -3 0.526 0.850 0.708 259.654 o
-2 -10 -2 38.155 38.205 1.122 82.675 o
-2 -10 -1 117.485 116.966 3.070 10.496 o
-2 -9 -7 54.318 54.116 1.360 52.347 o
-2 -9 -6 64.918 67.831 1.981 26.772 o
-2 -9 -5 62.324 61.287 1.516 41.616 o
-2 -9 -4 257.835 249.764 5.137 3.217 o
-2 -9 -3 281.394 291.944 5.796 2.545 o
-2 -9 -2 185.135 189.579 3.859 5.806 o
-2 -9 -1 10.043 10.749 0.662 282.174 o
-2 -8 -8 41.160 39.722 1.129 79.719 o
-2 -8 -7 73.107 72.857 2.109 23.235 o
-2 -8 -6 50.067 47.575 1.694 38.343 o
-2 -8 -5 168.818 171.029 6.267 2.862 o
-2 -8 -4 41.764 43.095 1.122 79.136 o
-2 -8 -3 17.902 18.611 0.717 222.206 o
-2 -8 -2 91.957 87.049 1.946 23.456 o
-2 -8 -1 300.234 306.124 6.461 2.117 o
-2 -7 -9 60.673 63.090 1.519 41.680 o
-2 -7 -8 5.195 5.074 0.625 328.169 o
-2 -7 -7 122.786 126.064 3.276 9.266 o
-2 -7 -6 82.899 83.305 2.243 19.954 o
-2 -7 -5 366.236 363.070 8.908 1.203 o
-2 -7 -4 414.049 437.456 14.642 0.515 o
-2 -7 -3 550.279 547.768 13.305 0.537 o
-2 -7 -2 159.972 166.933 5.836 3.275 o
-2 -7 -1 136.897 133.382 3.313 8.702 o
-2 -6 -10 269.563 263.071 4.587 3.566 o
-2 -6 -9 25.478 24.668 0.867 146.423 o
-2 -6 -8 52.055 51.798 1.266 59.516 o
-2 -6 -7 38.468 38.022 1.231 71.054 o
-2 -6 -6 152.296 151.014 3.763 6.800 o
-2 -6 -5 331.050 321.890 10.911 0.915 o
-2 -6 -4 626.217 593.394 14.605 0.441 o
-2 -6 -3 151.633 158.742 3.818 6.607 o
-2 -6 -2 451.527 444.940 10.685 0.825 o
-2 -6 -1 91.001 91.130 2.478 16.408 o
-2 -5 -10 133.926 136.418 2.488 12.867 o
-2 -5 -9 21.899 21.713 0.681 229.773 o
-2 -5 -8 30.169 30.688 0.858 139.142 o
-2 -5 -7 77.436 74.838 1.636 33.007 o
-2 -5 -6 5.595 6.094 0.449 623.338 o
-2 -5 -5 645.202 661.309 12.879 0.506 o
-2 -5 -4 689.148 676.077 13.253 0.470 o
-2 -5 -3 93.469 90.618 1.847 24.728 o
-2 -5 -2 316.488 317.058 6.177 2.175 o
-2 -5 -1 774.670 768.400 12.886 0.441 o
-2 -4 -11 63.561 61.229 1.350 48.673 o
-2 -4 -10 191.846 184.619 3.321 6.928 o
-2 -4 -9 113.334 113.531 1.829 21.250 o
-2 -4 -8 266.651 266.280 4.094 4.052 o
-2 -4 -7 120.014 122.333 4.748 5.066 o
-2 -4 -6 495.226 504.839 9.583 0.894 o
-2 -4 -5 367.964 381.369 12.509 0.698 o
-2 -4 -4 1536.670 1525.070 29.512 0.094 o
-2 -4 -3 56.478 55.051 1.166 63.880 o
-2 -4 -2 148.485 153.838 3.026 9.270 o
-2 -4 -1 643.201 636.686 10.723 0.639 o
-2 -3 -11 63.087 63.233 1.336 49.194 o
-2 -3 -10 216.434 216.218 3.349 6.100 o
-2 -3 -9 69.250 69.680 1.191 52.902 o
-2 -3 -8 215.636 209.262 3.206 6.464 o
-2 -3 -7 249.706 257.307 4.324 4.011 o
-2 -3 -6 187.497 200.006 3.899 5.623 o
-2 -3 -5 390.499 396.048 7.621 1.425 o
-2 -3 -4 15.566 15.252 1.034 116.061 o
-2 -3 -3 777.437 764.048 18.334 0.280 o
-2 -3 -2 85.173 86.238 1.737 28.311 o
-2 -3 -1 204.169 208.694 5.113 3.689 o
-2 -2 -11 89.851 88.962 1.549 31.491 o
-2 -2 -10 89.725 88.806 1.523 32.151 o
-2 -2 -9 203.526 197.129 3.965 5.314 o
-2 -2 -8 223.987 224.841 3.390 5.818 o
-2 -2 -7 182.292 191.147 3.226 7.303 o
-2 -2 -6 116.956 118.063 2.046 18.170 o
-2 -2 -5 71.267 72.630 1.305 46.239 o
-2 -2 -4 57.917 55.124 1.004 76.102 o
-2 -2 -3 581.007 568.134 21.249 0.249 o
-2 -2 -2 2132.120 1968.310 69.335 0.023 o
-2 -2 -1 2105.000 1842.830 43.803 0.047 o
-2 -1 -11 56.356 58.084 1.017 75.000 o
-2 -1 -10 188.598 190.828 2.721 8.589 o
-2 -1 -9 111.354 112.049 1.506 26.233 o
-2 -1 -8 423.785 416.773 5.325 1.950 o
-2 -1 -7 60.432 59.293 0.915 80.491 o
-2 -1 -6 1094.940 1091.640 17.471 0.231 o
-2 -1 -5 15.991 16.401 0.315 836.856 o
-2 -1 -4 808.070 767.272 25.804 0.162 o
-2 -1 -3 47.509 48.388 0.993 87.921 o
-2 -1 -2 260.960 263.133 3.980 4.247 o
-1 -11 -4 60.553 60.770 2.489 18.627 o
-1 -11 -3 71.502 70.962 2.287 20.567 o
-1 -11 -2 109.892 109.605 2.960 11.452 o
-1 -11 -1 260.770 257.533 5.251 3.088 o
-1 -10 -6 166.195 171.907 3.044 8.465 o
-1 -10 -5 35.203 33.576 0.900 121.696 o
-1 -10 -4 96.507 95.442 3.777 8.004 o
-1 -10 -3 32.429 35.321 1.480 53.551 o
-1 -10 -2 54.534 52.750 3.245 11.670 o
-1 -10 -1 119.589 118.365 2.545 13.636 o
-1 -9 -7 85.121 84.429 1.932 24.598 o
-1 -9 -6 0.179 0.180 0.574 395.703 o
-1 -9 -5 46.675 45.437 1.042 84.070 o
-1 -9 -4 137.707 137.647 5.043 4.407 o
-1 -9 -3 186.861 188.030 4.686 4.407 o
-1 -9 -2 210.695 214.329 6.205 2.700 o
-1 -9 -1 176.853 178.546 3.588 6.615 o
-1 -8 -8 361.171 369.603 8.764 1.234 o
-1 -8 -7 17.823 17.765 0.740 211.178 o
-1 -8 -6 66.457 68.101 1.526 39.439 o
-1 -8 -5 220.113 220.823 5.427 3.258 o
-1 -8 -4 40.289 42.492 1.449 52.819 o
-1 -8 -3 51.602 49.422 1.578 42.688 o
-1 -8 -2 667.698 664.250 16.785 0.345 o
-1 -8 -1 124.973 130.249 2.648 12.415 o
-1 -7 -9 2.414 2.112 0.691 271.902 o
-1 -7 -8 19.323 19.891 0.776 189.990 o
-1 -7 -7 0.505 0.536 0.681 280.370 o
-1 -7 -6 8.101 7.717 0.520 458.841 o
-1 -7 -5 5.330 5.192 0.581 379.508 o
-1 -7 -4 123.161 127.182 6.361 2.972 o
-1 -7 -3 444.976 438.315 22.073 0.246 o
-1 -7 -2 83.060 88.095 4.706 5.493 o
-1 -7 -1 26.505 26.827 0.812 160.343 o
-1 -6 -10 16.063 16.275 0.850 167.118 o
-1 -6 -9 241.613 245.870 6.037 2.645 o
-1 -6 -8 129.677 130.204 2.639 12.268 o
-1 -6 -7 101.994 104.299 3.211 10.336 o
-1 -6 -6 55.444 55.006 2.324 21.481 o
-1 -6 -5 24.886 24.662 1.224 79.849 o
-1 -6 -4 313.492 295.676 10.740 0.959 o
-1 -6 -3 8.011 7.958 0.475 544.675 o
-1 -6 -2 89.282 90.944 2.360 17.793 o
-1 -6 -1 546.785 547.913 15.086 0.445 o
-1 -5 -10 12.753 12.504 0.736 226.003 o
-1 -5 -9 27.664 27.526 0.860 143.916 o
-1 -5 -8 2.412 1.989 0.479 565.513 o
-1 -5 -7 6.005 6.678 0.467 575.621 o
-1 -5 -6 18.182 17.206 0.563 337.638 o
-1 -5 -5 3.116 3.313 0.518 480.717 o
-1 -5 -4 98.122 100.430 3.615 8.573 o
-1 -5 -3 355.923 344.219 8.430 1.330 o
-1 -5 -2 47.551 52.007 1.946 30.216 o
-1 -5 -1 94.304 100.381 3.774 8.010 o
-1 -4 -11 49.174 49.546 1.149 70.530 o
-1 -4 -10 28.135 28.300 0.791 163.213 o
-1 -4 -9 56.397 56.389 1.135 65.863 o
-1 -4 -8 54.980 52.650 1.229 60.689 o
-1 -4 -7 97.730 99.552 2.065 20.479 o
-1 -4 -6 151.589 155.936 3.160 8.651 o
-1 -4 -5 305.857 308.082 7.318 1.762 o
-1 -4 -4 468.673 473.253 11.190 0.752 o
-1 -4 -3 20.148 21.518 1.018 115.487 o
-1 -4 -2 234.912 237.923 7.992 1.715 o
-1 -3 -11 91.935 93.808 2.747 13.853 o
-1 -3 -10 13.344 13.373 0.593 334.047 o
-1 -3 -9 14.298 14.106 0.549 377.380 o
-1 -3 -8 165.632 169.374 2.880 9.091 o
-1 -3 -7 70.813 75.285 1.569 36.252 o
-1 -3 -6 20.513 21.575 0.501 377.131 o
-1 -3 -5 37.383 38.171 1.051 92.314 o
-1 -3 -4 653.284 644.633 12.512 0.525 o
-1 -3 -3 1795.460 1765.710 34.424 0.069 o
-1 -3 -2 575.389 589.203 12.100 0.594 o
-1 -3 -1 645.447 642.971 12.795 0.513 o
-1 -2 -11 129.993 126.272 3.351 8.786 o
-1 -2 -10 174.634 177.296 2.520 10.004 o
-1 -2 -9 127.965 130.992 1.872 18.324 o
-1 -2 -8 1197.840 1171.830 16.235 0.229 o
-1 -2 -7 40.778 40.856 0.599 180.978 o
-1 -2 -6 28.287 27.716 0.519 295.660 o
-1 -2 -5 354.662 369.387 7.052 1.675 o
-1 -2 -4 256.223 264.549 5.093 3.219 o
-1 -2 -3 57.657 57.653 1.436 46.795 o
-1 -2 -1 992.689 968.426 18.375 0.238 o
-1 -1 -12 93.323 89.105 2.503 16.085 o
-1 -1 -11 19.064 18.469 0.615 286.239 o
-1 -1 -10 85.172 85.717 1.436 35.774 o
-1 -1 -9 18.953 18.381 0.521 374.761 o
-1 -1 -8 53.304 53.427 0.767 108.179 o
-1 -1 -7 343.851 342.382 4.346 2.933 o
-1 -1 -6 16.884 16.368 0.301 860.782 o
-1 -1 -5 129.365 133.306 1.704 19.737 o
-1 -1 -4 1069.240 1033.980 19.055 0.215 o
-1 -1 -3 769.001 747.879 12.216 0.474 o
-1 -1 -1 2226.290 1831.220 62.186 0.027 o
0 0 2 540.826 567.716 19.369 0.296 o
0 0 10 857.519 866.271 20.642 0.222 o
0 0 12 209.983 214.632 5.334 3.414 o
0 1 2 7.927 7.242 0.144 3886.360 o
0 1 3 118.189 112.751 2.343 15.464 o
0 1 4 1631.910 1433.790 48.232 0.046 o
0 1 5 684.074 654.155 9.020 0.725 o
0 1 6 25.032 22.719 0.418 431.319 o
0 1 7 6.844 6.797 0.267 1603.100 o
0 1 8 833.979 816.009 13.735 0.386 o
0 1 9 244.831 248.511 4.259 4.168 o
0 1 10 56.845 55.494 2.378 20.533 o
0 1 11 44.954 46.608 1.033 85.980 o
0 1 12 345.931 343.222 5.903 2.149 o
0 2 1 1951.130 1934.050 65.512 0.025 o
0 2 2 56.331 56.081 1.383 50.131 o
0 2 3 1028.460 990.530 25.150 0.152 o
0 2 4 3766.280 2724.930 199.978 0.003 o
0 2 5 612.880 613.414 9.259 0.779 o
0 2 6 56.055 57.634 0.932 83.354 o
0 2 7 225.064 221.984 3.090 6.379 o
0 2 8 14.225 13.293 0.378 704.482 o
0 2 9 226.643 224.440 3.445 5.682 o
0 2 10 0.895 0.586 0.436 683.207 o
0 2 11 97.005 97.802 1.650 27.297 o
0 2 12 18.609 18.746 0.692 234.760 o
0 3 2 795.577 802.010 19.290 0.255 o
0 3 3 204.237 192.950 4.638 4.310 o
0 3 4 1303.470 1309.610 25.627 0.127 o
0 3 5 502.507 490.164 13.106 0.577 o
0 3 6 269.205 275.166 4.673 3.449 o
0 3 7 5.898 6.826 0.397 785.885 o
0 3 8 18.473 20.467 0.652 258.400 o
0 3 9 344.620 339.570 6.673 1.861 o
0 3 10 53.544 52.836 1.082 72.874 o
0 3 11 40.049 39.748 0.971 101.078 o
0 4 0 394.983 396.457 9.460 1.056 o
0 4 1 520.650 536.559 10.430 0.772 o
0 4 2 280.293 293.145 7.021 1.949 o
0 4 3 564.699 573.788 13.750 0.503 o
0 4 4 971.813 964.520 23.258 0.175 o
0 4 5 39.968 42.327 0.820 126.108 o
0 4 6 138.910 136.011 2.361 13.432 o
0 4 7 384.922 385.382 6.534 1.741 o
0 4 8 78.634 76.015 1.642 32.518 o
0 4 9 23.293 23.119 0.766 184.869 o
0 4 10 201.655 200.122 3.499 6.201 o
0 4 11 34.497 32.215 0.887 125.971 o
0 5 1 14.847 14.531 0.508 426.913 o
0 5 2 186.070 189.138 3.743 6.033 o
0 5 3 0.091 0.482 0.296 1489.480 o
0 5 4 64.235 65.585 1.766 32.362 o
0 5 5 32.575 30.880 0.654 200.406 o
0 5 6 18.007 19.491 0.522 375.943 o
0 5 7 0.250 0.445 0.373 937.768 o
0 5 8 0.021 0.124 0.458 621.142 o
0 5 9 7.049 7.142 0.598 353.178 o
0 5 10 80.676 76.214 2.416 18.102 o
0 5 11 97.712 91.588 1.799 24.960 o
0 6 0 441.025 471.752 11.268 0.761 o
0 6 1 1313.060 1345.270 26.284 0.122 o
0 6 2 5.438 4.838 0.471 570.828 o
0 6 3 364.809 374.263 8.973 1.186 o
0 6 4 56.600 54.453 1.478 45.506 o
0 6 5 194.945 197.812 4.833 4.112 o
0 6 6 333.151 340.855 5.792 2.247 o
0 6 7 475.876 484.387 8.203 1.114 o
0 6 8 3.707 4.108 0.634 321.076 o
0 6 9 31.439 30.738 0.945 118.045 o
0 6 10 247.619 247.052 4.986 3.417 o
0 7 1 41.703 46.438 1.634 42.340 o
0 7 2 135.941 142.430 2.906 10.358 o
0 7 3 14.837 15.380 0.501 433.938 o
0 7 4 222.073 234.139 8.868 1.451 o
0 7 5 24.170 24.852 1.129 92.837 o
0 7 6 232.806 231.782 3.986 4.721 o
0 7 7 43.145 41.767 1.069 84.732 o
0 7 8 16.667 17.597 0.741 212.783 o
0 7 9 19.642 19.619 0.816 173.714 o
0 8 0 61.300 58.728 1.694 35.576 o
0 8 1 139.468 141.284 2.917 10.207 o
0 8 2 28.525 29.700 1.046 102.093 o
0 8 3 32.558 32.642 0.791 152.305 o
0 8 4 1418.250 1438.730 46.267 0.050 o
0 8 5 68.712 70.221 1.965 26.584 o
0 8 6 37.728 38.293 1.343 61.599 o
0 8 7 108.841 110.147 2.342 16.132 o
0 8 8 157.040 157.656 3.270 8.116 o
0 8 9 114.664 115.080 2.498 14.319 o
0 9 1 9.153 9.177 0.788 203.750 o
0 9 2 183.881 181.859 3.776 6.050 o
0 9 3 0.709 0.807 0.507 506.994 o
0 9 4 298.528 304.801 8.730 1.360 o
0 9 5 369.964 368.270 8.190 1.348 o
0 9 6 168.573 172.731 4.375 5.127 o
0 9 7 28.655 27.835 0.939 123.232 o
0 10 0 2080.610 1946.940 65.347 0.025 o
0 10 1 24.853 25.462 1.331 68.217 o
0 10 2 45.967 46.868 1.100 77.855 o
0 10 3 759.459 765.862 16.295 0.333 o
0 10 4 35.695 34.753 1.105 87.233 o
0 10 5 213.150 218.222 4.461 4.356 o
0 10 6 89.200 89.977 2.382 17.583 o
0 11 1 17.669 16.184 1.628 47.974 o
0 11 2 0.600 0.622 0.644 313.875 o
0 11 3 0.581 -0.162 0.693 271.002 o
0 11 4 72.035 66.615 1.707 32.704 o
1 0 3 499.927 510.935 7.063 1.243 o
1 0 4 484.586 460.042 6.947 1.337 o
1 0 5 33.814 33.541 0.784 151.205 o
1 0 6 549.495 541.784 8.169 0.990 o
1 0 7 0.117 0.259 0.248 2110.640 o
1 0 8 199.457 202.530 3.111 7.086 o
1 0 10 94.986 96.121 1.579 29.184 o
1 0 11 219.516 219.141 3.815 5.214 o
1 0 12 122.375 120.380 2.222 15.993 o
1 1 0 408.704 366.600 14.360 0.543 o
1 1 3 769.329 756.145 12.736 0.451 o
1 1 4 1068.930 1049.540 17.630 0.235 o
1 1 5 129.272 128.475 2.363 14.176 o
1 1 6 16.848 15.648 0.359 695.648 o
1 1 7 343.701 334.757 5.144 2.524 o
1 1 8 53.379 50.074 2.858 14.865 o
1 1 9 19.049 19.064 0.497 399.739 o
1 1 10 84.863 85.394 1.435 35.915 o
1 1 11 19.047 17.972 1.362 67.422 o
1 1 12 93.260 94.284 1.785 25.618 o
1 2 0 940.828 973.433 16.547 0.277 o
1 2 1 992.926 905.306 18.328 0.243 o
1 2 3 57.624 57.221 1.397 48.841 o
1 2 4 256.699 257.889 3.941 4.364 o
1 2 5 354.280 356.422 5.458 2.282 o
1 2 6 28.262 27.518 0.512 301.673 o
1 2 7 41.008 39.912 0.718 149.182 o
1 2 8 1198.570 1188.760 16.243 0.227 o
1 2 9 127.780 128.429 2.055 16.762 o
1 2 10 174.204 175.967 2.767 9.126 o
1 2 11 129.955 123.620 3.204 9.433 o
1 3 0 26.601 27.377 0.468 346.992 o
1 3 1 645.356 656.432 11.051 0.610 o
1 3 2 574.900 595.320 14.084 0.479 o
1 3 3 1799.070 1767.300 59.622 0.031 o
1 3 4 653.378 637.764 10.866 0.623 o
1 3 5 37.221 38.329 0.720 157.888 o
1 3 6 20.708 20.988 0.428 470.971 o
1 3 7 70.922 73.171 1.195 51.264 o
1 3 8 165.594 162.226 2.561 10.491 o
1 3 9 14.230 14.407 0.464 501.605 o
1 3 10 13.396 13.932 0.454 528.299 o
1 3 11 92.334 94.671 1.608 29.191 o
1 4 0 13.335 13.695 0.437 565.028 o
1 4 1 850.209 810.997 15.730 0.326 o
1 4 2 235.079 233.438 4.601 3.937 o
1 4 3 19.957 19.681 0.526 359.450 o
1 4 4 468.762 464.604 11.185 0.755 o
1 4 5 306.491 298.600 10.350 1.024 o
1 4 6 151.189 160.634 3.144 8.657 o
1 4 7 98.198 100.090 2.046 20.662 o
1 4 8 55.056 52.593 1.196 62.981 o
1 4 9 56.354 55.666 1.144 65.404 o
1 4 10 28.193 28.294 0.949 121.245 o
1 4 11 49.032 50.045 1.036 81.346 o
1 5 0 1.252 0.715 0.235 2339.850 o
1 5 1 94.143 94.754 2.248 18.652 o
1 5 2 47.739 49.437 0.944 93.238 o
1 5 3 356.263 357.558 6.887 1.737 o
1 5 4 98.359 97.996 2.017 21.151 o
1 5 5 3.118 4.005 0.411 759.694 o
1 5 6 18.166 17.551 0.467 451.866 o
1 5 7 6.038 6.993 0.398 777.295 o
1 5 8 2.417 1.855 0.433 689.193 o
1 5 9 27.549 26.017 0.745 182.655 o
1 5 10 12.783 13.553 0.667 270.521 o
1 6 0 141.479 138.842 3.374 8.312 o
1 6 1 547.063 553.243 9.283 0.860 o
1 6 2 89.180 93.141 1.660 28.753 o
1 6 3 8.151 8.366 0.426 662.698 o
1 6 4 312.855 309.836 5.977 2.293 o
1 6 5 24.828 25.755 0.738 190.996 o
1 6 6 55.729 52.518 1.526 43.768 o
1 6 7 102.262 102.025 1.857 22.807 o
1 6 8 129.397 124.508 2.278 14.927 o
1 6 9 241.269 242.324 4.921 3.533 o
1 6 10 15.913 15.060 0.720 227.872 o
1 7 0 51.524 50.441 1.467 47.917 o
1 7 1 26.339 28.139 0.671 214.437 o
1 7 2 82.815 85.507 1.584 32.333 o
1 7 3 443.705 447.445 8.676 1.102 o
1 7 4 123.220 124.730 2.580 13.062 o
1 7 5 5.249 5.519 0.559 408.767 o
1 7 6 8.003 7.425 0.762 219.014 o
1 7 7 0.521 0.340 0.504 511.728 o
1 7 8 19.421 19.379 0.671 245.071 o
1 7 9 2.328 2.682 0.575 392.119 o
1 8 0 0.745 0.954 0.617 342.243 o
1 8 1 125.200 125.140 2.278 15.175 o
1 8 2 668.042 665.269 12.226 0.530 o
1 8 3 51.783 50.984 1.234 62.113 o
1 8 4 40.367 41.623 0.965 100.909 o
1 8 5 220.051 221.907 4.444 4.299 o
1 8 6 66.326 67.396 1.959 27.130 o
1 8 7 17.693 17.753 1.071 107.081 o
1 8 8 360.987 354.498 6.161 1.978 o
1 9 0 6.537 6.863 0.988 131.948 o
1 9 1 176.997 173.145 3.090 8.023 o
1 9 2 211.345 211.661 3.714 5.547 o
1 9 3 186.272 185.718 3.837 5.860 o
1 9 4 137.764 138.769 2.520 12.425 o
1 9 5 46.911 49.082 1.131 73.546 o
1 9 6 0.153 0.239 0.878 168.840 o
1 9 7 85.099 87.973 2.647 15.123 o
1 10 0 44.164 43.774 1.212 68.957 o
1 10 1 119.427 115.548 2.180 16.752 o
1 10 2 54.167 55.176 1.237 59.892 o
1 10 3 32.504 32.314 0.965 112.375 o
1 10 4 96.717 95.918 1.896 23.215 o
1 10 5 35.372 35.928 1.216 74.309 o
1 10 6 166.096 165.302 3.585 6.924 o
1 11 0 0.269 0.333 0.756 227.661 o
1 11 1 261.073 263.704 5.749 2.718 o
1 11 2 110.093 102.908 3.194 10.240 o
1 11 3 71.531 70.363 1.570 36.571 o
1 11 4 60.722 63.926 2.304 21.227 o
2 0 0 1413.510 1170.200 39.616 0.067 o
2 0 1 956.331 916.071 19.924 0.221 o
2 0 3 519.512 523.569 7.229 1.173 o
2 0 4 82.924 88.446 1.378 37.697 o
2 0 5 107.973 104.270 1.479 27.980 o
2 0 6 1517.920 1484.480 21.101 0.139 o
2 0 7 66.233 68.571 0.949 69.509 o
2 0 8 43.712 46.687 0.841 114.176 o
2 0 9 729.506 708.109 9.753 0.626 o
2 0 10 338.063 341.770 4.782 2.725 o
2 0 11 2.312 2.050 0.476 572.374 o
2 1 0 4528.900 2988.100 194.257 0.003 o
2 1 1 1523.670 1416.620 47.855 0.047 o
2 1 2 260.766 262.859 4.458 3.756 o
2 1 3 47.439 48.165 0.872 104.012 o
2 1 5 16.051 16.410 0.488 441.960 o
2 1 6 1095.270 1072.270 18.352 0.220 o
2 1 7 60.508 60.599 1.005 72.222 o
2 1 8 423.679 414.776 6.304 1.668 o
2 1 9 111.505 109.727 1.643 24.280 o
2 1 10 188.602 190.376 3.002 7.770 o
2 1 11 56.575 58.465 1.039 72.834 o
2 2 0 307.141 297.692 5.812 2.421 o
2 2 1 2105.250 1834.760 35.824 0.060 o
2 2 2 2132.040 2089.510 34.800 0.060 o
2 2 3 580.990 576.202 9.650 0.786 o
2 2 4 57.961 56.082 1.112 66.832 o
2 2 5 71.140 73.219 1.160 52.885 o
2 2 6 116.876 115.689 2.037 18.374 o
2 2 7 182.399 181.928 3.214 7.433 o
2 2 8 224.147 214.014 4.945 3.720 o
2 2 9 203.358 196.122 4.878 4.003 o
2 2 10 89.325 91.048 1.519 32.105 o
2 2 11 89.811 87.043 1.527 32.205 o
2 3 1 204.240 208.833 3.170 6.778 o
2 3 2 85.097 86.255 1.740 28.257 o
2 3 3 776.890 769.367 14.982 0.368 o
2 3 4 15.566 15.654 0.675 256.484 o
2 3 5 390.288 387.411 5.383 2.108 o
2 3 6 187.723 192.843 3.357 6.840 o
2 3 7 249.756 248.787 3.854 4.598 o
2 3 8 215.481 205.802 3.752 5.464 o
2 3 9 69.566 67.146 1.342 46.090 o
2 3 10 216.288 212.735 3.343 6.146 o
2 3 11 62.757 61.687 1.191 57.575 o
2 4 1 642.456 638.423 10.733 0.638 o
2 4 2 148.574 152.073 2.624 11.094 o
2 4 3 56.454 54.877 1.164 64.095 o
2 4 4 1536.580 1503.220 34.758 0.076 o
2 4 5 367.986 366.360 7.229 1.598 o
2 4 6 495.381 483.994 6.765 1.328 o
2 4 7 119.709 119.421 1.886 19.573 o
2 4 8 267.342 267.853 4.081 4.051 o
2 4 9 113.318 111.541 1.815 21.537 o
2 4 10 191.689 191.366 2.956 7.807 o
2 4 11 63.428 63.872 1.211 55.611 o
2 5 0 237.312 243.866 4.793 3.680 o
2 5 1 773.438 761.922 12.864 0.443 o
2 5 2 316.774 315.323 5.361 2.584 o
2 5 3 93.534 90.397 2.296 18.282 o
2 5 4 689.084 689.684 16.244 0.355 o
2 5 5 645.009 663.628 22.326 0.221 o
2 5 6 5.608 5.712 0.641 311.504 o
2 5 7 77.727 76.793 1.604 33.637 o
2 5 8 30.209 28.780 0.818 151.261 o
2 5 9 21.823 21.841 0.770 186.985 o
2 5 10 134.322 136.763 2.870 10.682 o
2 6 0 611.665 624.044 11.126 0.633 o
2 6 1 90.834 88.976 1.620 29.697 o
2 6 2 451.797 448.852 7.571 1.285 o
2 6 3 151.608 153.799 2.709 10.532 o
2 6 4 626.247 626.211 17.599 0.330 o
2 6 6 152.489 150.807 3.759 6.808 o
2 6 7 38.402 34.924 1.690 41.266 o
2 6 8 51.758 52.435 1.223 62.573 o
2 6 9 25.504 25.796 0.848 151.351 o
2 6 10 269.823 262.855 5.934 2.568 o
2 7 0 0.257 0.400 0.399 816.003 o
2 7 1 136.923 131.436 2.693 11.623 o
2 7 2 159.914 166.036 2.908 9.213 o
2 7 3 550.607 561.371 9.415 0.839 o
2 7 4 414.250 428.444 7.308 1.425 o
2 7 5 366.964 375.218 10.155 0.981 o
2 7 6 82.938 83.564 1.854 26.389 o
2 7 7 122.665 128.590 3.293 9.166 o
2 7 8 5.247 5.127 0.516 478.040 o
2 7 9 60.559 60.941 1.339 50.283 o
2 8 0 36.210 38.876 1.067 90.619 o
2 8 1 299.806 305.428 5.233 2.766 o
2 8 2 91.850 95.126 1.728 26.822 o
2 8 3 17.963 18.767 0.681 242.755 o
2 8 4 41.825 43.385 1.030 89.857 o
2 8 5 168.295 176.596 3.124 8.091 o
2 8 6 50.341 49.708 1.321 56.878 o
2 8 7 73.157 75.109 2.178 21.985 o
2 8 8 40.874 38.500 1.565 46.564 o
2 9 0 526.806 520.626 8.825 0.947 o
2 9 1 9.993 12.618 1.224 85.459 o
2 9 2 185.274 192.479 3.887 5.727 o
2 9 3 281.757 291.821 5.050 3.022 o
2 9 4 257.351 263.279 4.497 3.745 o
2 9 5 62.548 63.049 1.391 46.721 o
2 9 6 64.750 68.330 1.581 37.847 o
2 9 7 54.468 53.007 1.852 32.078 o
2 10 0 187.323 177.797 5.761 3.212 o
2 10 1 117.324 118.293 2.218 16.455 o
2 10 2 38.305 38.088 1.215 72.651 o
2 10 3 0.544 0.735 0.720 250.770 o
2 10 4 157.146 159.343 3.408 7.655 o
2 10 5 5.293 4.757 0.854 176.947 o
2 10 6 572.653 571.622 9.801 0.780 o
2 11 0 10.127 10.489 1.679 45.839 o
2 11 1 122.631 123.469 2.354 14.778 o
2 11 2 63.401 64.267 3.342 10.805 o
2 11 3 60.523 58.916 1.484 43.685 o
3 0 1 295.084 316.873 4.788 3.049 o
3 0 2 12.864 12.896 0.395 677.651 o
3 0 4 110.917 113.126 1.726 22.937 o
3 0 5 48.151 50.803 0.849 104.895 o
3 0 6 126.016 125.978 1.793 19.578 o
3 0 7 146.550 150.421 2.134 14.025 o
3 0 8 61.847 62.502 1.267 53.408 o
3 0 9 74.837 76.048 1.186 49.473 o
3 0 10 34.370 36.109 0.746 158.555 o
3 0 11 1.111 1.528 0.511 498.585 o
3 1 1 400.116 415.812 13.580 0.592 o
3 1 2 344.773 347.778 5.609 2.271 o
3 1 3 51.943 52.535 0.775 109.538 o
3 1 4 719.981 720.112 12.017 0.507 o
3 1 5 562.173 584.833 9.730 0.790 o
3 1 6 61.403 65.585 1.220 55.589 o
3 1 7 24.385 25.801 0.651 233.808 o
3 1 8 32.205 30.894 0.661 198.596 o
3 1 9 40.223 40.370 0.746 143.434 o
3 1 10 2.791 2.926 0.455 624.396 o
3 1 11 105.809 107.220 2.349 16.355 o
3 2 0 493.943 474.888 9.289 0.945 o
3 2 1 269.340 269.151 5.263 3.001 o
3 2 2 1760.300 1707.160 28.582 0.088 o
3 2 3 211.972 213.857 4.152 4.819 o
3 2 4 298.862 308.566 4.643 3.152 o
3 2 5 112.978 111.306 1.958 19.816 o
3 2 6 10.107 9.837 0.497 484.893 o
3 2 7 470.031 474.144 9.402 0.954 o
3 2 8 372.965 365.498 6.388 1.847 o
3 2 9 128.831 125.563 2.030 17.015 o
3 2 10 39.734 41.377 1.072 86.744 o
3 2 11 4.304 4.620 0.552 421.521 o
3 3 0 171.675 174.145 5.950 3.111 o
3 3 1 404.766 412.253 8.200 1.262 o
3 3 2 539.080 535.229 8.008 1.028 o
3 3 3 263.332 264.108 4.493 3.697 o
3 3 4 102.987 104.301 1.849 22.715 o
3 3 5 113.104 116.174 1.672 23.198 o
3 3 6 8.726 8.710 0.322 1083.790 o
3 3 7 56.214 55.706 0.997 77.796 o
3 3 8 99.770 100.976 1.669 26.273 o
3 3 9 266.665 262.523 4.090 4.074 o
3 3 10 26.334 25.950 0.883 140.195 o
3 3 11 92.847 93.808 1.505 31.422 o
3 4 0 195.831 190.350 3.249 6.963 o
3 4 1 152.782 147.264 2.995 9.366 o
3 4 2 316.375 315.713 4.831 2.895 o
3 4 3 863.317 852.359 14.418 0.354 o
3 4 4 75.364 78.075 1.426 39.533 o
3 4 5 86.324 86.123 1.581 31.690 o
3 4 6 285.500 293.837 4.942 3.070 o
3 4 7 400.354 401.049 7.136 1.520 o
3 4 8 4.995 4.379 0.565 401.272 o
3 4 9 86.807 86.149 1.506 33.468 o
3 4 10 33.519 33.214 1.033 99.485 o
3 5 0 215.237 226.273 3.858 5.155 o
3 5 1 128.219 125.485 2.603 12.662 o
3 5 2 138.384 136.275 2.134 15.041 o
3 5 3 348.149 340.384 5.898 2.148 o
3 5 4 39.477 39.601 0.968 102.057 o
3 5 5 600.463 602.406 16.367 0.376 o
3 5 6 16.074 15.748 0.535 381.684 o
3 5 7 127.829 128.705 1.851 18.661 o
3 5 8 30.245 29.632 0.661 205.940 o
3 5 9 27.060 26.899 0.675 212.381 o
3 5 10 39.205 38.790 1.028 93.847 o
3 6 0 50.601 53.925 1.033 79.086 o
3 6 1 72.000 71.772 1.549 37.016 o
3 6 2 336.057 339.425 5.194 2.524 o
3 6 3 819.714 833.914 19.514 0.247 o
3 6 4 34.719 34.886 1.038 97.159 o
3 6 5 128.120 133.522 3.837 7.085 o
3 6 6 20.349 21.089 0.991 121.303 o
3 6 7 229.748 228.728 5.719 2.953 o
3 6 8 104.749 97.906 2.691 13.688 o
3 6 9 65.509 64.963 1.535 39.696 o
3 7 0 2.142 2.257 0.502 514.234 o
3 7 1 9.154 9.466 0.593 351.666 o
3 7 2 258.749 252.905 3.896 4.421 o
3 7 3 253.417 250.986 4.987 3.366 o
3 7 4 114.641 117.626 2.112 17.703 o
3 7 5 274.261 277.117 5.489 2.799 o
3 7 6 148.316 156.918 3.870 6.534 o
3 7 7 207.092 200.100 4.890 3.948 o
3 7 8 34.896 33.754 1.912 33.282 o
3 7 9 145.279 145.173 3.068 9.313 o
3 8 0 130.829 132.818 2.749 11.526 o
3 8 1 312.402 314.288 6.241 2.165 o
3 8 2 146.611 150.130 2.653 11.069 o
3 8 3 112.838 114.067 2.101 18.109 o
3 8 4 173.695 170.653 3.119 8.046 o
3 8 5 0.572 0.470 0.670 289.788 o
3 8 6 75.657 77.631 3.392 10.199 o
3 8 7 276.258 280.069 5.670 2.667 o
3 8 8 284.945 286.591 5.774 2.554 o
3 9 0 6.775 7.093 0.681 274.394 o
3 9 1 103.756 106.350 2.312 16.880 o
3 9 2 39.062 38.201 1.002 97.888 o
3 9 3 16.276 16.551 0.933 140.113 o
3 9 4 6.868 6.092 0.749 228.407 o
3 9 5 54.586 53.423 1.335 53.865 o
3 9 6 42.204 43.590 1.232 68.085 o
3 10 0 109.889 107.201 2.858 12.122 o
3 10 1 72.393 73.642 1.772 30.360 o
3 10 2 11.009 10.348 1.027 120.458 o
3 10 3 17.359 18.661 0.911 144.848 o
3 10 4 26.598 28.484 1.166 85.709 o
3 10 5 49.291 50.734 1.405 51.881 o
3 11 0 14.872 14.909 1.122 99.649 o
3 11 1 19.919 19.121 1.059 107.944 o
3 11 2 13.030 12.550 0.943 140.658 o
4 0 0 231.747 226.146 5.427 3.185 o
4 0 1 30.248 32.442 0.558 250.669 o
4 0 2 8.783 8.896 0.274 1416.080 o
4 0 3 2.023 1.721 0.218 2703.470 o
4 0 4 94.521 95.515 1.378 33.858 o
4 0 5 74.068 73.557 1.207 49.362 o
4 0 6 237.987 241.131 3.365 5.497 o
4 0 7 63.830 66.808 1.035 65.728 o
4 0 8 17.734 17.055 0.493 420.684 o
4 0 9 41.127 40.727 0.831 123.593 o
4 0 10 90.711 90.936 1.558 30.929 o
4 0 11 34.464 36.001 0.822 138.380 o
4 1 0 118.868 125.921 2.502 13.794 o
4 1 1 361.508 368.773 5.851 2.070 o
4 1 2 136.569 135.893 2.080 15.598 o
4 1 3 1413.330 1315.270 22.802 0.140 o
4 1 4 74.380 74.611 1.377 42.057 o
4 1 5 134.864 136.074 2.157 15.117 o
4 1 6 149.656 146.748 2.283 13.029 o
4 1 7 120.900 121.482 2.190 16.334 o
4 1 8 122.527 118.975 1.937 18.767 o
4 1 9 85.872 86.108 1.451 35.140 o
4 1 10 38.333 38.646 0.806 134.416 o
4 2 0 155.279 149.570 2.959 9.402 o
4 2 1 1028.130 1036.970 19.988 0.207 o
4 2 2 493.236 488.307 8.184 1.092 o
4 2 3 21.631 23.070 0.539 328.712 o
4 2 4 82.772 84.067 1.505 34.605 o
4 2 5 24.046 23.979 0.539 313.031 o
4 2 6 223.617 224.521 3.469 5.690 o
4 2 7 206.879 204.148 3.564 5.951 o
4 2 8 374.432 377.252 6.483 1.795 o
4 2 9 56.787 57.548 1.242 57.926 o
4 2 10 55.251 55.586 1.014 76.940 o
4 3 0 1565.590 1562.540 30.405 0.090 o
4 3 1 392.330 380.545 7.387 1.493 o
4 3 2 106.801 104.082 2.117 18.843 o
4 3 3 25.489 26.482 0.631 239.793 o
4 3 4 25.128 25.465 0.629 244.172 o
4 3 5 267.632 273.990 4.179 3.921 o
4 3 6 30.249 29.462 0.751 171.757 o
4 3 7 143.592 146.842 3.155 8.988 o
4 3 8 231.994 240.332 4.705 3.823 o
4 3 9 238.049 233.290 3.688 5.066 o
4 3 10 70.279 72.663 1.401 42.614 o
4 4 0 1290.790 1577.490 52.863 0.041 o
4 4 1 685.654 684.142 13.146 0.474 o
4 4 2 87.372 88.050 2.132 20.981 o
4 4 3 128.535 132.180 2.082 16.320 o
4 4 4 314.576 311.675 5.306 2.634 o
4 4 5 122.305 125.033 2.201 16.013 o
4 4 6 305.015 302.897 4.277 3.397 o
4 4 7 166.939 164.308 2.615 10.166 o
4 4 8 348.700 350.865 5.402 2.342 o
4 4 9 158.416 157.026 2.661 10.432 o
4 4 10 145.483 143.892 2.658 11.212 o
4 5 0 377.922 363.390 6.160 1.913 o
4 5 1 146.118 149.790 3.025 9.404 o
4 5 2 68.770 65.513 1.437 42.620 o
4 5 3 51.195 50.509 0.900 94.930 o
4 5 4 1997.360 1991.220 30.148 0.074 o
4 5 5 834.341 830.271 16.433 0.310 o
4 5 6 346.132 355.709 6.009 2.083 o
4 5 7 154.497 158.333 2.200 12.905 o
4 5 8 183.954 182.007 2.628 9.183 o
4 5 9 28.796 30.019 0.844 145.101 o
4 6 0 41.900 41.397 0.872 114.557 o
4 6 1 85.610 86.319 1.580 31.817 o
4 6 2 133.987 135.865 2.765 11.256 o
4 6 3 304.965 298.339 4.609 3.170 o
4 6 4 423.903 424.482 6.450 1.617 o
4 6 5 107.249 109.078 1.987 20.139 o
4 6 6 63.466 65.172 1.150 58.934 o
4 6 7 16.189 15.971 0.615 299.955 o
4 6 8 97.363 96.733 2.344 17.276 o
4 6 9 57.290 56.407 1.188 61.616 o
4 7 0 35.098 32.097 0.766 155.416 o
4 7 1 106.523 104.911 1.885 21.761 o
4 7 2 75.912 77.864 1.732 30.497 o
4 7 3 44.246 43.414 1.250 65.711 o
4 7 4 433.912 449.785 9.529 0.982 o
4 7 5 277.575 280.948 5.519 2.755 o
4 7 6 76.589 77.283 1.811 28.571 o
4 7 7 63.030 64.785 1.666 35.670 o
4 7 8 20.020 20.286 1.117 97.529 o
4 8 0 27.514 28.351 0.936 124.798 o
4 8 1 207.791 212.601 4.223 4.765 o
4 8 2 1.224 1.834 0.685 277.263 o
4 8 3 48.527 49.171 1.006 85.294 o
4 8 4 69.134 68.313 1.283 48.733 o
4 8 5 219.497 221.890 3.902 5.060 o
4 8 6 57.781 58.916 1.385 49.113 o
4 8 7 129.381 132.224 2.846 11.056 o
4 9 0 312.479 304.695 7.423 1.716 o
4 9 1 17.226 16.008 0.894 151.408 o
4 9 2 15.063 14.466 0.895 153.493 o
4 9 3 12.153 11.258 0.691 256.618 o
4 9 4 2.564 3.273 0.706 260.453 o
4 9 5 17.613 17.694 0.846 166.233 o
4 9 6 112.058 111.742 1.995 19.451 o
4 10 0 56.149 55.006 1.783 33.786 o
4 10 1 20.942 20.053 1.038 111.355 o
4 10 2 13.193 13.520 0.978 130.919 o
4 10 3 20.850 19.667 0.907 142.459 o
4 10 4 76.767 77.659 1.556 35.122 o
5 0 1 25.786 24.733 0.481 350.776 o
5 0 2 17.747 20.039 0.759 200.059 o
5 0 3 38.246 40.031 0.715 155.480 o
5 0 4 70.352 68.988 1.040 60.885 o
5 0 5 0.713 1.020 0.318 1281.570 o
5 0 6 5.687 6.541 0.311 1246.120 o
5 0 7 198.094 205.716 2.904 7.594 o
5 0 8 56.001 57.499 0.953 81.408 o
5 0 9 157.427 154.217 2.459 11.485 o
5 0 10 3.715 3.988 0.893 162.689 o
5 1 0 459.690 445.301 8.686 1.083 o
5 1 1 19.100 18.640 0.435 488.043 o
5 1 2 33.416 33.915 0.622 206.487 o
5 1 3 146.073 151.395 2.368 12.596 o
5 1 4 7.899 8.376 0.331 1053.720 o
5 1 5 354.747 360.983 4.982 2.486 o
5 1 6 17.869 17.553 0.548 353.339 o
5 1 7 98.039 97.124 1.634 27.485 o
5 1 8 96.875 98.858 1.621 27.792 o
5 1 9 66.069 65.021 1.213 54.133 o
5 1 10 11.325 11.225 0.607 328.887 o
5 2 0 312.639 320.174 6.267 2.143 o
5 2 1 65.302 64.572 1.369 46.663 o
5 2 2 255.305 256.482 5.934 2.638 o
5 2 3 22.548 22.679 0.577 293.712 o
5 2 4 54.160 54.275 0.962 83.415 o
5 2 5 152.636 153.822 2.747 10.322 o
5 2 6 139.344 139.889 2.522 12.312 o
5 2 7 74.809 76.626 1.342 42.961 o
5 2 8 280.222 279.239 5.604 2.692 o
5 2 9 66.898 66.514 1.610 36.617 o
5 2 10 3.771 3.353 0.568 400.030 o
5 3 0 3.008 3.288 0.302 1394.820 o
5 3 1 7.223 6.887 0.472 556.274 o
5 3 2 392.246 383.005 7.523 1.457 o
5 3 3 817.417 821.278 13.659 0.393 o
5 3 4 464.928 468.031 7.063 1.344 o
5 3 5 213.390 211.926 5.217 3.517 o
5 3 6 387.446 394.988 6.015 1.885 o
5 3 7 2.546 2.465 0.540 444.987 o
5 3 8 76.285 76.414 1.417 39.829 o
5 3 9 20.388 19.543 0.866 155.598 o
5 4 0 225.866 227.496 4.503 4.151 o
5 4 1 267.350 261.633 5.204 3.076 o
5 4 2 278.945 277.065 5.487 2.778 o
5 4 3 2.175 2.101 0.509 499.787 o
5 4 4 226.472 226.757 3.497 5.579 o
5 4 5 196.018 197.479 3.964 5.410 o
5 4 6 285.099 287.147 4.403 3.513 o
5 4 7 83.451 82.215 1.438 36.562 o
5 4 8 24.590 25.270 0.941 127.859 o
5 4 9 116.773 117.597 2.251 16.211 o
5 5 0 0.142 -0.055 0.376 921.917 o
5 5 1 344.451 353.598 6.860 1.779 o
5 5 2 84.631 81.054 1.752 28.459 o
5 5 3 56.650 57.150 1.337 52.346 o
5 5 4 206.228 203.849 3.161 6.808 o
5 5 5 45.437 46.497 1.025 86.592 o
5 5 6 8.980 8.572 0.635 309.745 o
5 5 7 247.405 244.042 3.823 4.694 o
5 5 8 19.786 20.014 0.774 190.101 o
5 6 0 73.132 69.360 1.338 44.779 o
5 6 1 265.139 258.665 4.436 3.758 o
5 6 2 124.407 124.238 2.542 13.275 o
5 6 3 61.548 64.520 1.469 43.328 o
5 6 4 10.970 10.517 0.525 432.134 o
5 6 5 50.230 49.585 0.993 85.231 o
5 6 6 206.309 207.728 3.674 5.723 o
5 6 7 48.614 49.440 1.175 68.570 o
5 6 8 159.316 157.767 2.379 11.715 o
5 7 0 214.555 202.664 3.880 5.282 o
5 7 1 119.419 115.151 2.105 17.493 o
5 7 2 104.036 105.569 1.936 21.301 o
5 7 3 243.717 245.773 4.929 3.498 o
5 7 4 153.411 150.418 3.159 8.677 o
5 7 5 98.295 97.667 1.686 26.445 o
5 7 6 154.987 150.988 2.702 10.493 o
5 7 7 77.997 77.513 1.979 24.905 o
5 8 0 18.247 17.906 0.739 210.764 o
5 8 1 82.727 82.865 1.603 32.121 o
5 8 2 65.828 65.677 1.648 35.638 o
5 8 3 43.039 41.608 1.268 65.142 o
5 8 4 30.989 30.414 1.359 63.412 o
5 8 5 123.852 122.602 2.355 14.725 o
5 8 6 64.228 65.243 1.551 39.378 o
5 9 0 33.954 32.934 1.352 62.789 o
5 9 1 5.287 5.123 0.921 152.559 o
5 9 2 1.201 1.099 0.906 158.491 o
5 9 3 117.183 116.611 2.599 13.398 o
5 9 4 45.086 46.565 1.479 49.362 o
5 10 0 0.037 -0.081 1.054 117.232 o
5 10 1 56.898 56.886 1.667 37.423 o
6 0 0 2683.470 2471.170 114.894 0.009 o
6 0 1 0.011 0.181 0.308 1369.620 o
6 0 2 40.112 41.249 0.754 140.988 o
6 0 3 60.334 62.398 1.060 67.493 o
6 0 4 124.131 123.650 1.962 18.145 o
6 0 5 200.967 207.003 3.211 6.771 o
6 0 6 5.450 4.580 0.482 545.850 o
6 0 7 40.320 39.941 0.965 101.636 o
6 0 8 486.122 475.438 8.429 1.072 o
6 0 9 2.820 2.850 0.889 164.356 o
6 1 0 226.340 213.750 4.571 4.123 o
6 1 1 128.044 127.033 2.254 15.125 o
6 1 2 135.721 138.580 2.141 15.095 o
6 1 3 5.914 7.357 0.719 247.311 o
6 1 4 263.207 268.372 4.054 4.117 o
6 1 5 142.347 142.978 2.261 13.691 o
6 1 6 72.866 72.019 1.477 39.214 o
6 1 7 154.042 150.127 2.401 12.043 o
6 1 8 308.433 293.167 4.570 3.191 o
6 1 9 185.127 181.240 2.897 8.291 o
6 2 0 64.433 68.270 1.473 41.943 o
6 2 1 116.683 118.820 2.117 17.447 o
6 2 2 110.991 115.428 2.048 18.783 o
6 2 3 430.939 434.312 7.998 1.247 o
6 2 4 412.557 405.009 6.943 1.539 o
6 2 5 349.400 358.391 5.438 2.307 o
6 2 6 88.673 91.243 1.540 31.704 o
6 2 7 133.706 134.207 2.189 15.015 o
6 2 8 45.488 44.740 1.095 79.319 o
6 2 9 84.740 82.705 1.736 28.669 o
6 3 0 87.417 86.806 1.746 27.735 o
6 3 1 6.822 7.520 0.455 598.811 o
6 3 2 179.372 176.435 4.368 5.015 o
6 3 3 47.042 46.217 1.710 38.319 o
6 3 4 147.394 150.419 2.640 11.094 o
6 3 5 51.750 52.995 1.126 70.139 o
6 3 6 68.124 68.197 1.235 51.438 o
6 3 7 157.966 156.230 2.526 11.088 o
6 3 8 5.174 4.337 0.707 257.652 o
6 4 0 6.135 6.664 0.538 437.378 o
6 4 1 59.206 60.942 1.367 49.290 o
6 4 2 194.332 191.160 3.862 5.662 o
6 4 3 50.060 49.759 1.245 62.316 o
6 4 4 346.232 350.311 5.933 2.122 o
6 4 5 5.419 5.697 0.606 348.786 o
6 4 6 78.490 77.754 1.545 35.080 o
6 4 7 27.588 27.895 0.828 152.990 o
6 4 8 201.759 206.559 3.249 6.676 o
6 5 0 88.571 87.388 1.454 34.303 o
6 5 1 17.938 16.971 0.784 191.149 o
6 5 2 403.115 403.137 7.955 1.323 o
6 5 3 51.760 51.830 1.303 57.151 o
6 5 4 323.798 313.728 7.749 1.583 o
6 5 5 34.990 34.408 1.086 90.314 o
6 5 6 59.373 61.020 1.080 67.027 o
6 5 7 52.738 52.312 1.122 70.120 o
6 6 0 9.674 10.871 0.682 267.273 o
6 6 1 340.199 332.473 5.054 2.593 o
6 6 2 129.653 129.965 2.699 11.912 o
6 6 3 27.147 27.325 0.927 127.689 o
6 6 4 15.464 15.433 0.813 182.792 o
6 6 5 73.643 73.369 1.895 27.339 o
6 6 6 81.882 82.868 1.509 34.815 o
6 6 7 120.412 123.477 2.320 15.191 o
6 7 0 42.882 39.806 1.459 51.902 o
6 7 1 111.363 109.866 2.086 18.575 o
6 7 2 89.130 87.428 1.949 23.683 o
6 7 3 59.250 60.024 1.459 44.974 o
6 7 4 25.821 25.066 0.984 117.405 o
6 7 5 35.880 36.401 1.172 78.667 o
6 7 6 48.498 48.406 1.307 58.734 o
6 8 0 257.842 260.578 5.415 2.972 o
6 8 1 23.911 23.190 0.837 158.315 o
6 8 2 59.381 56.432 1.279 54.827 o
6 8 3 48.880 49.078 1.461 49.081 o
6 8 4 564.465 555.699 10.924 0.694 o
6 9 0 202.835 198.918 7.196 2.149 o
6 9 1 83.644 80.720 2.029 23.262 o
7 0 1 328.484 327.893 5.586 2.388 o
7 0 2 98.043 100.777 1.633 27.202 o
7 0 3 388.300 402.669 6.855 1.619 o
7 0 4 37.502 38.225 0.921 112.544 o
7 0 5 11.907 13.139 0.653 283.521 o
7 0 6 549.450 542.198 9.210 0.870 o
7 0 7 30.184 31.587 0.858 138.535 o
7 0 8 27.262 25.519 0.936 126.414 o
7 1 0 0.050 -0.352 0.530 463.535 o
7 1 1 277.464 279.280 4.830 3.250 o
7 1 2 392.829 406.309 6.817 1.615 o
7 1 3 132.452 135.837 2.157 15.295 o
7 1 4 7.569 7.165 0.496 504.860 o
7 1 5 3.784 3.914 0.634 321.687 o
7 1 6 89.399 88.770 1.744 27.329 o
7 1 7 98.071 99.168 1.709 25.953 o
7 1 8 32.716 34.439 0.852 134.926 o
7 2 0 2.709 3.812 0.637 319.274 o
7 2 1 70.254 72.292 1.988 25.826 o
7 2 2 103.248 104.423 1.915 21.732 o
7 2 3 70.315 70.780 1.419 42.180 o
7 2 4 152.989 151.907 3.624 7.164 o
7 2 5 70.641 72.174 1.476 39.769 o
7 2 6 105.251 108.082 2.051 19.584 o
7 2 7 27.451 26.585 0.861 144.373 o
7 3 0 29.753 30.141 0.778 163.025 o
7 3 1 101.951 103.680 1.910 21.986 o
7 3 2 286.086 290.158 10.062 1.093 o
7 3 3 70.207 71.995 1.414 42.225 o
7 3 4 241.260 245.288 4.211 4.274 o
7 3 5 5.151 4.258 0.704 259.959 o
7 3 6 378.964 380.629 6.551 1.757 o
7 3 7 2.758 2.895 0.733 241.436 o
7 4 0 308.603 303.022 5.189 2.754 o
7 4 1 10.831 11.289 0.776 207.212 o
7 4 2 52.966 56.044 1.294 56.453 o
7 4 3 30.628 33.149 1.017 104.336 o
7 4 4 6.078 6.152 0.675 280.669 o
7 4 5 159.030 160.181 2.852 9.549 o
7 4 6 54.162 54.466 1.303 55.776 o
7 4 7 27.589 27.296 1.056 101.785 o
7 5 0 1.894 2.279 0.478 567.553 o
7 5 1 21.233 20.525 0.860 155.931 o
7 5 2 22.336 21.570 0.899 142.498 o
7 5 3 18.819 17.797 0.885 151.997 o
7 5 4 16.034 16.587 0.915 145.546 o
7 5 5 30.119 30.909 0.966 114.946 o
7 5 6 76.228 75.231 3.101 11.986 o
7 6 0 554.509 544.917 9.238 0.862 o
7 6 1 19.370 19.834 0.896 147.177 o
7 6 2 52.056 55.455 3.933 8.097 o
7 6 3 41.291 39.885 1.209 71.408 o
7 6 4 98.180 99.307 2.226 18.452 o
7 6 5 58.745 53.947 1.545 42.101 o
7 7 0 44.386 40.205 1.205 70.288 o
7 7 1 31.760 31.102 0.976 111.561 o
7 7 2 88.314 85.029 2.005 22.985 o
7 7 3 60.381 60.764 2.157 23.915 o
8 0 0 49.324 48.947 1.484 47.781 o
8 0 1 322.138 329.405 5.645 2.382 o
8 0 2 301.135 313.700 6.006 2.315 o
8 0 3 1.193 0.657 0.633 325.121 o
8 0 4 126.375 125.499 2.326 14.709 o
8 0 5 3.705 3.332 0.717 251.751 o
8 0 6 118.734 120.129 2.293 15.629 o
8 1 0 445.227 453.986 8.926 1.057 o
8 1 1 53.141 54.549 1.180 64.640 o
8 1 2 103.766 104.659 1.978 20.816 o
8 1 3 39.799 37.973 1.005 96.987 o
8 1 4 304.377 319.150 5.483 2.565 o
8 1 5 24.158 23.671 0.899 139.469 o
8 1 6 182.429 179.701 6.191 2.864 o
8 2 0 18.493 18.167 0.716 222.521 o
8 2 1 133.059 133.723 2.432 13.341 o
8 2 2 252.234 251.705 4.386 3.947 o
8 2 3 63.917 62.667 1.361 47.781 o
8 2 4 34.601 36.002 1.029 98.218 o
8 2 5 53.111 54.059 1.313 55.597 o
8 2 6 37.742 38.352 1.170 77.432 o
8 3 0 1.542 1.690 0.649 308.474 o
8 3 1 49.919 49.114 1.143 70.787 o
8 3 2 60.956 58.795 1.300 52.616 o
8 3 3 226.511 233.152 4.043 4.706 o
8 3 4 14.944 14.419 0.855 167.182 o
8 3 5 199.009 197.178 4.892 4.013 o
8 4 0 114.110 112.733 2.431 14.961 o
8 4 1 18.159 18.501 0.811 178.271 o
8 4 2 92.484 93.069 2.081 21.031 o
8 4 3 14.836 14.817 0.842 172.091 o
8 4 4 163.183 167.054 3.425 7.403 o
8 5 0 20.746 20.714 0.739 203.624 o
8 5 1 32.841 32.934 0.979 109.188 o
8 5 2 174.285 174.746 3.118 7.985 o
8 5 3 32.910 31.686 1.024 101.897 o
8 6 0 67.992 63.865 1.323 48.019 o
8 6 1 57.488 52.651 1.480 45.443 o
9 0 1 7.225 7.108 0.976 135.147 o
9 0 2 0.902 0.506 0.744 234.860 o
9 0 3 195.504 195.322 3.502 6.343 o
9 1 0 139.002 140.765 3.758 7.100 o
9 1 1 41.817 42.176 1.111 80.606 o
9 1 2 117.861 122.019 2.320 15.388 o
9 1 3 98.079 99.653 2.233 18.365 o
9 2 0 295.481 287.425 4.996 2.993 o
9 2 1 130.260 129.730 2.399 13.826 o
9 2 2 21.916 21.969 0.952 128.895 o
9 3 0 187.663 178.422 3.222 7.335 o
9 3 1 32.777 33.636 1.082 92.499 o
;
_olex2_submission_special_instructions 'No special instructions were received'
loop_
_space_group_symop_id
_space_group_symop_operation_xyz
1 x,y,z
2 x+1/2,-y+1/2,-z
3 -x,y+1/2,-z+1/2
4 -x+1/2,-y,z+1/2
loop_
_atom_site_label
_atom_site_type_symbol
_atom_site_fract_x
_atom_site_fract_y
_atom_site_fract_z
_atom_site_U_iso_or_equiv
_atom_site_adp_type
_atom_site_occupancy
_atom_site_refinement_flags_posn
O1 O -0.26784(4) -0.96262(4) -0.77795(3) 0.00487(8) Uani 1.000000 .
O2 O -0.43043(5) -1.12556(4) -0.88344(3) 0.00436(8) Uani 1.000000 .
O3 O -0.70861(4) -0.94888(4) -0.60023(3) 0.00467(8) Uani 1.000000 .
N1 N -0.44246(5) -1.03637(5) -0.52573(3) 0.00301(9) Uani 1.000000 .
H1 H -0.3590(10) -1.0399(8) -0.4504(8) 0.0131(17) Uiso 1.000000 .
N2 N -0.73431(5) -0.75559(4) -0.40101(4) 0.00359(9) Uani 1.000000 .
H2a H -0.7341(12) -0.6789(12) -0.3264(9) 0.023(2) Uiso 1.000000 .
H2b H -0.7019(12) -0.7019(10) -0.4880(9) 0.020(2) Uiso 1.000000 .
H2c H -0.8595(12) -0.7987(10) -0.4083(9) 0.021(2) Uiso 1.000000 .
C1 C -0.37324(6) -1.06536(5) -0.77663(4) 0.00251(10) Uani 1.000000 .
C2 C -0.42599(6) -1.13480(5) -0.63942(4) 0.00293(10) Uani 1.000000 .
H2 H -0.5536(10) -1.1857(9) -0.6545(6) 0.0138(16) Uiso 1.000000 .
C3 C -0.28342(7) -1.24504(5) -0.60452(5) 0.00728(11) Uani 1.000000 .
H3a H -0.3207(11) -1.3045(9) -0.5131(9) 0.029(2) Uiso 1.000000 .
H3b H -0.2689(10) -1.3143(10) -0.6896(8) 0.0255(18) Uiso 1.000000 .
H3c H -0.1549(10) -1.1946(9) -0.5867(8) 0.026(2) Uiso 1.000000 .
C4 C -0.58868(6) -0.95484(5) -0.51395(4) 0.00267(10) Uani 1.000000 .
C5 C -0.59815(6) -0.86696(5) -0.38220(5) 0.00393(10) Uani 1.000000 .
H5a H -0.4704(10) -0.8163(9) -0.3596(7) 0.0203(18) Uiso 1.000000 .
H5b H -0.6363(10) -0.9334(9) -0.2947(8) 0.028(2) Uiso 1.000000 .
loop_
_atom_site_aniso_label
_atom_site_aniso_U_11
_atom_site_aniso_U_22
_atom_site_aniso_U_33
_atom_site_aniso_U_12
_atom_site_aniso_U_13
_atom_site_aniso_U_23
O1 0.00764(16) 0.00431(16) 0.00266(15) -0.00268(14) 0.00164(12) -0.00120(13)
O2 0.00565(16) 0.00561(18) 0.00181(14) -0.00168(14) 0.00011(12) -0.00149(13)
O3 0.00558(16) 0.00468(18) 0.00376(15) 0.00144(13) -0.00144(12) -0.00124(13)
N1 0.00487(18) 0.0031(2) 0.00110(16) 0.00079(17) 0.00012(15) -0.00024(15)
N2 0.0045(2) 0.0027(2) 0.00355(18) 0.00129(16) 0.00046(15) -0.00022(16)
C1 0.0033(2) 0.0019(2) 0.00226(19) 0.00066(17) -0.00072(16) -0.00117(17)
C2 0.0049(2) 0.0021(2) 0.00181(19) 0.00056(19) -0.00014(17) -0.00011(16)
C3 0.0113(2) 0.0053(2) 0.0052(2) 0.00494(19) -0.00031(18) 0.00042(19)
C4 0.0043(2) 0.0025(2) 0.00126(19) 0.00019(19) 0.00010(15) 0.00005(17)
C5 0.0058(2) 0.0039(2) 0.00215(19) 0.00078(18) -0.00032(16) -0.00114(18)
loop_
_atom_type_symbol
_atom_type_description
_atom_type_scat_dispersion_real
_atom_type_scat_dispersion_imag
_atom_type_scat_source
_atom_type_scat_dispersion_source
C C 0.00347 0.00161
'Clementi & Roetti, C., At. Data Nucl. Data Tables 1974, 14, (177-478); Clementi & Raimondi, J. Chem. Phys., 1963, 38, (2686-2689)'
'Henke, Gullikson and Davis, At. Data and Nucl. Data Tables, 1993, 54, 2'
H H 0.00000 0.00000
'Clementi & Roetti, C., At. Data Nucl. Data Tables 1974, 14, (177-478); Clementi & Raimondi, J. Chem. Phys., 1963, 38, (2686-2689)'
'Henke, Gullikson and Davis, At. Data and Nucl. Data Tables, 1993, 54, 2'
N N 0.00653 0.00323
'Clementi & Roetti, C., At. Data Nucl. Data Tables 1974, 14, (177-478); Clementi & Raimondi, J. Chem. Phys., 1963, 38, (2686-2689)'
'Henke, Gullikson and Davis, At. Data and Nucl. Data Tables, 1993, 54, 2'
O O 0.01158 0.00611
'Clementi & Roetti, C., At. Data Nucl. Data Tables 1974, 14, (177-478); Clementi & Raimondi, J. Chem. Phys., 1963, 38, (2686-2689)'
'Henke, Gullikson and Davis, At. Data and Nucl. Data Tables, 1993, 54, 2'
loop_
_geom_angle_atom_site_label_1
_geom_angle_atom_site_label_2
_geom_angle_atom_site_label_3
_geom_angle
_geom_angle_site_symmetry_1
_geom_angle_site_symmetry_3
_geom_angle_publ_flag
C2 N1 H1 120.0(4) . . ?
C4 N1 H1 118.9(4) . . ?
C4 N1 C2 120.28(4) . . ?
H2b N2 H2a 103.3(7) . . ?
H2c N2 H2a 109.5(7) . . ?
H2c N2 H2b 111.2(7) . . ?
C5 N2 H2a 114.7(5) . . ?
C5 N2 H2b 107.3(5) . . ?
C5 N2 H2c 110.7(5) . . ?
O2 C1 O1 123.95(4) . . ?
C2 C1 O1 120.24(4) . . ?
C2 C1 O2 115.55(4) . . ?
C1 C2 N1 113.84(4) . . ?
H2 C2 N1 108.4(4) . . ?
H2 C2 C1 107.5(3) . . ?
C3 C2 N1 109.32(4) . . ?
C3 C2 C1 107.78(4) . . ?
C3 C2 H2 109.9(4) . . ?
H3a C3 C2 110.9(4) . . ?
H3b C3 C2 108.8(4) . . ?
H3b C3 H3a 109.8(6) . . ?
H3c C3 C2 110.5(4) . . ?
H3c C3 H3a 109.0(6) . . ?
H3c C3 H3b 107.8(6) . . ?
N1 C4 O3 124.25(4) . . ?
C5 C4 O3 120.73(4) . . ?
C5 C4 N1 115.02(4) . . ?
C4 C5 N2 108.59(3) . . ?
H5a C5 N2 108.3(4) . . ?
H5a C5 C4 111.6(4) . . ?
H5b C5 N2 109.1(4) . . ?
H5b C5 C4 110.3(4) . . ?
H5b C5 H5a 109.0(6) . . ?
loop_
_geom_bond_atom_site_label_1
_geom_bond_atom_site_label_2
_geom_bond_distance
_geom_bond_site_symmetry_2
_geom_bond_publ_flag
O1 C1 1.2549(6) . ?
O2 C1 1.2591(6) . ?
O3 C4 1.2293(6) . ?
N1 H1 0.963(8) . ?
N1 C2 1.4515(6) . ?
N1 C4 1.3458(7) . ?
N2 H2a 1.027(11) . ?
N2 H2b 1.016(10) . ?
N2 H2c 1.025(9) . ?
N2 C5 1.4803(6) . ?
C1 C2 1.5379(6) . ?
C2 H2 1.081(8) . ?
C2 C3 1.5330(7) . ?
C3 H3a 1.089(9) . ?
C3 H3b 1.061(9) . ?
C3 H3c 1.088(8) . ?
C4 C5 1.5289(7) . ?
C5 H5a 1.093(8) . ?
C5 H5b 1.096(9) . ?
loop_
_refln_index_h
_refln_index_k
_refln_index_l
_refln_F_squared_meas
_refln_F_squared_sigma
-1 0 0 -0.39 0.31
1 0 0 0.36 0.35
2 0 0 3691.45 124.97
-3 0 0 2.31 0.87
3 0 0 1.41 1.1
4 0 0 708.78 24.25
-4 0 0 717.91 24.17
5 0 0 -1.13 2.03
-5 0 0 1.91 1.37
6 0 0 8142.54 262.94
-6 0 0 7417.66 261.83
7 0 0 -0.15 3.24
-7 0 0 -0.63 2.27
8 0 0 153.15 7.28
-8 0 0 155.28 6.11
9 0 0 0.61 5.33
-10 0 0 19.12 5.53
10 0 0 18.13 7.09
-11 0 0 -2.33 7.23
0 1 0 -0.04 0.4
0 -1 0 -0.31 0.42
-1 -1 0 1110.41 39.29
-1 -1 0 1201.01 40.19
-2 -1 0 9999.99 316.93
2 1 0 8774.4 316.37
4 -1 0 395.71 13.62
4 1 0 390.31 13.73
-4 -1 0 405.3 13.66
-5 -1 0 1397.37 47.41
5 -1 0 1434.56 47.45
5 1 0 1381.13 47.51
-6 -1 0 694.14 23.04
6 1 0 642.43 23.2
6 -1 0 683.76 23.17
-7 -1 0 0.12 2.42
7 -1 0 -2.63 3.27
7 1 0 -1.25 3.27
8 -1 0 1418.44 48.87
-8 -1 0 1471.32 48.54
8 1 0 1404.28 48.9
-9 -1 0 409.62 16.03
9 -1 0 449.53 16.67
-9 -1 0 476.64 15.92
9 1 0 434.42 16.56
-10 -1 0 2.39 5.63
10 -1 0 3.27 7.58
-10 -1 0 -0.42 4.93
10 1 0 -1.53 6.71
-11 -1 0 571.41 22.45
-11 1 0 650.8 22.48
-1 2 0 3118.27 104.65
-1 -2 0 3036.73 104.05
-1 -2 0 3059.26 104.23
1 2 0 3068.05 104.66
-2 -2 0 936.21 31.75
-2 -2 0 931.43 31.75
2 2 0 949.44 31.76
-3 -2 0 1507.04 51.21
-3 -2 0 1486.87 50.52
3 2 0 1500.37 50.54
4 -2 0 482.9 16.05
-4 -2 0 456.13 16.2
4 2 0 475.45 16.26
-5 -2 0 1027.68 34.26
5 -2 0 1030.29 34.17
5 2 0 969.51 34.3
-6 -2 0 215.62 8
6 -2 0 216.99 7.97
6 2 0 213.34 8.18
-7 -2 0 9 2.91
7 -2 0 15.73 3.48
7 2 0 10.23 3.39
8 2 0 53.89 4.93
-8 -2 0 57.95 4.31
8 -2 0 58.56 4.96
-8 -2 0 58.05 4.06
-9 -2 0 883.02 31.24
9 2 0 881.41 31.71
-9 -2 0 930.53 31.32
9 -2 0 929.55 31.82
10 -2 0 6.99 7.71
-10 -2 0 3.19 5.62
10 2 0 0.23 6.6
-10 2 0 -1.36 5.74
-10 -2 0 -1.16 5.95
-11 -2 0 97.93 8.83
0 3 0 0.84 1.2
1 3 0 86.21 3.31
-1 -3 0 86.5 3.14
1 -3 0 90.09 3.31
-1 3 0 80.52 3.34
-1 -3 0 87.9 3.43
-3 -3 0 549.35 18.77
-4 -3 0 4992.73 165.51
4 3 0 4913.65 166.61
-4 -3 0 4878.98 166.27
-5 -3 0 8.43 2.22
5 -3 0 11.24 1.36
-5 -3 0 9.58 2.35
5 3 0 10.05 2.38
-6 -3 0 265.8 9.97
6 3 0 287.85 10.16
6 -3 0 262.65 9.69
-6 -3 0 278.76 10.02
7 3 0 96.9 5.1
-7 -3 0 96.38 4.84
-7 -3 0 91.08 4.87
7 -3 0 95.87 4.84
-8 -3 0 7.71 3.98
8 -3 0 2.72 4.57
-8 -3 0 8.7 3.79
8 3 0 1.52 4.16
-9 -3 0 564.97 20.22
-9 -3 0 553.92 20.1
9 3 0 558.85 20.41
9 -3 0 573.65 20.58
-10 -3 0 665.26 23.55
10 -3 0 654.44 24.48
-10 -3 0 658.68 23.61
-10 3 0 664.46 23.35
10 3 0 625.23 23.78
0 -4 0 1242.82 42.21
0 4 0 1258.37 42.2
1 -4 0 39.16 2.25
1 4 0 41.48 2.23
-1 -4 0 43.2 2.43
-1 -4 0 48.09 1.84
-1 4 0 40.06 2.3
-3 4 0 570.59 20.46
3 4 0 604.93 20.46
-3 -4 0 606.97 20.56
-3 -4 0 617.47 20.51
-4 -4 0 4976.29 166.76
5 4 0 704.33 24.6
-5 -4 0 716.57 24.58
-5 -4 0 731.56 24.63
-6 -4 0 21.52 3.23
-6 -4 0 16.6 3.03
6 -4 0 23.61 2
6 4 0 16.78 2.93
7 4 0 956.41 32.84
7 -4 0 967.58 32.58
-7 -4 0 964.1 32.83
-7 -4 0 934.81 32.7
8 -4 0 360.32 13.28
-8 -4 0 358.59 13.25
8 4 0 347.64 13.31
9 4 0 306.66 12.45
-9 -4 0 314.03 12.53
-9 -4 0 305.18 12.44
9 -4 0 335 13.2
10 4 0 79.59 7.25
10 -4 0 77.63 9.33
-10 4 0 69.14 7.18
-10 -4 0 75.6 7.78
-10 -4 0 76.87 7.45
0 5 0 -0.1 1.88
0 -5 0 -0.08 2.04
-1 -5 0 3.2 2.15
1 5 0 3.95 1.83
-1 5 0 3.68 1.94
1 -5 0 -0.52 1.82
-1 -5 0 1.67 1.02
-2 -5 0 762.12 26.25
-2 5 0 757.5 26.2
-2 -5 0 787.42 26.11
-3 -5 0 737.43 24.34
-3 5 0 693.51 24.36
-3 -5 0 699.61 24.43
3 5 0 722.65 24.24
-4 -5 0 1130.77 38.88
-4 -5 0 1149.67 38.9
-4 5 0 1127.27 38.84
4 5 0 1176.28 38.84
-5 5 0 1.58 2.95
5 5 0 1.06 2.39
-5 -5 0 -0.59 2.5
-5 -5 0 -1.21 3.08
-5 5 0 -1.71 2.53
-6 5 0 281.14 10.37
-6 -5 0 269.23 10.27
-6 5 0 285.31 10.11
-6 -5 0 282.57 10.38
6 5 0 258.59 10.15
-7 -5 0 6.46 3.85
-7 -5 0 6.57 3.71
7 -5 0 8.45 2.65
7 5 0 6.83 3.43
-7 5 0 7.02 3.72
8 -5 0 65.09 5.03
-8 5 0 70.93 5.33
8 5 0 61.76 5.02
-8 -5 0 65.35 5.44
-8 -5 0 63.35 5.29
9 -5 0 26.2 6.53
9 5 0 18.24 5.29
-9 -5 0 36.51 5.96
-9 5 0 19.8 5.66
-9 -5 0 7.96 5.6
-10 5 0 587.86 20.56
-10 -5 0 562.3 20.67
-10 -5 0 535.89 21.01
10 5 0 528.89 20.5
0 6 0 1484.98 50.24
0 -6 0 1491.35 50.3
-1 -6 0 417.87 14.91
1 6 0 428.06 15.2
-1 6 0 429.85 15.25
-1 -6 0 473.56 15.38
-2 6 0 1953.53 66.26
-2 -6 0 1905.55 66.21
-2 -6 0 2085.25 66.33
2 -6 0 1920.18 66.21
-3 -6 0 168.57 6.39
-3 6 0 170.6 6.75
-3 -6 0 173.76 6.89
3 6 0 168.13 6.13
-4 6 0 127.1 5.74
-4 -6 0 135.14 5.36
4 6 0 126.74 5.13
-4 -6 0 133.32 5.86
-5 -6 0 223.22 8.35
-5 6 0 216.61 8.63
5 6 0 215.93 8.17
-5 -6 0 219.31 8.64
-6 -6 0 33.66 3.65
-6 -6 0 34.88 4.19
6 6 0 34.44 3.45
-7 -6 0 1710.19 58.31
7 6 0 1701.3 58.28
-7 -6 0 1690.89 58.41
-7 6 0 1770.84 58.13
-8 -6 0 212.34 9.08
-8 6 0 202.88 8.72
8 -6 0 208.36 8.25
-8 -6 0 184.07 9.04
8 6 0 196.3 8.6
-9 -6 0 38.78 6.46
-9 -6 0 41.54 6.53
9 6 0 29.21 5.64
9 -6 0 35.8 6.73
-9 6 0 43.42 5.96
-10 -6 0 -1.67 7.68
10 6 0 2.46 6.83
-10 6 0 4.68 7.08
-10 -6 0 1.36 8.13
0 7 0 -2.51 2.63
0 -7 0 1.16 2.9
-1 7 0 156.29 6.44
-1 -7 0 162.03 6.65
2 -7 0 2.98 2.82
-2 7 0 2.29 2.88
-2 -7 0 2.3 3.2
-2 -7 0 -1.15 1.87
-3 7 0 7.69 3.2
-3 -7 0 7.87 3.29
-3 -7 0 6.23 2.19
-4 7 0 104.41 5.4
4 7 0 99.23 4.23
-4 -7 0 96.76 5.36
-4 -7 0 104.35 4.64
5 7 0 635.76 21.96
-5 -7 0 680.08 22.46
-5 -7 0 623.96 22.17
-5 7 0 614.19 22.39
-6 -7 0 119.37 6.02
6 7 0 122.25 5.65
-6 -7 0 135.58 6.4
-7 -7 0 130.49 6.62
-7 -7 0 118.71 6.98
7 7 0 129.48 6.22
-8 -7 0 281.72 12.08
-8 -7 0 305.83 12.01
8 7 0 292.56 11.58
-9 -7 0 400.67 16.12
9 -7 0 400.99 15.69
-9 -7 0 402.57 16.07
9 7 0 416.64 15.47
0 8 0 187.42 7.43
0 -8 0 182.89 7.69
1 -8 0 3.17 3.44
-1 8 0 2.92 3.24
-1 -8 0 2.94 3.44
-2 8 0 120.81 5.85
-2 -8 0 125.25 5.94
2 -8 0 121.88 5.71
-3 -8 0 423.94 14.7
-3 -8 0 408.61 15.19
-3 8 0 423.68 15.18
-4 -8 0 87.01 5.47
-4 8 0 87.75 5.58
-4 -8 0 92.04 4.51
-5 -8 0 56.07 4.05
5 8 0 57.22 3.47
-5 -8 0 55.55 5.01
-6 -8 0 815.55 28.5
-6 -8 0 857.59 28.78
6 8 0 791.57 28.17
-7 -8 0 35.72 5.87
7 8 0 35.99 4.27
-7 -8 0 42.93 5.09
8 8 0 118.57 6.64
-8 -8 0 117.32 8.16
-8 -8 0 125.39 7.66
-9 -8 0 666.54 24.25
-9 -8 0 643.07 24.21
0 -9 0 -2.51 4.06
1 -9 0 21.93 4.43
-1 -9 0 21.37 4.39
-2 -9 0 1680.69 55.48
-2 -9 0 1631.48 55.86
2 -9 0 1616.27 55.66
-2 9 0 1639.2 55.71
-3 9 0 25.22 4.43
-3 -9 0 22.23 2.94
-3 -9 0 18.89 4.48
-4 -9 0 945.91 33.3
-4 -9 0 975.65 32.93
-5 -9 0 100.94 5.55
-5 -9 0 107.88 6.67
-6 -9 0 649 22.21
-6 -9 0 603.6 22.58
7 9 0 47.66 4.7
-7 -9 0 54.3 6.8
-7 -9 0 48.11 5.78
-8 -9 0 768.88 27.54
-8 -9 0 755.16 27.29
0 -10 0 6141.73 206.14
-1 -10 0 136.88 7.34
-1 -10 0 140.37 5.55
1 -10 0 134.97 7.58
-2 -10 0 590.03 20.34
-2 -10 0 521.76 19.42
2 -10 0 569.71 20.05
-3 -10 0 341.21 12.25
-3 -10 0 334.51 13.32
-4 -10 0 169.14 8.66
-4 -10 0 176.58 7.4
-5 -10 0 1.59 5.82
-5 -10 0 -1.54 4.05
-6 -10 0 1408.78 48.37
-6 -10 0 1414.96 48.67
-8 -10 0 2.44 7.31
0 -11 0 4.11 6.33
-1 -11 0 -1.42 6.03
-1 -11 0 1.22 2.85
1 -11 0 3.26 6.31
-2 -11 0 24.43 6.33
-2 -11 0 35.02 3.58
-3 -11 0 48.58 6.65
-3 -11 0 46.39 4.18
-4 -11 0 1035.05 34.46
-4 -11 0 965.18 35.12
-5 -11 0 361.32 13.8
-5 -11 0 369.44 15.16
-6 -11 0 11.67 5.74
-6 -11 0 14.14 7.74
-7 -11 0 87.85 7.7
-7 -11 0 83.61 9.73
0 -12 0 1823.93 62.62
1 -12 0 5.96 7.71
-1 -12 0 0.39 7.6
-1 -12 0 -2.44 3.46
-2 -12 0 496.19 18.63
-2 -12 0 560.81 20.5
-3 -12 0 1.72 8.08
-3 -12 0 -0.25 4.33
-4 -12 0 137.3 9.92
-4 -12 0 142.25 7.24
-5 -12 0 56.75 6.13
-5 -12 0 60.04 9.23
-6 -12 0 907.17 33.03
0 -13 0 10.96 9.41
-1 -13 0 18.89 9.57
-1 -13 0 16.67 4.23
1 -13 0 18.17 9.91
-2 -13 0 938.49 31.46
-2 -13 0 883.06 33.37
-3 -13 0 24.49 9.87
-3 -13 0 31.59 5.26
-4 -13 0 583.92 23.38
-4 -13 0 590.68 21.24
0 -14 0 479.69 21.45
-1 -14 0 16.58 11.96
-1 -14 0 11.47 5.14
1 -14 0 10.2 12.66
-2 -14 0 449.22 20.55
0 0 -1 0.39 0.32
0 0 1 -0.31 0.23
0 0 -1 -0.01 0.22
0 0 1 -0.18 0.26
2 0 -1 2746.08 97.71
-2 0 -1 3089.9 97.8
-2 0 1 2922.61 98
2 0 1 2703.03 97.32
-2 0 1 2954.9 98.05
-3 0 1 1024.68 33.8
-3 0 1 1011.62 33.78
-3 0 -1 998.74 33.74
3 0 -1 974.81 33.78
3 0 1 986.61 33.76
-4 0 -1 103.41 3.82
4 0 1 106.62 4
-4 0 1 103.68 3.83
4 0 -1 97.82 4.02
-4 0 1 99.34 4.04
-5 0 -1 77.96 3.19
-5 0 1 80.17 3.14
5 0 1 78.58 3.57
5 0 -1 73.32 3.6
-5 0 1 79 3.55
6 0 -1 2.15 2.67
-6 0 1 2.15 1.72
-6 0 -1 -1.73 1.92
-6 0 1 1.49 2.53
6 0 1 -1.16 2.57
7 0 -1 997.59 35.37
-7 0 -1 1083.23 35.07
-7 0 1 1008.1 35.15
7 0 1 1043.59 35.38
8 0 1 1062.55 35.82
8 0 -1 1059.4 35.84
-8 0 1 1004.77 35.5
-8 0 -1 1028.54 35.31
9 0 -1 19.18 5.72
-9 0 1 24.22 4.85
9 0 1 22.49 5.55
-10 0 1 40.5 6.26
10 0 1 31.66 7.21
10 0 -1 40.26 7.33
-11 0 1 218.65 11.16
-1 -1 -1 5776.67 196.17
-2 -1 1 4468.79 150.96
-3 1 1 1225.69 42.79
3 1 1 1311.7 42.84
4 1 1 1183.95 39.01
-4 1 -1 1181.01 38.94
-4 -1 1 1153 38.96
4 -1 1 1124.5 38.92
4 1 -1 1137.48 39.01
4 -1 -1 1212.79 38.97
-4 -1 1 1076.87 38.9
5 1 1 56.21 3.17
5 1 -1 61.85 3.24
5 -1 -1 62.17 3
-5 -1 1 53.7 3.08
5 -1 1 59.47 2.93
-5 -1 -1 61.09 2.81
-5 1 1 60.42 3.06
-5 1 -1 59.24 2.47
-5 -1 1 61.02 2.92
6 1 1 387.59 14.28
-6 -1 1 393.61 14.23
-6 1 1 389.17 14.15
6 -1 -1 415.3 14.28
6 1 -1 423.62 14.38
-6 -1 1 405.22 14.09
-6 -1 -1 408.77 14.08
6 -1 1 415.63 14.24
-7 -1 -1 920.26 30.35
7 -1 -1 874.34 30.58
-7 1 1 885.27 30.36
7 -1 1 904.59 30.56
-7 -1 1 866.21 30.4
7 1 1 881.81 30.59
7 1 -1 880.7 30.61
-7 -1 1 900.74 30.32
8 -1 1 161.32 7.71
8 -1 -1 170.05 7.84
-8 -1 -1 174.99 7.04
-8 -1 1 173.25 6.93
8 1 1 177.71 7.71
-8 1 1 173.93 7.51
8 1 -1 174.71 7.7
-8 -1 1 167.01 7.4
9 1 1 125.86 7.46
-9 -1 -1 135.36 6.49
9 -1 -1 140.7 7.68
9 1 -1 128.65 7.76
9 -1 1 127.72 7.82
-9 -1 1 128.68 6.95
-9 -1 1 135.8 6.23
-9 1 1 132.42 6.94
-10 -1 -1 16.69 4.96
-10 1 1 23.19 6.18
10 -1 1 28 7.53
10 1 -1 16.51 7.34
-10 -1 1 20.32 5.97
10 1 1 23.93 7.21
10 -1 -1 22.22 7.5
-11 -1 1 36.55 7.86
-11 1 1 37.21 7.71
0 2 -1 6101.06 206.66
1 2 -1 3008.43 100.35
-1 -2 1 2887.26 99.96
-1 -2 1 2870.39 100.01
1 2 1 2808.19 100.46
1 2 -1 3133.88 100.46
-1 -2 -1 3019.54 100.38
2 -2 -1 5783.63 196.06
-2 -2 1 5667.92 195.7
2 2 -1 5858.24 195.42
-2 -2 1 5906.74 195.45
-2 2 1 5767.66 195.41
3 2 1 857.79 28.77
3 -2 1 868.94 28.74
-3 -2 1 842.01 28.74
-3 -2 -1 858.21 28.74
-3 -2 1 847.22 28.76
3 2 -1 816.45 28.75
4 2 -1 3229.95 108.6
4 2 1 3291.17 109.71
-4 2 1 3091.23 108.38
-4 -2 1 3187.64 108.56
-4 -2 -1 3270.15 109.79
4 -2 -1 3332.71 109.38
4 -2 1 3201.9 109.29
5 2 1 205.53 7.57
5 -2 1 210.85 7.28
-5 -2 -1 203.69 7.43
5 -2 -1 204.62 7.31
5 2 -1 202.88 7.6
-5 -2 1 200.81 7.57
-5 2 1 195.67 7.41
6 -2 -1 386.76 13.31
-6 2 1 368.15 13.3
6 2 1 372.13 13.44
6 2 -1 387.5 13.52
-6 -2 -1 375.13 13.28
6 -2 1 388.88 13.27
-6 -2 1 368.61 13.29
-6 -2 1 371.19 13.38
-7 -2 1 223.03 8.58
-7 2 1 217.26 8.68
7 2 1 235.7 8.93
-7 -2 -1 217.78 8.51
7 2 -1 231.66 8.94
-7 -2 1 210.23 8.84
7 -2 -1 241.01 8.78
7 -2 1 233.29 8.74
-8 -2 1 423.58 15.14
-8 2 1 417.43 15.16
8 2 1 422.7 15.46
8 2 -1 435.78 15.54
-8 -2 -1 388.4 15.02
8 -2 1 438.02 15.46
-8 -2 1 410.96 15.27
8 -2 -1 429.92 15.52
-9 -2 1 415.97 14.83
9 2 1 396.71 15.23
-9 2 1 401.49 14.94
-9 -2 1 403.47 15.01
-9 -2 -1 387.25 14.76
9 -2 1 397.45 15.41
9 -2 -1 420.13 15.5
9 2 -1 395.92 15.34
-10 -2 -1 7.91 6.02
-10 -2 1 10.15 6.07
10 2 1 7.15 6.71
10 -2 -1 11.1 8.16
10 2 -1 8.44 6.65
-10 2 1 16.28 6
10 -2 1 7.06 8.04
-10 -2 1 8.86 5.55
-11 -2 1 240.99 11.7
-11 -2 -1 241.83 12.11
-1 3 -1 2016.97 70.08
-1 -3 -1 1999.34 69.75
-1 -3 1 2079.03 69.23
1 3 -1 1988.08 69.7
-1 -3 1 2133.59 70.6
1 3 -1 2095.14 70.29
1 -3 -1 2051.24 69.01
-2 -3 1 654.16 22.36
-2 -3 -1 691.12 22.36
2 -3 -1 655.69 22.35
2 3 -1 630.12 22.34
2 3 1 658.85 22.33
-2 -3 1 670.62 22.42
2 -3 -1 654.35 22.33
2 3 -1 650.91 22.34
3 3 1 1280.73 44.79
-3 -3 1 1270.51 44.78
3 3 -1 1306.02 44.73
-3 -3 1 1347.61 44.84
-3 3 1 1431.47 44.77
-4 -3 1 1245.28 40.4
4 3 1 1168.02 40.35
-4 -3 -1 1204.73 40.36
4 3 -1 1187.98 40.38
-4 -3 1 1185.43 40.34
-4 3 1 1162.66 40.25
-5 3 1 19.96 2.55
5 3 -1 22.07 2.49
-5 -3 1 21.85 2.44
5 3 1 21.82 2.58
5 -3 1 23.45 1.72
-5 -3 -1 20.98 2.32
-5 -3 1 21.45 2.75
-6 -3 1 22.04 3.23
-6 3 1 17.14 2.98
6 -3 -1 24.76 2.42
-6 -3 -1 21.23 2.72
-6 -3 1 24.35 2.9
6 3 -1 20.72 2.96
6 3 1 22.55 3.15
6 -3 1 21.6 2.24
-7 3 1 321.88 11.95
-7 -3 1 333.84 12.02
7 3 1 323.05 12.17
-7 -3 1 316.77 12.05
7 3 -1 330.81 12.13
7 -3 -1 333.73 11.96
7 -3 1 333.9 11.86
-8 -3 1 148.69 6.95
-8 3 1 152.22 7.01
8 3 1 156.04 7.36
8 3 -1 151.08 7.17
8 -3 1 156.22 7.27
-8 -3 -1 154.24 6.94
8 -3 -1 158.37 7.27
-8 -3 1 156.87 7.28
-9 -3 1 101.98 6.67
-9 3 1 104.68 6.62
9 -3 -1 108.71 7.43
-9 -3 -1 101.21 6.33
-9 -3 1 107.41 6.64
9 3 -1 101.53 6.76
9 3 1 106.59 6.66
9 -3 1 102.55 7.4
-10 -3 1 891.12 30.7
10 -3 -1 885.1 31.55
-10 -3 -1 866.52 30.7
-10 -3 1 847.66 30.64
10 3 -1 876.34 30.95
-10 -3 -1 847.79 30.38
-10 3 1 926.3 30.68
10 3 1 870.08 30.94
10 -3 1 831.06 31.35
0 -4 1 1662.28 56.99
0 -4 -1 1702.31 56.97
0 4 -1 1712.39 57
1 -4 -1 2589.87 85.94
-1 -4 1 2574.15 85.95
-1 4 -1 2509.56 85.95
2 4 -1 2043.03 67.62
-2 -4 -1 1976.23 67.69
-2 -4 1 2037.44 67.72
2 -4 -1 2042.76 67.67
-2 4 -1 1936.97 67.67
2 4 -1 2025.44 67.73
2 4 1 2034.86 67.81
-2 -4 -1 1987.69 67.58
-3 -4 -1 517.19 16.34
3 4 1 453.79 16.27
3 4 -1 467 16.3
-3 -4 1 469.1 16.47
3 4 -1 459.7 16.29
-3 -4 1 470.57 16.36
-3 -4 -1 489.53 16.35
-4 -4 -1 2071.15 71.83
-4 -4 -1 2110.48 71.65
-4 -4 1 2169.44 71.8
-4 -4 1 2151.72 71.87
4 4 -1 2135.8 71.85
4 4 1 2153.22 71.82
-5 -4 -1 859.18 28.43
5 4 1 840.65 28.42
5 4 -1 818.4 28.43
-5 -4 1 829.09 28.43
-5 -4 -1 862.19 28.3
-5 -4 1 805.45 28.45
-5 4 1 806.14 28.32
6 4 1 192.19 7.4
6 4 -1 180.49 7.33
6 -4 1 189.37 6.85
-6 4 1 180.95 7.37
-6 -4 -1 188.38 7.3
-6 -4 1 194.32 7.62
-6 -4 -1 176.82 7.25
-6 -4 1 190.31 7.39
7 4 -1 32.01 3.76
-7 -4 1 31.21 3.75
7 -4 1 35.18 3.16
-7 4 1 33.79 3.87
-7 -4 1 29.67 4.14
7 4 1 38.5 3.95
-7 -4 -1 34.84 3.82
7 -4 -1 39.34 3.37
-7 -4 -1 32.55 3.68
8 -4 -1 60.38 5.23
8 4 1 58.2 4.99
-8 4 1 51.59 4.88
8 -4 1 60.77 4.84
-8 -4 -1 48.28 4.57
-8 -4 1 57.06 5.37
-8 -4 1 57.74 4.92
-8 -4 -1 53.22 4.72
8 4 -1 52.31 4.88
-9 -4 1 490.63 18.45
9 -4 1 523.35 18.8
-9 -4 -1 480.43 18.09
9 4 1 506.92 18.38
-9 -4 1 498.76 18.43
9 4 -1 498.55 18.44
-9 4 1 491.71 18.21
-9 -4 -1 509 18.41
9 -4 -1 507.8 18.9
10 4 1 62.87 6.94
-10 -4 -1 60.09 7.29
10 -4 -1 58.85 9.48
-10 -4 1 59.55 7.91
-10 -4 1 61.59 6.98
-10 -4 -1 61.13 6.67
10 -4 1 52.75 9.68
10 4 -1 62.16 7.16
-10 4 1 66.14 6.89
0 5 -1 46.84 2.7
0 -5 -1 43.93 2.8
0 -5 1 46.57 2.83
-1 -5 1 285.48 10.89
1 -5 1 290.03 10.7
-1 5 -1 313.27 10.86
1 -5 -1 296.61 10.82
-1 -5 -1 319.21 10.89
1 5 -1 337.99 10.91
-2 -5 -1 2431.73 81.2
-2 -5 1 2359.87 81.2
2 5 -1 2403.06 81.78
-2 -5 -1 2433.43 81.11
-2 -5 1 2483.12 81.19
-2 5 -1 2351.18 81.12
2 -5 -1 2415.36 81.13
2 5 -1 2427.05 81.11
-3 -5 -1 409.78 14.12
3 5 -1 410.88 13.99
3 5 1 372.11 13.84
-3 -5 1 405.36 14.23
3 5 -1 402.65 13.9
-3 -5 1 413.95 14.02
-3 5 -1 390.31 14
-3 -5 -1 421.33 14
-4 -5 -1 479.14 16.48
-4 -5 1 471.84 16.51
4 5 1 478.24 16.39
-4 -5 -1 490.5 16.56
-4 -5 1 467.16 16.68
4 5 -1 463.16 16.41
5 5 1 1130.64 37.41
-5 -5 -1 1069.07 37.44
-5 -5 -1 1091.32 37.36
5 5 -1 1097 37.43
-5 -5 1 1110.01 37.51
-5 -5 1 1105.27 37.52
-6 -5 -1 50.08 4
-6 -5 1 59.3 4.43
6 5 -1 53.55 3.81
6 5 1 50.05 3.66
-6 5 1 54.93 3.89
-6 -5 -1 59.07 3.88
-6 -5 1 52.3 3.84
-7 -5 -1 60.09 4.51
-7 -5 -1 72.16 4.74
7 -5 1 64.65 3.68
-7 -5 1 66.53 4.73
-7 5 1 66.91 4.62
7 5 -1 59.24 4.5
7 5 1 67.65 4.42
-7 -5 1 58.15 5
8 -5 -1 109.04 5.94
-8 -5 1 98.22 6.56
-8 -5 1 100.71 6.3
8 5 1 105.62 5.97
-8 -5 -1 107.9 6.17
8 5 -1 105.72 6.07
8 -5 1 106.08 5.77
-8 5 1 110.72 6.14
-8 -5 -1 106.35 6.19
9 -5 -1 70.39 7.55
9 -5 1 61.07 6.77
-9 -5 -1 61.42 6.12
-9 -5 1 58.11 6.55
9 5 1 55.23 5.93
9 5 -1 65.65 6.01
-9 -5 1 65.51 6.7
-9 -5 -1 57.22 5.91
-9 5 1 69.93 6.08
-10 -5 -1 143.27 8.77
10 5 1 144.82 8.66
-10 5 1 152.96 8.76
-10 -5 1 148.31 9.7
-10 -5 1 139 9.13
10 5 -1 156.96 8.9
-10 -5 -1 130.02 9.55
0 -6 -1 4249.94 142.31
0 6 -1 4295.55 144.22
0 -6 1 4183.92 144.33
-1 -6 -1 1780.12 58.59
-1 6 -1 1722.07 58.58
1 -6 1 1773.18 58.54
1 -6 -1 1729.28 58.57
-1 -6 1 1700.59 58.48
1 6 -1 1622.98 58.52
-1 -6 1 1824.16 58.64
-2 6 -1 265.88 10.25
2 -6 -1 279.38 10.24
-2 -6 -1 270.77 9.91
-2 -6 1 280.84 9.97
2 6 -1 295.23 10.24
-2 -6 -1 296.18 10.32
-2 -6 1 295.57 10.43
-3 -6 -1 223.21 8.2
3 6 -1 220.46 8.01
-3 -6 1 224.29 8.23
-3 6 -1 233.2 8.51
-3 -6 1 221.38 8.66
3 6 -1 235.38 8.33
-3 -6 -1 225.48 8.53
-4 -6 -1 277.56 9.88
4 6 -1 283.5 9.74
-4 6 -1 272.61 10.08
-4 -6 1 272.83 9.91
-4 -6 -1 258.49 10.11
-4 -6 1 269.01 10.25
4 6 1 274.38 9.67
5 6 1 819.57 27.85
-5 6 -1 808.37 27.99
-5 -6 1 844.65 28
-5 -6 1 789.09 28.11
-5 -6 -1 817.56 27.95
5 6 -1 807.94 27.87
-6 6 -1 1067.95 35.44
-6 -6 -1 1081.3 35.7
6 6 1 1039.24 35.58
-6 -6 -1 1072.17 35.73
-6 6 -1 1015.9 35.66
-6 -6 1 1029.62 35.82
6 6 -1 948.64 35.58
-6 -6 1 1087.92 35.77
7 6 1 65.66 4.51
-7 -6 -1 57.44 5.08
-7 -6 1 62.45 5.36
-7 -6 1 58.54 4.92
7 6 -1 57.57 4.6
-7 -6 -1 60.59 4.67
-8 -6 1 172.81 8.26
-8 -6 1 164.99 8.46
-8 -6 -1 180.01 8.02
8 6 -1 170.24 7.76
8 6 1 160.88 7.61
8 -6 1 175.47 7.41
-8 -6 -1 149.65 8.03
-9 6 1 139.43 8.07
-9 -6 -1 137.34 8.24
9 -6 -1 150.07 8.75
-9 -6 1 143.3 8.5
9 6 -1 133.57 7.64
9 -6 1 138.8 8.46
-9 -6 -1 136.44 7.94
9 6 1 123.55 7.48
10 6 1 39.22 7.03
-10 6 1 37.35 7.54
-10 -6 -1 32.54 8.38
-10 -6 1 47.08 8.84
-10 -6 -1 40.67 7.79
0 -7 1 152.68 6.27
0 -7 -1 150.98 6.3
0 7 -1 135.3 6.07
-1 -7 -1 86.29 4.72
-1 7 -1 88.39 4.48
-1 -7 1 86.55 3.49
1 -7 1 87.05 4.31
-1 -7 1 91.78 4.71
1 -7 -1 89.95 4.65
1 7 -1 80.52 4.31
-2 -7 1 441.09 14.45
-2 -7 -1 420.59 14.86
2 7 -1 420.93 14.7
-2 7 -1 400.84 14.8
-2 -7 1 396.72 14.89
2 -7 -1 415.33 14.76
-3 -7 1 28.66 3.73
-3 7 -1 30.33 3.66
-3 -7 1 30.2 2.68
-3 -7 -1 34.59 3.68
-3 -7 -1 29.61 2.54
3 7 -1 30.57 3.02
-4 -7 -1 342.84 12.15
-4 -7 1 327.48 11.78
-4 7 -1 344.26 12.18
4 7 1 315.36 11.43
4 7 -1 305.1 11.47
-4 -7 1 337.56 12.23
-4 -7 -1 317.99 11.72
5 7 -1 361.54 12.92
-5 -7 -1 359.84 13.11
-5 -7 1 363.27 13.17
-5 7 -1 356.63 13.52
-5 -7 1 382.36 13.62
-5 -7 -1 376.32 13.44
5 7 1 350.77 12.85
-6 -7 -1 376.43 13.34
-6 -7 1 349.98 13.07
-6 -7 1 337.17 13.37
-6 7 -1 356.42 13.47
6 7 1 342.51 12.76
-6 -7 -1 363.4 13.02
6 7 -1 352.12 12.79
-7 7 -1 90.09 7.04
7 7 -1 93.27 5.34
7 7 1 97.13 5.44
-7 -7 -1 94.06 5.85
-7 -7 1 102.16 5.9
-7 -7 1 100.68 6.61
-7 -7 -1 98.33 6.19
-8 -7 -1 141.55 8.03
-8 -7 1 143.41 8.55
8 7 1 175.61 7.45
-8 -7 1 157.2 8.18
-8 -7 -1 153.34 7.9
8 -7 1 151.33 7.01
8 7 -1 133.63 7.33
-9 -7 1 -0.4 7.1
-9 -7 1 12.09 7.2
9 7 -1 -5.06 5.97
-9 -7 -1 5.03 6.64
9 7 1 2.6 5.48
-9 -7 -1 -2.81 6.64
9 -7 1 -3.79 6.7
9 -7 -1 -6.35 6.81
0 -8 1 441.16 15.95
0 -8 -1 431.25 15.98
0 8 -1 463.26 15.89
-1 -8 -1 417.7 14.63
-1 -8 1 402.42 14.61
1 8 -1 407.67 14.39
-1 -8 1 382.1 13.85
1 -8 1 407.32 14.39
1 -8 -1 399.84 14.59
-1 8 -1 395.42 14.48
2 8 -1 1007.12 32.96
2 -8 -1 952.25 33.05
-2 -8 -1 959.56 32.71
-2 -8 -1 926.77 33.1
-2 -8 1 993.91 32.76
-2 -8 1 963.2 33.17
-2 8 -1 942.44 33.09
-3 -8 1 984.57 34.24
-3 -8 -1 997.57 33.85
-3 8 -1 992.69 34.18
-3 -8 -1 999.19 34.16
-3 -8 1 996.86 33.88
-4 -8 -1 627.04 23.08
-4 -8 1 662.32 22.81
-4 -8 1 666.75 23.24
-4 -8 -1 652.07 22.75
-4 8 -1 682.82 23.18
-5 -8 -1 266.44 10.44
-5 -8 1 256.59 10.57
5 8 -1 271.79 9.52
-5 -8 1 263.21 9.93
-5 -8 -1 232.97 9.82
5 8 1 255.42 9.41
-5 8 -1 271.35 10.72
-6 -8 1 71.61 5.1
-6 -8 1 78.21 6.08
6 8 -1 75.96 4.47
-6 8 -1 72.57 6.56
6 8 1 71.76 4.28
-6 -8 -1 68.47 5.87
-6 -8 -1 76.51 4.94
-7 -8 -1 112.46 6.43
-7 8 -1 108.85 8.41
7 8 1 113.92 5.7
-7 -8 1 104.46 7.41
-7 -8 -1 107.55 7.04
7 8 -1 105.29 5.71
-7 -8 1 105.64 6.52
-8 -8 -1 222.18 9.89
-8 -8 -1 203.83 9.62
8 8 1 206.78 8.91
-8 -8 1 207.73 10.53
-8 -8 1 196.92 9.84
8 8 -1 194.88 8.86
-9 -8 -1 609.91 24.56
-9 -8 1 679.57 24.89
-9 -8 1 704.89 24.92
-9 -8 -1 692.73 24.77
0 -9 1 30.17 4.46
0 9 -1 26.64 3.93
0 -9 -1 30.44 4.62
-1 -9 1 540.11 19.78
-1 9 -1 517.58 19.56
1 -9 1 579.62 19.61
-1 -9 1 566.87 18.97
1 9 -1 554.83 19.47
-1 -9 -1 554.53 19.73
1 -9 -1 556.34 19.7
-2 9 -1 36.15 4.44
-2 -9 1 35.5 4.86
2 9 -1 32.83 3.86
-2 -9 -1 34.84 2.91
-2 -9 1 45.42 2.97
-2 -9 -1 32.91 4.77
2 -9 -1 26.63 4.72
-3 9 -1 332.63 12.82
-3 -9 -1 333 12.87
-3 -9 1 337.31 12.11
-3 -9 -1 336.51 12.02
-3 -9 1 336.29 13.02
-4 -9 -1 57.4 5.39
-4 -9 1 50.91 4.02
-4 -9 -1 52.95 3.85
-4 9 -1 49.68 5.5
-4 -9 1 50.53 5.69
-5 -9 1 15.19 5.65
-5 -9 -1 14.06 3.85
-5 -9 -1 14.44 5.11
-5 9 -1 13.23 5.94
-5 -9 1 18.04 4.12
-6 9 -1 247.71 11.86
6 9 -1 247.88 9.73
-6 -9 -1 280.9 10.39
-6 -9 -1 256.42 11.03
-6 -9 1 266.51 11.21
-6 -9 1 249.05 10.35
-7 -9 -1 658.39 23.98
7 9 -1 663.49 23.27
-7 -9 -1 662.42 23.76
-7 -9 1 677.31 23.85
-7 -9 1 645.07 24.25
7 9 1 691.92 23.23
-8 -9 -1 169.14 9.46
-8 -9 -1 188.72 9.85
8 9 -1 164.46 8.24
-8 -9 1 188.96 10.51
-8 -9 1 175.2 9.61
0 10 -1 83.92 5.44
0 -10 -1 75.52 5.96
1 -10 -1 377.82 14.2
-1 -10 -1 363.59 14.11
-1 -10 1 360.83 14.2
-1 -10 1 363.42 12.92
-1 10 -1 355.9 13.82
1 -10 1 374.3 13.94
1 10 -1 381.3 13.67
-2 -10 1 387.16 14.48
-2 -10 1 378.52 13.25
-2 -10 -1 366.85 13.18
-2 -10 -1 371.44 14.28
-2 10 -1 363.97 14.06
2 -10 -1 361.63 14.27
-3 -10 -1 229.26 8.81
-3 10 -1 227.33 9.97
-3 -10 1 238.64 8.93
-3 -10 -1 226.58 10.07
-3 -10 1 228.79 10.32
-4 -10 1 68 6.65
-4 -10 1 61.54 4.58
-4 -10 -1 68.75 6.26
-4 -10 -1 67.17 4.58
-4 10 -1 61.68 6.59
-5 -10 1 178.3 9.34
-5 -10 -1 165.74 7.67
-5 -10 1 187.73 7.84
-5 10 -1 166.57 9.67
-5 -10 -1 167.86 8.81
-6 -10 -1 190.77 8.63
-6 -10 1 187.63 10.12
-6 10 -1 191.12 10.94
-6 -10 -1 203.51 9.54
-6 -10 1 183.98 8.72
-7 -10 -1 235.52 11.44
-7 -10 1 239.97 12.01
-8 -10 1 677.6 24.89
0 11 -1 40.32 5.3
0 -11 -1 52.33 6.49
0 -11 1 60.83 6.56
-1 11 -1 817.69 28.8
-1 -11 1 870.2 29.26
-1 -11 -1 818.32 28.04
-1 -11 -1 776.33 29.08
-1 -11 1 807.44 28.1
1 -11 1 839.37 28.98
-2 -11 1 403.6 13.88
-2 -11 1 375.45 15.39
2 -11 -1 385.03 15.4
-2 11 -1 389.45 14.9
-2 -11 -1 391.43 13.82
-2 -11 -1 371.7 15.07
-3 -11 -1 50.92 6.44
-3 -11 1 58.41 7.37
-3 11 -1 60.23 6.75
-3 -11 -1 64.48 4.44
-3 -11 1 61.04 4.51
-4 -11 -1 292.04 12.63
-4 11 -1 293.89 13
-4 -11 1 295.22 11.49
-4 -11 -1 305.56 11.51
-4 -11 1 307.47 13.22
-5 -11 -1 161.89 7.65
-5 -11 1 157.14 7.78
-5 11 -1 146.67 10.04
-5 -11 1 161.94 9.87
-5 -11 -1 161.31 9.13
-6 -11 1 38.99 5.91
-6 -11 -1 28.85 5.74
-6 -11 -1 31.53 7.78
-6 -11 1 30.73 8.27
-7 -11 1 564.86 22.82
-7 -11 -1 596.27 21.8
-7 -11 1 610.69 21.98
0 -12 1 450.06 17.81
0 -12 -1 439.08 17.76
-1 -12 1 298.29 13.41
1 -12 -1 294.74 13.6
-1 -12 -1 287.48 10.74
1 -12 1 291.71 12.94
-1 -12 1 294.59 10.82
-1 -12 -1 284.02 13.05
-2 -12 1 211.85 8.44
2 -12 -1 201.64 11.33
-2 -12 -1 200.43 8.32
-2 -12 1 206.48 11.12
-2 -12 -1 200.89 10.71
-3 -12 1 13.71 8
-3 -12 1 14.72 4.54
-3 -12 -1 10.22 4.39
-3 -12 -1 11.42 7.22
-4 -12 1 68.25 5.7
-4 -12 1 76.07 8.94
-4 -12 -1 56.86 8.09
-4 -12 -1 70.17 5.78
-5 -12 1 82.53 6.83
-5 -12 1 95.43 9.55
-5 -12 -1 88.68 6.61
-5 -12 -1 91.62 8.91
-6 -12 -1 135.55 8.57
-6 -12 1 145.43 8.57
-6 -12 -1 132.92 10.62
-6 -12 1 146.14 11.17
0 -13 1 378.36 16.38
0 -13 -1 331.95 16.36
-1 -13 1 325.55 15.7
-1 -13 -1 342.34 12.4
-1 -13 1 338.79 12.49
-1 -13 -1 309.92 15.41
1 -13 -1 349.74 16.25
-2 -13 1 3.66 9.25
2 -13 -1 -0.6 10.2
-2 -13 -1 -2.82 4.59
-2 -13 -1 4.47 9.1
-2 -13 1 4.27 4.93
-3 -13 1 27.48 5.28
-3 -13 -1 34.7 5.34
-3 -13 -1 23.18 9.05
-3 -13 1 15.56 9.55
-4 -13 -1 94.32 6.93
-4 -13 1 89.16 10.63
-4 -13 -1 82.13 10.15
-4 -13 1 94.21 6.93
0 -14 -1 0.22 12.8
0 -14 1 55.82 12.65
1 -14 -1 46.31 13.21
-1 -14 -1 41.97 5.42
-1 -14 1 47.76 5.6
-1 -14 -1 37.61 12.22
-1 -14 1 47.08 12.86
-2 -14 -1 312.93 17.26
-2 -14 1 313.97 17.35
0 0 -2 1790.89 61.1
-3 0 2 34.99 1.87
3 0 2 43.11 1.94
3 0 -2 42.21 2.08
-3 0 -2 44.26 1.86
-3 0 2 40.35 2.25
3 0 -2 37.51 2.03
4 0 2 27.56 1.92
-4 0 2 26.93 1.74
-4 0 -2 28.9 1.75
-4 0 2 29.49 2.38
4 0 -2 27.83 2.07
-5 0 2 74.09 3.53
-5 0 -2 64.45 2.87
5 0 -2 60.17 3.3
5 0 2 57.78 3.15
-5 0 2 59.85 2.79
-6 0 2 128.79 5.63
6 0 -2 128.89 5.57
-6 0 2 125.73 4.9
6 0 2 130.01 5.52
-6 0 -2 136.6 5.1
-7 0 2 313.83 11.14
7 0 -2 309 11.79
7 0 2 314.25 11.7
-7 0 2 321.72 11.73
-7 0 -2 329.36 11.29
8 0 2 993.72 34.12
-8 0 2 973.61 33.92
8 0 -2 935.97 34.12
-8 0 -2 1047.13 33.69
9 0 2 10.17 5.56
-9 0 -2 -0.2 3.48
-9 0 2 -3.69 5.2
9 0 -2 1.54 5.83
10 0 -2 35.48 8.06
10 0 2 33.38 7.17
-10 0 2 38.12 6.33
-11 0 2 28.21 7.93
0 -1 2 22.72 1.09
0 1 2 22.38 0.96
0 -1 -2 22.08 1.06
0 -1 -2 24.75 0.97
0 1 2 21.85 1.01
2 1 -2 817.21 28.09
-2 -1 2 826.97 28.1
2 1 -2 830.36 28.1
2 -1 -2 831.43 28.09
-2 -1 2 825.32 28.1
-2 -1 -2 837.68 28.05
-2 1 2 826.39 28.08
2 -1 -2 833.08 28.22
2 -1 2 838.29 28.05
3 -1 2 1089.54 36.75
-3 -1 -2 1174.14 36.78
3 1 -2 1062.78 36.82
3 -1 -2 1130.23 36.83
3 1 2 1116.23 36.81
3 -1 -2 1026.48 36.75
-3 1 -2 1123.44 36.78
3 1 -2 1053.6 36.76
-3 1 2 1025.44 36.76
-3 -1 2 1132.18 36.83
-3 -1 2 1044.06 36.79
-4 -1 -2 413.18 14.6
4 -1 2 443.87 14.62
4 1 2 433.55 14.72
-4 1 -2 441.59 14.54
-4 -1 2 426.31 14.67
4 1 -2 418.27 14.74
4 -1 -2 422.7 14.64
-4 -1 2 418.12 14.78
-4 1 2 417.5 14.76
-5 1 -2 106.48 4.03
-5 1 2 100.15 4.61
5 -1 -2 107.88 4.42
-5 -1 2 115.63 4.74
5 -1 2 106.67 4.31
5 1 -2 107.47 4.62
-5 -1 -2 109.77 4.21
-5 -1 2 105.18 4.33
5 1 2 99.68 4.5
-6 -1 -2 429.25 14.98
6 -1 -2 427.77 15.2
-6 1 2 416.23 15.19
6 1 2 447.21 15.25
-6 -1 2 437.42 15.02
-6 -1 2 417.36 15.22
-6 1 -2 453.27 14.83
6 1 -2 434.47 15.28
6 -1 2 421.26 15.12
-7 -1 -2 1274.73 42.87
7 1 -2 1238.4 43.13
7 1 2 1277.75 43.08
-7 -1 2 1222.88 42.95
-7 -1 2 1320.94 42.89
-7 1 2 1285.43 42.96
7 -1 -2 1301.13 43.11
7 -1 2 1187.89 43
8 -1 -2 316.07 12.73
-8 1 2 331.38 12.52
-8 -1 2 331.32 12.58
-8 -1 -2 346.9 12.2
8 1 2 331.8 12.62
-8 -1 2 339.34 12.02
8 1 -2 339.63 12.8
8 -1 2 330.01 12.68
-9 1 2 371.23 14.51
9 -1 -2 389.56 15.17
-9 -1 2 387.22 13.97
9 -1 2 402.22 14.98
9 1 -2 362.36 15
-9 -1 2 381.05 14.65
9 1 2 381.7 14.85
-9 -1 -2 416.49 14.25
10 -1 -2 26.61 7.78
10 1 2 17.12 6.98
-10 1 2 15.09 6.36
10 1 -2 20.41 7.26
-10 -1 2 21.55 6.45
10 -1 2 20.81 7.58
-10 -1 -2 22.79 5.11
-11 1 2 96.14 8.96
-11 -1 2 100.38 9.12
0 2 -2 176.04 6.21
0 -2 2 177.75 6.13
2 -2 -2 6260.33 219.4
-2 -2 2 6711.77 219.6
2 2 2 6718.06 219.71
2 2 -2 6209.14 218.72
-2 -2 2 6654.54 219.52
3 2 -2 5473.11 180.89
3 2 -2 5485.75 180.79
-3 -2 -2 5152.41 180.28
3 -2 -2 5098.36 180.09
-3 -2 2 5599.47 180.33
-3 -2 2 5373.29 180.44
3 -2 2 5188.11 180.7
3 2 2 5446.46 180.44
-4 2 2 1471.63 51.31
4 2 -2 1529.35 51.44
-4 -2 -2 1527.08 51.36
4 -2 -2 1627.83 52.19
4 2 2 1511.42 51.39
-4 -2 2 1505.95 51.4
4 -2 2 1492.68 51.29
-4 -2 2 1512.38 51.38
5 -2 -2 839.27 27.25
-5 2 2 784.33 27.34
-5 -2 2 761.08 27.38
5 -2 2 833.87 27.24
-5 -2 -2 790.48 27.29
-5 -2 2 840.73 27.36
5 2 2 789.23 27.37
5 2 -2 770.27 27.4
6 2 2 349.67 12.95
-6 2 2 353.25 12.96
-6 -2 2 368.81 12.85
6 -2 -2 368.19 12.84
6 -2 2 358.73 12.76
6 2 -2 367.34 13.02
-6 -2 2 369.01 13.05
7 2 2 330.02 12.14
-7 2 2 317.6 12.08
7 -2 -2 344.26 12.12
-7 -2 2 313.41 12.14
7 2 -2 321.09 12.16
-7 -2 2 328.47 11.93
-7 -2 -2 346.04 11.85
7 -2 2 326.48 11.94
8 2 -2 767.14 27.79
8 -2 2 810.29 27.74
-8 -2 -2 812.59 27.49
-8 -2 2 808.98 27.51
-8 -2 2 788.61 27.65
8 2 2 771.33 27.74
8 -2 -2 805.83 27.8
-8 2 2 803.41 27.6
9 -2 2 71.52 6.7
-9 -2 2 69.78 5.44
-9 2 2 75.28 6.03
9 -2 -2 66.21 6.69
-9 -2 -2 70.87 5.53
-9 -2 2 73.35 5.87
9 2 -2 66.99 6.21
9 2 2 66.28 6.23
10 -2 -2 34.96 8.36
-10 -2 2 37.34 5.84
10 -2 2 37.63 7.96
-10 -2 2 35.14 6.78
-10 -2 -2 47.54 6.62
-10 2 2 33.89 6.76
10 2 2 34.44 6.93
10 2 -2 38 7.11
0 -3 2 2533.29 86.07
0 3 -2 2526.67 86.04
-1 -3 -2 1894.88 63.34
-1 -3 2 1911.2 62.8
1 3 -2 1902.17 64.55
1 3 -2 1776.44 62.87
-1 -3 2 1843.45 62.86
-2 -3 2 266.3 9.62
-2 -3 2 279.64 9.5
2 3 -2 282.87 9.61
-2 -3 -2 260.35 9.41
2 3 2 269.9 9.4
2 3 -2 272.44 9.45
3 3 -2 1677.32 56.53
-3 -3 -2 1585.87 56.47
-3 -3 2 1676.99 56.54
3 -3 -2 1648.06 56.42
3 3 -2 1711.86 56.46
-3 -3 2 1639.87 56.5
3 3 2 1788.99 56.53
3 -3 -2 1679.89 56.44
4 3 -2 326.74 11.53
-4 -3 2 327.25 11.69
4 -3 2 327.21 11.26
-4 -3 2 324.15 11.52
4 3 -2 332.16 11.42
4 3 2 333.41 11.5
-4 -3 -2 322.5 11.46
-4 3 2 325.91 11.55
-5 -3 2 1198.83 41.12
5 3 2 1221.83 41.1
-5 -3 -2 1230.72 41.06
-5 -3 2 1203.72 41.09
5 -3 2 1208.7 40.92
5 3 -2 1203.28 41.13
6 3 2 563.75 19.46
-6 -3 -2 558.88 19.33
-6 -3 2 549.17 19.51
-6 3 2 549.72 19.41
6 -3 2 565.02 19.22
6 3 -2 561.63 19.5
-7 -3 2 915.32 31.74
-7 -3 -2 953.81 31.71
-7 3 2 921.74 31.7
7 -3 2 905.63 31.6
8 -3 2 186.74 8.06
8 3 2 184.5 8.08
-8 3 2 193.69 8.15
8 3 -2 187.59 8.19
-8 -3 -2 185.1 7.72
8 -3 -2 187.8 8.36
-8 -3 2 186.2 8.13
-8 -3 2 183.41 8.24
-9 3 2 277.92 10.96
-9 -3 -2 254.3 10.69
9 -3 -2 274.04 11.5
-9 -3 2 266.26 10.86
-9 -3 2 261.67 10.99
9 -3 2 264.23 11.43
9 3 -2 263.01 11.06
9 3 2 249.09 11.06
-10 -3 2 217.66 10.58
-10 -3 -2 224.26 10.49
10 3 -2 202.33 10.53
-10 3 2 220.34 10.3
10 -3 2 227.55 11.93
10 -3 -2 204.02 12.23
10 3 2 211.18 10.69
-10 -3 2 210.6 10.35
0 -4 2 933.57 31.3
0 4 -2 915.72 31.34
-1 -4 2 728.91 25.19
1 4 -2 750.54 25.21
-1 -4 2 746.01 25.09
-1 4 -2 733.98 25.13
-2 -4 2 478.19 16.53
2 4 -2 487.25 16.66
2 4 -2 483.96 16.47
-2 -4 -2 484.69 16.48
2 4 2 462.54 16.4
-2 -4 2 489.75 16.7
2 -4 -2 487.97 16.59
3 4 2 976.47 34.01
3 -4 -2 1003.25 34.05
3 -4 -2 1002.39 34.02
-3 -4 -2 1021.39 34.06
3 4 -2 1026.56 34.1
-3 -4 2 962.56 34.1
-3 -4 2 1032.37 34.21
3 4 -2 1019.35 34.08
-4 -4 2 287.03 10.19
4 4 -2 284.19 9.87
4 4 -2 264.51 9.87
-4 -4 2 263.12 9.93
-4 -4 -2 281.27 9.89
4 4 2 282.38 9.86
-5 -4 2 871.66 30.05
5 4 -2 880.75 29.96
5 -4 2 879.25 29.7
-5 4 2 857.08 29.89
-5 -4 2 863.16 29.97
-5 -4 -2 894.48 29.9
5 4 2 886.84 29.92
-6 -4 -2 617.36 21.01
6 4 -2 616.62 21.08
6 4 2 604.26 21.04
-6 -4 2 619.16 21.08
6 -4 2 590.92 20.74
-6 -4 2 584.47 21.18
-6 4 2 604.83 21.02
-7 4 2 167.6 7.34
-7 -4 2 174.92 7.42
-7 -4 -2 166.48 7.16
-7 -4 2 163.12 7.56
7 -4 -2 184.85 7.1
7 4 -2 163.66 7.35
7 -4 2 177.79 6.93
7 4 2 181.48 7.42
-8 -4 -2 289.69 11.25
-8 -4 2 300.26 11.61
8 4 -2 281.87 11.39
-8 4 2 301.48 11.38
8 -4 2 294.46 11.31
8 -4 -2 309.08 11.61
8 4 2 283.06 11.43
-8 -4 2 280.79 11.42
-9 -4 -2 239.16 10.35
-9 4 2 249.37 10.58
9 -4 2 261.96 11.18
-9 -4 2 257.26 11.01
9 -4 -2 254.85 11.43
9 4 -2 243.33 10.66
9 4 2 256.26 10.72
10 4 -2 4.51 6.6
-10 -4 2 13.52 7.58
10 4 2 4.45 6.61
-10 -4 2 8.38 6.91
10 -4 2 13.2 9.05
-10 4 2 12.55 6.62
-10 -4 -2 7.5 6.13
-10 -4 -2 5.63 6.65
10 -4 -2 -1.15 9.16
0 -5 -2 584.01 20.43
0 5 -2 609.35 20.51
0 -5 2 596.14 20.41
-1 -5 2 153.49 6.11
-1 -5 2 159.39 5.67
1 5 -2 164.06 6.14
1 -5 -2 160.74 6.07
-1 5 -2 149.22 6.01
2 -5 -2 1012.14 33.84
-2 -5 2 1010.43 33.77
2 5 -2 981.05 33.67
-2 -5 2 1008.73 33.93
-2 -5 -2 1017.07 33.72
-2 5 -2 944.49 33.75
2 5 -2 1001.83 33.86
-3 -5 -2 439.86 14.98
3 5 -2 442.05 14.94
3 -5 -2 433.53 15.09
-3 -5 2 447.87 15.06
3 -5 -2 412.65 14.98
-3 -5 2 434.11 15.3
3 5 -2 435.16 15.09
3 5 2 420.13 14.85
4 5 -2 203.89 7.68
4 5 2 204.52 7.59
4 5 -2 215.78 7.78
-4 -5 -2 213.86 7.74
-4 -5 2 207.29 7.81
-4 -5 2 208.43 8.18
-5 -5 2 254.46 9.9
-5 -5 -2 257.64 9.41
5 5 2 245.47 9.32
-5 -5 2 266.59 9.52
-5 -5 -2 250.88 9.45
5 5 -2 267.41 9.48
-6 -5 2 1290 43.55
6 5 -2 1235.89 43.44
-6 -5 2 1244.05 43.47
-6 -5 -2 1246.2 43.19
-6 -5 -2 1340.22 43.44
6 5 2 1280.21 43.37
6 -5 2 1295.29 43.18
-7 -5 2 71.77 5.26
-7 -5 2 68.75 4.98
7 -5 2 71.68 4.01
7 5 2 64.27 4.57
-7 -5 -2 63.09 4.56
7 5 -2 71.39 4.65
-7 -5 -2 64.01 4.74
8 5 -2 542.76 19.61
-8 5 2 556.87 19.62
-8 -5 -2 523.17 19.57
-8 -5 2 530.4 19.78
8 -5 2 551.68 19.41
8 5 2 545.02 19.54
-8 -5 2 549.35 19.78
-8 -5 -2 546.11 19.41
8 -5 -2 577.69 19.59
-9 5 2 7.24 5.53
-9 -5 -2 4.38 5.61
-9 -5 2 2.61 6.03
9 5 2 1.54 5.3
9 5 -2 5.81 5.52
-9 -5 -2 6.63 5.46
9 -5 2 8.21 6.27
9 -5 -2 0.92 6.77
-9 -5 2 -0.69 6.23
10 5 -2 19.66 7.04
-10 -5 -2 10.41 7.1
-10 5 2 16.73 6.97
-10 -5 2 16.37 8.47
-10 -5 -2 20.29 6.91
-10 -5 2 14.62 7.49
10 5 2 25.43 6.59
0 6 -2 13.92 2.56
0 -6 -2 15.21 2.74
0 -6 2 16.35 2.45
1 -6 -2 288.6 10.59
-1 -6 2 282.69 10.13
-1 -6 -2 284.92 10.49
-1 6 -2 298.9 10.57
1 6 -2 288.86 10.57
-1 -6 2 305.11 10.63
-2 6 -2 1399.99 47.75
2 -6 -2 1400.85 47.76
-2 -6 2 1408.76 47.85
-2 -6 -2 1418.13 47.71
-2 -6 -2 1388.79 47.63
-2 -6 2 1452.67 47.7
-3 -6 2 1101.68 36.83
-3 -6 -2 1094.72 36.62
-3 -6 2 1067.11 36.61
-3 6 -2 1038.44 36.61
3 -6 -2 1066.53 36.63
3 6 -2 1098.64 36.65
3 6 -2 1078 36.47
3 -6 -2 1078.3 36.52
-3 -6 -2 1080.12 36.56
4 6 -2 407.42 14.88
4 6 -2 442.65 15.07
-4 -6 -2 458.05 15.13
4 6 2 431.47 14.84
-4 -6 2 422.28 15.41
-4 -6 -2 406.72 14.97
-4 -6 2 431.54 15.09
5 6 2 381.79 13.6
-5 -6 -2 372.52 13.73
-5 -6 -2 400.34 13.87
-5 -6 2 399.96 14.24
-5 -6 2 394.36 13.85
5 6 -2 369.99 13.67
-6 -6 -2 401.22 14.69
-6 -6 2 416.84 14.77
6 6 2 419.58 14.49
6 6 -2 407.5 14.58
-6 -6 2 391.42 15
7 6 -2 161.95 7.22
7 -6 2 160.97 6.74
-7 -6 2 166.63 7.53
7 6 2 196.22 7.21
-7 -6 -2 156.3 7.32
-7 -6 -2 163.14 7.52
-7 -6 2 151.89 7.91
8 6 2 412.14 15.68
-8 -6 2 431.01 16.15
8 -6 2 424 15.57
-8 -6 -2 425.72 15.93
-8 -6 -2 427.39 15.89
-8 -6 2 452.89 16.26
8 6 -2 427.69 15.86
-9 -6 -2 136.32 8.29
9 6 -2 149.09 8.22
-9 -6 2 159.82 9.13
9 -6 2 151.24 8.76
9 -6 -2 169.42 9.65
-9 -6 2 162.45 8.88
-9 -6 -2 148.35 8.31
9 6 2 133.35 7.9
-10 -6 2 2.62 8.99
-10 -6 -2 -0.83 8.09
0 7 -2 441.49 15.89
0 -7 2 449.86 15.81
0 -7 -2 456.34 15.93
-1 -7 2 260.58 10.16
1 -7 -2 279.15 10.21
1 7 -2 291.98 10.17
-1 -7 2 275.14 9.55
-1 -7 -2 262.29 10.15
-1 7 -2 262.57 10.11
-2 -7 2 519.43 18.07
-2 7 -2 527.89 18.4
2 -7 -2 528.46 18.44
-2 -7 -2 526.6 18.41
-2 -7 2 519.29 18.49
-3 7 -2 762.92 27.51
-3 -7 -2 788.64 27.52
-3 -7 2 836.95 27.74
3 7 -2 806.08 27.47
-3 -7 2 802.28 27.37
3 -7 -2 782.62 27.49
-3 -7 -2 818.7 27.31
3 -7 -2 801.08 27.31
-4 -7 -2 263.4 9.14
4 7 -2 228.77 8.85
-4 -7 -2 249.94 9.51
-4 -7 2 240.76 9.14
-4 -7 2 251.77 9.81
4 7 -2 237.79 9.16
-4 7 -2 244.87 9.48
-5 -7 2 322.39 12.12
5 7 2 349.25 11.79
-5 -7 -2 330.62 12.04
-5 -7 2 328.6 12.64
5 7 -2 326.49 11.86
-5 7 -2 329.16 12.35
-6 -7 2 264.86 10.6
6 7 -2 262.42 10.27
-6 -7 -2 273.28 10.74
6 7 2 279.79 10.26
-6 -7 -2 289.51 10.51
-6 -7 2 282.47 11.15
-7 -7 2 258.73 11.41
-7 -7 -2 291.88 10.87
-7 -7 2 275.32 11.04
-7 -7 -2 279.61 11.04
7 7 2 269.39 10.47
8 -7 2 149.27 7.28
-8 -7 2 157.01 8.37
8 7 -2 152.75 7.61
8 7 2 154.19 7.32
-8 -7 -2 152.28 7.99
-8 -7 -2 151.53 8.19
-8 -7 2 163.8 8.56
-9 -7 2 630.36 23.29
-9 -7 -2 628.71 23.05
-9 -7 2 648.92 23.43
-9 -7 -2 621.73 22.86
9 7 -2 612.71 22.65
9 7 2 633.4 22.54
0 -8 2 100.32 5.05
0 8 -2 88.17 4.95
0 -8 -2 91.84 5.23
-1 -8 -2 2041.14 70.78
1 8 -2 2147.04 70.8
-1 -8 2 2023.55 70.56
-1 8 -2 2168.73 70.88
-1 -8 2 2036.18 70.83
1 -8 -2 2158.2 70.87
-2 -8 2 305.29 10.37
-2 8 -2 291.87 11.01
-2 -8 2 303.69 11.16
2 8 -2 268.85 10.78
2 -8 -2 298.49 11.12
-2 -8 -2 281.48 10.23
-2 -8 -2 272.33 10.92
-3 8 -2 471.37 16.84
-3 -8 2 476.79 16.94
3 -8 -2 472.21 16.8
-3 -8 -2 469.04 16.29
3 8 -2 453.18 16.6
-3 -8 -2 455.82 16.74
-3 -8 2 473.99 16.38
4 8 -2 -0.02 3.36
-4 -8 -2 2.08 2.98
-4 -8 2 5.91 3
-4 -8 2 5.19 4.36
-4 8 -2 6.21 4.45
-4 -8 -2 1.81 4.14
-5 -8 -2 215.58 8.97
-5 -8 2 207.15 9.34
-5 8 -2 207.43 9.24
5 8 -2 220.95 8.03
-5 -8 -2 208.25 8.33
-5 -8 2 207 8.51
-6 -8 -2 159.8 7.61
-6 -8 2 168.9 8.68
6 8 2 179.62 7.13
-6 8 -2 176.34 9.06
6 8 -2 185.64 7.33
-6 -8 -2 186.7 8.34
-6 -8 2 184.15 7.84
-7 -8 -2 398.38 14.76
-7 -8 -2 370.15 14.44
-7 -8 2 373.57 15.11
7 8 2 385.65 14.03
-7 8 -2 393.73 15.63
-7 -8 2 382.47 14.64
7 8 -2 394.28 14.18
-8 -8 2 299.71 12.77
-8 8 -2 295.06 14.32
-8 -8 2 301.81 13.16
-8 -8 -2 304.78 12.82
8 8 -2 318.4 11.98
8 8 2 308.1 11.95
-8 -8 -2 311.52 12.56
-9 -8 -2 41.64 7.62
-9 -8 2 42.05 8.46
-9 -8 -2 43.01 7.92
0 -9 -2 598.36 20.48
0 9 -2 560.16 20.29
0 -9 2 561.35 20.3
-1 -9 2 672.96 23.65
-1 -9 2 663.78 22.93
1 -9 -2 655.4 23.63
1 9 -2 656.11 23.48
-1 9 -2 678.36 23.55
-1 -9 -2 695.26 23.65
-2 -9 2 621.86 21.52
-2 -9 -2 604.89 21.39
-2 -9 -2 603.65 20.72
-2 9 -2 597.74 21.41
-2 -9 2 601.87 20.81
2 9 -2 585.06 21.16
-3 9 -2 121.6 6.77
3 -9 -2 117.6 6.75
-3 -9 -2 106 6.41
-3 -9 2 120.4 6.71
3 9 -2 120.6 5.93
-3 -9 2 121.69 5.42
-3 -9 -2 122.21 5.27
-4 -9 -2 43.43 5.24
-4 9 -2 37.91 5.82
-4 -9 2 47.61 3.97
-4 -9 -2 50.35 3.79
-4 -9 2 47.37 5.54
-5 9 -2 1.21 6.3
-5 -9 -2 1.63 3.74
-5 -9 2 4.88 3.91
-5 -9 2 3.45 5.61
-5 -9 -2 5.45 5.15
-6 -9 2 153.51 7.65
-6 9 -2 170.84 9.66
-6 -9 -2 161.12 7.5
-6 -9 -2 164.01 8.49
-6 -9 2 158.4 8.69
6 9 -2 161.87 6.92
-7 9 -2 516.05 20.64
7 9 -2 525.9 18.78
-7 -9 -2 539.4 19.24
-7 -9 2 512.2 19.9
-7 -9 -2 546.49 19.64
-7 -9 2 523.9 19.43
-8 9 -2 257.96 15
-8 -9 2 267.92 12.63
0 -10 -2 150.46 7.87
0 10 -2 152.53 7.32
0 -10 2 153.13 7.65
0 -10 2 140.19 5.66
-1 -10 -2 154.82 8.4
1 10 -2 175.29 7.83
1 -10 -2 172.94 8.52
-1 10 -2 183.69 8.1
-1 -10 2 170.78 8.43
-1 -10 2 169.76 6.66
-2 -10 -2 118.32 7.15
-2 10 -2 125.05 7.12
-2 -10 -2 121.69 5.29
2 10 -2 120.52 6.39
-2 -10 2 118.21 7.3
-2 -10 2 111.08 5.44
2 -10 -2 130.79 7.28
3 10 -2 34.23 4.56
-3 10 -2 27.68 5.84
-3 -10 -2 28.22 3.54
-3 -10 -2 30.22 5.61
-3 -10 2 37.51 3.73
-3 -10 2 22.89 5.75
3 -10 -2 29.77 6.04
-4 10 -2 41.29 6.47
-4 -10 2 42.96 4.25
-4 -10 -2 41.37 5.96
-4 -10 2 43.19 6.22
-4 -10 -2 39.15 4.07
-5 -10 2 226.33 9.14
-5 10 -2 223.44 10.88
-5 -10 -2 208.23 8.95
-5 -10 2 209.86 10.35
-5 -10 -2 211.03 10.14
-6 -10 -2 110.14 6.28
-6 -10 -2 104.13 7.88
-6 -10 2 96.77 6.7
-6 10 -2 90.8 9.37
-6 -10 2 100.48 8.23
-7 -10 2 45 6.72
-7 -10 -2 48.82 6.36
-7 -10 -2 50.45 7.66
-7 -10 2 55.67 8.1
-7 10 -2 62.96 10.65
0 11 -2 4.08 5.19
0 -11 2 1.02 2.57
0 -11 2 6.43 6
0 -11 -2 -2.92 6.2
-1 -11 -2 345.64 13.59
-1 -11 2 284.12 13.45
1 11 -2 345.86 12.85
-1 -11 2 341.94 11.9
1 -11 -2 334.34 13.64
-1 11 -2 326.91 13.08
-2 -11 2 188.62 10.1
-2 11 -2 195.82 9.53
-2 -11 -2 197.33 9.83
-2 -11 -2 197.83 7.78
-2 -11 2 227.52 8.02
2 -11 -2 175.5 10.12
-3 -11 -2 41.27 4.17
-3 -11 2 34.37 6.91
3 -11 -2 44.05 7.68
-3 -11 -2 48.29 6.71
-3 -11 2 39.31 4.37
-3 11 -2 40.67 6.64
-4 -11 2 108.78 8.24
-4 11 -2 107.68 8.58
-4 -11 -2 111.63 7.96
-4 -11 2 105.83 6.07
-4 -11 -2 109.08 6.01
-5 11 -2 90.97 9.13
-5 -11 -2 91.32 7.83
-5 -11 2 97.21 6.32
-5 -11 2 87.82 8.33
-5 -11 -2 91.7 6.1
-6 11 -2 70.39 10.51
-6 -11 2 75.13 6.64
-6 -11 -2 67.63 6.26
-6 -11 2 58.64 8.58
-6 -11 -2 72.09 8.2
-7 -11 2 398.83 17.41
-7 -11 2 432.82 16.38
-7 -11 -2 384.17 15.9
0 -12 -2 73.9 8.16
0 -12 2 69.89 8
0 12 -2 81.68 6.88
0 -12 2 77.44 4.27
-1 12 -2 804.06 27.69
-1 -12 -2 784.89 26.66
1 12 -2 739.41 27.4
-1 -12 2 804.47 26.79
-1 -12 2 767.39 28.23
1 -12 -2 764.96 28.33
-1 -12 -2 768.02 28.11
-2 -12 -2 551.43 19
-2 -12 2 555.97 20.98
-2 -12 2 498.11 19.06
2 -12 -2 534.3 21.14
-2 12 -2 555.95 20.23
-3 -12 -2 813.9 30.22
-3 -12 2 860.44 29.29
-3 -12 2 814.24 30.59
3 -12 -2 845.71 30.65
-3 12 -2 877.58 30.22
-4 -12 -2 341.79 12.72
-4 12 -2 320.48 14.69
-4 -12 -2 305.24 14.33
-4 -12 2 347.46 15
-4 -12 2 322.59 12.75
-5 -12 -2 315.08 12.19
-5 -12 2 302.05 12.34
-5 -12 -2 273.6 13.71
-5 -12 2 284.56 14.37
-5 12 -2 318.1 15.1
-6 -12 2 140.99 8.72
-6 -12 2 129.43 11.54
0 -13 2 -3.79 9.18
0 -13 -2 1.19 9.32
0 -13 2 3.61 3.81
0 13 -2 8.36 6.66
-1 -13 2 56.11 4.83
-1 13 -2 51.24 7.52
-1 -13 2 54.41 10.07
-1 -13 -2 57.17 4.68
1 -13 -2 8.22 10.31
-1 -13 -2 55.95 9.55
-2 -13 -2 31.04 4.78
-2 -13 -2 14.93 8.84
-2 13 -2 28.21 8.12
-2 -13 2 29.27 5.18
2 -13 -2 21.01 11.16
-2 -13 2 22.67 10.25
-3 13 -2 319.6 14.62
-3 -13 -2 320.21 14.6
-3 -13 2 315.91 12.41
-3 -13 -2 314.03 12.3
-3 -13 2 294.11 15.62
-4 -13 2 14.81 10.56
-4 -13 -2 -7.57 8.81
0 -14 -2 348.57 18.1
1 -14 -2 114.94 14.43
-1 -14 -2 85.01 12.21
-1 -14 2 100.83 13.6
-2 -14 -2 185.11 12.51
0 0 3 1.21 0.66
0 0 -3 0.92 0.81
0 0 3 0.11 0.85
-1 0 3 1667.09 54.91
1 0 -3 1566.22 54.34
-1 0 3 1641.68 54.39
-1 0 -3 1588.61 54.78
1 0 3 1628.98 54.8
1 0 -3 1574.22 54.24
-2 0 3 1628.23 55.58
-2 0 3 1659.22 56.38
2 0 -3 1606.87 55.67
2 0 -3 1621 55.59
2 0 3 1708.95 56.34
-2 0 -3 1682.46 55.61
4 0 -3 6.82 1.89
4 0 -3 3.81 1.87
-4 0 3 4.96 2.33
-4 0 3 5.38 1.51
-4 0 -3 4.59 1.34
4 0 3 6.57 1.63
-5 0 -3 129.09 4.82
-5 0 3 119.43 5.4
5 0 3 126.03 5.04
5 0 -3 126.33 5.23
-5 0 3 128.69 4.8
6 0 3 193.43 7.52
6 0 -3 193.69 7.73
-6 0 -3 200.76 7.25
-6 0 3 201.67 7.14
-6 0 3 192.97 7.81
-7 0 -3 1290.75 43.07
7 0 -3 1261.86 43.39
-7 0 3 1263.89 43.26
7 0 3 1263.77 43.29
8 0 -3 -0.65 4.88
-8 0 3 2.18 4.66
8 0 3 1.24 4.27
-8 0 -3 4.29 3.04
-9 0 3 622.1 22.11
9 0 -3 607.23 22.49
-9 0 -3 623.55 21.5
9 0 3 610.59 22.31
10 0 3 171.33 9.61
-10 0 3 169.53 9.22
10 0 -3 145.51 10.19
0 1 3 340.45 12.13
0 1 3 347.34 12.09
0 -1 -3 369.76 12.1
0 -1 3 376.96 12.17
0 -1 -3 340.7 12.13
1 1 3 2509.58 80.55
1 1 -3 2453.7 81.05
1 -1 -3 2296.71 79.92
-1 -1 3 2388.83 80.54
1 -1 -3 2336.85 80.4
1 1 -3 2208.15 79.7
1 -1 3 2311.73 80.14
-1 1 3 2388.49 80.77
-1 -1 -3 2422.28 80.43
2 1 -3 156.76 5.53
2 -1 -3 152 5.39
2 -1 -3 148.64 5.59
2 1 3 154.18 5.41
-2 -1 3 152.68 5.62
2 1 -3 140.91 5.6
-2 -1 -3 156.71 5.38
2 -1 3 154.43 5.37
3 -1 3 159.92 5.84
3 -1 -3 160.09 6.09
-3 -1 3 169.63 6.22
-3 -1 3 157.83 5.96
3 1 -3 166.15 6.02
3 1 -3 169.51 6.12
-3 -1 -3 171.19 5.87
-3 1 -3 164.29 5.81
-3 1 3 147.1 6.13
3 1 3 173.23 5.96
3 -1 -3 168.34 5.91
-4 -1 3 4257.38 142.61
4 -1 -3 4168.49 142.57
4 1 3 3890.02 141.47
4 1 -3 4457.27 142.88
-4 1 3 4292.37 142.9
4 1 -3 4165.89 142.37
4 -1 -3 4260.69 141.62
-5 -1 3 442.58 16.65
-5 -1 3 489.39 16.46
5 1 -3 459.28 16.59
-5 1 3 468.3 16.63
5 1 3 473.68 16.53
-5 1 -3 500.55 16.33
5 -1 3 499.19 16.44
5 -1 -3 476.57 16.51
6 -1 -3 16.59 2.96
6 -1 3 15.2 2.7
-6 1 -3 28.71 2.15
6 1 -3 18.86 3.14
-6 -1 -3 22.56 2.47
6 1 3 22.67 2.92
-6 1 3 15.4 3.32
-6 -1 3 17.04 3.44
-6 -1 3 19.34 2.57
-7 1 3 442.22 15.45
7 -1 3 437.18 15.31
7 1 -3 407.8 15.43
-7 -1 3 427.9 15.03
7 -1 -3 428.71 15.41
-7 -1 -3 416.25 15.06
7 1 3 422.62 15.37
-7 1 -3 435.07 14.82
-7 -1 3 427.56 15.47
-8 -1 3 127.95 6.68
-8 -1 -3 135.14 5.95
-8 1 3 125.66 6.64
8 -1 -3 115.99 6.73
8 1 -3 121.79 6.7
8 1 3 114.23 6.44
8 -1 3 126.11 6.54
-8 -1 3 120.23 5.69
-9 -1 -3 309.52 11.68
9 -1 3 300.38 12.44
9 1 3 321.99 12.41
9 -1 -3 299.67 12.93
-9 -1 3 318.6 11.41
9 1 -3 276.46 12.58
-9 1 3 311.66 12.39
10 1 3 785.28 28.82
-10 -1 3 843.6 28.62
10 -1 3 804.56 29.11
10 1 -3 766.89 29.05
-10 -1 -3 835.15 28.17
-10 1 3 833.9 28.57
10 -1 -3 754.4 29.33
-11 -1 -3 70.3 7.6
0 2 -3 3231.58 105.91
0 -2 -3 2955.51 105.48
0 -2 3 3280.93 105.85
0 -2 -3 3007.34 105.65
1 2 -3 179.79 6.51
-1 -2 -3 183.78 6.31
1 2 3 170.83 6.31
-1 -2 3 189.33 6.41
1 2 3 180.7 6.3
2 2 -3 1856.84 60.94
2 -2 -3 1795.27 60.82
-2 -2 -3 1722.78 60.84
2 2 3 1800.12 60.89
-2 -2 3 1790.13 60.86
-2 -2 3 1882.18 60.95
3 -2 -3 661.85 22.69
3 2 -3 652.08 22.73
3 -2 3 669.29 22.57
3 2 -3 647.17 22.7
3 2 3 685.26 22.66
-3 -2 3 676.32 22.71
-3 -2 -3 665.38 22.62
-4 2 3 72.13 3.67
-4 -2 3 68.74 3.8
4 -2 -3 74.99 3.11
4 2 -3 77.02 3.52
4 -2 3 74.71 3.06
-4 -2 -3 72.61 3.21
4 2 -3 74.63 3.47
4 -2 -3 73.67 3.39
4 2 3 72.19 3.4
5 -2 3 68.94 3.17
5 -2 -3 69.49 3.41
-5 -2 -3 67.21 3.2
5 2 -3 64.69 3.58
5 2 3 75.34 3.67
-5 -2 3 72.51 3.52
5 2 -3 71.59 3.43
-5 2 3 62.57 3.79
-5 -2 3 68.01 4.05
6 -2 -3 1445.51 46.27
-6 -2 -3 1372.74 46.15
6 -2 3 1363.5 46.15
-6 -2 3 1298.32 46.26
-6 2 3 1362.93 46.23
6 2 -3 1330.72 46.34
-6 -2 3 1377.9 46.23
6 2 3 1350.28 46.28
-7 -2 3 221.72 8.77
7 -2 3 223.86 8.8
-7 2 3 253.63 9.12
7 2 3 217.54 8.93
7 -2 -3 230.51 8.97
7 2 -3 223.28 9.05
-7 -2 3 223.07 9.14
-7 -2 -3 220.89 8.57
-8 -2 3 201.05 8.25
8 2 -3 200.12 8.71
-8 2 3 198.53 8.62
8 2 3 200.26 8.59
-8 -2 3 195.09 8.75
-8 -2 -3 204.59 8.14
8 -2 3 197.62 8.59
8 -2 -3 193.57 8.79
-9 -2 -3 55.17 5.56
9 2 3 47.4 5.86
9 -2 -3 48.98 6.9
-9 2 3 50.84 5.85
9 2 -3 53.55 6.11
9 -2 3 50.86 6.47
-9 -2 3 46.36 5.47
-9 -2 3 50.79 6.21
-10 2 3 94.14 7.73
-10 -2 -3 103.96 7.73
10 -2 3 90.26 8.76
10 -2 -3 84.8 9.52
-10 -2 3 93.36 7.12
-10 -2 3 99.73 7.9
10 2 3 93.33 7.92
10 2 -3 100.2 8.29
0 3 -3 618.11 20.72
0 -3 3 598.99 20.66
-1 -3 -3 5576.99 188.01
1 3 -3 5666.98 187.97
1 3 -3 5461.97 188.29
-1 -3 3 5575.04 188.08
-2 -3 3 2470.84 82.8
-2 -3 3 2447.74 81.37
2 3 -3 2385.9 81.36
-2 -3 -3 2434.59 82.23
2 3 3 2361.13 81.43
3 3 -3 854.7 28.39
-3 -3 -3 803.25 28.25
3 -3 -3 805.34 28.31
-3 -3 3 862.37 28.37
3 3 3 826.99 28.28
3 3 -3 844.07 28.34
-3 -3 3 836.03 28.43
4 3 -3 84.52 3.83
4 3 3 82.26 3.66
-4 -3 3 87.3 4.23
-4 -3 3 86.89 3.83
4 3 -3 86.07 3.96
4 -3 -3 78.13 3.73
4 -3 3 84.51 3.31
-4 -3 -3 75.29 3.58
5 3 -3 2538.18 85.95
5 -3 3 2603.85 87.58
5 -3 -3 2685.32 86.17
-5 -3 -3 2486.27 86.13
-5 3 3 2468.45 86.02
-5 -3 3 2504.02 86.12
5 3 3 2581.36 86.18
-5 -3 3 2586.05 86.24
5 3 -3 2570.04 86.25
6 3 3 148.34 6.2
-6 -3 3 146.87 6.52
6 -3 -3 158.7 6
-6 -3 -3 147.22 5.94
-6 -3 3 124.95 6.08
6 -3 3 151.63 5.83
6 3 -3 146.3 6.31
-6 3 3 145.45 6.34
-7 -3 -3 200.93 8.45
-7 3 3 224.34 8.95
7 3 3 230.83 8.86
-7 -3 3 226.95 9.15
7 3 -3 213.32 8.88
7 -3 3 234.91 8.62
-7 -3 3 222.05 8.86
7 -3 -3 228.42 8.82
8 3 -3 708.82 25.49
8 -3 3 712.06 25.4
-8 -3 -3 713.88 25.21
8 -3 -3 754.97 25.61
-8 -3 3 738.12 25.43
8 3 3 720.72 25.46
-8 -3 3 727.42 25.54
-9 -3 3 40.25 5.84
9 3 -3 41.05 5.89
-9 -3 3 46.08 6.13
9 3 3 36.03 5.59
-9 3 3 45.29 5.91
9 -3 -3 45.79 6.8
-9 -3 -3 37.36 5.3
9 -3 3 41.98 6.57
-10 -3 -3 13.06 7.14
10 3 -3 17.34 6.91
-10 -3 3 19.52 7.18
10 -3 3 12.85 8.56
-10 3 3 16.98 6.83
10 -3 -3 6.94 9.56
10 3 3 17.85 6.72
-10 -3 3 16 7.49
0 -4 3 1841.56 61.74
0 4 -3 1778.24 60.95
-1 -4 3 63.25 3.09
1 4 -3 67.88 3.21
-1 -4 3 61.84 2.72
-1 4 -3 61.33 2.85
2 4 -3 179.51 6.29
2 4 -3 167.67 6.6
2 4 3 167.43 6.11
-2 -4 -3 172.88 6.24
-2 -4 3 177.87 6.36
-2 -4 3 174.27 6.64
-3 -4 3 2705.28 90.84
3 4 -3 2681.05 90.71
3 4 3 2664.73 91.64
3 -4 -3 2716.81 90.65
-3 -4 -3 2755.53 91.98
-3 -4 3 2667.16 90.75
4 -4 -3 414.2 14.6
4 4 -3 423.87 14.73
4 4 -3 427.74 14.66
-4 -4 3 417.04 14.9
4 -4 -3 407.34 14.63
4 4 3 419.65 14.59
-4 -4 3 426.27 14.72
-4 -4 -3 422.2 14.61
5 4 -3 7.91 2.68
-5 -4 3 6.74 2.57
5 4 3 7.05 2.62
-5 -4 3 5.95 3.33
5 -4 3 8.6 1.84
-5 -4 -3 7.3 2.41
5 4 -3 10.18 2.59
-6 -4 3 160.09 7.1
-6 -4 -3 165.41 6.5
6 4 -3 163.75 6.78
6 -4 3 160.89 6.2
6 4 3 154.45 6.62
-6 -4 3 156.67 6.71
7 -4 -3 103.78 5.28
7 4 -3 105.38 5.54
-7 -4 3 106.75 5.97
7 4 3 103.53 5.48
7 -4 3 95.05 4.96
-7 4 3 99.49 5.69
-7 -4 -3 97.21 5.17
8 -4 3 47.42 4.61
8 -4 -3 48.65 5.57
8 4 -3 47.3 5.09
-8 -4 3 43.26 5.13
-8 -4 -3 51.99 4.38
-8 -4 3 52.51 5.45
-8 4 3 20.85 4.93
8 4 3 42.05 5.14
9 -4 -3 124.16 8.63
-9 -4 -3 108.12 6.86
9 4 3 123.92 7.43
9 -4 3 108.35 7.74
-9 -4 3 117.57 7.81
9 4 -3 118.42 7.38
-9 -4 3 115.82 7.71
-9 4 3 122.74 7.41
10 4 3 177.2 10
-10 -4 -3 184.01 9.8
-10 -4 3 184.1 10.77
10 -4 3 185.72 11.65
-10 -4 3 186.28 10.18
10 4 -3 166.27 9.97
-10 4 3 192.47 9.9
0 5 -3 1.57 2.18
0 -5 3 2.48 1.86
0 -5 3 0.85 1.24
-1 -5 3 1119.57 37.67
-1 -5 -3 1069.59 37.51
-1 -5 3 1150.41 37.58
-1 5 -3 1113.03 37.64
1 5 -3 1101.82 37.71
-2 -5 -3 282.29 9.98
-2 -5 3 288.18 10.1
-2 -5 3 281.9 10.39
2 5 -3 284.72 9.94
2 5 -3 290.82 10.38
3 5 -3 1134.38 37.17
-3 -5 3 1081.8 37.37
3 5 3 1036.15 37.06
-3 -5 -3 1118.35 37.16
3 5 -3 1132.28 37.31
3 -5 -3 1099.55 37.18
-3 -5 3 1075.86 37.24
4 5 -3 164.69 6.42
4 -5 -3 162.55 6.46
-4 -5 3 161.87 6.76
4 -5 -3 158.22 6.25
-4 -5 -3 153.44 6.17
4 5 3 157.89 6.03
-4 -5 3 156.61 6.3
-5 -5 -3 179.63 7.07
5 5 -3 184.94 7.09
5 -5 3 186.55 6.67
5 5 3 177.1 7
-5 -5 3 183.61 7.29
5 5 -3 182.6 7.15
-5 -5 3 180.29 7.68
6 5 3 165.08 6.86
-6 -5 3 163.65 7.48
6 -5 3 165.44 6.39
6 5 -3 170.84 6.96
-6 -5 3 161.66 7.06
-6 -5 -3 166.5 6.82
-7 -5 -3 54.76 4.41
-7 -5 3 56.4 4.78
-7 -5 3 58.49 5.31
7 -5 3 58.87 3.98
7 5 3 54.07 4.51
7 5 -3 59.01 4.75
8 5 3 98.26 6.1
8 5 -3 105.4 6.35
8 -5 3 107.27 6.01
-8 -5 3 105.42 6.87
-8 -5 3 92.26 6.55
-8 -5 -3 93.5 6.02
8 -5 -3 103.45 6.4
-9 -5 -3 187.81 9.27
-9 -5 3 189.24 9.84
-9 -5 3 210.41 10.27
9 5 -3 192.04 9.54
9 -5 3 211.57 10.06
9 -5 -3 210.69 10.78
9 5 3 205.4 9.43
-10 -5 3 279.2 13.94
10 5 3 304.01 12.34
-10 -5 3 281.32 13.05
-10 -5 -3 282.33 12.76
10 5 -3 256.37 12.65
0 6 -3 1178.41 40.11
0 -6 3 1182.83 39.95
1 -6 -3 31.16 3.04
-1 -6 3 23.84 2.89
-1 -6 3 25.65 1.95
-1 6 -3 25.13 2.88
-1 -6 -3 25.1 1.72
1 6 -3 25.12 3.04
-2 -6 3 479.35 17.22
-2 6 -3 481.99 17.07
-2 -6 -3 492.9 16.83
-2 -6 3 507.27 16.95
2 -6 -3 469.93 17.14
2 6 -3 508.75 17.24
-3 -6 3 2604.57 87.06
3 6 -3 2529.04 86.89
3 6 -3 2655.23 86.96
-3 -6 3 2656.17 87.05
-3 -6 -3 2471.26 86.92
4 6 -3 1014.99 32.45
4 6 -3 951.47 32.52
4 6 3 909.56 32.29
-4 -6 -3 951.9 32.46
4 -6 -3 924.76 32.52
-4 -6 3 980.04 32.8
4 -6 -3 917.02 32.39
-4 -6 3 971.14 32.57
-5 -6 3 201.45 7.99
-5 -6 -3 209.28 7.82
5 6 3 202.03 7.63
5 6 -3 185.15 7.75
-5 -6 3 207.67 8.54
5 6 -3 207.92 7.91
6 -6 3 86.5 4.11
-6 -6 3 84.14 5.76
-6 -6 -3 93.75 4.84
6 6 3 86.17 4.6
6 6 -3 80.54 4.71
-6 -6 -3 86.44 5.01
-6 -6 3 87.74 5.03
-7 -6 -3 129.31 6.3
-7 -6 -3 120.79 6.4
-7 -6 3 129.06 7.21
7 -6 3 127.25 5.91
7 6 -3 133.81 6.37
-7 -6 3 122.77 6.64
7 6 3 125.95 6.11
8 -6 3 186.43 8.23
8 6 3 182.39 8.17
-8 -6 -3 177.53 8.55
8 6 -3 192.28 8.4
-8 -6 3 180.14 9.22
-8 -6 3 183.96 9.01
-8 -6 -3 180.35 8.38
-9 -6 -3 147.6 8.54
9 6 3 150.34 7.99
-9 -6 3 158.57 9.15
-9 -6 3 131.35 9.27
-9 -6 -3 152.13 8.36
9 -6 -3 160.01 9.64
9 6 -3 146.48 8.3
9 -6 3 156.93 9.04
-10 -6 -3 380.73 15.64
-10 -6 3 370.33 17.05
0 -7 3 47.97 2.38
0 -7 3 52.09 3.39
0 -7 -3 45.19 3.89
0 7 -3 48.03 3.77
-1 7 -3 1403.04 47.5
-1 -7 -3 1448.76 47.42
1 7 -3 1309.5 47.45
1 -7 -3 1436.98 47.47
-1 -7 3 1393.88 47.24
-2 -7 -3 1709.76 59.3
2 -7 -3 1771.11 59.43
-2 -7 3 1817.7 59.31
-2 7 -3 1713.72 59.39
-2 -7 3 1777.75 59.48
2 7 -3 1745.86 59.41
3 7 -3 788 27.24
-3 -7 3 820.21 27.45
-3 7 -3 761.78 27.2
3 7 -3 762.88 26.82
-3 -7 -3 805.34 27.18
-3 -7 3 791.63 27.1
-3 -7 -3 800.31 26.99
4 7 -3 143.79 6.19
-4 -7 3 143.29 6.74
-4 -7 3 131.34 5.87
-4 7 -3 121.84 6.21
4 -7 -3 139.44 6.48
4 -7 -3 146.84 5.96
-4 -7 -3 134.83 5.71
4 7 -3 136.15 5.59
-5 -7 -3 768.64 26.85
5 7 -3 785.82 26.8
-5 -7 3 759.13 27.25
5 7 3 786.58 26.61
5 7 -3 786.09 26.72
-5 -7 3 779.04 26.95
-5 -7 -3 781.66 26.81
6 7 -3 186.5 7.59
-6 -7 3 188.29 7.98
-6 -7 -3 167.4 8.02
-6 -7 3 191.21 8.69
-6 -7 -3 184.63 7.7
6 7 3 188.89 7.4
7 7 -3 179.34 8.01
-7 -7 -3 199.71 8.28
-7 -7 3 200.03 9.28
-7 -7 -3 191.18 8.63
-7 -7 3 176.47 8.66
7 7 3 196.99 7.98
7 -7 3 185.94 7.8
-8 -7 3 336.98 14.02
-8 -7 -3 346.44 13.38
-8 -7 -3 331.75 13.43
8 7 -3 346.22 13.12
8 7 3 342.69 13.01
8 -7 3 344.22 13.11
-8 -7 3 346.1 13.81
9 7 3 45.03 6.09
-9 -7 -3 54.27 7.42
9 7 -3 58.04 6.44
-9 -7 -3 51.19 6.95
-9 -7 3 56.9 8.39
-9 -7 3 56.03 8.12
0 -8 3 101.18 4.09
0 -8 -3 96.4 5.7
0 -8 3 104.27 5.18
0 8 -3 109.95 5.51
-1 8 -3 163.94 7.09
-1 -8 -3 155.6 7.09
1 -8 -3 161 7.29
-1 -8 3 158.37 6.05
1 8 -3 156.2 6.99
-2 -8 3 59.36 4.7
2 8 -3 55.87 4.44
2 -8 -3 61.23 4.85
-2 -8 -3 62.21 4.62
-2 8 -3 56.76 4.71
-2 -8 3 59.31 3.46
-2 -8 -3 58.33 3.2
3 -8 -3 367.01 13.45
-3 -8 3 358.21 12.79
-3 -8 -3 362.81 13.19
-3 -8 3 356.48 13.45
-3 -8 -3 335.32 12.62
-3 8 -3 357.62 13.37
3 8 -3 355.85 13.09
4 -8 -3 157.58 6.59
-4 8 -3 154.56 7.49
-4 -8 -3 150.65 6.33
4 8 -3 149.63 5.9
4 8 -3 146.58 6.85
4 -8 -3 152.81 7.43
-4 -8 3 156.54 7.61
-4 -8 3 153.73 6.59
-4 -8 -3 157.22 7.16
-5 -8 3 137 7.43
-5 -8 3 129.82 6.3
-5 8 -3 127.35 7.21
5 8 -3 137.86 5.78
-5 -8 -3 131.85 6.07
5 8 -3 134.72 6.28
-6 8 -3 148.85 8.33
-6 -8 -3 155.99 7.7
6 8 -3 158.22 6.82
-6 -8 -3 147.79 7.1
-6 -8 3 154.34 7.4
-6 -8 3 160.92 8.33
7 8 -3 28.35 4.5
7 -8 3 29.64 4.16
7 8 3 29.84 4.34
-7 -8 3 25.84 5.56
-7 -8 -3 20.31 4.92
-7 -8 -3 26.74 5.75
-7 -8 3 33.44 6.69
-8 -8 3 23.77 7.37
8 8 3 23.03 5.13
-8 -8 -3 28.52 6.73
-8 -8 3 27.75 6.83
-8 -8 -3 23.92 5.91
8 -8 3 26.34 5.81
8 8 -3 21.43 5.26
-9 -8 -3 102.77 8.63
-9 -8 3 106.28 9.97
0 -9 3 2.56 2.11
0 -9 -3 0.06 4.58
0 -9 3 0.31 3.99
0 9 -3 7.16 4.21
1 9 -3 584.28 20.86
-1 -9 3 595.2 20.93
1 -9 -3 573.99 21
-1 9 -3 587.92 20.97
-1 -9 -3 601.84 20.95
-2 -9 -3 889.67 31.31
-2 -9 3 902.15 31.44
-2 -9 -3 932.31 31.88
-2 -9 3 963.22 32.05
2 9 -3 940.31 31.82
2 -9 -3 915.23 32.02
-2 9 -3 899.67 31.94
-3 -9 -3 49.26 3.53
3 -9 -3 50.91 5.8
-3 9 -3 48.34 5.47
-3 -9 -3 47.57 5.22
-3 -9 3 57.95 3.94
3 9 -3 53.63 4.75
-3 -9 3 42.72 5.54
-4 -9 -3 34.03 5.11
-4 -9 3 34.83 3.93
-4 9 -3 37.32 5.79
-4 -9 -3 41.73 3.69
4 9 -3 38.2 4.66
4 -9 -3 37.73 4.24
4 -9 -3 30.35 5.8
-4 -9 3 35.1 5.7
5 9 -3 367.82 13.49
-5 -9 3 371.42 14.52
-5 -9 -3 364.5 13.39
-5 9 -3 378.07 14.56
-5 -9 3 355.12 13.59
-5 -9 -3 350.27 13.94
-6 9 -3 85.85 8.4
6 9 -3 89.79 5.17
-6 -9 -3 74.85 6.72
-6 -9 -3 81.46 5.64
-6 -9 3 90.24 7.56
-6 -9 3 88.89 6.15
-7 -9 -3 49.41 5.67
-7 -9 -3 49.61 6.91
7 9 -3 50.03 5.11
-7 -9 3 38.85 7.67
-7 -9 3 43.93 6.18
-7 9 -3 45.01 9.63
-8 -9 -3 401.8 16.17
0 10 -3 2522.51 81.7
0 -10 3 2300.21 81.19
0 -10 -3 2347.25 81.66
0 -10 3 2481.08 81.54
-1 -10 3 99.3 4.82
-1 -10 3 108.79 6.75
1 -10 -3 96.2 7.12
1 10 -3 114.23 6.42
-1 -10 -3 108.09 6.8
-1 10 -3 104.33 6.56
-2 -10 3 -0.67 5.51
-2 10 -3 2.93 5.3
-2 -10 -3 2.75 5.25
2 10 -3 5.56 4.7
-2 -10 3 1.27 3.19
2 -10 -3 6.93 6.11
-2 -10 -3 0.87 2.9
-3 -10 3 62.34 6.44
3 -10 -3 59.96 6.89
-3 -10 -3 51.95 4.03
-3 -10 -3 45.81 5.9
-3 -10 3 59.85 4.39
-3 10 -3 50.97 6.46
3 10 -3 53.59 5.39
-4 -10 -3 64.95 4.65
-4 10 -3 57.68 7.13
-4 -10 3 63.87 4.78
4 -10 -3 59.91 5.12
-4 -10 3 65.55 6.99
4 10 -3 65.55 5.33
-4 -10 -3 55.24 6.33
-5 -10 3 104.56 8.26
-5 10 -3 101.66 9.03
-5 -10 -3 100.94 7.27
-5 -10 -3 111.64 5.89
-5 -10 3 112.8 6.34
-6 -10 3 748.46 26.78
-6 -10 3 757.63 27.5
-6 -10 -3 760.55 27.04
-6 10 -3 749.88 28.02
-7 -10 3 341.19 14.06
-7 -10 -3 344.22 14.45
-7 10 -3 337.65 17.04
-7 -10 3 348.08 15.21
0 11 -3 -2.77 5.54
0 -11 -3 -2.82 6.55
0 -11 3 4.18 5.84
0 -11 3 -0.63 2.84
-1 11 -3 219.79 10.22
-1 -11 3 227.42 8.54
-1 -11 3 219.83 10.53
-1 -11 -3 229.82 10.57
1 -11 -3 217.51 10.87
1 11 -3 218.38 9.87
-2 -11 -3 195.5 7.75
-2 -11 3 190.56 7.92
-2 -11 -3 203.7 9.83
2 11 -3 211.63 9.09
-2 -11 3 184.35 10.05
-2 11 -3 185.49 9.71
2 -11 -3 179.27 10.43
-3 11 -3 92.87 8.02
-3 -11 -3 91.02 7.62
-3 -11 3 94.43 5.52
3 -11 -3 83.09 8.73
-3 -11 3 89.75 8.08
3 11 -3 99.62 6.36
-3 -11 -3 66.31 5.1
-4 -11 3 708.35 24.4
-4 -11 -3 702.57 25.1
-4 11 -3 685.32 25.68
-4 -11 3 646.32 25.47
-4 -11 -3 699.86 24.26
4 11 -3 713.35 24.5
-5 -11 3 116.02 7
-5 -11 -3 107.27 6.6
-5 11 -3 119.75 10.56
-5 -11 3 105.05 9.52
-5 -11 -3 118.51 8.61
-6 11 -3 21.95 10.77
-6 -11 -3 20.03 5.71
-6 -11 -3 23.25 8.06
-6 -11 3 22.87 6.3
-6 -11 3 25.96 8.98
0 -12 -3 47.38 8.44
0 -12 3 36.51 3.78
0 12 -3 40.04 6.69
-1 12 -3 211.77 10.32
1 12 -3 200.86 9.96
-1 -12 -3 208.18 11.14
-1 -12 3 216.22 8.45
-1 -12 3 210.05 11.28
1 -12 -3 196.19 11.68
-2 12 -3 26.11 7.25
-2 -12 3 22.93 8.46
-2 -12 -3 23.48 4.19
2 -12 -3 19.84 8.74
-2 -12 3 22.36 4.52
2 12 -3 30.89 6.05
-2 -12 -3 28.26 7.84
-3 -12 -3 23.72 4.62
3 12 -3 27.71 6
3 -12 -3 22.74 9.84
-3 12 -3 30.71 8.02
-3 -12 3 24.48 8.57
-3 -12 3 27.78 5.03
-3 -12 -3 22.49 8.05
-4 -12 -3 20.04 5.27
-4 -12 -3 29.95 8.18
-4 12 -3 31.55 9.05
-4 -12 3 26.93 5.4
-4 -12 3 23.16 9.3
-5 -12 -3 117.06 7.47
-5 -12 3 125.15 11.33
-5 -12 3 136.51 7.97
-5 -12 -3 119.34 10.06
0 -13 -3 5.73 9.98
0 -13 3 8.98 4.06
0 13 -3 3.38 7
-1 -13 3 265.31 14.24
-1 -13 -3 248.63 13.81
-1 -13 -3 261.9 10.13
1 13 -3 262.24 11.98
1 -13 3 250.6 9.8
1 -13 -3 244.82 14.25
-1 -13 3 273.37 10.45
-1 13 -3 266.46 12.5
-2 -13 3 55.58 5.63
-2 -13 -3 60.84 5.33
2 -13 -3 48.23 11.73
2 13 -3 53.01 7.18
-2 -13 -3 54.87 9.49
-2 13 -3 57.28 8.63
-2 -13 3 51.65 10.96
-3 -13 3 81.12 6.61
3 -13 -3 93.48 13.43
-3 13 -3 83.35 9.91
-3 -13 -3 92.03 10.01
-3 -13 3 58.58 11.46
-3 -13 -3 75.7 6.21
-4 -13 -3 287.45 14.52
-4 -13 3 287.39 15.86
0 -14 -3 12.32 12.68
1 -14 -3 74.34 14.1
-1 -14 -3 88.02 12.22
-1 0 -4 1459.41 48.85
-1 0 4 1448.28 48.93
1 0 4 1515.63 48.86
1 0 -4 1389.56 48.91
-1 0 4 1437.12 49.46
2 0 -4 278.17 9.87
2 0 4 284.81 9.65
-2 0 -4 280.75 9.65
-2 0 4 275.06 9.69
2 0 -4 275.89 9.75
-3 0 4 369.88 12.3
-3 0 -4 369.93 12.28
3 0 -4 343.14 12.49
3 0 -4 364.44 12.4
3 0 4 357.51 12.28
-3 0 4 331.85 12.49
4 0 -4 291.39 10.73
-4 0 4 306.44 10.88
-4 0 -4 303.31 10.51
4 0 4 302.44 10.58
-4 0 4 307.43 10.52
4 0 -4 296 10.68
5 0 -4 210.19 8.07
-5 0 -4 222.54 7.85
-5 0 4 224.17 7.8
5 0 -4 215.14 8.18
-5 0 4 212.78 8.35
5 0 4 219.06 8
-6 0 4 393.04 14.13
-6 0 -4 388.82 13.65
6 0 -4 388.86 14.05
6 0 4 384.41 13.86
-6 0 4 394.88 13.54
7 0 4 120.14 5.81
-7 0 -4 115.68 5.21
7 0 -4 126.44 6.16
-7 0 4 121.54 6.25
8 0 4 406.33 14.76
-8 0 -4 392.44 14.16
-8 0 4 404.41 14.86
8 0 -4 379.16 14.97
9 0 4 384.09 15.2
9 0 -4 383.96 15.58
-9 0 4 394.83 15.2
-9 0 -4 408.42 14.36
10 0 4 213.95 11.5
-10 0 4 219.4 10.87
10 0 -4 225.99 11.94
0 1 4 4522.98 152.15
-1 -1 4 3358.56 111.23
1 -1 -4 3271.33 111.44
1 1 -4 3415.7 111.64
1 -1 -4 3335.46 111.1
1 1 4 3276.16 111.14
-1 -1 -4 3255.84 111.03
1 1 -4 3306.4 111.19
-1 1 4 3049.81 110.88
2 -1 4 2420.4 81.4
3 1 4 2232.28 75.48
3 -1 4 2145.71 75.45
-3 -1 -4 2285.53 75.47
3 -1 -4 2233.86 75.46
3 -1 -4 2301.34 76.78
3 1 -4 2187.27 75.45
-3 -1 4 2317.56 75.57
3 1 -4 2242.48 75.58
4 -1 -4 243.59 8.54
4 1 4 240.47 8.49
4 1 -4 236.76 8.69
4 -1 4 234.91 8.39
-4 1 4 233.55 8.74
4 1 -4 236.95 8.62
-4 -1 4 243.28 8.81
-4 1 -4 241.86 8.34
-4 -1 4 220.77 8.47
-4 -1 -4 248.08 8.41
4 -1 -4 219.42 8.63
5 -1 -4 24.49 2.71
-5 -1 4 25.75 3.39
5 -1 4 22.42 2.3
-5 1 4 21.63 3.1
5 -1 -4 30.11 2.91
5 1 4 29.48 2.51
-5 -1 -4 12.71 2.17
5 1 -4 21.85 2.72
-5 -1 4 24.26 2.5
5 1 -4 23.55 2.73
-5 1 -4 24.68 1.97
-6 1 -4 847.23 28.38
6 1 4 824.79 28.61
6 1 -4 805.73 28.73
-6 -1 4 843.72 28.78
-6 -1 -4 834.52 28.47
-6 -1 4 850.8 28.49
-6 1 4 825.62 28.71
6 -1 -4 865.49 28.73
6 -1 4 806 28.55
7 -1 4 24.82 3.68
-7 1 4 29.91 4.14
-7 1 -4 24.39 2.63
7 -1 -4 20.72 4.34
7 1 -4 24.18 4.14
-7 -1 4 22.83 3.35
-7 -1 -4 21.67 3.22
-7 -1 4 18.42 4.49
7 1 4 22.06 3.72
-8 -1 4 1010.63 34.67
-8 1 4 980.45 34.57
8 -1 -4 1003 34.84
-8 -1 -4 1017.05 34.33
8 1 4 1019.44 34.65
-8 -1 4 993.96 34.22
8 -1 4 982.71 34.57
9 1 4 355.28 14.62
9 -1 -4 390.09 15.35
-9 -1 -4 395.78 14.09
-9 -1 4 394.32 14.86
9 1 -4 363.08 15.03
9 -1 4 354.68 14.75
-9 1 4 391.05 14.66
10 1 4 4.39 7.11
10 1 -4 9.26 7.92
-10 -1 4 2.91 7.12
10 -1 -4 1.01 8.83
-10 1 4 8.62 6.78
10 -1 4 3.7 7.9
-10 -1 -4 3.29 5.84
0 -2 -4 9181.57 288.3
0 -2 4 7919.89 287.69
1 2 4 814.2 27.76
-1 -2 -4 837.34 27.76
1 -2 -4 819.4 27.83
1 -2 -4 807.1 27.74
1 2 4 778.37 27.79
1 2 -4 813.62 27.87
-1 -2 4 845.88 27.87
1 2 -4 851.71 27.85
2 -2 4 172.29 6.2
2 2 -4 181.79 6.37
2 2 -4 164.79 6.57
-2 -2 4 170.7 6.38
-2 -2 -4 175.33 6.22
2 2 4 176.91 6.25
2 -2 -4 188.04 6.22
-2 -2 4 169.95 6.5
3 2 -4 956.59 32.78
3 -2 -4 967.46 32.77
3 2 -4 935.09 32.8
-3 -2 -4 971.43 32.66
3 -2 -4 1025.73 32.71
-3 -2 4 970.9 32.83
-3 -2 4 910.64 32.74
3 -2 4 961.18 32.65
3 2 4 985.01 32.7
4 -2 4 249.9 9.25
4 2 -4 255.24 9.59
-4 -2 4 262.56 9.73
-4 -2 -4 264.89 9.29
4 2 -4 273.84 9.56
4 -2 -4 250.99 9.52
4 2 4 265.17 9.39
4 -2 -4 279.79 9.35
-5 2 4 174.33 6.97
5 2 4 174.95 6.75
5 -2 -4 167.09 6.68
-5 -2 -4 187.72 6.55
-5 -2 4 174.07 6.72
5 -2 4 171.55 6.49
-5 -2 4 167.16 7.15
5 -2 -4 172.07 6.66
5 2 -4 172.35 6.85
5 2 -4 171.51 6.78
6 2 4 1263.18 43.79
-6 -2 4 1280.84 43.76
6 -2 -4 1316.96 43.8
6 2 -4 1309.5 43.91
-6 -2 -4 1289.09 43.67
-6 -2 4 1247.33 43.86
-6 2 4 1296.39 43.81
6 -2 4 1297.76 43.7
7 2 -4 454.25 17.06
-7 -2 4 488.84 16.88
-7 -2 -4 472.17 16.75
-7 -2 4 488.02 17.23
7 2 4 437.54 16.94
7 -2 -4 498.28 17.11
7 -2 4 483.53 16.92
-7 2 4 482.15 17.07
8 2 4 115.97 6.23
-8 -2 -4 114.57 5.86
-8 -2 4 113.45 6.13
-8 -2 4 117.11 6.68
8 2 -4 92.16 6.41
8 -2 4 110.61 6.26
8 -2 -4 106.01 7.06
-8 2 4 102.03 6.4
-9 2 4 405.43 14.68
9 -2 -4 381.93 15.47
9 2 4 380.72 14.61
9 2 -4 343.09 14.76
-9 -2 4 366.26 14.21
9 -2 4 362.13 14.79
-9 -2 4 388.83 14.92
-9 -2 -4 374.42 14.3
10 2 -4 141.37 9.59
10 2 4 148.33 9.25
-10 -2 4 157.36 9.42
-10 2 4 142.85 9.08
10 -2 -4 155.3 11.58
-10 -2 -4 158.65 8.62
10 -2 4 138.68 10.05
-10 -2 4 149.31 8.38
0 -3 -4 4073.43 139.8
0 -3 4 4090.51 139.83
0 3 -4 4227.16 140.44
1 3 -4 1982.36 68.01
1 3 4 1996.25 68.7
1 3 4 2012.79 68.19
1 3 -4 2055.93 68.05
-1 -3 4 2012.49 69.29
-1 -3 -4 2061.25 69.04
-1 -3 4 2025.44 68.07
2 3 4 45.44 2.31
2 3 -4 54.32 2.55
-2 -3 4 49.98 2.54
-2 -3 4 53.87 2.89
2 3 -4 43.99 2.91
-2 -3 -4 44.6 2.27
-3 -3 4 331.36 11.63
3 -3 -4 318.95 11.69
3 3 -4 318.46 11.59
-3 -3 4 339.03 11.85
3 3 4 326.44 11.49
-3 -3 -4 352.77 11.52
3 -3 4 323.14 11.4
3 3 -4 327.73 11.78
4 -3 4 77.71 3.41
4 3 4 78.59 3.71
-4 -3 4 85.68 4.43
4 3 -4 81.18 3.8
4 -3 -4 75.94 3.97
4 3 -4 78.69 4.07
-4 -3 -4 85.58 3.64
-4 -3 4 81.74 3.86
-5 -3 4 1461.58 49.95
5 -3 -4 1562.26 49.77
5 -3 -4 1419.26 49.67
-5 -3 -4 1394.7 49.73
5 -3 4 1469.02 49.74
5 3 -4 1506.78 49.95
5 3 4 1485.67 49.83
5 3 -4 1498.48 49.76
-5 -3 4 1445.31 49.88
-6 -3 4 477.75 16.63
-6 3 4 454.17 16.73
6 3 -4 483.12 16.74
6 3 -4 457.71 16.39
6 -3 4 471.91 16.42
-6 -3 -4 467.16 16.44
6 -3 -4 485.96 16.51
-6 -3 4 485.84 16.93
6 3 4 446.7 16.57
7 3 -4 733.31 26.59
-7 3 4 773.52 26.55
7 3 4 748.68 26.47
-7 -3 4 754.35 26.52
-7 -3 -4 750.89 26.34
7 -3 -4 804.83 26.54
-7 -3 4 784.86 26.74
7 -3 4 755.91 26.37
8 -3 4 43.28 5.05
8 3 -4 41.02 5.26
-8 -3 4 40.49 5.17
-8 -3 4 44.09 5.65
8 3 4 49.37 5.07
8 -3 -4 46.94 5.8
-8 3 4 48.66 5.33
-8 -3 -4 41.47 4.37
9 -3 -4 185.99 10.48
-9 -3 4 212.28 9.85
-9 -3 -4 205.51 9.24
-9 -3 4 199.22 9.89
9 -3 4 205.22 9.93
9 3 4 202.76 9.45
9 3 -4 202.1 9.73
-9 3 4 202.16 9.58
-10 3 4 227.66 10.92
-10 -3 4 223.84 11.34
-10 -3 -4 250.33 11.31
-10 -3 4 226.89 11.32
10 3 4 208.11 10.75
10 3 -4 195.96 11.3
10 -3 -4 221.34 13.69
10 -3 4 223.64 12.15
0 -4 4 3030.97 103.3
0 4 -4 3054.41 104.22
-1 -4 -4 1470.55 49.84
-1 -4 4 1446.17 49.87
-1 -4 4 1484.61 49.93
1 4 -4 1514.74 50
2 4 -4 4771.88 160.84
-2 -4 4 4893.57 160.09
-2 -4 -4 4649.76 160.48
2 4 4 4487.67 160.62
-2 -4 4 4955.04 161.69
2 4 -4 5002.37 162.44
2 4 4 4601.29 160.63
-3 -4 4 236.7 8.93
3 4 4 248.8 8.77
3 -4 -4 249.88 9.07
3 4 -4 248.15 8.9
-3 -4 4 249.54 9.25
-3 -4 -4 248.41 8.8
-4 -4 4 1008.57 33.64
4 -4 4 960.91 33.28
4 4 -4 985.59 33.51
4 4 4 997.47 33.36
4 -4 -4 951.31 33.4
-4 -4 4 973.72 33.5
4 4 -4 982.56 33.46
-4 -4 -4 997.08 33.38
5 4 -4 730.57 24.69
5 4 4 732.49 24.59
-5 -4 4 739.02 24.95
5 -4 4 717.48 24.46
5 -4 -4 707.19 24.59
5 -4 -4 677.66 24.51
5 4 -4 701.3 24.62
-5 -4 -4 716.26 24.56
-5 -4 4 717.91 24.72
6 -4 -4 1147.39 37.26
-6 -4 4 1095.37 37.51
-6 -4 -4 1059.7 37.33
6 -4 4 1073.89 37.25
6 4 -4 1140.95 37.51
6 4 -4 1069.26 37.17
6 4 4 1087.94 37.36
-6 -4 4 1086.77 37.61
7 4 4 14.52 3.86
7 -4 4 21.93 3.61
-7 -4 4 22.43 4.25
7 4 -4 19.47 4.22
-7 -4 -4 20.52 3.34
-7 -4 4 16.6 4.97
7 -4 -4 21.72 4.17
-8 -4 4 511.61 18.71
8 4 -4 497.43 18.59
-8 -4 -4 482.16 18.27
8 4 4 522.32 18.44
8 -4 4 507.16 18.44
-8 -4 4 546.57 19.01
9 4 -4 31.72 6.18
9 4 4 34.19 6.03
-9 -4 -4 32.3 5.48
-9 -4 4 34.4 6.89
9 -4 4 31.67 6.64
-9 -4 4 34.93 6.95
-9 4 4 31.86 6.48
9 -4 -4 31.93 7.46
10 4 4 -14.34 7.39
-10 4 4 -1.69 7.49
-10 -4 -4 -0.37 7.46
10 4 -4 11.04 7.51
-10 -4 4 -6.49 8.91
-10 -4 4 -0.53 7.9
0 5 -4 200.87 7.78
0 -5 4 212.01 7.37
-1 -5 4 317.72 11.09
-1 5 -4 296.7 11.05
-1 -5 -4 327.32 10.79
-1 -5 4 312.2 10.92
1 5 -4 304.51 11.26
2 5 -4 2147.07 72.5
-2 -5 4 2183.21 72.47
2 5 -4 2128 72.37
-2 -5 -4 2123 72.36
-2 -5 4 2168.03 72.47
3 5 -4 123.8 5.11
3 5 4 122.84 4.87
-3 -5 -4 122.07 5.08
-3 -5 4 130.67 5.86
3 5 -4 154.19 5.76
-3 -5 4 122.4 5.28
4 -5 -4 6325.14 212.37
-4 -5 4 6318.08 214.33
4 5 4 6176.19 212.09
-4 -5 4 6468.42 213.68
4 5 -4 6484.19 212.99
4 5 -4 6257.49 210.9
-4 -5 -4 6211.11 212.11
4 -5 -4 6112.48 210.88
5 -5 -4 637.65 22.12
5 -5 -4 648.75 22.29
-5 -5 4 622.34 22.33
5 5 -4 638.87 22.24
5 5 4 634.61 22.14
-5 -5 -4 627.15 22.17
5 -5 4 659.7 22.04
-5 -5 4 670.8 22.62
5 5 -4 639.71 22.28
-6 -5 -4 1010.06 34.32
-6 -5 4 1006.09 34.66
-6 -5 4 972.87 34.48
6 5 -4 1030.03 34.21
6 -5 4 1011.11 34.21
6 5 -4 989.54 34.39
7 -5 4 50.29 4.19
-7 -5 -4 52.18 4.34
-7 -5 4 49.11 5.65
7 5 -4 52.66 4.57
7 5 4 52.86 4.58
-7 -5 4 53.95 4.94
8 -5 -4 80.26 6.39
8 -5 4 77.31 5.63
-8 -5 4 41.58 6.27
-8 -5 4 72.59 6.76
8 5 4 78.45 5.67
-8 -5 -4 79.9 5.43
8 5 -4 84.51 5.9
-9 -5 -4 78.22 6.56
9 -5 4 73.83 7.43
9 -5 -4 92.26 8.95
-9 -5 4 91.99 8.07
9 5 -4 89.45 7.17
9 5 4 72.28 6.76
-9 -5 4 87.42 8.21
-10 -5 4 1273.77 44.39
-10 -5 -4 1235.97 43.78
0 -6 4 168.58 6.26
0 6 -4 175.6 6.99
-1 -6 -4 965.03 32.44
1 6 -4 897.27 32.77
-1 6 -4 962.21 32.74
-1 -6 4 981.1 32.68
-1 -6 4 988.36 32.56
-2 -6 4 1892.47 65.24
-2 -6 -4 1840.11 65.05
-2 6 -4 1935.28 65.15
-2 -6 4 2087.87 65.23
2 6 -4 1902.83 65.26
-3 -6 4 117.46 5.75
3 6 -4 111.29 5.34
3 6 -4 115.81 5.09
-3 -6 4 106.14 4.91
-3 -6 -4 111.62 4.66
3 -6 -4 107.47 5.51
4 6 -4 1323.72 45.39
4 -6 -4 1336.07 45.54
-4 -6 -4 1358.46 45.4
-4 -6 4 1346.79 45.71
4 6 -4 1339.34 45.54
-4 -6 4 1346.2 45.55
4 6 4 1328.6 45.27
4 -6 -4 1337.61 45.41
-5 -6 -4 33.11 3.29
5 -6 -4 31.28 4.3
5 6 -4 40.72 3.29
-5 -6 4 27.91 4.59
-5 -6 4 35.41 3.69
5 -6 -4 31.38 3.53
5 6 4 35.48 3.03
5 6 -4 34.38 3.84
6 6 -4 49.86 4.23
6 -6 4 47.92 3.56
6 6 -4 45.7 4.04
-6 -6 4 47.76 4.52
6 6 4 47.14 3.81
-6 -6 -4 51.66 4.07
-6 -6 4 52.66 5.4
7 6 -4 290.28 11.83
-7 -6 -4 320.94 11.82
7 6 4 311.28 11.69
7 -6 4 316.06 11.69
-7 -6 4 321.98 12.63
-7 -6 4 306.92 12.22
8 6 -4 31.71 5.15
8 6 4 26.35 4.88
-8 -6 -4 23.04 5.12
-8 -6 4 22.53 6.12
-8 -6 4 31.26 6.56
8 -6 4 27.22 5.23
-9 -6 -4 552.61 21.26
9 -6 4 603.06 21.78
9 -6 -4 630.54 22.24
9 6 -4 547.54 21.32
-9 -6 4 580.1 22.03
-9 -6 4 579.6 21.97
0 -7 4 710.14 25.12
0 7 -4 766.09 25.64
-1 -7 -4 381.25 13.65
-1 -7 4 382.97 14.14
-1 7 -4 392.69 14.32
1 7 -4 421.38 14.43
-1 -7 4 403.71 13.84
-2 -7 4 1320.48 45.96
2 -7 -4 1330.27 46.13
-2 7 -4 1341.51 46.13
-2 -7 4 1410.64 46.2
2 7 -4 1379.98 46.19
-3 -7 4 365.52 13.55
-3 -7 -4 361.1 12.86
-3 7 -4 359.72 13.24
3 7 -4 357.29 13.33
3 -7 -4 370.8 13.46
3 7 -4 349.76 12.69
-3 -7 4 386.45 13.07
4 -7 -4 1451.42 47.86
4 7 -4 1355.03 47.71
4 7 -4 1435.18 47.52
-4 -7 4 1354.02 47.72
4 -7 -4 1376.12 47.6
-4 -7 4 1486.98 48.03
-4 -7 -4 1369.08 47.59
-5 -7 4 488.95 17.78
5 7 -4 488.26 17.02
5 7 4 479.78 16.79
-5 -7 -4 467.3 17.06
-5 -7 4 453.97 17.25
5 7 -4 521.45 17.28
6 -7 4 81.38 4.47
-6 -7 4 78.61 6.54
-6 -7 -4 84.88 4.96
6 7 4 78.21 4.58
6 7 -4 85.39 5.2
6 7 -4 70.01 4.81
-6 -7 4 80.61 5.52
-7 -7 -4 211.11 8.79
7 -7 4 211.44 8.58
-7 -7 4 208.1 9.33
7 7 4 200.13 8.47
-7 -7 4 208.22 9.95
-7 -7 -4 197.8 9.04
7 7 -4 206.47 8.74
-8 -7 4 154.75 8.94
-8 -7 -4 163.4 8.41
8 -7 4 156.64 8.1
8 7 4 149.88 7.51
-8 -7 -4 161.05 7.95
8 7 -4 147.31 7.73
-8 -7 4 158.05 9.5
-9 -7 -4 502.9 19.14
-9 -7 4 524.7 20.02
-9 -7 -4 473.52 19.13
-9 -7 4 518.67 20.09
9 7 -4 509.85 18.91
0 8 -4 4594.76 152.08
0 -8 4 4773.96 152.04
0 -8 -4 4210.95 151.9
1 -8 -4 129.25 6.47
-1 -8 -4 134.69 5.12
-1 -8 -4 123.76 6.36
-1 -8 4 128.06 5.31
1 8 -4 142.51 6.55
-1 8 -4 130.43 6.55
-1 -8 4 138.07 6.28
2 8 -4 130.97 6.56
2 -8 -4 135.27 6.89
-2 -8 -4 136.09 6.51
-2 -8 -4 139.15 5.51
-2 8 -4 139.37 6.76
-2 -8 4 133.56 5.69
-2 -8 4 140.44 6.92
-3 -8 -4 562.21 18.65
3 8 -4 524.56 19.08
-3 -8 4 538.89 19.37
-3 -8 4 555.91 18.84
3 -8 -4 552.39 19.36
-3 -8 -4 521.35 18.99
-3 8 -4 502.35 19.2
4 -8 -4 214.71 9.49
-4 -8 -4 204.66 8.25
4 8 -4 222.42 7.95
-4 -8 -4 222.04 8.96
-4 -8 4 217.87 8.52
4 8 -4 202.34 8.83
-4 -8 4 213.32 9.48
4 -8 -4 218.93 8.69
-4 8 -4 211.49 9.2
-5 -8 4 95.27 6.81
5 8 -4 96.96 5.05
-5 -8 -4 90.97 6.08
-5 -8 4 96.38 5.52
-5 -8 -4 96.95 5.16
5 8 -4 94.21 5.78
-6 -8 -4 1710.84 59.51
-6 -8 -4 1835.21 59.6
6 8 -4 1781.56 59.39
6 8 4 1759.31 59.29
-6 -8 4 1765.31 59.8
6 8 -4 1694.29 59.42
-6 -8 4 1733.78 59.98
7 8 -4 5.19 4.63
7 -8 4 7.35 4.64
-7 -8 -4 8.88 4.92
-7 -8 -4 6.09 5.93
7 8 4 4.15 4.21
-7 -8 4 12.74 5.64
-7 -8 4 -0.48 6.9
-8 -8 -4 4.39 6.72
8 8 -4 5.61 5.3
-8 -8 -4 6.3 5.9
8 -8 4 1.14 6.5
-8 -8 4 8.24 7.33
-8 -8 4 1.4 7.88
8 8 4 -2.18 4.87
0 9 -4 980.89 33.3
0 -9 -4 998.96 33.3
0 -9 4 901.5 32.61
1 -9 -4 437.2 16.23
-1 -9 4 451.38 15.31
-1 -9 -4 417.81 15.97
1 9 -4 449.63 16.06
-1 -9 4 413.46 15.91
-1 9 -4 446.21 16.21
2 9 -4 776.61 28.24
-2 -9 -4 793.13 27.73
-2 9 -4 836.93 28.54
-2 -9 4 849.12 27.93
2 -9 -4 817.08 28.51
-2 -9 4 817.3 28.51
-2 -9 -4 793.51 28.24
-3 -9 -4 21.84 3.23
3 9 -4 17.32 4.35
-3 -9 4 19.59 3.47
3 -9 -4 18.44 5.8
-3 9 -4 20.06 5.43
-3 -9 -4 20.3 4.88
-3 -9 4 17.92 5.54
-4 -9 -4 10.07 3.47
4 9 -4 8.81 4.6
4 -9 -4 8.75 6.22
-4 9 -4 7.57 5.9
4 -9 -4 15.71 4.43
-4 -9 -4 2.66 4.97
-4 -9 4 9.1 5.9
-4 -9 4 8.37 3.85
-5 -9 -4 141.3 7.86
-5 -9 4 151.53 8.61
-5 9 -4 147.8 9.01
5 9 -4 140.65 6.08
-5 -9 4 143.02 7.05
-5 -9 -4 139.98 6.7
5 9 -4 156.06 7.41
-6 -9 -4 212.22 9.31
6 9 -4 223.11 9.39
-6 -9 4 230.63 11.09
-6 -9 4 227.5 9.87
6 9 -4 227.34 9.08
-6 -9 -4 227.22 10.26
-6 9 -4 212.01 11.44
-7 -9 -4 58.53 7.35
7 9 -4 57.94 5.46
-7 -9 4 64.17 8.57
7 -9 4 61.73 5.9
-7 -9 -4 62.55 6.04
-7 -9 4 58.42 6.68
0 -10 4 109.71 4.92
0 -10 -4 112.75 7.23
0 10 -4 106.58 6.77
1 10 -4 314.02 12.18
-1 10 -4 302.65 12.35
1 -10 -4 315.44 12.55
-1 -10 4 286.66 12.08
1 -10 4 290.19 10.74
-1 -10 4 304.73 11.05
-2 -10 -4 507.21 17.77
-2 10 -4 488.51 18.9
-2 -10 -4 513.44 18.78
2 10 -4 528.01 18.61
2 -10 -4 509.71 19.04
-2 -10 4 508.65 17.98
-3 -10 4 84.11 7.38
-3 -10 -4 88.89 4.93
-3 -10 -4 79.53 6.74
-3 10 -4 89.18 7.3
-3 -10 4 92.78 5.21
3 10 -4 85.47 6.22
-4 -10 4 244.86 11.64
-4 -10 4 245.49 9.96
4 10 -4 266.31 10.53
-4 -10 -4 241.29 10.96
-4 10 -4 244.05 11.69
4 -10 -4 243.65 10.13
4 -10 -4 247.17 11.98
-5 -10 4 97.56 6.35
-5 -10 -4 83.68 7.41
-5 -10 -4 95.19 5.86
-5 10 -4 103.15 9.31
-5 -10 4 109.87 8.6
5 10 -4 102.65 6.5
-6 -10 4 24.91 8.31
-6 -10 -4 21.66 5.09
-6 10 -4 18.86 9.76
-6 -10 4 19.11 5.93
6 10 -4 -1.92 3.68
-6 -10 -4 17.7 6.96
-7 -10 4 113.03 8.22
-7 -10 4 123.54 10.43
-7 -10 -4 126.24 7.63
-7 -10 -4 67.72 8.72
0 -11 4 213.56 8.14
0 -11 -4 212.99 10.49
0 11 -4 202.21 9.85
-1 -11 -4 200.79 9.98
1 -11 4 178.36 7.47
1 -11 -4 190.75 10.46
-1 -11 4 182.6 9.71
-1 11 -4 198.94 9.91
1 11 -4 202.58 9.52
-1 -11 4 219.32 7.94
2 11 -4 134.76 7.88
-2 -11 -4 124.29 6.02
-2 -11 4 132.1 6.4
-2 -11 -4 132.33 8.36
-2 11 -4 141.25 8.84
-2 -11 4 130 9.09
2 -11 -4 127.28 9.4
-3 -11 4 650.78 23.69
3 -11 -4 595.19 23.83
-3 11 -4 641.55 23.72
-3 -11 4 650.77 22.39
-3 -11 -4 629.83 23.13
4 11 -4 253.3 10.83
-4 -11 -4 247.51 11.49
-4 -11 4 253.28 12.56
-4 11 -4 237.5 12.92
-4 -11 4 255.19 10.29
4 -11 -4 227.92 13.17
-4 -11 -4 253.75 9.94
5 11 -4 -1.55 5.74
-5 -11 -4 -0.72 7.3
-5 -11 4 -4.04 8.92
-5 11 -4 9.28 9.84
-5 -11 -4 -0.51 4.97
-5 -11 4 2.39 5.53
-6 -11 -4 307.32 15.02
-6 -11 4 351.77 14.41
-6 -11 4 383.5 16.44
-6 -11 -4 367.64 13.97
0 -12 4 40.61 4.1
0 12 -4 39.97 7.28
0 -12 -4 51.3 8.64
-1 -12 4 101.61 5.37
-1 -12 -4 85.78 8.83
1 -12 -4 78.82 9.78
1 -12 4 77.04 4.68
1 12 -4 88.24 7.75
-1 -12 4 89.28 8.58
-1 12 -4 89.37 8.19
-2 -12 4 381.55 13.67
-2 -12 4 361.3 16.09
2 -12 -4 391.33 16.67
2 12 -4 373.36 14.76
-2 -12 -4 307.69 15.28
-2 -12 -4 359.71 13.39
-2 12 -4 374.54 15.57
-3 -12 4 147.3 7.8
-3 12 -4 148.69 10.89
-3 -12 -4 142.46 10.04
3 12 -4 157.47 8.93
3 -12 -4 173.31 12.7
-3 -12 -4 148.38 7.46
-3 -12 4 157.28 11.84
-4 -12 -4 465.7 17.48
-4 12 -4 461.63 20.14
4 12 -4 482.24 18.15
-4 -12 4 499.07 20.26
-4 -12 4 483.13 17.86
4 -12 -4 485.53 21
-5 -12 4 6.92 6.46
-5 -12 4 2.67 10.81
-5 -12 -4 10.6 8.82
0 -13 -4 189.78 12.64
0 -13 4 164.86 7.82
0 13 -4 177.58 10.66
1 -13 -4 44.13 11.09
-1 13 -4 41.6 8.7
-1 -13 -4 47.38 4.89
-1 -13 4 47.09 5.44
1 13 -4 51.46 8.23
1 -13 4 44.86 4.57
-1 -13 -4 37.45 10.03
-2 -13 -4 138.25 7.18
2 -13 -4 120.02 13.53
2 13 -4 152.34 9.4
-2 -13 4 148.49 12.3
-2 13 -4 140.13 11.09
2 -13 4 134 6.34
-2 -13 -4 139.85 11.28
-2 -13 4 143.27 7.59
3 -13 -4 272.04 17.56
-3 -13 4 304.12 16.58
-3 -13 -4 272.93 14.64
0 0 5 -1.42 1.37
0 0 -5 2.13 1.31
0 0 5 0.89 0.98
1 0 5 109.18 3.95
-1 0 -5 111.87 3.95
-1 0 5 111.39 3.87
-1 0 5 98.79 4.07
1 0 -5 98.81 4.1
1 0 5 101.65 4.06
-2 0 -5 335.91 11.38
2 0 -5 327.92 11.51
-2 0 5 326.71 11.44
2 0 5 330.23 11.36
-2 0 5 325.88 11.28
2 0 -5 326.59 11.62
-3 0 -5 161.53 5.83
3 0 -5 152.66 6.28
-3 0 5 154.29 5.91
3 0 5 170.63 5.88
3 0 -5 159.94 6.08
-4 0 5 228.41 8.72
-4 0 5 220.41 8.27
4 0 -5 243.4 8.58
4 0 -5 236.6 8.7
4 0 5 231.01 8.32
-5 0 5 3.36 3.18
5 0 5 3.95 2.37
5 0 -5 3.91 2.87
-5 0 5 2.65 2.17
-5 0 -5 1.79 1.97
5 0 -5 4.34 2.86
-6 0 5 649.52 22.86
-6 0 -5 669.02 22.47
6 0 5 662.41 22.63
6 0 -5 637.08 22.53
6 0 -5 645.71 22.78
-7 0 -5 39.31 3.38
7 0 5 42.78 4.11
7 0 -5 42.96 4.64
-7 0 5 41.99 4.85
8 0 5 10.77 4.72
-8 0 -5 11.42 3.59
-8 0 5 10.41 5.09
8 0 -5 8.87 5.4
9 0 5 181.81 9.48
-9 0 -5 208.98 8.55
-9 0 5 193.72 9.58
-10 0 5 87.96 8.25
10 0 5 87.7 8.94
10 0 -5 83.61 9.66
0 -1 -5 2191.31 70.44
0 -1 -5 1999.52 69.44
0 1 5 2047.95 69.47
0 1 5 2090.44 70.02
0 -1 5 2005.62 69.44
0 -1 5 2038.57 69.38
-1 -1 5 410.74 14.29
1 -1 -5 415.58 14.26
1 -1 5 426.51 14.18
1 1 5 382.13 14.22
1 -1 -5 389.61 14.11
1 1 5 425.24 14.15
-1 -1 -5 433.59 14.17
1 1 -5 421.29 14.33
-1 1 5 430.96 14.09
1 -1 5 401.92 14.24
-1 1 5 406.29 14.19
1 1 -5 420.73 14.33
-2 -1 -5 52.58 2.35
2 1 -5 52.91 3.02
2 1 -5 53.61 2.66
2 1 5 53.81 2.44
-2 1 5 50.24 2.1
2 -1 -5 50.96 2.65
2 -1 -5 49.48 2.99
2 -1 5 51.99 2.36
-2 1 5 50.1 2.4
-3 -1 5 1802.33 61.4
3 1 -5 1829.69 61.45
3 1 -5 1772.54 61.39
3 -1 -5 1843.09 61.43
-3 -1 -5 1796.63 61.31
3 -1 5 1782.01 61.3
-3 -1 5 1869.13 61.37
3 1 5 1863.46 61.35
4 1 5 440.28 15.11
-4 -1 5 414.19 15.34
4 -1 -5 440.14 15.21
4 -1 5 433.67 15.06
4 -1 -5 425.77 15.3
-4 -1 -5 448.19 15.06
-4 -1 5 424.33 15.13
4 1 -5 446.43 15.28
4 1 -5 441.54 15.32
-5 1 5 1065.18 38.55
-5 1 -5 1152.73 38.36
5 -1 5 1170.28 38.45
5 1 -5 1123.45 38.62
5 1 5 1139.89 38.48
5 -1 -5 1123.53 38.57
-5 -1 5 1137.29 38.45
-5 -1 5 1136.27 38.64
-5 -1 -5 1151.42 38.41
5 1 -5 1110.83 38.51
5 -1 -5 1142.16 38.48
-6 -1 5 440.12 15.77
6 -1 -5 447.83 16.06
6 1 5 459.98 15.91
6 -1 5 449.02 15.83
6 1 -5 447.27 15.85
6 -1 -5 455.45 15.82
-6 1 5 442.85 16.14
-6 -1 5 451.37 16.2
6 1 -5 433.1 16.07
-6 -1 -5 460.65 15.73
-7 1 5 16.18 4.39
7 -1 -5 12.6 4.45
7 1 5 14.34 3.96
7 1 -5 10.53 4.28
7 -1 5 15.85 3.59
-7 -1 -5 14.11 3.15
-7 -1 5 9.22 4.45
-7 -1 5 12.45 3.42
-8 -1 -5 76.11 4.89
-8 1 5 78.3 6.06
8 1 5 74.65 5.77
8 -1 -5 72.94 6.54
-8 -1 5 73.21 6.06
8 1 -5 84.72 6.04
8 -1 5 76.53 5.72
-8 -1 5 76.45 4.79
-9 -1 5 984.4 33.41
9 -1 -5 942.67 33.85
-9 1 5 946.57 33.32
9 1 -5 895.43 33.62
9 1 5 977.11 33.48
9 -1 5 971.2 33.47
-9 -1 -5 952.25 33.04
-10 1 5 321.83 13.79
10 1 -5 314.24 14.58
-10 -1 -5 329.11 13.25
-10 -1 5 326.71 13.9
10 -1 -5 320.94 15.29
10 -1 5 314.99 14.28
10 1 5 312.01 13.92
0 -2 -5 1884.84 65.07
0 2 5 1933.83 65.24
0 2 5 1951.32 65.86
0 -2 -5 1932.34 65.2
0 -2 5 1971.3 65.19
-1 -2 -5 1136.27 38.45
1 2 -5 1175.42 38.56
1 2 5 1092.73 38.5
1 2 5 1129.46 38.45
-1 -2 5 1137.97 38.58
1 2 -5 1183.17 38.59
1 -2 -5 1141.75 38.55
1 -2 -5 1118.59 38.42
2 -2 -5 222.77 7.96
2 -2 -5 236.24 8.2
2 2 5 229.62 8.1
-2 -2 5 229.76 8.28
2 2 -5 223.4 8.49
-2 -2 5 236.66 8.39
2 2 -5 229.48 8.27
2 -2 5 222.24 8.09
-2 -2 -5 240.01 8.1
3 -2 -5 366.04 12.3
3 -2 5 342.11 12.21
-3 -2 -5 375.62 12.25
-3 -2 5 345.91 12.51
3 2 5 348.79 12.25
3 2 -5 348.27 12.39
3 2 -5 347.22 12.55
-3 -2 5 342.56 12.37
4 -2 -5 79.22 3.61
4 2 -5 73.93 3.78
-4 -2 5 70.08 4.18
4 2 5 77.9 3.57
4 2 -5 71.11 4.09
-4 -2 5 72.53 3.73
4 -2 -5 76.28 4.05
4 -2 5 74.19 3.37
-4 -2 -5 78.29 3.38
-5 -2 5 478.39 17.39
-5 -2 -5 512.45 17
-5 -2 5 502.99 17.15
5 2 -5 503.14 17.28
5 -2 -5 509.01 17.16
5 -2 5 478.44 16.98
5 2 5 456.69 17.05
5 -2 -5 475.5 17.15
5 2 -5 493.47 17.26
6 2 -5 1147.86 38.5
6 -2 -5 1147.13 38.44
6 2 -5 1112.36 38.21
6 -2 5 1100.31 38.24
-6 -2 5 1126.24 38.53
-6 -2 -5 1095.14 38.21
6 -2 -5 1123.6 38.16
-6 2 5 1122.68 38.41
6 2 5 1129.23 38.34
-6 -2 5 1126.42 38.33
-7 -2 -5 232.82 8.79
7 -2 -5 227.27 9.48
-7 -2 5 234.14 9.04
7 2 5 219.32 9.11
-7 2 5 217.13 9.29
7 2 -5 224.49 9.34
7 -2 5 215.18 8.92
-7 -2 5 229.55 9.66
8 -2 -5 170.47 8.91
8 2 -5 158.72 8.24
-8 -2 5 176.19 8.63
-8 -2 -5 164.97 7.55
-8 -2 5 170.68 7.79
8 -2 5 171.03 7.83
8 2 5 165.29 7.96
-8 2 5 155.08 8.16
-9 -2 -5 18.97 5.09
9 2 5 8.39 5.7
9 -2 -5 6.76 7.91
9 2 -5 7.39 6.4
-9 -2 5 6.82 5.38
-9 -2 5 3.86 6.52
-9 2 5 3.08 6.01
9 -2 5 6.42 6.39
-10 -2 -5 63.62 7.34
10 -2 5 65.99 9.07
-10 2 5 67.21 7.94
-10 -2 5 69.02 8.5
10 2 -5 54.99 8.78
10 2 5 61.51 8.18
0 -3 5 1597.52 52.09
0 3 -5 1631.51 52.05
0 -3 -5 1460.05 51.93
0 -3 -5 1482.54 52.05
1 3 5 123.46 4.43
1 -3 -5 124.74 4.55
-1 -3 5 114.26 4.69
1 3 -5 120.78 4.98
1 3 5 120.13 4.52
-1 -3 -5 120.12 4.44
2 3 -5 1248.81 41.74
2 -3 -5 1151.8 41.45
-2 -3 -5 1256.38 41.53
2 3 5 1198.27 41.6
-2 -3 5 1238.13 41.65
2 3 5 1214.36 41.54
2 -3 -5 1234.69 41.61
-2 -3 5 1287.87 41.71
2 3 -5 1242.76 41.65
-3 -3 5 359.89 13.15
-3 -3 -5 384.93 12.81
3 3 -5 367.71 13.19
3 3 5 354.28 12.83
3 -3 5 362.59 12.8
3 -3 -5 353.96 12.59
3 -3 -5 372.28 12.78
3 -3 -5 377.57 13.16
-3 -3 5 380.09 13.02
3 3 -5 376.58 12.98
4 3 -5 921.18 29.55
4 -3 -5 835.23 29.49
-4 -3 5 853.08 29.51
-4 -3 -5 853.74 29.33
4 -3 -5 891.23 29.36
4 -3 5 818.34 29.31
4 3 5 871.46 29.38
4 3 -5 846.88 29.56
-4 -3 5 868.27 29.65
5 -3 5 659.72 22.99
5 3 -5 677.23 23.21
-5 -3 5 673.71 23.43
5 -3 -5 663.41 23.12
-5 -3 -5 672.9 23
5 3 -5 670.43 23.21
6 -3 5 160.91 6.62
6 -3 -5 183.08 7.12
-6 -3 5 164.91 7.06
6 3 5 156.95 6.88
-6 -3 -5 158.03 6.61
6 -3 -5 161.41 6.83
6 3 -5 167.39 7.07
6 3 -5 171.04 7.14
-6 -3 5 168.53 7.65
-7 -3 5 14.09 5.04
-7 -3 -5 9.48 3.36
-7 -3 5 13.42 4.36
7 3 5 11.49 3.88
7 3 -5 12.28 4.42
7 -3 5 13.48 3.5
7 -3 -5 15.1 4.75
8 -3 -5 638.28 22.77
-8 -3 5 639.58 22.66
8 3 5 639.01 22.25
8 -3 5 633.87 22.3
-8 3 5 652.18 22.44
8 3 -5 609.85 22.47
-8 -3 5 565.94 22.29
-9 -3 -5 37.57 6.09
9 -3 5 44.58 6.76
-9 -3 5 45.38 6.93
-9 -3 5 54.84 7.31
9 3 5 42.88 6.3
9 -3 -5 46.5 8.79
9 3 -5 43.04 6.64
-9 3 5 40.08 6.79
10 3 -5 78.3 8.86
-10 -3 5 91.11 9.3
10 3 5 78.74 8.44
-10 -3 5 90.34 8.72
-10 3 5 90.11 8.58
-10 -3 -5 92.68 8.94
0 -4 5 133.59 5.05
0 -4 -5 123.74 4.99
0 4 -5 133.49 5.36
0 -4 -5 141.57 4.85
-1 -4 5 941.95 32.65
1 4 -5 951.59 32.77
-1 -4 -5 991.04 32.53
2 4 5 1165.76 39.48
-2 -4 5 1179.21 39.61
2 4 5 1120.81 39.4
-2 -4 -5 1203.05 39.46
3 -4 -5 269.1 10.07
3 4 -5 272.92 10.21
-3 -4 5 270.1 9.94
-3 -4 -5 289.43 9.76
3 4 5 275.4 9.71
-3 -4 5 271.79 10.19
3 4 -5 268.22 9.84
-4 -4 -5 387.16 13.65
4 4 -5 394.48 13.77
4 -4 -5 392.84 13.91
4 -4 5 369.92 13.56
4 4 -5 382.36 13.99
-4 -4 5 396.32 13.87
-4 -4 5 402.03 14.16
4 4 5 386.77 13.63
-5 -4 5 627.4 21.62
-5 -4 -5 610.73 21.36
5 4 -5 630.49 21.61
5 -4 -5 601.17 21.48
5 -4 5 601.57 21.31
-5 -4 5 639.74 21.88
5 4 -5 622.62 21.54
-6 -4 5 19.47 4.77
6 4 -5 17.81 3.59
6 -4 5 15.33 2.97
6 4 5 17.16 3.4
-6 -4 -5 15.96 2.91
6 4 -5 15.53 3.83
6 -4 -5 17.5 3.65
-6 -4 5 18.4 3.82
7 4 -5 485.97 17.89
7 -4 -5 522.26 17.93
-7 -4 5 508.47 18.35
-7 -4 5 495.27 17.97
7 4 5 494.49 17.75
-7 -4 -5 478.18 17.56
7 -4 5 488.84 17.69
-8 -4 5 234.36 10.86
8 4 5 247.73 10.01
-8 -4 -5 241.33 9.78
8 -4 -5 242.81 10.82
8 4 -5 216.91 10.23
-8 -4 5 240.64 10.63
8 -4 5 258.66 10.15
9 4 5 174.07 9.06
9 -4 -5 199.02 11.63
9 -4 5 188.56 9.96
-9 -4 5 174.03 10.34
-9 -4 5 202.26 10.17
9 4 -5 177.31 9.81
-10 -4 5 52.02 10.48
-10 -4 -5 61.83 8.84
0 5 -5 100.62 4.66
0 -5 5 100.55 4
0 -5 -5 90.84 3.71
0 -5 -5 98.79 3.94
-1 -5 5 10.38 2.34
-1 -5 5 12.29 1.99
1 5 -5 12.7 2.98
-1 -5 -5 9.43 1.73
-1 5 -5 14.88 2.5
-2 -5 5 2093.45 70.43
-2 -5 -5 2062.71 70.28
2 5 -5 2141.86 70.51
2 5 -5 2051.86 70.31
-3 -5 5 1952.76 64.2
3 5 5 1786.43 63.92
3 5 -5 1953.41 64.23
-3 -5 5 1953.05 64.24
-3 -5 -5 1846.77 64
-4 -5 -5 2623.07 88.44
-4 -5 5 2700.95 88.63
4 -5 -5 2497.04 88.36
4 5 -5 2670.32 88.51
4 5 5 2555.65 88.38
-4 -5 5 2710.9 88.6
-5 -5 5 148.36 7.06
5 -5 -5 146.8 6.39
5 5 5 149.84 6.08
-5 -5 -5 139.83 5.99
5 5 -5 140.26 6.18
5 -5 5 142.03 5.84
-5 -5 5 141.32 6.44
5 5 -5 150.54 6.62
-6 -5 5 106.64 5.89
6 5 -5 102.2 5.48
-6 -5 -5 105.12 5.31
-6 -5 5 107.1 6.55
6 5 -5 113.04 5.76
6 -5 5 117.76 5.24
6 5 5 111.11 5.5
7 -5 5 96.84 5.49
7 -5 -5 97.01 5.87
-7 -5 5 92.37 6.16
-7 -5 -5 91.53 5.17
-7 -5 5 97.07 6.81
7 5 5 102.21 5.7
7 5 -5 92.92 5.72
8 -5 5 38.08 5.53
8 -5 -5 42.34 6.63
-8 -5 5 40.69 6.89
-8 -5 -5 38.33 4.86
-8 -5 5 41.74 6.4
8 5 -5 40.04 5.62
8 5 5 47.41 5.45
-9 -5 5 67.15 8.8
9 -5 -5 83.09 9.83
9 5 -5 69.8 7.22
-9 -5 5 86.14 8.44
9 5 5 89.36 6.91
-9 -5 -5 86.38 6.78
9 -5 5 67.94 7.85
0 -6 5 623.06 21.37
0 6 -5 624.99 21.76
1 6 -5 82.63 4.66
-1 6 -5 85.89 4.44
-1 -6 5 79.91 3.74
-1 -6 5 78.67 4.01
-1 -6 -5 74.91 3.43
-2 -6 -5 1015.42 34.42
3 6 -5 428.94 15.22
-3 -6 -5 429.7 14.71
3 6 -5 402.87 14.65
-3 -6 5 409.07 14.89
-3 -6 5 433.28 15.29
4 6 -5 342.73 12.3
4 6 -5 343.37 12.74
-4 -6 5 352.06 13.02
-4 -6 -5 340.7 12.26
-4 -6 5 327.65 12.48
4 6 5 342.63 12.06
4 -6 -5 353.79 12.64
5 6 5 154.64 6.29
5 6 -5 152.72 6.57
-5 -6 -5 155.22 6.47
-5 -6 5 163.22 7.69
-5 -6 5 155.81 6.95
5 6 -5 158.22 7.08
5 -6 -5 152.57 7.52
5 -6 -5 156.57 6.85
-6 -6 5 235.98 9.61
6 6 5 219.71 8.92
6 -6 5 233.32 8.98
-6 -6 5 240.54 10.25
6 6 -5 239.2 9.14
6 6 -5 222.01 9.32
-6 -6 -5 227.03 8.99
-7 -6 5 165.72 9.24
7 6 5 172.56 7.71
-7 -6 -5 173.2 7.85
-7 -6 5 170.93 8.58
7 -6 5 184.51 8.02
7 6 -5 206.96 7.92
7 6 -5 184.01 7.99
-8 -6 -5 284.71 11.44
8 6 5 297.8 11.38
-8 -6 5 284.21 12.43
8 6 -5 268.39 11.62
-8 -6 5 283.06 12.89
8 -6 -5 307.57 12.56
8 -6 5 284.34 11.87
9 6 5 18.43 5.83
-9 -6 5 9.6 8.29
-9 -6 -5 16.11 6.24
9 6 -5 12.5 6.39
-9 -6 5 18.6 8.88
0 7 -5 82.84 4.96
0 -7 5 75.72 3.68
1 7 -5 16.34 3.8
-1 7 -5 21.85 3.92
-1 -7 -5 16.39 2.09
-1 -7 5 15.96 3.3
-1 -7 5 15.82 2.45
-2 7 -5 1162.8 39.88
-2 -7 5 1248.95 39.97
2 7 -5 1143.04 39.95
-2 -7 -5 1147.55 39.53
-2 -7 5 1133.89 39.69
-3 -7 -5 839.18 29.67
-3 -7 5 887.15 30.18
-3 -7 5 863.82 29.88
3 7 -5 896.92 29.6
-3 7 -5 871.5 29.91
3 7 -5 859.98 30.1
-4 -7 -5 819.76 29.79
-4 -7 5 889.32 30.4
4 7 -5 876.84 30.16
-4 -7 5 893.76 30.05
4 -7 -5 875.61 30.02
-5 -7 -5 313.37 11.48
-5 -7 5 303.76 11.77
5 7 5 304.12 11.14
5 -7 -5 320.49 12.47
5 7 -5 322.04 11.45
5 7 -5 307.49 11.89
-5 -7 5 302.02 12.55
5 -7 -5 310.46 11.7
6 7 -5 122.84 6.35
6 7 5 114.61 5.49
-6 -7 5 109.76 6.53
-6 -7 5 121.73 7.78
-6 -7 -5 117.87 5.82
6 -7 5 117.02 5.78
6 7 -5 94.83 5.78
7 7 -5 71.97 5.54
7 -7 5 75.61 5.49
-7 -7 -5 62.45 5.3
-7 -7 5 60.36 6.27
7 7 -5 66.02 5.32
-7 -7 5 70.47 7.59
7 7 5 67.84 4.95
8 -7 5 125.31 8
8 7 -5 113.02 7.38
-8 -7 -5 131.69 7.67
-8 -7 5 129.19 8.88
8 7 5 131.02 6.92
-8 -7 5 129 9.41
-8 -7 -5 115.18 7.43
-9 -7 -5 100.87 7.76
-9 -7 5 114.91 10.45
-9 -7 5 96 10.53
0 8 -5 220.58 9.32
0 -8 5 222.25 8.3
1 8 -5 709.72 24.6
-1 -8 5 696.83 24.24
-1 8 -5 710.92 24.6
-1 -8 -5 683.81 23.84
-1 -8 5 692.5 24.02
-2 8 -5 569.23 19.93
-2 -8 5 553.98 19.76
-2 -8 5 556.14 19.32
2 8 -5 539.52 19.77
2 -8 -5 548.75 19.85
-3 8 -5 1.33 4.77
-3 -8 5 -1.75 4.86
-3 -8 5 4.3 3.22
-3 -8 -5 3.6 2.84
3 8 -5 -0.03 4.33
3 -8 -5 0.61 4.94
4 8 -5 695.25 23.99
-4 -8 5 729.5 25.04
-4 -8 5 677.69 24.37
4 8 -5 716.99 24.61
-4 -8 -5 680.52 24.14
-4 8 -5 690.81 24.65
4 -8 -5 701.21 24.44
-5 -8 5 395.19 15.39
5 -8 -5 394.94 15.32
5 8 -5 405.63 14.15
5 8 -5 393.82 14.53
-5 -8 -5 383.38 14.16
5 -8 -5 372.68 14.35
-5 -8 5 385.46 14.46
6 8 5 466.99 17.23
6 8 -5 499.45 17.54
-6 -8 5 489.05 18.05
-6 -8 -5 473.28 17.64
6 8 -5 502.51 17.85
-6 -8 5 512.75 18.91
-7 -8 -5 223.67 9.58
7 8 5 198.83 8.92
-7 -8 5 205.55 10.29
-7 -8 -5 225.88 10.17
7 -8 5 228.12 9.81
-7 -8 5 239.16 11.65
7 8 -5 228.36 9.47
-8 -8 5 126.4 10.33
-8 -8 5 113.56 9.23
8 8 -5 135.76 7.57
-8 -8 -5 114.39 7.77
-8 -8 -5 109.61 8.46
0 -9 5 1170.62 39.41
0 9 -5 1104.46 40
0 -9 -5 1205.18 39.94
1 -9 5 141.36 5.85
1 9 -5 143.4 7.63
1 -9 -5 147.67 7.69
-1 9 -5 160.48 7.91
-1 -9 -5 143.6 5.92
-1 -9 -5 146.01 7.53
-1 -9 5 148.99 7.09
-1 -9 5 159.86 6.23
-2 -9 -5 186.42 7.54
2 9 -5 195.15 8.76
-2 -9 -5 200.2 8.73
-2 -9 5 202.13 7.83
2 -9 -5 195.39 9.25
-2 9 -5 195.73 9.21
-2 -9 5 200.79 9.08
-3 -9 -5 176.29 8.17
3 -9 -5 164.79 9.02
-3 -9 -5 171.96 7.05
-3 -9 5 171.67 8.8
-3 -9 5 170.29 7.4
-3 9 -5 166.25 8.79
3 9 -5 191.68 8.23
4 -9 -5 58.49 7.16
4 -9 -5 56.72 5.39
-4 -9 -5 51.55 4.3
-4 -9 5 51.59 4.72
-4 9 -5 50.77 6.75
4 9 -5 53.5 5.57
-4 -9 -5 54.76 5.8
-4 -9 5 64.22 7.14
5 9 -5 225.05 8.62
5 -9 -5 210.28 11.26
-5 -9 5 226.82 11.17
-5 -9 -5 239.31 9.14
5 -9 -5 226.16 9.52
-5 -9 5 224.35 9.49
-5 9 -5 219.34 10.94
5 9 -5 221.44 9.7
-5 -9 -5 214.56 10.14
6 9 -5 406.55 14.91
-6 -9 5 399.8 16.83
-6 9 -5 389.75 16.62
6 9 -5 440.01 15.33
-6 -9 -5 408.84 15.51
-6 -9 5 390.87 15.46
-6 -9 -5 380.38 14.94
-7 -9 5 36.03 9.36
-7 -9 5 32.84 7.04
7 9 -5 -3.28 5.42
-7 -9 -5 19.75 5.66
-7 -9 -5 31.97 7.22
7 9 -5 37.71 5.54
0 10 -5 706.16 24.73
0 -10 5 671.13 23.74
0 -10 -5 688.43 24.69
-1 -10 -5 103.55 7.1
-1 -10 5 114.08 5.33
1 10 -5 96.45 6.97
-1 10 -5 108 7.7
1 -10 -5 116.96 7.93
1 -10 5 105.86 4.85
-1 -10 -5 111.15 4.93
-2 -10 -5 18.95 5.6
-2 -10 5 19.49 3.85
2 10 -5 23.28 5.51
-2 -10 5 9.9 6.3
2 -10 -5 14.91 6.91
-2 -10 -5 14.23 3.39
-2 10 -5 7.65 6.45
-3 -10 -5 151.95 8.37
3 10 -5 159.51 8.19
-3 -10 5 147.94 7.22
3 -10 -5 170.5 9.69
-3 10 -5 162.63 9.48
-3 -10 -5 144.28 6.78
-3 -10 5 165.6 9.28
-4 -10 -5 89.75 7.17
4 -10 -5 86.27 6.43
4 -10 -5 84.93 9.22
4 10 -5 92.27 6.79
-4 -10 -5 92.43 5.37
-4 -10 5 86.83 5.84
-4 10 -5 87.44 8.61
-4 -10 5 82.82 8.62
5 10 -5 58.65 6.59
-5 -10 -5 61.63 7.25
-5 -10 -5 56.46 5.28
-5 -10 5 56.39 5.93
5 -10 -5 62.74 9.68
-5 10 -5 63.13 9.61
-5 -10 5 65.39 8.93
-6 10 -5 312.2 15.83
-7 -10 5 19.17 10.9
-7 -10 -5 20.07 6.54
-7 -10 5 29.95 7.98
0 -11 -5 348.37 15.26
0 11 -5 373.37 15.06
0 -11 5 395.68 13.49
-1 -11 5 59.32 4.6
1 -11 5 66.59 4.02
1 -11 -5 66.81 8.07
-1 -11 -5 63.52 4.22
-1 -11 -5 56.76 7.51
-1 11 -5 67.54 7.51
1 11 -5 66.06 6.87
-2 11 -5 243.4 12.14
-2 -11 -5 251.49 9.9
2 11 -5 257.9 11.36
2 -11 -5 253.29 12.77
-2 -11 5 268.92 12.34
-2 -11 5 256.02 10.24
-2 -11 -5 273.82 11.96
3 -11 -5 319.26 14.99
-3 11 -5 322.21 14.32
-3 -11 5 295.2 14.14
3 11 -5 318.61 13
-3 -11 -5 313.29 13.44
-3 -11 5 314.46 12.24
-4 -11 5 354.81 13.62
-4 -11 5 369.83 15.99
4 11 -5 368.9 14.21
-4 11 -5 340.82 15.97
4 -11 -5 340.31 16.42
-4 -11 -5 328.5 13.18
-4 -11 -5 351.48 14.75
-5 -11 5 332.21 16.09
-5 -11 -5 328.56 14.36
-5 -11 5 348.29 13.44
-5 -11 -5 324.39 12.98
-5 11 -5 326.27 16.58
5 11 -5 334.58 13.7
6 11 -5 0.64 6.65
-6 -11 -5 45.19 6.46
-6 -11 5 43.06 7.38
-6 -11 5 42.45 11.61
0 12 -5 20.86 7.5
0 -12 -5 19.27 8.74
0 -12 5 23.27 4.18
-1 -12 5 580.18 19.73
-1 -12 -5 522.76 19.39
1 -12 5 527.42 19.41
-1 12 -5 575.01 21.45
1 -12 -5 539 21.6
-1 -12 -5 540.22 21.35
1 12 -5 589.48 21.07
-2 12 -5 239.81 12.71
2 12 -5 233.21 11.31
-2 -12 -5 230.81 11.78
2 -12 5 227.78 8.91
-2 -12 -5 244.67 9.42
-2 -12 5 217.75 9.74
2 -12 -5 236.12 13.7
-2 -12 5 211.8 12.74
3 -12 -5 18.27 11.31
-3 -12 -5 15.63 4.95
-3 12 -5 18 10.03
-3 -12 5 11.75 10.18
3 12 -5 15.17 7.33
-3 -12 -5 17.18 8.19
-3 -12 5 6.32 5.39
-4 -12 -5 20.59 8.57
-4 -12 -5 18.54 5.45
-4 -12 5 23.25 6.24
4 -12 -5 0.02 6.63
-4 -12 5 23.69 11.16
4 -12 -5 10.53 13.1
0 -13 -5 43.27 11.2
0 -13 5 29.07 5.08
0 13 -5 37.75 9.1
-1 -13 5 328.1 12.54
1 -13 -5 332.15 16.95
1 -13 5 296.82 12.11
-1 13 -5 331.03 15.18
-1 -13 -5 312.45 15.68
-1 -13 -5 317.37 12.16
1 13 -5 307.81 14.47
-2 -13 -5 20.33 5.51
-2 -13 -5 20.8 10.19
-2 -13 5 18.66 11.83
2 -13 -5 25.61 13.21
2 -13 5 25.25 4.35
3 -13 -5 55.28 15.24
-3 -13 5 47.19 12.99
1 0 6 1716.67 57.55
-1 0 6 1675.13 57.52
1 0 -6 1706.45 57.7
-1 0 6 1740.32 57.68
1 0 6 1705.73 57.67
-2 0 6 4289.32 157.69
2 0 6 4800.48 158.12
2 0 -6 4607.6 158.87
-2 0 -6 4822.86 158.46
2 0 -6 4725.23 158.52
-2 0 6 4807.14 157.12
-3 0 -6 388.48 13.77
3 0 -6 403.32 13.98
-3 0 6 409.68 13.85
-3 0 6 385.52 13.6
3 0 -6 405.14 14.17
3 0 6 392.08 13.78
4 0 6 750.59 25.95
4 0 -6 782.76 26.19
4 0 -6 748.63 26.2
-4 0 6 775.71 25.97
-4 0 6 729.13 25.74
-4 0 -6 775.02 25.96
-5 0 6 20.26 2.71
5 0 -6 20.4 3.46
-5 0 6 19.45 1.63
5 0 6 23.73 2.82
-5 0 6 19.64 3.74
5 0 -6 19.87 3.4
-5 0 -6 21.68 2.51
6 0 -6 14.34 3.93
-6 0 -6 16.2 2.75
-6 0 6 12.3 4.18
6 0 -6 12.29 3.64
6 0 6 14.37 3.13
7 0 6 1679.07 58.05
-7 0 6 1718.51 58.15
-7 0 -6 1780.72 57.95
7 0 -6 1657.48 58.29
8 0 -6 377.1 14.95
-8 0 -6 392.89 14.01
-8 0 6 381.81 14.63
8 0 6 362.04 14.32
9 0 -6 68.17 8.29
-9 0 6 75.97 7.4
9 0 6 81.51 7.17
-9 0 -6 87.24 6.13
-10 0 6 2.24 7.86
0 1 6 66.98 3.14
0 -1 6 69.72 3.28
0 -1 -6 74.08 2.95
0 1 6 75.13 2.85
0 -1 -6 68.25 3.19
0 -1 6 73.42 2.94
1 1 6 53.05 2.31
1 1 6 46.69 2.63
-1 -1 6 47.41 2.28
1 1 -6 50.81 2.98
1 -1 -6 47.91 2.8
1 -1 6 48.94 2.64
-1 1 6 49.52 2.57
1 1 -6 50.35 2.67
-1 -1 -6 53.88 2.39
1 -1 6 54.04 2.39
-1 1 6 52.05 2.19
-1 -1 6 50.59 2.78
2 -1 -6 3431.27 117
2 1 6 3250.01 114.73
-2 1 6 3553.02 114.95
-2 1 6 3207.52 115.05
2 -1 -6 3451.34 116.56
2 1 -6 3382.66 114.73
-2 -1 6 3394.28 114.91
2 -1 6 3358.14 114.78
-2 -1 -6 3600.75 116.33
2 1 -6 3533.95 116.67
-3 -1 6 204.01 7.66
3 -1 6 206.88 7.46
3 1 -6 200.11 7.98
3 1 -6 203.33 7.7
3 -1 -6 202.62 7.94
3 1 6 213.54 7.54
3 -1 -6 206.54 7.67
-3 -1 -6 210.54 7.46
-4 -1 6 456.06 16
4 -1 6 453.54 15.89
-4 -1 -6 456.95 15.87
-4 -1 6 460.76 16.23
4 1 6 456.27 15.91
4 -1 -6 470.84 16.13
4 -1 -6 470.59 16.24
4 1 -6 438.89 16.1
5 -1 -6 54.88 3.97
-5 -1 6 59.54 3.59
-5 -1 6 50.7 4.31
5 1 -6 62.36 4.06
5 -1 6 57.19 3.31
5 1 6 54.86 3.49
5 1 -6 58.53 4.17
5 -1 -6 54.58 4.16
-5 -1 -6 58.72 3.24
-6 -1 -6 218.14 8.53
6 -1 -6 248.08 8.98
-6 -1 6 228.53 9.28
-6 -1 6 223.83 8.74
6 1 -6 210.85 9.12
-6 1 6 217.35 9.28
6 1 6 211.82 8.69
6 -1 -6 221.57 9.15
6 -1 6 232.88 8.75
6 1 -6 251.23 9.03
-7 -1 6 281.09 10.61
7 1 -6 284.97 11.27
7 -1 -6 286.17 11.32
-7 -1 -6 285.29 10.55
-7 -1 6 282.61 11.36
7 1 6 270.56 10.79
7 1 -6 278.46 10.72
7 -1 6 284.55 10.85
-7 1 6 277.42 11.23
8 1 -6 567.89 21.17
-8 1 6 594.5 20.99
-8 -1 6 585.49 21.09
8 -1 6 601.49 20.85
-8 -1 -6 587.44 20.49
8 1 6 586.89 20.77
8 -1 -6 522.64 21.14
9 -1 -6 300.75 14.08
9 -1 6 325.93 13.25
-9 1 6 330.97 13.35
-9 -1 -6 325.43 12.54
9 1 6 302.83 13.23
9 1 -6 312.14 13.85
-9 -1 6 321.27 13.49
-10 -1 -6 221.78 10.91
-10 -1 6 210.72 11.72
-10 1 6 221.62 11.57
0 -2 6 182.56 6.73
0 -2 -6 176.33 6.67
0 2 6 187.5 6.62
0 2 6 185.65 6.42
0 -2 -6 176.38 6.46
1 -2 6 86.1 3.5
-1 -2 -6 88.34 3.45
1 2 6 85.94 3.44
1 2 6 86.59 3.77
1 2 -6 88.6 3.7
1 -2 -6 86.58 3.74
1 -2 6 91.79 3.69
1 -2 -6 87.2 3.38
1 2 -6 80.4 4.06
-1 -2 6 87.79 3.78
2 2 6 364.92 12.88
2 -2 6 376.53 12.8
-2 -2 6 365.73 12.96
2 -2 -6 354.43 12.66
2 -2 -6 374.58 12.92
2 2 -6 359.26 13.13
-2 -2 -6 378.34 12.77
2 2 -6 374.39 12.95
-3 -2 6 30.88 3.24
3 -2 -6 35.51 3.27
3 -2 6 36 2.22
-3 -2 6 23.32 2.58
3 2 -6 26.7 3.27
-3 -2 -6 30.14 2.24
3 2 6 33.51 2.28
3 2 -6 30.86 2.68
3 -2 -6 30.18 2.75
4 2 -6 713.58 24.5
-4 -2 6 705.05 24.59
-4 -2 6 711.13 24.47
-4 -2 -6 720.49 24.28
4 2 6 705.57 24.32
4 -2 -6 699.3 24.55
4 -2 6 702.14 24.27
4 -2 -6 719.83 24.42
-5 -2 6 459.36 16.03
-5 -2 -6 467.02 15.56
-5 -2 6 430.39 15.72
5 2 6 434.65 15.61
5 2 -6 449.44 15.84
5 2 -6 431.47 15.87
5 -2 6 444.28 15.54
5 -2 -6 461.75 15.8
5 -2 -6 417.79 15.8
6 2 6 292.89 10.68
6 2 -6 288.22 10.99
6 2 -6 289.67 10.83
6 -2 -6 286.35 10.77
-6 -2 6 290.4 11.21
6 -2 -6 289.85 10.98
-6 -2 -6 266.82 10.49
6 -2 6 281.85 10.54
-6 -2 6 279.57 10.71
-7 -2 6 348.95 12.76
7 2 -6 345.23 12.56
7 -2 -6 354.42 13.19
-7 -2 6 322.09 13.12
7 -2 6 318.73 12.53
7 2 6 336.48 12.72
-8 -2 6 126.78 6.96
8 -2 6 119.14 7.03
8 2 6 122.57 7.07
-8 -2 -6 125.67 6.42
-8 2 6 113.69 7.33
8 2 -6 107.97 7.41
8 -2 -6 115.02 8.12
-8 -2 6 116.76 7.55
-9 2 6 85.64 7.62
-9 -2 6 84.12 7.02
-9 -2 -6 84.71 6.55
9 -2 -6 74.2 9.35
9 -2 6 81.83 7.65
9 2 -6 73.19 7.84
9 2 6 70.22 6.96
-9 -2 6 89.92 7.78
-10 -2 6 81.92 9.09
-10 -2 -6 84.09 8.43
-10 2 6 77.56 8.96
0 -3 -6 836.97 29.5
0 -3 6 874.78 29.55
0 3 -6 890.28 29.52
0 -3 -6 868.39 29.36
1 -3 -6 68.99 2.77
1 3 -6 65.9 3.74
1 -3 -6 61.93 3.16
1 3 -6 69.89 3.11
-1 -3 6 68.32 3.3
1 3 6 65.27 3.06
-1 -3 -6 69.74 2.87
1 -3 6 65.53 3.1
1 3 6 65.55 2.88
2 3 6 602.6 21.17
2 3 6 612.45 21.08
2 -3 -6 601.26 21.18
-2 -3 -6 628.1 21.09
2 3 -6 630.81 21.48
2 3 -6 633.92 21.35
-2 -3 6 616.8 21.3
3 3 -6 26.07 3.38
-3 -3 6 26.61 3.25
3 -3 6 30.57 2.22
3 3 6 26.58 2.43
-3 -3 6 27.94 2.72
3 -3 -6 27.82 1.72
-3 -3 -6 30.59 2.13
3 3 -6 27.37 2.79
3 -3 -6 28.9 2.63
3 -3 -6 25.34 3.38
-4 -3 6 87.08 4.63
-4 -3 6 91.57 5.13
-4 -3 -6 95.2 4.09
4 -3 -6 97.68 4.42
4 -3 -6 94.15 4.85
4 -3 6 99.78 4.16
4 3 -6 95.26 4.5
5 -3 -6 1271.54 42.41
5 3 -6 1241.26 42.46
5 3 6 1207.43 42.31
5 3 -6 1259.87 42.48
-5 -3 6 1227.01 42.46
-5 -3 6 1217.45 42.55
5 -3 6 1236.35 42.28
5 -3 -6 1301.45 42.41
-5 -3 -6 1243.47 42.27
6 3 -6 228.61 8.69
-6 -3 -6 204.42 8.16
-6 -3 6 210.21 9.13
6 -3 -6 221.62 8.78
6 3 -6 200.71 8.64
-6 -3 6 207.17 8.71
6 -3 6 203.19 8.23
6 3 6 214.2 8.42
6 -3 -6 221.23 8.58
7 -3 -6 1237.49 41.48
7 3 -6 1214.89 41.01
-7 -3 6 1178.45 41.29
-7 -3 6 1222.99 41.46
7 3 6 1161.58 41.1
7 3 -6 1168.92 41.33
7 -3 6 1211.42 41.15
-7 -3 -6 1217.71 41.08
-8 -3 6 324.43 12.34
8 3 6 304.37 11.77
8 -3 6 297.25 11.92
8 3 -6 273.11 12.15
-8 -3 -6 274.27 11.68
-8 -3 6 303.6 12.51
9 3 -6 -0.33 6.84
9 -3 -6 -4.74 9.08
-9 -3 -6 2.22 6.31
-9 -3 6 2.74 7.15
-9 -3 6 2.79 7.34
9 -3 6 1.99 6.97
-10 -3 -6 42.07 8.48
-10 -3 6 45.76 9.05
0 4 -6 430.85 15.06
0 -4 -6 420.4 14.88
0 -4 6 434.97 14.97
0 -4 -6 429.83 14.69
-1 -4 6 511.7 17.33
1 -4 -6 508.75 17.01
-1 -4 -6 486.11 17.06
1 -4 6 493.87 17.22
1 4 -6 495.88 17.52
1 -4 -6 499.61 17.2
2 -4 -6 1467.47 52.11
-2 -4 6 1556.75 52.31
-2 -4 -6 1588.58 52.22
2 4 6 1506.04 52.19
2 4 -6 1577.25 52.51
2 -4 -6 1529.25 52.31
2 4 6 1537.44 52.3
-2 -4 6 1560.46 52.43
2 4 -6 1611.34 52.35
3 4 -6 936.04 31.13
-3 -4 6 955.17 31.25
3 4 -6 879.51 31.33
3 4 6 905.99 30.96
3 -4 -6 908.04 31.24
-3 -4 -6 859.52 30.94
-3 -4 6 937.08 31.28
4 -4 -6 975.03 33.21
4 4 -6 1012.59 33.14
-4 -4 6 951.9 33.3
4 -4 -6 928.12 32.7
-4 -4 -6 975.08 32.96
4 4 6 913.63 32.93
4 4 -6 970.76 33.3
4 -4 -6 1013.99 32.99
4 -4 6 998.82 33.01
-4 -4 6 944.31 33.17
5 -4 -6 900.03 31.05
5 4 -6 869.02 31.02
5 -4 6 900.13 30.91
-5 -4 -6 905.83 30.85
-5 -4 6 926.97 31.31
5 4 6 874.39 30.86
5 4 -6 924 31.16
-5 -4 6 903.59 31.14
5 -4 -6 922.78 30.94
-6 -4 -6 230.06 9.21
6 -4 -6 247.58 9.61
6 -4 -6 257.31 9.81
6 4 6 236.47 9.38
6 4 -6 248.71 9.74
6 -4 6 239.82 9.28
-6 -4 6 238.83 10.25
6 4 -6 246.32 9.59
-7 -4 -6 163.45 7.25
-7 -4 6 171.46 8.13
7 4 6 164.92 7.52
7 4 -6 169.2 7.69
7 -4 -6 178.85 8.63
7 -4 6 167.44 7.55
-7 -4 6 173.65 8.78
7 4 -6 162.15 7.8
-8 -4 6 88.01 7.69
8 4 6 86.74 6.29
8 4 -6 90.46 6.69
-8 -4 -6 86.3 5.91
8 -4 6 98.01 6.58
8 -4 -6 102.2 8.52
-8 -4 6 95.08 7.9
-9 -4 6 88.43 8.78
-9 -4 -6 65.88 7.3
-9 -4 6 83.18 8.84
9 -4 6 84.24 8.19
9 4 -6 75.12 7.54
9 4 6 80.81 7.05
9 -4 -6 78.08 10.65
0 5 -6 63.15 3.96
0 -5 6 62.8 3.56
0 -5 -6 57.75 3.21
0 -5 -6 62.44 2.78
-1 -5 -6 53.81 2.72
1 5 -6 51.75 4
1 -5 -6 53.55 2.88
-1 5 -6 57.38 3.59
-1 -5 6 54.92 3.11
1 -5 -6 55.96 2.51
1 -5 6 56 2.89
2 5 -6 21.7 3.55
2 5 -6 19.31 2.19
-2 -5 -6 18.01 2.18
-2 -5 6 18.73 2.65
-2 -5 6 16.92 3.13
-3 -5 6 47.35 4.21
3 5 -6 52.32 4.28
-3 -5 -6 52.37 3.03
3 5 6 53.12 3.18
3 5 -6 53.61 4.27
-3 -5 6 46.89 3.58
3 5 6 49.39 2.91
-4 -5 -6 1083.8 37.72
4 5 -6 1112.8 38.05
-4 -5 6 1109.69 37.96
4 -5 6 1098.95 37.73
-4 -5 6 1147.74 38.11
4 5 -6 1093.07 37.81
4 -5 -6 1112.78 37.93
4 5 6 1117.68 37.66
5 5 -6 33.11 3.65
-5 -5 -6 30.93 3.13
5 5 6 28.01 3.3
5 5 -6 29.73 4.25
5 -5 -6 26.3 4.17
-5 -5 6 27.39 4.09
5 -5 6 27.72 3.1
-5 -5 6 25.1 5
-6 -5 6 190.93 8.37
6 -5 6 186.1 7.75
-6 -5 6 194.8 9.15
6 -5 -6 184.01 8.07
6 -5 -6 204.38 8.16
-6 -5 -6 178.24 7.57
6 5 -6 195.35 8.35
6 -5 -6 181.67 8.75
6 5 6 196.19 7.77
6 5 -6 179.86 7.91
7 -5 -6 252.42 10.39
7 5 -6 228.28 9.82
7 -5 6 235.03 9.66
-7 -5 6 204 10.19
-7 -5 -6 229.82 9.4
7 5 -6 252.22 9.75
7 5 6 234.93 9.57
-7 -5 6 254.28 10.9
8 -5 6 48.98 6.27
8 5 6 62.74 5.73
8 -5 -6 54.42 8.04
8 5 -6 52.94 6.01
-8 -5 6 54.47 7.19
-8 -5 -6 51.22 5.37
-8 -5 6 52.64 7.82
9 5 6 33.57 6.73
9 5 -6 18.84 6.76
-9 -5 6 28.42 8.85
-9 -5 -6 28.04 6.57
-9 -5 6 14.63 9.19
0 -6 -6 1041.27 36.49
0 -6 6 1078.19 36.54
0 -6 -6 1077.26 36.33
0 6 -6 1102.95 36.81
-1 6 -6 166.84 7.11
1 6 -6 173.52 7.33
-1 -6 6 164.67 6.54
2 6 -6 463.87 17.12
-2 -6 6 479.63 16.83
-2 -6 -6 487.4 16.47
-2 -6 6 471.82 16.71
-3 -6 6 69.09 4.95
3 6 -6 58.26 4.85
-3 -6 6 64.71 4.03
3 6 -6 63.22 3.56
-3 -6 -6 72.04 3.58
-4 -6 6 209.36 8.91
-4 -6 -6 205.66 7.7
4 6 6 207.79 7.48
4 6 6 205.55 7.83
4 -6 -6 202.58 8.42
4 6 -6 195.75 8.54
-4 -6 6 202.52 8.13
4 6 -6 174.38 7.81
5 6 6 657.25 22.76
-5 -6 6 652.38 23.22
5 -6 -6 645.12 23.12
-5 -6 6 666.45 23.64
5 6 -6 674.49 23.27
-5 -6 -6 670.92 22.93
5 -6 6 661.86 22.92
5 6 -6 654.1 22.96
6 6 -6 257.87 10.42
6 -6 -6 267.37 10.29
6 6 6 254.77 9.95
6 6 -6 257.12 10.13
6 -6 -6 263.03 11.17
6 -6 6 246.42 10
-6 -6 -6 252.11 9.95
-6 -6 6 267.98 10.65
-6 -6 6 252.8 11.36
7 6 -6 157.92 7.33
7 6 6 155.31 7.14
7 -6 6 141.7 7.47
7 6 -6 150.27 7.37
-7 -6 6 136.32 9.09
-7 -6 6 137.43 8.07
-7 -6 -6 147.04 6.83
-8 -6 6 14.81 7.23
8 6 -6 22.1 5.66
-8 -6 6 21.31 8.12
8 -6 -6 22.25 7.98
8 -6 6 23.69 6.59
8 6 6 19.16 5.53
-8 -6 -6 14.52 5.19
-9 -6 -6 66.29 7.53
-9 -6 6 67.58 10.46
-9 -6 6 79.86 9.99
0 -7 -6 735.92 24.86
0 7 -6 727.66 25.6
0 -7 6 724.45 25.1
0 -7 -6 736.25 25.05
1 7 -6 21.22 4.4
-1 7 -6 26.55 4.22
-1 -7 -6 22.71 2.43
-1 -7 6 21.74 2.8
1 -7 6 26.54 2.45
-2 -7 6 274.26 10.26
-2 -7 -6 263.76 9.55
-2 -7 6 263.33 9.86
2 7 -6 261.6 10.54
-2 7 -6 252.27 10.29
-3 -7 -6 476.5 16.77
3 7 -6 452.3 16.64
-3 -7 6 501.76 17.07
-3 -7 6 487.73 17.47
3 7 -6 482.38 17.46
4 -7 -6 240.79 9.76
-4 -7 6 250.84 10.52
4 7 -6 233.32 8.96
-4 -7 6 240.66 9.49
4 7 -6 230.62 9.89
-4 -7 -6 242.12 9.1
5 -7 -6 482.39 17.39
-5 -7 6 488.36 18.13
-5 -7 6 459.76 17.44
-5 -7 -6 467.15 17.06
5 7 -6 502.36 17.14
5 -7 -6 501.28 18.05
5 7 6 450.74 16.75
5 7 -6 497.91 17.57
6 7 -6 153.6 7.2
-6 -7 -6 154.48 7.05
6 -7 -6 163.46 9.35
6 -7 -6 157.85 7.55
6 7 -6 166.56 7.75
-6 -7 6 159.91 9.23
-6 -7 6 141.82 7.89
6 -7 6 157.05 7.29
6 7 6 145.47 6.74
7 7 -6 591.78 20.81
-7 -7 6 623 22.1
-7 -7 6 551.91 21.35
7 7 -6 537.15 20.77
7 7 6 579.53 20.52
7 -7 6 604.82 21.07
-8 -7 6 273.59 12.97
-8 -7 -6 235.16 10.32
8 7 6 235.92 10.1
-8 -7 6 225.25 12.02
8 -7 6 230.15 11.41
8 7 -6 242.11 10.58
0 8 -6 118.34 6.91
0 -8 6 122.23 5.36
-1 8 -6 206.18 9.34
-1 -8 -6 211.58 7.89
-1 -8 6 217.35 8.24
1 -8 6 217.1 7.98
1 8 -6 216.17 9.38
-2 -8 6 158.15 6.57
2 8 -6 143.46 7.59
-2 -8 6 155.03 7.45
-2 -8 -6 154.15 6.17
-2 8 -6 156.82 7.81
3 8 -6 236.66 10.22
-3 -8 6 234.74 9.45
-3 8 -6 256.14 10.39
-3 -8 -6 241.87 9.1
-4 -8 -6 188.22 7.6
4 -8 -6 187.42 8.41
4 8 -6 185.79 7.29
4 -8 -6 177.55 9.4
4 8 -6 187.18 8.65
-4 -8 6 182 8.04
-4 -8 6 196.27 9.35
5 8 -6 198.68 8.17
-5 -8 6 204.04 9.06
5 -8 -6 193.4 10.81
5 -8 -6 202.88 9.07
5 8 -6 216.59 9.33
-5 -8 6 222.09 10.6
-5 -8 -6 208.87 8.52
6 -8 -6 234.3 11.9
6 -8 6 237.3 9.67
6 8 -6 233.54 9.5
6 8 -6 243.32 9.89
-6 -8 6 216.96 10.16
-6 -8 6 237.86 11.49
-6 -8 -6 214.89 9.33
6 8 6 195.16 8.78
-7 -8 6 80.07 7.92
7 -8 6 88.27 7.26
-7 -8 6 84.99 9.29
-7 -8 -6 98.05 6.45
7 8 -6 87.96 6.33
-8 -8 6 36.24 8.83
-8 -8 -6 34.8 6.59
-8 -8 6 29.85 9.88
0 -9 6 546.21 19.02
0 9 -6 543.41 20.06
-1 -9 -6 1.04 2.76
1 9 -6 -3.28 5.35
-1 -9 6 1.91 3.18
-1 9 -6 -1.3 5.64
1 -9 6 2.04 2.68
-2 -9 6 217.99 8.55
-2 9 -6 196.32 10.08
2 9 -6 211.64 9.65
-2 -9 -6 215.63 8.2
-2 -9 6 223.87 9.67
2 -9 -6 220.11 10.04
-3 -9 6 139.5 6.51
-3 -9 -6 128.18 6.01
-3 9 -6 122.67 8.37
3 -9 -6 142.75 8.46
-3 -9 6 141.91 8.35
3 9 -6 134.48 7.59
-4 -9 6 367.35 14.6
4 9 -6 356.02 13.73
-4 9 -6 347.14 14.55
4 -9 -6 362.95 13.49
-4 -9 -6 320.47 12.81
-4 -9 6 330.59 13.18
4 -9 -6 354.97 14.79
5 9 -6 45.1 6.14
5 -9 -6 48.94 9.11
-5 -9 6 38 5.7
5 -9 -6 42.43 5.98
-5 -9 -6 39.88 4.68
-5 -9 6 49.93 8.21
5 9 -6 40.74 3.93
-6 -9 6 54.34 6.76
6 9 -6 62.01 6.61
6 9 -6 56.7 4.73
-6 -9 -6 51.81 5.57
-6 -9 6 52.99 9.02
-7 -9 -6 204.36 10.57
-7 -9 -6 172.81 9.12
-7 -9 6 195.53 12.46
-7 -9 6 194.53 10.88
0 -10 -6 300.36 12.19
0 -10 6 275.38 10.61
0 10 -6 276.94 12.26
1 -10 -6 537.77 19.89
-1 -10 -6 533.28 18.55
-1 -10 -6 539.01 19.77
1 10 -6 555.11 19.98
-1 -10 6 522.47 18.84
-1 10 -6 502.4 20.11
1 -10 6 542.71 18.65
2 10 -6 1849.77 61.86
2 -10 -6 1855.58 62.02
-2 -10 -6 1793.12 61.69
-2 -10 6 1802.05 61.76
-2 10 -6 1823.63 62.14
-2 -10 -6 1824.44 61.24
-2 -10 6 1728.17 61.44
-3 -10 6 8.78 7.52
3 10 -6 4.74 6.02
3 -10 -6 6.17 7.98
-3 10 -6 7.15 7.71
-3 -10 -6 4.97 3.89
-3 -10 -6 3.36 6.26
-3 -10 6 2.14 4.49
4 10 -6 494.9 20.5
-4 10 -6 558.28 21.7
-4 -10 -6 567.27 20.68
-4 -10 6 563.52 20.22
4 -10 -6 560.79 20.39
-4 -10 -6 575.04 19.89
-4 -10 6 599.09 21.68
-5 10 -6 64.89 10.43
5 10 -6 77.13 7.18
-5 -10 -6 68.24 5.63
-5 -10 -6 71.38 7.89
5 -10 -6 63.03 11
-5 -10 6 56.87 9.89
-5 -10 6 68.69 6.55
-6 -10 -6 0.37 7.64
-6 -10 -6 -3.68 5.55
6 10 -6 2.2 4.2
6 10 -6 5.99 6.74
-6 -10 6 1.62 6.89
-6 -10 6 -3.66 10.15
0 11 -6 16.26 7.16
0 -11 -6 17.49 7.71
0 -11 6 15.7 3.99
1 -11 -6 253.94 12.6
-1 -11 6 243.79 9.88
-1 -11 -6 238.37 9.49
-1 -11 -6 255.64 11.71
1 11 -6 259.13 11.66
-1 11 -6 240.99 12.38
2 -11 6 654.27 22.81
-2 11 -6 653.55 24.83
-2 -11 -6 622.92 22.9
2 11 -6 695.6 24.11
-2 -11 6 649.27 23.24
-2 -11 -6 671.5 24.08
-3 -11 -6 36.68 7.48
-3 -11 -6 30.11 4.6
-3 -11 6 22.28 9.2
3 11 -6 31.31 6.88
3 -11 -6 27.23 9.78
-3 11 -6 13.37 9.46
-3 -11 6 25.83 5.22
-4 -11 6 317.65 12.4
-4 11 -6 320.66 15.73
4 11 -6 311.04 13.15
4 -11 -6 330.58 16.3
-4 -11 6 206.8 14.89
-4 -11 -6 322.59 13.42
-5 -11 -6 19.55 8.48
5 -11 -6 8.47 13.12
-5 -11 6 17.8 6.7
5 -11 -6 3.02 6.97
-5 -11 6 19.23 11.34
-5 -11 -6 15.72 5.57
0 -12 6 197.92 8.88
0 -12 -6 213.16 12.5
0 12 -6 227.16 11.77
-1 -12 6 17.41 4.87
-1 -12 -6 22.17 8.82
1 -12 -6 12.24 9.84
1 12 -6 16.7 7.95
1 -12 6 14.59 4.79
-1 -12 -6 17.1 4.34
-1 12 -6 19.2 8.91
-2 -12 -6 116.22 6.7
-2 -12 6 136.89 7.35
-2 -12 -6 126.2 10.41
2 -12 -6 123.97 11.95
-2 12 -6 134.45 11.13
2 -12 6 125.3 6.31
2 12 -6 124.89 9.25
3 -12 -6 19.78 12.64
-3 -12 -6 11.95 9.17
-3 -12 6 19.56 11.17
3 12 -6 11.66 7.97
-3 12 -6 13.58 10.85
-3 -12 -6 20.58 5.23
-3 -12 6 19.82 5.98
4 -12 -6 13.67 14.65
-4 -12 6 7.95 6.8
-4 -12 6 10.96 12.57
0 -13 -6 112.33 12.39
1 -13 -6 133.13 13.21
-1 -13 -6 139.08 12.41
0 0 7 0.85 1.45
0 0 7 1.57 2.02
-1 0 7 1.07 1.37
1 0 -7 2.42 2.07
1 0 7 -0.3 2.05
-1 0 7 0.51 2.11
1 0 7 0.39 1.58
2 0 7 211.68 7.95
2 0 7 220.01 7.76
2 0 -7 209.6 8.34
-2 0 -7 223.58 7.81
-2 0 7 221.08 7.64
-2 0 7 205.48 7.95
2 0 -7 220.09 8.08
-3 0 7 485.3 16.51
3 0 -7 466.22 16.79
3 0 7 485.32 16.41
-3 0 7 449.14 16.2
-3 0 -7 489 16.42
3 0 -7 469.91 16.63
-4 0 7 198.25 7.86
4 0 -7 215.79 8.23
-4 0 -7 217.84 7.86
-4 0 7 201.32 7.45
4 0 7 218.17 7.85
4 0 -7 213.08 8.45
5 0 -7 669.63 22.78
5 0 -7 626.16 22.7
-5 0 7 675.94 22.33
5 0 7 643.22 22.45
-5 0 -7 643.58 22.39
-5 0 7 632.5 22.03
6 0 7 119.72 5.83
6 0 -7 124.75 6.61
-6 0 -7 130.53 5.7
6 0 -7 128.34 6.35
7 0 -7 101.43 6.09
7 0 7 98.22 5.79
-7 0 7 94.44 6.69
7 0 -7 106.05 6.83
-7 0 -7 98.42 5.28
8 0 7 6.46 5.18
8 0 -7 4.13 6.49
-8 0 7 5.71 6.23
-8 0 -7 6.11 4.61
9 0 -7 28.14 8.42
-9 0 7 37.48 7.49
9 0 7 27.25 6.79
0 -1 -7 22.73 1.8
0 -1 7 20.42 2.3
0 1 7 19.46 2.22
0 -1 7 21.68 1.75
0 1 7 21.57 1.61
-1 1 7 1059.85 36.28
1 -1 7 1063.33 36.35
1 1 -7 1089.08 36.36
-1 -1 -7 1107.19 36.23
1 -1 7 1070.31 36.22
1 1 -7 1071.56 36.36
-1 -1 7 1025.72 36.35
-1 1 7 1097.05 36.12
1 -1 -7 1055.14 36.37
-1 -1 7 1058.74 36.18
1 1 7 1046.73 36.33
1 1 7 1091.22 36.18
-2 -1 -7 195.95 6.92
2 -1 -7 192.64 7.45
2 -1 -7 191.69 7.2
-2 -1 7 201.9 6.82
2 1 7 181.26 6.85
-2 -1 7 186.91 7.18
2 -1 7 187.05 6.92
-2 1 7 169.86 6.66
2 1 -7 184.86 7.24
-2 1 7 189.27 6.99
2 1 -7 195.26 7.52
3 1 7 81.34 3.74
3 -1 7 80.01 3.63
3 -1 -7 79.9 4.6
3 -1 -7 81.92 4.15
3 1 -7 80.68 4.12
-3 -1 7 82.08 4.06
3 1 -7 75.62 4.6
-3 1 7 82.74 3.21
-3 -1 -7 80.4 3.63
-4 -1 7 396.19 13.76
4 -1 -7 364.74 13.84
4 1 -7 392.5 14.05
4 1 7 384.65 13.62
-4 -1 -7 399.09 13.57
4 -1 7 379.66 13.56
4 -1 -7 385.83 14.07
4 1 -7 384.43 13.88
-5 -1 7 303.78 11.76
-5 -1 7 318.62 11.38
-5 -1 -7 299.58 11.13
5 1 -7 315.7 11.66
5 1 7 298.02 11.21
5 1 -7 308.62 11.59
5 -1 -7 304.81 11.64
5 -1 -7 305.93 11.67
5 -1 7 323.71 11.19
6 1 7 479.72 16.72
-6 -1 7 468.52 16.71
6 -1 7 468.54 16.7
6 -1 -7 487.97 17.2
6 -1 -7 461.5 16.88
-6 -1 7 469.69 17.18
6 1 -7 455.67 16.94
7 1 -7 295.05 11.88
7 -1 -7 303.78 11.88
7 1 -7 300.3 12.4
7 1 7 325.77 11.85
-7 -1 7 311.3 11.66
7 -1 7 307.74 11.9
-7 -1 -7 317.57 11.67
7 -1 -7 306.73 12.53
-7 -1 7 315.22 12.42
-8 -1 -7 84.93 5.8
8 -1 7 83.6 6.4
-8 -1 7 77.7 7.27
8 -1 -7 79.67 7.78
8 1 7 78.49 6.17
8 1 -7 68.66 7.47
9 1 -7 148.46 10.14
9 -1 7 147.79 8.98
9 -1 -7 147.29 10.89
-9 -1 7 166.32 9.68
-9 1 7 167.35 9.72
-9 -1 -7 158.53 8.57
9 1 7 144.68 9.08
0 -2 -7 659.62 23.96
0 -2 7 694.1 24
0 2 7 699.98 23.9
0 -2 -7 708.9 23.8
0 2 7 711.53 23.75
0 -2 7 723.43 23.86
-1 2 7 117.74 4.66
1 -2 7 132.89 4.92
1 2 -7 128.87 5.1
1 -2 -7 127.98 4.81
1 -2 -7 125.19 5.42
-1 -2 -7 132.66 4.87
1 2 7 127.09 4.82
1 -2 7 128.1 5.11
1 2 -7 135.62 5.53
1 2 7 121.9 5.14
-1 -2 7 126.66 5.21
-1 2 7 127.21 4.95
2 -2 7 593.56 20.19
2 2 -7 602.85 20.58
2 2 -7 623.35 20.48
2 2 7 569.34 20.12
-2 -2 7 565.44 20.35
2 -2 -7 583.02 20.35
-2 -2 -7 591.75 20.16
2 2 7 577.56 20.29
3 -2 7 1531.37 51.29
3 2 -7 1499.48 51.49
3 -2 -7 1449.33 51.4
3 -2 -7 1503.28 51.46
3 2 -7 1577.42 51.46
3 2 7 1531.97 51.25
-3 -2 -7 1524.46 51.25
4 2 -7 642.08 22.67
-4 -2 7 647.06 22.52
4 -2 7 661.34 22.3
4 2 -7 635.72 22.5
4 2 7 642.99 22.27
4 -2 -7 620.11 22.58
-4 -2 -7 668.57 22.29
4 -2 -7 664.28 22.57
-5 -2 -7 245.13 8.96
5 2 -7 228.89 9.4
-5 -2 7 237.42 9.74
5 -2 7 245.93 9.03
5 -2 -7 242.76 9.59
5 2 7 237.48 9.1
5 2 -7 242.39 9.61
5 -2 -7 259.88 9.59
-5 -2 7 229.9 9.34
-6 -2 7 422.11 15.33
6 2 -7 402.5 15.43
6 2 7 421.77 15.17
6 2 -7 410.47 15.42
6 -2 -7 418.23 15.37
6 -2 7 419.4 15.09
-6 -2 -7 444.94 15.07
-6 -2 7 428.32 15.76
6 -2 -7 426.62 15.61
7 -2 -7 84.85 5.76
-7 -2 -7 73.23 4.97
7 -2 7 88.19 5.31
7 -2 -7 69.8 6.66
7 2 7 84.36 5.64
7 2 -7 85.16 5.85
-7 -2 7 85.34 6.01
-7 -2 7 90.77 6.51
7 2 -7 79.85 6.25
-8 -2 7 -5.67 5.79
-8 -2 7 -2.43 6.48
-8 -2 -7 -2.8 4.69
8 -2 -7 1.97 7.3
8 2 -7 -0.61 6.29
8 -2 7 -2.02 5.52
8 2 7 -3.4 5.53
-9 -2 7 314.38 13.92
-9 -2 -7 323.05 13.06
-9 -2 7 336.68 13.34
9 2 -7 309.3 14.02
9 -2 7 311.35 13.59
9 -2 -7 300.23 15.04
9 2 7 307.96 13.23
0 3 -7 20.66 2.82
0 -3 -7 23.91 1.79
0 -3 7 17.38 2.57
0 -3 -7 20.27 2.38
-1 -3 -7 236.49 8.31
1 -3 -7 222.51 8.22
1 3 7 235.35 8.25
1 -3 -7 230.21 8.63
-1 -3 7 238.24 8.65
1 3 7 227.7 8.43
1 3 -7 238.78 8.89
1 -3 7 237.35 8.54
2 -3 -7 793.7 27.01
2 3 -7 811.7 27.52
-2 -3 7 778.27 27.34
2 3 -7 797.16 27.27
2 3 7 793.71 27.08
2 -3 7 812.18 27.2
2 -3 -7 785.75 27.28
-2 -3 -7 825.09 27.13
2 3 7 771.87 27.23
3 -3 -7 175.69 7.44
3 3 -7 185.27 7.56
-3 -3 7 174.99 7.09
3 -3 7 175.76 6.74
3 3 7 179.01 6.73
3 3 -7 190.31 7.09
3 3 7 165.94 6.91
-3 -3 -7 174.12 6.67
3 -3 -7 182.2 7.05
-4 -3 -7 464.42 16.07
4 3 -7 421.19 16.53
-4 -3 7 459.86 16.56
4 -3 7 471.18 16.14
4 -3 -7 483.5 16.41
-4 -3 7 444.63 16.39
4 3 -7 480.75 16.36
5 -3 7 9.23 2.82
-5 -3 -7 6.5 2.88
-5 -3 7 9.84 4.44
-5 -3 7 7.86 3.75
5 3 -7 7 3.4
5 3 -7 6.97 4.02
5 3 7 7.1 3.24
5 -3 -7 4.84 3.88
5 -3 -7 9.7 4.03
6 3 -7 486.93 17.75
6 3 7 480.58 17.56
6 -3 7 499.18 17.49
-6 -3 -7 488.26 17.44
-6 -3 7 494.75 17.81
6 -3 -7 495.65 17.72
-6 -3 7 494.83 18.1
6 -3 -7 498.42 17.93
6 3 -7 496.72 17.83
-7 -3 7 10.34 5.17
7 3 -7 7.04 4.81
7 3 -7 12.25 4.83
7 -3 7 5.09 4.13
7 -3 -7 8.43 5.74
-7 -3 7 8.43 5.94
-7 -3 -7 2.29 4.21
7 3 7 8.87 4.6
7 -3 -7 9.44 4.79
-8 -3 7 106.07 8.04
-8 -3 7 101.84 7.88
8 -3 -7 91.75 8.44
8 -3 7 82.57 6.72
8 3 -7 92.99 7.24
-8 -3 -7 102.05 6.22
8 3 7 91.79 6.51
-9 -3 7 39.65 8.35
-9 -3 -7 39.29 6.97
9 -3 -7 28.46 10.2
9 -3 7 39.8 7.97
-9 -3 7 37.19 8.5
9 3 7 40.32 6.85
9 3 -7 40.81 7.85
0 -4 7 1207.35 41.27
0 4 -7 1245.1 41.32
0 -4 -7 1212.89 41.27
0 -4 -7 1196.71 41.04
1 -4 -7 314.01 10.92
-1 -4 7 327.6 11.37
1 -4 -7 305.12 11.27
1 -4 7 314.02 11.24
-1 -4 -7 310.56 11
1 4 -7 317.88 11.64
2 4 7 387.66 13.37
2 -4 -7 390.28 13.43
2 4 -7 395.37 13.9
2 4 -7 406.99 13.43
2 -4 -7 375.43 13.06
2 4 7 365.73 13.14
-2 -4 7 363.13 13.53
-2 -4 -7 352.91 13.19
3 -4 -7 1334.72 43.18
3 4 7 1211.71 42.94
3 -4 -7 1212.9 42.81
-3 -4 7 1214.26 43.18
-3 -4 7 1298.7 43.28
3 4 7 1307.45 43.15
3 4 -7 1331.12 43.19
3 -4 7 1198.77 43.05
-3 -4 -7 1294.95 43
3 4 -7 1290.66 43.38
-4 -4 7 515.48 18.47
4 4 -7 502.5 18.35
4 -4 -7 531.23 18.61
-4 -4 7 506.94 18.67
4 4 -7 553.29 18.77
4 -4 -7 522.83 18.36
4 4 7 514.5 18.15
4 -4 7 528.23 18.23
-4 -4 -7 529.22 18.13
5 -4 -7 264.66 10.21
5 4 7 253.58 9.71
-5 -4 7 255.48 10.57
5 -4 7 256.6 9.72
-5 -4 7 269.02 10.26
5 -4 -7 253.87 10.04
5 4 -7 265.13 10.02
-5 -4 -7 250.37 9.55
5 4 -7 254.94 10.34
6 -4 -7 89.47 5.71
6 4 -7 86.19 5.38
6 4 -7 95.28 5.96
6 -4 -7 84.87 6.05
-6 -4 7 82.08 5.92
6 -4 7 82.05 4.94
-6 -4 -7 78.62 4.7
6 4 7 90.1 5.18
-6 -4 7 92.7 6.61
7 -4 -7 91.54 7.38
-7 -4 -7 90.94 5.45
-7 -4 7 89.52 7.25
-7 -4 7 82.42 6.69
7 -4 7 80.53 5.79
7 4 -7 84.29 6.13
7 4 -7 94.62 6.33
7 4 7 82.86 5.74
8 -4 7 121.72 7.49
-8 -4 -7 119.86 7.26
-8 -4 7 117.3 8.68
8 4 7 116.53 7.1
8 -4 -7 114.94 9.59
8 4 -7 116.42 7.64
-8 -4 7 121.6 8.68
9 4 7 361.4 14.27
-9 -4 7 361.25 15.99
9 4 -7 327.87 14.66
-9 -4 -7 347.34 14.64
-9 -4 7 354.1 15.44
0 -5 -7 0.18 2.56
0 -5 7 2.63 2.66
0 -5 -7 2.15 1.7
0 5 -7 -0.05 3.45
1 -5 -7 21.49 2.84
-1 -5 7 23.67 2.81
-1 -5 -7 20.86 2.07
1 5 -7 20.85 3.87
-1 5 -7 19.04 3.39
1 -5 -7 22.32 1.84
1 -5 7 21.44 2.49
2 5 -7 240.79 9.56
2 5 -7 231.54 8.74
2 -5 -7 231.92 8.39
-2 -5 -7 236.5 8.6
-2 -5 7 249.34 9.06
2 -5 -7 246.25 8.89
-3 -5 7 412.79 14.57
3 -5 -7 374.55 13.85
3 5 -7 419.18 14.32
3 5 -7 403.51 14.93
3 -5 -7 421.98 14.38
3 5 7 416.76 14.29
-3 -5 7 407.24 14.7
3 5 7 401.76 14.07
-3 -5 -7 380.62 14.11
4 -5 -7 526.5 17.55
-4 -5 7 519.83 18.08
-4 -5 7 470.89 17.73
4 5 -7 502.9 18.02
4 5 7 491.03 17.31
4 -5 -7 488.49 17.03
-4 -5 -7 480.18 17.35
4 5 7 509.72 17.62
4 -5 7 494.92 17.49
4 5 -7 511.32 17.59
4 -5 -7 486.13 17.88
-5 -5 7 769.09 27.33
5 5 7 782.84 26.64
5 -5 7 806.82 26.8
-5 -5 7 761.69 27.07
5 5 -7 772.43 27.13
5 5 -7 776.91 26.86
5 -5 -7 761.59 26.83
5 -5 -7 773.28 26.98
-5 -5 -7 764.42 26.64
6 -5 7 171.18 7.41
-6 -5 7 156.72 8.6
-6 -5 -7 157.42 7.03
-6 -5 7 162.11 8.07
6 5 -7 160.46 7.91
6 -5 -7 161.82 7.78
6 -5 -7 174.83 8.16
6 5 -7 171.34 7.56
6 5 7 167.37 7.17
7 5 7 10.7 4.59
7 -5 7 27.98 5.07
-7 -5 -7 18.71 4.29
7 5 -7 27.19 5.46
7 -5 -7 25.29 6.9
-7 -5 7 17.89 6.82
7 5 -7 23.88 4.97
-7 -5 7 21.25 6.1
8 5 7 40.58 5.67
-8 -5 -7 47.76 5.59
-8 -5 7 40.45 8.06
8 5 -7 40.45 6.29
8 -5 -7 36.62 9.44
8 -5 7 41.1 6.56
-8 -5 7 45.73 7.76
-9 -5 -7 44.81 7.73
-9 -5 7 51.01 9.57
-9 -5 7 50.72 10.97
0 -6 -7 1517.92 51.52
0 6 -7 1549.38 51.99
0 -6 7 1550.75 51.76
0 -6 -7 1492.82 51.76
-1 -6 -7 326.58 11.46
1 -6 7 310.19 11.6
-1 6 -7 320.49 12.17
-1 -6 7 334.11 11.8
1 -6 -7 314.62 11.65
1 -6 -7 317.92 11.3
1 6 -7 350.73 12.41
2 6 -7 120.14 6.32
-2 -6 7 110.17 5.33
-2 -6 -7 119.82 4.92
-3 -6 7 726.84 25.6
-3 -6 -7 729.23 25.14
3 6 -7 720.66 25.15
-3 -6 7 716.22 25.43
3 6 -7 767.65 25.81
4 -6 -7 49.5 5.13
4 6 7 49.7 3.35
4 6 -7 48.71 5.2
4 6 -7 54.08 3.71
4 6 7 52.9 4.2
-4 -6 7 48.48 4.47
-4 -6 7 51.43 5.58
-4 -6 -7 51.99 3.65
5 -6 -7 159.63 7.51
5 6 -7 157.63 7.01
5 6 -7 168.05 7.74
-5 -6 7 152.76 7.5
-5 -6 -7 141.27 6.47
-5 -6 7 152.1 8.33
5 -6 7 154.02 6.82
5 6 7 157.84 6.62
-6 -6 -7 350.81 13.91
6 6 -7 380.08 14.25
6 6 7 382.66 14
6 -6 -7 398.9 14.49
6 6 -7 407.94 14.75
-6 -6 7 371.22 14.75
6 -6 7 373.67 14.22
-6 -6 7 405.18 15.4
7 6 -7 60.97 6.15
7 6 7 55.72 5.4
-7 -6 7 52.85 6.88
-7 -6 7 65.17 7.9
7 6 -7 53.33 5.78
-7 -6 -7 51.35 4.96
7 -6 -7 59.41 7.75
7 -6 7 50.02 6.01
8 -6 7 442.18 17.36
-8 -6 7 488.04 18.38
8 6 7 434.44 16.58
8 6 -7 430.07 16.91
-8 -6 7 414.45 18.02
-8 -6 -7 457.03 16.74
0 7 -7 130.95 6.88
0 -7 7 127.73 5.72
0 -7 -7 135.41 5.25
-1 -7 -7 2.37 2.41
-1 -7 7 0.08 3
1 -7 7 4.25 2.54
1 7 -7 -4.19 4.56
-1 7 -7 1.32 4.55
1 -7 -7 1.64 2.06
-2 -7 -7 391.02 14.13
-2 -7 7 398.34 14.47
2 7 -7 405.06 15.15
-2 7 -7 413.13 14.92
-3 -7 7 634.5 21.97
3 7 -7 575.83 21.98
-3 -7 7 628.01 21.66
-3 -7 -7 623.52 21.28
-4 -7 7 193.88 8.55
4 7 -7 201.26 9.08
-4 -7 7 213.63 9.64
-4 -7 -7 191.89 8
4 -7 -7 206.91 8.98
4 7 -7 206.29 7.98
5 7 7 231.28 9.12
5 7 7 260.07 9.93
5 7 -7 243.35 9.96
-5 -7 -7 234.71 9.54
-5 -7 7 252.71 10.28
5 -7 -7 249.79 10.32
5 -7 7 250.24 9.79
5 7 -7 249.09 10.46
-5 -7 7 224.34 11.19
6 7 -7 294.86 11.45
-6 -7 7 292.6 12.64
-6 -7 7 255.44 11.62
6 -7 -7 273.3 11.32
-6 -7 -7 262.18 10.61
6 -7 -7 275.52 12.93
6 7 7 261.75 10.31
6 7 -7 263.29 10.8
6 -7 7 270.43 10.98
-7 -7 7 189.06 11.29
-7 -7 7 186.17 10.18
7 -7 7 183.3 9.41
7 7 -7 189.97 8.79
7 7 7 171.97 8.13
-7 -7 -7 181.97 8.31
-8 -7 -7 128.4 7.95
8 7 -7 129.06 8.34
-8 -7 7 141.58 11.41
-8 -7 7 139.26 10.56
0 -8 7 344.22 12.6
0 8 -7 348.26 13.67
0 -8 -7 349.85 12.25
1 -8 7 59.77 3.61
1 8 -7 57.31 6.05
-1 -8 -7 51.36 3.55
-1 -8 7 57.09 4.06
-1 8 -7 53.38 6.1
-2 -8 7 234.27 9.2
-2 8 -7 240.21 10.33
-2 -8 -7 231.95 8.78
2 8 -7 226.91 10.2
3 8 -7 902.85 31.16
-3 -8 7 871.62 31.07
-3 -8 7 877.16 30.74
-3 8 -7 901.35 31.14
-3 -8 -7 886.07 30.43
4 8 -7 425.62 15.67
-4 -8 7 398.66 15.16
-4 -8 7 435.87 16.12
4 8 -7 416.56 14.54
-4 -8 -7 361.05 14.67
4 -8 -7 417.41 15.42
-5 -8 7 48.17 5.77
5 -8 -7 58.67 6.15
-5 -8 7 53.98 7.64
5 8 -7 40.86 4.26
5 8 -7 57.75 6.3
5 -8 -7 26.35 8.09
-5 -8 -7 44.86 4.54
6 -8 -7 51.79 9.94
6 -8 7 41.96 5.99
6 8 -7 45.98 6.05
-6 -8 7 43.07 6.68
-6 -8 -7 40.65 5.16
6 8 -7 48.77 6.6
-6 -8 7 45.42 8.87
-7 -8 7 53.53 10.09
7 8 -7 62.31 6.37
7 8 -7 0.62 6.59
-7 -8 -7 60.77 5.86
-7 -8 7 58.9 8.24
0 -9 7 88.66 4.92
0 -9 -7 86.86 4.31
0 9 -7 88.59 7.3
1 -9 7 259.18 10.13
-1 -9 7 270.21 10.38
-1 9 -7 286.91 12.13
-1 -9 -7 268.68 10
1 9 -7 272.37 11.81
-2 -9 -7 169.74 7.01
-2 -9 7 170.12 7.42
2 -9 7 173.16 6.86
-2 9 -7 162.25 9.47
2 9 -7 168.07 8.87
3 9 -7 80.21 6.95
-3 -9 -7 81.15 4.9
-3 -9 7 89.88 7.76
-3 9 -7 87.11 8.06
-3 -9 7 83.9 5.58
3 -9 -7 73.5 7.89
-4 -9 -7 19.07 4.12
4 -9 -7 21.2 8.16
-4 -9 7 14.54 4.94
4 -9 -7 20.16 5.95
-4 9 -7 17.76 7.96
-4 -9 7 18.95 7.54
4 9 -7 25.75 6.26
-5 -9 7 117.96 7.52
-5 -9 7 117.44 9.98
5 -9 -7 106.2 7.73
-5 -9 -7 114.87 6.44
5 9 -7 117.98 5.83
5 -9 -7 131.48 11.3
5 9 -7 121.74 7.94
6 9 -7 388.58 14.67
-6 -9 7 384.83 16.07
-6 -9 -7 407.43 15.09
-6 -9 7 415.91 17.87
-7 -9 7 169.55 13.35
-7 -9 7 162.25 11.1
-7 -9 -7 165.77 8.99
0 10 -7 201.05 10.8
0 -10 -7 212.99 8.07
0 -10 7 217.48 8.58
-1 -10 7 105.87 5.84
1 -10 -7 100.98 8.24
1 10 -7 104.99 8.32
-1 10 -7 103.1 8.93
1 -10 7 103.01 5.41
-1 -10 -7 103.83 5.19
-2 -10 -7 34.22 4.23
2 -10 -7 46.23 7.99
2 10 -7 46.02 7.05
2 -10 7 41.3 3.92
-2 10 -7 42.31 8.45
-2 -10 7 43.1 4.83
-3 -10 7 465.43 17.4
-3 -10 7 434.99 15.91
-3 -10 -7 409.31 15.44
3 -10 -7 410.35 17.57
3 10 -7 417.9 16.72
-3 10 -7 424.34 17.92
-4 -10 7 53.25 5.92
4 -10 -7 34.21 10.4
4 -10 -7 50.15 6.83
-4 -10 -7 42.31 5.02
4 10 -7 36.64 7.08
-4 -10 7 40.02 9.35
-4 10 -7 33.1 10.04
-5 -10 -7 375.51 14.6
5 10 -7 391.11 15.57
-5 -10 7 400.64 17.71
-5 10 -7 371.61 18.13
5 -10 -7 391.25 18.55
-6 -10 7 260.17 12.69
-6 -10 -7 251.25 11.21
-6 -10 7 275.89 15.81
0 -11 7 296.78 11.69
0 11 -7 308.58 14.03
0 -11 -7 311.33 13.8
1 11 -7 485.61 18.4
-1 -11 -7 433.39 16.33
-1 -11 7 465.26 16.77
1 -11 7 444.89 16.67
1 -11 -7 465.49 18.48
-1 -11 -7 460.31 18.31
-1 11 -7 458.12 18.74
2 11 -7 227.12 11.45
-2 11 -7 219.54 13.07
-2 -11 7 228.05 9.74
2 -11 7 228.6 9.03
-2 -11 -7 211.42 11.57
-2 -11 -7 213.01 9.09
2 -11 -7 241.18 12.99
3 11 -7 2.92 7.32
3 -11 -7 -9.6 10.62
-3 -11 7 4.83 5.62
-3 -11 -7 -1.75 4.74
-3 -11 7 -10.33 9.71
-3 11 -7 -2.97 10.52
-3 -11 -7 11.88 8.2
-4 -11 7 174.95 13.04
-4 -11 7 170.71 8.96
-4 -11 -7 155.86 8.18
-4 -11 -7 160.66 10.9
4 -11 -7 164.42 14.4
4 11 -7 188.93 10.13
-5 -11 7 222 15.62
5 -11 -7 236.58 17.55
0 -12 7 228.47 10.18
0 12 -7 255.68 13.31
0 -12 -7 250.67 13.75
-1 -12 7 120.84 7.24
-1 -12 -7 121.72 10.92
-1 -12 -7 109.26 6.54
-1 12 -7 129.62 11.46
1 12 -7 133.61 10.23
1 -12 7 119.43 7.01
1 -12 -7 137.13 11.95
-2 -12 -7 17.97 9.6
2 -12 7 10.05 4.36
-2 -12 -7 18.84 5.11
-2 -12 7 17.64 5.99
2 12 -7 15.36 8.55
2 -12 -7 23.52 11.91
-3 -12 7 166.95 9.47
3 -12 -7 196.18 15.44
1 0 8 629.78 22.07
-1 0 8 654.81 21.77
1 0 8 666.06 21.82
-1 0 8 628.41 22.03
1 0 -8 611.36 22.04
-2 0 8 152.46 5.48
2 0 -8 137.82 6.25
2 0 8 147.42 6.02
2 0 -8 155.38 6.58
-2 0 8 137.66 5.96
2 0 8 150.38 5.65
3 0 8 196.34 7.35
3 0 -8 208.7 7.87
-3 0 8 184.45 7.07
-3 0 8 205.63 7.66
3 0 -8 190.75 8.11
-4 0 -8 59.7 3.32
4 0 -8 45.79 4.7
4 0 8 51.6 3.37
-4 0 8 54.79 2.65
4 0 -8 51.98 4.09
-4 0 8 51.85 3.69
5 0 8 183.4 7.36
-5 0 8 178.35 6.58
5 0 -8 186.01 8.17
5 0 -8 184.86 7.93
-5 0 -8 179.49 7.22
-5 0 8 178.15 7.26
-6 0 -8 1492.17 50.93
6 0 8 1587.26 51
6 0 -8 1430.48 51.26
6 0 -8 1479.98 51.05
7 0 -8 89.18 6.16
-7 0 -8 78.64 5.29
7 0 8 78.15 5.59
7 0 -8 74.45 6.96
8 0 -8 217.64 11.38
9 0 8 -0.3 7.14
0 -1 8 2624.32 86.78
0 1 8 2549.68 86.52
0 1 8 2511.82 86.73
0 -1 8 2607.66 86.58
1 -1 8 159.74 6.51
1 1 8 148.47 6.58
-1 1 8 167.8 6.05
-1 -1 -8 172.47 6.25
1 1 -8 174.12 6.54
1 -1 -8 166.5 6.61
1 1 -8 166.98 6.86
-1 1 8 166.46 6.45
1 -1 8 170.88 6.23
2 -1 8 1370.71 44.38
2 1 -8 1221.72 44.51
2 -1 -8 1280.36 44.57
2 -1 -8 1335.48 44.61
2 -1 8 1271.91 44.51
-2 1 8 1329.54 44.43
-2 -1 8 1333.26 44.29
-2 -1 -8 1354.5 44.4
2 1 -8 1330.25 44.65
-2 -1 8 1278.68 44.55
2 1 8 1311.78 44.31
-2 1 8 1312.12 44.2
3 -1 8 105.17 4.36
-3 -1 8 90.68 4.76
3 -1 -8 98.6 4.97
-3 1 8 95.74 3.86
3 1 -8 97.34 4.94
-3 -1 -8 102.81 4.39
3 1 -8 104.32 5.49
3 -1 -8 97.65 5.39
-3 1 8 106.32 4.48
3 1 8 101.64 4.44
-3 -1 8 97.52 4.08
4 -1 8 376.91 13.44
-4 -1 -8 402.79 13.51
4 -1 -8 367.99 13.87
4 -1 -8 378.56 14.07
4 1 -8 394.77 13.87
-4 -1 8 385.85 13.76
4 1 8 380.06 13.5
4 1 -8 366.48 14.05
-4 -1 8 364.08 13.17
5 -1 -8 302.06 11.83
5 -1 -8 320.01 11.88
5 -1 8 285.39 11.21
-5 -1 -8 319.04 11.25
5 1 -8 293.2 11.71
-5 -1 8 313.57 10.81
-5 -1 8 299.81 11.45
5 1 8 321.98 11.29
6 1 -8 961.13 32.47
6 -1 -8 929.89 32.4
6 -1 -8 941.37 32.68
6 1 8 935.68 32.19
-6 -1 8 950.35 32.22
-6 -1 8 863.91 31.72
6 -1 8 954.61 32.22
6 1 -8 948.65 32.59
7 -1 -8 108.12 6.78
7 -1 -8 117.96 8.02
7 1 -8 102.58 7.16
7 -1 8 112.31 6.39
-7 -1 8 109.37 6.34
-7 -1 -8 102.74 6
7 1 -8 99.32 6.72
-7 -1 8 104.75 4.47
7 1 8 109.52 6.16
8 -1 8 373.71 13.94
8 1 8 340.86 13.77
-8 -1 8 349.96 14.64
8 -1 -8 341 15.22
8 1 -8 348.12 14.69
-9 -1 -8 354.09 14.3
9 -1 8 326.96 14.49
9 1 -8 312.33 15.51
9 1 8 365.49 14.56
-9 -1 8 357.36 15.25
0 -2 8 41.15 3.16
0 -2 -8 40.61 2.45
0 2 8 40.05 2.95
0 -2 8 42.17 2.53
0 2 8 44.55 2.46
-1 -2 8 3845.43 126.58
1 2 8 3951.97 126
1 -2 -8 3686.15 124.96
-1 2 8 3801.07 125.14
-1 -2 -8 3599.15 124.98
1 -2 8 3469.98 124.99
1 2 -8 3740.14 125.12
-1 -2 8 3758.83 125.21
1 -2 8 3774.56 127.53
1 2 -8 3774.99 124.99
1 2 8 3633.51 125.14
1 -2 -8 3605.79 125.19
-2 -2 8 685.64 23.99
-2 -2 -8 708.27 23.74
2 -2 8 700.39 23.92
2 -2 8 700.09 23.76
2 2 8 645.11 23.89
2 2 8 715.76 23.7
2 2 -8 719.11 24.19
2 2 -8 718.41 23.97
2 -2 -8 648.22 23.95
3 2 8 1147.72 40.25
-3 -2 -8 1240.74 40.09
3 -2 -8 1139.32 40.3
3 -2 -8 1186.21 40.38
3 2 -8 1231.38 40.3
-3 -2 8 1137.5 40.27
3 2 -8 1165.67 40.41
3 -2 8 1196.79 40.11
4 -2 8 1157.18 40.71
4 -2 -8 1175.85 40.98
4 2 -8 1202.77 41.06
-4 -2 -8 1223.84 40.72
-4 -2 8 1232.58 40.96
4 -2 -8 1186.22 41
4 2 -8 1239.89 40.98
4 2 8 1163.66 40.67
5 -2 -8 903.31 30.74
-5 -2 8 871.87 30.53
-5 -2 -8 880.58 30.27
5 -2 -8 866.81 30.59
5 2 -8 874.66 30.56
5 -2 8 894.95 30.32
-6 -2 8 131.22 7.79
6 -2 -8 149.58 7.31
6 -2 8 144.5 6.5
6 2 -8 138.83 7.13
-6 -2 -8 144.71 6.35
-6 -2 8 136.02 7.16
6 2 8 138.38 6.62
6 2 -8 138.85 7.27
6 -2 -8 149.44 7.86
-7 -2 8 147.36 8.47
7 -2 8 158.15 7.12
7 2 -8 153.77 7.74
7 2 8 145.42 7.23
7 2 -8 136.79 7.89
7 -2 -8 126.66 8.8
-7 -2 -8 146.35 7.02
-7 -2 8 152.37 7.95
7 -2 -8 150.25 7.7
8 2 -8 12.77 6.5
8 -2 -8 9.8 8.36
-8 -2 8 9.13 6.42
8 -2 8 7.91 6.11
8 2 -8 -0.82 5.73
-8 -2 -8 14.15 5.47
-8 -2 8 11.93 7.32
8 2 8 9.22 5.85
-9 -2 8 440.15 18.14
9 2 8 424.82 17.21
-9 -2 -8 451.36 17.16
0 -3 8 65.81 3.75
0 3 -8 67.31 4.15
0 -3 -8 62.08 3.05
1 -3 -8 519.49 17.89
1 -3 -8 521.21 18.27
1 -3 8 542.98 18.22
-1 -3 -8 534.22 17.96
1 3 -8 515.08 18.46
-1 -3 8 528.83 18.27
1 3 8 502.5 17.86
1 -3 8 543.3 18.06
1 3 8 485.03 18.04
-2 -3 8 682.29 22.74
-2 -3 -8 648.23 22.41
2 -3 -8 638.16 22.3
2 3 8 598.69 22.35
2 3 -8 655.23 22.61
2 -3 8 668.11 22.6
2 3 -8 646.17 22.95
2 -3 -8 649.63 22.7
2 3 8 672.51 22.64
2 -3 8 681.21 22.52
3 -3 -8 327.44 11.83
3 3 8 319.78 11.41
3 3 -8 320.5 12.2
-3 -3 -8 325.22 11.44
3 -3 -8 309.62 12.05
3 3 -8 324.21 11.92
3 -3 8 322.62 11.49
-3 -3 8 302.72 11.81
3 3 8 330.88 11.78
4 3 -8 728.54 25.71
4 -3 8 724.88 25.49
4 -3 -8 736.25 25.86
4 3 8 782.98 25.46
-4 -3 -8 743.36 25.46
4 -3 -8 752.92 25.8
4 3 -8 711.45 25.89
5 3 -8 275.29 10.25
-5 -3 -8 247.57 9.3
5 -3 -8 246.77 10.19
5 -3 -8 241.21 10.1
-5 -3 8 242.73 10.34
5 3 -8 236.5 9.8
5 -3 8 243.7 9.37
-5 -3 8 237.83 10.01
5 3 8 237.26 9.42
-6 -3 -8 12.93 3.55
-6 -3 8 17.65 5.74
6 -3 -8 6.89 5.62
6 3 -8 15.67 4.43
6 3 8 11.85 4.15
6 -3 8 14.78 3.88
6 3 -8 12.77 5.11
-6 -3 8 15.98 5.05
6 -3 -8 15.78 4.9
7 -3 8 340.86 13.02
7 -3 -8 382.19 13.27
7 -3 -8 308.35 14.11
-7 -3 8 336.5 13.55
7 3 8 338.35 12.95
7 3 -8 324.77 13.36
-7 -3 -8 308.83 12.8
-7 -3 8 358.54 14.07
7 3 -8 347.93 13.35
-8 -3 8 158.01 9.78
8 3 8 141.86 7.96
8 -3 8 139.95 8.25
-8 -3 -8 151.59 8
8 3 -8 136.8 8.74
-8 -3 8 160.75 9.88
8 -3 -8 131.88 10.84
-9 -3 8 172.87 11.66
-9 -3 8 166.51 11.49
-9 -3 -8 166.28 9.82
0 -4 -8 241.37 8.58
0 4 -8 238.45 9.33
0 -4 8 239.28 9.05
-1 -4 8 168.67 6.75
1 -4 8 172.77 6.61
-1 -4 -8 166.41 6.24
1 -4 -8 165.47 6.11
1 4 -8 156.65 7.29
1 -4 -8 163.55 6.82
2 -4 -8 822.36 28.95
-2 -4 -8 850.78 28.69
2 4 8 849.46 28.6
2 -4 8 774.51 28.77
2 4 8 859.77 28.81
2 4 -8 852.62 28.84
2 -4 -8 811.74 28.55
2 -4 8 859.7 28.86
-2 -4 8 878.74 29.03
2 4 -8 856.81 29.25
3 -4 -8 5.26 1.96
3 4 8 15.12 3.38
-3 -4 8 16.52 3.51
3 -4 8 13.09 2.68
-3 -4 -8 16.83 2.48
3 4 -8 14.47 4.36
3 4 8 14.54 2.7
3 -4 -8 18.35 3.64
3 4 -8 13.64 3.02
4 4 -8 1130.97 38.34
4 -4 -8 1151.01 38.2
-4 -4 8 1101.13 38.21
4 4 8 1086.19 38.11
4 -4 8 1050.6 37.93
4 4 -8 1142.39 38.08
-4 -4 -8 1153.39 37.89
4 -4 -8 1115.72 38.21
4 4 8 1077.74 37.81
5 4 -8 90.6 6
5 4 -8 83.77 5.25
-5 -4 8 76.64 6.23
-5 -4 8 64.59 5.73
5 -4 8 79.06 4.74
5 4 8 85.74 4.75
5 -4 -8 81.66 5.81
-5 -4 -8 85.58 4.57
5 -4 -8 83.22 5.96
6 -4 -8 633.67 22.76
6 4 -8 611.09 22.71
6 4 -8 663.25 22.92
-6 -4 -8 601.92 22.42
6 -4 -8 652.92 23.12
6 4 8 668.88 22.44
-6 -4 8 669 23.3
-6 -4 8 631.45 22.99
6 -4 8 626.62 22.53
7 4 8 136.42 7.37
7 -4 8 151.06 7.63
7 -4 -8 147.67 7.94
-7 -4 8 157.03 9.22
7 4 -8 139.94 8.02
-7 -4 8 144.59 8.95
7 4 -8 149.32 7.78
7 -4 -8 150.63 9.43
-7 -4 -8 144.4 7.35
-8 -4 -8 307.73 12.62
8 4 8 296.5 12.41
8 -4 8 298.81 12.79
8 -4 -8 303.93 15.14
-8 -4 8 319.96 14.05
8 4 -8 292.16 12.88
-8 -4 8 313.42 14.08
-9 -4 -8 27.01 7.59
0 5 -8 1.87 4.08
0 -5 8 -1.48 2.96
0 -5 -8 0.88 1.81
1 -5 8 6.93 2.69
-1 5 -8 5.2 3.82
1 5 -8 4.39 4.25
1 -5 -8 5.73 1.96
-1 -5 -8 6.64 2.02
1 -5 -8 8.22 3.31
-1 -5 8 4.43 2.95
2 -5 8 90.77 4.43
2 -5 -8 93.67 3.84
-2 -5 -8 101.78 4.16
2 -5 -8 85.01 4.91
2 5 -8 96.33 5.85
-2 -5 8 91.34 4.95
3 5 -8 101.26 6.1
3 -5 8 97.11 4.67
3 5 8 96.48 4.29
3 -5 -8 99.3 5.36
3 5 -8 96.83 4.72
-3 -5 -8 85.07 4.29
3 5 8 89.57 5.13
-3 -5 8 88.91 5.24
3 -5 -8 92.2 3.88
4 5 -8 621.45 20.53
4 -5 -8 596.82 20.52
-4 -5 -8 543.95 20.01
4 5 8 582.38 20.02
4 -5 -8 567.69 20.68
4 -5 -8 546.05 19.73
4 -5 8 586.61 20.25
-4 -5 8 570.05 20.53
4 5 -8 575.46 20.81
4 5 8 580.95 20.43
-5 -5 8 61.31 5.56
5 -5 -8 62.47 5.82
5 -5 -8 67.58 5.64
5 5 -8 69.69 5.94
5 -5 8 60.91 4.44
-5 -5 8 62.81 6.39
5 5 8 61.8 4.48
5 5 -8 63.93 4.89
-5 -5 -8 63.84 4.11
6 5 -8 64.13 6.09
6 5 8 41.29 4.65
-6 -5 -8 36.42 4.1
6 -5 8 42.27 4.91
-6 -5 8 51.67 6.98
6 5 -8 39.75 5.14
6 -5 -8 37.91 6.42
-6 -5 8 38.6 6.09
6 -5 -8 38.22 5.7
-7 -5 8 417.88 16.42
7 5 8 397.58 14.83
-7 -5 -8 382.77 14.87
-7 -5 8 398.23 16.02
7 -5 8 373.62 15.13
7 5 -8 414.08 15.29
7 5 -8 409.46 15.36
7 -5 -8 389.37 16.42
8 5 8 -1.44 5.7
-8 -5 -8 2.12 6.29
8 5 -8 0.89 6.61
-8 -5 8 2.73 9.07
-8 -5 8 4.34 8.52
8 5 -8 -1.46 6.44
8 -5 8 -5.42 6.65
0 -6 8 7.74 3.23
0 6 -8 11.48 4.81
0 -6 -8 14.75 2.14
1 -6 -8 389.43 14.46
-1 6 -8 409.94 14.87
-1 -6 8 393.15 14.39
1 -6 -8 379.49 13.83
1 -6 8 400.1 14.27
1 6 -8 405.88 15.06
-1 -6 -8 424.38 13.99
2 -6 8 167.46 6.64
-2 -6 8 172.5 7.07
2 6 -8 156.12 8.01
2 -6 -8 159.22 6.1
-2 -6 -8 163.97 6.4
2 -6 -8 166.01 7.02
3 6 -8 333.98 11.67
3 -6 -8 326.97 12.01
-3 -6 -8 331.33 11.56
3 -6 -8 295.22 11.18
-3 -6 8 304.59 12.09
3 6 -8 334.02 12.76
4 -6 -8 287.17 10.83
4 6 -8 324.93 12.47
-4 -6 8 313.53 12.54
4 -6 8 314.37 11.62
-4 -6 -8 319.1 11.33
4 6 -8 303.9 11.47
-4 -6 8 286.1 11.98
4 6 8 306.74 11.2
4 -6 -8 332.09 12.07
5 -6 8 486.7 18.04
-5 -6 8 489.29 18.5
5 6 -8 533.12 18.13
5 -6 -8 494.33 18.38
5 6 8 504.98 17.74
5 -6 -8 498.15 18.43
-5 -6 -8 494.91 17.78
-5 -6 8 493.9 18.95
5 6 8 504.18 18.34
5 6 -8 533.1 18.63
6 6 -8 325 12.65
6 -6 8 331.02 12.8
6 6 8 334.79 12.36
6 -6 -8 332.51 13.07
6 6 -8 322.6 13.19
-6 -6 -8 316.37 12.31
-6 -6 8 334.63 14.15
6 -6 -8 311.13 13.46
-6 -6 8 334.13 13.55
7 -6 -8 431.34 16.82
7 6 -8 329.9 15.46
-7 -6 8 393.04 16.4
7 -6 8 390.56 15.55
7 -6 -8 414.47 17.62
7 6 -8 418.8 15.37
-7 -6 8 421.53 17.08
0 7 -8 55.58 5.8
0 -7 8 57.03 4.02
0 -7 -8 54.41 3.31
-1 -7 -8 60.48 3.64
1 -7 -8 59.02 3.18
1 7 -8 66.65 5.87
1 -7 -8 61.73 4.79
1 -7 8 63.46 4.01
-1 7 -8 66.45 5.99
-1 -7 8 61.4 4.34
2 -7 -8 14.9 4
-2 -7 8 20.87 3.8
-2 -7 -8 14.29 2.95
-2 7 -8 17.05 5.35
2 7 -8 18.4 5.43
2 -7 8 16.74 3.04
2 -7 -8 14.11 2.18
3 7 -8 110.47 7.21
-3 -7 8 106.48 6.03
-3 -7 -8 115.5 5.23
4 -7 -8 64.2 6.23
-4 -7 8 64.98 5.47
4 7 -8 65.24 6.38
-4 -7 8 62.12 6.84
4 7 -8 64.58 4.36
-4 -7 -8 56.78 4.03
5 -7 8 459.42 17
-5 -7 8 477.17 18.19
5 -7 -8 493.47 17.43
-5 -7 -8 439.1 16.55
-5 -7 8 451.04 17.43
6 -7 -8 84 10.09
6 7 -8 87.52 7.37
6 7 8 86.47 7.47
6 7 -8 80.05 6.16
-6 -7 -8 75.04 5.43
-6 -7 8 84.95 7.6
6 -7 8 92.1 6.75
-6 -7 8 88.68 9.3
6 -7 -8 59.26 6.88
-7 -7 -8 116.85 7.18
7 -7 -8 143.47 12.62
-7 -7 8 121.25 10.86
7 7 -8 118.52 7.66
-7 -7 8 117.78 9.78
0 -8 8 503.72 17.68
0 8 -8 502.95 18.74
0 -8 -8 486.09 17.27
1 -8 -8 1170.22 38.9
1 8 -8 1150.43 39.46
1 -8 -8 1100.03 38.39
-1 -8 8 1113.72 38.84
1 -8 8 1180.5 38.75
-1 8 -8 1085.19 39.37
2 8 -8 121.07 7.98
2 -8 8 124.64 5.67
-2 8 -8 119.41 8.09
-2 -8 -8 127.9 5.59
-2 -8 8 122.63 6.23
-3 -8 -8 911.38 30.93
-3 -8 8 890.96 31.31
-3 8 -8 914.15 31.8
3 8 -8 880.73 31.76
-3 -8 8 907.13 31.54
4 8 -8 664.8 24.28
-4 -8 8 705.26 24.7
-4 -8 -8 635.76 23.41
4 -8 -8 705.45 24.12
-4 -8 8 646.26 23.92
5 8 -8 18.78 6.4
-5 -8 8 18.41 6.12
-5 -8 -8 10.91 4.4
5 8 -8 14.11 4.27
5 -8 8 13.98 5.44
-5 -8 8 19.19 8.45
5 -8 -8 14.35 6.55
6 8 -8 327.3 13.41
6 -8 8 301.74 13.32
-6 -8 8 308.2 13.84
-6 -8 -8 308.26 12.14
-6 -8 8 308.89 15.29
6 -8 -8 337.31 16.09
7 8 8 108.85 10.45
-7 -8 8 120.45 12.19
-7 -8 -8 97.8 7.19
-7 -8 8 116.4 10.48
0 -9 8 43.45 4.34
0 9 -8 47.19 7.34
0 -9 -8 34.8 3.57
1 9 -8 61.09 7.49
-1 -9 8 58.81 4.84
-1 9 -8 56.7 7.61
1 -9 8 53.28 4.34
1 -9 -8 59.4 5.74
-1 -9 -8 61.26 4.1
-2 -9 8 750.67 26.35
-2 9 -8 759.14 27.46
-2 -9 -8 740.38 25.96
2 -9 8 746.45 26.05
2 9 -8 764.86 27.17
-3 -9 8 405.71 16.04
-3 -9 8 386.81 15.19
-3 9 -8 415.03 16.98
-3 -9 -8 385.1 14.57
3 9 -8 431.72 16.19
-4 -9 8 546.8 18.78
4 9 -8 473.53 19.11
-4 9 -8 490.68 20.05
4 -9 -8 515.2 18.95
-4 -9 -8 463.81 18.01
-4 -9 8 529.13 20.01
4 -9 -8 511.62 20.19
5 9 -8 107.04 6.82
-5 -9 8 173.62 9.07
5 9 -8 179 9.42
5 -9 -8 159.35 12.4
-6 -9 -8 74.25 6.58
-6 -9 8 96.98 12.06
6 -9 -8 77.9 13.92
-6 -9 8 74.77 8.84
0 -10 8 968.01 32.29
0 -10 -8 869.46 31.88
0 10 -8 963.29 33.56
-1 10 -8 58.34 9.02
1 10 -8 72.56 8.27
1 -10 8 64 5.49
-1 -10 8 64.26 5.36
-1 -10 -8 59.2 4.62
2 -10 8 74.45 4.92
-2 10 -8 66.55 10.19
-2 -10 8 61.88 5.82
2 10 -8 69.43 8.28
-2 -10 -8 76.31 5.17
3 10 -8 90.34 8.32
-3 -10 8 85.2 6.56
-3 -10 -8 77.92 5.49
-3 10 -8 74.6 10.99
3 -10 -8 88.76 10.19
-4 10 -8 439.1 19.85
4 -10 -8 473.35 19.48
-4 -10 8 431.57 16.97
4 -10 -8 449.79 17.31
4 10 -8 452.21 17.57
-4 -10 -8 425.47 16.17
-4 -10 8 423.64 19.01
-5 -10 -8 5.17 5.48
-5 -10 8 1.96 7.23
-5 -10 8 -12.98 11.88
5 -10 -8 1.32 13.53
0 -11 -8 819.52 29.69
0 -11 8 820.17 28.49
0 -11 -8 799.73 28.09
0 11 -8 821.58 30.17
1 -11 8 18.93 5.12
1 -11 -8 20.18 9.35
1 11 -8 21.42 8.69
-1 -11 8 19.31 5.35
-1 -11 -8 20.58 4.51
-1 11 -8 4.2 9.83
-2 -11 -8 154.43 7.5
2 -11 8 154.08 7.25
-2 11 -8 143.83 12.69
2 -11 -8 152.56 11.87
2 11 -8 165.93 10.84
-2 -11 8 155.52 8.26
-3 -11 8 39.81 6.65
3 11 -8 50.18 8.71
3 -11 8 50.8 4.99
-3 -11 -8 37.31 5.56
3 -11 -8 48.87 11.65
4 -11 -8 142.71 15.28
0 -12 -8 679.42 26.18
1 -12 -8 960.8 33.11
-1 -12 -8 811.18 32.33
0 0 9 0.81 1.99
0 0 9 1.58 2.92
2 0 -9 2307.32 75.48
2 0 -9 2228.27 75.49
2 0 9 2196.13 75.46
2 0 9 2115.43 75.19
-2 0 9 2277.73 75.12
-2 0 9 2267.43 75.44
-3 0 9 237.98 8.58
3 0 9 245.28 9.27
3 0 -9 232.77 9.74
-3 0 9 243.92 9.28
3 0 9 231.36 8.81
3 0 -9 247.98 9.46
4 0 -9 122.61 6.81
4 0 9 128.87 5.55
-4 0 9 130.43 6
4 0 -9 134.68 6.43
-4 0 9 125.78 5.02
5 0 9 488.34 17.29
-5 0 9 477.28 17.19
5 0 -9 499.33 17.85
5 0 -9 480.51 17.75
-5 0 9 486.96 16.72
6 0 -9 9.9 5.31
6 0 9 6.13 4.17
6 0 -9 11.78 5.41
7 0 -9 305.29 13.53
7 0 9 319.19 12.49
7 0 -9 335.34 13.03
0 1 9 789.58 26.67
0 1 9 774.69 27.01
0 -1 9 790.04 27.06
0 -1 9 781.18 26.74
1 1 -9 63 3.72
-1 -1 9 59.28 3.96
1 -1 9 59.83 3.14
1 1 9 63.42 3.96
1 -1 -9 56.76 3.91
-1 1 9 52.6 2.84
1 1 9 61.85 3.09
1 1 -9 52.2 4.38
-1 -1 9 58.8 3.03
-1 1 9 61.55 3.79
1 -1 9 58.43 4.12
2 1 9 345.31 12.31
2 1 9 335.02 12.74
2 -1 -9 341.42 13.05
2 1 -9 357.81 13.08
-2 1 9 371.24 12.63
-2 -1 9 348.53 12.79
-2 1 9 354.29 12.13
2 -1 9 346.88 12.69
2 -1 -9 352.85 13.12
2 1 -9 341.47 12.72
2 -1 9 344.32 12.39
-2 -1 -9 356.75 12.43
-2 -1 9 352.72 12.26
-3 1 9 124.76 4.81
3 -1 -9 127.75 6.51
-3 -1 9 124.19 5
3 1 -9 136.49 6.68
3 1 -9 122.02 6.07
3 1 9 125.41 5.93
3 1 9 134.26 5.44
-3 1 9 129.23 5.56
3 -1 9 119.87 5.27
-3 -1 -9 121.92 5.35
-3 -1 9 125.37 6
3 -1 -9 126.45 6.1
4 -1 9 262.94 9.89
4 1 -9 265.41 10.5
-4 -1 -9 258.01 9.97
-4 -1 9 274.53 9.55
-4 -1 9 280.55 10.47
4 1 9 272.23 9.97
4 -1 -9 260.55 10.59
4 1 -9 266.34 10.85
4 -1 -9 268.42 10.76
-5 -1 -9 219.22 8.3
5 -1 9 202.82 8.22
5 -1 -9 213.13 9.3
5 -1 -9 210.4 9.2
5 1 -9 202.73 8.97
-5 -1 9 208.93 8.76
-5 -1 9 194.29 7.61
5 1 9 202.76 8.26
5 1 -9 218.87 9.34
6 1 -9 593.31 20.82
6 -1 9 567.47 20.35
6 1 9 588.52 20.31
-6 -1 9 577.73 20.45
6 -1 -9 570.63 21.05
-6 -1 -9 596.57 20.39
6 -1 -9 561.99 20.74
6 1 -9 552.44 20.85
-6 -1 9 559.17 19.7
7 -1 -9 82.17 7.86
-7 -1 -9 95.46 6.15
7 -1 9 89.64 6.3
7 1 -9 81.32 6.85
7 -1 -9 78.72 6.8
7 1 -9 73.41 7.19
7 1 9 88.33 5.88
8 -1 -9 1.76 8.99
-8 -1 -9 9.78 5.92
8 -1 9 3.33 6.31
8 1 -9 -2.29 6.27
8 1 9 2.41 6.1
8 -1 -9 -8.8 6.32
8 1 -9 0.37 7.63
0 -2 -9 719.55 24.22
0 2 9 680.16 24.38
0 -2 9 713.92 24.55
0 -2 9 710.9 24.25
0 2 9 713.88 24.12
1 2 -9 414.52 14.93
-1 2 9 410.54 14.4
1 -2 9 407.73 14.34
-1 2 9 433.38 14.13
1 2 9 424.17 14.23
-1 -2 -9 401.34 14.3
1 2 9 397.61 14.59
-1 -2 9 406.03 14.71
-1 -2 9 381.33 14.25
1 -2 9 409.69 14.76
1 -2 -9 414.14 14.72
2 -2 9 608.75 21.41
2 2 -9 636.1 21.64
2 -2 -9 614.43 21.82
2 2 9 622.82 21.7
2 2 -9 620.34 21.96
3 -2 -9 400.56 14.46
3 2 -9 388.87 14.55
-3 -2 9 404.99 14.37
-3 -2 9 394.62 13.79
3 -2 9 392.15 13.99
3 -2 -9 412.87 14.74
3 2 -9 394.84 14.77
3 2 9 365.47 14.29
4 -2 -9 177.67 8.05
-4 -2 -9 182.25 7.21
4 -2 -9 181.37 8.25
4 2 9 184.4 7.16
-4 -2 9 181.81 8.04
4 -2 9 180.41 7.25
4 2 -9 173.87 7.86
4 2 -9 191.3 8.4
5 2 -9 204.81 9.21
5 2 9 215.17 8.21
-5 -2 9 205.83 9.04
5 2 -9 215.49 8.97
-5 -2 -9 196.04 8.2
5 -2 9 202.87 8.23
5 -2 -9 206.93 9.24
6 -2 -9 265.41 11.49
6 2 9 257.24 10.28
6 -2 9 261.38 10.29
6 -2 -9 255.95 11.03
6 2 -9 257.06 10.91
-6 -2 -9 275.4 10.31
-6 -2 9 265.66 11.11
6 2 -9 260.78 11.07
-7 -2 -9 78.93 6.03
7 -2 9 92.42 6.27
-7 -2 9 90.73 7.61
7 -2 -9 93.83 6.93
7 2 -9 84.15 7.12
7 2 -9 94.6 7.31
7 -2 -9 92.11 8.76
7 2 9 92.26 6.19
0 3 -9 1101.65 36.64
0 -3 9 1088.9 36.62
0 -3 9 995.12 36.35
0 -3 -9 1092.8 36.3
1 3 -9 39.89 4.6
1 -3 9 46.03 4.62
-1 -3 9 49.73 3.79
1 -3 -9 44.94 2.78
1 -3 -9 45.83 3.96
-1 -3 -9 45.1 2.79
1 3 9 41.24 3.6
1 -3 9 44.88 3
1 3 9 45.52 2.81
2 3 9 213.17 7.99
2 3 9 211.76 8.57
-2 -3 9 211.21 8.62
2 -3 9 221.83 8.42
2 3 -9 216.24 9.17
2 -3 9 231.19 8.18
-2 -3 -9 207.8 8
2 3 -9 220.62 8.38
2 -3 -9 210.85 8.76
-3 -3 -9 847.4 28.56
3 3 -9 842.06 29.14
3 3 9 818.08 28.49
3 -3 -9 820.51 28.94
3 -3 -9 845.05 29.04
-3 -3 9 818.65 28.93
3 3 -9 850.69 28.78
3 -3 9 819.82 28.61
3 3 9 838.06 28.87
4 -3 -9 739.82 26.16
-4 -3 9 740.75 26.09
4 3 9 750.09 26.05
4 -3 -9 743.32 26.19
4 3 -9 771.89 26.28
4 -3 9 739.41 25.72
-4 -3 -9 771.32 25.68
4 3 -9 733.49 25.94
4 3 9 705.13 25.6
5 -3 9 53.95 4.36
-5 -3 -9 56.56 4.18
-5 -3 9 61.96 5.96
5 3 9 64.39 4.51
5 -3 -9 61.68 5.78
5 3 -9 61.82 5.28
5 3 -9 74.92 5.88
5 -3 -9 55.43 6.1
6 -3 -9 114.66 7.27
6 -3 9 123.19 6.28
6 3 9 117.51 6.34
6 3 -9 123 7.48
-6 -3 -9 126.64 6.2
6 3 -9 122.31 7.17
-6 -3 9 112.79 7.61
6 -3 -9 125.94 8.53
-7 -3 -9 117.28 6.9
7 -3 -9 116.89 10.01
7 -3 9 119.6 7.17
7 3 9 133.2 7.32
-7 -3 9 134.98 9.28
-7 -3 9 134.78 8.5
7 -3 -9 136.34 7.9
7 3 -9 119.76 7.75
7 3 -9 122.88 7.97
-8 -3 -9 179.48 9.33
8 -3 9 173.62 9.65
-8 -3 9 192.99 11.71
8 3 -9 171.97 10.04
0 -4 -9 73.63 3.48
0 4 -9 76.87 5.21
0 -4 9 68.58 4.4
1 -4 9 185.47 6.93
-1 4 -9 176.6 7.53
1 -4 -9 176.2 7.54
-1 -4 -9 173.36 6.68
1 4 -9 175.43 8.1
1 -4 -9 171.85 6.59
-1 -4 9 178.59 7.35
1 -4 9 176.38 7.16
-2 -4 9 361.89 13.13
2 4 9 368.74 12.87
2 4 -9 368.1 12.8
2 -4 9 349.14 12.73
2 -4 -9 341.15 12.42
2 -4 -9 344.51 13.19
2 4 -9 361.86 13.59
2 4 9 342.6 12.48
2 -4 9 354.24 12.88
-2 -4 -9 357.28 12.57
-3 -4 -9 262.17 10.02
3 4 9 276.81 10.82
3 4 -9 278.06 11.2
3 4 -9 270.65 10.33
-3 -4 9 262.13 10.68
3 -4 -9 282.74 10.96
3 -4 -9 270.56 10.75
3 -4 9 282.96 10.19
3 4 9 266.97 9.99
4 -4 -9 512.27 18.28
4 4 -9 521.66 18.14
4 -4 9 501.52 17.74
4 4 9 503.38 18.11
4 4 9 510.28 17.56
4 4 -9 500.8 18.39
-4 -4 -9 502.56 17.6
-4 -4 9 477.62 18.12
4 -4 -9 469.01 18.22
5 -4 -9 379.23 14.61
5 4 -9 387.75 14.51
5 4 -9 391.04 13.99
-5 -4 -9 358.77 13.53
-5 -4 9 350.54 14.4
5 4 9 370.43 13.54
5 -4 9 351.44 13.69
5 -4 -9 382.21 14.33
6 -4 -9 8.57 5.69
-6 -4 -9 12.19 4.03
6 4 -9 16.04 5.21
6 4 -9 11.63 6.04
6 -4 9 8.86 4.46
-6 -4 9 11.64 6.59
6 4 9 13.47 4.56
6 -4 -9 16.53 7.44
-6 -4 9 9.4 7.07
7 -4 -9 1.62 6.06
7 4 -9 27.77 6.67
7 4 9 19.72 5.33
7 -4 -9 15.16 9.29
-7 -4 9 26.58 8.26
7 -4 9 16.87 5.61
7 4 -9 21.9 6.22
-7 -4 -9 23.39 5.04
-7 -4 9 24.61 7.81
-8 -4 9 37.61 9.74
8 -4 -9 -4.15 7.11
8 4 -9 0.5 7.13
-8 -4 -9 34.51 6.57
-8 -4 9 35.85 9.59
0 -5 9 21.24 3.51
0 5 -9 21.37 4.94
0 -5 -9 23.4 2.51
1 -5 9 85.81 4.58
1 5 -9 87.14 6.06
-1 -5 -9 87.48 4.05
-1 5 -9 84.57 5.59
1 -5 -9 80.8 3.78
1 -5 -9 82.28 5.34
-1 -5 9 82.03 4.76
-2 -5 9 69.56 4.79
2 5 -9 63.24 6.05
2 -5 9 66.22 4.2
-2 -5 -9 69.04 3.7
2 -5 -9 68.84 3.38
2 -5 9 71.95 4.09
2 -5 -9 68.27 5.11
3 -5 -9 82.11 5.62
3 5 -9 89.8 6.28
3 5 -9 83.41 4.7
-3 -5 -9 82.06 4.32
3 -5 9 88.35 4.73
3 -5 -9 79.09 3.86
3 5 9 89.65 4.34
-3 -5 9 85.17 5.55
3 5 9 89.18 5.24
-4 -5 -9 81.93 4.71
4 -5 -9 98.09 6.54
4 5 9 95.55 4.92
4 5 9 92.39 6.03
4 5 -9 103.45 6.74
4 -5 9 94.65 5.23
-4 -5 9 93.06 6.11
4 5 -9 90.79 5.24
4 -5 -9 94.12 6.74
5 5 -9 42.13 6.29
5 5 9 49.63 4.41
-5 -5 9 41.34 6.11
5 -5 -9 47.73 6.88
-5 -5 -9 48.15 4.2
5 -5 -9 51.55 5.98
5 5 9 50.62 6.13
5 5 -9 57.47 5.35
5 -5 9 51.78 4.79
6 -5 -9 134.72 8.11
6 5 -9 135.15 7.42
-6 -5 9 130.54 9.35
6 5 -9 133.9 8.08
6 5 9 143.89 6.8
6 -5 9 123.64 7.22
6 -5 -9 139.3 9.77
-6 -5 -9 134.2 6.84
-6 -5 9 98.26 8.43
7 -5 -9 45.53 10.19
7 5 9 46.21 5.82
-7 -5 9 45.91 8.31
-7 -5 -9 46.87 5.86
-7 -5 9 47.78 9.24
7 5 -9 37.22 6.99
7 -5 -9 0.16 6.48
7 -5 9 51.44 6.43
7 5 -9 40.7 6.65
-8 -5 9 106.21 11.36
-8 -5 9 124.31 11.46
-8 -5 -9 94.39 8.36
0 -6 9 95.22 5.2
0 -6 -9 95.94 4.29
0 6 -9 102.23 6.85
-1 -6 9 777.57 26.74
1 -6 -9 774.5 26.87
-1 6 -9 739.57 27.06
1 6 -9 775.42 27.27
1 -6 9 775.79 26.61
2 -6 -9 81.22 3.72
2 -6 9 79.2 4.59
-2 -6 -9 78.89 4.04
2 6 -9 72.04 6.33
-2 -6 9 79.6 5.21
2 -6 -9 83.74 5.7
3 -6 -9 209.66 7.54
3 6 -9 202.48 9.57
3 -6 -9 203.82 9
3 -6 9 208.25 8.36
-3 -6 9 199.14 8.87
-3 -6 -9 203.67 7.92
4 -6 9 183.9 7.87
-4 -6 -9 170.89 7.31
4 6 -9 189.43 9.2
4 6 9 178.38 7.24
4 -6 -9 192.18 9.09
-4 -6 9 165.01 8.52
4 -6 -9 173.24 6.85
4 6 -9 178.92 7.65
4 -6 -9 183.09 8.82
5 -6 9 985.19 34.38
5 -6 -9 982.41 34.67
-5 -6 -9 964.45 34.09
5 6 -9 1002.07 34.23
5 6 -9 1014.72 34.81
-5 -6 9 1002.49 34.79
6 -6 -9 268.98 11.45
6 -6 -9 262.03 12.89
-6 -6 9 256.02 12.12
6 -6 9 242.26 10.97
6 6 -9 267.98 11.57
6 6 9 250.63 10.26
6 6 9 255.26 12
6 6 -9 235.24 10.79
-6 -6 9 253.14 12.85
-6 -6 -9 240.03 10.14
-7 -6 9 32.15 10.02
7 6 9 18.99 5.83
-7 -6 9 30.94 9.12
7 6 -9 38.05 6.6
7 -6 -9 -1.23 6.91
-7 -6 -9 32.76 5.71
7 6 -9 -3.45 6.96
0 -7 -9 62.82 3.52
0 7 -9 65.18 6.83
0 -7 9 58.63 4.53
-1 -7 -9 5.15 2.67
1 -7 -9 7.85 2.43
1 -7 -9 10 4.9
1 7 -9 5.49 5.91
1 -7 9 10.42 4.91
-1 -7 9 8.08 3.84
-1 7 -9 8.81 6.32
-2 -7 9 195.47 8.45
-2 -7 -9 191.12 7.58
-2 7 -9 195.68 9.63
2 -7 -9 190.07 7.3
2 -7 -9 188.71 8.94
2 7 -9 200.06 9.7
2 -7 9 206.52 8.02
3 -7 -9 439.57 16.06
3 7 -9 486.72 17.81
-3 -7 9 477.94 17.13
-3 -7 -9 462.68 16.41
3 -7 -9 457.17 17.18
-4 -7 9 407.87 16.13
-4 -7 -9 433.69 15.38
4 7 -9 436.37 16.82
4 -7 -9 424.89 14.88
4 -7 -9 425.42 16.48
4 7 -9 432.99 15.42
4 -7 9 435.37 15.88
5 -7 -9 192.51 10.42
5 -7 -9 171.71 9.52
5 7 -9 182.34 7.97
5 -7 -9 163.25 6.91
-5 -7 9 180.21 10.97
-5 -7 -9 170.12 7.74
5 -7 9 173.98 8.74
5 7 -9 176.66 9.6
-5 -7 9 181.56 9.51
6 -7 9 218.29 10.6
-6 -7 9 249.65 13.27
-6 -7 9 233.01 11.93
6 7 -9 231.91 11.24
6 7 9 236.37 11.75
6 7 -9 221.33 9.85
-7 -7 9 341.46 16.31
-7 -7 -9 365.14 13.97
-7 -7 9 341.35 17.39
7 -7 -9 352.17 19.14
0 -8 9 352.55 13.44
0 8 -9 360.05 14.83
0 -8 -9 374.27 12.89
-1 -8 9 296.68 11.34
1 -8 -9 289.59 11.96
1 -8 -9 288.27 10.47
-1 -8 -9 284.35 10.6
1 8 -9 301.94 12.9
1 -8 9 296.55 11.4
-1 8 -9 281.39 12.91
2 -8 9 22.99 3.92
2 -8 -9 26.26 6.11
-2 8 -9 18.81 7.63
2 -8 -9 17.58 2.78
-2 -8 -9 21.46 3.34
2 8 -9 20.84 6.94
-2 -8 9 24.95 4.7
3 -8 -9 -2.18 5.87
-3 -8 -9 1.67 3.39
3 8 -9 -0.01 7.06
-3 -8 9 4.45 5.12
-3 8 -9 3.78 7.96
3 -8 -9 5.22 2.73
3 -8 9 3.57 3.73
4 -8 -9 666.09 23.05
-4 -8 9 606.92 22.88
-4 -8 -9 634.61 22.12
4 8 -9 581.73 23.24
4 -8 -9 667.61 23.1
5 8 -9 104.61 8.48
5 8 -9 94.99 5.91
5 -8 -9 104.75 8.34
-5 -8 -9 103.66 5.98
-5 -8 9 109.32 10.58
5 -8 9 86.05 7.62
-5 -8 9 100.96 8.24
-6 -8 9 56.71 11.58
6 -8 -9 58.29 13.33
-6 -8 9 65.22 9.05
-6 -8 -9 61.62 5.76
0 -9 9 48.5 4.81
0 -9 -9 42.45 3.95
0 9 -9 41.93 8.13
1 -9 -9 139.8 8.34
-1 9 -9 135.17 10.34
1 9 -9 134.6 9.65
-1 -9 -9 167.22 6.42
1 -9 -9 121.74 5.75
1 -9 9 133.42 7.11
-1 -9 9 125.72 7.01
2 -9 -9 228.84 8.99
-2 9 -9 238.84 12.81
2 -9 -9 237.53 11.59
2 9 -9 260.69 12.15
-2 -9 9 251.31 10.34
2 -9 9 237.95 9.7
-2 -9 -9 242.98 9.53
-3 -9 9 341.99 13.42
3 9 -9 363.51 14.69
3 -9 9 346.02 12.64
-3 9 -9 316.08 15.59
-3 -9 -9 307.64 12.51
-4 9 -9 187.25 13.16
4 9 -9 196.25 10.82
4 -9 -9 198.85 10.42
-4 -9 -9 204.56 8.29
-4 -9 9 179.78 9.75
-5 -9 -9 399.73 15.55
5 -9 -9 443.49 19.91
-5 -9 9 415.07 16.92
-5 -9 9 425.17 19.31
0 -10 9 187.38 8.98
0 10 -9 203.69 12.4
0 -10 -9 220.15 8.38
1 10 -9 519 20.79
-1 10 -9 552.53 21.53
1 -10 -9 497.85 18.34
-1 -10 9 536.82 19.11
1 -10 9 523.49 18.93
-1 -10 -9 506.5 18.53
-2 -10 9 554.57 21
2 -10 9 529.56 20.56
2 10 -9 629.92 22.48
-2 -10 -9 579.74 20.41
-2 10 -9 590.93 23.43
-3 -10 -9 86.81 6.09
3 -10 9 96.63 6.01
3 10 -9 91.33 9.48
-3 -10 9 92.12 7.44
-4 -10 9 33.74 7.5
4 -10 -9 50.57 12.68
0 -11 -9 63.1 5.16
0 -11 9 60.25 6.12
-1 -11 9 38.33 6.49
2 -11 -9 302.91 16.09
-2 -11 9 297.88 12.78
0 0 10 2780.64 91.92
0 0 10 2682.64 92.26
1 0 10 299.14 11.46
-1 0 10 311.32 10.76
1 0 -10 292.58 11.27
1 0 10 310.64 10.85
-1 0 10 299.94 11.41
2 0 -10 1086.51 37.05
-2 0 10 1084.29 36.99
2 0 10 1085.47 37.32
-2 0 10 1041.75 36.51
2 0 10 1095.39 36.67
2 0 -10 1074.45 37.2
3 0 10 110.83 5.06
3 0 -10 113.68 6.62
3 0 10 113.73 5.97
-3 0 10 113.91 6.16
3 0 -10 111.33 6.74
-3 0 10 118.08 4.87
-4 0 10 302.1 11.09
-4 0 10 286.96 10.23
4 0 10 287.35 10.6
4 0 -10 283.36 11.47
4 0 -10 270.82 11.76
5 0 -10 10.76 5.52
5 0 10 16.06 4.08
5 0 -10 8.25 5.49
6 0 10 374.95 14.19
6 0 -10 394.57 14.98
6 0 -10 374.42 15.17
7 0 -10 170.45 10.5
7 0 10 179.99 8.59
7 0 -10 184.42 9.49
8 0 -10 -1.29 7.26
0 1 10 175.06 7.5
-1 -1 10 268.88 9.74
1 1 -10 264.62 10.71
1 1 10 274.43 10.43
-1 1 10 278.25 9.61
1 -1 10 268.49 10.41
-1 1 10 271.03 10.26
1 1 10 265.5 9.73
-1 -1 10 272.65 10.45
1 -1 10 267.81 9.79
1 -1 -10 265.9 10.36
2 -1 -10 599.68 21.27
2 1 -10 579.26 21.13
2 -1 10 597.77 21.19
2 1 -10 598 21.46
-2 -1 10 588.93 21.24
-2 1 10 590.76 20.53
-2 -1 10 601.33 20.66
2 -1 10 610.57 20.79
-2 1 10 632.73 21.07
2 -1 -10 591.37 21.42
2 1 10 620.36 21.31
3 -1 -10 8.48 4.82
3 1 -10 7.8 3.98
3 1 10 6.4 4.01
-3 -1 -10 5.48 2.9
3 -1 10 12.58 3.83
3 1 -10 10 5.03
-3 1 10 6.89 3.79
-3 1 10 8.93 2.07
3 1 10 10.34 3.28
-3 -1 10 10.12 2.33
-3 -1 10 8.93 4.32
3 -1 10 9.86 2.89
3 -1 -10 9.33 4.47
4 -1 10 123.33 5.61
4 1 -10 126.1 7.2
4 1 -10 119.63 6.76
4 1 10 119.32 6.52
4 1 10 125.68 5.69
4 -1 -10 118.81 6.91
4 -1 -10 116.9 7.11
-4 -1 -10 116.28 5.68
-4 -1 10 133.13 7.01
-4 -1 10 117.94 5.04
-5 -1 10 34.44 2.88
5 1 10 38.19 4.07
5 -1 -10 37.1 5.89
5 -1 -10 34.73 5.89
-5 -1 -10 35.08 4.11
5 -1 10 33.24 4.15
5 1 -10 36.42 6.01
5 1 -10 39.63 5.55
-5 -1 10 32.23 5.4
6 1 10 204.37 8.74
6 1 -10 202.06 9.97
-6 -1 10 203.84 9.38
6 -1 -10 200.33 10.38
6 -1 -10 215.39 10.04
6 -1 10 209.72 8.97
-6 -1 10 209.22 7.77
-6 -1 -10 211.93 8.94
6 1 -10 211.33 9.84
7 1 -10 48.55 7.45
7 1 -10 50.84 7.07
7 -1 -10 50.79 6.86
7 1 10 51.05 5.68
7 -1 10 52.28 6.18
-7 -1 -10 48.38 6.16
7 -1 -10 50.05 8.47
0 -2 10 1.3 3.6
0 -2 10 3.2 2.34
0 2 10 0.99 3.56
0 2 10 1.43 2.3
-1 -2 10 578.49 19.84
1 -2 -10 514.99 19.69
1 2 10 567.72 19.68
1 2 -10 558.48 19.97
1 -2 10 587.49 19.35
-1 2 10 555.41 19.45
-1 -2 10 555.28 19.24
1 2 10 555.17 19.17
-1 2 10 574.29 19.08
-1 -2 -10 544.6 19.31
1 -2 10 530.3 19.7
2 -2 10 280.46 10.84
-2 -2 -10 292.74 10.42
2 -2 -10 289.39 11.09
2 2 -10 277.89 11.47
2 2 10 284.29 10.29
-2 -2 10 285.73 10.21
2 2 -10 273.25 10.72
2 2 10 292.18 11.09
2 -2 10 274.84 10.37
-2 -2 10 285.1 11
3 -2 -10 129.37 6.87
3 2 -10 129.61 7.2
-3 -2 10 124.15 6.65
3 -2 -10 135.39 7.31
3 2 10 113.03 6.53
-3 -2 -10 122.62 5.58
-3 -2 10 143.56 5.35
3 2 -10 129.16 6.27
3 2 10 128.07 5.54
3 -2 10 123.72 5.58
3 -2 10 120.42 6.12
-4 -2 -10 177.89 7.33
4 2 -10 171.44 8.04
-4 -2 10 179.45 8.48
4 -2 -10 179.04 8.54
4 2 -10 175.41 8.73
4 2 10 175.84 8.23
-4 -2 10 167.75 6.77
4 -2 10 177.77 7.26
4 -2 -10 179.82 8.5
4 2 10 174.21 7.14
-5 -2 10 12.04 2.61
5 2 10 11.41 3.7
5 -2 -10 11.22 5.77
-5 -2 -10 8.81 3.87
5 2 -10 12.2 5.26
5 -2 -10 8.74 5.81
-5 -2 10 5.61 5.59
5 -2 10 10.77 3.71
5 2 -10 14.6 5.73
6 -2 -10 224.03 11.2
6 -2 -10 219.89 10.41
6 2 -10 228.71 10.33
-6 -2 10 202.11 8.32
6 -2 10 228.06 9.34
6 2 -10 231.51 10.36
-6 -2 10 220.28 10.43
6 2 10 222.38 9.32
-6 -2 -10 228.89 9.43
7 -2 -10 471.51 18.15
7 2 -10 473.19 18.52
7 -2 -10 478.94 19.5
7 2 -10 498.99 18.27
7 -2 10 474.54 17.82
-7 -2 -10 483.73 17.82
7 2 10 462.99 17.63
-8 -2 -10 84.65 8.37
-8 -2 10 89.21 9.73
0 -3 10 172.5 7.29
0 3 10 166.98 6.3
0 3 -10 179.39 7.92
0 -3 -10 159.44 6.51
0 -3 10 158.61 6.6
1 3 10 41.87 4.22
1 -3 -10 42.07 4.49
-1 -3 -10 42.86 3.14
1 3 -10 46.68 5.32
-1 -3 10 43.02 3.07
1 -3 -10 45.09 2.99
1 3 10 46.36 3
1 -3 10 40.8 3.21
-1 -3 10 41.57 4.4
1 -3 10 39.87 4.37
2 -3 -10 664.44 23.88
2 -3 10 696.09 23.41
2 -3 10 694.88 23.68
2 3 10 663.93 23.7
-2 -3 10 657.59 23.27
-2 -3 -10 646.9 23.31
-2 -3 10 690.79 23.85
2 3 -10 696.66 23.57
2 3 10 677.97 23.22
2 3 -10 673.3 24.18
3 -3 10 88.25 5.03
3 -3 10 74.26 4.45
3 3 -10 76.38 5.07
3 3 10 83.12 6.46
3 3 -10 79.67 6.44
-3 -3 -10 80.25 4.29
3 -3 -10 79.82 5.91
3 3 10 82.38 4.43
3 -3 -10 81.85 6.29
4 -3 -10 226.87 10.27
4 3 10 227.61 8.94
4 -3 -10 240.11 10.33
4 3 -10 240.69 10.42
4 3 10 228.97 9.94
-4 -3 10 222.62 10.14
4 -3 10 230.58 9.04
4 3 -10 226.51 10.35
-4 -3 -10 231.75 8.95
5 -3 -10 58.59 6.76
5 -3 -10 59.95 6.41
5 3 10 49.19 4.64
-5 -3 -10 54.98 4.5
5 -3 10 56.05 4.71
5 3 10 52.82 6.24
5 3 -10 58.22 6.39
-5 -3 10 50.62 6.88
5 3 -10 57.85 5.91
6 -3 10 136.42 7.11
6 3 -10 134.15 8.19
-6 -3 -10 138.49 7.08
6 -3 -10 140.32 9.56
-6 -3 10 156.13 9.22
6 3 -10 144.21 8.57
6 3 10 139.05 7.17
6 -3 -10 139.11 8.32
7 -3 10 91.97 6.69
7 -3 -10 100.8 10.41
7 3 10 90.65 6.79
-7 -3 10 76.57 8.81
-7 -3 -10 71.23 6.64
7 3 -10 83.91 7.95
7 -3 -10 33.46 7.31
7 3 -10 90.98 7.94
-8 -3 -10 233.31 11.45
0 4 -10 618.77 22.52
0 -4 10 630.61 22.2
0 -4 10 653.8 21.89
0 -4 -10 620.24 21.71
1 -4 10 90.67 5.48
1 -4 -10 93.53 4.18
1 4 -10 89.12 6.52
1 -4 10 89.19 4.57
-1 -4 -10 88.56 4.23
-1 4 -10 93.38 6.02
-1 -4 10 82.74 5.37
1 -4 -10 83.42 5.73
2 4 -10 578.83 21.57
-2 -4 10 608.84 21.18
2 -4 10 592.35 20.76
2 4 10 585.93 20.47
2 -4 -10 592.76 21.24
2 -4 10 599.17 20.95
-2 -4 -10 558 20.57
2 -4 -10 622.8 20.5
2 4 10 606.41 20.89
3 -4 10 103.51 5.58
3 4 -10 110.11 5.66
3 4 -10 109.37 7.26
-3 -4 -10 108.49 4.99
3 -4 -10 116.55 6.88
-3 -4 10 97.5 6.4
3 -4 10 105.65 5.38
3 4 10 101.97 5.11
3 4 10 109.44 6.56
3 -4 -10 98.71 6.9
-4 -4 -10 432.63 15.99
4 4 -10 438.41 17.04
4 -4 -10 476.07 17.03
4 4 -10 435.01 16.31
4 4 10 463.19 16.01
-4 -4 10 417.75 16.78
4 -4 10 469.97 16.23
4 -4 -10 462.19 17.08
4 4 10 445.93 16.83
5 4 -10 98.28 7.48
-5 -4 -10 96.23 5.42
5 -4 10 95.92 5.87
5 -4 -10 105.6 7.32
5 4 -10 88.89 6.8
-5 -4 10 95.37 7.67
5 4 10 98.89 5.74
5 -4 -10 86.2 8.07
5 4 10 103.73 7.57
6 4 10 449.29 17.64
6 4 -10 483.72 18.29
6 -4 -10 505.52 18.52
6 -4 10 466.38 17.93
-6 -4 10 488.67 19.08
-6 -4 -10 515.72 17.8
6 4 -10 506.35 18.65
7 -4 10 441.2 17
7 4 -10 452.43 17.5
-7 -4 10 449.31 18.59
7 4 -10 442.91 17.47
0 -5 10 236.97 9.63
0 -5 -10 229.57 8.86
0 5 -10 258.45 10.72
1 -5 -10 40.69 3
-1 -5 10 44.03 4.53
1 5 -10 37.83 6.16
1 -5 10 43.63 3.76
1 -5 -10 47.1 5.24
-1 -5 -10 33.76 3.05
-1 5 -10 42.07 5.79
1 -5 10 44.04 4.66
2 -5 10 415.65 15.48
-2 -5 10 424.86 15.92
-2 -5 -10 428.72 15.19
2 -5 10 439.79 15.61
2 -5 -10 442.21 15.09
2 -5 -10 425.38 16.09
2 5 -10 437.54 16.61
3 5 10 122.93 6.73
3 -5 -10 116.05 5.26
-3 -5 -10 120.09 5.78
3 5 -10 132.33 6.05
3 -5 10 126.25 6.12
3 -5 10 130.42 6.14
3 -5 -10 127.56 7.72
-3 -5 10 127.76 7.06
3 5 -10 122.03 7.95
4 5 10 347.58 13.53
4 -5 -10 340.89 13.6
-4 -5 -10 327.25 12.29
4 -5 10 323.93 12.53
4 5 -10 323.43 13.56
-4 -5 10 313.83 13.21
4 5 10 334.49 12.16
4 -5 -10 324.73 13.61
4 5 -10 342.34 12.59
5 5 -10 564.59 20.67
5 5 10 554.19 19.56
5 -5 -10 580.87 21.12
-5 -5 10 523.7 20.75
5 5 -10 524.61 19.84
5 5 10 571.31 20.7
5 -5 10 552.46 19.97
6 5 -10 477 18.16
-6 -5 10 478.7 18.67
6 -5 -10 456.64 19.22
6 -5 10 436.69 17.34
6 5 -10 466.06 17.52
6 5 10 445.11 16.88
6 5 10 486.62 18.7
6 -5 -10 465.86 17.84
-6 -5 -10 453.06 16.94
-7 -5 10 195.44 12.53
0 6 -10 799.54 27.87
0 -6 -10 747.76 26.68
0 -6 10 790.93 27.21
-1 6 -10 48.65 6.61
1 -6 -10 45 5.84
1 -6 10 50.67 4.98
1 -6 -10 47.73 3.2
1 6 -10 48.18 6.81
-1 -6 -10 52.49 3.6
-1 -6 10 47.98 4.77
2 6 -10 808 29.5
2 -6 10 852.17 28.78
2 -6 -10 799.78 29.17
-2 6 -10 867.58 29.25
-2 -6 -10 855.43 28.47
-2 -6 10 817.57 29.01
2 -6 10 799.34 28.71
3 6 -10 318.03 12.57
3 -6 10 289.78 11.28
-3 -6 -10 274.18 10.73
3 -6 10 283.58 11.09
-3 -6 10 277.55 11.82
3 -6 -10 276.83 10.41
3 -6 -10 293.52 12.27
4 -6 10 633.92 22.92
-4 -6 10 607.06 23.39
-4 -6 -10 620.79 22.58
4 6 -10 649.89 22.75
4 6 -10 664.25 23.81
4 -6 -10 675.56 23.8
4 -6 -10 675.42 23.63
5 6 10 141.44 12.82
5 -6 10 102.01 6.99
5 -6 -10 111.12 9.92
5 -6 -10 125.88 8.74
5 6 -10 126.89 8.68
-5 -6 10 116.94 8.78
5 6 -10 128.1 6.79
-5 -6 -10 110.88 6.46
-6 -6 -10 422 15.27
6 6 10 423.67 17.28
6 -6 -10 365.81 16.14
6 -6 10 378.06 15.8
-6 -6 10 421.55 17.27
0 -7 -10 9.89 2.92
0 -7 10 9.57 4.27
0 7 -10 17.3 7.25
-1 -7 10 37.74 4.84
1 -7 -10 33.47 6.32
-1 -7 -10 35.39 3.37
1 7 -10 36.17 7.09
-1 7 -10 25.87 7.56
1 -7 10 32.32 5
1 -7 -10 41.77 3.36
-2 7 -10 34.94 7.66
2 -7 -10 33.64 6.62
2 -7 10 37.24 4.45
2 -7 -10 31.95 3.09
-2 -7 10 36.49 5.32
2 7 -10 29.35 6.83
-2 -7 -10 29.07 3.45
-3 -7 -10 184.55 7.49
3 -7 -10 181.69 7
3 -7 -10 182.27 9.8
3 -7 10 181.37 7.98
3 -7 10 168.14 8.34
-3 -7 10 178.1 8.91
3 7 -10 190.6 10.11
-4 -7 10 25.65 6.53
4 -7 -10 34.63 7.28
4 -7 10 27.82 5.61
4 -7 -10 31.42 3.4
4 7 -10 24.54 7.64
4 -7 -10 28.62 7.76
-4 -7 -10 34.82 4.16
5 -7 10 86.65 7.38
-5 -7 10 89.57 8.6
5 7 -10 102.49 8.61
5 -7 -10 92.82 8.55
5 7 -10 92.85 6.23
-5 -7 -10 95.46 5.76
-6 -7 10 133.95 11.06
-6 -7 -10 125.71 7.48
0 8 -10 27.18 8.1
0 -8 10 22.81 4.83
0 -8 -10 25.11 3.39
1 -8 -10 437.67 16.63
1 -8 10 415.42 15.55
-1 -8 10 421.55 15.64
-1 -8 -10 419.91 14.88
1 -8 -10 414.16 14.76
1 8 -10 433.69 17.05
-1 8 -10 386.16 17.42
-2 8 -10 261.21 13.22
2 -8 -10 244.94 12
2 -8 10 264.45 10.16
2 8 -10 233.19 12.27
-2 -8 -10 257.05 9.59
2 -8 -10 239.51 9.28
-2 -8 10 240.64 10.66
3 -8 -10 81.59 4.35
3 -8 10 82.94 5.63
-3 -8 -10 83.09 5.09
3 8 -10 84.56 8.89
-3 8 -10 80.94 10.25
3 -8 -10 74.99 8.37
-3 -8 10 81.22 6.97
-4 -8 10 181.54 9.89
4 -8 10 179.27 9.36
4 -8 -10 188.35 10.43
-4 -8 -10 179.11 8.03
4 -8 -10 183.16 7.3
4 8 -10 197.9 10.87
-5 -8 -10 53.89 5.57
5 -8 -10 65.01 4.41
-5 -8 10 72.9 8.77
0 9 -10 20.98 9.26
0 -9 -10 11.36 3.57
0 -9 10 14.63 5.16
1 9 -10 279.21 13.95
-1 -9 -10 286.84 10.79
1 -9 10 303.49 11.72
-1 -9 10 306.39 11.9
-1 9 -10 287.18 14.48
1 -9 -10 266.48 10.6
2 -9 10 314.05 12.17
2 -9 -10 312.45 14.2
2 -9 -10 294.34 11.14
-2 9 -10 308.22 15.58
-2 -9 -10 313.66 11.56
2 9 -10 320.77 14.68
-2 -9 10 281.23 12.59
-3 -9 -10 21.66 4.48
-3 -9 10 25.32 6.78
3 9 -10 27.55 8.95
3 -9 10 25.56 5.2
3 -9 -10 26.28 3.78
-4 -9 -10 85.1 5.8
-4 -9 10 76.96 8.32
0 -10 -10 890.63 31.47
0 -10 10 943.11 32.17
-1 -10 10 75.52 7.04
1 -10 -10 74.84 4.89
-1 -10 -10 80.48 5.23
1 -10 10 81.23 6.62
2 -10 10 585.18 21.3
-2 -10 10 597.69 21.89
0 0 11 -3.24 2.47
0 0 11 -2.4 4.52
-1 0 11 681.4 23.7
1 0 11 699.59 24.44
-1 0 11 689.19 24.4
1 0 11 695.13 23.77
2 0 11 8.43 2.76
-2 0 11 7.23 4.69
2 0 -11 8.76 4.27
2 0 11 1.62 4.85
2 0 -11 4.14 5.82
-2 0 11 6.4 2.67
3 0 11 6.28 3.31
3 0 -11 7.15 4.76
3 0 -11 2.39 5.73
-3 0 11 6.16 2.7
3 0 11 6.51 4.8
-3 0 11 -2.05 5.07
-4 0 11 114.48 4.95
4 0 11 119.21 7
4 0 11 110.92 5.71
-4 0 11 115.07 6.78
4 0 -11 115.02 7.77
4 0 -11 105.58 7.37
5 0 -11 20.27 6.51
5 0 11 21.72 4.65
5 0 -11 23.83 6.51
6 0 11 241.27 9.86
6 0 -11 213.59 11.12
6 0 -11 244.2 11.62
7 0 11 678.61 24.36
0 -1 11 147.32 6.08
0 1 11 148.65 5.94
0 1 11 141.85 7.12
0 -1 11 149.3 7.23
1 1 -11 59.01 6.02
-1 -1 11 59.31 5.31
-1 1 11 58.59 3.33
1 1 11 55.75 5.13
-1 1 11 54.24 5.03
1 -1 11 52.05 5.16
1 -1 11 62.28 3.75
1 1 11 66.58 3.54
-1 -1 11 40.37 3.43
-2 -1 11 180.87 8.41
2 1 11 184.92 7.35
2 1 11 185.54 8.54
-2 1 11 188.16 6.89
-2 1 11 188.57 8.07
2 1 -11 177.21 7.97
2 -1 -11 183.23 8.3
2 1 -11 180.44 8.98
2 -1 -11 184.62 8.95
2 -1 11 182.04 8.53
-2 -1 11 186.44 7.12
2 -1 11 180.58 7.29
3 1 11 362.15 12.3
-3 1 11 325.51 11.7
3 -1 -11 316.04 13.36
3 1 11 333.14 13.1
-3 -1 11 312.42 13.05
3 -1 11 330.75 12.88
3 -1 11 324.25 12.13
3 1 -11 345.19 13.53
-3 -1 11 356.87 11.94
3 -1 -11 334.48 13.05
3 1 -11 327.86 12.79
-4 -1 11 504.04 17.86
4 1 -11 454.17 17.96
4 -1 -11 476.72 17.9
-4 -1 11 470.02 16.53
4 -1 -11 469.47 17.88
4 -1 11 464.02 16.86
4 1 11 471.3 16.87
4 -1 11 493.62 17.54
4 1 -11 461.84 17.88
5 1 11 99.44 7.31
-5 -1 11 102.69 4.87
5 1 -11 103.68 7.86
-5 -1 11 116.11 7.56
5 1 11 96.7 5.75
5 1 -11 110.63 7.55
5 -1 11 99.25 5.82
5 -1 -11 92.98 8.12
5 -1 -11 113.92 7.93
6 1 11 165.05 8.14
6 -1 -11 178.6 10.53
6 1 -11 181.12 10.01
6 -1 -11 186.25 9.95
6 -1 11 183.16 8.58
-6 -1 11 178.28 9.21
7 1 11 103.59 7.14
7 -1 11 104.2 7.78
0 2 11 296.5 10.98
0 -2 11 309.37 11.99
0 2 11 308.91 11.86
0 -2 11 315.64 11.23
0 2 -11 312.9 12.29
1 2 11 393.57 14.76
1 -2 11 404.99 14.75
1 2 -11 391.05 15.16
1 2 11 386.73 13.87
2 -2 11 272.86 10.29
2 2 -11 272.13 11.85
-2 -2 -11 281.48 10.36
2 2 -11 291.55 10.77
2 2 11 271.28 11.27
2 -2 -11 265.57 11.29
-2 -2 11 292.44 10.15
2 2 11 271.46 10.16
-2 -2 11 266.73 11.21
2 -2 11 283.91 11.64
3 -2 -11 18.02 6.14
-3 -2 -11 16.95 3.42
3 -2 11 14.17 3.37
3 2 11 15.1 3.35
3 2 -11 17.17 6.15
-3 -2 11 13.54 2.73
3 2 11 11.9 6.24
3 2 -11 12.15 4.49
3 -2 11 17.77 4.55
3 -2 -11 9.71 6.91
-3 -2 11 19.1 5.47
4 2 11 110.36 7.42
4 -2 11 109.86 6.63
4 2 11 117.53 5.62
4 2 -11 112.11 6.73
-4 -2 11 110.65 5.1
4 -2 11 105.33 5.81
-4 -2 11 118.47 7.88
-4 -2 -11 115.8 5.91
4 -2 -11 128.09 7.74
4 -2 -11 112.09 7.73
4 2 -11 112.63 7.8
-5 -2 11 148.66 9.25
5 2 -11 144.64 8.59
5 -2 11 162.59 7.32
-5 -2 -11 157.63 7.58
5 -2 -11 145.76 9.49
5 -2 -11 157.31 9.09
5 2 11 174.65 7.23
5 2 11 155.32 9.02
-5 -2 11 163.48 6.45
5 2 -11 163.21 9.08
-6 -2 11 227.66 11.37
6 -2 -11 195.4 11.76
-6 -2 -11 245.81 9.86
6 2 11 222.73 9.47
6 -2 -11 228.82 10.86
6 2 -11 203.09 10.83
6 2 -11 198.99 10.75
6 -2 11 211.8 9.6
-7 -2 11 203.83 11.57
0 -3 -11 121.71 5.46
0 -3 11 121.43 6.58
0 3 -11 129.38 7.64
0 -3 11 129.45 5.52
-1 -3 -11 310.15 10.97
1 -3 -11 297.73 11.82
1 -3 11 289.83 11.63
1 3 11 301.1 11.55
-1 -3 11 305.35 10.9
1 3 11 292.58 10.71
1 3 -11 311.52 12.47
1 -3 11 271.81 10.93
-1 -3 11 296.09 11.87
2 3 11 206.86 8.96
-2 -3 11 197.53 8.94
2 -3 -11 194.47 9.2
2 3 -11 204.34 9.81
2 -3 11 201.49 7.93
2 -3 11 194.18 8.55
-2 -3 -11 198.63 7.82
-2 -3 11 190.74 7.67
2 3 11 186.38 7.66
3 3 -11 290.47 11.21
3 3 11 285.87 12.11
3 -3 -11 289.53 12.28
3 -3 11 285.67 11.4
-3 -3 -11 291.3 10.86
3 -3 -11 302.73 12.62
3 -3 11 269.4 10.83
-3 -3 11 301.59 11.96
-3 -3 11 292.13 10.56
3 3 11 302.37 10.74
3 3 -11 253.59 12.28
-4 -3 -11 165.3 7.27
4 -3 -11 171.61 9.15
4 -3 11 153.24 7.31
4 -3 -11 161.77 9.35
-4 -3 11 188.56 6.78
-4 -3 11 161.12 9.14
4 3 -11 158.92 7.91
4 3 -11 162.72 9.21
4 -3 11 160.81 7.88
4 3 11 159.25 7.21
4 3 11 163.23 9
5 -3 11 145.92 7.45
5 3 -11 149.63 9.17
5 3 11 162.34 7.42
5 3 11 163.07 9.65
5 -3 -11 152.77 10.11
-5 -3 11 158.35 6.57
5 -3 -11 163.44 9.13
5 3 -11 159.04 9.24
-5 -3 -11 164.99 7.5
-5 -3 11 160.12 9.84
-6 -3 -11 66.2 6.17
6 3 -11 70.68 7.97
-6 -3 11 74.29 4.36
6 -3 -11 64.45 7.81
-6 -3 11 64.82 9.31
6 3 11 74.06 6.06
6 3 -11 81.22 7.73
6 -3 11 68.81 6.19
6 -3 -11 73.72 9.68
6 3 11 66.25 8.58
-7 -3 -11 185.94 9.87
0 -4 11 102.29 5.07
0 4 -11 98.84 7.45
0 -4 -11 106.94 4.81
0 -4 11 92.91 6.03
1 4 -11 146.71 8.83
-1 -4 11 157.49 6.58
-1 -4 11 158.33 7.76
1 -4 11 155.25 7.57
-1 4 -11 158.51 8.47
1 -4 -11 153.31 8.03
1 -4 -11 160.31 6.39
1 -4 11 163.59 6.76
-1 -4 -11 154.88 6.46
2 4 -11 197.98 10.06
2 -4 11 187.1 8.04
-2 -4 -11 192.23 7.8
-2 -4 11 196.62 9.14
2 -4 11 197.31 8.65
2 -4 -11 196.37 9.42
2 4 11 209.72 8.98
2 4 11 200.87 7.77
-2 -4 11 202.53 7.83
3 -4 11 293.17 11.25
3 4 11 296.42 10.93
3 4 -11 298.2 11.4
3 -4 11 299.34 11.58
3 4 11 294.79 12.21
-3 -4 11 289.24 12.33
-3 -4 -11 297.16 11
3 4 -11 284.79 12.82
3 -4 -11 295.9 12.47
3 -4 -11 290.16 12.91
4 -4 -11 8.66 7.34
4 4 11 11.74 4.21
-4 -4 -11 12.65 3.85
4 -4 11 7.94 4.71
-4 -4 11 15.35 6.56
4 4 -11 8.9 4.89
4 -4 -11 7.46 6.62
4 4 11 9.84 7.88
4 4 -11 15.47 6.84
4 -4 11 8.43 4.38
5 4 -11 114 8.49
5 -4 -11 103.22 9.6
5 4 11 114.8 8.99
-5 -4 -11 102.78 6.15
-5 -4 11 95.02 9.11
5 4 -11 111.13 6.94
5 -4 -11 109.49 8.13
5 -4 11 110.41 6.6
5 4 11 113.23 6.4
-6 -4 -11 64.31 5.98
6 -4 -11 62.28 8.1
6 4 -11 60.27 8.13
6 4 11 64.01 6.03
-6 -4 11 61.88 9.76
6 4 11 49.75 9.71
6 -4 11 55.61 6.33
6 4 -11 64.16 7.71
0 -5 11 307.06 11.57
0 -5 -11 285.76 10.57
0 5 -11 290.23 12.73
0 -5 11 273.41 10.87
1 -5 11 234.22 10.26
-1 -5 -11 239.12 9.32
-1 5 -11 249.43 11.47
-1 -5 11 261.74 10.58
1 -5 -11 250.62 10.99
1 -5 11 254.02 9.77
1 5 -11 247.34 11.74
1 -5 -11 256.96 9.37
-2 -5 11 499.38 17.85
2 -5 11 493.39 17.49
-2 -5 -11 467.36 16.91
2 5 -11 457.01 18.5
2 -5 -11 485 16.79
2 -5 11 485.53 17.23
2 -5 -11 462.15 18.13
3 -5 -11 274.89 13.14
3 -5 11 311.64 11.79
-3 -5 -11 297.89 11.09
3 -5 -11 295.29 12.71
-3 -5 11 289.88 12.36
3 -5 11 304.61 11.49
3 5 -11 295.52 13.08
4 -5 11 537.77 20.04
-4 -5 -11 560.92 19.75
4 -5 -11 571.9 20.98
4 5 11 582.57 20.87
4 5 -11 543.54 19.98
-4 -5 11 537.08 20.86
4 -5 11 561.45 20.07
4 5 -11 560.59 21.04
-5 -5 11 13.92 8.34
5 -5 -11 7.29 9.18
5 -5 11 12.67 5.38
5 5 11 2.09 4.74
5 -5 -11 11.08 7.38
5 5 -11 8.79 5.44
5 5 11 8.36 8.49
-5 -5 -11 5.59 4.53
5 5 -11 2.73 7.56
-6 -5 -11 200.11 10.24
6 5 11 274.44 13.85
-6 -5 11 229.71 13.6
0 6 -11 474.55 18.69
0 -6 11 463.78 17.49
0 -6 -11 488.36 16.73
-1 6 -11 149.63 10.04
1 -6 11 180.62 8.21
-1 -6 -11 168.37 6.96
-1 -6 11 171.99 8.41
1 6 -11 170.85 10.29
1 -6 -11 170 9.33
1 -6 11 171.77 7.64
1 -6 -11 182.26 6.86
-2 -6 -11 58.33 4.1
2 -6 11 58.74 5.1
-2 6 -11 54.06 8
2 -6 -11 64.25 7.61
2 6 -11 53.35 7.81
2 -6 11 64.67 5.43
-2 -6 11 57.3 6.32
2 -6 -11 63.28 4.01
3 -6 11 357.78 13.42
3 6 -11 378.11 14.9
3 -6 -11 353.6 15.26
3 -6 11 335.11 13.41
-3 -6 -11 342.49 12.88
3 -6 -11 354.77 12.55
-3 -6 11 317.32 14.14
4 6 -11 77.89 5.7
-4 -6 -11 87.39 5.53
4 -6 -11 75.05 9.43
4 -6 -11 79.59 8.49
-4 -6 11 77.75 8.06
4 -6 11 72.69 6
4 6 -11 93.89 8.72
4 -6 11 84.93 6.33
5 6 11 0.05 9.2
5 6 11 0.75 4.89
5 -6 11 0.19 5.99
5 -6 -11 -3.16 7.99
5 6 -11 0.15 8.13
5 6 -11 4.98 5.58
-5 -6 11 5.94 8.88
-5 -6 -11 7.59 4.91
-6 -6 11 261.58 14.91
0 -7 11 272.42 11.51
0 7 -11 296.53 13.79
0 -7 -11 272.83 10.39
1 7 -11 406.57 16.46
-1 -7 11 390.25 14.96
1 -7 11 371.49 14.7
-1 -7 -11 374.32 13.9
1 -7 -11 388.26 13.77
-1 7 -11 383.63 16.77
-2 -7 11 262.26 11.12
2 -7 11 245.77 10.43
2 -7 -11 257.67 12.53
-2 -7 -11 248.13 9.74
2 -7 11 257.31 10.51
2 7 -11 232.09 12.45
-2 7 -11 247.16 13.1
-3 -7 -11 289.88 11.34
3 -7 -11 276.17 14.82
3 -7 11 323.42 11.92
3 -7 11 305.83 12.2
3 -7 -11 293.37 10.95
3 7 -11 283.51 13.83
-3 -7 11 296.08 12.87
4 7 -11 174.15 10.57
-4 -7 -11 144.25 7.57
4 -7 -11 175.44 10.53
-4 -7 11 143.28 9.82
4 -7 11 153.24 8.11
4 -7 11 156.13 8.67
4 -7 -11 154.98 6.78
-5 -7 11 72.74 9.92
-5 -7 -11 72.58 6.4
0 -8 -11 12.3 3.86
0 -8 11 9.19 5.51
0 8 -11 14.79 9.21
1 -8 11 146.73 8.07
-1 -8 11 168.84 8.67
1 8 -11 153.53 10.8
-1 -8 -11 161.02 6.88
-1 8 -11 146.23 12.16
2 8 -11 231.41 12.9
-2 -8 -11 227.04 9.21
-2 8 -11 219.51 14.14
-2 -8 11 219.87 10.7
2 -8 -11 232.91 8.82
2 -8 11 241.83 11.51
3 8 -11 83.96 10.02
-3 -8 -11 84.72 5.78
-3 -8 11 98.15 8.34
3 -8 -11 88.6 4.88
3 -8 11 93.6 6.57
-4 -8 -11 42.6 5.43
4 -8 11 46.92 6.09
-4 -8 11 52.32 8.56
0 -9 11 715.27 24.88
0 -9 -11 663.5 23.96
-1 -9 11 144.58 8.69
1 -9 -11 140.35 6.62
1 -9 11 140.24 8.12
2 -9 11 148.7 9.34
-2 -9 11 147.51 9.22
0 0 12 680.91 23.32
0 0 12 672.85 24.3
1 0 12 379 14.76
-1 0 12 385.09 14.7
1 0 12 344.29 13.5
-1 0 12 400.65 13.5
1 0 -12 387.38 15.2
2 0 12 175.14 7.04
-2 0 12 169.87 8.91
2 0 -12 166.85 8.16
2 0 12 169.92 8.91
-2 0 12 177.72 6.68
2 0 -12 155.53 9.4
3 0 12 444.55 16.41
3 0 -12 460.94 17.4
3 0 -12 479.99 17.95
-4 0 12 121.83 7.78
4 0 -12 114.74 7.93
4 0 12 118.6 6.34
4 0 -12 113.49 8.75
4 0 12 115.64 8.07
5 0 -12 22.35 7.74
5 0 12 30.72 5.28
5 0 -12 26.28 7.69
5 0 12 27.19 7.23
6 0 12 182.81 8.92
0 -1 12 1100.17 37.72
0 1 12 1096.41 36.79
0 1 12 1069.82 37.59
0 -1 12 1063.73 36.89
1 1 -12 291.75 12.7
1 -1 12 238.11 11.73
-1 -1 12 302.31 10.57
1 1 12 290.89 10.64
-1 1 12 291.36 11.83
-1 -1 12 299.14 12.03
1 -1 12 279.73 10.64
-1 1 12 294.78 10.44
1 1 12 297.43 12.09
-2 1 12 452.15 15.37
-2 -1 12 446.86 16.8
2 1 12 445.12 15.74
2 1 -12 449.17 17.21
-2 1 12 453.6 16.46
2 -1 12 448.23 15.68
2 -1 12 445.99 16.84
2 -1 -12 405.95 16.47
2 -1 -12 420.87 17.09
2 1 12 432.56 16.91
-2 -1 12 435.65 15.57
3 -1 12 150.42 8.27
3 1 -12 143.26 9.14
-3 -1 12 153.7 6.32
3 1 12 146.28 9
3 -1 -12 149.2 8.33
3 1 -12 126.15 7.84
3 -1 12 163.24 6.72
-3 -1 12 143.94 8.66
3 -1 -12 154.96 8.99
3 1 12 149.87 6.79
4 -1 12 263.61 11.84
4 -1 -12 262.42 12.36
4 1 -12 277.44 11.76
-4 -1 12 278.42 12.57
4 -1 12 263.5 10.6
-4 -1 12 282.81 10.15
4 1 12 283.79 12.47
4 -1 -12 263.24 13.21
4 1 -12 285.81 12.6
4 1 12 266.57 10.55
5 -1 12 312.55 12.01
-5 -1 12 314.45 13.63
5 1 12 291.76 11.94
5 -1 -12 310.53 14.11
5 1 -12 308.24 13.78
5 -1 12 308.26 13.34
5 -1 -12 319.82 13.81
5 1 -12 308.94 13.77
6 1 12 44.28 8.72
6 1 12 45.44 5.71
6 -1 12 38.28 6.52
0 -2 12 61.68 4.02
0 2 -12 61.92 7.16
0 -2 12 57.38 6.09
0 2 12 58.86 5.79
0 2 12 56.7 3.74
1 -2 12 365.67 13.35
1 2 12 370.43 14.46
1 2 12 379.15 13.13
-1 2 12 346.52 12.92
-1 -2 12 360.66 14.44
-1 2 12 390.79 14.06
1 2 -12 363.16 14.96
-1 -2 12 361.74 13.2
1 -2 12 365.46 14.38
2 2 -12 51.93 7.42
2 -2 12 49.53 4.15
-2 -2 12 45.54 6.52
2 -2 -12 46.43 6.15
2 2 12 48.69 6.66
2 2 12 44.89 3.87
-2 -2 12 47.81 3.75
2 -2 12 51.99 6.23
2 -2 -12 39.09 7.04
3 -2 12 378.91 14.68
3 2 -12 399.09 14.37
3 2 12 391.69 15.39
3 2 12 337.64 13.53
3 2 -12 387.95 15.49
3 -2 12 359.22 13.7
3 -2 -12 357.43 15.11
-3 -2 12 374.47 15.16
3 -2 -12 383.72 15.25
-3 -2 12 373.77 13.41
-4 -2 12 236.1 8.82
4 -2 -12 241.07 11.34
4 2 -12 224.78 10.29
4 -2 -12 224.54 12.07
-4 -2 -12 228.65 9.61
-4 -2 12 231.79 11.67
4 2 12 233.34 9.18
4 -2 12 216.14 9.35
4 2 -12 235.55 11.45
4 2 12 233.91 11.55
4 -2 12 227.8 10.61
5 2 12 43.99 5.22
5 -2 12 51.14 6.91
5 -2 -12 50.7 8.04
5 2 -12 39.45 8.04
5 2 12 61.42 8.68
5 2 -12 45.27 9.95
-5 -2 12 49.42 8.84
-5 -2 -12 49.78 5.66
5 -2 -12 46.26 9.05
-5 -2 12 33.7 3.9
5 -2 12 43.95 5.33
-6 -2 12 1.76 3.62
6 2 12 17.43 9.43
-6 -2 -12 14.34 6.26
-6 -2 12 10.47 9.51
0 -3 12 2325.99 76.56
0 3 -12 2172.12 76.54
0 -3 12 2249.72 75.98
1 3 -12 109.75 8.78
1 -3 12 120.5 5.85
-1 -3 12 127.21 7.68
-1 -3 -12 125.55 5.78
1 3 12 123.09 5.59
1 3 12 124.02 7.48
-1 -3 12 131.07 5.68
1 -3 12 119 7.41
-2 -3 12 165.34 7.03
2 -3 12 162.76 7.39
2 3 -12 167.4 9.99
2 3 12 185.68 9.13
-2 -3 12 163.89 9.04
-2 -3 -12 169.2 7.35
2 -3 -12 173.05 9.11
2 3 12 184.92 7.23
2 -3 12 173.27 8.96
3 -3 -12 114.54 8.79
3 3 -12 110.93 6.67
-3 -3 12 115.12 5.4
3 3 -12 115.75 8.94
-3 -3 -12 116.6 6.11
-3 -3 12 115.5 8.24
3 -3 12 120.16 7.38
3 3 12 123.86 8.69
3 3 12 114.02 5.9
3 -3 -12 102.68 8.61
3 -3 12 110.74 6.01
-4 -3 -12 160.06 7.49
4 -3 -12 156.57 9.62
4 -3 12 152.6 7.44
4 3 12 172.07 10.89
4 -3 -12 136.84 10.22
-4 -3 12 153.49 10.27
4 -3 12 153.78 8.49
-4 -3 12 155.36 6.6
4 3 12 155.89 7.28
4 3 -12 152.22 10
4 3 -12 146.2 8.17
5 -3 12 341.04 14.03
5 -3 -12 307.59 14.73
-5 -3 -12 353.14 13.47
-5 -3 12 328.93 12.5
5 3 -12 350.09 14.97
-5 -3 12 348.71 15.97
5 3 -12 347.19 14.04
5 3 12 346.99 15.7
5 3 12 337.77 13.15
5 -3 12 353.22 13.31
5 -3 -12 362.5 16.03
-6 -3 -12 673.56 25.41
6 3 12 736.13 27.42
0 4 -12 481.37 19.39
0 -4 -12 512.11 17.66
0 -4 12 468.35 17.72
0 -4 12 536.15 18.64
-1 -4 12 684.48 24.24
1 -4 12 679.06 24.07
1 4 -12 705.48 24.89
-1 -4 12 616.39 23.29
1 -4 12 704.76 23.44
-1 4 -12 624.12 24.59
-1 -4 -12 675.28 23.34
-2 -4 -12 715.9 26.75
2 4 -12 765.07 28.17
2 4 12 807.88 27.35
-2 -4 12 777.95 26.75
2 -4 12 777.88 27.5
2 -4 12 812.56 26.94
-2 -4 12 747.93 27.68
2 -4 -12 774.97 27.92
3 -4 12 53.97 4.84
3 -4 -12 42.8 8.21
3 4 12 53.01 7.51
3 -4 12 55.16 6.14
3 -4 -12 46.63 7.84
-3 -4 -12 40.12 4.65
3 4 12 29.84 4.51
3 4 -12 41.35 8.03
-3 -4 12 18.7 7.07
-3 -4 12 45.51 3.99
4 4 -12 173.49 10.63
-4 -4 -12 175.12 7.91
4 -4 -12 176.03 10.27
4 4 -12 162.76 8.6
4 -4 12 178.38 9.03
-4 -4 12 174.99 7.39
-4 -4 12 180.55 10.68
4 -4 -12 164.1 11.38
4 4 12 186.34 11.19
4 -4 12 165.83 8.18
5 -4 12 907.31 31.11
5 4 12 925.35 32.3
5 -4 12 918.55 30.83
5 4 -12 805.52 31.58
-5 -4 12 916.19 32.48
5 -4 -12 853.3 31.46
5 4 -12 814.87 30.92
0 -5 12 257.28 10.95
0 -5 -12 249.4 9.61
0 -5 12 231.35 9.91
0 5 -12 261.46 12.65
-1 -5 12 184.96 9.57
-1 -5 -12 201.5 7.81
1 -5 12 191.37 9.2
1 5 -12 193.91 11.2
-1 -5 12 194.7 8.02
1 -5 12 173.81 8.13
1 -5 -12 189.6 7.72
-1 5 -12 187.24 11.25
-2 5 -12 267.07 13.45
2 -5 12 291.17 11.48
-2 -5 12 300.87 11.19
-2 -5 12 312.01 12.82
-2 -5 -12 286.04 11.1
2 5 -12 297.35 13.77
2 -5 12 309.98 12.48
2 -5 -12 284.4 13.5
3 -5 12 39.11 5.06
3 -5 12 44.7 6.11
3 5 -12 41.54 8.29
3 -5 -12 36.18 8.92
-3 -5 12 37.86 7.74
3 -5 -12 40.02 7.88
-3 -5 -12 40.19 4.44
4 -5 -12 89.97 9.16
4 5 -12 85.61 9.22
4 5 -12 96.61 6.59
-4 -5 12 89.82 9.23
4 -5 -12 80.41 10.83
4 -5 12 92.04 7.17
4 -5 12 94 6.6
4 5 12 92.28 9.56
-4 -5 -12 94.62 5.92
5 -5 12 22.07 6.47
-5 -5 -12 13.33 5.49
-5 -5 12 24.27 10.44
5 5 12 19.44 11.51
0 6 -12 65.91 9.84
0 -6 12 53.34 6.49
0 -6 -12 56.14 4.23
0 -6 12 62.74 4.99
-1 -6 12 234.16 11.08
-1 6 -12 255.49 13.27
1 -6 12 230.92 9.97
1 -6 12 236.2 10.73
1 6 -12 238.67 13.01
1 -6 -12 244.37 9.38
-1 -6 -12 238.09 9.34
-2 -6 -12 1320.56 44.35
2 -6 -12 1382.3 44.25
2 -6 12 1191.6 44.59
-2 -6 12 1304.43 45.2
-2 6 -12 1299.06 45.71
2 6 -12 1252.44 45.6
2 -6 -12 1312.14 45.77
2 -6 12 1330.82 44.97
3 -6 -12 81.2 10.72
3 6 -12 88.27 9.37
-3 -6 12 87.93 8.48
3 -6 12 93.36 6.97
3 -6 12 84.71 6.62
-3 -6 -12 74.17 5.39
4 -6 12 709.3 24.58
4 -6 -12 687.43 25.6
-4 -6 12 645.73 25.59
-4 -6 -12 670.19 23.97
0 -7 12 1084.01 38.44
0 -7 -12 1092.95 37.67
0 7 -12 1128.91 39.85
1 -7 12 53.62 6.57
1 7 -12 45.71 9.93
-1 -7 -12 41.7 4.37
1 -7 -12 48.78 4.13
-1 7 -12 47.38 11.02
-1 -7 12 55.5 7.22
1 -7 12 50.38 5.85
-2 -7 12 120.02 8.73
2 -7 -12 121.83 5.96
2 7 -12 109.31 10.57
-2 -7 -12 112.78 6.1
2 -7 12 114.82 7.56
2 -7 12 121.9 8.42
-3 -7 12 381.37 16.09
3 -7 12 382.52 14.96
-3 -7 -12 363.73 14.02
0 -8 12 191.91 10.05
1 -8 12 186.57 9.9
-1 -8 12 192.53 10.37
-2 -8 12 181.39 10.61
0 0 13 2.09 3.31
0 0 13 5.2 7.16
-1 0 13 59.48 4.11
-1 0 13 53.85 7.32
1 0 13 53.32 7.62
1 0 13 60.53 4.31
1 0 -13 66.58 8.42
-2 0 13 18.81 7.77
2 0 13 15.54 7.61
2 0 -13 20.17 7.9
-2 0 13 18.83 3.4
2 0 13 17.45 4.01
3 0 13 3.34 8.07
3 0 13 1.44 4.45
-3 0 13 -3.59 3.18
-3 0 13 0.69 7.85
3 0 -13 1.58 6.31
3 0 -13 -4.11 7.96
4 0 -13 190.67 11.03
4 0 13 126.78 10.38
-4 0 13 173.38 9.96
4 0 -13 170.91 9.94
5 0 13 18.47 9.11
0 1 13 171.01 7.28
0 -1 13 172.48 7.21
0 -1 13 172.86 9.91
0 1 13 171.81 9.73
1 1 13 14.31 4.17
1 1 13 24.41 7.62
-1 -1 13 20.51 7.08
1 -1 13 18.31 3.72
1 -1 13 16.92 7.04
-1 1 13 11.72 6.72
1 1 -13 17.64 8.19
-1 -1 13 14.72 3.66
-1 1 13 18.27 3.68
2 1 -13 408.23 17.6
-2 1 13 429.52 16.85
2 -1 -13 419.97 17.65
-2 -1 13 440.69 15.41
2 -1 13 433.9 15.56
-2 -1 13 445.29 17.32
2 1 13 433.4 17.53
2 1 13 448.25 15.71
3 -1 -13 146.14 10.11
3 1 13 140.49 10.36
-3 -1 13 156.02 6.59
3 1 -13 153.84 10.28
-3 -1 13 163.78 10.32
3 1 -13 142.22 8.42
3 -1 13 160.2 7.04
3 -1 -13 153.7 9.21
3 -1 13 151.79 10.18
3 1 13 132.51 6.97
4 -1 13 51.91 8.26
4 1 13 44.43 5.19
-4 -1 13 59.56 9.6
4 -1 13 45.41 5.42
4 1 -13 45.38 9.01
4 -1 -13 42.55 8.67
4 1 -13 40.08 7.42
4 1 13 58.21 11.42
4 -1 -13 46.22 8.36
-5 -1 13 2.3 3.98
-5 -1 13 26.98 9.48
5 1 13 38.14 10.03
5 -1 13 24.45 8.88
0 2 -13 303.26 14.42
0 -2 13 317.64 11.88
0 2 13 332.41 13.34
0 -2 13 316.84 13.74
1 2 13 194.95 10.03
1 2 13 177.54 7.31
1 2 -13 161.67 10.69
-1 -2 13 184.68 10.06
1 -2 13 185.42 7.62
1 -2 13 157.34 9.75
-1 -2 13 174.9 7.47
-2 -2 13 130 6.23
2 -2 13 131.89 6.56
2 -2 13 124.25 8.92
2 2 13 128.06 6.23
2 -2 -13 127.87 9.61
-2 -2 13 131.83 9.4
2 -2 -13 141.71 8.7
2 2 13 139.54 9.37
2 2 -13 140.76 9.88
-3 -2 13 17.41 8.75
3 2 13 14.2 9.01
3 -2 -13 14.91 7.6
-3 -2 13 10.8 3.85
3 -2 13 15.29 8.4
3 2 13 13.47 4.12
3 -2 -13 22.64 8.18
3 -2 13 13.77 4.55
3 2 -13 16.04 8.6
3 2 -13 26.39 5.87
4 2 -13 235.26 10.84
4 2 13 239.32 13.59
4 -2 -13 220.58 12.42
4 -2 13 223.79 9.6
4 2 -13 219.44 12.33
4 2 13 209.64 9.36
-4 -2 13 222.53 13.2
4 -2 -13 208.74 12.11
4 -2 13 248.97 11.58
5 -2 13 224.89 12.05
5 2 13 222.9 13.93
0 -3 13 184.96 9.94
0 -3 13 173.61 7.57
0 3 -13 171.26 11.15
1 3 -13 336.84 15.08
-1 3 -13 315.08 14.75
1 -3 13 325.41 13.79
2 -3 -13 25.8 7.53
2 -3 13 30.26 7.16
2 3 13 27.17 8.36
2 3 13 1.2 4.11
-2 -3 13 23.68 8.07
2 3 -13 34.21 8.98
-2 -3 13 33.07 3.95
2 -3 13 30.38 4.57
3 3 -13 94.58 9.81
3 -3 13 99.34 9.94
3 -3 -13 85.86 9.52
-3 -3 13 89.46 5.23
3 3 13 100.59 10
-3 -3 13 92.64 9.64
3 -3 13 94.45 6.05
3 -3 -13 89.44 9.78
-3 -3 -13 90.39 6.03
4 3 -13 356.99 16.33
4 3 13 388.45 17.15
-4 -3 13 381.14 17.28
4 3 -13 357.03 14.62
4 -3 -13 333.4 16
4 -3 13 360.09 15.24
-4 -3 -13 359.8 14.15
4 -3 13 370.77 13.99
0 4 -13 82.29 10.16
0 -4 13 74.61 7.82
0 -4 13 67.14 5.11
1 4 -13 259.06 13.19
1 -4 13 245.06 9.87
-1 -4 13 228.57 9.63
-1 -4 13 239.84 11.84
-1 4 -13 243.02 13.22
-1 -4 -13 232.02 9.69
1 -4 13 253.51 11.55
2 4 -13 657.67 24.77
-2 -4 13 647.97 24.15
2 -4 13 619.82 22.75
-2 -4 13 643.61 22.55
-2 -4 -13 649.91 22.7
2 -4 13 621.44 23.72
2 -4 -13 659.67 24.4
3 -4 13 76.79 6.2
-3 -4 13 80.46 5.14
3 -4 13 85.12 10.48
3 4 -13 67.44 9.99
3 4 13 77.41 9.7
3 -4 -13 93.3 9.89
-3 -4 13 76.03 9.66
-3 -4 -13 77.35 6.03
-4 -4 13 407.44 18.43
4 -4 13 435.33 16.59
-4 -4 -13 385.11 15.52
0 -5 13 666.42 24.1
0 -5 13 643.98 23.04
0 5 -13 645.19 25.42
0 -5 -13 649.97 22.83
-1 5 -13 368.67 17.46
-1 -5 13 328.27 13.75
-1 -5 13 371.74 15.48
1 -5 13 384.69 15.22
1 -5 13 377.93 14.03
1 5 -13 382.32 17.11
-1 -5 -13 375.24 13.79
2 5 -13 466.18 20.03
2 -5 13 498.82 18.71
-2 -5 13 469.61 17.37
2 -5 13 481.28 17.6
-2 -5 -13 465 17.44
-2 -5 13 499.13 19.22
-3 -5 -13 114.01 7.13
-3 -5 13 132.75 10.69
3 -5 13 135.32 12.59
0 -6 13 61.52 7.92
0 -6 -13 56.74 5.01
-1 -6 13 7.86 7.81
1 -6 -13 3.23 4.29
1 -6 13 2.35 7.25
-1 -6 -13 2.8 4.52
-2 -6 13 112.16 9.89
2 -6 13 114.73 8.93
-2 -6 -13 105.27 6.26
0 0 14 262.97 10.7
0 0 14 298.9 14.24
1 0 -14 154.28 11.83
1 0 14 171.64 11.58
1 0 14 163.42 7.31
-1 0 14 144.82 11.14
2 0 14 81.74 10.29
-2 0 14 85.17 10.46
2 0 -14 89.6 10.32
2 0 14 67.83 5.51
3 0 14 27.46 10.65
-3 0 14 -1.84 3.65
-3 0 14 35.16 10.39
0 1 -14 307.73 15.33
0 1 14 330.89 14.62
0 -1 14 306.58 11.67
0 -1 14 293.1 14.76
1 1 14 255.97 11.82
-1 -1 14 322.1 14.87
1 -1 14 324.01 11.84
-1 1 14 334.29 14.86
1 1 -14 296.9 15.44
1 -1 -14 308.73 15.21
1 -1 14 345.97 15.02
-1 -1 14 290.07 11.6
1 1 14 329.86 15.02
2 -1 -14 231.07 13.71
2 -1 14 239.5 13.25
2 1 -14 231.76 13.69
2 1 14 257.99 13.46
-2 -1 14 248.01 13.79
-3 -1 14 180.24 13.24
3 1 14 168.15 13.17
0 -2 14 250.99 13.23
0 2 14 249.15 12.62
0 2 -14 250.47 14.39
1 2 -14 464.94 20.49
1 -2 14 492.59 19.69
-1 -2 14 503.59 20.06
2 -2 14 515.93 18.27
2 2 14 524.69 21.24
-2 -2 14 480.6 20.7
2 -2 14 496.68 20.42
3 -2 14 205.77 13
0 -3 14 -4.55 4.67
0 -3 14 11.05 9.41
1 -3 14 70.39 5.65
1 3 14 74.15 8.9
-1 -3 14 60.6 9.89
1 -3 14 63.6 9.23
2 -3 14 31.77 9.08
2 3 14 24.69 10.1
-2 -3 14 21.57 10.24
2 3 14 -0.31 4.69
0 -4 14 126.5 10.75
-1 -4 14 38.72 9.65
1 -4 14 22.03 8.86
-2 -4 14 140.1 11.96
