#------------------------------------------------------------------------------
#$Date: 2017-02-07 17:13:06 +0200 (Tue, 07 Feb 2017) $
#$Revision: 191892 $
#$URL: file:///home/coder/svn-repositories/cod/cif/2/10/35/2103502.cif $
#------------------------------------------------------------------------------
#
# This file is available in the Crystallography Open Database (COD),
# http://www.crystallography.net/. The original data for this entry
# were provided by IUCr Journals, http://journals.iucr.org/.
#
# The file may be used within the scientific community so long as
# proper attribution is given to the journal article from which the
# data were obtained.
#
data_2103502
loop_
_publ_author_name
'Pavlovska, A.'
'Werner, S.'
'Maximov, B.'
'Mill, B.'
_publ_section_title
;
 Pressure-induced phase transitions of piezoelectric single crystals
 from the langasite family: La~3~Nb~0.5~Ga~5.5~O~14~ and
 La~3~Ta~0.5~Ga~5.5~O~14~
;
_journal_issue                   6
_journal_name_full               'Acta Crystallographica Section B'
_journal_page_first              939
_journal_page_last               947
_journal_paper_doi               10.1107/S0108768102010273
_journal_volume                  58
_journal_year                    2002
_chemical_formula_sum            'Ga5.5 La3 Nb0.5 O14'
_chemical_formula_weight         1070.65
_chemical_name_systematic        ?
_space_group_IT_number           150
_symmetry_space_group_name_Hall  'P 3 2"'
_symmetry_space_group_name_H-M   'P 3 2 1'
_atom_sites_solution_hydrogens   geom
_atom_sites_solution_primary     direct
_atom_sites_solution_secondary   difmap
_audit_creation_method           SHELXL-97
_cell_angle_alpha                90.00
_cell_angle_beta                 90.00
_cell_angle_gamma                120.00
_cell_formula_units_Z            1
_cell_length_a                   8.202
_cell_length_b                   8.202
_cell_length_c                   5.123
_cell_measurement_temperature    293(2)
_cell_volume                     298.5
_computing_structure_refinement  'SHELXL-97 (Sheldrick, 1997)'
_computing_structure_solution    'SHELXS-97 (Sheldrick, 1990)'
_diffrn_ambient_pressure         0.8E+6
_diffrn_ambient_temperature      293(2)
_diffrn_measured_fraction_theta_full 0.571
_diffrn_measured_fraction_theta_max 0.571
_diffrn_radiation_monochromator  graphite
_diffrn_radiation_source         'fine-focus sealed tube'
_diffrn_radiation_type           MoK\a
_diffrn_radiation_wavelength     0.71073
_diffrn_reflns_av_R_equivalents  0.0554
_diffrn_reflns_av_sigmaI/netI    0.0364
_diffrn_reflns_limit_h_max       12
_diffrn_reflns_limit_h_min       -12
_diffrn_reflns_limit_k_max       11
_diffrn_reflns_limit_k_min       -11
_diffrn_reflns_limit_l_max       4
_diffrn_reflns_limit_l_min       -4
_diffrn_reflns_number            1587
_diffrn_reflns_theta_full        31.93
_diffrn_reflns_theta_max         31.93
_diffrn_reflns_theta_min         2.87
_exptl_absorpt_coefficient_mu    23.225
_exptl_crystal_density_diffrn    5.957
_exptl_crystal_density_method    'not measured'
_exptl_crystal_F_000             474
_refine_diff_density_max         1.765
_refine_diff_density_min         -0.912
_refine_diff_density_rms         0.315
_refine_ls_abs_structure_details 'Flack H D (1983), Acta Cryst. A39, 876-881'
_refine_ls_abs_structure_Flack   0.01(10)
_refine_ls_extinction_coef       0.098(12)
_refine_ls_extinction_expression Fc^*^=kFc[1+0.001xFc^2^\l^3^/sin(2\q)]^-1/4^
_refine_ls_extinction_method     SHELXL
_refine_ls_goodness_of_fit_ref   1.052
_refine_ls_hydrogen_treatment    mixed
_refine_ls_matrix_type           full
_refine_ls_number_parameters     39
_refine_ls_number_reflns         424
_refine_ls_number_restraints     0
_refine_ls_restrained_S_all      1.052
_refine_ls_R_factor_all          0.0387
_refine_ls_R_factor_gt           0.0327
_refine_ls_shift/su_max          0.000
_refine_ls_shift/su_mean         0.000
_refine_ls_structure_factor_coef Fsqd
_refine_ls_weighting_details
'calc w=1/[\s^2^(Fo^2^)+(0.1000P)^2^+0.0000P] where P=(Fo^2^+2Fc^2^)/3'
_refine_ls_weighting_scheme      calc
_refine_ls_wR_factor_gt          0.0904
_refine_ls_wR_factor_ref         0.1102
_reflns_number_gt                417
_reflns_number_total             424
_reflns_threshold_expression     >2sigma(I)
_cod_data_source_file            sn0021-0.8cad4.cif
_cod_data_source_block           0.8cad4
_cod_depositor_comments
;
The _diffrn_ambient_pressure was taken from the original data block
header, after comparison with the paper text and supplementary
material.

Saulius Gra\<zulis
;
_cod_original_formula_sum        'Ga5.50 La3 Nb0.50 O14'
_cod_database_code               2103502
loop_
_symmetry_equiv_pos_as_xyz
'x, y, z'
'y, x, -z'
'-y, x-y, z'
'-x+y, -x, z'
'-x, -x+y, -z'
'x-y, -y, -z'
loop_
_atom_site_label
_atom_site_type_symbol
_atom_site_fract_x
_atom_site_fract_y
_atom_site_fract_z
_atom_site_U_iso_or_equiv
_atom_site_adp_type
_atom_site_occupancy
_atom_site_symmetry_multiplicity
_atom_site_calc_flag
_atom_site_refinement_flags
La La -0.42528(12) 0.0000 0.0000 0.0227(4) Uani 1 2 d S
Ga1 Ga 0.0000 0.0000 0.0000 0.0235(10) Uani 0.50 6 d SP
Nb Nb 0.0000 0.0000 0.0000 0.0235(10) Uani 0.50 6 d SP
Ga2 Ga -0.6667 -0.3333 0.4693(8) 0.0228(9) Uani 1 3 d S
Ga3 Ga -0.7624(2) 0.0000 -0.5000 0.0239(6) Uani 1 2 d S
O1 O -0.3333 0.3333 0.182(5) 0.024(5) Uani 1 3 d S
O2 O -0.4557(14) -0.3083(14) 0.300(3) 0.034(4) Uani 1 1 d .
O3 O -0.2128(13) -0.0708(18) -0.240(3) 0.032(4) Uani 1 1 d .
loop_
_atom_site_aniso_label
_atom_site_aniso_U_11
_atom_site_aniso_U_22
_atom_site_aniso_U_33
_atom_site_aniso_U_23
_atom_site_aniso_U_13
_atom_site_aniso_U_12
La 0.0198(4) 0.0190(5) 0.0291(10) 0.0000(5) 0.0000(2) 0.0095(3)
Ga1 0.0206(10) 0.0206(10) 0.029(3) 0.000 0.000 0.0103(5)
Nb 0.0206(10) 0.0206(10) 0.029(3) 0.000 0.000 0.0103(5)
Ga2 0.0198(8) 0.0198(8) 0.029(3) 0.000 0.000 0.0099(4)
Ga3 0.0196(7) 0.0209(9) 0.032(2) 0.0045(8) 0.0023(4) 0.0105(5)
O1 0.019(4) 0.019(4) 0.034(17) 0.000 0.000 0.009(2)
O2 0.021(5) 0.025(5) 0.056(12) -0.006(5) 0.000(5) 0.010(4)
O3 0.019(4) 0.043(7) 0.043(12) -0.022(6) -0.015(5) 0.022(4)
loop_
_atom_type_symbol
_atom_type_description
_atom_type_scat_dispersion_real
_atom_type_scat_dispersion_imag
_atom_type_scat_source
La La -0.2871 2.4523 'International Tables Vol C Tables 4.2.6.8 and 6.1.1.4'
Nb Nb -2.0727 0.6215 'International Tables Vol C Tables 4.2.6.8 and 6.1.1.4'
Ga Ga 0.2307 1.6083 'International Tables Vol C Tables 4.2.6.8 and 6.1.1.4'
O O 0.0106 0.0060 'International Tables Vol C Tables 4.2.6.8 and 6.1.1.4'
loop_
_geom_angle_atom_site_label_1
_geom_angle_atom_site_label_2
_geom_angle_atom_site_label_3
_geom_angle
_geom_angle_site_symmetry_1
_geom_angle_site_symmetry_3
O3 La O3 66.4(5) . 6
O3 La O2 140.6(4) . 3_455
O3 La O2 108.2(5) 6 3_455
O3 La O2 108.2(5) . 5_455
O3 La O2 140.6(4) 6 5_455
O2 La O2 99.3(6) 3_455 5_455
O3 La O1 124.3(3) . .
O3 La O1 80.1(3) 6 .
O2 La O1 90.7(4) 3_455 .
O2 La O1 71.6(5) 5_455 .
O3 La O1 80.1(3) . 2_455
O3 La O1 124.3(3) 6 2_455
O2 La O1 71.6(5) 3_455 2_455
O2 La O1 90.7(4) 5_455 2_455
O1 La O1 152.91(10) . 2_455
O3 La O2 79.5(4) . .
O3 La O2 65.8(4) 6 .
O2 La O2 64.1(5) 3_455 .
O2 La O2 153.67(17) 5_455 .
O1 La O2 125.8(6) . .
O1 La O2 65.3(5) 2_455 .
O3 La O2 65.8(4) . 6
O3 La O2 79.5(4) 6 6
O2 La O2 153.67(17) 3_455 6
O2 La O2 64.1(5) 5_455 6
O1 La O2 65.3(5) . 6
O1 La O2 125.8(6) 2_455 6
O2 La O2 138.5(4) . 6
O3 La Ga2 111.2(3) . .
O3 La Ga2 86.4(4) 6 .
O2 La Ga2 31.4(3) 3_455 .
O2 La Ga2 128.4(3) 5_455 .
O1 La Ga2 109.5(5) . .
O1 La Ga2 65.3(5) 2_455 .
O2 La Ga2 32.7(2) . .
O2 La Ga2 165.5(3) 6 .
O3 La Ga2 86.4(4) . 2_565
O3 La Ga2 111.2(3) 6 2_565
O2 La Ga2 128.4(3) 3_455 2_565
O2 La Ga2 31.4(3) 5_455 2_565
O1 La Ga2 65.3(5) . 2_565
O1 La Ga2 109.5(5) 2_455 2_565
O2 La Ga2 165.5(3) . 2_565
O2 La Ga2 32.7(2) 6 2_565
Ga2 La Ga2 159.41(4) . 2_565
O3 La Nb 33.2(3) . .
O3 La Nb 33.2(3) 6 .
O2 La Nb 130.4(3) 3_455 .
O2 La Nb 130.4(3) 5_455 .
O1 La Nb 103.55(5) . .
O1 La Nb 103.54(5) 2_455 .
O2 La Nb 69.2(2) . .
O2 La Nb 69.2(2) 6 .
Ga2 La Nb 100.294(18) . .
Ga2 La Nb 100.294(18) 2_565 .
O3 La Ga1 33.2(3) . .
O3 La Ga1 33.2(3) 6 .
O2 La Ga1 130.4(3) 3_455 .
O2 La Ga1 130.4(3) 5_455 .
O1 La Ga1 103.55(5) . .
O1 La Ga1 103.54(5) 2_455 .
O2 La Ga1 69.2(2) . .
O2 La Ga1 69.2(2) 6 .
Ga2 La Ga1 100.294(18) . .
Ga2 La Ga1 100.294(18) 2_565 .
Nb La Ga1 0.0 . .
O3 Ga1 O3 84.9(7) 3 2
O3 Ga1 O3 107.7(8) 3 5
O3 Ga1 O3 85.1(6) 2 5
O3 Ga1 O3 85.1(6) 3 .
O3 Ga1 O3 107.7(8) 2 .
O3 Ga1 O3 163.0(7) 5 .
O3 Ga1 O3 163.0(7) 3 6
O3 Ga1 O3 85.1(6) 2 6
O3 Ga1 O3 85.1(6) 5 6
O3 Ga1 O3 84.9(7) . 6
O3 Ga1 O3 85.1(6) 3 4
O3 Ga1 O3 163.0(7) 2 4
O3 Ga1 O3 84.9(7) 5 4
O3 Ga1 O3 85.1(6) . 4
O3 Ga1 O3 107.7(8) 6 4
O3 Ga1 La 42.4(3) 3 2
O3 Ga1 La 42.4(3) 2 2
O3 Ga1 La 98.5(4) 5 2
O3 Ga1 La 98.5(4) . 2
O3 Ga1 La 126.2(4) 6 2
O3 Ga1 La 126.2(4) 4 2
O3 Ga1 La 126.2(4) 3 .
O3 Ga1 La 98.5(4) 2 .
O3 Ga1 La 126.2(4) 5 .
O3 Ga1 La 42.4(3) . .
O3 Ga1 La 42.4(3) 6 .
O3 Ga1 La 98.5(4) 4 .
La Ga1 La 120.0 2 .
O3 Ga1 La 98.5(4) 3 4
O3 Ga1 La 126.2(4) 2 4
O3 Ga1 La 42.4(3) 5 4
O3 Ga1 La 126.2(4) . 4
O3 Ga1 La 98.5(4) 6 4
O3 Ga1 La 42.4(3) 4 4
La Ga1 La 120.0 2 4
La Ga1 La 120.0 . 4
O3 Ga1 O2 52.3(4) 3 2
O3 Ga1 O2 67.0(5) 2 2
O3 Ga1 O2 145.6(4) 5 2
O3 Ga1 O2 51.4(4) . 2
O3 Ga1 O2 110.9(4) 6 2
O3 Ga1 O2 116.4(4) 4 2
La Ga1 O2 47.24(19) 2 2
La Ga1 O2 79.57(16) . 2
La Ga1 O2 149.3(2) 4 2
O3 Ga1 O2 67.0(5) 3 3
O3 Ga1 O2 52.3(4) 2 3
O3 Ga1 O2 51.4(4) 5 3
O3 Ga1 O2 145.6(4) . 3
O3 Ga1 O2 116.4(4) 6 3
O3 Ga1 O2 110.9(4) 4 3
La Ga1 O2 47.24(19) 2 3
La Ga1 O2 149.3(2) . 3
La Ga1 O2 79.57(16) 4 3
O2 Ga1 O2 94.5(4) 2 3
O3 Ga1 O2 110.9(4) 3 .
O3 Ga1 O2 51.4(4) 2 .
O3 Ga1 O2 116.4(4) 5 .
O3 Ga1 O2 67.0(5) . .
O3 Ga1 O2 52.3(4) 6 .
O3 Ga1 O2 145.6(4) 4 .
La Ga1 O2 79.57(16) 2 .
La Ga1 O2 47.24(19) . .
La Ga1 O2 149.3(2) 4 .
O2 Ga1 O2 61.4(5) 2 .
O2 Ga1 O2 103.5(3) 3 .
O3 Nb O3 84.9(7) 3 2
O3 Nb O3 107.7(8) 3 5
O3 Nb O3 85.1(6) 2 5
O3 Nb O3 85.1(6) 3 .
O3 Nb O3 107.7(8) 2 .
O3 Nb O3 163.0(7) 5 .
O3 Nb O3 163.0(7) 3 6
O3 Nb O3 85.1(6) 2 6
O3 Nb O3 85.1(6) 5 6
O3 Nb O3 84.9(7) . 6
O3 Nb O3 85.1(6) 3 4
O3 Nb O3 163.0(7) 2 4
O3 Nb O3 84.9(7) 5 4
O3 Nb O3 85.1(6) . 4
O3 Nb O3 107.7(8) 6 4
O3 Nb La 42.4(3) 3 2
O3 Nb La 42.4(3) 2 2
O3 Nb La 98.5(4) 5 2
O3 Nb La 98.5(4) . 2
O3 Nb La 126.2(4) 6 2
O3 Nb La 126.2(4) 4 2
O3 Nb La 126.2(4) 3 .
O3 Nb La 98.5(4) 2 .
O3 Nb La 126.2(4) 5 .
O3 Nb La 42.4(3) . .
O3 Nb La 42.4(3) 6 .
O3 Nb La 98.5(4) 4 .
La Nb La 120.0 2 .
O3 Nb La 98.5(4) 3 4
O3 Nb La 126.2(4) 2 4
O3 Nb La 42.4(3) 5 4
O3 Nb La 126.2(4) . 4
O3 Nb La 98.5(4) 6 4
O3 Nb La 42.4(3) 4 4
La Nb La 120.0 2 4
La Nb La 120.0 . 4
O3 Nb O2 52.3(4) 3 2
O3 Nb O2 67.0(5) 2 2
O3 Nb O2 145.6(4) 5 2
O3 Nb O2 51.4(4) . 2
O3 Nb O2 110.9(4) 6 2
O3 Nb O2 116.4(4) 4 2
La Nb O2 47.24(19) 2 2
La Nb O2 79.57(16) . 2
La Nb O2 149.3(2) 4 2
O3 Nb O2 67.0(5) 3 3
O3 Nb O2 52.3(4) 2 3
O3 Nb O2 51.4(4) 5 3
O3 Nb O2 145.6(4) . 3
O3 Nb O2 116.4(4) 6 3
O3 Nb O2 110.9(4) 4 3
La Nb O2 47.24(19) 2 3
La Nb O2 149.3(2) . 3
La Nb O2 79.57(16) 4 3
O2 Nb O2 94.5(4) 2 3
O3 Nb O2 110.9(4) 3 .
O3 Nb O2 51.4(4) 2 .
O3 Nb O2 116.4(4) 5 .
O3 Nb O2 67.0(5) . .
O3 Nb O2 52.3(4) 6 .
O3 Nb O2 145.6(4) 4 .
La Nb O2 79.57(16) 2 .
La Nb O2 47.24(19) . .
La Nb O2 149.3(2) 4 .
O2 Nb O2 61.4(5) 2 .
O2 Nb O2 103.5(3) 3 .
O1 Ga2 O2 117.9(5) 2_456 4_445
O1 Ga2 O2 117.9(5) 2_456 .
O2 Ga2 O2 99.8(7) 4_445 .
O1 Ga2 O2 117.9(5) 2_456 3_455
O2 Ga2 O2 99.8(7) 4_445 3_455
O2 Ga2 O2 99.8(7) . 3_455
O1 Ga2 O1 179.999(1) 2_456 2_455
O2 Ga2 O1 62.1(5) 4_445 2_455
O2 Ga2 O1 62.1(5) . 2_455
O2 Ga2 O1 62.1(5) 3_455 2_455
O1 Ga2 La 134.51(5) 2_456 4_445
O2 Ga2 La 56.5(4) 4_445 4_445
O2 Ga2 La 43.4(4) . 4_445
O2 Ga2 La 107.1(5) 3_455 4_445
O1 Ga2 La 45.49(5) 2_455 4_445
O1 Ga2 La 134.51(5) 2_456 2_455
O2 Ga2 La 43.4(4) 4_445 2_455
O2 Ga2 La 107.1(5) . 2_455
O2 Ga2 La 56.5(4) 3_455 2_455
O1 Ga2 La 45.49(5) 2_455 2_455
La Ga2 La 76.28(7) 4_445 2_455
O1 Ga2 La 134.51(5) 2_456 .
O2 Ga2 La 107.1(5) 4_445 .
O2 Ga2 La 56.5(4) . .
O2 Ga2 La 43.4(4) 3_455 .
O1 Ga2 La 45.49(5) 2_455 .
La Ga2 La 76.28(7) 4_445 .
La Ga2 La 76.28(7) 2_455 .
O1 Ga2 O3 65.3(2) 2_456 4_446
O2 Ga2 O3 59.5(5) 4_445 4_446
O2 Ga2 O3 102.2(4) . 4_446
O2 Ga2 O3 152.0(4) 3_455 4_446
O1 Ga2 O3 114.7(2) 2_455 4_446
La Ga2 O3 78.4(2) 4_445 4_446
La Ga2 O3 100.17(19) 2_455 4_446
La Ga2 O3 154.5(3) . 4_446
O1 Ga2 O3 65.3(2) 2_456 1_556
O2 Ga2 O3 152.0(4) 4_445 1_556
O2 Ga2 O3 59.5(5) . 1_556
O2 Ga2 O3 102.2(4) 3_455 1_556
O1 Ga2 O3 114.7(2) 2_455 1_556
La Ga2 O3 100.17(19) 4_445 1_556
La Ga2 O3 154.5(3) 2_455 1_556
La Ga2 O3 78.4(2) . 1_556
O3 Ga2 O3 103.8(3) 4_446 1_556
O1 Ga2 O3 65.3(2) 2_456 3_456
O2 Ga2 O3 102.2(4) 4_445 3_456
O2 Ga2 O3 152.0(4) . 3_456
O2 Ga2 O3 59.5(5) 3_455 3_456
O1 Ga2 O3 114.7(2) 2_455 3_456
La Ga2 O3 154.5(3) 4_445 3_456
La Ga2 O3 78.4(2) 2_455 3_456
La Ga2 O3 100.17(19) . 3_456
O3 Ga2 O3 103.8(3) 4_446 3_456
O3 Ga2 O3 103.8(3) 1_556 3_456
O1 Ga2 O2 71.6(3) 2_456 2_556
O2 Ga2 O2 106.7(3) 4_445 2_556
O2 Ga2 O2 50.4(7) . 2_556
O2 Ga2 O2 142.6(2) 3_455 2_556
O1 Ga2 O2 108.4(3) 2_455 2_556
La Ga2 O2 68.8(2) 4_445 2_556
La Ga2 O2 144.0(2) 2_455 2_556
La Ga2 O2 102.6(2) . 2_556
O3 Ga2 O2 65.3(2) 4_446 2_556
O3 Ga2 O2 46.1(2) 1_556 2_556
O3 Ga2 O2 135.7(4) 3_456 2_556
O3 Ga3 O3 129.6(8) 3_455 5_454
O3 Ga3 O2 110.9(5) 3_455 3_454
O3 Ga3 O2 100.3(6) 5_454 3_454
O3 Ga3 O2 100.3(6) 3_455 5_455
O3 Ga3 O2 110.9(5) 5_454 5_455
O2 Ga3 O2 102.1(7) 3_454 5_455
O3 Ga3 O3 77.3(6) 3_455 2_454
O3 Ga3 O3 71.3(5) 5_454 2_454
O2 Ga3 O3 78.4(4) 3_454 2_454
O2 Ga3 O3 177.6(6) 5_455 2_454
O3 Ga3 O3 71.3(5) 3_455 4_455
O3 Ga3 O3 77.3(6) 5_454 4_455
O2 Ga3 O3 177.6(6) 3_454 4_455
O2 Ga3 O3 78.4(4) 5_455 4_455
O3 Ga3 O3 101.1(4) 2_454 4_455
O3 Ga3 O1 160.6(6) 3_455 1_554
O3 Ga3 O1 64.4(4) 5_454 1_554
O2 Ga3 O1 75.1(4) 3_454 1_554
O2 Ga3 O1 60.3(6) 5_455 1_554
O3 Ga3 O1 122.1(4) 2_454 1_554
O3 Ga3 O1 103.3(3) 4_455 1_554
O3 Ga3 O1 64.4(4) 3_455 2_455
O3 Ga3 O1 160.6(6) 5_454 2_455
O2 Ga3 O1 60.3(6) 3_454 2_455
O2 Ga3 O1 75.1(4) 5_455 2_455
O3 Ga3 O1 103.3(3) 2_454 2_455
O3 Ga3 O1 122.1(4) 4_455 2_455
O1 Ga3 O1 106.4(3) 1_554 2_455
O3 Ga3 O3 43.3(3) 3_455 1_455
O3 Ga3 O3 86.6(6) 5_454 1_455
O2 Ga3 O3 134.4(4) 3_454 1_455
O2 Ga3 O3 117.4(5) 5_455 1_455
O3 Ga3 O3 61.2(4) 2_454 1_455
O3 Ga3 O3 46.3(2) 4_455 1_455
O1 Ga3 O3 143.8(2) 1_554 1_455
O1 Ga3 O3 107.4(3) 2_455 1_455
O3 Ga3 O3 86.6(6) 3_455 6_454
O3 Ga3 O3 43.3(3) 5_454 6_454
O2 Ga3 O3 117.4(5) 3_454 6_454
O2 Ga3 O3 134.4(4) 5_455 6_454
O3 Ga3 O3 46.3(2) 2_454 6_454
O3 Ga3 O3 61.2(4) 4_455 6_454
O1 Ga3 O3 107.4(3) 1_554 6_454
O1 Ga3 O3 143.8(2) 2_455 6_454
O3 Ga3 O3 45.3(4) 1_455 6_454
O3 Ga3 O3 117.5(6) 3_455 3_454
O3 Ga3 O3 51.0(5) 5_454 3_454
O2 Ga3 O3 57.8(5) 3_454 3_454
O2 Ga3 O3 141.2(5) 5_455 3_454
O3 Ga3 O3 41.1(4) 2_454 3_454
O3 Ga3 O3 120.3(3) 4_455 3_454
O1 Ga3 O3 81.6(4) 1_554 3_454
O1 Ga3 O3 112.5(3) 2_455 3_454
O3 Ga3 O3 97.2(2) 1_455 3_454
O3 Ga3 O3 60.8(3) 6_454 3_454
O3 Ga3 O3 51.0(5) 3_455 5_455
O3 Ga3 O3 117.5(6) 5_454 5_455
O2 Ga3 O3 141.2(5) 3_454 5_455
O2 Ga3 O3 57.8(5) 5_455 5_455
O3 Ga3 O3 120.3(3) 2_454 5_455
O3 Ga3 O3 41.1(4) 4_455 5_455
O1 Ga3 O3 112.5(3) 1_554 5_455
O1 Ga3 O3 81.6(4) 2_455 5_455
O3 Ga3 O3 60.8(3) 1_455 5_455
O3 Ga3 O3 97.2(2) 6_454 5_455
O3 Ga3 O3 157.4(3) 3_454 5_455
Ga2 O1 La 110.8(5) 2_566 .
Ga2 O1 La 110.8(5) 2_566 2_565
La O1 La 108.1(5) . 2_565
Ga2 O1 La 110.8(5) 2_566 4_455
La O1 La 108.1(5) . 4_455
La O1 La 108.1(5) 2_565 4_455
Ga2 O1 O2 146.4(4) 2_566 6
La O1 O2 61.4(4) . 6
La O1 O2 51.4(4) 2_565 6
La O1 O2 102.4(8) 4_455 6
Ga2 O1 O2 146.4(4) 2_566 5_455
La O1 O2 51.4(4) . 5_455
La O1 O2 102.4(8) 2_565 5_455
La O1 O2 61.4(4) 4_455 5_455
O2 O1 O2 57.2(6) 6 5_455
Ga2 O1 O2 146.4(4) 2_566 2_565
La O1 O2 102.4(8) . 2_565
La O1 O2 61.4(4) 2_565 2_565
La O1 O2 51.4(4) 4_455 2_565
O2 O1 O2 57.2(6) 6 2_565
O2 O1 O2 57.2(6) 5_455 2_565
Ga2 O1 O2 31.6(3) 2_566 6_556
La O1 O2 97.4(4) . 6_556
La O1 O2 89.6(4) 2_565 6_556
La O1 O2 141.9(7) 4_455 6_556
O2 O1 O2 114.8(3) 6 6_556
O2 O1 O2 148.69(15) 5_455 6_556
O2 O1 O2 148.69(15) 2_565 6_556
Ga2 O1 O2 31.6(3) 2_566 5_456
La O1 O2 89.6(4) . 5_456
La O1 O2 141.9(7) 2_565 5_456
La O1 O2 97.4(4) 4_455 5_456
O2 O1 O2 148.69(15) 6 5_456
O2 O1 O2 114.8(3) 5_455 5_456
O2 O1 O2 148.69(15) 2_565 5_456
O2 O1 O2 54.0(5) 6_556 5_456
Ga2 O1 O2 31.6(3) 2_566 2_566
La O1 O2 141.9(7) . 2_566
La O1 O2 97.4(4) 2_565 2_566
La O1 O2 89.6(4) 4_455 2_566
O2 O1 O2 148.69(15) 6 2_566
O2 O1 O2 148.69(15) 5_455 2_566
O2 O1 O2 114.8(3) 2_565 2_566
O2 O1 O2 54.0(5) 6_556 2_566
O2 O1 O2 54.0(5) 5_456 2_566
Ga2 O1 O3 84.7(5) 2_566 6
La O1 O3 47.4(2) . 6
La O1 O3 82.3(2) 2_565 6
La O1 O3 155.4(6) 4_455 6
O2 O1 O3 66.1(4) 6 6
O2 O1 O3 95.0(5) 5_455 6
O2 O1 O3 123.3(7) 2_565 6
O2 O1 O3 57.6(4) 6_556 6
O2 O1 O3 86.0(5) 5_456 6
O2 O1 O3 111.6(7) 2_566 6
Ga2 O1 O3 84.7(5) 2_566 5_455
La O1 O3 82.3(2) . 5_455
La O1 O3 155.4(6) 2_565 5_455
La O1 O3 47.4(2) 4_455 5_455
O2 O1 O3 123.3(7) 6 5_455
O2 O1 O3 66.1(4) 5_455 5_455
O2 O1 O3 95.0(5) 2_565 5_455
O2 O1 O3 111.6(7) 6_556 5_455
O2 O1 O3 57.6(4) 5_456 5_455
O2 O1 O3 86.0(5) 2_566 5_455
O3 O1 O3 119.15(16) 6 5_455
Ga2 O1 O3 84.7(5) 2_566 2_565
La O1 O3 155.4(6) . 2_565
La O1 O3 47.4(2) 2_565 2_565
La O1 O3 82.3(2) 4_455 2_565
O2 O1 O3 95.0(5) 6 2_565
O2 O1 O3 123.3(7) 5_455 2_565
O2 O1 O3 66.1(4) 2_565 2_565
O2 O1 O3 86.0(5) 6_556 2_565
O2 O1 O3 111.6(7) 5_456 2_565
O2 O1 O3 57.6(4) 2_566 2_565
O3 O1 O3 119.15(16) 6 2_565
O3 O1 O3 119.15(16) 5_455 2_565
Ga2 O1 Ga2 180.0 2_566 2_565
La O1 Ga2 69.2(5) . 2_565
La O1 Ga2 69.2(5) 2_565 2_565
La O1 Ga2 69.2(5) 4_455 2_565
O2 O1 Ga2 33.6(4) 6 2_565
O2 O1 Ga2 33.6(4) 5_455 2_565
O2 O1 Ga2 33.6(4) 2_565 2_565
O2 O1 Ga2 148.4(3) 6_556 2_565
O2 O1 Ga2 148.4(3) 5_456 2_565
O2 O1 Ga2 148.4(3) 2_566 2_565
O3 O1 Ga2 95.3(5) 6 2_565
O3 O1 Ga2 95.3(5) 5_455 2_565
O3 O1 Ga2 95.3(5) 2_565 2_565
Ga2 O1 O2 80.3(5) 2_566 3_455
La O1 O2 42.7(2) . 3_455
La O1 O2 149.4(4) 2_565 3_455
La O1 O2 93.12(19) 4_455 3_455
O2 O1 O2 103.4(4) 6 3_455
O2 O1 O2 68.2(5) 5_455 3_455
O2 O1 O2 124.1(5) 2_565 3_455
O2 O1 O2 86.7(4) 6_556 3_455
O2 O1 O2 51.1(5) 5_456 3_455
O2 O1 O2 104.8(6) 2_566 3_455
O3 O1 O2 70.1(3) 6 3_455
O3 O1 O2 49.1(3) 5_455 3_455
O3 O1 O2 161.6(7) 2_565 3_455
Ga2 O1 O2 99.7(5) 2_565 3_455
Ga2 O1 O2 80.3(5) 2_566 4
La O1 O2 93.12(19) . 4
La O1 O2 42.7(2) 2_565 4
La O1 O2 149.4(4) 4_455 4
O2 O1 O2 68.2(5) 6 4
O2 O1 O2 124.1(5) 5_455 4
O2 O1 O2 103.4(4) 2_565 4
O2 O1 O2 51.1(5) 6_556 4
O2 O1 O2 104.8(6) 5_456 4
O2 O1 O2 86.7(4) 2_566 4
O3 O1 O2 49.1(3) 6 4
O3 O1 O2 161.6(7) 5_455 4
O3 O1 O2 70.1(3) 2_565 4
Ga2 O1 O2 99.7(5) 2_565 4
O2 O1 O2 117.2(3) 3_455 4
Ga2 O1 O2 80.3(5) 2_566 1_565
La O1 O2 149.4(4) . 1_565
La O1 O2 93.12(19) 2_565 1_565
La O1 O2 42.7(2) 4_455 1_565
O2 O1 O2 124.1(5) 6 1_565
O2 O1 O2 103.4(4) 5_455 1_565
O2 O1 O2 68.2(5) 2_565 1_565
O2 O1 O2 104.8(6) 6_556 1_565
O2 O1 O2 86.7(4) 5_456 1_565
O2 O1 O2 51.1(5) 2_566 1_565
O3 O1 O2 161.6(7) 6 1_565
O3 O1 O2 70.1(3) 5_455 1_565
O3 O1 O2 49.1(3) 2_565 1_565
Ga2 O1 O2 99.7(5) 2_565 1_565
O2 O1 O2 117.2(3) 3_455 1_565
O2 O1 O2 117.2(3) 4 1_565
Ga2 O1 Ga3 63.0(3) 2_566 2_565
La O1 Ga3 77.66(11) . 2_565
La O1 Ga3 72.86(11) 2_565 2_565
La O1 Ga3 173.1(7) 4_455 2_565
O2 O1 Ga3 83.6(3) 6 2_565
O2 O1 Ga3 125.4(3) 5_455 2_565
O2 O1 Ga3 131.9(4) 2_565 2_565
O2 O1 Ga3 31.6(3) 6_556 2_565
O2 O1 Ga3 78.7(5) 5_456 2_565
O2 O1 Ga3 83.6(5) 2_566 2_565
O3 O1 Ga3 30.8(2) 6 2_565
O3 O1 Ga3 131.7(6) 5_455 2_565
O3 O1 Ga3 93.9(3) 2_565 2_565
Ga2 O1 Ga3 117.0(3) 2_565 2_565
O2 O1 Ga3 88.7(3) 3_455 2_565
O2 O1 Ga3 30.4(2) 4 2_565
O2 O1 Ga3 131.0(6) 1_565 2_565
Ga2 O1 Ga3 63.0(3) 2_566 1_556
La O1 Ga3 72.86(11) . 1_556
La O1 Ga3 173.1(7) 2_565 1_556
La O1 Ga3 77.66(11) 4_455 1_556
O2 O1 Ga3 131.9(4) 6 1_556
O2 O1 Ga3 83.6(3) 5_455 1_556
O2 O1 Ga3 125.4(3) 2_565 1_556
O2 O1 Ga3 83.6(5) 6_556 1_556
O2 O1 Ga3 31.6(3) 5_456 1_556
O2 O1 Ga3 78.7(5) 2_566 1_556
O3 O1 Ga3 93.9(3) 6 1_556
O3 O1 Ga3 30.8(2) 5_455 1_556
O3 O1 Ga3 131.7(6) 2_565 1_556
Ga2 O1 Ga3 117.0(3) 2_565 1_556
O2 O1 Ga3 30.4(2) 3_455 1_556
O2 O1 Ga3 131.0(6) 4 1_556
O2 O1 Ga3 88.7(3) 1_565 1_556
Ga3 O1 Ga3 101.0(4) 2_565 1_556
Ga2 O1 Ga3 63.0(3) 2_566 4_456
La O1 Ga3 173.1(7) . 4_456
La O1 Ga3 77.66(11) 2_565 4_456
La O1 Ga3 72.86(11) 4_455 4_456
O2 O1 Ga3 125.4(3) 6 4_456
O2 O1 Ga3 131.9(4) 5_455 4_456
O2 O1 Ga3 83.6(3) 2_565 4_456
O2 O1 Ga3 78.7(5) 6_556 4_456
O2 O1 Ga3 83.6(5) 5_456 4_456
O2 O1 Ga3 31.6(3) 2_566 4_456
O3 O1 Ga3 131.7(6) 6 4_456
O3 O1 Ga3 93.9(3) 5_455 4_456
O3 O1 Ga3 30.8(2) 2_565 4_456
Ga2 O1 Ga3 117.0(3) 2_565 4_456
O2 O1 Ga3 131.0(6) 3_455 4_456
O2 O1 Ga3 88.7(3) 4 4_456
O2 O1 Ga3 30.4(2) 1_565 4_456
Ga3 O1 Ga3 101.0(4) 2_565 4_456
Ga3 O1 Ga3 101.0(4) 1_556 4_456
Ga2 O1 O3 119.0(3) 2_566 .
La O1 O3 26.73(19) . .
La O1 O3 81.6(4) 2_565 .
La O1 O3 121.5(6) 4_455 .
O2 O1 O3 39.8(3) 6 .
O2 O1 O3 60.2(3) 5_455 .
O2 O1 O3 93.1(6) 2_565 .
O2 O1 O3 93.8(3) 6_556 .
O2 O1 O3 108.9(3) 5_456 .
O2 O1 O3 147.8(5) 2_566 .
O3 O1 O3 36.2(4) 6 .
O3 O1 O3 108.2(4) 5_455 .
O3 O1 O3 129.0(5) 2_565 .
Ga2 O1 O3 61.0(3) 2_565 .
O2 O1 O3 68.3(3) 3_455 .
O2 O1 O3 70.7(3) 4 .
O2 O1 O3 160.7(7) 1_565 .
Ga3 O1 O3 65.30(16) 2_565 .
Ga3 O1 O3 98.70(16) 1_556 .
Ga3 O1 O3 157.94(15) 4_456 .
Ga2 O1 O3 119.0(3) 2_566 4_455
La O1 O3 81.6(4) . 4_455
La O1 O3 121.5(6) 2_565 4_455
La O1 O3 26.73(19) 4_455 4_455
O2 O1 O3 93.1(6) 6 4_455
O2 O1 O3 39.8(3) 5_455 4_455
O2 O1 O3 60.2(3) 2_565 4_455
O2 O1 O3 147.8(5) 6_556 4_455
O2 O1 O3 93.8(3) 5_456 4_455
O2 O1 O3 108.9(3) 2_566 4_455
O3 O1 O3 129.0(5) 6 4_455
O3 O1 O3 36.2(4) 5_455 4_455
O3 O1 O3 108.2(4) 2_565 4_455
Ga2 O1 O3 61.0(3) 2_565 4_455
O2 O1 O3 70.7(3) 3_455 4_455
O2 O1 O3 160.7(7) 4 4_455
O2 O1 O3 68.3(3) 1_565 4_455
Ga3 O1 O3 157.94(15) 2_565 4_455
Ga3 O1 O3 65.30(16) 1_556 4_455
Ga3 O1 O3 98.70(16) 4_456 4_455
O3 O1 O3 98.5(4) . 4_455
Ga2 O1 O3 119.0(3) 2_566 3_565
La O1 O3 121.5(6) . 3_565
La O1 O3 26.73(19) 2_565 3_565
La O1 O3 81.6(4) 4_455 3_565
O2 O1 O3 60.2(3) 6 3_565
O2 O1 O3 93.1(6) 5_455 3_565
O2 O1 O3 39.8(3) 2_565 3_565
O2 O1 O3 108.9(3) 6_556 3_565
O2 O1 O3 147.8(5) 5_456 3_565
O2 O1 O3 93.8(3) 2_566 3_565
O3 O1 O3 108.2(3) 6 3_565
O3 O1 O3 129.0(5) 5_455 3_565
O3 O1 O3 36.2(4) 2_565 3_565
Ga2 O1 O3 61.0(3) 2_565 3_565
O2 O1 O3 160.7(7) 3_455 3_565
O2 O1 O3 68.3(3) 4 3_565
O2 O1 O3 70.7(3) 1_565 3_565
Ga3 O1 O3 98.70(16) 2_565 3_565
Ga3 O1 O3 157.94(15) 1_556 3_565
Ga3 O1 O3 65.30(16) 4_456 3_565
O3 O1 O3 98.5(4) . 3_565
O3 O1 O3 98.5(4) 4_455 3_565
Ga2 O1 Ga3 137.5(2) 2_566 2_564
La O1 Ga3 56.9(3) . 2_564
La O1 Ga3 52.6(3) 2_565 2_564
La O1 Ga3 111.6(7) 4_455 2_564
O2 O1 Ga3 9.7(2) 6 2_564
O2 O1 Ga3 62.5(4) 5_455 2_564
O2 O1 Ga3 66.8(4) 2_565 2_564
O2 O1 Ga3 106.0(2) 6_556 2_564
O2 O1 Ga3 140.5(2) 5_456 2_564
O2 O1 Ga3 146.7(2) 2_566 2_564
O3 O1 Ga3 56.5(3) 6 2_564
O3 O1 Ga3 127.2(5) 5_455 2_564
O3 O1 Ga3 98.7(4) 2_565 2_564
Ga2 O1 Ga3 42.5(2) 2_565 2_564
O2 O1 Ga3 99.5(4) 3_455 2_564
O2 O1 Ga3 61.8(3) 4 2_564
O2 O1 Ga3 132.8(5) 1_565 2_564
Ga3 O1 Ga3 74.51(14) 2_565 2_564
Ga3 O1 Ga3 129.5(2) 1_556 2_564
Ga3 O1 Ga3 129.5(2) 4_456 2_564
O3 O1 Ga3 32.8(2) . 2_564
O3 O1 Ga3 100.3(5) 4_455 2_564
O3 O1 Ga3 65.8(3) 3_565 2_564
Ga2 O1 Ga3 137.5(2) 2_566 .
La O1 Ga3 52.6(3) . .
La O1 Ga3 111.6(7) 2_565 .
La O1 Ga3 56.9(3) 4_455 .
O2 O1 Ga3 66.8(4) 6 .
O2 O1 Ga3 9.7(2) 5_455 .
O2 O1 Ga3 62.5(4) 2_565 .
O2 O1 Ga3 146.7(2) 6_556 .
O2 O1 Ga3 106.0(2) 5_456 .
O2 O1 Ga3 140.5(2) 2_566 .
O3 O1 Ga3 98.7(4) 6 .
O3 O1 Ga3 56.5(3) 5_455 .
O3 O1 Ga3 127.2(5) 2_565 .
Ga2 O1 Ga3 42.5(2) 2_565 .
O2 O1 Ga3 61.8(3) 3_455 .
O2 O1 Ga3 132.8(5) 4 .
O2 O1 Ga3 99.5(4) 1_565 .
Ga3 O1 Ga3 129.5(2) 2_565 .
Ga3 O1 Ga3 74.51(14) 1_556 .
Ga3 O1 Ga3 129.5(2) 4_456 .
O3 O1 Ga3 65.8(3) . .
O3 O1 Ga3 32.8(2) 4_455 .
O3 O1 Ga3 100.3(5) 3_565 .
Ga3 O1 Ga3 71.6(3) 2_564 .
Ga2 O1 Ga3 137.5(2) 2_566 4_455
La O1 Ga3 111.6(7) . 4_455
La O1 Ga3 56.9(3) 2_565 4_455
La O1 Ga3 52.6(3) 4_455 4_455
O2 O1 Ga3 62.5(4) 6 4_455
O2 O1 Ga3 66.8(4) 5_455 4_455
O2 O1 Ga3 9.7(2) 2_565 4_455
O2 O1 Ga3 140.5(2) 6_556 4_455
O2 O1 Ga3 146.7(2) 5_456 4_455
O2 O1 Ga3 106.0(2) 2_566 4_455
O3 O1 Ga3 127.2(5) 6 4_455
O3 O1 Ga3 98.7(4) 5_455 4_455
O3 O1 Ga3 56.5(3) 2_565 4_455
Ga2 O1 Ga3 42.5(2) 2_565 4_455
O2 O1 Ga3 132.8(5) 3_455 4_455
O2 O1 Ga3 99.5(4) 4 4_455
O2 O1 Ga3 61.8(3) 1_565 4_455
Ga3 O1 Ga3 129.5(2) 2_565 4_455
Ga3 O1 Ga3 129.5(2) 1_556 4_455
Ga3 O1 Ga3 74.51(14) 4_456 4_455
O3 O1 Ga3 100.3(5) . 4_455
O3 O1 Ga3 65.8(3) 4_455 4_455
O3 O1 Ga3 32.8(2) 3_565 4_455
Ga3 O1 Ga3 71.6(3) 2_564 4_455
Ga3 O1 Ga3 71.6(3) . 4_455
Ga2 O1 Nb 101.1(3) 2_566 .
La O1 Nb 44.64(5) . .
La O1 Nb 71.73(13) 2_565 .
La O1 Nb 145.0(7) 4_455 .
O2 O1 Nb 48.9(2) 6 .
O2 O1 Nb 84.2(3) 5_455 .
O2 O1 Nb 106.1(5) 2_565 .
O2 O1 Nb 72.1(2) 6_556 .
O2 O1 Nb 102.7(3) 5_456 .
O2 O1 Nb 125.4(5) 2_566 .
O3 O1 Nb 17.2(3) 6 .
O3 O1 Nb 125.5(2) 5_455 .
O3 O1 Nb 115.3(2) 2_565 .
Ga2 O1 Nb 78.9(3) 2_565 .
O2 O1 Nb 78.20(17) 3_455 .
O2 O1 Nb 48.60(19) 4 .
O2 O1 Nb 164.37(18) 1_565 .
Ga3 O1 Nb 41.83(5) 2_565 .
Ga3 O1 Nb 105.86(9) 1_556 .
Ga3 O1 Nb 137.3(2) 4_456 .
O3 O1 Nb 24.11(14) . .
O3 O1 Nb 122.5(4) 4_455 .
O3 O1 Nb 95.4(2) 3_565 .
Ga3 O1 Nb 39.33(9) 2_564 .
Ga3 O1 Nb 89.9(3) . .
Ga3 O1 Nb 110.4(4) 4_455 .
Ga2 O1 Ga1 101.1(3) 2_566 .
La O1 Ga1 44.64(5) . .
La O1 Ga1 71.73(13) 2_565 .
La O1 Ga1 145.0(7) 4_455 .
O2 O1 Ga1 48.9(2) 6 .
O2 O1 Ga1 84.2(3) 5_455 .
O2 O1 Ga1 106.1(5) 2_565 .
O2 O1 Ga1 72.1(2) 6_556 .
O2 O1 Ga1 102.7(3) 5_456 .
O2 O1 Ga1 125.4(5) 2_566 .
O3 O1 Ga1 17.2(3) 6 .
O3 O1 Ga1 125.5(2) 5_455 .
O3 O1 Ga1 115.3(2) 2_565 .
Ga2 O1 Ga1 78.9(3) 2_565 .
O2 O1 Ga1 78.20(17) 3_455 .
O2 O1 Ga1 48.60(19) 4 .
O2 O1 Ga1 164.37(18) 1_565 .
Ga3 O1 Ga1 41.83(5) 2_565 .
Ga3 O1 Ga1 105.86(9) 1_556 .
Ga3 O1 Ga1 137.3(2) 4_456 .
O3 O1 Ga1 24.11(14) . .
O3 O1 Ga1 122.5(4) 4_455 .
O3 O1 Ga1 95.4(2) 3_565 .
Ga3 O1 Ga1 39.33(9) 2_564 .
Ga3 O1 Ga1 89.9(3) . .
Ga3 O1 Ga1 110.4(4) 4_455 .
Nb O1 Ga1 0.0 . .
Ga2 O1 Nb 101.1(3) 2_566 1_455
La O1 Nb 71.73(13) . 1_455
La O1 Nb 145.0(7) 2_565 1_455
La O1 Nb 44.64(5) 4_455 1_455
O2 O1 Nb 106.1(5) 6 1_455
O2 O1 Nb 48.9(2) 5_455 1_455
O2 O1 Nb 84.2(3) 2_565 1_455
O2 O1 Nb 125.4(5) 6_556 1_455
O2 O1 Nb 72.1(2) 5_456 1_455
O2 O1 Nb 102.7(3) 2_566 1_455
O3 O1 Nb 115.3(2) 6 1_455
O3 O1 Nb 17.2(3) 5_455 1_455
O3 O1 Nb 125.5(2) 2_565 1_455
Ga2 O1 Nb 78.9(3) 2_565 1_455
O2 O1 Nb 48.60(19) 3_455 1_455
O2 O1 Nb 164.37(17) 4 1_455
O2 O1 Nb 78.20(18) 1_565 1_455
Ga3 O1 Nb 137.3(2) 2_565 1_455
Ga3 O1 Nb 41.83(5) 1_556 1_455
Ga3 O1 Nb 105.86(9) 4_456 1_455
O3 O1 Nb 95.4(2) . 1_455
O3 O1 Nb 24.11(14) 4_455 1_455
O3 O1 Nb 122.5(4) 3_565 1_455
Ga3 O1 Nb 110.4(4) 2_564 1_455
Ga3 O1 Nb 39.33(9) . 1_455
Ga3 O1 Nb 89.9(3) 4_455 1_455
Nb O1 Nb 116.38(18) . 1_455
Ga1 O1 Nb 116.38(18) . 1_455
Ga2 O1 Ga1 101.1(3) 2_566 1_455
La O1 Ga1 71.73(13) . 1_455
La O1 Ga1 145.0(7) 2_565 1_455
La O1 Ga1 44.64(5) 4_455 1_455
O2 O1 Ga1 106.1(5) 6 1_455
O2 O1 Ga1 48.9(2) 5_455 1_455
O2 O1 Ga1 84.2(3) 2_565 1_455
O2 O1 Ga1 125.4(5) 6_556 1_455
O2 O1 Ga1 72.1(2) 5_456 1_455
O2 O1 Ga1 102.7(3) 2_566 1_455
O3 O1 Ga1 115.3(2) 6 1_455
O3 O1 Ga1 17.2(3) 5_455 1_455
O3 O1 Ga1 125.5(2) 2_565 1_455
Ga2 O1 Ga1 78.9(3) 2_565 1_455
O2 O1 Ga1 48.60(19) 3_455 1_455
O2 O1 Ga1 164.37(17) 4 1_455
O2 O1 Ga1 78.20(18) 1_565 1_455
Ga3 O1 Ga1 137.3(2) 2_565 1_455
Ga3 O1 Ga1 41.83(5) 1_556 1_455
Ga3 O1 Ga1 105.86(9) 4_456 1_455
O3 O1 Ga1 95.4(2) . 1_455
O3 O1 Ga1 24.11(14) 4_455 1_455
O3 O1 Ga1 122.5(4) 3_565 1_455
Ga3 O1 Ga1 110.4(4) 2_564 1_455
Ga3 O1 Ga1 39.33(9) . 1_455
Ga3 O1 Ga1 89.9(3) 4_455 1_455
Nb O1 Ga1 116.38(18) . 1_455
Ga1 O1 Ga1 116.38(18) . 1_455
Nb O1 Ga1 0.0 1_455 1_455
Ga2 O1 Nb 101.1(3) 2_566 1_565
La O1 Nb 145.0(7) . 1_565
La O1 Nb 44.64(5) 2_565 1_565
La O1 Nb 71.73(13) 4_455 1_565
O2 O1 Nb 84.2(3) 6 1_565
O2 O1 Nb 106.1(5) 5_455 1_565
O2 O1 Nb 48.9(2) 2_565 1_565
O2 O1 Nb 102.7(3) 6_556 1_565
O2 O1 Nb 125.4(5) 5_456 1_565
O2 O1 Nb 72.1(2) 2_566 1_565
O3 O1 Nb 125.5(2) 6 1_565
O3 O1 Nb 115.3(2) 5_455 1_565
O3 O1 Nb 17.2(3) 2_565 1_565
Ga2 O1 Nb 78.9(3) 2_565 1_565
O2 O1 Nb 164.37(17) 3_455 1_565
O2 O1 Nb 78.20(17) 4 1_565
O2 O1 Nb 48.60(19) 1_565 1_565
Ga3 O1 Nb 105.86(9) 2_565 1_565
Ga3 O1 Nb 137.3(2) 1_556 1_565
Ga3 O1 Nb 41.83(5) 4_456 1_565
O3 O1 Nb 122.5(4) . 1_565
O3 O1 Nb 95.4(2) 4_455 1_565
O3 O1 Nb 24.11(14) 3_565 1_565
Ga3 O1 Nb 89.9(3) 2_564 1_565
Ga3 O1 Nb 110.4(4) . 1_565
Ga3 O1 Nb 39.33(9) 4_455 1_565
Nb O1 Nb 116.38(18) . 1_565
Ga1 O1 Nb 116.38(18) . 1_565
Nb O1 Nb 116.38(18) 1_455 1_565
Ga1 O1 Nb 116.38(18) 1_455 1_565
Ga2 O1 Ga1 101.1(3) 2_566 1_565
La O1 Ga1 145.0(7) . 1_565
La O1 Ga1 44.64(5) 2_565 1_565
La O1 Ga1 71.73(13) 4_455 1_565
O2 O1 Ga1 84.2(3) 6 1_565
O2 O1 Ga1 106.1(5) 5_455 1_565
O2 O1 Ga1 48.9(2) 2_565 1_565
O2 O1 Ga1 102.7(3) 6_556 1_565
O2 O1 Ga1 125.4(5) 5_456 1_565
O2 O1 Ga1 72.1(2) 2_566 1_565
O3 O1 Ga1 125.5(2) 6 1_565
O3 O1 Ga1 115.3(2) 5_455 1_565
O3 O1 Ga1 17.2(3) 2_565 1_565
Ga2 O1 Ga1 78.9(3) 2_565 1_565
O2 O1 Ga1 164.37(17) 3_455 1_565
O2 O1 Ga1 78.20(17) 4 1_565
O2 O1 Ga1 48.60(19) 1_565 1_565
Ga3 O1 Ga1 105.86(9) 2_565 1_565
Ga3 O1 Ga1 137.3(2) 1_556 1_565
Ga3 O1 Ga1 41.83(5) 4_456 1_565
O3 O1 Ga1 122.5(4) . 1_565
O3 O1 Ga1 95.4(2) 4_455 1_565
O3 O1 Ga1 24.11(14) 3_565 1_565
Ga3 O1 Ga1 89.9(3) 2_564 1_565
Ga3 O1 Ga1 110.4(4) . 1_565
Ga3 O1 Ga1 39.33(9) 4_455 1_565
Nb O1 Ga1 116.38(18) . 1_565
Ga1 O1 Ga1 116.38(18) . 1_565
Nb O1 Ga1 116.38(18) 1_455 1_565
Ga1 O1 Ga1 116.38(18) 1_455 1_565
Nb O1 Ga1 0.0 1_565 1_565
Ga2 O1 O2 82.9(3) 2_566 .
La O1 O2 28.4(3) . .
La O1 O2 115.73(17) 2_565 .
La O1 O2 125.3(2) 4_455 .
O2 O1 O2 82.2(4) 6 .
O2 O1 O2 78.2(4) 5_455 .
O2 O1 O2 130.6(6) 2_565 .
O2 O1 O2 70.5(4) 6_556 .
O2 O1 O2 66.6(3) 5_456 .
O2 O1 O2 114.4(5) 2_566 .
O3 O1 O2 35.0(2) 6 .
O3 O1 O2 84.2(3) 5_455 .
O3 O1 O2 152.3(4) 2_565 .
Ga2 O1 O2 97.1(3) 2_565 .
O2 O1 O2 35.2(3) 3_455 .
O2 O1 O2 83.4(3) 4 .
O2 O1 O2 150.3(5) 1_565 .
Ga3 O1 O2 58.41(17) 2_565 .
Ga3 O1 O2 61.80(16) 1_556 .
Ga3 O1 O2 145.8(7) 4_456 .
O3 O1 O2 42.4(3) . .
O3 O1 O2 99.5(2) 4_455 .
O3 O1 O2 138.9(3) 3_565 .
Ga3 O1 O2 74.8(2) 2_564 .
Ga3 O1 O2 77.1(2) . .
Ga3 O1 O2 139.6(5) 4_455 .
Nb O1 O2 44.10(14) . .
Ga1 O1 O2 44.10(14) . .
Nb O1 O2 81.32(13) 1_455 .
Ga1 O1 O2 81.32(13) 1_455 .
Nb O1 O2 160.20(16) 1_565 .
Ga1 O1 O2 160.20(16) 1_565 .
Ga2 O1 O2 82.9(3) 2_566 3_565
La O1 O2 125.3(2) . 3_565
La O1 O2 28.4(3) 2_565 3_565
La O1 O2 115.72(17) 4_455 3_565
O2 O1 O2 78.2(4) 6 3_565
O2 O1 O2 130.6(6) 5_455 3_565
O2 O1 O2 82.2(4) 2_565 3_565
O2 O1 O2 66.6(3) 6_556 3_565
O2 O1 O2 114.4(5) 5_456 3_565
O2 O1 O2 70.5(4) 2_566 3_565
O3 O1 O2 84.2(3) 6 3_565
O3 O1 O2 152.3(4) 5_455 3_565
O3 O1 O2 35.0(2) 2_565 3_565
Ga2 O1 O2 97.1(3) 2_565 3_565
O2 O1 O2 150.3(5) 3_455 3_565
O2 O1 O2 35.2(3) 4 3_565
O2 O1 O2 83.4(3) 1_565 3_565
Ga3 O1 O2 61.80(16) 2_565 3_565
Ga3 O1 O2 145.8(6) 1_556 3_565
Ga3 O1 O2 58.41(17) 4_456 3_565
O3 O1 O2 99.5(2) . 3_565
O3 O1 O2 138.9(3) 4_455 3_565
O3 O1 O2 42.4(3) 3_565 3_565
Ga3 O1 O2 77.1(2) 2_564 3_565
Ga3 O1 O2 139.6(5) . 3_565
Ga3 O1 O2 74.8(2) 4_455 3_565
Nb O1 O2 81.32(13) . 3_565
Ga1 O1 O2 81.32(13) . 3_565
Nb O1 O2 160.20(16) 1_455 3_565
Ga1 O1 O2 160.20(16) 1_455 3_565
Nb O1 O2 44.10(14) 1_565 3_565
Ga1 O1 O2 44.10(14) 1_565 3_565
O2 O1 O2 118.48(15) . 3_565
Ga2 O1 O2 82.9(3) 2_566 4_455
La O1 O2 115.73(17) . 4_455
La O1 O2 125.3(2) 2_565 4_455
La O1 O2 28.4(3) 4_455 4_455
O2 O1 O2 130.6(6) 6 4_455
O2 O1 O2 82.2(4) 5_455 4_455
O2 O1 O2 78.2(4) 2_565 4_455
O2 O1 O2 114.4(5) 6_556 4_455
O2 O1 O2 70.5(4) 5_456 4_455
O2 O1 O2 66.6(3) 2_566 4_455
O3 O1 O2 152.3(4) 6 4_455
O3 O1 O2 35.0(2) 5_455 4_455
O3 O1 O2 84.2(3) 2_565 4_455
Ga2 O1 O2 97.1(3) 2_565 4_455
O2 O1 O2 83.4(3) 3_455 4_455
O2 O1 O2 150.3(5) 4 4_455
O2 O1 O2 35.2(3) 1_565 4_455
Ga3 O1 O2 145.8(7) 2_565 4_455
Ga3 O1 O2 58.41(17) 1_556 4_455
Ga3 O1 O2 61.80(17) 4_456 4_455
O3 O1 O2 138.9(3) . 4_455
O3 O1 O2 42.4(3) 4_455 4_455
O3 O1 O2 99.5(2) 3_565 4_455
Ga3 O1 O2 139.6(5) 2_564 4_455
Ga3 O1 O2 74.8(2) . 4_455
Ga3 O1 O2 77.1(2) 4_455 4_455
Nb O1 O2 160.20(16) . 4_455
Ga1 O1 O2 160.20(16) . 4_455
Nb O1 O2 44.10(14) 1_455 4_455
Ga1 O1 O2 44.10(14) 1_455 4_455
Nb O1 O2 81.32(13) 1_565 4_455
Ga1 O1 O2 81.32(13) 1_565 4_455
O2 O1 O2 118.48(15) . 4_455
O2 O1 O2 118.48(15) 3_565 4_455
Ga2 O1 La 30.26(14) 2_566 1_556
La O1 La 80.6(3) . 1_556
La O1 La 122.9(5) 2_565 1_556
La O1 La 122.9(5) 4_455 1_556
O2 O1 La 128.4(2) 6 1_556
O2 O1 La 122.9(3) 5_455 1_556
O2 O1 La 174.1(3) 2_565 1_556
O2 O1 La 34.0(3) 6_556 1_556
O2 O1 La 25.5(2) 5_456 1_556
O2 O1 La 61.7(4) 2_566 1_556
O3 O1 La 62.4(4) 6 1_556
O3 O1 La 80.2(4) 5_455 1_556
O3 O1 La 113.1(6) 2_565 1_556
Ga2 O1 La 149.75(14) 2_565 1_556
O2 O1 La 55.0(4) 3_455 1_556
O2 O1 La 81.5(4) 4 1_556
O2 O1 La 106.6(6) 1_565 1_556
Ga3 O1 La 53.5(3) 2_565 1_556
Ga3 O1 La 50.3(2) 1_556 1_556
Ga3 O1 La 93.2(5) 4_456 1_556
O3 O1 La 91.7(2) . 1_556
O3 O1 La 115.6(2) 4_455 1_556
O3 O1 La 142.5(4) 3_565 1_556
Ga3 O1 La 118.91(7) 2_564 1_556
Ga3 O1 La 116.77(6) . 1_556
Ga3 O1 La 167.6(3) 4_455 1_556
Nb O1 La 79.62(16) . 1_556
Ga1 O1 La 79.62(16) . 1_556
Nb O1 La 92.0(2) 1_455 1_556
Ga1 O1 La 92.0(2) 1_455 1_556
Nb O1 La 130.2(4) 1_565 1_556
Ga1 O1 La 130.2(4) 1_565 1_556
O2 O1 La 52.8(2) . 1_556
O2 O1 La 100.4(4) 3_565 1_556
O2 O1 La 95.9(4) 4_455 1_556
Ga2 O1 La 30.26(14) 2_566 2_566
La O1 La 122.9(5) . 2_566
La O1 La 80.6(3) 2_565 2_566
La O1 La 122.9(5) 4_455 2_566
O2 O1 La 122.9(3) 6 2_566
O2 O1 La 174.1(3) 5_455 2_566
O2 O1 La 128.4(2) 2_565 2_566
O2 O1 La 25.5(2) 6_556 2_566
O2 O1 La 61.7(4) 5_456 2_566
O2 O1 La 34.0(3) 2_566 2_566
O3 O1 La 80.2(4) 6 2_566
O3 O1 La 113.1(6) 5_455 2_566
O3 O1 La 62.4(4) 2_565 2_566
Ga2 O1 La 149.74(14) 2_565 2_566
O2 O1 La 106.6(6) 3_455 2_566
O2 O1 La 55.0(4) 4 2_566
O2 O1 La 81.5(4) 1_565 2_566
Ga3 O1 La 50.3(2) 2_565 2_566
Ga3 O1 La 93.2(5) 1_556 2_566
Ga3 O1 La 53.5(3) 4_456 2_566
O3 O1 La 115.6(2) . 2_566
O3 O1 La 142.5(4) 4_455 2_566
O3 O1 La 91.7(2) 3_565 2_566
Ga3 O1 La 116.77(6) 2_564 2_566
Ga3 O1 La 167.6(3) . 2_566
Ga3 O1 La 118.91(7) 4_455 2_566
Nb O1 La 92.0(2) . 2_566
Ga1 O1 La 92.0(2) . 2_566
Nb O1 La 130.2(4) 1_455 2_566
Ga1 O1 La 130.2(4) 1_455 2_566
Nb O1 La 79.62(16) 1_565 2_566
Ga1 O1 La 79.62(16) 1_565 2_566
O2 O1 La 95.9(4) . 2_566
O2 O1 La 52.8(3) 3_565 2_566
O2 O1 La 100.4(4) 4_455 2_566
La O1 La 51.7(2) 1_556 2_566
Ga2 O1 La 30.25(14) 2_566 4_456
La O1 La 122.9(5) . 4_456
La O1 La 122.9(5) 2_565 4_456
La O1 La 80.6(3) 4_455 4_456
O2 O1 La 174.1(3) 6 4_456
O2 O1 La 128.4(2) 5_455 4_456
O2 O1 La 122.9(3) 2_565 4_456
O2 O1 La 61.7(4) 6_556 4_456
O2 O1 La 34.0(3) 5_456 4_456
O2 O1 La 25.5(2) 2_566 4_456
O3 O1 La 113.1(6) 6 4_456
O3 O1 La 62.4(4) 5_455 4_456
O3 O1 La 80.2(4) 2_565 4_456
Ga2 O1 La 149.74(14) 2_565 4_456
O2 O1 La 81.5(4) 3_455 4_456
O2 O1 La 106.6(6) 4 4_456
O2 O1 La 55.0(4) 1_565 4_456
Ga3 O1 La 93.2(5) 2_565 4_456
Ga3 O1 La 53.5(3) 1_556 4_456
Ga3 O1 La 50.3(2) 4_456 4_456
O3 O1 La 142.5(4) . 4_456
O3 O1 La 91.7(2) 4_455 4_456
O3 O1 La 115.6(2) 3_565 4_456
Ga3 O1 La 167.6(3) 2_564 4_456
Ga3 O1 La 118.91(7) . 4_456
Ga3 O1 La 116.77(6) 4_455 4_456
Nb O1 La 130.2(4) . 4_456
Ga1 O1 La 130.2(4) . 4_456
Nb O1 La 79.62(16) 1_455 4_456
Ga1 O1 La 79.62(16) 1_455 4_456
Nb O1 La 92.0(2) 1_565 4_456
Ga1 O1 La 92.0(2) 1_565 4_456
O2 O1 La 100.4(4) . 4_456
O2 O1 La 95.9(4) 3_565 4_456
O2 O1 La 52.8(3) 4_455 4_456
La O1 La 51.7(2) 1_556 4_456
La O1 La 51.7(2) 2_566 4_456
Ga2 O1 O3 52.8(2) 2_566 1_556
La O1 O3 63.8(3) . 1_556
La O1 O3 103.8(2) 2_565 1_556
La O1 O3 147.9(4) 4_455 1_556
O2 O1 O3 99.9(3) 6 1_556
O2 O1 O3 114.8(3) 5_455 1_556
O2 O1 O3 157.0(5) 2_565 1_556
O2 O1 O3 34.0(2) 6_556 1_556
O2 O1 O3 53.5(3) 5_456 1_556
O2 O1 O3 83.2(5) 2_566 1_556
O3 O1 O3 33.7(4) 6 1_556
O3 O1 O3 100.8(4) 5_455 1_556
O3 O1 O3 118.5(5) 2_565 1_556
Ga2 O1 O3 127.2(2) 2_565 1_556
O2 O1 O3 59.2(3) 3_455 1_556
O2 O1 O3 61.6(3) 4 1_556
O2 O1 O3 133.1(7) 1_565 1_556
Ga3 O1 O3 31.19(16) 2_565 1_556
Ga3 O1 O3 70.3(3) 1_556 1_556
Ga3 O1 O3 111.7(5) 4_456 1_556
O3 O1 O3 66.15(17) . 1_556
O3 O1 O3 129.89(11) 4_455 1_556
O3 O1 O3 129.89(11) 3_565 1_556
Ga3 O1 O3 90.28(14) 2_564 1_556
Ga3 O1 O3 113.45(13) . 1_556
Ga3 O1 O3 159.0(2) 4_455 1_556
Nb O1 O3 50.96(16) . 1_556
Ga1 O1 O3 50.96(16) . 1_556
Nb O1 O3 106.7(2) 1_455 1_556
Ga1 O1 O3 106.7(2) 1_455 1_556
Nb O1 O3 133.7(3) 1_565 1_556
Ga1 O1 O3 133.7(3) 1_565 1_556
O2 O1 O3 36.6(2) . 1_556
O2 O1 O3 91.2(3) 3_565 1_556
O2 O1 O3 123.8(4) 4_455 1_556
La O1 O3 28.84(17) 1_556 1_556
La O1 O3 59.4(2) 2_566 1_556
La O1 O3 79.6(4) 4_456 1_556
Ga2 O1 O3 52.8(2) 2_566 3_566
La O1 O3 147.9(4) . 3_566
La O1 O3 63.8(3) 2_565 3_566
La O1 O3 103.8(2) 4_455 3_566
O2 O1 O3 114.7(3) 6 3_566
O2 O1 O3 157.0(5) 5_455 3_566
O2 O1 O3 99.9(3) 2_565 3_566
O2 O1 O3 53.5(3) 6_556 3_566
O2 O1 O3 83.2(5) 5_456 3_566
O2 O1 O3 34.0(2) 2_566 3_566
O3 O1 O3 100.8(4) 6 3_566
O3 O1 O3 118.5(5) 5_455 3_566
O3 O1 O3 33.7(4) 2_565 3_566
Ga2 O1 O3 127.2(2) 2_565 3_566
O2 O1 O3 133.1(7) 3_455 3_566
O2 O1 O3 59.2(3) 4 3_566
O2 O1 O3 61.6(3) 1_565 3_566
Ga3 O1 O3 70.3(3) 2_565 3_566
Ga3 O1 O3 111.7(5) 1_556 3_566
Ga3 O1 O3 31.19(16) 4_456 3_566
O3 O1 O3 129.89(11) . 3_566
O3 O1 O3 129.89(11) 4_455 3_566
O3 O1 O3 66.15(17) 3_565 3_566
Ga3 O1 O3 113.45(13) 2_564 3_566
Ga3 O1 O3 159.0(2) . 3_566
Ga3 O1 O3 90.28(14) 4_455 3_566
Nb O1 O3 106.7(2) . 3_566
Ga1 O1 O3 106.7(2) . 3_566
Nb O1 O3 133.7(3) 1_455 3_566
Ga1 O1 O3 133.7(3) 1_455 3_566
Nb O1 O3 50.96(16) 1_565 3_566
Ga1 O1 O3 50.96(16) 1_565 3_566
O2 O1 O3 123.8(4) . 3_566
O2 O1 O3 36.6(2) 3_565 3_566
O2 O1 O3 91.2(3) 4_455 3_566
La O1 O3 79.6(4) 1_556 3_566
La O1 O3 28.84(17) 2_566 3_566
La O1 O3 59.4(3) 4_456 3_566
O3 O1 O3 87.3(4) 1_556 3_566
Ga2 O1 O3 52.8(2) 2_566 4_456
La O1 O3 103.8(2) . 4_456
La O1 O3 147.9(4) 2_565 4_456
La O1 O3 63.8(3) 4_455 4_456
O2 O1 O3 157.0(5) 6 4_456
O2 O1 O3 99.9(3) 5_455 4_456
O2 O1 O3 114.7(3) 2_565 4_456
O2 O1 O3 83.2(5) 6_556 4_456
O2 O1 O3 34.0(2) 5_456 4_456
O2 O1 O3 53.5(3) 2_566 4_456
O3 O1 O3 118.5(5) 6 4_456
O3 O1 O3 33.7(4) 5_455 4_456
O3 O1 O3 100.8(4) 2_565 4_456
Ga2 O1 O3 127.2(2) 2_565 4_456
O2 O1 O3 61.6(3) 3_455 4_456
O2 O1 O3 133.1(7) 4 4_456
O2 O1 O3 59.2(3) 1_565 4_456
Ga3 O1 O3 111.7(5) 2_565 4_456
Ga3 O1 O3 31.19(16) 1_556 4_456
Ga3 O1 O3 70.3(3) 4_456 4_456
O3 O1 O3 129.89(11) . 4_456
O3 O1 O3 66.15(17) 4_455 4_456
O3 O1 O3 129.89(11) 3_565 4_456
Ga3 O1 O3 159.0(2) 2_564 4_456
Ga3 O1 O3 90.28(14) . 4_456
Ga3 O1 O3 113.45(13) 4_455 4_456
Nb O1 O3 133.7(3) . 4_456
Ga1 O1 O3 133.7(3) . 4_456
Nb O1 O3 50.96(16) 1_455 4_456
Ga1 O1 O3 50.96(16) 1_455 4_456
Nb O1 O3 106.7(2) 1_565 4_456
Ga1 O1 O3 106.7(2) 1_565 4_456
O2 O1 O3 91.2(3) . 4_456
O2 O1 O3 123.8(4) 3_565 4_456
O2 O1 O3 36.6(2) 4_455 4_456
La O1 O3 59.4(3) 1_556 4_456
La O1 O3 79.6(4) 2_566 4_456
La O1 O3 28.84(17) 4_456 4_456
O3 O1 O3 87.3(4) 1_556 4_456
O3 O1 O3 87.3(4) 3_566 4_456
Ga2 O1 O3 115.8(3) 2_566 4
La O1 O3 58.8(2) . 4
La O1 O3 50.88(19) 2_565 4
La O1 O3 133.2(7) 4_455 4
O2 O1 O3 30.8(3) 6 4
O2 O1 O3 81.4(4) 5_455 4
O2 O1 O3 85.5(5) 2_565 4
O2 O1 O3 84.2(3) 6_556 4
O2 O1 O3 124.9(3) 5_456 4
O2 O1 O3 129.8(3) 2_566 4
O3 O1 O3 38.9(4) 6 4
O3 O1 O3 140.1(4) 5_455 4
O3 O1 O3 97.6(3) 2_565 4
Ga2 O1 O3 64.2(3) 2_565 4
O2 O1 O3 98.5(3) 3_455 4
O2 O1 O3 43.1(3) 4 4
O2 O1 O3 143.3(4) 1_565 4
Ga3 O1 O3 52.81(18) 2_565 4
Ga3 O1 O3 127.86(11) 1_556 4
Ga3 O1 O3 125.70(11) 4_456 4
O3 O1 O3 32.3(2) . 4
O3 O1 O3 120.7(6) 4_455 4
O3 O1 O3 72.7(3) 3_565 4
Ga3 O1 O3 21.74(15) 2_564 4
Ga3 O1 O3 89.7(3) . 4
Ga3 O1 O3 88.4(3) 4_455 4
Nb O1 O3 23.16(12) . 4
Ga1 O1 O3 23.16(12) . 4
Nb O1 O3 125.6(4) 1_455 4
Ga1 O1 O3 125.6(4) 1_455 4
Nb O1 O3 94.9(2) 1_565 4
Ga1 O1 O3 94.9(2) 1_565 4
O2 O1 O3 66.31(18) . 4
O2 O1 O3 67.45(19) 3_565 4
O2 O1 O3 161.3(6) 4_455 4
La O1 O3 100.38(18) 1_556 4
La O1 O3 96.84(19) 2_566 4
La O1 O3 145.9(4) 4_456 4
O3 O1 O3 71.62(13) 1_556 4
O3 O1 O3 100.60(19) 3_566 4
O3 O1 O3 156.9(3) 4_456 4
Ga2 O1 O3 115.8(3) 2_566 3_455
La O1 O3 50.88(19) . 3_455
La O1 O3 133.2(7) 2_565 3_455
La O1 O3 58.8(2) 4_455 3_455
O2 O1 O3 85.5(5) 6 3_455
O2 O1 O3 30.8(3) 5_455 3_455
O2 O1 O3 81.4(4) 2_565 3_455
O2 O1 O3 129.8(3) 6_556 3_455
O2 O1 O3 84.2(3) 5_456 3_455
O2 O1 O3 124.9(3) 2_566 3_455
O3 O1 O3 97.6(3) 6 3_455
O3 O1 O3 38.9(4) 5_455 3_455
O3 O1 O3 140.1(4) 2_565 3_455
Ga2 O1 O3 64.2(3) 2_565 3_455
O2 O1 O3 43.1(3) 3_455 3_455
O2 O1 O3 143.3(4) 4 3_455
O2 O1 O3 98.5(3) 1_565 3_455
Ga3 O1 O3 125.70(11) 2_565 3_455
Ga3 O1 O3 52.81(18) 1_556 3_455
Ga3 O1 O3 127.85(11) 4_456 3_455
O3 O1 O3 72.7(3) . 3_455
O3 O1 O3 32.3(2) 4_455 3_455
O3 O1 O3 120.7(6) 3_565 3_455
Ga3 O1 O3 88.4(3) 2_564 3_455
Ga3 O1 O3 21.74(15) . 3_455
Ga3 O1 O3 89.7(3) 4_455 3_455
Nb O1 O3 94.9(2) . 3_455
Ga1 O1 O3 94.9(2) . 3_455
Nb O1 O3 23.16(13) 1_455 3_455
Ga1 O1 O3 23.16(13) 1_455 3_455
Nb O1 O3 125.6(4) 1_565 3_455
Ga1 O1 O3 125.6(4) 1_565 3_455
O2 O1 O3 67.45(19) . 3_455
O2 O1 O3 161.3(6) 3_565 3_455
O2 O1 O3 66.31(18) 4_455 3_455
La O1 O3 96.84(19) 1_556 3_455
La O1 O3 145.9(4) 2_566 3_455
La O1 O3 100.38(18) 4_456 3_455
O3 O1 O3 100.60(19) 1_556 3_455
O3 O1 O3 156.9(3) 3_566 3_455
O3 O1 O3 71.62(13) 4_456 3_455
O3 O1 O3 102.5(3) 4 3_455
Ga2 O1 O3 115.8(3) 2_566 1_565
La O1 O3 133.2(7) . 1_565
La O1 O3 58.8(2) 2_565 1_565
La O1 O3 50.88(19) 4_455 1_565
O2 O1 O3 81.4(4) 6 1_565
O2 O1 O3 85.5(5) 5_455 1_565
O2 O1 O3 30.8(3) 2_565 1_565
O2 O1 O3 124.9(3) 6_556 1_565
O2 O1 O3 129.8(3) 5_456 1_565
O2 O1 O3 84.2(3) 2_566 1_565
O3 O1 O3 140.1(4) 6 1_565
O3 O1 O3 97.6(3) 5_455 1_565
O3 O1 O3 38.9(4) 2_565 1_565
Ga2 O1 O3 64.2(3) 2_565 1_565
O2 O1 O3 143.3(4) 3_455 1_565
O2 O1 O3 98.5(3) 4 1_565
O2 O1 O3 43.1(3) 1_565 1_565
Ga3 O1 O3 127.85(11) 2_565 1_565
Ga3 O1 O3 125.70(11) 1_556 1_565
Ga3 O1 O3 52.81(18) 4_456 1_565
O3 O1 O3 120.7(6) . 1_565
O3 O1 O3 72.7(3) 4_455 1_565
O3 O1 O3 32.3(2) 3_565 1_565
Ga3 O1 O3 89.7(3) 2_564 1_565
Ga3 O1 O3 88.4(3) . 1_565
Ga3 O1 O3 21.74(15) 4_455 1_565
Nb O1 O3 125.6(4) . 1_565
Ga1 O1 O3 125.6(4) . 1_565
Nb O1 O3 94.9(2) 1_455 1_565
Ga1 O1 O3 94.9(2) 1_455 1_565
Nb O1 O3 23.16(13) 1_565 1_565
Ga1 O1 O3 23.16(13) 1_565 1_565
O2 O1 O3 161.3(6) . 1_565
O2 O1 O3 66.31(18) 3_565 1_565
O2 O1 O3 67.45(19) 4_455 1_565
La O1 O3 145.9(4) 1_556 1_565
La O1 O3 100.38(18) 2_566 1_565
La O1 O3 96.84(19) 4_456 1_565
O3 O1 O3 156.9(3) 1_556 1_565
O3 O1 O3 71.62(13) 3_566 1_565
O3 O1 O3 100.60(19) 4_456 1_565
O3 O1 O3 102.5(3) 4 1_565
O3 O1 O3 102.5(3) 3_455 1_565
Ga2 O1 Ga2 72.7(3) 2_566 1_565
La O1 Ga2 137.00(3) . 1_565
La O1 Ga2 110.12(3) 2_565 1_565
La O1 Ga2 40.7(2) 4_455 1_565
O2 O1 Ga2 137.0(5) 6 1_565
O2 O1 Ga2 101.0(3) 5_455 1_565
O2 O1 Ga2 79.7(2) 2_565 1_565
O2 O1 Ga2 101.9(5) 6_556 1_565
O2 O1 Ga2 72.1(3) 5_456 1_565
O2 O1 Ga2 48.9(2) 2_566 1_565
O3 O1 Ga2 156.8(7) 6 1_565
O3 O1 Ga2 54.9(2) 5_455 1_565
O3 O1 Ga2 64.7(2) 2_565 1_565
Ga2 O1 Ga2 107.3(3) 2_565 1_565
O2 O1 Ga2 100.4(3) 3_455 1_565
O2 O1 Ga2 128.7(4) 4 1_565
O2 O1 Ga2 17.1(2) 1_565 1_565
Ga3 O1 Ga2 132.5(5) 2_565 1_565
Ga3 O1 Ga2 71.59(17) 1_556 1_565
Ga3 O1 Ga2 40.14(7) 4_456 1_565
O3 O1 Ga2 160.3(3) . 1_565
O3 O1 Ga2 61.95(19) 4_455 1_565
O3 O1 Ga2 87.76(13) 3_565 1_565
Ga3 O1 Ga2 146.5(4) 2_564 1_565
Ga3 O1 Ga2 94.71(13) . 1_565
Ga3 O1 Ga2 75.04(9) 4_455 1_565
Nb O1 Ga2 173.8(5) . 1_565
Ga1 O1 Ga2 173.8(5) . 1_565
Nb O1 Ga2 65.72(3) 1_455 1_565
Ga1 O1 Ga2 65.72(3) 1_455 1_565
Nb O1 Ga2 65.72(3) 1_565 1_565
Ga1 O1 Ga2 65.72(3) 1_565 1_565
O2 O1 Ga2 133.2(3) . 1_565
O2 O1 Ga2 97.66(19) 3_565 1_565
O2 O1 Ga2 21.70(15) 4_455 1_565
La O1 Ga2 94.6(3) 1_556 1_565
La O1 Ga2 82.6(3) 2_566 1_565
La O1 Ga2 43.74(12) 4_456 1_565
O3 O1 Ga2 123.1(5) 1_556 1_565
O3 O1 Ga2 69.73(19) 3_566 1_565
O3 O1 Ga2 42.35(16) 4_456 1_565
O3 O1 Ga2 160.4(2) 4 1_565
O3 O1 Ga2 87.99(11) 3_455 1_565
O3 O1 Ga2 58.71(14) 1_565 1_565
Ga2 O1 Ga2 72.7(3) 2_566 .
La O1 Ga2 40.7(2) . .
La O1 Ga2 137.00(3) 2_565 .
La O1 Ga2 110.12(3) 4_455 .
O2 O1 Ga2 101.0(3) 6 .
O2 O1 Ga2 79.7(2) 5_455 .
O2 O1 Ga2 137.0(5) 2_565 .
O2 O1 Ga2 72.1(3) 6_556 .
O2 O1 Ga2 48.9(2) 5_456 .
O2 O1 Ga2 101.9(5) 2_566 .
O3 O1 Ga2 54.9(2) 6 .
O3 O1 Ga2 64.7(2) 5_455 .
O3 O1 Ga2 156.8(7) 2_565 .
Ga2 O1 Ga2 107.3(3) 2_565 .
O2 O1 Ga2 17.1(2) 3_455 .
O2 O1 Ga2 100.4(3) 4 .
O2 O1 Ga2 128.7(4) 1_565 .
Ga3 O1 Ga2 71.59(17) 2_565 .
Ga3 O1 Ga2 40.14(7) 1_556 .
Ga3 O1 Ga2 132.5(5) 4_456 .
O3 O1 Ga2 61.95(19) . .
O3 O1 Ga2 87.76(13) 4_455 .
O3 O1 Ga2 160.3(3) 3_565 .
Ga3 O1 Ga2 94.71(13) 2_564 .
Ga3 O1 Ga2 75.04(9) . .
Ga3 O1 Ga2 146.5(4) 4_455 .
Nb O1 Ga2 65.72(3) . .
Ga1 O1 Ga2 65.72(3) . .
Nb O1 Ga2 65.72(3) 1_455 .
Ga1 O1 Ga2 65.72(3) 1_455 .
Nb O1 Ga2 173.8(5) 1_565 .
Ga1 O1 Ga2 173.8(5) 1_565 .
O2 O1 Ga2 21.70(15) . .
O2 O1 Ga2 133.2(3) 3_565 .
O2 O1 Ga2 97.66(19) 4_455 .
La O1 Ga2 43.74(12) 1_556 .
La O1 Ga2 94.6(3) 2_566 .
La O1 Ga2 82.6(3) 4_456 .
O3 O1 Ga2 42.35(16) 1_556 .
O3 O1 Ga2 123.1(5) 3_566 .
O3 O1 Ga2 69.73(19) 4_456 .
O3 O1 Ga2 87.99(11) 4 .
O3 O1 Ga2 58.71(14) 3_455 .
O3 O1 Ga2 160.4(2) 1_565 .
Ga2 O1 Ga2 111.6(2) 1_565 .
Ga2 O1 Ga2 72.7(3) 2_566 1_665
La O1 Ga2 110.12(3) . 1_665
La O1 Ga2 40.7(2) 2_565 1_665
La O1 Ga2 137.00(3) 4_455 1_665
O2 O1 Ga2 79.7(2) 6 1_665
O2 O1 Ga2 137.0(5) 5_455 1_665
O2 O1 Ga2 101.0(3) 2_565 1_665
O2 O1 Ga2 48.9(2) 6_556 1_665
O2 O1 Ga2 101.9(5) 5_456 1_665
O2 O1 Ga2 72.1(3) 2_566 1_665
O3 O1 Ga2 64.7(2) 6 1_665
O3 O1 Ga2 156.8(7) 5_455 1_665
O3 O1 Ga2 54.9(2) 2_565 1_665
Ga2 O1 Ga2 107.3(3) 2_565 1_665
O2 O1 Ga2 128.7(4) 3_455 1_665
O2 O1 Ga2 17.1(2) 4 1_665
O2 O1 Ga2 100.4(3) 1_565 1_665
Ga3 O1 Ga2 40.14(7) 2_565 1_665
Ga3 O1 Ga2 132.5(5) 1_556 1_665
Ga3 O1 Ga2 71.59(17) 4_456 1_665
O3 O1 Ga2 87.76(13) . 1_665
O3 O1 Ga2 160.3(3) 4_455 1_665
O3 O1 Ga2 61.95(19) 3_565 1_665
Ga3 O1 Ga2 75.04(9) 2_564 1_665
Ga3 O1 Ga2 146.5(4) . 1_665
Ga3 O1 Ga2 94.71(13) 4_455 1_665
Nb O1 Ga2 65.72(3) . 1_665
Ga1 O1 Ga2 65.72(3) . 1_665
Nb O1 Ga2 173.8(5) 1_455 1_665
Ga1 O1 Ga2 173.8(5) 1_455 1_665
Nb O1 Ga2 65.72(3) 1_565 1_665
Ga1 O1 Ga2 65.72(3) 1_565 1_665
O2 O1 Ga2 97.66(19) . 1_665
O2 O1 Ga2 21.70(15) 3_565 1_665
O2 O1 Ga2 133.2(3) 4_455 1_665
La O1 Ga2 82.6(3) 1_556 1_665
La O1 Ga2 43.74(12) 2_566 1_665
La O1 Ga2 94.6(3) 4_456 1_665
O3 O1 Ga2 69.73(19) 1_556 1_665
O3 O1 Ga2 42.35(16) 3_566 1_665
O3 O1 Ga2 123.1(5) 4_456 1_665
O3 O1 Ga2 58.71(14) 4 1_665
O3 O1 Ga2 160.4(2) 3_455 1_665
O3 O1 Ga2 87.99(11) 1_565 1_665
Ga2 O1 Ga2 111.6(2) 1_565 1_665
Ga2 O1 Ga2 111.6(2) . 1_665
Ga2 O1 O1 111.4(5) 2_566 2_465
La O1 O1 118.7(6) . 2_465
La O1 O1 95.9(4) 2_565 2_465
La O1 O1 13.54(5) 4_455 2_465
O2 O1 O1 99.6(8) 6 2_465
O2 O1 O1 68.9(5) 5_455 2_465
O2 O1 O1 44.0(4) 2_565 2_465
O2 O1 O1 139.3(7) 6_556 2_465
O2 O1 O1 105.0(4) 5_456 2_465
O2 O1 O1 85.3(4) 2_566 2_465
O3 O1 O1 163.1(9) 6 2_465
O3 O1 O1 60.0(2) 5_455 2_465
O3 O1 O1 69.2(2) 2_565 2_465
Ga2 O1 O1 68.5(5) 2_565 2_465
O2 O1 O1 106.6(2) 3_455 2_465
O2 O1 O1 136.0(3) 4 2_465
O2 O1 O1 34.8(3) 1_565 2_465
Ga3 O1 O1 162.9(3) 2_565 2_465
Ga3 O1 O1 89.42(11) 1_556 2_465
Ga3 O1 O1 63.42(13) 4_456 2_465
O3 O1 O1 126.9(7) . 2_465
O3 O1 O1 39.1(2) 4_455 2_465
O3 O1 O1 69.2(3) 3_565 2_465
Ga3 O1 O1 109.2(7) 2_564 2_465
Ga3 O1 O1 66.2(4) . 2_465
Ga3 O1 O1 42.7(3) 4_455 2_465
Nb O1 O1 147.4(8) . 2_465
Ga1 O1 O1 147.4(8) . 2_465
Nb O1 O1 58.19(9) 1_455 2_465
Ga1 O1 O1 58.19(9) 1_455 2_465
Nb O1 O1 58.19(9) 1_565 2_465
Ga1 O1 O1 58.19(9) 1_565 2_465
O2 O1 O1 138.5(3) . 2_465
O2 O1 O1 102.20(15) 3_565 2_465
O2 O1 O1 34.5(3) 4_455 2_465
La O1 O1 130.1(5) 1_556 2_465
La O1 O1 116.2(4) 2_566 2_465
La O1 O1 82.1(4) 4_456 2_465
O3 O1 O1 158.3(5) 1_556 2_465
O3 O1 O1 93.3(2) 3_566 2_465
O3 O1 O1 71.1(3) 4_456 2_465
O3 O1 O1 129.3(7) 4 2_465
O3 O1 O1 71.4(3) 3_455 2_465
O3 O1 O1 37.69(17) 1_565 2_465
Ga2 O1 O1 38.7(2) 1_565 2_465
Ga2 O1 O1 123.575(11) . 2_465
Ga2 O1 O1 123.575(11) 1_665 2_465
Ga2 O1 O1 111.5(5) 2_566 2_455
La O1 O1 13.54(5) . 2_455
La O1 O1 118.7(6) 2_565 2_455
La O1 O1 95.9(4) 4_455 2_455
O2 O1 O1 68.9(5) 6 2_455
O2 O1 O1 44.0(4) 5_455 2_455
O2 O1 O1 99.6(8) 2_565 2_455
O2 O1 O1 105.0(4) 6_556 2_455
O2 O1 O1 85.3(4) 5_456 2_455
O2 O1 O1 139.3(7) 2_566 2_455
O3 O1 O1 60.0(2) 6 2_455
O3 O1 O1 69.2(2) 5_455 2_455
O3 O1 O1 163.1(9) 2_565 2_455
Ga2 O1 O1 68.6(5) 2_565 2_455
O2 O1 O1 34.8(3) 3_455 2_455
O2 O1 O1 106.6(2) 4 2_455
O2 O1 O1 136.0(3) 1_565 2_455
Ga3 O1 O1 89.42(11) 2_565 2_455
Ga3 O1 O1 63.42(13) 1_556 2_455
Ga3 O1 O1 162.9(3) 4_456 2_455
O3 O1 O1 39.1(2) . 2_455
O3 O1 O1 69.2(3) 4_455 2_455
O3 O1 O1 126.9(7) 3_565 2_455
Ga3 O1 O1 66.2(4) 2_564 2_455
Ga3 O1 O1 42.7(3) . 2_455
Ga3 O1 O1 109.2(7) 4_455 2_455
Nb O1 O1 58.19(9) . 2_455
Ga1 O1 O1 58.19(9) . 2_455
Nb O1 O1 58.19(9) 1_455 2_455
Ga1 O1 O1 58.19(9) 1_455 2_455
Nb O1 O1 147.4(8) 1_565 2_455
Ga1 O1 O1 147.4(8) 1_565 2_455
O2 O1 O1 34.5(3) . 2_455
O2 O1 O1 138.5(3) 3_565 2_455
O2 O1 O1 102.20(15) 4_455 2_455
La O1 O1 82.1(4) 1_556 2_455
La O1 O1 130.1(5) 2_566 2_455
La O1 O1 116.2(4) 4_456 2_455
O3 O1 O1 71.1(3) 1_556 2_455
O3 O1 O1 158.3(5) 3_566 2_455
O3 O1 O1 93.3(2) 4_456 2_455
O3 O1 O1 71.4(3) 4 2_455
O3 O1 O1 37.69(17) 3_455 2_455
O3 O1 O1 129.3(7) 1_565 2_455
Ga2 O1 O1 123.575(11) 1_565 2_455
Ga2 O1 O1 38.7(2) . 2_455
Ga2 O1 O1 123.574(11) 1_665 2_455
O1 O1 O1 107.4(5) 2_465 2_455
Ga2 O1 O1 111.4(5) 2_566 2_565
La O1 O1 95.9(4) . 2_565
La O1 O1 13.55(5) 2_565 2_565
La O1 O1 118.7(6) 4_455 2_565
O2 O1 O1 44.0(4) 6 2_565
O2 O1 O1 99.6(8) 5_455 2_565
O2 O1 O1 68.9(5) 2_565 2_565
O2 O1 O1 85.3(4) 6_556 2_565
O2 O1 O1 139.3(7) 5_456 2_565
O2 O1 O1 105.0(4) 2_566 2_565
O3 O1 O1 69.2(2) 6 2_565
O3 O1 O1 163.1(9) 5_455 2_565
O3 O1 O1 60.0(2) 2_565 2_565
Ga2 O1 O1 68.6(5) 2_565 2_565
O2 O1 O1 136.0(3) 3_455 2_565
O2 O1 O1 34.8(3) 4 2_565
O2 O1 O1 106.6(2) 1_565 2_565
Ga3 O1 O1 63.42(13) 2_565 2_565
Ga3 O1 O1 162.9(3) 1_556 2_565
Ga3 O1 O1 89.42(11) 4_456 2_565
O3 O1 O1 69.2(3) . 2_565
O3 O1 O1 126.9(7) 4_455 2_565
O3 O1 O1 39.1(2) 3_565 2_565
Ga3 O1 O1 42.7(3) 2_564 2_565
Ga3 O1 O1 109.2(7) . 2_565
Ga3 O1 O1 66.2(4) 4_455 2_565
Nb O1 O1 58.19(9) . 2_565
Ga1 O1 O1 58.19(9) . 2_565
Nb O1 O1 147.4(8) 1_455 2_565
Ga1 O1 O1 147.4(8) 1_455 2_565
Nb O1 O1 58.19(9) 1_565 2_565
Ga1 O1 O1 58.19(9) 1_565 2_565
O2 O1 O1 102.20(15) . 2_565
O2 O1 O1 34.5(3) 3_565 2_565
O2 O1 O1 138.5(3) 4_455 2_565
La O1 O1 116.2(4) 1_556 2_565
La O1 O1 82.1(4) 2_566 2_565
La O1 O1 130.1(5) 4_456 2_565
O3 O1 O1 93.3(2) 1_556 2_565
O3 O1 O1 71.1(3) 3_566 2_565
O3 O1 O1 158.3(5) 4_456 2_565
O3 O1 O1 37.69(17) 4 2_565
O3 O1 O1 129.3(7) 3_455 2_565
O3 O1 O1 71.4(3) 1_565 2_565
Ga2 O1 O1 123.575(11) 1_565 2_565
Ga2 O1 O1 123.575(11) . 2_565
Ga2 O1 O1 38.7(2) 1_665 2_565
O1 O1 O1 107.4(5) 2_465 2_565
O1 O1 O1 107.4(5) 2_455 2_565
Ga2 O1 O1 180.0 2_566 1_554
La O1 O1 69.2(5) . 1_554
La O1 O1 69.2(5) 2_565 1_554
La O1 O1 69.2(5) 4_455 1_554
O2 O1 O1 33.6(4) 6 1_554
O2 O1 O1 33.6(4) 5_455 1_554
O2 O1 O1 33.6(4) 2_565 1_554
O2 O1 O1 148.4(3) 6_556 1_554
O2 O1 O1 148.4(3) 5_456 1_554
O2 O1 O1 148.4(3) 2_566 1_554
O3 O1 O1 95.3(5) 6 1_554
O3 O1 O1 95.3(5) 5_455 1_554
O3 O1 O1 95.3(5) 2_565 1_554
Ga2 O1 O1 0.0 2_565 1_554
O2 O1 O1 99.7(5) 3_455 1_554
O2 O1 O1 99.7(5) 4 1_554
O2 O1 O1 99.7(5) 1_565 1_554
Ga3 O1 O1 117.0(3) 2_565 1_554
Ga3 O1 O1 117.0(3) 1_556 1_554
Ga3 O1 O1 117.0(3) 4_456 1_554
O3 O1 O1 61.0(3) . 1_554
O3 O1 O1 61.0(3) 4_455 1_554
O3 O1 O1 61.0(3) 3_565 1_554
Ga3 O1 O1 42.50(19) 2_564 1_554
Ga3 O1 O1 42.5(2) . 1_554
Ga3 O1 O1 42.5(2) 4_455 1_554
Nb O1 O1 78.9(3) . 1_554
Ga1 O1 O1 78.9(3) . 1_554
Nb O1 O1 78.9(3) 1_455 1_554
Ga1 O1 O1 78.9(3) 1_455 1_554
Nb O1 O1 78.9(3) 1_565 1_554
Ga1 O1 O1 78.9(3) 1_565 1_554
O2 O1 O1 97.1(3) . 1_554
O2 O1 O1 97.1(3) 3_565 1_554
O2 O1 O1 97.1(3) 4_455 1_554
La O1 O1 149.74(14) 1_556 1_554
La O1 O1 149.74(14) 2_566 1_554
La O1 O1 149.74(14) 4_456 1_554
O3 O1 O1 127.2(2) 1_556 1_554
O3 O1 O1 127.2(3) 3_566 1_554
O3 O1 O1 127.2(2) 4_456 1_554
O3 O1 O1 64.2(3) 4 1_554
O3 O1 O1 64.2(3) 3_455 1_554
O3 O1 O1 64.2(3) 1_565 1_554
Ga2 O1 O1 107.3(3) 1_565 1_554
Ga2 O1 O1 107.3(3) . 1_554
Ga2 O1 O1 107.3(3) 1_665 1_554
O1 O1 O1 68.6(5) 2_465 1_554
O1 O1 O1 68.6(5) 2_455 1_554
O1 O1 O1 68.6(5) 2_565 1_554
Ga2 O1 O1 0.0 2_566 1_556
La O1 O1 110.8(5) . 1_556
La O1 O1 110.8(5) 2_565 1_556
La O1 O1 110.8(5) 4_455 1_556
O2 O1 O1 146.4(4) 6 1_556
O2 O1 O1 146.4(4) 5_455 1_556
O2 O1 O1 146.4(4) 2_565 1_556
O2 O1 O1 31.6(3) 6_556 1_556
O2 O1 O1 31.6(3) 5_456 1_556
O2 O1 O1 31.6(3) 2_566 1_556
O3 O1 O1 84.7(5) 6 1_556
O3 O1 O1 84.7(5) 5_455 1_556
O3 O1 O1 84.7(5) 2_565 1_556
Ga2 O1 O1 179.998(1) 2_565 1_556
O2 O1 O1 80.3(5) 3_455 1_556
O2 O1 O1 80.3(5) 4 1_556
O2 O1 O1 80.3(5) 1_565 1_556
Ga3 O1 O1 63.0(3) 2_565 1_556
Ga3 O1 O1 63.0(3) 1_556 1_556
Ga3 O1 O1 63.0(3) 4_456 1_556
O3 O1 O1 119.0(3) . 1_556
O3 O1 O1 119.0(3) 4_455 1_556
O3 O1 O1 119.0(3) 3_565 1_556
Ga3 O1 O1 137.50(19) 2_564 1_556
Ga3 O1 O1 137.5(2) . 1_556
Ga3 O1 O1 137.50(19) 4_455 1_556
Nb O1 O1 101.1(3) . 1_556
Ga1 O1 O1 101.1(3) . 1_556
Nb O1 O1 101.1(3) 1_455 1_556
Ga1 O1 O1 101.1(3) 1_455 1_556
Nb O1 O1 101.1(3) 1_565 1_556
Ga1 O1 O1 101.1(3) 1_565 1_556
O2 O1 O1 82.9(3) . 1_556
O2 O1 O1 82.9(3) 3_565 1_556
O2 O1 O1 82.9(3) 4_455 1_556
La O1 O1 30.26(14) 1_556 1_556
La O1 O1 30.26(14) 2_566 1_556
La O1 O1 30.26(14) 4_456 1_556
O3 O1 O1 52.8(2) 1_556 1_556
O3 O1 O1 52.8(2) 3_566 1_556
O3 O1 O1 52.8(2) 4_456 1_556
O3 O1 O1 115.8(3) 4 1_556
O3 O1 O1 115.8(3) 3_455 1_556
O3 O1 O1 115.8(3) 1_565 1_556
Ga2 O1 O1 72.7(3) 1_565 1_556
Ga2 O1 O1 72.7(3) . 1_556
Ga2 O1 O1 72.7(3) 1_665 1_556
O1 O1 O1 111.4(5) 2_465 1_556
O1 O1 O1 111.4(5) 2_455 1_556
O1 O1 O1 111.4(5) 2_565 1_556
O1 O1 O1 179.999(1) 1_554 1_556
Ga2 O1 Ga3 72.3(2) 2_566 4_446
La O1 Ga3 44.7(2) . 4_446
La O1 Ga3 102.39(5) 2_565 4_446
La O1 Ga3 145.11(5) 4_455 4_446
O2 O1 Ga3 83.6(2) 6 4_446
O2 O1 Ga3 96.1(2) 5_455 4_446
O2 O1 Ga3 139.9(5) 2_565 4_446
O2 O1 Ga3 52.8(2) 6_556 4_446
O2 O1 Ga3 66.6(3) 5_456 4_446
O2 O1 Ga3 103.1(5) 2_566 4_446
O3 O1 Ga3 20.9(3) 6 4_446
O3 O1 Ga3 100.5(3) 5_455 4_446
O3 O1 Ga3 131.9(4) 2_565 4_446
Ga2 O1 Ga3 107.7(2) 2_565 4_446
O2 O1 Ga3 52.39(19) 3_455 4_446
O2 O1 Ga3 64.9(2) 4 4_446
O2 O1 Ga3 151.9(7) 1_565 4_446
Ga3 O1 Ga3 38.08(7) 2_565 4_446
Ga3 O1 Ga3 73.34(17) 1_556 4_446
Ga3 O1 Ga3 131.3(5) 4_456 4_446
O3 O1 Ga3 46.90(19) . 4_446
O3 O1 Ga3 119.93(16) 4_455 4_446
O3 O1 Ga3 128.72(16) 3_565 4_446
Ga3 O1 Ga3 74.42(7) 2_564 4_446
Ga3 O1 Ga3 96.37(12) . 4_446
Ga3 O1 Ga3 146.0(4) 4_455 4_446
Nb O1 Ga3 36.28(3) . 4_446
Ga1 O1 Ga3 36.28(3) . 4_446
Nb O1 Ga3 100.52(5) 1_455 4_446
Ga1 O1 Ga3 100.52(5) 1_455 4_446
Nb O1 Ga3 143.03(9) 1_565 4_446
Ga1 O1 Ga3 143.03(9) 1_565 4_446
O2 O1 Ga3 20.45(16) . 4_446
O2 O1 Ga3 99.16(19) 3_565 4_446
O2 O1 Ga3 131.7(3) 4_455 4_446
La O1 Ga3 45.27(11) 1_556 4_446
La O1 Ga3 78.2(2) 2_566 4_446
La O1 Ga3 97.0(3) 4_456 4_446
O3 O1 Ga3 20.00(15) 1_556 4_446
O3 O1 Ga3 104.6(3) 3_566 4_446
O3 O1 Ga3 97.9(3) 4_456 4_446
O3 O1 Ga3 59.20(12) 4 4_446
O3 O1 Ga3 87.90(11) 3_455 4_446
O3 O1 Ga3 160.9(2) 1_565 4_446
Ga2 O1 Ga3 138.7(4) 1_565 4_446
Ga2 O1 Ga3 35.83(5) . 4_446
Ga2 O1 Ga3 77.82(13) 1_665 4_446
O1 O1 Ga3 158.61(11) 2_465 4_446
O1 O1 Ga3 53.75(17) 2_455 4_446
O1 O1 Ga3 89.61(7) 2_565 4_446
O1 O1 Ga3 107.7(2) 1_554 4_446
O1 O1 Ga3 72.3(2) 1_556 4_446
Ga2 O1 Ga3 72.3(2) 2_566 1_666
La O1 Ga3 145.11(5) . 1_666
La O1 Ga3 44.7(2) 2_565 1_666
La O1 Ga3 102.39(5) 4_455 1_666
O2 O1 Ga3 96.1(2) 6 1_666
O2 O1 Ga3 139.9(5) 5_455 1_666
O2 O1 Ga3 83.5(2) 2_565 1_666
O2 O1 Ga3 66.6(3) 6_556 1_666
O2 O1 Ga3 103.1(5) 5_456 1_666
O2 O1 Ga3 52.8(2) 2_566 1_666
O3 O1 Ga3 100.5(3) 6 1_666
O3 O1 Ga3 131.9(4) 5_455 1_666
O3 O1 Ga3 20.9(3) 2_565 1_666
Ga2 O1 Ga3 107.7(2) 2_565 1_666
O2 O1 Ga3 151.9(7) 3_455 1_666
O2 O1 Ga3 52.38(19) 4 1_666
O2 O1 Ga3 64.9(2) 1_565 1_666
Ga3 O1 Ga3 73.34(17) 2_565 1_666
Ga3 O1 Ga3 131.3(5) 1_556 1_666
Ga3 O1 Ga3 38.08(7) 4_456 1_666
O3 O1 Ga3 119.93(16) . 1_666
O3 O1 Ga3 128.72(16) 4_455 1_666
O3 O1 Ga3 46.90(19) 3_565 1_666
Ga3 O1 Ga3 96.37(12) 2_564 1_666
Ga3 O1 Ga3 146.0(4) . 1_666
Ga3 O1 Ga3 74.42(7) 4_455 1_666
Nb O1 Ga3 100.52(5) . 1_666
Ga1 O1 Ga3 100.52(5) . 1_666
Nb O1 Ga3 143.03(9) 1_455 1_666
Ga1 O1 Ga3 143.03(9) 1_455 1_666
Nb O1 Ga3 36.28(3) 1_565 1_666
Ga1 O1 Ga3 36.28(3) 1_565 1_666
O2 O1 Ga3 131.7(3) . 1_666
O2 O1 Ga3 20.45(16) 3_565 1_666
O2 O1 Ga3 99.16(19) 4_455 1_666
La O1 Ga3 97.0(3) 1_556 1_666
La O1 Ga3 45.27(11) 2_566 1_666
La O1 Ga3 78.2(2) 4_456 1_666
O3 O1 Ga3 97.9(3) 1_556 1_666
O3 O1 Ga3 20.00(15) 3_566 1_666
O3 O1 Ga3 104.6(3) 4_456 1_666
O3 O1 Ga3 87.90(11) 4 1_666
O3 O1 Ga3 160.9(2) 3_455 1_666
O3 O1 Ga3 59.20(12) 1_565 1_666
Ga2 O1 Ga3 77.82(13) 1_565 1_666
Ga2 O1 Ga3 138.7(4) . 1_666
Ga2 O1 Ga3 35.83(5) 1_665 1_666
O1 O1 Ga3 89.61(7) 2_465 1_666
O1 O1 Ga3 158.60(11) 2_455 1_666
O1 O1 Ga3 53.75(17) 2_565 1_666
O1 O1 Ga3 107.7(2) 1_554 1_666
O1 O1 Ga3 72.3(2) 1_556 1_666
Ga3 O1 Ga3 111.2(2) 4_446 1_666
Ga2 O1 Ga3 72.3(2) 2_566 2_465
La O1 Ga3 102.39(5) . 2_465
La O1 Ga3 145.11(5) 2_565 2_465
La O1 Ga3 44.7(2) 4_455 2_465
O2 O1 Ga3 139.9(5) 6 2_465
O2 O1 Ga3 83.6(2) 5_455 2_465
O2 O1 Ga3 96.1(2) 2_565 2_465
O2 O1 Ga3 103.1(5) 6_556 2_465
O2 O1 Ga3 52.8(2) 5_456 2_465
O2 O1 Ga3 66.6(3) 2_566 2_465
O3 O1 Ga3 131.9(4) 6 2_465
O3 O1 Ga3 20.9(3) 5_455 2_465
O3 O1 Ga3 100.5(3) 2_565 2_465
Ga2 O1 Ga3 107.7(2) 2_565 2_465
O2 O1 Ga3 64.9(2) 3_455 2_465
O2 O1 Ga3 151.9(7) 4 2_465
O2 O1 Ga3 52.39(19) 1_565 2_465
Ga3 O1 Ga3 131.3(5) 2_565 2_465
Ga3 O1 Ga3 38.08(7) 1_556 2_465
Ga3 O1 Ga3 73.34(17) 4_456 2_465
O3 O1 Ga3 128.72(16) . 2_465
O3 O1 Ga3 46.90(19) 4_455 2_465
O3 O1 Ga3 119.93(16) 3_565 2_465
Ga3 O1 Ga3 146.0(4) 2_564 2_465
Ga3 O1 Ga3 74.42(7) . 2_465
Ga3 O1 Ga3 96.37(12) 4_455 2_465
Nb O1 Ga3 143.03(9) . 2_465
Ga1 O1 Ga3 143.03(9) . 2_465
Nb O1 Ga3 36.28(3) 1_455 2_465
Ga1 O1 Ga3 36.28(3) 1_455 2_465
Nb O1 Ga3 100.52(5) 1_565 2_465
Ga1 O1 Ga3 100.52(5) 1_565 2_465
O2 O1 Ga3 99.16(19) . 2_465
O2 O1 Ga3 131.7(3) 3_565 2_465
O2 O1 Ga3 20.45(16) 4_455 2_465
La O1 Ga3 78.2(2) 1_556 2_465
La O1 Ga3 97.0(3) 2_566 2_465
La O1 Ga3 45.27(11) 4_456 2_465
O3 O1 Ga3 104.6(3) 1_556 2_465
O3 O1 Ga3 97.9(3) 3_566 2_465
O3 O1 Ga3 20.00(15) 4_456 2_465
O3 O1 Ga3 160.9(2) 4 2_465
O3 O1 Ga3 59.20(12) 3_455 2_465
O3 O1 Ga3 87.89(11) 1_565 2_465
Ga2 O1 Ga3 35.83(5) 1_565 2_465
Ga2 O1 Ga3 77.82(13) . 2_465
Ga2 O1 Ga3 138.7(4) 1_665 2_465
O1 O1 Ga3 53.75(18) 2_465 2_465
O1 O1 Ga3 89.61(7) 2_455 2_465
O1 O1 Ga3 158.60(11) 2_565 2_465
O1 O1 Ga3 107.7(2) 1_554 2_465
O1 O1 Ga3 72.3(2) 1_556 2_465
Ga3 O1 Ga3 111.2(2) 4_446 2_465
Ga3 O1 Ga3 111.2(2) 1_666 2_465
Ga2 O1 O3 56.5(3) 2_566 4_556
La O1 O3 82.0(2) . 4_556
La O1 O3 75.8(2) 2_565 4_556
La O1 O3 166.7(7) 4_455 4_556
O2 O1 O3 90.0(3) 6 4_556
O2 O1 O3 131.0(3) 5_455 4_556
O2 O1 O3 136.3(3) 2_565 4_556
O2 O1 O3 25.1(3) 6_556 4_556
O2 O1 O3 73.5(4) 5_456 4_556
O2 O1 O3 77.3(4) 2_566 4_556
O3 O1 O3 36.0(4) 6 4_556
O3 O1 O3 128.5(5) 5_455 4_556
O3 O1 O3 91.9(3) 2_565 4_556
Ga2 O1 O3 123.5(3) 2_565 4_556
O2 O1 O3 88.6(3) 3_455 4_556
O2 O1 O3 33.2(3) 4 4_556
O2 O1 O3 125.6(6) 1_565 4_556
Ga3 O1 O3 6.6(2) 2_565 4_556
Ga3 O1 O3 97.7(4) 1_556 4_556
Ga3 O1 O3 96.1(4) 4_456 4_556
O3 O1 O3 71.30(14) . 4_556
O3 O1 O3 159.3(2) 4_455 4_556
O3 O1 O3 100.78(19) 3_565 4_556
Ga3 O1 O3 81.00(16) 2_564 4_556
Ga3 O1 O3 134.35(18) . 4_556
Ga3 O1 O3 132.68(15) 4_455 4_556
Nb O1 O3 48.12(17) . 4_556
Ga1 O1 O3 48.12(17) . 4_556
Nb O1 O3 136.4(3) 1_455 4_556
Ga1 O1 O3 136.4(3) 1_455 4_556
Nb O1 O3 105.24(17) 1_565 4_556
Ga1 O1 O3 105.24(17) 1_565 4_556
O2 O1 O3 60.6(2) . 4_556
O2 O1 O3 61.7(2) 3_565 4_556
O2 O1 O3 139.4(6) 4_455 4_556
La O1 O3 48.9(2) 1_556 4_556
La O1 O3 44.4(2) 2_566 4_556
La O1 O3 86.7(4) 4_456 4_556
O3 O1 O3 29.7(2) 1_556 4_556
O3 O1 O3 66.0(3) 3_566 4_556
O3 O1 O3 106.0(5) 4_456 4_556
O3 O1 O3 59.27(13) 4 4_556
O3 O1 O3 127.99(8) 3_455 4_556
O3 O1 O3 127.99(8) 1_565 4_556
Ga2 O1 O3 126.1(5) 1_565 4_556
Ga2 O1 O3 71.56(18) . 4_556
Ga2 O1 O3 40.12(13) 1_665 4_556
O1 O1 O3 159.4(5) 2_465 4_556
O1 O1 O3 93.1(2) 2_455 4_556
O1 O1 O3 67.4(3) 2_565 4_556
O1 O1 O3 123.5(3) 1_554 4_556
O1 O1 O3 56.5(3) 1_556 4_556
Ga3 O1 O3 40.18(13) 4_446 4_556
Ga3 O1 O3 71.11(19) 1_666 4_556
Ga3 O1 O3 125.8(5) 2_465 4_556
Ga2 O1 O3 56.5(3) 2_566 3_456
La O1 O3 75.8(2) . 3_456
La O1 O3 166.7(7) 2_565 3_456
La O1 O3 82.0(2) 4_455 3_456
O2 O1 O3 136.3(3) 6 3_456
O2 O1 O3 90.0(3) 5_455 3_456
O2 O1 O3 131.0(3) 2_565 3_456
O2 O1 O3 77.3(4) 6_556 3_456
O2 O1 O3 25.1(3) 5_456 3_456
O2 O1 O3 73.5(4) 2_566 3_456
O3 O1 O3 91.9(3) 6 3_456
O3 O1 O3 36.0(4) 5_455 3_456
O3 O1 O3 128.5(5) 2_565 3_456
Ga2 O1 O3 123.5(3) 2_565 3_456
O2 O1 O3 33.2(3) 3_455 3_456
O2 O1 O3 125.6(6) 4 3_456
O2 O1 O3 88.6(3) 1_565 3_456
Ga3 O1 O3 96.1(4) 2_565 3_456
Ga3 O1 O3 6.6(2) 1_556 3_456
Ga3 O1 O3 97.7(4) 4_456 3_456
O3 O1 O3 100.78(19) . 3_456
O3 O1 O3 71.30(14) 4_455 3_456
O3 O1 O3 159.3(2) 3_565 3_456
Ga3 O1 O3 132.68(15) 2_564 3_456
Ga3 O1 O3 81.00(16) . 3_456
Ga3 O1 O3 134.35(18) 4_455 3_456
Nb O1 O3 105.24(17) . 3_456
Ga1 O1 O3 105.24(17) . 3_456
Nb O1 O3 48.12(17) 1_455 3_456
Ga1 O1 O3 48.12(17) 1_455 3_456
Nb O1 O3 136.4(3) 1_565 3_456
Ga1 O1 O3 136.4(3) 1_565 3_456
O2 O1 O3 61.7(2) . 3_456
O2 O1 O3 139.4(6) 3_565 3_456
O2 O1 O3 60.6(2) 4_455 3_456
La O1 O3 44.4(2) 1_556 3_456
La O1 O3 86.7(4) 2_566 3_456
La O1 O3 48.9(2) 4_456 3_456
O3 O1 O3 66.0(3) 1_556 3_456
O3 O1 O3 106.0(5) 3_566 3_456
O3 O1 O3 29.7(2) 4_456 3_456
O3 O1 O3 127.99(8) 4 3_456
O3 O1 O3 59.27(13) 3_455 3_456
O3 O1 O3 127.99(8) 1_565 3_456
Ga2 O1 O3 71.56(18) 1_565 3_456
Ga2 O1 O3 40.12(13) . 3_456
Ga2 O1 O3 126.1(5) 1_665 3_456
O1 O1 O3 93.1(2) 2_465 3_456
O1 O1 O3 67.4(3) 2_455 3_456
O1 O1 O3 159.4(5) 2_565 3_456
O1 O1 O3 123.5(3) 1_554 3_456
O1 O1 O3 56.5(3) 1_556 3_456
Ga3 O1 O3 71.11(19) 4_446 3_456
Ga3 O1 O3 125.8(5) 1_666 3_456
Ga3 O1 O3 40.18(13) 2_465 3_456
O3 O1 O3 92.5(4) 4_556 3_456
Ga2 O1 O3 56.5(3) 2_566 1_566
La O1 O3 166.7(7) . 1_566
La O1 O3 82.0(2) 2_565 1_566
La O1 O3 75.8(2) 4_455 1_566
O2 O1 O3 131.0(3) 6 1_566
O2 O1 O3 136.3(3) 5_455 1_566
O2 O1 O3 90.0(3) 2_565 1_566
O2 O1 O3 73.5(4) 6_556 1_566
O2 O1 O3 77.3(4) 5_456 1_566
O2 O1 O3 25.1(3) 2_566 1_566
O3 O1 O3 128.5(5) 6 1_566
O3 O1 O3 91.9(3) 5_455 1_566
O3 O1 O3 36.0(4) 2_565 1_566
Ga2 O1 O3 123.5(3) 2_565 1_566
O2 O1 O3 125.6(6) 3_455 1_566
O2 O1 O3 88.6(3) 4 1_566
O2 O1 O3 33.2(3) 1_565 1_566
Ga3 O1 O3 97.7(4) 2_565 1_566
Ga3 O1 O3 96.1(4) 1_556 1_566
Ga3 O1 O3 6.6(2) 4_456 1_566
O3 O1 O3 159.3(2) . 1_566
O3 O1 O3 100.78(19) 4_455 1_566
O3 O1 O3 71.30(14) 3_565 1_566
Ga3 O1 O3 134.35(18) 2_564 1_566
Ga3 O1 O3 132.68(15) . 1_566
Ga3 O1 O3 81.00(16) 4_455 1_566
Nb O1 O3 136.4(3) . 1_566
Ga1 O1 O3 136.4(3) . 1_566
Nb O1 O3 105.24(17) 1_455 1_566
Ga1 O1 O3 105.24(17) 1_455 1_566
Nb O1 O3 48.12(17) 1_565 1_566
Ga1 O1 O3 48.12(17) 1_565 1_566
O2 O1 O3 139.4(6) . 1_566
O2 O1 O3 60.6(2) 3_565 1_566
O2 O1 O3 61.7(2) 4_455 1_566
La O1 O3 86.7(4) 1_556 1_566
La O1 O3 48.9(2) 2_566 1_566
La O1 O3 44.4(2) 4_456 1_566
O3 O1 O3 106.0(5) 1_556 1_566
O3 O1 O3 29.7(2) 3_566 1_566
O3 O1 O3 66.0(3) 4_456 1_566
O3 O1 O3 127.99(8) 4 1_566
O3 O1 O3 127.99(8) 3_455 1_566
O3 O1 O3 59.27(13) 1_565 1_566
Ga2 O1 O3 40.12(13) 1_565 1_566
Ga2 O1 O3 126.1(5) . 1_566
Ga2 O1 O3 71.56(18) 1_665 1_566
O1 O1 O3 67.4(3) 2_465 1_566
O1 O1 O3 159.4(5) 2_455 1_566
O1 O1 O3 93.1(2) 2_565 1_566
O1 O1 O3 123.5(3) 1_554 1_566
O1 O1 O3 56.5(3) 1_556 1_566
Ga3 O1 O3 125.8(5) 4_446 1_566
Ga3 O1 O3 40.18(13) 1_666 1_566
Ga3 O1 O3 71.11(19) 2_465 1_566
O3 O1 O3 92.5(4) 4_556 1_566
O3 O1 O3 92.5(4) 3_456 1_566
Ga2 O1 O3 86.8(3) 2_566 5
La O1 O3 64.37(12) . 5
La O1 O3 62.54(11) 2_565 5
La O1 O3 162.3(8) 4_455 5
O2 O1 O3 60.0(3) 6 5
O2 O1 O3 104.5(4) 5_455 5
O2 O1 O3 112.8(4) 2_565 5
O2 O1 O3 55.6(3) 6_556 5
O2 O1 O3 98.5(4) 5_456 5
O2 O1 O3 106.1(4) 2_566 5
O3 O1 O3 20.7(3) 6 5
O3 O1 O3 139.8(3) 5_455 5
O3 O1 O3 99.0(3) 2_565 5
Ga2 O1 O3 93.2(3) 2_565 5
O2 O1 O3 90.8(2) 3_455 5
O2 O1 O3 29.2(2) 4 5
O2 O1 O3 146.2(3) 1_565 5
Ga3 O1 O3 23.93(17) 2_565 5
Ga3 O1 O3 112.9(3) 1_556 5
Ga3 O1 O3 116.7(3) 4_456 5
O3 O1 O3 45.0(2) . 5
O3 O1 O3 143.5(4) 4_455 5
O3 O1 O3 89.0(2) 3_565 5
Ga3 O1 O3 50.71(16) 2_564 5
Ga3 O1 O3 110.8(3) . 5
Ga3 O1 O3 113.6(3) 4_455 5
Nb O1 O3 21.04(13) . 5
Ga1 O1 O3 21.04(13) . 5
Nb O1 O3 135.22(13) 1_455 5
Ga1 O1 O3 135.22(13) 1_455 5
Nb O1 O3 104.81(11) 1_565 5
Ga1 O1 O3 104.81(11) 1_565 5
O2 O1 O3 55.76(15) . 5
O2 O1 O3 63.95(14) 3_565 5
O2 O1 O3 168.9(6) 4_455 5
La O1 O3 73.0(2) 1_556 5
La O1 O3 72.1(2) 2_566 5
La O1 O3 117.1(4) 4_456 5
O3 O1 O3 45.4(3) 1_556 5
O3 O1 O3 85.8(2) 3_566 5
O3 O1 O3 132.4(4) 4_456 5
O3 O1 O3 29.2(3) 4 5
O3 O1 O3 115.21(18) 3_455 5
O3 O1 O3 121.3(2) 1_565 5
Ga2 O1 O3 154.4(4) 1_565 5
Ga2 O1 O3 75.24(12) . 5
Ga2 O1 O3 45.84(11) 1_665 5
O1 O1 O3 156.3(6) 2_465 5
O1 O1 O3 77.76(11) 2_455 5
O1 O1 O3 50.00(13) 2_565 5
O1 O1 O3 93.2(3) 1_554 5
O1 O1 O3 86.8(3) 1_556 5
Ga3 O1 O3 39.86(11) 4_446 5
Ga3 O1 O3 81.52(13) 1_666 5
Ga3 O1 O3 149.8(4) 2_465 5
O3 O1 O3 30.5(3) 4_556 5
O3 O1 O3 110.0(3) 3_456 5
O3 O1 O3 115.4(2) 1_566 5
Ga2 O1 O3 86.8(3) 2_566 2_455
La O1 O3 62.54(11) . 2_455
La O1 O3 162.3(8) 2_565 2_455
La O1 O3 64.37(12) 4_455 2_455
O2 O1 O3 112.8(4) 6 2_455
O2 O1 O3 60.0(3) 5_455 2_455
O2 O1 O3 104.5(4) 2_565 2_455
O2 O1 O3 106.1(4) 6_556 2_455
O2 O1 O3 55.6(3) 5_456 2_455
O2 O1 O3 98.5(4) 2_566 2_455
O3 O1 O3 99.0(3) 6 2_455
O3 O1 O3 20.7(3) 5_455 2_455
O3 O1 O3 139.8(3) 2_565 2_455
Ga2 O1 O3 93.2(3) 2_565 2_455
O2 O1 O3 29.2(2) 3_455 2_455
O2 O1 O3 146.2(3) 4 2_455
O2 O1 O3 90.8(2) 1_565 2_455
Ga3 O1 O3 116.7(3) 2_565 2_455
Ga3 O1 O3 23.93(17) 1_556 2_455
Ga3 O1 O3 112.9(3) 4_456 2_455
O3 O1 O3 89.0(2) . 2_455
O3 O1 O3 45.0(2) 4_455 2_455
O3 O1 O3 143.5(4) 3_565 2_455
Ga3 O1 O3 113.6(3) 2_564 2_455
Ga3 O1 O3 50.71(16) . 2_455
Ga3 O1 O3 110.8(3) 4_455 2_455
Nb O1 O3 104.81(11) . 2_455
Ga1 O1 O3 104.81(11) . 2_455
Nb O1 O3 21.04(13) 1_455 2_455
Ga1 O1 O3 21.04(13) 1_455 2_455
Nb O1 O3 135.22(13) 1_565 2_455
Ga1 O1 O3 135.22(13) 1_565 2_455
O2 O1 O3 63.95(14) . 2_455
O2 O1 O3 168.9(6) 3_565 2_455
O2 O1 O3 55.76(15) 4_455 2_455
La O1 O3 72.1(2) 1_556 2_455
La O1 O3 117.1(4) 2_566 2_455
La O1 O3 73.0(2) 4_456 2_455
O3 O1 O3 85.8(2) 1_556 2_455
O3 O1 O3 132.4(4) 3_566 2_455
O3 O1 O3 45.4(3) 4_456 2_455
O3 O1 O3 121.3(2) 4 2_455
O3 O1 O3 29.2(3) 3_455 2_455
O3 O1 O3 115.21(18) 1_565 2_455
Ga2 O1 O3 75.24(13) 1_565 2_455
Ga2 O1 O3 45.84(11) . 2_455
Ga2 O1 O3 154.4(4) 1_665 2_455
O1 O1 O3 77.76(11) 2_465 2_455
O1 O1 O3 50.00(13) 2_455 2_455
O1 O1 O3 156.3(6) 2_565 2_455
O1 O1 O3 93.2(3) 1_554 2_455
O1 O1 O3 86.8(3) 1_556 2_455
Ga3 O1 O3 81.52(13) 4_446 2_455
Ga3 O1 O3 149.8(4) 1_666 2_455
Ga3 O1 O3 39.86(11) 2_465 2_455
O3 O1 O3 115.4(2) 4_556 2_455
O3 O1 O3 30.5(3) 3_456 2_455
O3 O1 O3 110.0(3) 1_566 2_455
O3 O1 O3 119.70(6) 5 2_455
Ga2 O1 O3 86.8(3) 2_566 6_565
La O1 O3 162.3(8) . 6_565
La O1 O3 64.37(12) 2_565 6_565
La O1 O3 62.54(11) 4_455 6_565
O2 O1 O3 104.5(4) 6 6_565
O2 O1 O3 112.8(4) 5_455 6_565
O2 O1 O3 60.0(3) 2_565 6_565
O2 O1 O3 98.5(4) 6_556 6_565
O2 O1 O3 106.1(4) 5_456 6_565
O2 O1 O3 55.6(3) 2_566 6_565
O3 O1 O3 139.8(3) 6 6_565
O3 O1 O3 99.0(3) 5_455 6_565
O3 O1 O3 20.7(3) 2_565 6_565
Ga2 O1 O3 93.2(3) 2_565 6_565
O2 O1 O3 146.2(3) 3_455 6_565
O2 O1 O3 90.8(2) 4 6_565
O2 O1 O3 29.2(2) 1_565 6_565
Ga3 O1 O3 112.9(3) 2_565 6_565
Ga3 O1 O3 116.7(3) 1_556 6_565
Ga3 O1 O3 23.93(17) 4_456 6_565
O3 O1 O3 143.5(4) . 6_565
O3 O1 O3 89.0(2) 4_455 6_565
O3 O1 O3 45.0(2) 3_565 6_565
Ga3 O1 O3 110.8(3) 2_564 6_565
Ga3 O1 O3 113.6(3) . 6_565
Ga3 O1 O3 50.71(16) 4_455 6_565
Nb O1 O3 135.22(13) . 6_565
Ga1 O1 O3 135.22(13) . 6_565
Nb O1 O3 104.81(11) 1_455 6_565
Ga1 O1 O3 104.81(11) 1_455 6_565
Nb O1 O3 21.04(13) 1_565 6_565
Ga1 O1 O3 21.04(13) 1_565 6_565
O2 O1 O3 168.9(6) . 6_565
O2 O1 O3 55.76(15) 3_565 6_565
O2 O1 O3 63.95(14) 4_455 6_565
La O1 O3 117.1(4) 1_556 6_565
La O1 O3 73.0(2) 2_566 6_565
La O1 O3 72.1(2) 4_456 6_565
O3 O1 O3 132.4(4) 1_556 6_565
O3 O1 O3 45.4(3) 3_566 6_565
O3 O1 O3 85.8(2) 4_456 6_565
O3 O1 O3 115.21(18) 4 6_565
O3 O1 O3 121.3(2) 3_455 6_565
O3 O1 O3 29.2(3) 1_565 6_565
Ga2 O1 O3 45.84(11) 1_565 6_565
Ga2 O1 O3 154.4(4) . 6_565
Ga2 O1 O3 75.24(12) 1_665 6_565
O1 O1 O3 50.00(13) 2_465 6_565
O1 O1 O3 156.3(6) 2_455 6_565
O1 O1 O3 77.76(11) 2_565 6_565
O1 O1 O3 93.2(3) 1_554 6_565
O1 O1 O3 86.8(3) 1_556 6_565
Ga3 O1 O3 149.8(4) 4_446 6_565
Ga3 O1 O3 39.86(11) 1_666 6_565
Ga3 O1 O3 81.52(13) 2_465 6_565
O3 O1 O3 110.0(3) 4_556 6_565
O3 O1 O3 115.4(2) 3_456 6_565
O3 O1 O3 30.5(3) 1_566 6_565
O3 O1 O3 119.70(6) 5 6_565
O3 O1 O3 119.70(6) 2_455 6_565
Ga2 O1 O2 141.8(2) 2_566 3_454
La O1 O2 38.9(3) . 3_454
La O1 O2 102.8(6) 2_565 3_454
La O1 O2 73.6(4) 4_455 3_454
O2 O1 O2 53.3(3) 6 3_454
O2 O1 O2 12.8(2) 5_455 3_454
O2 O1 O2 66.9(4) 2_565 3_454
O2 O1 O2 136.3(2) 6_556 3_454
O2 O1 O2 111.4(3) 5_456 3_454
O2 O1 O2 156.81(15) 2_566 3_454
O3 O1 O2 82.5(4) 6 3_454
O3 O1 O2 70.9(4) 5_455 3_454
O3 O1 O2 132.7(6) 2_565 3_454
Ga2 O1 O2 38.2(2) 2_565 3_454
O2 O1 O2 61.5(3) 3_455 3_454
O2 O1 O2 115.9(4) 4 3_454
O2 O1 O2 115.9(4) 1_565 3_454
Ga3 O1 O2 113.0(2) 2_565 3_454
Ga3 O1 O2 82.2(2) 1_556 3_454
Ga3 O1 O2 144.7(4) 4_456 3_454
O3 O1 O2 48.4(2) . 3_454
O3 O1 O2 50.3(3) 4_455 3_454
O3 O1 O2 99.2(5) 3_565 3_454
Ga3 O1 O2 56.4(2) 2_564 3_454
Ga3 O1 O2 17.55(12) . 3_454
Ga3 O1 O2 76.6(3) 4_455 3_454
Nb O1 O2 72.5(2) . 3_454
Ga1 O1 O2 72.5(2) . 3_454
Nb O1 O2 54.10(19) 1_455 3_454
Ga1 O1 O2 54.10(19) 1_455 3_454
Nb O1 O2 115.6(4) 1_565 3_454
Ga1 O1 O2 115.6(4) 1_565 3_454
O2 O1 O2 66.3(2) . 3_454
O2 O1 O2 131.0(5) 3_565 3_454
O2 O1 O2 92.2(3) 4_455 3_454
La O1 O2 114.24(13) 1_556 3_454
La O1 O2 161.75(16) 2_566 3_454
La O1 O2 132.64(13) 4_456 3_454
O3 O1 O2 102.58(18) 1_556 3_454
O3 O1 O2 165.3(4) 3_566 3_454
O3 O1 O2 103.91(19) 4_456 3_454
O3 O1 O2 72.8(3) 4 3_454
O3 O1 O2 32.3(2) 3_455 3_454
O3 O1 O2 96.6(4) 1_565 3_454
Ga2 O1 O2 112.2(2) 1_565 3_454
Ga2 O1 O2 70.50(18) . 3_454
Ga2 O1 O2 131.1(3) 1_665 3_454
O1 O1 O2 81.6(5) 2_465 3_454
O1 O1 O2 32.8(4) 2_455 3_454
O1 O1 O2 97.2(6) 2_565 3_454
O1 O1 O2 38.2(2) 1_554 3_454
O1 O1 O2 141.8(2) 1_556 3_454
Ga3 O1 O2 83.58(16) 4_446 3_454
Ga3 O1 O2 145.4(4) 1_666 3_454
Ga3 O1 O2 90.25(17) 2_465 3_454
O3 O1 O2 118.5(2) 4_556 3_454
O3 O1 O2 88.1(2) 3_456 3_454
O3 O1 O2 149.0(3) 1_566 3_454
O3 O1 O2 93.3(3) 5 3_454
O3 O1 O2 60.1(2) 2_455 3_454
O3 O1 O2 124.8(4) 6_565 3_454
Ga2 O1 O2 141.8(2) 2_566 4_554
La O1 O2 73.6(4) . 4_554
La O1 O2 38.9(3) 2_565 4_554
La O1 O2 102.8(6) 4_455 4_554
O2 O1 O2 12.8(2) 6 4_554
O2 O1 O2 66.9(4) 5_455 4_554
O2 O1 O2 53.3(3) 2_565 4_554
O2 O1 O2 111.4(3) 6_556 4_554
O2 O1 O2 156.81(15) 5_456 4_554
O2 O1 O2 136.3(2) 2_566 4_554
O3 O1 O2 70.9(4) 6 4_554
O3 O1 O2 132.7(6) 5_455 4_554
O3 O1 O2 82.5(4) 2_565 4_554
Ga2 O1 O2 38.2(2) 2_565 4_554
O2 O1 O2 115.9(4) 3_455 4_554
O2 O1 O2 61.5(3) 4 4_554
O2 O1 O2 115.9(4) 1_565 4_554
Ga3 O1 O2 82.2(2) 2_565 4_554
Ga3 O1 O2 144.7(4) 1_556 4_554
Ga3 O1 O2 113.0(2) 4_456 4_554
O3 O1 O2 50.3(3) . 4_554
O3 O1 O2 99.2(5) 4_455 4_554
O3 O1 O2 48.4(2) 3_565 4_554
Ga3 O1 O2 17.55(12) 2_564 4_554
Ga3 O1 O2 76.6(3) . 4_554
Ga3 O1 O2 56.4(2) 4_455 4_554
Nb O1 O2 54.10(19) . 4_554
Ga1 O1 O2 54.10(19) . 4_554
Nb O1 O2 115.6(4) 1_455 4_554
Ga1 O1 O2 115.6(4) 1_455 4_554
Nb O1 O2 72.5(2) 1_565 4_554
Ga1 O1 O2 72.5(2) 1_565 4_554
O2 O1 O2 92.2(3) . 4_554
O2 O1 O2 66.3(2) 3_565 4_554
O2 O1 O2 131.0(5) 4_455 4_554
La O1 O2 132.64(13) 1_556 4_554
La O1 O2 114.24(13) 2_566 4_554
La O1 O2 161.75(16) 4_456 4_554
O3 O1 O2 103.91(19) 1_556 4_554
O3 O1 O2 102.58(18) 3_566 4_554
O3 O1 O2 165.3(4) 4_456 4_554
O3 O1 O2 32.3(2) 4 4_554
O3 O1 O2 96.6(4) 3_455 4_554
O3 O1 O2 72.8(3) 1_565 4_554
Ga2 O1 O2 131.1(3) 1_565 4_554
Ga2 O1 O2 112.2(2) . 4_554
Ga2 O1 O2 70.49(18) 1_665 4_554
O1 O1 O2 97.2(6) 2_465 4_554
O1 O1 O2 81.6(5) 2_455 4_554
O1 O1 O2 32.8(4) 2_565 4_554
O1 O1 O2 38.2(2) 1_554 4_554
O1 O1 O2 141.8(2) 1_556 4_554
Ga3 O1 O2 90.25(17) 4_446 4_554
Ga3 O1 O2 83.58(17) 1_666 4_554
Ga3 O1 O2 145.4(4) 2_465 4_554
O3 O1 O2 88.1(2) 4_556 4_554
O3 O1 O2 149.0(3) 3_456 4_554
O3 O1 O2 118.5(2) 1_566 4_554
O3 O1 O2 60.1(2) 5 4_554
O3 O1 O2 124.8(4) 2_455 4_554
O3 O1 O2 93.3(3) 6_565 4_554
O2 O1 O2 64.7(3) 3_454 4_554
Ga2 O1 O2 141.8(2) 2_566 1_564
La O1 O2 102.8(6) . 1_564
La O1 O2 73.6(4) 2_565 1_564
La O1 O2 38.9(3) 4_455 1_564
O2 O1 O2 66.9(4) 6 1_564
O2 O1 O2 53.3(3) 5_455 1_564
O2 O1 O2 12.8(2) 2_565 1_564
O2 O1 O2 156.81(15) 6_556 1_564
O2 O1 O2 136.3(2) 5_456 1_564
O2 O1 O2 111.4(3) 2_566 1_564
O3 O1 O2 132.7(6) 6 1_564
O3 O1 O2 82.5(4) 5_455 1_564
O3 O1 O2 70.9(4) 2_565 1_564
Ga2 O1 O2 38.2(2) 2_565 1_564
O2 O1 O2 115.9(4) 3_455 1_564
O2 O1 O2 115.9(4) 4 1_564
O2 O1 O2 61.5(3) 1_565 1_564
Ga3 O1 O2 144.7(4) 2_565 1_564
Ga3 O1 O2 113.0(2) 1_556 1_564
Ga3 O1 O2 82.2(2) 4_456 1_564
O3 O1 O2 99.2(5) . 1_564
O3 O1 O2 48.4(2) 4_455 1_564
O3 O1 O2 50.3(3) 3_565 1_564
Ga3 O1 O2 76.6(3) 2_564 1_564
Ga3 O1 O2 56.4(2) . 1_564
Ga3 O1 O2 17.55(12) 4_455 1_564
Nb O1 O2 115.6(4) . 1_564
Ga1 O1 O2 115.6(4) . 1_564
Nb O1 O2 72.5(2) 1_455 1_564
Ga1 O1 O2 72.5(2) 1_455 1_564
Nb O1 O2 54.10(19) 1_565 1_564
Ga1 O1 O2 54.10(19) 1_565 1_564
O2 O1 O2 131.0(5) . 1_564
O2 O1 O2 92.2(3) 3_565 1_564
O2 O1 O2 66.3(2) 4_455 1_564
La O1 O2 161.75(16) 1_556 1_564
La O1 O2 132.64(13) 2_566 1_564
La O1 O2 114.24(13) 4_456 1_564
O3 O1 O2 165.3(4) 1_556 1_564
O3 O1 O2 103.90(19) 3_566 1_564
O3 O1 O2 102.58(18) 4_456 1_564
O3 O1 O2 96.6(4) 4 1_564
O3 O1 O2 72.8(3) 3_455 1_564
O3 O1 O2 32.3(2) 1_565 1_564
Ga2 O1 O2 70.49(18) 1_565 1_564
Ga2 O1 O2 131.1(3) . 1_564
Ga2 O1 O2 112.2(2) 1_665 1_564
O1 O1 O2 32.8(4) 2_465 1_564
O1 O1 O2 97.2(6) 2_455 1_564
O1 O1 O2 81.6(5) 2_565 1_564
O1 O1 O2 38.2(2) 1_554 1_564
O1 O1 O2 141.8(2) 1_556 1_564
Ga3 O1 O2 145.4(4) 4_446 1_564
Ga3 O1 O2 90.25(17) 1_666 1_564
Ga3 O1 O2 83.58(17) 2_465 1_564
O3 O1 O2 149.0(3) 4_556 1_564
O3 O1 O2 118.5(2) 3_456 1_564
O3 O1 O2 88.1(2) 1_566 1_564
O3 O1 O2 124.8(4) 5 1_564
O3 O1 O2 93.3(3) 2_455 1_564
O3 O1 O2 60.1(2) 6_565 1_564
O2 O1 O2 64.7(3) 3_454 1_564
O2 O1 O2 64.7(3) 4_554 1_564
Ga2 O1 O3 146.13(17) 2_566 6_554
La O1 O3 46.2(4) . 6_554
La O1 O3 67.1(4) 2_565 6_554
La O1 O3 101.3(6) 4_455 6_554
O2 O1 O3 15.9(2) 6 6_554
O2 O1 O3 46.7(4) 5_455 6_554
O2 O1 O3 64.7(5) 2_565 6_554
O2 O1 O3 116.8(3) 6_556 6_554
O2 O1 O3 135.4(3) 5_456 6_554
O2 O1 O3 163.2(2) 2_566 6_554
O3 O1 O3 61.4(3) 6 6_554
O3 O1 O3 110.8(5) 5_455 6_554
O3 O1 O3 110.8(5) 2_565 6_554
Ga2 O1 O3 33.88(17) 2_565 6_554
O2 O1 O3 87.6(4) 3_455 6_554
O2 O1 O3 77.4(4) 4 6_554
O2 O1 O3 132.8(6) 1_565 6_554
Ga3 O1 O3 85.4(2) 2_565 6_554
Ga3 O1 O3 116.0(3) 1_556 6_554
Ga3 O1 O3 140.6(4) 4_456 6_554
O3 O1 O3 28.5(4) . 6_554
O3 O1 O3 85.7(4) 4_455 6_554
O3 O1 O3 75.4(3) 3_565 6_554
Ga3 O1 O3 16.46(12) 2_564 6_554
Ga3 O1 O3 55.6(3) . 6_554
Ga3 O1 O3 71.8(3) 4_455 6_554
Nb O1 O3 45.19(19) . 6_554
Ga1 O1 O3 45.19(19) . 6_554
Nb O1 O3 94.0(3) 1_455 6_554
Ga1 O1 O3 94.0(3) 1_455 6_554
Nb O1 O3 98.9(3) 1_565 6_554
Ga1 O1 O3 98.9(3) 1_565 6_554
O2 O1 O3 69.6(3) . 6_554
O2 O1 O3 93.1(3) 3_565 6_554
O2 O1 O3 127.2(4) 4_455 6_554
La O1 O3 120.20(14) 1_556 6_554
La O1 O3 131.83(10) 2_566 6_554
La O1 O3 168.99(15) 4_456 6_554
O3 O1 O3 93.9(3) 1_556 6_554
O3 O1 O3 129.6(2) 3_566 6_554
O3 O1 O3 143.1(3) 4_456 6_554
O3 O1 O3 35.0(3) 4 6_554
O3 O1 O3 71.9(3) 3_455 6_554
O3 O1 O3 92.6(3) 1_565 6_554
Ga2 O1 O3 141.0(4) 1_565 6_554
Ga2 O1 O3 86.6(2) . 6_554
Ga2 O1 O3 91.33(17) 1_665 6_554
O1 O1 O3 102.3(6) 2_465 6_554
O1 O1 O3 53.0(4) 2_455 6_554
O1 O1 O3 58.6(4) 2_565 6_554
O1 O1 O3 33.88(17) 1_554 6_554
O1 O1 O3 146.13(17) 1_556 6_554
Ga3 O1 O3 75.21(18) 4_446 6_554
Ga3 O1 O3 111.7(2) 1_666 6_554
Ga3 O1 O3 129.9(3) 2_465 6_554
O3 O1 O3 91.9(3) 4_556 6_554
O3 O1 O3 120.4(3) 3_456 6_554
O3 O1 O3 146.6(2) 1_566 6_554
O3 O1 O3 61.67(17) 5 6_554
O3 O1 O3 97.8(3) 2_455 6_554
O3 O1 O3 118.5(4) 6_565 6_554
O2 O1 O3 39.9(2) 3_454 6_554
O2 O1 O3 28.70(18) 4_554 6_554
O2 O1 O3 71.7(3) 1_564 6_554
Ga2 O1 O3 146.12(18) 2_566 5_454
La O1 O3 67.1(4) . 5_454
La O1 O3 101.3(6) 2_565 5_454
La O1 O3 46.2(4) 4_455 5_454
O2 O1 O3 64.7(5) 6 5_454
O2 O1 O3 15.9(2) 5_455 5_454
O2 O1 O3 46.7(4) 2_565 5_454
O2 O1 O3 163.2(2) 6_556 5_454
O2 O1 O3 116.8(3) 5_456 5_454
O2 O1 O3 135.4(3) 2_566 5_454
O3 O1 O3 110.8(5) 6 5_454
O3 O1 O3 61.4(3) 5_455 5_454
O3 O1 O3 110.8(5) 2_565 5_454
Ga2 O1 O3 33.87(17) 2_565 5_454
O2 O1 O3 77.4(4) 3_455 5_454
O2 O1 O3 132.8(6) 4 5_454
O2 O1 O3 87.6(4) 1_565 5_454
Ga3 O1 O3 140.6(4) 2_565 5_454
Ga3 O1 O3 85.4(2) 1_556 5_454
Ga3 O1 O3 116.0(3) 4_456 5_454
O3 O1 O3 75.4(3) . 5_454
O3 O1 O3 28.5(4) 4_455 5_454
O3 O1 O3 85.7(4) 3_565 5_454
Ga3 O1 O3 71.8(3) 2_564 5_454
Ga3 O1 O3 16.46(12) . 5_454
Ga3 O1 O3 55.6(3) 4_455 5_454
Nb O1 O3 98.9(3) . 5_454
Ga1 O1 O3 98.9(3) . 5_454
Nb O1 O3 45.19(19) 1_455 5_454
Ga1 O1 O3 45.19(19) 1_455 5_454
Nb O1 O3 94.0(3) 1_565 5_454
Ga1 O1 O3 94.0(3) 1_565 5_454
O2 O1 O3 93.1(3) . 5_454
O2 O1 O3 127.2(4) 3_565 5_454
O2 O1 O3 69.6(3) 4_455 5_454
La O1 O3 131.83(10) 1_556 5_454
La O1 O3 168.99(15) 2_566 5_454
La O1 O3 120.20(14) 4_456 5_454
O3 O1 O3 129.6(2) 1_556 5_454
O3 O1 O3 143.1(3) 3_566 5_454
O3 O1 O3 93.9(3) 4_456 5_454
O3 O1 O3 92.6(3) 4 5_454
O3 O1 O3 35.0(3) 3_455 5_454
O3 O1 O3 71.9(3) 1_565 5_454
Ga2 O1 O3 86.6(2) 1_565 5_454
Ga2 O1 O3 91.33(17) . 5_454
Ga2 O1 O3 141.0(4) 1_665 5_454
O1 O1 O3 53.0(4) 2_465 5_454
O1 O1 O3 58.6(4) 2_455 5_454
O1 O1 O3 102.3(6) 2_565 5_454
O1 O1 O3 33.88(18) 1_554 5_454
O1 O1 O3 146.12(18) 1_556 5_454
Ga3 O1 O3 111.7(2) 4_446 5_454
Ga3 O1 O3 129.9(3) 1_666 5_454
Ga3 O1 O3 75.21(18) 2_465 5_454
O3 O1 O3 146.6(2) 4_556 5_454
O3 O1 O3 91.9(3) 3_456 5_454
O3 O1 O3 120.4(3) 1_566 5_454
O3 O1 O3 118.5(4) 5 5_454
O3 O1 O3 61.67(17) 2_455 5_454
O3 O1 O3 97.8(3) 6_565 5_454
O2 O1 O3 28.70(18) 3_454 5_454
O2 O1 O3 71.7(3) 4_554 5_454
O2 O1 O3 39.9(2) 1_564 5_454
O3 O1 O3 57.7(3) 6_554 5_454
Ga2 O1 O3 146.12(18) 2_566 2_564
La O1 O3 101.3(6) . 2_564
La O1 O3 46.2(4) 2_565 2_564
La O1 O3 67.1(4) 4_455 2_564
O2 O1 O3 46.7(4) 6 2_564
O2 O1 O3 64.7(5) 5_455 2_564
O2 O1 O3 15.9(2) 2_565 2_564
O2 O1 O3 135.4(3) 6_556 2_564
O2 O1 O3 163.2(2) 5_456 2_564
O2 O1 O3 116.8(3) 2_566 2_564
O3 O1 O3 110.8(5) 6 2_564
O3 O1 O3 110.8(5) 5_455 2_564
O3 O1 O3 61.4(3) 2_565 2_564
Ga2 O1 O3 33.87(17) 2_565 2_564
O2 O1 O3 132.8(6) 3_455 2_564
O2 O1 O3 87.6(4) 4 2_564
O2 O1 O3 77.4(4) 1_565 2_564
Ga3 O1 O3 116.0(3) 2_565 2_564
Ga3 O1 O3 140.6(4) 1_556 2_564
Ga3 O1 O3 85.4(2) 4_456 2_564
O3 O1 O3 85.7(4) . 2_564
O3 O1 O3 75.4(3) 4_455 2_564
O3 O1 O3 28.5(4) 3_565 2_564
Ga3 O1 O3 55.6(3) 2_564 2_564
Ga3 O1 O3 71.8(3) . 2_564
Ga3 O1 O3 16.46(12) 4_455 2_564
Nb O1 O3 94.0(3) . 2_564
Ga1 O1 O3 94.0(3) . 2_564
Nb O1 O3 98.9(3) 1_455 2_564
Ga1 O1 O3 98.9(3) 1_455 2_564
Nb O1 O3 45.19(19) 1_565 2_564
Ga1 O1 O3 45.19(19) 1_565 2_564
O2 O1 O3 127.2(4) . 2_564
O2 O1 O3 69.6(3) 3_565 2_564
O2 O1 O3 93.1(3) 4_455 2_564
La O1 O3 168.99(15) 1_556 2_564
La O1 O3 120.20(14) 2_566 2_564
La O1 O3 131.82(10) 4_456 2_564
O3 O1 O3 143.1(3) 1_556 2_564
O3 O1 O3 93.9(3) 3_566 2_564
O3 O1 O3 129.6(2) 4_456 2_564
O3 O1 O3 71.9(3) 4 2_564
O3 O1 O3 92.6(3) 3_455 2_564
O3 O1 O3 35.0(3) 1_565 2_564
Ga2 O1 O3 91.33(17) 1_565 2_564
Ga2 O1 O3 141.0(4) . 2_564
Ga2 O1 O3 86.6(2) 1_665 2_564
O1 O1 O3 58.6(4) 2_465 2_564
O1 O1 O3 102.3(6) 2_455 2_564
O1 O1 O3 53.0(4) 2_565 2_564
O1 O1 O3 33.88(17) 1_554 2_564
O1 O1 O3 146.12(17) 1_556 2_564
Ga3 O1 O3 129.9(3) 4_446 2_564
Ga3 O1 O3 75.21(18) 1_666 2_564
Ga3 O1 O3 111.7(2) 2_465 2_564
O3 O1 O3 120.4(3) 4_556 2_564
O3 O1 O3 146.6(2) 3_456 2_564
O3 O1 O3 91.9(3) 1_566 2_564
O3 O1 O3 97.8(3) 5 2_564
O3 O1 O3 118.5(4) 2_455 2_564
O3 O1 O3 61.67(17) 6_565 2_564
O2 O1 O3 71.7(3) 3_454 2_564
O2 O1 O3 39.9(2) 4_554 2_564
O2 O1 O3 28.70(18) 1_564 2_564
O3 O1 O3 57.7(3) 6_554 2_564
O3 O1 O3 57.7(3) 5_454 2_564
Ga2 O1 O1 55.4(4) 2_566 2_466
La O1 O1 137.8(3) . 2_466
La O1 O1 114.03(18) 2_565 2_466
La O1 O1 57.08(10) 4_455 2_466
O2 O1 O1 152.8(6) 6 2_466
O2 O1 O1 115.0(3) 5_455 2_466
O2 O1 O1 96.0(3) 2_565 2_466
O2 O1 O1 85.0(6) 6_556 2_466
O2 O1 O1 58.0(4) 5_456 2_466
O2 O1 O1 33.8(3) 2_566 2_466
O3 O1 O1 139.8(8) 6 2_466
O3 O1 O1 58.3(3) 5_455 2_466
O3 O1 O1 66.6(3) 2_565 2_466
Ga2 O1 O1 124.6(4) 2_565 2_466
O2 O1 O1 95.9(4) 3_455 2_466
O2 O1 O1 119.1(6) 4 2_466
O2 O1 O1 28.8(3) 1_565 2_466
Ga3 O1 O1 116.2(7) 2_565 2_466
Ga3 O1 O1 65.6(3) 1_556 2_466
Ga3 O1 O1 36.81(13) 4_456 2_466
O3 O1 O1 164.3(3) . 2_466
O3 O1 O1 75.2(2) 4_455 2_466
O3 O1 O1 96.71(13) 3_565 2_466
Ga3 O1 O1 161.5(4) 2_564 2_466
Ga3 O1 O1 107.46(18) . 2_466
Ga3 O1 O1 90.38(19) 4_455 2_466
Nb O1 O1 156.5(7) . 2_466
Ga1 O1 O1 156.5(7) . 2_466
Nb O1 O1 72.863(5) 1_455 2_466
Ga1 O1 O1 72.863(5) 1_455 2_466
Nb O1 O1 72.863(6) 1_565 2_466
Ga1 O1 O1 72.863(6) 1_565 2_466
O2 O1 O1 123.5(5) . 2_466
O2 O1 O1 94.4(3) 3_565 2_466
O2 O1 O1 32.9(2) 4_455 2_466
La O1 O1 78.5(5) 1_556 2_466
La O1 O1 67.7(4) 2_566 2_466
La O1 O1 26.9(2) 4_456 2_466
O3 O1 O1 106.5(6) 1_556 2_466
O3 O1 O1 60.9(3) 3_566 2_466
O3 O1 O1 34.4(2) 4_456 2_466
O3 O1 O1 161.4(3) 4 2_466
O3 O1 O1 96.03(12) 3_455 2_466
O3 O1 O1 71.78(18) 1_565 2_466
Ga2 O1 O1 17.28(14) 1_565 2_466
Ga2 O1 O1 103.0(4) . 2_466
Ga2 O1 O1 103.0(4) 1_665 2_466
O1 O1 O1 56.01(11) 2_465 2_466
O1 O1 O1 126.2(2) 2_455 2_466
O1 O1 O1 126.2(2) 2_565 2_466
O1 O1 O1 124.6(4) 1_554 2_466
O1 O1 O1 55.4(4) 1_556 2_466
Ga3 O1 O1 123.6(6) 4_446 2_466
Ga3 O1 O1 74.0(2) 1_666 2_466
Ga3 O1 O1 37.48(3) 2_465 2_466
O3 O1 O1 109.7(6) 4_556 2_466
O3 O1 O1 63.6(3) 3_456 2_466
O3 O1 O1 33.78(16) 1_566 2_466
O3 O1 O1 139.5(6) 5 2_466
O3 O1 O1 76.29(16) 2_455 2_466
O3 O1 O1 51.82(13) 6_565 2_466
O2 O1 O1 124.8(3) 3_454 2_466
O2 O1 O1 144.2(3) 4_554 2_466
O2 O1 O1 87.5(3) 1_564 2_466
O3 O1 O1 158.2(5) 6_554 2_466
O3 O1 O1 101.9(3) 5_454 2_466
O3 O1 O1 106.2(3) 2_564 2_466
Ga2 O1 O1 55.4(4) 2_566 2_456
La O1 O1 57.08(10) . 2_456
La O1 O1 137.8(3) 2_565 2_456
La O1 O1 114.03(18) 4_455 2_456
O2 O1 O1 115.0(3) 6 2_456
O2 O1 O1 96.0(3) 5_455 2_456
O2 O1 O1 152.8(6) 2_565 2_456
O2 O1 O1 58.0(4) 6_556 2_456
O2 O1 O1 33.8(3) 5_456 2_456
O2 O1 O1 85.0(6) 2_566 2_456
O3 O1 O1 58.3(3) 6 2_456
O3 O1 O1 66.6(3) 5_455 2_456
O3 O1 O1 139.8(8) 2_565 2_456
Ga2 O1 O1 124.6(4) 2_565 2_456
O2 O1 O1 28.8(3) 3_455 2_456
O2 O1 O1 95.9(4) 4 2_456
O2 O1 O1 119.1(6) 1_565 2_456
Ga3 O1 O1 65.6(3) 2_565 2_456
Ga3 O1 O1 36.82(13) 1_556 2_456
Ga3 O1 O1 116.2(7) 4_456 2_456
O3 O1 O1 75.2(2) . 2_456
O3 O1 O1 96.72(13) 4_455 2_456
O3 O1 O1 164.3(3) 3_565 2_456
Ga3 O1 O1 107.46(18) 2_564 2_456
Ga3 O1 O1 90.38(19) . 2_456
Ga3 O1 O1 161.5(4) 4_455 2_456
Nb O1 O1 72.863(6) . 2_456
Ga1 O1 O1 72.863(6) . 2_456
Nb O1 O1 72.863(6) 1_455 2_456
Ga1 O1 O1 72.863(6) 1_455 2_456
Nb O1 O1 156.5(7) 1_565 2_456
Ga1 O1 O1 156.5(7) 1_565 2_456
O2 O1 O1 32.9(2) . 2_456
O2 O1 O1 123.5(5) 3_565 2_456
O2 O1 O1 94.4(3) 4_455 2_456
La O1 O1 26.9(2) 1_556 2_456
La O1 O1 78.5(5) 2_566 2_456
La O1 O1 67.7(4) 4_456 2_456
O3 O1 O1 34.4(2) 1_556 2_456
O3 O1 O1 106.5(6) 3_566 2_456
O3 O1 O1 60.9(3) 4_456 2_456
O3 O1 O1 96.03(12) 4 2_456
O3 O1 O1 71.79(18) 3_455 2_456
O3 O1 O1 161.4(3) 1_565 2_456
Ga2 O1 O1 103.0(4) 1_565 2_456
Ga2 O1 O1 17.28(14) . 2_456
Ga2 O1 O1 103.0(4) 1_665 2_456
O1 O1 O1 126.2(2) 2_465 2_456
O1 O1 O1 56.01(11) 2_455 2_456
O1 O1 O1 126.2(2) 2_565 2_456
O1 O1 O1 124.6(4) 1_554 2_456
O1 O1 O1 55.4(4) 1_556 2_456
Ga3 O1 O1 37.48(3) 4_446 2_456
Ga3 O1 O1 123.6(6) 1_666 2_456
Ga3 O1 O1 74.0(2) 2_465 2_456
O3 O1 O1 63.6(3) 4_556 2_456
O3 O1 O1 33.78(16) 3_456 2_456
O3 O1 O1 109.7(6) 1_566 2_456
O3 O1 O1 76.29(16) 5 2_456
O3 O1 O1 51.82(13) 2_455 2_456
O3 O1 O1 139.5(6) 6_565 2_456
O2 O1 O1 87.5(3) 3_454 2_456
O2 O1 O1 124.8(3) 4_554 2_456
O2 O1 O1 144.2(3) 1_564 2_456
O3 O1 O1 101.9(3) 6_554 2_456
O3 O1 O1 106.2(3) 5_454 2_456
O3 O1 O1 158.2(5) 2_564 2_456
O1 O1 O1 91.0(5) 2_466 2_456
Ga2 O1 O1 55.4(4) 2_566 2_566
La O1 O1 114.03(18) . 2_566
La O1 O1 57.08(10) 2_565 2_566
La O1 O1 137.8(3) 4_455 2_566
O2 O1 O1 96.0(3) 6 2_566
O2 O1 O1 152.8(6) 5_455 2_566
O2 O1 O1 115.0(3) 2_565 2_566
O2 O1 O1 33.8(3) 6_556 2_566
O2 O1 O1 85.0(6) 5_456 2_566
O2 O1 O1 58.0(4) 2_566 2_566
O3 O1 O1 66.6(3) 6 2_566
O3 O1 O1 139.8(8) 5_455 2_566
O3 O1 O1 58.3(3) 2_565 2_566
Ga2 O1 O1 124.6(4) 2_565 2_566
O2 O1 O1 119.1(6) 3_455 2_566
O2 O1 O1 28.8(3) 4 2_566
O2 O1 O1 95.9(4) 1_565 2_566
Ga3 O1 O1 36.81(13) 2_565 2_566
Ga3 O1 O1 116.2(7) 1_556 2_566
Ga3 O1 O1 65.6(3) 4_456 2_566
O3 O1 O1 96.72(13) . 2_566
O3 O1 O1 164.3(3) 4_455 2_566
O3 O1 O1 75.2(2) 3_565 2_566
Ga3 O1 O1 90.38(19) 2_564 2_566
Ga3 O1 O1 161.5(4) . 2_566
Ga3 O1 O1 107.46(18) 4_455 2_566
Nb O1 O1 72.863(6) . 2_566
Ga1 O1 O1 72.863(6) . 2_566
Nb O1 O1 156.5(7) 1_455 2_566
Ga1 O1 O1 156.5(7) 1_455 2_566
Nb O1 O1 72.863(5) 1_565 2_566
Ga1 O1 O1 72.863(5) 1_565 2_566
O2 O1 O1 94.4(3) . 2_566
O2 O1 O1 32.9(2) 3_565 2_566
O2 O1 O1 123.5(5) 4_455 2_566
La O1 O1 67.7(4) 1_556 2_566
La O1 O1 26.9(2) 2_566 2_566
La O1 O1 78.5(5) 4_456 2_566
O3 O1 O1 60.9(3) 1_556 2_566
O3 O1 O1 34.4(2) 3_566 2_566
O3 O1 O1 106.5(6) 4_456 2_566
O3 O1 O1 71.78(18) 4 2_566
O3 O1 O1 161.4(3) 3_455 2_566
O3 O1 O1 96.03(12) 1_565 2_566
Ga2 O1 O1 103.0(4) 1_565 2_566
Ga2 O1 O1 103.0(4) . 2_566
Ga2 O1 O1 17.28(14) 1_665 2_566
O1 O1 O1 126.2(2) 2_465 2_566
O1 O1 O1 126.2(2) 2_455 2_566
O1 O1 O1 56.01(11) 2_565 2_566
O1 O1 O1 124.6(4) 1_554 2_566
O1 O1 O1 55.4(4) 1_556 2_566
Ga3 O1 O1 74.0(2) 4_446 2_566
Ga3 O1 O1 37.48(3) 1_666 2_566
Ga3 O1 O1 123.6(6) 2_465 2_566
O3 O1 O1 33.78(16) 4_556 2_566
O3 O1 O1 109.7(6) 3_456 2_566
O3 O1 O1 63.6(3) 1_566 2_566
O3 O1 O1 51.82(13) 5 2_566
O3 O1 O1 139.5(6) 2_455 2_566
O3 O1 O1 76.29(16) 6_565 2_566
O2 O1 O1 144.2(3) 3_454 2_566
O2 O1 O1 87.5(3) 4_554 2_566
O2 O1 O1 124.8(3) 1_564 2_566
O3 O1 O1 106.2(3) 6_554 2_566
O3 O1 O1 158.2(5) 5_454 2_566
O3 O1 O1 101.9(3) 2_564 2_566
O1 O1 O1 91.0(6) 2_466 2_566
O1 O1 O1 91.0(5) 2_456 2_566
Ga2 O1 O3 87.1(3) 2_566 2
La O1 O3 40.95(19) . 2
La O1 O3 87.28(13) 2_565 2
La O1 O3 149.0(4) 4_455 2
O2 O1 O3 65.9(2) 6 2
O2 O1 O3 89.6(3) 5_455 2
O2 O1 O3 123.0(5) 2_565 2
O2 O1 O3 61.8(3) 6_556 2
O2 O1 O3 84.8(3) 5_456 2
O2 O1 O3 115.6(5) 2_566 2
O3 O1 O3 6.7(3) 6 2
O3 O1 O3 113.3(3) 5_455 2
O3 O1 O3 125.7(3) 2_565 2
Ga2 O1 O3 92.9(3) 2_565 2
O2 O1 O3 64.3(2) 3_455 2
O2 O1 O3 55.6(2) 4 2
O2 O1 O3 166.6(6) 1_565 2
Ga3 O1 O3 36.86(15) 2_565 2
Ga3 O1 O3 89.39(18) 1_556 2
Ga3 O1 O3 137.8(4) 4_456 2
O3 O1 O3 32.4(3) . 2
O3 O1 O3 122.5(2) 4_455 2
O3 O1 O3 112.45(18) 3_565 2
Ga3 O1 O3 56.55(14) 2_564 2
Ga3 O1 O3 92.7(2) . 2
Ga3 O1 O3 128.1(4) 4_455 2
Nb O1 O3 18.10(12) . 2
Ga1 O1 O3 18.10(12) . 2
Nb O1 O3 108.76(13) 1_455 2
Ga1 O1 O3 108.76(13) 1_455 2
Nb O1 O3 131.19(15) 1_565 2
Ga1 O1 O3 131.19(15) 1_565 2
O2 O1 O3 29.08(17) . 2
O2 O1 O3 90.73(17) 3_565 2
O2 O1 O3 147.4(2) 4_455 2
La O1 O3 62.52(17) 1_556 2
La O1 O3 85.4(2) 2_566 2
La O1 O3 114.1(4) 4_456 2
O3 O1 O3 34.7(3) 1_556 2
O3 O1 O3 107.1(2) 3_566 2
O3 O1 O3 115.8(3) 4_456 2
O3 O1 O3 41.1(2) 4 2
O3 O1 O3 90.9(2) 3_455 2
O3 O1 O3 143.6(3) 1_565 2
Ga2 O1 O3 156.8(5) 1_565 2
Ga2 O1 O3 49.72(12) . 2
Ga2 O1 O3 71.42(13) 1_665 2
O1 O1 O3 158.4(6) 2_465 2
O1 O1 O3 53.38(16) 2_455 2
O1 O1 O3 73.92(11) 2_565 2
O1 O1 O3 92.9(3) 1_554 2
O1 O1 O3 87.1(3) 1_556 2
Ga3 O1 O3 18.21(12) 4_446 2
Ga3 O1 O3 107.18(17) 1_666 2
Ga3 O1 O3 127.4(2) 2_465 2
O3 O1 O3 41.7(3) 4_556 2
O3 O1 O3 88.0(2) 3_456 2
O3 O1 O3 134.1(4) 1_566 2
O3 O1 O3 26.94(13) 5 2
O3 O1 O3 92.85(14) 2_455 2
O3 O1 O3 146.43(17) 6_565 2
O2 O1 O3 76.9(2) 3_454 2
O2 O1 O3 72.1(2) 4_554 2
O2 O1 O3 131.0(4) 1_564 2
O3 O1 O3 59.29(15) 6_554 2
O3 O1 O3 105.5(3) 5_454 2
O3 O1 O3 111.8(4) 2_564 2
O1 O1 O3 141.0(6) 2_466 2
O1 O1 O3 55.00(11) 2_456 2
O1 O1 O3 73.09(15) 2_566 2
Ga2 O1 O3 87.1(3) 2_566 6_455
La O1 O3 87.28(13) . 6_455
La O1 O3 149.0(4) 2_565 6_455
La O1 O3 40.95(19) 4_455 6_455
O2 O1 O3 123.0(5) 6 6_455
O2 O1 O3 65.9(2) 5_455 6_455
O2 O1 O3 89.6(3) 2_565 6_455
O2 O1 O3 115.6(5) 6_556 6_455
O2 O1 O3 61.8(3) 5_456 6_455
O2 O1 O3 84.8(3) 2_566 6_455
O3 O1 O3 125.7(3) 6 6_455
O3 O1 O3 6.7(3) 5_455 6_455
O3 O1 O3 113.3(3) 2_565 6_455
Ga2 O1 O3 92.9(3) 2_565 6_455
O2 O1 O3 55.6(2) 3_455 6_455
O2 O1 O3 166.6(6) 4 6_455
O2 O1 O3 64.3(2) 1_565 6_455
Ga3 O1 O3 137.8(4) 2_565 6_455
Ga3 O1 O3 36.86(15) 1_556 6_455
Ga3 O1 O3 89.39(18) 4_456 6_455
O3 O1 O3 112.45(18) . 6_455
O3 O1 O3 32.4(3) 4_455 6_455
O3 O1 O3 122.5(2) 3_565 6_455
Ga3 O1 O3 128.1(4) 2_564 6_455
Ga3 O1 O3 56.55(14) . 6_455
Ga3 O1 O3 92.7(2) 4_455 6_455
Nb O1 O3 131.19(15) . 6_455
Ga1 O1 O3 131.19(15) . 6_455
Nb O1 O3 18.10(12) 1_455 6_455
Ga1 O1 O3 18.10(12) 1_455 6_455
Nb O1 O3 108.76(13) 1_565 6_455
Ga1 O1 O3 108.76(13) 1_565 6_455
O2 O1 O3 90.73(17) . 6_455
O2 O1 O3 147.4(2) 3_565 6_455
O2 O1 O3 29.08(17) 4_455 6_455
La O1 O3 85.4(2) 1_556 6_455
La O1 O3 114.1(4) 2_566 6_455
La O1 O3 62.52(17) 4_456 6_455
O3 O1 O3 107.1(2) 1_556 6_455
O3 O1 O3 115.8(3) 3_566 6_455
O3 O1 O3 34.7(3) 4_456 6_455
O3 O1 O3 143.6(3) 4 6_455
O3 O1 O3 41.1(2) 3_455 6_455
O3 O1 O3 90.9(2) 1_565 6_455
Ga2 O1 O3 49.72(12) 1_565 6_455
Ga2 O1 O3 71.42(13) . 6_455
Ga2 O1 O3 156.8(5) 1_665 6_455
O1 O1 O3 53.38(16) 2_465 6_455
O1 O1 O3 73.92(11) 2_455 6_455
O1 O1 O3 158.4(6) 2_565 6_455
O1 O1 O3 92.9(3) 1_554 6_455
O1 O1 O3 87.1(3) 1_556 6_455
Ga3 O1 O3 107.18(17) 4_446 6_455
Ga3 O1 O3 127.4(2) 1_666 6_455
Ga3 O1 O3 18.21(12) 2_465 6_455
O3 O1 O3 134.1(4) 4_556 6_455
O3 O1 O3 41.7(3) 3_456 6_455
O3 O1 O3 88.0(2) 1_566 6_455
O3 O1 O3 146.43(17) 5 6_455
O3 O1 O3 26.94(13) 2_455 6_455
O3 O1 O3 92.85(14) 6_565 6_455
O2 O1 O3 72.1(2) 3_454 6_455
O2 O1 O3 131.0(4) 4_554 6_455
O2 O1 O3 76.9(2) 1_564 6_455
O3 O1 O3 111.8(4) 6_554 6_455
O3 O1 O3 59.29(15) 5_454 6_455
O3 O1 O3 105.5(3) 2_564 6_455
O1 O1 O3 55.00(11) 2_466 6_455
O1 O1 O3 73.09(15) 2_456 6_455
O1 O1 O3 141.0(6) 2_566 6_455
O3 O1 O3 119.74(5) 2 6_455
Ga2 O1 O3 87.1(3) 2_566 5_565
La O1 O3 149.0(4) . 5_565
La O1 O3 40.95(19) 2_565 5_565
La O1 O3 87.28(13) 4_455 5_565
O2 O1 O3 89.6(3) 6 5_565
O2 O1 O3 123.0(5) 5_455 5_565
O2 O1 O3 65.9(2) 2_565 5_565
O2 O1 O3 84.8(3) 6_556 5_565
O2 O1 O3 115.6(5) 5_456 5_565
O2 O1 O3 61.8(3) 2_566 5_565
O3 O1 O3 113.3(3) 6 5_565
O3 O1 O3 125.7(3) 5_455 5_565
O3 O1 O3 6.7(3) 2_565 5_565
Ga2 O1 O3 92.9(3) 2_565 5_565
O2 O1 O3 166.6(6) 3_455 5_565
O2 O1 O3 64.3(2) 4 5_565
O2 O1 O3 55.6(2) 1_565 5_565
Ga3 O1 O3 89.39(18) 2_565 5_565
Ga3 O1 O3 137.8(4) 1_556 5_565
Ga3 O1 O3 36.86(15) 4_456 5_565
O3 O1 O3 122.5(2) . 5_565
O3 O1 O3 112.45(18) 4_455 5_565
O3 O1 O3 32.4(3) 3_565 5_565
Ga3 O1 O3 92.7(2) 2_564 5_565
Ga3 O1 O3 128.1(4) . 5_565
Ga3 O1 O3 56.55(14) 4_455 5_565
Nb O1 O3 108.76(13) . 5_565
Ga1 O1 O3 108.76(13) . 5_565
Nb O1 O3 131.19(15) 1_455 5_565
Ga1 O1 O3 131.19(15) 1_455 5_565
Nb O1 O3 18.10(12) 1_565 5_565
Ga1 O1 O3 18.10(12) 1_565 5_565
O2 O1 O3 147.4(2) . 5_565
O2 O1 O3 29.08(17) 3_565 5_565
O2 O1 O3 90.73(17) 4_455 5_565
La O1 O3 114.1(4) 1_556 5_565
La O1 O3 62.52(17) 2_566 5_565
La O1 O3 85.4(2) 4_456 5_565
O3 O1 O3 115.8(3) 1_556 5_565
O3 O1 O3 34.7(3) 3_566 5_565
O3 O1 O3 107.1(2) 4_456 5_565
O3 O1 O3 90.9(2) 4 5_565
O3 O1 O3 143.6(3) 3_455 5_565
O3 O1 O3 41.1(2) 1_565 5_565
Ga2 O1 O3 71.42(13) 1_565 5_565
Ga2 O1 O3 156.8(5) . 5_565
Ga2 O1 O3 49.72(12) 1_665 5_565
O1 O1 O3 73.92(11) 2_465 5_565
O1 O1 O3 158.4(6) 2_455 5_565
O1 O1 O3 53.38(16) 2_565 5_565
O1 O1 O3 92.9(3) 1_554 5_565
O1 O1 O3 87.1(3) 1_556 5_565
Ga3 O1 O3 127.4(2) 4_446 5_565
Ga3 O1 O3 18.21(12) 1_666 5_565
Ga3 O1 O3 107.18(17) 2_465 5_565
O3 O1 O3 88.0(2) 4_556 5_565
O3 O1 O3 134.1(4) 3_456 5_565
O3 O1 O3 41.7(3) 1_566 5_565
O3 O1 O3 92.85(14) 5 5_565
O3 O1 O3 146.43(17) 2_455 5_565
O3 O1 O3 26.94(13) 6_565 5_565
O2 O1 O3 131.0(4) 3_454 5_565
O2 O1 O3 76.9(2) 4_554 5_565
O2 O1 O3 72.1(2) 1_564 5_565
O3 O1 O3 105.5(3) 6_554 5_565
O3 O1 O3 111.8(4) 5_454 5_565
O3 O1 O3 59.29(15) 2_564 5_565
O1 O1 O3 73.09(15) 2_466 5_565
O1 O1 O3 141.0(6) 2_456 5_565
O1 O1 O3 55.00(11) 2_566 5_565
O3 O1 O3 119.74(5) 2 5_565
O3 O1 O3 119.74(5) 6_455 5_565
Ga2 O1 La 99.0(2) 2_566 2_455
La O1 La 38.59(3) . 2_455
La O1 La 143.3(6) 2_565 2_455
La O1 La 79.27(13) 4_455 2_455
O2 O1 La 91.9(3) 6 2_455
O2 O1 La 48.5(2) 5_455 2_455
O2 O1 La 103.9(4) 2_565 2_455
O2 O1 La 106.7(3) 6_556 2_455
O2 O1 La 68.1(2) 5_456 2_455
O2 O1 La 118.9(4) 2_566 2_455
O3 O1 La 79.5(2) 6 2_455
O3 O1 La 43.8(2) 5_455 2_455
O3 O1 La 161.3(2) 2_565 2_455
Ga2 O1 La 81.0(2) 2_565 2_455
O2 O1 La 20.2(3) 3_455 2_455
O2 O1 La 128.54(16) 4 2_455
O2 O1 La 113.21(17) 1_565 2_455
Ga3 O1 La 104.14(8) 2_565 2_455
Ga3 O1 La 40.29(9) 1_556 2_455
Ga3 O1 La 137.0(2) 4_456 2_455
O3 O1 La 64.97(15) . 2_455
O3 O1 La 54.05(14) 4_455 2_455
O3 O1 La 141.6(5) 3_565 2_455
Ga3 O1 La 90.9(2) 2_564 2_455
Ga3 O1 La 41.63(4) . 2_455
Ga3 O1 La 112.7(3) 4_455 2_455
Nb O1 La 82.08(8) . 2_455
Ga1 O1 La 82.08(8) . 2_455
Nb O1 La 35.86(3) 1_455 2_455
Ga1 O1 La 35.86(3) 1_455 2_455
Nb O1 La 149.1(3) 1_565 2_455
Ga1 O1 La 149.1(3) 1_565 2_455
O2 O1 La 46.04(14) . 2_455
O2 O1 La 163.34(14) 3_565 2_455
O2 O1 La 78.13(12) 4_455 2_455
La O1 La 75.14(10) 1_556 2_455
La O1 La 126.6(3) 2_566 2_455
La O1 La 93.70(17) 4_456 2_455
O3 O1 La 77.17(15) 1_556 2_455
O3 O1 La 151.2(4) 3_566 2_455
O3 O1 La 68.20(13) 4_456 2_455
O3 O1 La 97.2(2) 4 2_455
O3 O1 La 23.56(13) 3_455 2_455
O3 O1 La 125.9(3) 1_565 2_455
Ga2 O1 La 98.69(3) 1_565 2_455
Ga2 O1 La 35.15(3) . 2_455
Ga2 O1 La 143.68(10) 1_665 2_455
O1 O1 La 92.58(18) 2_465 2_455
O1 O1 La 25.92(9) 2_455 2_455
O1 O1 La 133.1(4) 2_565 2_455
O1 O1 La 81.0(2) 1_554 2_455
O1 O1 La 99.0(2) 1_556 2_455
Ga3 O1 La 66.10(2) 4_446 2_455
Ga3 O1 La 171.2(5) 1_666 2_455
Ga3 O1 La 63.84(2) 2_465 2_455
O3 O1 La 105.42(15) 4_556 2_455
O3 O1 La 45.58(14) 3_456 2_455
O3 O1 La 133.8(3) 1_566 2_455
O3 O1 La 99.52(10) 5 2_455
O3 O1 La 24.08(11) 2_455 2_455
O3 O1 La 140.67(12) 6_565 2_455
O2 O1 La 43.33(16) 3_454 2_455
O2 O1 La 104.5(3) 4_554 2_455
O2 O1 La 96.2(3) 1_564 2_455
O3 O1 La 76.1(2) 6_554 2_455
O3 O1 La 57.20(15) 5_454 2_455
O3 O1 La 113.1(4) 2_564 2_455
O1 O1 La 100.31(10) 2_466 2_455
O1 O1 La 48.96(13) 2_456 2_455
O1 O1 La 138.0(3) 2_566 2_455
O3 O1 La 72.91(12) 2 2_455
O3 O1 La 49.14(11) 6_455 2_455
O3 O1 La 166.5(2) 5_565 2_455
Ga2 O1 La 99.0(2) 2_566 4
La O1 La 79.27(13) . 4
La O1 La 38.59(3) 2_565 4
La O1 La 143.2(6) 4_455 4
O2 O1 La 48.5(2) 6 4
O2 O1 La 103.9(4) 5_455 4
O2 O1 La 91.9(3) 2_565 4
O2 O1 La 68.1(2) 6_556 4
O2 O1 La 118.9(4) 5_456 4
O2 O1 La 106.7(3) 2_566 4
O3 O1 La 43.8(2) 6 4
O3 O1 La 161.3(2) 5_455 4
O3 O1 La 79.5(2) 2_565 4
Ga2 O1 La 81.0(2) 2_565 4
O2 O1 La 113.21(16) 3_455 4
O2 O1 La 20.2(3) 4 4
O2 O1 La 128.54(16) 1_565 4
Ga3 O1 La 40.29(9) 2_565 4
Ga3 O1 La 137.0(2) 1_556 4
Ga3 O1 La 104.14(9) 4_456 4
O3 O1 La 54.05(14) . 4
O3 O1 La 141.6(5) 4_455 4
O3 O1 La 64.97(15) 3_565 4
Ga3 O1 La 41.63(4) 2_564 4
Ga3 O1 La 112.7(3) . 4
Ga3 O1 La 90.9(2) 4_455 4
Nb O1 La 35.86(3) . 4
Ga1 O1 La 35.86(3) . 4
Nb O1 La 149.1(3) 1_455 4
Ga1 O1 La 149.1(3) 1_455 4
Nb O1 La 82.08(8) 1_565 4
Ga1 O1 La 82.08(8) 1_565 4
O2 O1 La 78.13(12) . 4
O2 O1 La 46.04(14) 3_565 4
O2 O1 La 163.34(14) 4_455 4
La O1 La 93.70(17) 1_556 4
La O1 La 75.14(10) 2_566 4
La O1 La 126.6(3) 4_456 4
O3 O1 La 68.20(13) 1_556 4
O3 O1 La 77.17(15) 3_566 4
O3 O1 La 151.2(4) 4_456 4
O3 O1 La 23.56(13) 4 4
O3 O1 La 125.9(3) 3_455 4
O3 O1 La 97.2(2) 1_565 4
Ga2 O1 La 143.68(10) 1_565 4
Ga2 O1 La 98.69(3) . 4
Ga2 O1 La 35.15(3) 1_665 4
O1 O1 La 133.1(4) 2_465 4
O1 O1 La 92.58(18) 2_455 4
O1 O1 La 25.92(9) 2_565 4
O1 O1 La 81.0(2) 1_554 4
O1 O1 La 99.0(2) 1_556 4
Ga3 O1 La 63.84(2) 4_446 4
Ga3 O1 La 66.10(2) 1_666 4
Ga3 O1 La 171.2(5) 2_465 4
O3 O1 La 45.58(14) 4_556 4
O3 O1 La 133.8(3) 3_456 4
O3 O1 La 105.42(15) 1_566 4
O3 O1 La 24.08(11) 5 4
O3 O1 La 140.67(12) 2_455 4
O3 O1 La 99.52(10) 6_565 4
O2 O1 La 96.2(3) 3_454 4
O2 O1 La 43.33(16) 4_554 4
O2 O1 La 104.5(3) 1_564 4
O3 O1 La 57.20(15) 6_554 4
O3 O1 La 113.1(4) 5_454 4
O3 O1 La 76.1(2) 2_564 4
O1 O1 La 138.0(3) 2_466 4
O1 O1 La 100.31(10) 2_456 4
O1 O1 La 48.96(13) 2_566 4
O3 O1 La 49.14(11) 2 4
O3 O1 La 166.5(2) 6_455 4
O3 O1 La 72.91(12) 5_565 4
La O1 La 117.61(12) 2_455 4
Ga2 O1 La 99.0(2) 2_566 1_565
La O1 La 143.3(6) . 1_565
La O1 La 79.27(13) 2_565 1_565
La O1 La 38.58(3) 4_455 1_565
O2 O1 La 103.9(4) 6 1_565
O2 O1 La 91.9(3) 5_455 1_565
O2 O1 La 48.5(2) 2_565 1_565
O2 O1 La 118.9(4) 6_556 1_565
O2 O1 La 106.7(3) 5_456 1_565
O2 O1 La 68.1(2) 2_566 1_565
O3 O1 La 161.3(2) 6 1_565
O3 O1 La 79.5(2) 5_455 1_565
O3 O1 La 43.8(2) 2_565 1_565
Ga2 O1 La 81.0(2) 2_565 1_565
O2 O1 La 128.54(16) 3_455 1_565
O2 O1 La 113.21(16) 4 1_565
O2 O1 La 20.2(3) 1_565 1_565
Ga3 O1 La 137.0(2) 2_565 1_565
Ga3 O1 La 104.14(9) 1_556 1_565
Ga3 O1 La 40.29(9) 4_456 1_565
O3 O1 La 141.6(5) . 1_565
O3 O1 La 64.97(15) 4_455 1_565
O3 O1 La 54.05(14) 3_565 1_565
Ga3 O1 La 112.7(3) 2_564 1_565
Ga3 O1 La 90.9(2) . 1_565
Ga3 O1 La 41.63(4) 4_455 1_565
Nb O1 La 149.1(3) . 1_565
Ga1 O1 La 149.1(3) . 1_565
Nb O1 La 82.08(8) 1_455 1_565
Ga1 O1 La 82.08(8) 1_455 1_565
Nb O1 La 35.86(3) 1_565 1_565
Ga1 O1 La 35.86(3) 1_565 1_565
O2 O1 La 163.34(14) . 1_565
O2 O1 La 78.13(12) 3_565 1_565
O2 O1 La 46.04(14) 4_455 1_565
La O1 La 126.6(3) 1_556 1_565
La O1 La 93.70(17) 2_566 1_565
La O1 La 75.14(10) 4_456 1_565
O3 O1 La 151.2(4) 1_556 1_565
O3 O1 La 68.20(13) 3_566 1_565
O3 O1 La 77.17(15) 4_456 1_565
O3 O1 La 125.9(3) 4 1_565
O3 O1 La 97.2(2) 3_455 1_565
O3 O1 La 23.56(13) 1_565 1_565
Ga2 O1 La 35.15(3) 1_565 1_565
Ga2 O1 La 143.68(10) . 1_565
Ga2 O1 La 98.69(3) 1_665 1_565
O1 O1 La 25.92(9) 2_465 1_565
O1 O1 La 133.1(4) 2_455 1_565
O1 O1 La 92.58(18) 2_565 1_565
O1 O1 La 81.0(2) 1_554 1_565
O1 O1 La 99.0(2) 1_556 1_565
Ga3 O1 La 171.2(5) 4_446 1_565
Ga3 O1 La 63.84(2) 1_666 1_565
Ga3 O1 La 66.10(2) 2_465 1_565
O3 O1 La 133.8(3) 4_556 1_565
O3 O1 La 105.42(15) 3_456 1_565
O3 O1 La 45.58(14) 1_566 1_565
O3 O1 La 140.67(12) 5 1_565
O3 O1 La 99.52(10) 2_455 1_565
O3 O1 La 24.08(11) 6_565 1_565
O2 O1 La 104.5(3) 3_454 1_565
O2 O1 La 96.2(3) 4_554 1_565
O2 O1 La 43.33(16) 1_564 1_565
O3 O1 La 113.1(4) 6_554 1_565
O3 O1 La 76.1(2) 5_454 1_565
O3 O1 La 57.20(15) 2_564 1_565
O1 O1 La 48.96(13) 2_466 1_565
O1 O1 La 138.0(3) 2_456 1_565
O1 O1 La 100.31(10) 2_566 1_565
O3 O1 La 166.5(2) 2 1_565
O3 O1 La 72.91(12) 6_455 1_565
O3 O1 La 49.14(11) 5_565 1_565
La O1 La 117.61(12) 2_455 1_565
La O1 La 117.61(12) 4 1_565
Ga2 O1 O2 84.5(3) 2_566 4_445
La O1 O2 33.2(2) . 4_445
La O1 O2 138.8(3) 2_565 4_445
La O1 O2 100.77(12) 4_455 4_445
O2 O1 O2 94.5(3) 6 4_445
O2 O1 O2 66.7(4) 5_455 4_445
O2 O1 O2 123.9(4) 2_565 4_445
O2 O1 O2 85.2(3) 6_556 4_445
O2 O1 O2 57.8(4) 5_456 4_445
O2 O1 O2 111.8(4) 2_566 4_445
O3 O1 O2 60.6(2) 6 4_445
O3 O1 O2 58.8(2) 5_455 4_445
O3 O1 O2 169.1(7) 2_565 4_445
Ga2 O1 O2 95.5(3) 2_565 4_445
O2 O1 O2 10.6(2) 3_455 4_445
O2 O1 O2 108.8(2) 4 4_445
O2 O1 O2 127.7(3) 1_565 4_445
Ga3 O1 O2 81.96(16) 2_565 4_445
Ga3 O1 O2 40.62(12) 1_556 4_445
Ga3 O1 O2 140.2(5) 4_456 4_445
O3 O1 O2 58.1(2) . 4_445
O3 O1 O2 76.55(18) 4_455 4_445
O3 O1 O2 154.2(5) 3_565 4_445
Ga3 O1 O2 89.88(19) 2_564 4_445
Ga3 O1 O2 61.87(16) . 4_445
Ga3 O1 O2 133.3(4) 4_455 4_445
Nb O1 O2 67.78(10) . 4_445
Ga1 O1 O2 67.78(10) . 4_445
Nb O1 O2 56.21(10) 1_455 4_445
Ga1 O1 O2 56.21(10) 1_455 4_445
Nb O1 O2 171.8(4) 1_565 4_445
Ga1 O1 O2 171.8(4) 1_565 4_445
O2 O1 O2 25.58(16) . 4_445
O2 O1 O2 143.5(3) 3_565 4_445
O2 O1 O2 93.57(18) 4_455 4_445
La O1 O2 56.45(18) 1_556 4_445
La O1 O2 107.7(3) 2_566 4_445
La O1 O2 90.0(3) 4_456 4_445
O3 O1 O2 54.44(19) 1_556 4_445
O3 O1 O2 136.0(5) 3_566 4_445
O3 O1 O2 71.79(19) 4_456 4_445
O3 O1 O2 87.93(17) 4 4_445
O3 O1 O2 46.18(18) 3_455 4_445
O3 O1 O2 148.7(3) 1_565 4_445
Ga2 O1 O2 110.94(17) 1_565 4_445
Ga2 O1 O2 13.17(16) . 4_445
Ga2 O1 O2 122.0(2) 1_665 4_445
O1 O1 O2 114.29(15) 2_465 4_445
O1 O1 O2 27.6(3) 2_455 4_445
O1 O1 O2 125.47(19) 2_565 4_445
O1 O1 O2 95.5(3) 1_554 4_445
O1 O1 O2 84.5(3) 1_556 4_445
Ga3 O1 O2 44.34(11) 4_446 4_445
Ga3 O1 O2 151.8(4) 1_666 4_445
Ga3 O1 O2 75.33(13) 2_465 4_445
O3 O1 O2 82.81(19) 4_556 4_445
O3 O1 O2 42.84(17) 3_456 4_445
O3 O1 O2 134.4(4) 1_566 4_445
O3 O1 O2 81.31(14) 5 4_445
O3 O1 O2 38.39(13) 2_455 4_445
O3 O1 O2 156.8(2) 6_565 4_445
O2 O1 O2 57.97(11) 3_454 4_445
O2 O1 O2 106.7(3) 4_554 4_445
O2 O1 O2 118.0(3) 1_564 4_445
O3 O1 O2 79.0(2) 6_554 4_445
O3 O1 O2 78.2(2) 5_454 4_445
O3 O1 O2 129.4(4) 2_564 4_445
O1 O1 O2 106.2(3) 2_466 4_445
O1 O1 O2 29.6(2) 2_456 4_445
O1 O1 O2 115.3(3) 2_566 4_445
O3 O1 O2 54.49(15) 2 4_445
O3 O1 O2 65.25(15) 6_455 4_445
O3 O1 O2 170.0(4) 5_565 4_445
La O1 O2 22.75(12) 2_455 4_445
La O1 O2 103.09(10) 4 4_445
La O1 O2 137.80(10) 1_565 4_445
Ga2 O1 O2 84.5(3) 2_566 1_665
La O1 O2 100.77(12) . 1_665
La O1 O2 33.2(2) 2_565 1_665
La O1 O2 138.8(3) 4_455 1_665
O2 O1 O2 66.7(4) 6 1_665
O2 O1 O2 123.9(4) 5_455 1_665
O2 O1 O2 94.5(3) 2_565 1_665
O2 O1 O2 57.8(4) 6_556 1_665
O2 O1 O2 111.8(4) 5_456 1_665
O2 O1 O2 85.2(3) 2_566 1_665
O3 O1 O2 58.8(2) 6 1_665
O3 O1 O2 169.1(7) 5_455 1_665
O3 O1 O2 60.6(2) 2_565 1_665
Ga2 O1 O2 95.5(3) 2_565 1_665
O2 O1 O2 127.7(3) 3_455 1_665
O2 O1 O2 10.6(2) 4 1_665
O2 O1 O2 108.8(2) 1_565 1_665
Ga3 O1 O2 40.62(12) 2_565 1_665
Ga3 O1 O2 140.2(5) 1_556 1_665
Ga3 O1 O2 81.96(16) 4_456 1_665
O3 O1 O2 76.55(18) . 1_665
O3 O1 O2 154.2(5) 4_455 1_665
O3 O1 O2 58.1(2) 3_565 1_665
Ga3 O1 O2 61.87(16) 2_564 1_665
Ga3 O1 O2 133.3(4) . 1_665
Ga3 O1 O2 89.88(19) 4_455 1_665
Nb O1 O2 56.21(10) . 1_665
Ga1 O1 O2 56.21(10) . 1_665
Nb O1 O2 171.8(4) 1_455 1_665
Ga1 O1 O2 171.8(4) 1_455 1_665
Nb O1 O2 67.78(10) 1_565 1_665
Ga1 O1 O2 67.78(10) 1_565 1_665
O2 O1 O2 93.57(17) . 1_665
O2 O1 O2 25.58(16) 3_565 1_665
O2 O1 O2 143.5(3) 4_455 1_665
La O1 O2 90.0(3) 1_556 1_665
La O1 O2 56.45(18) 2_566 1_665
La O1 O2 107.7(3) 4_456 1_665
O3 O1 O2 71.8(2) 1_556 1_665
O3 O1 O2 54.44(19) 3_566 1_665
O3 O1 O2 136.0(5) 4_456 1_665
O3 O1 O2 46.18(18) 4 1_665
O3 O1 O2 148.7(3) 3_455 1_665
O3 O1 O2 87.93(17) 1_565 1_665
Ga2 O1 O2 122.0(2) 1_565 1_665
Ga2 O1 O2 110.94(17) . 1_665
Ga2 O1 O2 13.17(16) 1_665 1_665
O1 O1 O2 125.47(19) 2_465 1_665
O1 O1 O2 114.29(15) 2_455 1_665
O1 O1 O2 27.6(3) 2_565 1_665
O1 O1 O2 95.5(3) 1_554 1_665
O1 O1 O2 84.5(3) 1_556 1_665
Ga3 O1 O2 75.33(13) 4_446 1_665
Ga3 O1 O2 44.34(11) 1_666 1_665
Ga3 O1 O2 151.8(4) 2_465 1_665
O3 O1 O2 42.84(17) 4_556 1_665
O3 O1 O2 134.4(4) 3_456 1_665
O3 O1 O2 82.81(19) 1_566 1_665
O3 O1 O2 38.39(13) 5 1_665
O3 O1 O2 156.8(2) 2_455 1_665
O3 O1 O2 81.31(14) 6_565 1_665
O2 O1 O2 118.0(3) 3_454 1_665
O2 O1 O2 57.97(11) 4_554 1_665
O2 O1 O2 106.7(3) 1_564 1_665
O3 O1 O2 78.2(2) 6_554 1_665
O3 O1 O2 129.4(4) 5_454 1_665
O3 O1 O2 79.0(3) 2_564 1_665
O1 O1 O2 115.3(3) 2_466 1_665
O1 O1 O2 106.2(3) 2_456 1_665
O1 O1 O2 29.6(2) 2_566 1_665
O3 O1 O2 65.25(15) 2 1_665
O3 O1 O2 170.0(4) 6_455 1_665
O3 O1 O2 54.48(15) 5_565 1_665
La O1 O2 137.80(10) 2_455 1_665
La O1 O2 22.75(12) 4 1_665
La O1 O2 103.09(10) 1_565 1_665
O2 O1 O2 119.09(9) 4_445 1_665
Ga2 O1 O2 84.5(3) 2_566 3_465
La O1 O2 138.8(3) . 3_465
La O1 O2 100.77(12) 2_565 3_465
La O1 O2 33.2(2) 4_455 3_465
O2 O1 O2 123.9(4) 6 3_465
O2 O1 O2 94.5(3) 5_455 3_465
O2 O1 O2 66.7(4) 2_565 3_465
O2 O1 O2 111.8(4) 6_556 3_465
O2 O1 O2 85.2(3) 5_456 3_465
O2 O1 O2 57.8(4) 2_566 3_465
O3 O1 O2 169.1(7) 6 3_465
O3 O1 O2 60.6(2) 5_455 3_465
O3 O1 O2 58.8(2) 2_565 3_465
Ga2 O1 O2 95.5(3) 2_565 3_465
O2 O1 O2 108.8(2) 3_455 3_465
O2 O1 O2 127.7(3) 4 3_465
O2 O1 O2 10.6(2) 1_565 3_465
Ga3 O1 O2 140.2(5) 2_565 3_465
Ga3 O1 O2 81.96(16) 1_556 3_465
Ga3 O1 O2 40.62(12) 4_456 3_465
O3 O1 O2 154.2(5) . 3_465
O3 O1 O2 58.1(2) 4_455 3_465
O3 O1 O2 76.55(18) 3_565 3_465
Ga3 O1 O2 133.3(4) 2_564 3_465
Ga3 O1 O2 89.88(19) . 3_465
Ga3 O1 O2 61.87(16) 4_455 3_465
Nb O1 O2 171.8(4) . 3_465
Ga1 O1 O2 171.8(4) . 3_465
Nb O1 O2 67.78(10) 1_455 3_465
Ga1 O1 O2 67.78(10) 1_455 3_465
Nb O1 O2 56.21(10) 1_565 3_465
Ga1 O1 O2 56.21(10) 1_565 3_465
O2 O1 O2 143.5(3) . 3_465
O2 O1 O2 93.57(17) 3_565 3_465
O2 O1 O2 25.58(16) 4_455 3_465
La O1 O2 107.7(3) 1_556 3_465
La O1 O2 90.0(3) 2_566 3_465
La O1 O2 56.45(18) 4_456 3_465
O3 O1 O2 136.0(5) 1_556 3_465
O3 O1 O2 71.8(2) 3_566 3_465
O3 O1 O2 54.44(19) 4_456 3_465
O3 O1 O2 148.7(3) 4 3_465
O3 O1 O2 87.93(17) 3_455 3_465
O3 O1 O2 46.18(18) 1_565 3_465
Ga2 O1 O2 13.17(16) 1_565 3_465
Ga2 O1 O2 122.0(2) . 3_465
Ga2 O1 O2 110.94(17) 1_665 3_465
O1 O1 O2 27.6(3) 2_465 3_465
O1 O1 O2 125.47(19) 2_455 3_465
O1 O1 O2 114.29(15) 2_565 3_465
O1 O1 O2 95.5(3) 1_554 3_465
O1 O1 O2 84.5(3) 1_556 3_465
Ga3 O1 O2 151.8(4) 4_446 3_465
Ga3 O1 O2 75.33(13) 1_666 3_465
Ga3 O1 O2 44.34(11) 2_465 3_465
O3 O1 O2 134.4(4) 4_556 3_465
O3 O1 O2 82.81(19) 3_456 3_465
O3 O1 O2 42.84(17) 1_566 3_465
O3 O1 O2 156.8(2) 5 3_465
O3 O1 O2 81.31(14) 2_455 3_465
O3 O1 O2 38.39(13) 6_565 3_465
O2 O1 O2 106.7(3) 3_454 3_465
O2 O1 O2 118.0(3) 4_554 3_465
O2 O1 O2 57.97(11) 1_564 3_465
O3 O1 O2 129.4(4) 6_554 3_465
O3 O1 O2 79.0(2) 5_454 3_465
O3 O1 O2 78.2(2) 2_564 3_465
O1 O1 O2 29.6(2) 2_466 3_465
O1 O1 O2 115.3(3) 2_456 3_465
O1 O1 O2 106.2(3) 2_566 3_465
O3 O1 O2 170.0(4) 2 3_465
O3 O1 O2 54.48(15) 6_455 3_465
O3 O1 O2 65.25(15) 5_565 3_465
La O1 O2 103.09(10) 2_455 3_465
La O1 O2 137.80(10) 4 3_465
La O1 O2 22.75(13) 1_565 3_465
O2 O1 O2 119.09(9) 4_445 3_465
O2 O1 O2 119.09(9) 1_665 3_465
Ga2 O1 O3 30.83(15) 2_566 6_556
La O1 O3 86.6(4) . 6_556
La O1 O3 102.7(4) 2_565 6_556
La O1 O3 139.1(6) 4_455 6_556
O2 O1 O3 117.9(3) 6 6_556
O2 O1 O3 136.1(3) 5_455 6_556
O2 O1 O3 163.4(3) 2_565 6_556
O2 O1 O3 14.9(2) 6_556 6_556
O2 O1 O3 43.4(3) 5_456 6_556
O2 O1 O3 59.9(4) 2_566 6_556
O3 O1 O3 53.9(4) 6 6_556
O3 O1 O3 100.1(5) 5_455 6_556
O3 O1 O3 100.1(5) 2_565 6_556
Ga2 O1 O3 149.18(15) 2_565 6_556
O2 O1 O3 71.8(4) 3_455 6_556
O2 O1 O3 61.7(4) 4 6_556
O2 O1 O3 110.6(6) 1_565 6_556
Ga3 O1 O3 35.8(2) 2_565 6_556
Ga3 O1 O3 70.5(3) 1_556 6_556
Ga3 O1 O3 88.5(4) 4_456 6_556
O3 O1 O3 88.7(3) . 6_556
O3 O1 O3 135.8(3) 4_455 6_556
O3 O1 O3 123.6(4) 3_565 6_556
Ga3 O1 O3 108.32(12) 2_564 6_556
Ga3 O1 O3 132.52(13) . 6_556
Ga3 O1 O3 155.4(2) 4_455 6_556
Nb O1 O3 70.41(18) . 6_556
Ga1 O1 O3 70.41(18) . 6_556
Nb O1 O3 112.1(3) 1_455 6_556
Ga1 O1 O3 112.1(3) 1_455 6_556
Nb O1 O3 117.1(3) 1_565 6_556
Ga1 O1 O3 117.1(3) 1_565 6_556
O2 O1 O3 58.5(3) . 6_556
O2 O1 O3 81.2(3) 3_565 6_556
O2 O1 O3 110.8(4) 4_455 6_556
La O1 O3 20.18(12) 1_556 6_556
La O1 O3 38.0(2) 2_566 6_556
La O1 O3 60.1(3) 4_456 6_556
O3 O1 O3 23.4(2) 1_556 6_556
O3 O1 O3 66.8(3) 3_566 6_556
O3 O1 O3 75.8(3) 4_456 6_556
O3 O1 O3 87.3(2) 4 6_556
O3 O1 O3 114.9(2) 3_455 6_556
O3 O1 O3 138.4(3) 1_565 6_556
Ga2 O1 O3 103.4(4) 1_565 6_556
Ga2 O1 O3 57.52(19) . 6_556
Ga2 O1 O3 62.6(2) 1_665 6_556
O1 O1 O3 142.1(6) 2_465 6_556
O1 O1 O3 92.3(4) 2_455 6_556
O1 O1 O3 96.5(4) 2_565 6_556
O1 O1 O3 149.18(15) 1_554 6_556
O1 O1 O3 30.82(15) 1_556 6_556
Ga3 O1 O3 43.36(15) 4_446 6_556
Ga3 O1 O3 81.2(3) 1_666 6_556
Ga3 O1 O3 95.6(3) 2_465 6_556
O3 O1 O3 30.3(3) 4_556 6_556
O3 O1 O3 64.5(3) 3_456 6_556
O3 O1 O3 82.7(4) 1_566 6_556
O3 O1 O3 58.25(19) 5 6_556
O3 O1 O3 92.0(3) 2_455 6_556
O3 O1 O3 110.4(4) 6_565 6_556
O2 O1 O3 124.77(17) 3_454 6_556
O2 O1 O3 117.97(16) 4_554 6_556
O2 O1 O3 170.5(3) 1_564 6_556
O3 O1 O3 115.30(16) 6_554 6_556
O3 O1 O3 148.85(8) 5_454 6_556
O3 O1 O3 148.85(8) 2_564 6_556
O1 O1 O3 86.2(5) 2_466 6_556
O1 O1 O3 43.1(3) 2_456 6_556
O1 O1 O3 48.4(3) 2_566 6_556
O3 O1 O3 56.44(17) 2 6_556
O3 O1 O3 105.0(3) 6_455 6_556
O3 O1 O3 99.3(3) 5_565 6_556
La O1 O3 91.88(18) 2_455 6_556
La O1 O3 75.84(16) 4 6_556
La O1 O3 127.9(4) 1_565 6_556
O2 O1 O3 70.7(2) 4_445 6_556
O2 O1 O3 69.9(2) 1_665 6_556
O2 O1 O3 115.3(4) 3_465 6_556
Ga2 O2 Ga3 118.0(9) . 4_446
Ga2 O2 La 105.2(5) . 4_445
Ga3 O2 La 120.7(5) 4_446 4_445
Ga2 O2 O2 40.1(3) . 4_445
Ga3 O2 O2 143.0(5) 4_446 4_445
La O2 O2 65.2(4) 4_445 4_445
Ga2 O2 O2 40.1(3) . 3_455
Ga3 O2 O2 128.4(6) 4_446 3_455
La O2 O2 110.9(3) 4_445 3_455
O2 O2 O2 60.000(3) 4_445 3_455
Ga2 O2 La 90.8(4) . .
Ga3 O2 La 111.7(4) 4_446 .
La O2 La 105.8(6) 4_445 .
O2 O2 La 99.6(3) 4_445 .
O2 O2 La 50.7(4) 3_455 .
Ga2 O2 O3 157.0(9) . 2
Ga3 O2 O3 39.3(3) 4_446 2
La O2 O3 94.0(5) 4_445 2
O2 O2 O3 156.8(6) 4_445 2
O2 O2 O3 142.0(6) 3_455 2
La O2 O3 96.0(4) . 2
Ga2 O2 O3 116.6(5) . 6
Ga3 O2 O3 61.9(4) 4_446 6
La O2 O3 129.7(7) 4_445 6
O2 O2 O3 146.5(5) 4_445 6
O2 O2 O3 87.0(5) 3_455 6
La O2 O3 49.9(3) . 6
O3 O2 O3 55.2(4) 2 6
Ga2 O2 O1 84.4(5) . 2_455
Ga3 O2 O1 155.1(7) 4_446 2_455
La O2 O1 57.0(4) 4_445 2_455
O2 O2 O1 61.4(3) 4_445 2_455
O2 O2 O1 61.4(3) 3_455 2_455
La O2 O1 53.4(3) . 2_455
O3 O2 O1 117.2(7) 2 2_455
O3 O2 O1 99.3(5) 6 2_455
Ga2 O2 O2 100.5(9) . 2_556
Ga3 O2 O2 38.9(4) 4_446 2_556
La O2 O2 97.7(4) 4_445 2_556
O2 O2 O2 106.7(3) 4_445 2_556
O2 O2 O2 135.3(5) 3_455 2_556
La O2 O2 150.3(3) . 2_556
O3 O2 O2 64.0(4) 2 2_556
O3 O2 O2 100.8(4) 6 2_556
O1 O2 O2 154.4(5) 2_455 2_556
Ga2 O2 O3 89.1(6) . 1_556
Ga3 O2 O3 34.2(3) 4_446 1_556
La O2 O3 153.2(5) 4_445 1_556
O2 O2 O3 126.3(3) 4_445 1_556
O2 O2 O3 94.7(4) 3_455 1_556
La O2 O3 96.3(4) . 1_556
O3 O2 O3 68.4(5) 2 1_556
O3 O2 O3 56.8(6) 6 1_556
O1 O2 O3 148.7(5) 2_455 1_556
O2 O2 O3 56.9(5) 2_556 1_556
Ga2 O2 O1 30.4(4) . 2_456
Ga3 O2 O1 88.1(7) 4_446 2_456
La O2 O1 121.1(4) 4_445 2_456
O2 O2 O1 63.0(3) 4_445 2_456
O2 O2 O1 63.0(3) 3_455 2_456
La O2 O1 108.4(4) . 2_456
O3 O2 O1 127.4(7) 2 2_456
O3 O2 O1 109.0(5) 6 2_456
O1 O2 O1 114.8(3) 2_455 2_456
O2 O2 O1 72.9(7) 2_556 2_456
O3 O2 O1 63.3(4) 1_556 2_456
Ga2 O2 O3 133.8(6) . .
Ga3 O2 O3 94.2(5) 4_446 .
La O2 O3 81.8(5) 4_445 .
O2 O2 O3 122.4(3) 4_445 .
O2 O2 O3 94.3(4) 3_455 .
La O2 O3 44.7(3) . .
O3 O2 O3 60.4(5) 2 .
O3 O2 O3 49.2(5) 6 .
O1 O2 O3 61.0(4) 2_455 .
O2 O2 O3 124.2(5) 2_556 .
O3 O2 O3 104.6(4) 1_556 .
O1 O2 O3 151.4(4) 2_456 .
Ga2 O2 O1 127.9(5) . 1_545
Ga3 O2 O1 74.5(4) 4_446 1_545
La O2 O1 46.6(3) 4_445 1_545
O2 O2 O1 97.8(5) 4_445 1_545
O2 O2 O1 156.0(5) 3_455 1_545
La O2 O1 134.0(6) . 1_545
O3 O2 O1 59.1(3) 2 1_545
O3 O2 O1 113.5(4) 6 1_545
O1 O2 O1 101.2(4) 2_455 1_545
O2 O2 O1 55.9(5) 2_556 1_545
O3 O2 O1 106.8(5) 1_556 1_545
O1 O2 O1 117.5(5) 2_456 1_545
O3 O2 O1 90.5(5) . 1_545
Ga2 O2 Nb 148.4(5) . .
Ga3 O2 Nb 61.9(3) 4_446 .
La O2 Nb 99.7(5) 4_445 .
O2 O2 Nb 154.5(3) 4_445 .
O2 O2 Nb 112.3(5) 3_455 .
La O2 Nb 63.5(2) . .
O3 O2 Nb 32.6(3) 2 .
O3 O2 Nb 32.6(3) 6 .
O1 O2 Nb 93.3(5) 2_455 .
O2 O2 Nb 95.1(3) 2_556 .
O3 O2 Nb 76.6(3) 1_556 .
O1 O2 Nb 138.4(4) 2_456 .
O3 O2 Nb 32.3(2) . .
O1 O2 Nb 83.5(3) 1_545 .
Ga2 O2 Ga1 148.4(5) . .
Ga3 O2 Ga1 61.9(3) 4_446 .
La O2 Ga1 99.7(5) 4_445 .
O2 O2 Ga1 154.5(3) 4_445 .
O2 O2 Ga1 112.3(5) 3_455 .
La O2 Ga1 63.5(2) . .
O3 O2 Ga1 32.6(3) 2 .
O3 O2 Ga1 32.6(3) 6 .
O1 O2 Ga1 93.3(5) 2_455 .
O2 O2 Ga1 95.1(3) 2_556 .
O3 O2 Ga1 76.6(3) 1_556 .
O1 O2 Ga1 138.4(4) 2_456 .
O3 O2 Ga1 32.3(2) . .
O1 O2 Ga1 83.5(3) 1_545 .
Nb O2 Ga1 0.0 . .
Ga2 O2 O2 142.0(6) . 2
Ga3 O2 O2 97.8(4) 4_446 2
La O2 O2 40.4(3) 4_445 2
O2 O2 O2 103.12(19) 4_445 2
O2 O2 O2 124.1(4) 3_455 2
La O2 O2 86.8(6) . 2
O3 O2 O2 60.5(4) 2 2
O3 O2 O2 90.2(4) 6 2
O1 O2 O2 64.1(5) 2_455 2
O2 O2 O2 100.1(6) 2_556 2
O3 O2 O2 128.8(4) 1_556 2
O1 O2 O2 160.3(3) 2_456 2
O3 O2 O2 47.2(4) . 2
O1 O2 O2 47.7(4) 1_545 2
Nb O2 O2 59.3(2) . 2
Ga1 O2 O2 59.3(2) . 2
Ga2 O2 Ga2 111.5(6) . 2_556
Ga3 O2 Ga2 58.9(3) 4_446 2_556
La O2 Ga2 68.9(2) 4_445 2_556
O2 O2 Ga2 97.5(5) 4_445 2_556
O2 O2 Ga2 151.5(4) 3_455 2_556
La O2 Ga2 157.7(4) . 2_556
O3 O2 Ga2 63.7(3) 2 2_556
O3 O2 Ga2 115.7(4) 6 2_556
O1 O2 Ga2 125.9(4) 2_455 2_556
O2 O2 Ga2 29.1(3) 2_556 2_556
O3 O2 Ga2 85.0(4) 1_556 2_556
O1 O2 Ga2 92.1(4) 2_456 2_556
O3 O2 Ga2 113.4(4) . 2_556
O1 O2 Ga2 28.1(4) 1_545 2_556
Nb O2 Ga2 95.4(2) . 2_556
Ga1 O2 Ga2 95.4(2) . 2_556
O2 O2 Ga2 75.3(3) 2 2_556
Ga2 O2 O3 80.7(4) . 5_445
Ga3 O2 O3 113.5(5) 4_446 5_445
La O2 O3 35.8(3) 4_445 5_445
O2 O2 O3 47.1(4) 4_445 5_445
O2 O2 O3 106.9(4) 3_455 5_445
La O2 O3 132.4(5) . 5_445
O3 O2 O3 109.9(4) 2 5_445
O3 O2 O3 162.6(6) 6 5_445
O1 O2 O3 79.1(3) 2_455 5_445
O2 O2 O3 76.9(3) 2_556 5_445
O3 O2 O3 129.9(5) 1_556 5_445
O1 O2 O3 87.0(4) 2_456 5_445
O3 O2 O3 117.6(5) . 5_445
O1 O2 O3 50.8(2) 1_545 5_445
Nb O2 O3 130.0(4) . 5_445
Ga1 O2 O3 130.0(4) . 5_445
O2 O2 O3 73.4(3) 2 5_445
Ga2 O2 O3 55.1(2) 2_556 5_445
Ga2 O2 La 64.3(5) . 4_446
Ga3 O2 La 67.7(5) 4_446 4_446
La O2 La 101.1(3) 4_445 4_446
O2 O2 La 75.4(2) 4_445 4_446
O2 O2 La 102.37(16) 3_455 4_446
La O2 La 147.3(5) . 4_446
O3 O2 La 100.2(5) 2 4_446
O3 O2 La 121.1(6) 6 4_446
O1 O2 La 136.4(4) 2_455 4_446
O2 O2 La 36.6(4) 2_556 4_446
O3 O2 La 64.4(4) 1_556 4_446
O1 O2 La 40.2(3) 2_456 4_446
O3 O2 La 160.6(4) . 4_446
O1 O2 La 78.4(4) 1_545 4_446
Nb O2 La 129.3(4) . 4_446
Ga1 O2 La 129.3(4) . 4_446
O2 O2 La 125.8(4) 2 4_446
Ga2 O2 La 52.0(2) 2_556 4_446
O3 O2 La 67.0(3) 5_445 4_446
Ga2 O2 Ga3 43.9(2) . 2_455
Ga3 O2 Ga3 123.7(6) 4_446 2_455
La O2 Ga3 66.1(2) 4_445 2_455
O2 O2 Ga3 20.2(3) 4_445 2_455
O2 O2 Ga3 75.3(3) 3_455 2_455
La O2 Ga3 119.4(3) . 2_455
O3 O2 Ga3 142.5(4) 2 2_455
O3 O2 Ga3 160.5(4) 6 2_455
O1 O2 Ga3 79.6(3) 2_455 2_455
O2 O2 Ga3 86.5(3) 2_556 2_455
O3 O2 Ga3 115.7(5) 1_556 2_455
O1 O2 Ga3 55.6(2) 2_456 2_455
O3 O2 Ga3 138.9(5) . 2_455
O1 O2 Ga3 85.7(2) 1_545 2_455
Nb O2 Ga3 165.7(4) . 2_455
Ga1 O2 Ga3 165.7(4) . 2_455
O2 O2 Ga3 106.4(2) 2 2_455
Ga2 O2 Ga3 79.2(2) 2_556 2_455
O3 O2 Ga3 36.8(2) 5_445 2_455
La O2 Ga3 56.82(18) 4_446 2_455
Ga2 O2 Ga3 106.4(5) . 2_565
Ga3 O2 Ga3 49.5(3) 4_446 2_565
La O2 Ga3 146.8(5) 4_445 2_565
O2 O2 Ga3 144.9(4) 4_445 2_565
O2 O2 Ga3 87.5(4) 3_455 2_565
La O2 Ga3 63.87(19) . 2_565
O3 O2 Ga3 58.2(3) 2 2_565
O3 O2 Ga3 19.9(3) 6 2_565
O1 O2 Ga3 116.5(4) 2_455 2_565
O2 O2 Ga3 86.5(3) 2_556 2_565
O3 O2 Ga3 37.1(3) 1_556 2_565
O1 O2 Ga3 91.7(4) 2_456 2_565
O3 O2 Ga3 68.9(3) . 2_565
O1 O2 Ga3 116.1(3) 1_545 2_565
Nb O2 Ga3 47.08(12) . 2_565
Ga1 O2 Ga3 47.08(12) . 2_565
O2 O2 Ga3 106.4(2) 2 2_565
Ga2 O2 Ga3 108.0(3) 2_556 2_565
O3 O2 Ga3 163.0(4) 5_445 2_565
La O2 Ga3 101.6(4) 4_446 2_565
Ga3 O2 Ga3 147.1(4) 2_455 2_565
Ga2 O2 La 56.9(4) . 1_556
Ga3 O2 La 66.4(4) 4_446 1_556
La O2 La 157.9(5) 4_445 1_556
O2 O2 La 96.32(19) 4_445 1_556
O2 O2 La 65.2(2) 3_455 1_556
La O2 La 88.5(3) . 1_556
O3 O2 La 101.2(5) 2 1_556
O3 O2 La 72.5(4) 6 1_556
O1 O2 La 126.3(4) 2_455 1_556
O2 O2 La 75.3(6) 2_556 1_556
O3 O2 La 33.2(2) 1_556 1_556
O1 O2 La 36.9(2) 2_456 1_556
O3 O2 La 119.7(3) . 1_556
O1 O2 La 131.2(6) 1_545 1_556
Nb O2 La 101.8(3) . 1_556
Ga1 O2 La 101.8(3) . 1_556
O2 O2 La 160.51(18) 2 1_556
Ga2 O2 La 103.7(4) 2_556 1_556
O3 O2 La 122.5(4) 5_445 1_556
La O2 La 60.6(2) 4_446 1_556
Ga3 O2 La 92.3(3) 2_455 1_556
Ga3 O2 La 54.89(17) 2_565 1_556
Ga2 O2 La 48.9(4) . 2_455
Ga3 O2 La 166.3(7) 4_446 2_455
La O2 La 70.9(3) 4_445 2_455
O2 O2 La 31.6(2) 4_445 2_455
O2 O2 La 40.4(2) 3_455 2_455
La O2 La 68.4(2) . 2_455
O3 O2 La 153.2(7) 2 2_455
O3 O2 La 117.6(4) 6 2_455
O1 O2 La 36.0(3) 2_455 2_455
O2 O2 La 138.2(3) 2_556 2_455
O3 O2 La 132.8(4) 1_556 2_455
O1 O2 La 79.2(3) 2_456 2_455
O3 O2 La 94.7(4) . 2_455
O1 O2 La 115.8(4) 1_545 2_455
Nb O2 La 126.0(4) . 2_455
Ga1 O2 La 126.0(4) . 2_455
O2 O2 La 95.8(5) 2 2_455
Ga2 O2 La 126.0(3) 2_556 2_455
O3 O2 La 71.1(2) 5_445 2_455
La O2 La 104.4(3) 4_446 2_455
Ga3 O2 La 51.85(12) 2_455 2_455
Ga3 O2 La 125.3(2) 2_565 2_455
La O2 La 100.1(2) 1_556 2_455
Ga2 O2 O3 53.2(4) . 4_446
Ga3 O2 O3 99.1(6) 4_446 4_446
La O2 O3 75.5(3) 4_445 4_446
O2 O2 O3 44.7(3) 4_445 4_446
O2 O2 O3 91.9(3) 3_455 4_446
La O2 O3 141.3(4) . 4_446
O3 O2 O3 122.6(4) 2 4_446
O3 O2 O3 153.2(6) 6 4_446
O1 O2 O3 103.6(4) 2_455 4_446
O2 O2 O3 62.1(3) 2_556 4_446
O3 O2 O3 96.7(6) 1_556 4_446
O1 O2 O3 48.2(3) 2_456 4_446
O3 O2 O3 157.2(5) . 4_446
O1 O2 O3 75.5(4) 1_545 4_446
Nb O2 O3 155.1(4) . 4_446
Ga1 O2 O3 155.1(4) . 4_446
O2 O2 O3 112.2(3) 2 4_446
Ga2 O2 O3 60.0(2) 2_556 4_446
O3 O2 O3 39.7(4) 5_445 4_446
La O2 O3 33.38(19) 4_446 4_446
Ga3 O2 O3 24.70(17) 2_455 4_446
Ga3 O2 O3 133.3(5) 2_565 4_446
La O2 O3 82.8(3) 1_556 4_446
La O2 O3 76.1(2) 2_455 4_446
Ga2 O2 Ga3 138.4(7) . 4_445
Ga3 O2 Ga3 101.9(5) 4_446 4_445
La O2 Ga3 59.0(3) 4_445 4_445
O2 O2 Ga3 110.05(17) 4_445 4_445
O2 O2 Ga3 105.4(2) 3_455 4_445
La O2 Ga3 62.1(3) . 4_445
O3 O2 Ga3 62.9(4) 2 4_445
O3 O2 Ga3 71.1(4) 6 4_445
O1 O2 Ga3 54.4(4) 2_455 4_445
O2 O2 Ga3 118.8(6) 2_556 4_445
O3 O2 Ga3 122.7(4) 1_556 4_445
O1 O2 Ga3 168.2(4) 2_456 4_445
O3 O2 Ga3 23.2(2) . 4_445
O1 O2 Ga3 71.9(4) 1_545 4_445
Nb O2 Ga3 46.07(19) . 4_445
Ga1 O2 Ga3 46.07(19) . 4_445
O2 O2 Ga3 25.2(3) 2 4_445
Ga2 O2 Ga3 98.5(3) 2_556 4_445
O3 O2 Ga3 94.7(4) 5_445 4_445
La O2 Ga3 150.3(3) 4_446 4_445
Ga3 O2 Ga3 121.2(3) 2_455 4_445
Ga3 O2 Ga3 90.0(2) 2_565 4_445
La O2 Ga3 142.8(3) 1_556 4_445
La O2 Ga3 90.3(3) 2_455 4_445
O3 O2 Ga3 134.4(4) 4_446 4_445
Ga2 O2 Ga3 36.9(2) . 1_556
Ga3 O2 Ga3 114.6(5) 4_446 1_556
La O2 Ga3 124.2(4) 4_445 1_556
O2 O2 Ga3 67.0(3) 4_445 1_556
O2 O2 Ga3 14.6(2) 3_455 1_556
La O2 Ga3 56.66(18) . 1_556
O3 O2 Ga3 136.2(4) 2 1_556
O3 O2 Ga3 82.3(3) 6 1_556
O1 O2 Ga3 75.9(3) 2_455 1_556
O2 O2 Ga3 122.4(8) 2_556 1_556
O3 O2 Ga3 80.6(3) 1_556 1_556
O1 O2 Ga3 52.7(2) 2_456 1_556
O3 O2 Ga3 101.3(3) . 1_556
O1 O2 Ga3 164.2(3) 1_545 1_556
Nb O2 Ga3 112.0(2) . 1_556
Ga1 O2 Ga3 112.0(2) . 1_556
O2 O2 Ga3 137.5(6) 2 1_556
Ga2 O2 Ga3 144.8(4) 2_556 1_556
O3 O2 Ga3 113.7(3) 5_445 1_556
La O2 Ga3 92.9(3) 4_446 1_556
Ga3 O2 Ga3 78.49(18) 2_455 1_556
Ga3 O2 Ga3 78.36(19) 2_565 1_556
La O2 Ga3 50.62(15) 1_556 1_556
La O2 Ga3 53.30(12) 2_455 1_556
O3 O2 Ga3 90.0(3) 4_446 1_556
Ga3 O2 Ga3 116.4(3) 4_445 1_556
Ga2 O2 O3 119.4(7) . 3_556
Ga3 O2 O3 1.4(3) 4_446 3_556
La O2 O3 119.7(3) 4_445 3_556
O2 O2 O3 144.0(3) 4_445 3_556
O2 O2 O3 129.4(4) 3_455 3_556
La O2 O3 111.6(3) . 3_556
O3 O2 O3 37.9(5) 2 3_556
O3 O2 O3 61.7(4) 6 3_556
O1 O2 O3 153.9(5) 2_455 3_556
O2 O2 O3 39.28(19) 2_556 3_556
O3 O2 O3 35.4(3) 1_556 3_556
O1 O2 O3 89.5(5) 2_456 3_556
O3 O2 O3 93.1(3) . 3_556
O1 O2 O3 73.6(3) 1_545 3_556
Nb O2 O3 60.9(2) . 3_556
Ga1 O2 O3 60.9(2) . 3_556
O2 O2 O3 96.4(3) 2 3_556
Ga2 O2 O3 58.5(2) 2_556 3_556
O3 O2 O3 113.3(3) 5_445 3_556
La O2 O3 68.6(3) 4_446 3_556
Ga3 O2 O3 124.5(4) 2_455 3_556
Ga3 O2 O3 49.66(19) 2_565 3_556
La O2 O3 67.8(3) 1_556 3_556
La O2 O3 167.7(4) 2_455 3_556
O3 O2 O3 99.8(4) 4_446 3_556
Ga3 O2 O3 100.5(3) 4_445 3_556
Ga3 O2 O3 115.7(3) 1_556 3_556
Ga2 O2 Ga2 96.9(5) . 1_554
Ga3 O2 Ga2 143.3(6) 4_446 1_554
La O2 Ga2 53.1(3) 4_445 1_554
O2 O2 Ga2 71.88(12) 4_445 1_554
O2 O2 Ga2 71.88(12) 3_455 1_554
La O2 Ga2 53.3(3) . 1_554
O3 O2 Ga2 104.8(6) 2 1_554
O3 O2 Ga2 93.7(5) 6 1_554
O1 O2 Ga2 12.5(3) 2_455 1_554
O2 O2 Ga2 149.3(6) 2_556 1_554
O3 O2 Ga2 148.8(4) 1_556 1_554
O1 O2 Ga2 127.3(4) 2_456 1_554
O3 O2 Ga2 50.7(3) . 1_554
O1 O2 Ga2 93.5(5) 1_545 1_554
Nb O2 Ga2 82.7(3) . 1_554
Ga1 O2 Ga2 82.7(3) . 1_554
O2 O2 Ga2 52.6(4) 2 1_554
Ga2 O2 Ga2 120.3(3) 2_556 1_554
O3 O2 Ga2 81.2(3) 5_445 1_554
La O2 Ga2 144.8(3) 4_446 1_554
Ga3 O2 Ga2 88.7(2) 2_455 1_554
Ga3 O2 Ga2 112.6(3) 2_565 1_554
La O2 Ga2 135.3(3) 1_556 1_554
La O2 Ga2 48.40(16) 2_455 1_554
O3 O2 Ga2 111.4(3) 4_446 1_554
Ga3 O2 Ga2 41.89(17) 4_445 1_554
Ga3 O2 Ga2 86.1(2) 1_556 1_554
O3 O2 Ga2 142.1(3) 3_556 1_554
Ga2 O2 La 162.1(5) . 2
Ga3 O2 La 59.8(3) 4_446 2
La O2 La 66.6(3) 4_445 2
O2 O2 La 129.6(4) 4_445 2
O2 O2 La 156.8(3) 3_455 2
La O2 La 106.6(4) . 2
O3 O2 La 27.8(3) 2 2
O3 O2 La 79.0(3) 6 2
O1 O2 La 102.5(5) 2_455 2
O2 O2 La 66.3(4) 2_556 2
O3 O2 La 93.0(3) 1_556 2
O1 O2 La 139.3(5) 2_456 2
O3 O2 La 62.6(3) . 2
O1 O2 La 34.92(17) 1_545 2
Nb O2 La 48.72(14) . 2
Ga1 O2 La 48.72(14) . 2
O2 O2 La 38.7(2) 2 2
Ga2 O2 La 51.07(13) 2_556 2
O3 O2 La 84.4(3) 5_445 2
La O2 La 100.7(2) 4_446 2
Ga3 O2 La 120.4(2) 2_455 2
Ga3 O2 La 85.53(18) 2_565 2
La O2 La 126.0(3) 1_556 2
La O2 La 133.8(4) 2_455 2
O3 O2 La 108.9(3) 4_446 2
Ga3 O2 La 52.52(16) 4_445 2
Ga3 O2 La 160.7(3) 1_556 2
O3 O2 La 58.41(18) 3_556 2
Ga2 O2 La 90.5(3) 1_554 2
Ga2 O2 O3 87.5(4) . 4_445
Ga3 O2 O3 139.3(5) 4_446 4_445
La O2 O3 19.7(2) 4_445 4_445
O2 O2 O3 47.7(3) 4_445 4_445
O2 O2 O3 91.8(3) 3_455 4_445
La O2 O3 98.1(4) . 4_445
O3 O2 O3 113.1(5) 2 4_445
O3 O2 O3 136.8(6) 6 4_445
O1 O2 O3 44.9(2) 2_455 4_445
O2 O2 O3 109.7(3) 2_556 4_445
O3 O2 O3 165.3(5) 1_556 4_445
O1 O2 O3 108.6(3) 2_456 4_445
O3 O2 O3 87.9(5) . 4_445
O1 O2 O3 64.8(3) 1_545 4_445
Nb O2 O3 112.9(4) . 4_445
Ga1 O2 O3 112.9(4) . 4_445
O2 O2 O3 55.5(3) 2 4_445
Ga2 O2 O3 83.0(2) 2_556 4_445
O3 O2 O3 35.4(3) 5_445 4_445
La O2 O3 101.3(2) 4_446 4_445
Ga3 O2 O3 53.6(2) 2_455 4_445
Ga3 O2 O3 156.7(4) 2_565 4_445
La O2 O3 143.9(3) 1_556 4_445
La O2 O3 51.6(2) 2_455 4_445
O3 O2 O3 69.94(19) 4_446 4_445
Ga3 O2 O3 67.7(3) 4_445 4_445
Ga3 O2 O3 104.8(3) 1_556 4_445
O3 O2 O3 138.4(3) 3_556 4_445
Ga2 O2 O3 45.9(2) 1_554 4_445
La O2 O3 86.0(3) 2 4_445
Ga2 O2 O2 50.7(4) . 5_456
Ga3 O2 O2 91.1(6) 4_446 5_456
La O2 O2 148.0(5) 4_445 5_456
O2 O2 O2 87.8(3) 4_445 5_456
O2 O2 O2 37.3(4) 3_455 5_456
La O2 O2 60.24(15) . 5_456
O3 O2 O2 115.0(5) 2 5_456
O3 O2 O2 66.0(3) 6 5_456
O1 O2 O2 95.9(4) 2_455 5_456
O2 O2 O2 106.7(9) 2_556 5_456
O3 O2 O2 57.5(4) 1_556 5_456
O1 O2 O2 51.0(3) 2_456 5_456
O3 O2 O2 100.5(4) . 5_456
O1 O2 O2 162.6(8) 1_545 5_456
Nb O2 O2 98.5(3) . 5_456
Ga1 O2 O2 98.5(3) . 5_456
O2 O2 O2 146.8(7) 2 5_456
Ga2 O2 O2 135.0(7) 2_556 5_456
O3 O2 O2 131.3(5) 5_445 5_456
La O2 O2 87.2(5) 4_446 5_456
Ga3 O2 O2 94.6(4) 2_455 5_456
Ga3 O2 O2 57.1(2) 2_565 5_456
La O2 O2 31.4(3) 1_556 5_456
La O2 O2 77.1(3) 2_455 5_456
O3 O2 O2 97.8(5) 4_446 5_456
Ga3 O2 O2 121.7(4) 4_445 5_456
Ga3 O2 O2 23.80(15) 1_556 5_456
O3 O2 O2 92.2(4) 3_556 5_456
Ga2 O2 O2 103.9(4) 1_554 5_456
La O2 O2 142.6(4) 2 5_456
O3 O2 O2 128.5(4) 4_445 5_456
Ga2 O2 O2 89.9(6) . 5_446
Ga3 O2 O2 73.9(5) 4_446 5_446
La O2 O2 67.39(19) 4_445 5_446
O2 O2 O2 76.6(5) 4_445 5_446
O2 O2 O2 129.4(5) 3_455 5_446
La O2 O2 173.1(7) . 5_446
O3 O2 O2 86.0(3) 2 5_446
O3 O2 O2 135.2(6) 6 5_446
O1 O2 O2 119.9(4) 2_455 5_446
O2 O2 O2 35.9(3) 2_556 5_446
O3 O2 O2 90.6(6) 1_556 5_446
O1 O2 O2 75.2(5) 2_456 5_446
O3 O2 O2 132.7(5) . 5_446
O1 O2 O2 42.3(3) 1_545 5_446
Nb O2 O2 117.9(3) . 5_446
Ga1 O2 O2 117.9(3) . 5_446
O2 O2 O2 88.4(3) 2 5_446
Ga2 O2 O2 22.55(10) 2_556 5_446
O3 O2 O2 41.0(2) 5_445 5_446
La O2 O2 37.7(3) 4_446 5_446
Ga3 O2 O2 57.4(2) 2_455 5_446
Ga3 O2 O2 122.4(5) 2_565 5_446
La O2 O2 97.6(5) 1_556 5_446
La O2 O2 107.1(3) 2_455 5_446
O3 O2 O2 37.5(3) 4_446 5_446
Ga3 O2 O2 113.4(4) 4_445 5_446
Ga3 O2 O2 125.5(5) 1_556 5_446
O3 O2 O2 74.0(3) 3_556 5_446
Ga2 O2 O2 119.8(4) 1_554 5_446
La O2 O2 72.3(2) 2 5_446
O3 O2 O2 75.1(3) 4_445 5_446
O2 O2 O2 124.8(8) 5_456 5_446
Ga2 O2 O3 167.3(6) . 3
Ga3 O2 O3 68.9(4) 4_446 3
La O2 O3 77.8(4) 4_445 3
O2 O2 O3 140.3(3) 4_445 3
O2 O2 O3 127.2(4) 3_455 3
La O2 O3 76.5(3) . 3
O3 O2 O3 30.1(5) 2 3
O3 O2 O3 55.6(4) 6 3
O1 O2 O3 87.1(5) 2_455 3
O2 O2 O3 91.3(4) 2_556 3
O3 O2 O3 93.3(3) 1_556 3
O1 O2 O3 156.2(5) 2_456 3
O3 O2 O3 33.6(3) . 3
O1 O2 O3 63.2(3) 1_545 3
Nb O2 O3 22.97(16) . 3
Ga1 O2 O3 22.97(16) . 3
O2 O2 O3 37.8(2) 2 3
Ga2 O2 O3 81.2(2) 2_556 3
O3 O2 O3 107.0(3) 5_445 3
La O2 O3 127.8(3) 4_446 3
Ga3 O2 O3 143.1(3) 2_455 3
Ga3 O2 O3 69.2(2) 2_565 3
La O2 O3 122.7(3) 1_556 3
La O2 O3 123.1(4) 2_455 3
O3 O2 O3 138.6(3) 4_446 3
Ga3 O2 O3 33.0(2) 4_445 3
Ga3 O2 O3 131.4(3) 1_556 3
O3 O2 O3 67.5(2) 3_556 3
Ga2 O2 O3 74.8(3) 1_554 3
La O2 O3 30.28(14) 2 3
O3 O2 O3 93.2(4) 4_445 3
O2 O2 O3 121.1(3) 5_456 3
O2 O2 O3 102.6(3) 5_446 3
Ga2 O2 O2 83.6(5) . 6_556
Ga3 O2 O2 61.8(4) 4_446 6_556
La O2 O2 165.8(7) 4_445 6_556
O2 O2 O2 122.4(3) 4_445 6_556
O2 O2 O2 68.6(3) 3_455 6_556
La O2 O2 62.3(2) . 6_556
O3 O2 O2 80.3(3) 2 6_556
O3 O2 O2 37.1(3) 6 6_556
O1 O2 O2 114.1(4) 2_455 6_556
O2 O2 O2 91.5(6) 2_556 6_556
O3 O2 O2 34.6(3) 1_556 6_556
O1 O2 O2 72.0(4) 2_456 6_556
O3 O2 O2 84.0(4) . 6_556
O1 O2 O2 135.4(3) 1_545 6_556
Nb O2 O2 68.6(2) . 6_556
Ga1 O2 O2 68.6(2) . 6_556
O2 O2 O2 127.3(4) 2 6_556
Ga2 O2 O2 118.8(4) 2_556 6_556
O3 O2 O2 158.3(7) 5_445 6_556
La O2 O2 92.7(5) 4_446 6_556
Ga3 O2 O2 125.6(4) 2_455 6_556
Ga3 O2 O2 22.83(14) 2_565 6_556
La O2 O2 35.9(3) 1_556 6_556
La O2 O2 108.83(15) 2_455 6_556
O3 O2 O2 118.6(6) 4_446 6_556
Ga3 O2 O2 107.0(4) 4_445 6_556
Ga3 O2 O2 57.39(15) 1_556 6_556
O3 O2 O2 62.6(2) 3_556 6_556
Ga2 O2 O2 115.5(4) 1_554 6_556
La O2 O2 107.91(15) 2 6_556
O3 O2 O2 158.1(4) 4_445 6_556
O2 O2 O2 34.8(3) 5_456 6_556
O2 O2 O2 124.7(7) 5_446 6_556
O3 O2 O2 91.3(3) 3 6_556
Ga2 O2 O3 138.7(6) . 5
Ga3 O2 O3 42.5(3) 4_446 5
La O2 O3 115.8(4) 4_445 5
O2 O2 O3 173.8(4) 4_445 5
O2 O2 O3 114.9(5) 3_455 5
La O2 O3 74.2(3) . 5
O3 O2 O3 27.6(2) 2 5
O3 O2 O3 28.0(3) 6 5
O1 O2 O3 113.5(5) 2_455 5
O2 O2 O3 79.4(2) 2_556 5
O3 O2 O3 55.8(4) 1_556 5
O1 O2 O3 118.8(5) 2_456 5
O3 O2 O3 52.9(4) . 5
O1 O2 O3 86.6(3) 1_545 5
Nb O2 O3 21.34(19) . 5
Ga1 O2 O3 21.34(19) . 5
O2 O2 O3 76.6(2) 2 5
Ga2 O2 O3 88.4(2) 2_556 5
O3 O2 O3 137.4(4) 5_445 5
La O2 O3 110.0(3) 4_446 5
Ga3 O2 O3 165.9(4) 2_455 5
Ga3 O2 O3 32.41(18) 2_565 5
La O2 O3 83.9(3) 1_556 5
La O2 O3 142.2(4) 2_455 5
O3 O2 O3 141.3(4) 4_446 5
Ga3 O2 O3 67.1(3) 4_445 5
Ga3 O2 O3 108.9(3) 1_556 5
O3 O2 O3 41.6(3) 3_556 5
Ga2 O2 O3 103.6(4) 1_554 5
La O2 O3 53.6(2) 2 5
O3 O2 O3 132.0(4) 4_445 5
O2 O2 O3 89.3(3) 5_456 5
O2 O2 O3 109.5(4) 5_446 5
O3 O2 O3 38.8(4) 3 5
O2 O2 O3 55.2(2) 6_556 5
Ga2 O2 O1 81.7(3) . .
Ga3 O2 O1 94.8(4) 4_446 .
La O2 O1 131.5(6) 4_445 .
O2 O2 O1 106.5(3) 4_445 .
O2 O2 O1 47.0(4) 3_455 .
La O2 O1 25.8(3) . .
O3 O2 O1 95.0(3) 2 .
O3 O2 O1 40.1(2) 6 .
O1 O2 O1 76.7(4) 2_455 .
O2 O2 O1 128.8(5) 2_556 .
O3 O2 O1 72.1(4) 1_556 .
O1 O2 O1 89.1(4) 2_456 .
O3 O2 O1 62.3(3) . .
O1 O2 O1 150.3(5) 1_545 .
Nb O2 O1 67.2(2) . .
Ga1 O2 O1 67.2(2) . .
O2 O2 O1 108.9(5) 2 .
Ga2 O2 O1 153.6(3) 2_556 .
O3 O2 O1 151.2(4) 5_445 .
La O2 O1 123.7(4) 4_446 .
Ga3 O2 O1 122.2(2) 2_455 .
Ga3 O2 O1 45.60(16) 2_565 .
La O2 O1 63.3(3) 1_556 .
La O2 O1 80.2(2) 2_455 .
O3 O2 O1 134.1(4) 4_446 .
Ga3 O2 O1 83.8(4) 4_445 .
Ga3 O2 O1 44.87(16) 1_556 .
O3 O2 O1 95.1(3) 3_556 .
Ga2 O2 O1 78.5(3) 1_554 .
La O2 O1 115.9(3) 2 .
O3 O2 O1 121.4(4) 4_445 .
O2 O2 O1 38.2(3) 5_456 .
O2 O2 O1 160.8(7) 5_446 .
O3 O2 O1 87.2(3) 3 .
O2 O2 O1 37.5(3) 6_556 .
O3 O2 O1 68.1(2) 5 .
Ga2 O2 Ga1 98.3(6) . 1_556
Ga3 O2 Ga1 22.6(3) 4_446 1_556
La O2 Ga1 141.9(4) 4_445 1_556
O2 O2 Ga1 132.42(16) 4_445 1_556
O2 O2 Ga1 106.5(3) 3_455 1_556
La O2 Ga1 103.4(3) . 1_556
O3 O2 Ga1 58.8(4) 2 1_556
O3 O2 Ga1 58.7(4) 6 1_556
O1 O2 Ga1 156.7(3) 2_455 1_556
O2 O2 Ga1 48.1(3) 2_556 1_556
O3 O2 Ga1 11.7(2) 1_556 1_556
O1 O2 Ga1 70.4(4) 2_456 1_556
O3 O2 Ga1 103.0(3) . 1_556
O1 O2 Ga1 95.3(4) 1_545 1_556
Nb O2 Ga1 72.29(19) . 1_556
Ga1 O2 Ga1 72.29(19) . 1_556
O2 O2 Ga1 119.1(3) 2 1_556
Ga2 O2 Ga1 74.8(2) 2_556 1_556
O3 O2 Ga1 124.1(4) 5_445 1_556
La O2 Ga1 62.9(2) 4_446 1_556
Ga3 O2 Ga1 118.1(4) 2_455 1_556
Ga3 O2 Ga1 40.50(12) 2_565 1_556
La O2 Ga1 44.05(15) 1_556 1_556
La O2 Ga1 144.1(3) 2_455 1_556
O3 O2 Ga1 96.2(4) 4_446 1_556
Ga3 O2 Ga1 117.5(2) 4_445 1_556
Ga3 O2 Ga1 92.3(3) 1_556 1_556
O3 O2 Ga1 23.85(16) 3_556 1_556
Ga2 O2 Ga1 152.3(3) 1_554 1_556
La O2 Ga1 81.99(18) 2 1_556
O3 O2 Ga1 157.7(3) 4_445 1_556
O2 O2 Ga1 69.2(4) 5_456 1_556
O2 O2 Ga1 83.3(4) 5_446 1_556
O3 O2 Ga1 85.9(3) 3 1_556
O2 O2 Ga1 44.1(2) 6_556 1_556
O3 O2 Ga1 50.9(2) 5 1_556
O1 O2 Ga1 80.9(3) . 1_556
Ga2 O2 Nb 98.3(6) . 1_556
Ga3 O2 Nb 22.6(3) 4_446 1_556
La O2 Nb 141.9(4) 4_445 1_556
O2 O2 Nb 132.42(16) 4_445 1_556
O2 O2 Nb 106.5(3) 3_455 1_556
La O2 Nb 103.4(3) . 1_556
O3 O2 Nb 58.8(4) 2 1_556
O3 O2 Nb 58.7(4) 6 1_556
O1 O2 Nb 156.7(3) 2_455 1_556
O2 O2 Nb 48.1(3) 2_556 1_556
O3 O2 Nb 11.7(2) 1_556 1_556
O1 O2 Nb 70.4(4) 2_456 1_556
O3 O2 Nb 103.0(3) . 1_556
O1 O2 Nb 95.3(4) 1_545 1_556
Nb O2 Nb 72.29(19) . 1_556
Ga1 O2 Nb 72.29(19) . 1_556
O2 O2 Nb 119.1(3) 2 1_556
Ga2 O2 Nb 74.8(2) 2_556 1_556
O3 O2 Nb 124.1(4) 5_445 1_556
La O2 Nb 62.9(2) 4_446 1_556
Ga3 O2 Nb 118.1(4) 2_455 1_556
Ga3 O2 Nb 40.50(12) 2_565 1_556
La O2 Nb 44.05(15) 1_556 1_556
La O2 Nb 144.1(3) 2_455 1_556
O3 O2 Nb 96.2(4) 4_446 1_556
Ga3 O2 Nb 117.5(2) 4_445 1_556
Ga3 O2 Nb 92.3(3) 1_556 1_556
O3 O2 Nb 23.85(16) 3_556 1_556
Ga2 O2 Nb 152.3(3) 1_554 1_556
La O2 Nb 81.99(18) 2 1_556
O3 O2 Nb 157.7(3) 4_445 1_556
O2 O2 Nb 69.2(4) 5_456 1_556
O2 O2 Nb 83.3(4) 5_446 1_556
O3 O2 Nb 85.9(3) 3 1_556
O2 O2 Nb 44.1(2) 6_556 1_556
O3 O2 Nb 50.9(2) 5 1_556
O1 O2 Nb 80.9(3) . 1_556
Ga1 O2 Nb 0.0 1_556 1_556
Ga2 O2 Ga2 71.9(3) . 2_566
Ga3 O2 Ga2 83.5(4) 4_446 2_566
La O2 Ga2 151.0(5) 4_445 2_566
O2 O2 Ga2 106.1(3) 4_445 2_566
O2 O2 Ga2 48.1(3) 3_455 2_566
La O2 Ga2 46.48(18) . 2_566
O3 O2 Ga2 97.1(3) 2 2_566
O3 O2 Ga2 44.7(2) 6 2_566
O1 O2 Ga2 94.2(3) 2_455 2_566
O2 O2 Ga2 111.3(6) 2_556 2_566
O3 O2 Ga2 54.8(3) 1_556 2_566
O1 O2 Ga2 71.3(2) 2_456 2_566
O3 O2 Ga2 80.6(3) . 2_566
O1 O2 Ga2 155.7(3) 1_545 2_566
Nb O2 Ga2 76.82(18) . 2_566
Ga1 O2 Ga2 76.82(18) . 2_566
O2 O2 Ga2 127.8(4) 2 2_566
Ga2 O2 Ga2 139.8(4) 2_556 2_566
O3 O2 Ga2 152.3(3) 5_445 2_566
La O2 Ga2 103.1(3) 4_446 2_566
Ga3 O2 Ga2 115.8(3) 2_455 2_566
Ga3 O2 Ga2 39.56(9) 2_565 2_566
La O2 Ga2 42.52(11) 1_556 2_566
La O2 Ga2 87.67(18) 2_455 2_566
O3 O2 Ga2 119.1(4) 4_446 2_566
Ga3 O2 Ga2 103.2(3) 4_445 2_566
Ga3 O2 Ga2 39.11(9) 1_556 2_566
O3 O2 Ga2 84.2(2) 3_556 2_566
Ga2 O2 Ga2 98.1(2) 1_554 2_566
La O2 Ga2 123.3(2) 2 2_566
O3 O2 Ga2 136.6(3) 4_445 2_566
O2 O2 Ga2 21.84(14) 5_456 2_566
O2 O2 Ga2 139.9(6) 5_446 2_566
O3 O2 Ga2 99.3(2) 3 2_566
O2 O2 Ga2 21.69(13) 6_556 2_566
O3 O2 Ga2 69.9(2) 5 2_566
O1 O2 Ga2 20.9(3) . 2_566
Ga1 O2 Ga2 65.18(17) 1_556 2_566
Nb O2 Ga2 65.18(17) 1_556 2_566
Ga2 O2 Ga3 82.3(3) . 1_546
Ga3 O2 Ga3 95.6(4) 4_446 1_546
La O2 Ga3 50.8(2) 4_445 1_546
O2 O2 Ga3 58.3(4) 4_445 1_546
O2 O2 Ga3 116.9(4) 3_455 1_546
La O2 Ga3 151.6(4) . 1_546
O3 O2 Ga3 101.0(3) 2 1_546
O3 O2 Ga3 155.2(4) 6 1_546
O1 O2 Ga3 98.4(3) 2_455 1_546
O2 O2 Ga3 57.91(15) 2_556 1_546
O3 O2 Ga3 111.0(5) 1_556 1_546
O1 O2 Ga3 78.7(2) 2_456 1_546
O3 O2 Ga3 129.2(4) . 1_546
O1 O2 Ga3 45.6(2) 1_545 1_546
Nb O2 Ga3 129.0(3) . 1_546
Ga1 O2 Ga3 129.0(3) . 1_546
O2 O2 Ga3 82.1(2) 2 1_546
Ga2 O2 Ga3 39.52(11) 2_556 1_546
O3 O2 Ga3 19.3(2) 5_445 1_546
La O2 Ga3 50.37(13) 4_446 1_546
Ga3 O2 Ga3 41.57(11) 2_455 1_546
Ga3 O2 Ga3 144.4(4) 2_565 1_546
La O2 Ga3 109.9(3) 1_556 1_546
La O2 Ga3 86.78(18) 2_455 1_546
O3 O2 Ga3 31.2(2) 4_446 1_546
Ga3 O2 Ga3 106.3(3) 4_445 1_546
Ga3 O2 Ga3 118.9(2) 1_556 1_546
O3 O2 Ga3 95.6(3) 3_556 1_546
Ga2 O2 Ga3 100.1(2) 1_554 1_546
La O2 Ga3 80.31(16) 2 1_546
O3 O2 Ga3 54.33(17) 4_445 1_546
O2 O2 Ga3 129.0(5) 5_456 1_546
O2 O2 Ga3 22.00(17) 5_446 1_546
O3 O2 Ga3 108.3(2) 3 1_546
O2 O2 Ga3 143.0(6) 6_556 1_546
O3 O2 Ga3 127.5(3) 5 1_546
O1 O2 Ga3 163.6(3) . 1_546
Ga1 O2 Ga3 104.9(3) 1_556 1_546
Nb O2 Ga3 104.9(3) 1_556 1_546
Ga2 O2 Ga3 150.0(4) 2_566 1_546
Ga2 O2 Ga3 135.8(7) . 1_656
Ga3 O2 Ga3 22.4(3) 4_446 1_656
La O2 Ga3 115.0(3) 4_445 1_656
O2 O2 Ga3 164.7(3) 4_445 1_656
O2 O2 Ga3 128.9(5) 3_455 1_656
La O2 Ga3 95.0(2) . 1_656
O3 O2 Ga3 21.8(3) 2 1_656
O3 O2 Ga3 46.3(3) 6 1_656
O1 O2 Ga3 132.7(5) 2_455 1_656
O2 O2 Ga3 57.99(15) 2_556 1_656
O3 O2 Ga3 46.7(2) 1_556 1_656
O1 O2 Ga3 108.0(4) 2_456 1_656
O3 O2 Ga3 71.8(3) . 1_656
O1 O2 Ga3 74.8(2) 1_545 1_656
Nb O2 Ga3 39.55(11) . 1_656
Ga1 O2 Ga3 39.55(11) . 1_656
O2 O2 Ga3 82.1(2) 2 1_656
Ga2 O2 Ga3 69.59(18) 2_556 1_656
O3 O2 Ga3 123.3(3) 5_445 1_656
La O2 Ga3 89.9(3) 4_446 1_656
Ga3 O2 Ga3 144.5(4) 2_455 1_656
Ga3 O2 Ga3 41.47(10) 2_565 1_656
La O2 Ga3 79.5(2) 1_556 1_656
La O2 Ga3 163.4(3) 2_455 1_656
O3 O2 Ga3 120.0(3) 4_446 1_656
Ga3 O2 Ga3 80.83(18) 4_445 1_656
Ga3 O2 Ga3 118.7(2) 1_556 1_656
O3 O2 Ga3 21.33(16) 3_556 1_656
Ga2 O2 Ga3 121.3(3) 1_554 1_656
La O2 Ga3 48.46(10) 2 1_656
O3 O2 Ga3 134.5(3) 4_445 1_656
O2 O2 Ga3 95.6(3) 5_456 1_656
O2 O2 Ga3 89.3(3) 5_446 1_656
O3 O2 Ga3 48.3(2) 3 1_656
O2 O2 Ga3 61.33(13) 6_556 1_656
O3 O2 Ga3 21.38(15) 5 1_656
O1 O2 Ga3 84.96(17) . 1_656
Ga1 O2 Ga3 37.83(9) 1_556 1_656
Nb O2 Ga3 37.83(9) 1_556 1_656
Ga2 O2 Ga3 80.85(17) 2_566 1_656
Ga3 O2 Ga3 109.1(2) 1_546 1_656
Ga2 O2 O2 117.9(5) . 1_554
Ga3 O2 O2 123.0(5) 4_446 1_554
La O2 O2 51.0(4) 4_445 1_554
O2 O2 O2 90.000(2) 4_445 1_554
O2 O2 O2 90.000(1) 3_455 1_554
La O2 O2 57.5(3) . 1_554
O3 O2 O2 83.9(5) 2 1_554
O3 O2 O2 84.0(5) 6 1_554
O1 O2 O2 33.6(4) 2_455 1_554
O2 O2 O2 134.4(6) 2_556 1_554
O3 O2 O2 140.1(4) 1_556 1_554
O1 O2 O2 148.4(3) 2_456 1_554
O3 O2 O2 35.4(3) . 1_554
O1 O2 O2 80.3(5) 1_545 1_554
Nb O2 O2 65.1(3) . 1_554
Ga1 O2 O2 65.1(3) . 1_554
O2 O2 O2 34.3(4) 2 1_554
Ga2 O2 O2 108.4(3) 2_556 1_554
O3 O2 O2 85.6(3) 5_445 1_554
La O2 O2 152.14(17) 4_446 1_554
Ga3 O2 O2 103.9(2) 2_455 1_554
Ga3 O2 O2 103.9(2) 2_565 1_554
La O2 O2 146.07(18) 1_556 1_554
La O2 O2 69.3(2) 2_455 1_554
O3 O2 O2 122.8(3) 4_446 1_554
Ga3 O2 O2 21.10(15) 4_445 1_554
Ga3 O2 O2 103.2(2) 1_556 1_554
O3 O2 O2 121.6(2) 3_556 1_554
Ga2 O2 O2 21.05(14) 1_554 1_554
La O2 O2 70.3(2) 2 1_554
O3 O2 O2 52.9(2) 4_445 1_554
O2 O2 O2 116.3(4) 5_456 1_554
O2 O2 O2 116.3(4) 5_446 1_554
O3 O2 O2 54.1(3) 3 1_554
O2 O2 O2 115.1(4) 6_556 1_554
O3 O2 O2 86.4(3) 5 1_554
O1 O2 O2 82.9(3) . 1_554
Ga1 O2 O2 137.36(16) 1_556 1_554
Nb O2 O2 137.36(16) 1_556 1_554
Ga2 O2 O2 103.7(2) 2_566 1_554
Ga3 O2 O2 101.8(2) 1_546 1_554
Ga3 O2 O2 101.7(2) 1_656 1_554
Ga2 O2 O2 62.1(5) . 1_556
Ga3 O2 O2 57.0(5) 4_446 1_556
La O2 O2 129.0(4) 4_445 1_556
O2 O2 O2 90.000(1) 4_445 1_556
O2 O2 O2 90.0 3_455 1_556
La O2 O2 122.5(3) . 1_556
O3 O2 O2 96.1(5) 2 1_556
O3 O2 O2 96.0(5) 6 1_556
O1 O2 O2 146.4(4) 2_455 1_556
O2 O2 O2 45.6(6) 2_556 1_556
O3 O2 O2 39.9(4) 1_556 1_556
O1 O2 O2 31.6(3) 2_456 1_556
O3 O2 O2 144.6(3) . 1_556
O1 O2 O2 99.7(5) 1_545 1_556
Nb O2 O2 114.9(3) . 1_556
Ga1 O2 O2 114.9(3) . 1_556
O2 O2 O2 145.7(4) 2 1_556
Ga2 O2 O2 71.6(3) 2_556 1_556
O3 O2 O2 94.4(3) 5_445 1_556
La O2 O2 27.86(17) 4_446 1_556
Ga3 O2 O2 76.1(2) 2_455 1_556
Ga3 O2 O2 76.1(2) 2_565 1_556
La O2 O2 33.93(18) 1_556 1_556
La O2 O2 110.7(2) 2_455 1_556
O3 O2 O2 57.2(3) 4_446 1_556
Ga3 O2 O2 158.90(15) 4_445 1_556
Ga3 O2 O2 76.8(2) 1_556 1_556
O3 O2 O2 58.4(2) 3_556 1_556
Ga2 O2 O2 158.95(14) 1_554 1_556
La O2 O2 109.7(2) 2 1_556
O3 O2 O2 127.1(2) 4_445 1_556
O2 O2 O2 63.7(4) 5_456 1_556
O2 O2 O2 63.7(4) 5_446 1_556
O3 O2 O2 125.9(3) 3 1_556
O2 O2 O2 64.9(4) 6_556 1_556
O3 O2 O2 93.6(3) 5 1_556
O1 O2 O2 97.1(3) . 1_556
Ga1 O2 O2 42.64(16) 1_556 1_556
Nb O2 O2 42.64(16) 1_556 1_556
Ga2 O2 O2 76.3(2) 2_566 1_556
Ga3 O2 O2 78.2(2) 1_546 1_556
Ga3 O2 O2 78.3(2) 1_656 1_556
O2 O2 O2 180.000(2) 1_554 1_556
Ga2 O2 O2 117.6(5) . 5_445
Ga3 O2 O2 106.9(4) 4_446 5_445
La O2 O2 14.23(13) 4_445 5_445
O2 O2 O2 78.0(4) 4_445 5_445
O2 O2 O2 124.7(4) 3_455 5_445
La O2 O2 110.9(6) . 5_445
O3 O2 O2 80.4(4) 2 5_445
O3 O2 O2 122.1(6) 6 5_445
O1 O2 O2 67.6(4) 2_455 5_445
O2 O2 O2 88.2(3) 2_556 5_445
O3 O2 O2 140.4(4) 1_556 5_445
O1 O2 O2 128.0(4) 2_456 5_445
O3 O2 O2 78.4(5) . 5_445
O1 O2 O2 33.9(3) 1_545 5_445
Nb O2 O2 90.1(4) . 5_445
Ga1 O2 O2 90.1(4) . 5_445
O2 O2 O2 32.3(3) 2 5_445
Ga2 O2 O2 59.05(10) 2_556 5_445
O3 O2 O2 41.1(2) 5_445 5_445
La O2 O2 99.7(3) 4_446 5_445
Ga3 O2 O2 75.8(2) 2_455 5_445
Ga3 O2 O2 135.9(4) 2_565 5_445
La O2 O2 160.3(5) 1_556 5_445
La O2 O2 85.1(3) 2_455 5_445
O3 O2 O2 80.0(3) 4_446 5_445
Ga3 O2 O2 55.3(3) 4_445 5_445
Ga3 O2 O2 138.3(4) 1_556 5_445
O3 O2 O2 105.8(3) 3_556 5_445
Ga2 O2 O2 61.3(4) 1_554 5_445
La O2 O2 52.70(18) 2 5_445
O3 O2 O2 33.9(3) 4_445 5_445
O2 O2 O2 162.0(6) 5_456 5_445
O2 O2 O2 62.82(9) 5_446 5_445
O3 O2 O2 67.3(3) 3 5_445
O2 O2 O2 158.5(4) 6_556 5_445
O3 O2 O2 103.8(4) 5 5_445
O1 O2 O2 136.3(6) . 5_445
Ga1 O2 O2 128.8(3) 1_556 5_445
Nb O2 O2 128.8(3) 1_556 5_445
Ga2 O2 O2 157.2(5) 2_566 5_445
Ga3 O2 O2 51.03(14) 1_546 5_445
Ga3 O2 O2 101.0(3) 1_656 5_445
O2 O2 O2 53.5(3) 1_554 5_445
O2 O2 O2 126.5(3) 1_556 5_445
Ga2 O2 O2 84.1(4) . 5_455
Ga3 O2 O2 123.8(4) 4_446 5_455
La O2 O2 97.8(6) 4_445 5_455
O2 O2 O2 88.0(3) 4_445 5_455
O2 O2 O2 44.5(3) 3_455 5_455
La O2 O2 12.10(5) . 5_455
O3 O2 O2 105.9(5) 2 5_455
O3 O2 O2 62.0(3) 6 5_455
O1 O2 O2 42.7(3) 2_455 5_455
O2 O2 O2 162.1(4) 2_556 5_455
O3 O2 O2 106.2(3) 1_556 5_455
O1 O2 O2 106.3(3) 2_456 5_455
O3 O2 O2 49.8(3) . 5_455
O1 O2 O2 133.5(7) 1_545 5_455
Nb O2 O2 73.4(3) . 5_455
Ga1 O2 O2 73.4(3) . 5_455
O2 O2 O2 86.0(7) 2 5_455
Ga2 O2 O2 161.3(6) 2_556 5_455
O3 O2 O2 121.0(5) 5_445 5_455
La O2 O2 146.4(4) 4_446 5_455
Ga3 O2 O2 108.1(3) 2_455 5_455
Ga3 O2 O2 75.57(17) 2_565 5_455
La O2 O2 93.3(2) 1_556 5_455
La O2 O2 56.6(2) 2_455 5_455
O3 O2 O2 131.2(4) 4_446 5_455
Ga3 O2 O2 62.9(4) 4_445 5_455
Ga3 O2 O2 53.60(13) 1_556 5_455
O3 O2 O2 123.7(3) 3_556 5_455
Ga2 O2 O2 44.7(3) 1_554 5_455
La O2 O2 112.2(5) 2 5_455
O3 O2 O2 87.7(4) 4_445 5_455
O2 O2 O2 62.82(9) 5_456 5_455
O2 O2 O2 162.0(6) 5_446 5_455
O3 O2 O2 83.2(4) 3 5_455
O2 O2 O2 71.61(19) 6_556 5_455
O3 O2 O2 85.8(3) 5 5_455
O1 O2 O2 34.1(3) . 5_455
Ga1 O2 O2 114.3(3) 1_556 5_455
Nb O2 O2 114.3(3) 1_556 5_455
Ga2 O2 O2 53.38(13) 2_566 5_455
Ga3 O2 O2 140.0(4) 1_546 5_455
Ga3 O2 O2 106.8(3) 1_656 5_455
O2 O2 O2 53.5(3) 1_554 5_455
O2 O2 O2 126.5(3) 1_556 5_455
O2 O2 O2 105.2(6) 5_445 5_455
Ga2 O2 O3 108.9(6) . 4_556
Ga3 O2 O3 30.5(3) 4_446 4_556
La O2 O3 144.5(4) 4_445 4_556
O2 O2 O3 148.4(3) 4_445 4_556
O2 O2 O3 101.6(4) 3_455 4_556
La O2 O3 83.5(3) . 4_556
O3 O2 O3 50.5(4) 2 4_556
O3 O2 O3 36.5(4) 6 4_556
O1 O2 O3 135.6(4) 2_455 4_556
O2 O2 O3 66.9(3) 2_556 4_556
O3 O2 O3 23.5(2) 1_556 4_556
O1 O2 O3 86.1(4) 2_456 4_556
O3 O2 O3 81.7(2) . 4_556
O1 O2 O3 102.4(3) 1_545 4_556
Nb O2 O3 53.2(2) . 4_556
Ga1 O2 O3 53.2(2) . 4_556
O2 O2 O3 108.4(2) 2 4_556
Ga2 O2 O3 89.4(3) 2_556 4_556
O3 O2 O3 143.6(3) 5_445 4_556
La O2 O3 85.2(3) 4_446 4_556
Ga3 O2 O3 139.0(4) 2_455 4_556
Ga3 O2 O3 19.64(14) 2_565 4_556
La O2 O3 52.2(2) 1_556 4_556
La O2 O3 141.7(3) 2_455 4_556
O3 O2 O3 118.4(4) 4_446 4_556
Ga3 O2 O3 99.2(2) 4_445 4_556
Ga3 O2 O3 89.8(3) 1_556 4_556
O3 O2 O3 30.94(18) 3_556 4_556
Ga2 O2 O3 129.9(3) 1_554 4_556
La O2 O3 77.9(2) 2 4_556
O3 O2 O3 163.6(4) 4_445 4_556
O2 O2 O3 66.3(3) 5_456 4_556
O2 O2 O3 102.8(5) 5_446 4_556
O3 O2 O3 71.15(14) 3 4_556
O2 O2 O3 33.0(2) 6_556 4_556
O3 O2 O3 32.7(3) 5 4_556
O1 O2 O3 64.4(2) . 4_556
Ga1 O2 O3 22.33(15) 1_556 4_556
Nb O2 O3 22.33(15) 1_556 4_556
Ga2 O2 O3 54.09(18) 2_566 4_556
Ga3 O2 O3 124.8(3) 1_546 4_556
Ga3 O2 O3 29.50(17) 1_656 4_556
O2 O2 O3 117.0(2) 1_554 4_556
O2 O2 O3 63.0(2) 1_556 4_556
O2 O2 O3 130.5(3) 5_445 4_556
O2 O2 O3 95.2(2) 5_455 4_556
Ga2 O2 O3 18.5(2) . 3_456
Ga3 O2 O3 112.7(6) 4_446 3_456
La O2 O3 119.8(4) 4_445 3_456
O2 O2 O3 55.5(3) 4_445 3_456
O2 O2 O3 28.0(2) 3_455 3_456
La O2 O3 76.2(3) . 3_456
O3 O2 O3 146.2(5) 2 3_456
O3 O2 O3 98.2(3) 6 3_456
O1 O2 O3 84.8(4) 2_455 3_456
O2 O2 O3 107.7(7) 2_556 3_456
O3 O2 O3 79.7(4) 1_556 3_456
O1 O2 O3 35.0(3) 2_456 3_456
O3 O2 O3 120.8(3) . 3_456
O1 O2 O3 146.0(4) 1_545 3_456
Nb O2 O3 129.9(3) . 3_456
Ga1 O2 O3 129.9(3) . 3_456
O2 O2 O3 148.7(6) 2 3_456
Ga2 O2 O3 125.7(4) 2_556 3_456
O3 O2 O3 98.9(4) 5_445 3_456
La O2 O3 74.6(3) 4_446 3_456
Ga3 O2 O3 62.2(2) 2_455 3_456
Ga3 O2 O3 89.6(3) 2_565 3_456
La O2 O3 46.6(2) 1_556 3_456
La O2 O3 53.7(2) 2_455 3_456
O3 O2 O3 70.6(3) 4_446 3_456
Ga3 O2 O3 133.4(3) 4_445 3_456
Ga3 O2 O3 19.77(13) 1_556 3_456
O3 O2 O3 114.1(4) 3_556 3_456
Ga2 O2 O3 96.7(3) 1_554 3_456
La O2 O3 172.5(4) 2 3_456
O3 O2 O3 100.58(19) 4_445 3_456
O2 O2 O3 32.8(2) 5_456 3_456
O2 O2 O3 105.7(4) 5_446 3_456
O3 O2 O3 150.8(3) 3 3_456
O2 O2 O3 66.9(2) 6_556 3_456
O3 O2 O3 122.0(2) 5 3_456
O1 O2 O3 63.7(2) . 3_456
Ga1 O2 O3 90.6(3) 1_556 3_456
Nb O2 O3 90.6(3) 1_556 3_456
Ga2 O2 O3 53.56(17) 2_566 3_456
Ga3 O2 O3 100.6(2) 1_546 3_456
Ga3 O2 O3 124.9(3) 1_656 3_456
O2 O2 O3 116.5(2) 1_554 3_456
O2 O2 O3 63.5(2) 1_556 3_456
O2 O2 O3 133.3(4) 5_445 3_456
O2 O2 O3 71.9(2) 5_455 3_456
O3 O2 O3 95.7(4) 4_556 3_456
Ga2 O2 Ga2 135.4(5) . 2
Ga3 O2 Ga2 99.3(4) 4_446 2
La O2 Ga2 30.4(2) 4_445 2
O2 O2 Ga2 95.3(3) 4_445 2
O2 O2 Ga2 128.34(17) 3_455 2
La O2 Ga2 97.7(4) . 2
O3 O2 Ga2 65.4(4) 2 2
O3 O2 Ga2 101.8(4) 6 2
O1 O2 Ga2 67.0(4) 2_455 2
O2 O2 Ga2 93.4(5) 2_556 2
O3 O2 Ga2 132.8(3) 1_556 2
O1 O2 Ga2 148.0(3) 2_456 2
O3 O2 Ga2 59.5(3) . 2
O1 O2 Ga2 38.3(4) 1_545 2
Nb O2 Ga2 70.0(2) . 2
Ga1 O2 Ga2 70.0(2) . 2
O2 O2 Ga2 12.41(16) 2 2
Ga2 O2 Ga2 66.41(18) 2_556 2
O3 O2 Ga2 61.5(3) 5_445 2
La O2 Ga2 114.8(2) 4_446 2
Ga3 O2 Ga2 95.7(2) 2_455 2
Ga3 O2 Ga2 116.7(3) 2_565 2
La O2 Ga2 165.7(3) 1_556 2
La O2 Ga2 94.2(3) 2_455 2
O3 O2 Ga2 99.8(3) 4_446 2
Ga3 O2 Ga2 37.10(12) 4_445 2
Ga3 O2 Ga2 142.8(4) 1_556 2
O3 O2 Ga2 97.9(2) 3_556 2
Ga2 O2 Ga2 56.93(19) 1_554 2
La O2 Ga2 39.80(12) 2 2
O3 O2 Ga2 48.0(2) 4_445 2
O2 O2 Ga2 157.9(5) 5_456 2
O2 O2 Ga2 77.1(3) 5_446 2
O3 O2 Ga2 47.6(2) 3 2
O2 O2 Ga2 138.6(4) 6_556 2
O3 O2 Ga2 85.4(3) 5 2
O1 O2 Ga2 120.8(4) . 2
Ga1 O2 Ga2 121.7(2) 1_556 2
Nb O2 Ga2 121.7(2) 1_556 2
Ga2 O2 Ga2 140.2(3) 2_566 2
Ga3 O2 Ga2 69.68(15) 1_546 2
Ga3 O2 Ga2 87.16(18) 1_656 2
O2 O2 Ga2 42.01(16) 1_554 2
O2 O2 Ga2 137.99(16) 1_556 2
O2 O2 Ga2 20.34(19) 5_445 2
O2 O2 Ga2 95.4(5) 5_455 2
O3 O2 Ga2 115.6(2) 4_556 2
O3 O2 Ga2 147.5(3) 3_456 2
Ga2 O2 O2 110.3(4) . 6
Ga3 O2 O2 95.4(4) 4_446 6
La O2 O2 105.9(6) 4_445 6
O2 O2 O2 118.9(3) 4_445 6
O2 O2 O2 70.7(3) 3_455 6
La O2 O2 20.8(2) . 6
O3 O2 O2 75.2(3) 2 6
O3 O2 O2 34.7(3) 6 6
O1 O2 O2 64.6(4) 2_455 6
O2 O2 O2 133.97(10) 2_556 6
O3 O2 O2 89.5(4) 1_556 6
O1 O2 O2 122.4(3) 2_456 6
O3 O2 O2 29.0(3) . 6
O1 O2 O2 118.8(5) 1_545 6
Nb O2 O2 42.76(19) . 6
Ga1 O2 O2 42.76(19) . 6
O2 O2 O2 75.9(5) 2 6
Ga2 O2 O2 137.6(2) 2_556 6
O3 O2 O2 140.0(6) 5_445 6
La O2 O2 152.8(5) 4_446 6
Ga3 O2 O2 139.2(3) 2_455 6
Ga3 O2 O2 52.86(18) 2_565 6
La O2 O2 93.5(3) 1_556 6
La O2 O2 87.3(3) 2_455 6
O3 O2 O2 162.1(2) 4_446 6
Ga3 O2 O2 51.0(3) 4_445 6
Ga3 O2 O2 74.44(16) 1_556 6
O3 O2 O2 94.9(2) 3_556 6
Ga2 O2 O2 59.7(3) 1_554 6
La O2 O2 87.5(3) 2 6
O3 O2 O2 105.1(5) 4_445 6
O2 O2 O2 71.5(2) 5_456 6
O2 O2 O2 159.8(4) 5_446 6
O3 O2 O2 57.2(2) 3 6
O2 O2 O2 60.1(2) 6_556 6
O3 O2 O2 54.86(19) 5 6
O1 O2 O2 33.2(3) . 6
Ga1 O2 O2 93.1(3) 1_556 6
Nb O2 O2 93.1(3) 1_556 6
Ga2 O2 O2 52.22(19) 2_566 6
Ga3 O2 O2 156.5(5) 1_546 6
Ga3 O2 O2 76.18(14) 1_656 6
O2 O2 O2 54.9(3) 1_554 6
O2 O2 O2 125.1(3) 1_556 6
O2 O2 O2 105.7(6) 5_445 6
O2 O2 O2 31.2(2) 5_455 6
O3 O2 O2 71.1(2) 4_556 6
O3 O2 O2 94.2(2) 3_456 6
Ga2 O2 O2 88.1(4) 2 6
Ga2 O2 O2 25.24(14) . 6_446
Ga3 O2 O2 122.6(8) 4_446 6_446
La O2 O2 83.3(3) 4_445 6_446
O2 O2 O2 22.8(4) 4_445 6_446
O2 O2 O2 60.13(18) 3_455 6_446
La O2 O2 108.9(2) . 6_446
O3 O2 O2 154.7(6) 2 6_446
O3 O2 O2 141.8(5) 6 6_446
O1 O2 O2 82.4(3) 2_455 6_446
O2 O2 O2 91.4(6) 2_556 6_446
O3 O2 O2 103.9(6) 1_556 6_446
O1 O2 O2 40.8(3) 2_456 6_446
O3 O2 O2 142.9(5) . 6_446
O1 O2 O2 103.4(4) 1_545 6_446
Nb O2 O2 172.4(3) . 6_446
Ga1 O2 O2 172.4(3) . 6_446
O2 O2 O2 123.3(4) 2 6_446
Ga2 O2 O2 92.3(4) 2_556 6_446
O3 O2 O2 55.5(3) 5_445 6_446
La O2 O2 56.2(3) 4_446 6_446
Ga3 O2 O2 18.76(13) 2_455 6_446
Ga3 O2 O2 129.8(5) 2_565 6_446
La O2 O2 76.1(4) 1_556 6_446
La O2 O2 48.24(13) 2_455 6_446
O3 O2 O2 32.4(3) 4_446 6_446
Ga3 O2 O2 132.8(5) 4_445 6_446
Ga3 O2 O2 60.90(13) 1_556 6_446
O3 O2 O2 123.7(5) 3_556 6_446
Ga2 O2 O2 93.7(3) 1_554 6_446
La O2 O2 138.3(3) 2 6_446
O3 O2 O2 68.2(3) 4_445 6_446
O2 O2 O2 75.9(3) 5_456 6_446
O2 O2 O2 69.7(4) 5_446 6_446
O3 O2 O2 161.0(5) 3 6_446
O2 O2 O2 107.4(5) 6_556 6_446
O3 O2 O2 159.6(6) 5 6_446
O1 O2 O2 105.6(2) . 6_446
Ga1 O2 O2 109.7(5) 1_556 6_446
Nb O2 O2 109.7(5) 1_556 6_446
Ga2 O2 O2 97.2(3) 2_566 6_446
Ga3 O2 O2 58.1(2) 1_546 6_446
Ga3 O2 O2 144.9(5) 1_656 6_446
O2 O2 O2 112.6(4) 1_554 6_446
O2 O2 O2 67.4(4) 1_556 6_446
O2 O2 O2 94.0(3) 5_445 6_446
O2 O2 O2 99.4(2) 5_455 6_446
O3 O2 O2 126.9(5) 4_556 6_446
O3 O2 O2 43.67(18) 3_456 6_446
Ga2 O2 O2 113.5(3) 2 6_446
O2 O2 O2 129.7(2) 6 6_446
Ga2 O2 O2 116.5(7) . 6_546
Ga3 O2 O2 46.8(2) 4_446 6_546
La O2 O2 79.0(3) 4_445 6_546
O2 O2 O2 108.6(5) 4_445 6_546
O2 O2 O2 155.4(4) 3_455 6_546
La O2 O2 150.5(4) . 6_546
O3 O2 O2 54.5(2) 2 6_546
O3 O2 O2 104.2(3) 6 6_546
O1 O2 O2 135.4(5) 2_455 6_546
O2 O2 O2 22.0(3) 2_556 6_546
O3 O2 O2 74.4(4) 1_556 6_546
O1 O2 O2 92.6(5) 2_456 6_546
O3 O2 O2 109.7(3) . 6_546
O1 O2 O2 34.5(4) 1_545 6_546
Nb O2 O2 86.96(14) . 6_546
Ga1 O2 O2 86.96(14) . 6_546
O2 O2 O2 78.4(3) 2 6_546
Ga2 O2 O2 12.19(12) 2_556 6_546
O3 O2 O2 67.3(3) 5_445 6_546
La O2 O2 53.1(3) 4_446 6_546
Ga3 O2 O2 89.5(3) 2_455 6_546
Ga3 O2 O2 95.8(3) 2_565 6_546
La O2 O2 96.9(5) 1_556 6_546
La O2 O2 137.9(3) 2_455 6_546
O3 O2 O2 68.2(3) 4_446 6_546
Ga3 O2 O2 98.9(3) 4_445 6_546
Ga3 O2 O2 144.0(6) 1_556 6_546
O3 O2 O2 46.36(19) 3_556 6_546
Ga2 O2 O2 127.8(4) 1_554 6_546
La O2 O2 47.62(13) 2 6_546
O3 O2 O2 94.4(3) 4_445 6_546
O2 O2 O2 128.2(7) 5_456 6_546
O2 O2 O2 32.1(2) 5_446 6_546
O3 O2 O2 76.2(2) 3 6_546
O2 O2 O2 107.4(5) 6_556 6_546
O3 O2 O2 77.55(18) 5 6_546
O1 O2 O2 141.4(3) . 6_546
Ga1 O2 O2 63.7(3) 1_556 6_546
Nb O2 O2 63.7(3) 1_556 6_546
Ga2 O2 O2 128.8(4) 2_566 6_546
Ga3 O2 O2 51.2(2) 1_546 6_546
Ga3 O2 O2 57.92(11) 1_656 6_546
O2 O2 O2 112.6(4) 1_554 6_546
O2 O2 O2 67.4(4) 1_556 6_546
O2 O2 O2 67.80(13) 5_445 6_546
O2 O2 O2 159.3(5) 5_455 6_546
O3 O2 O2 77.3(3) 4_556 6_546
O3 O2 O2 127.5(5) 3_456 6_546
Ga2 O2 O2 71.5(3) 2 6_546
O2 O2 O2 129.7(2) 6 6_546
O2 O2 O2 100.5(4) 6_446 6_546
Ga2 O2 O3 139.3(4) . 4
Ga3 O2 O3 71.8(4) 4_446 4
La O2 O3 100.7(4) 4_445 4
O2 O2 O3 145.1(3) 4_445 4
O2 O2 O3 101.1(4) 3_455 4
La O2 O3 51.7(2) . 4
O3 O2 O3 44.5(3) 2 4
O3 O2 O3 29.1(4) 6 4
O1 O2 O3 84.0(4) 2_455 4
O2 O2 O3 106.7(3) 2_556 4
O3 O2 O3 81.2(3) 1_556 4
O1 O2 O3 138.1(4) 2_456 4
O3 O2 O3 23.98(18) . 4
O1 O2 O3 92.7(3) 1_545 4
Nb O2 O3 11.95(15) . 4
Ga1 O2 O3 11.95(15) . 4
O2 O2 O3 61.2(2) 2 4
Ga2 O2 O3 106.9(3) 2_556 4
O3 O2 O3 134.5(4) 5_445 4
La O2 O3 139.5(3) 4_446 4
Ga3 O2 O3 162.9(4) 2_455 4
Ga3 O2 O3 47.23(19) 2_565 4
La O2 O3 101.5(2) 1_556 4
La O2 O3 114.8(3) 2_455 4
O3 O2 O3 166.9(4) 4_446 4
Ga3 O2 O3 42.84(18) 4_445 4
Ga3 O2 O3 102.4(2) 1_556 4
O3 O2 O3 70.91(14) 3_556 4
Ga2 O2 O3 74.4(3) 1_554 4
La O2 O3 58.5(2) 2 4
O3 O2 O3 110.4(4) 4_445 4
O2 O2 O3 92.0(3) 5_456 4
O2 O2 O3 129.4(3) 5_446 4
O3 O2 O3 29.68(18) 3 4
O2 O2 O3 66.1(3) 6_556 4
O3 O2 O3 29.5(3) 5 4
O1 O2 O3 57.7(3) . 4
Ga1 O2 O3 79.0(2) 1_556 4
Nb O2 O3 79.0(2) 1_556 4
Ga2 O2 O3 70.2(2) 2_566 4
Ga3 O2 O3 138.0(3) 1_546 4
Ga3 O2 O3 49.87(17) 1_656 4
O2 O2 O3 59.1(2) 1_554 4
O2 O2 O3 120.9(2) 1_556 4
O2 O2 O3 93.4(4) 5_445 4
O2 O2 O3 61.4(3) 5_455 4
O3 O2 O3 57.93(13) 4_556 4
O3 O2 O3 121.4(3) 3_456 4
Ga2 O2 O3 73.1(2) 2 4
O2 O2 O3 30.94(18) 6 4
O2 O2 O3 160.6(3) 6_446 4
O2 O2 O3 98.8(2) 6_546 4
Ga2 O2 Ga1 77.4(3) . 1_445
Ga3 O2 Ga1 129.6(4) 4_446 1_445
La O2 Ga1 29.49(16) 4_445 1_445
O2 O2 Ga1 38.6(3) 4_445 1_445
O2 O2 Ga1 95.2(3) 3_455 1_445
La O2 Ga1 115.9(4) . 1_445
O3 O2 Ga1 118.4(4) 2 1_445
O3 O2 Ga1 157.3(6) 6 1_445
O1 O2 Ga1 62.8(2) 2_455 1_445
O2 O2 Ga1 93.47(18) 2_556 1_445
O3 O2 Ga1 144.9(5) 1_556 1_445
O1 O2 Ga1 91.9(3) 2_456 1_445
O3 O2 Ga1 108.1(4) . 1_445
O1 O2 Ga1 61.04(18) 1_545 1_445
Nb O2 Ga1 129.2(4) . 1_445
Ga1 O2 Ga1 129.2(4) . 1_445
O2 O2 Ga1 69.86(16) 2 1_445
Ga2 O2 Ga1 70.73(16) 2_556 1_445
O3 O2 Ga1 16.58(18) 5_445 1_445
La O2 Ga1 80.54(17) 4_446 1_445
Ga3 O2 Ga1 36.58(9) 2_455 1_445
Ga3 O2 Ga1 176.2(3) 2_565 1_445
La O2 Ga1 128.8(3) 1_556 1_445
La O2 Ga1 56.61(13) 2_455 1_445
O3 O2 Ga1 49.4(2) 4_446 1_445
Ga3 O2 Ga1 86.6(3) 4_445 1_445
Ga3 O2 Ga1 104.79(19) 1_556 1_445
O3 O2 Ga1 129.2(3) 3_556 1_445
Ga2 O2 Ga1 65.88(18) 1_554 1_445
La O2 Ga1 91.0(2) 2 1_445
O3 O2 Ga1 20.79(15) 4_445 1_445
O2 O2 Ga1 126.4(3) 5_456 1_445
O2 O2 Ga1 57.6(2) 5_446 1_445
O3 O2 Ga1 107.0(3) 3 1_445
O2 O2 Ga1 160.9(3) 6_556 1_445
O3 O2 Ga1 143.9(3) 5 1_445
O1 O2 Ga1 135.6(3) . 1_445
Ga1 O2 Ga1 140.4(3) 1_556 1_445
Nb O2 Ga1 140.4(3) 1_556 1_445
Ga2 O2 Ga1 143.3(2) 2_566 1_445
Ga3 O2 Ga1 35.73(7) 1_546 1_445
Ga3 O2 Ga1 135.9(2) 1_656 1_445
O2 O2 Ga1 73.47(18) 1_554 1_445
O2 O2 Ga1 106.53(18) 1_556 1_445
O2 O2 Ga1 40.28(16) 5_445 1_445
O2 O2 Ga1 104.5(4) 5_455 1_445
O3 O2 Ga1 160.0(3) 4_556 1_445
O3 O2 Ga1 94.0(2) 3_456 1_445
Ga2 O2 Ga1 59.49(14) 2 1_445
O2 O2 Ga1 125.6(5) 6 1_445
O2 O2 Ga1 54.0(2) 6_446 1_445
O2 O2 Ga1 82.9(3) 6_546 1_445
O3 O2 Ga1 129.3(3) 4 1_445
Ga2 O2 Nb 77.4(3) . 1_445
Ga3 O2 Nb 129.6(4) 4_446 1_445
La O2 Nb 29.49(16) 4_445 1_445
O2 O2 Nb 38.6(3) 4_445 1_445
O2 O2 Nb 95.2(3) 3_455 1_445
La O2 Nb 115.9(4) . 1_445
O3 O2 Nb 118.4(4) 2 1_445
O3 O2 Nb 157.3(6) 6 1_445
O1 O2 Nb 62.8(2) 2_455 1_445
O2 O2 Nb 93.47(18) 2_556 1_445
O3 O2 Nb 144.9(5) 1_556 1_445
O1 O2 Nb 91.9(3) 2_456 1_445
O3 O2 Nb 108.1(4) . 1_445
O1 O2 Nb 61.04(18) 1_545 1_445
Nb O2 Nb 129.2(4) . 1_445
Ga1 O2 Nb 129.2(4) . 1_445
O2 O2 Nb 69.86(16) 2 1_445
Ga2 O2 Nb 70.73(16) 2_556 1_445
O3 O2 Nb 16.58(18) 5_445 1_445
La O2 Nb 80.54(17) 4_446 1_445
Ga3 O2 Nb 36.58(9) 2_455 1_445
Ga3 O2 Nb 176.2(3) 2_565 1_445
La O2 Nb 128.8(3) 1_556 1_445
La O2 Nb 56.61(13) 2_455 1_445
O3 O2 Nb 49.4(2) 4_446 1_445
Ga3 O2 Nb 86.6(3) 4_445 1_445
Ga3 O2 Nb 104.79(19) 1_556 1_445
O3 O2 Nb 129.2(3) 3_556 1_445
Ga2 O2 Nb 65.88(18) 1_554 1_445
La O2 Nb 91.0(2) 2 1_445
O3 O2 Nb 20.79(15) 4_445 1_445
O2 O2 Nb 126.4(3) 5_456 1_445
O2 O2 Nb 57.6(2) 5_446 1_445
O3 O2 Nb 107.0(3) 3 1_445
O2 O2 Nb 160.9(3) 6_556 1_445
O3 O2 Nb 143.9(3) 5 1_445
O1 O2 Nb 135.6(3) . 1_445
Ga1 O2 Nb 140.4(3) 1_556 1_445
Nb O2 Nb 140.4(3) 1_556 1_445
Ga2 O2 Nb 143.3(2) 2_566 1_445
Ga3 O2 Nb 35.73(7) 1_546 1_445
Ga3 O2 Nb 135.9(2) 1_656 1_445
O2 O2 Nb 73.47(18) 1_554 1_445
O2 O2 Nb 106.53(18) 1_556 1_445
O2 O2 Nb 40.28(16) 5_445 1_445
O2 O2 Nb 104.5(4) 5_455 1_445
O3 O2 Nb 160.0(3) 4_556 1_445
O3 O2 Nb 94.0(2) 3_456 1_445
Ga2 O2 Nb 59.49(14) 2 1_445
O2 O2 Nb 125.6(5) 6 1_445
O2 O2 Nb 54.0(2) 6_446 1_445
O2 O2 Nb 82.9(3) 6_546 1_445
O3 O2 Nb 129.3(3) 4 1_445
Ga1 O2 Nb 0.0 1_445 1_445
Ga2 O2 O3 56.3(3) . 6_445
Ga3 O2 O3 134.7(5) 4_446 6_445
La O2 O3 50.0(2) 4_445 6_445
O2 O2 O3 19.1(3) 4_445 6_445
O2 O2 O3 78.8(3) 3_455 6_445
La O2 O3 113.2(4) . 6_445
O3 O2 O3 137.7(3) 2 6_445
O3 O2 O3 163.0(6) 6 6_445
O1 O2 O3 65.8(3) 2_455 6_445
O2 O2 O3 95.8(2) 2_556 6_445
O3 O2 O3 133.0(5) 1_556 6_445
O1 O2 O3 72.7(3) 2_456 6_445
O3 O2 O3 122.1(4) . 6_445
O1 O2 O3 78.7(2) 1_545 6_445
Nb O2 O3 148.9(4) . 6_445
Ga1 O2 O3 148.9(4) . 6_445
O2 O2 O3 90.1(2) 2 6_445
Ga2 O2 O3 80.7(2) 2_556 6_445
O3 O2 O3 28.1(3) 5_445 6_445
La O2 O3 71.6(2) 4_446 6_445
Ga3 O2 O3 17.57(16) 2_455 6_445
Ga3 O2 O3 162.7(3) 2_565 6_445
La O2 O3 109.1(3) 1_556 6_445
La O2 O3 45.56(16) 2_455 6_445
O3 O2 O3 38.2(3) 4_446 6_445
Ga3 O2 O3 103.7(3) 4_445 6_445
Ga3 O2 O3 86.0(2) 1_556 6_445
O3 O2 O3 135.1(3) 3_556 6_445
Ga2 O2 O3 73.2(2) 1_554 6_445
La O2 O3 111.1(2) 2 6_445
O3 O2 O3 36.1(3) 4_445 6_445
O2 O2 O3 106.1(3) 5_456 6_445
O2 O2 O3 61.8(3) 5_446 6_445
O3 O2 O3 127.8(3) 3 6_445
O2 O2 O3 139.9(3) 6_556 6_445
O3 O2 O3 164.7(3) 5 6_445
O1 O2 O3 124.5(3) . 6_445
Ga1 O2 O3 134.4(4) 1_556 6_445
Nb O2 O3 134.4(4) 1_556 6_445
Ga2 O2 O3 125.1(2) 2_566 6_445
Ga3 O2 O3 41.29(14) 1_546 6_445
Ga3 O2 O3 150.3(3) 1_656 6_445
O2 O2 O3 86.8(3) 1_554 6_445
O2 O2 O3 93.2(3) 1_556 6_445
O2 O2 O3 61.3(2) 5_445 6_445
O2 O2 O3 101.1(4) 5_455 6_445
O3 O2 O3 156.2(4) 4_556 6_445
O3 O2 O3 73.3(2) 3_456 6_445
Ga2 O2 O3 80.3(2) 2 6_445
O2 O2 O3 129.6(4) 6 6_445
O2 O2 O3 33.3(2) 6_446 6_445
O2 O2 O3 92.5(3) 6_546 6_445
O3 O2 O3 145.8(4) 4 6_445
Ga1 O2 O3 21.06(11) 1_445 6_445
Nb O2 O3 21.06(11) 1_445 6_445
Ga2 O2 La 14.2(4) . 2_456
Ga3 O2 La 105.4(6) 4_446 2_456
La O2 La 109.4(3) 4_445 2_456
O2 O2 La 46.93(16) 4_445 2_456
O2 O2 La 52.38(17) 3_455 2_456
La O2 La 102.2(3) . 2_456
O3 O2 La 144.7(6) 2 2_456
O3 O2 La 118.1(4) 6 2_456
O1 O2 La 97.9(4) 2_455 2_456
O2 O2 La 86.4(6) 2_556 2_456
O3 O2 La 79.7(4) 1_556 2_456
O1 O2 La 17.3(2) 2_456 2_456
O3 O2 La 146.6(3) . 2_456
O1 O2 La 120.5(4) 1_545 2_456
Nb O2 La 150.4(3) . 2_456
Ga1 O2 La 150.4(3) . 2_456
O2 O2 La 149.48(18) 2 2_456
Ga2 O2 La 99.9(3) 2_556 2_456
O3 O2 La 79.2(3) 5_445 2_456
La O2 La 50.59(16) 4_446 2_456
Ga3 O2 La 43.77(13) 2_455 2_456
Ga3 O2 La 103.7(3) 2_565 2_456
La O2 La 49.96(15) 1_556 2_456
La O2 La 62.07(14) 2_455 2_456
O3 O2 La 45.3(2) 4_446 2_456
Ga3 O2 La 152.3(3) 4_445 2_456
Ga3 O2 La 45.97(12) 1_556 2_456
O3 O2 La 106.8(4) 3_556 2_456
Ga2 O2 La 110.4(2) 1_554 2_456
La O2 La 150.8(3) 2 2_456
O3 O2 La 94.1(2) 4_445 2_456
O2 O2 La 53.3(3) 5_456 2_456
O2 O2 La 79.5(4) 5_446 2_456
O3 O2 La 172.7(4) 3 2_456
O2 O2 La 81.9(3) 6_556 2_456
O3 O2 La 133.9(4) 5 2_456
O1 O2 La 88.9(3) . 2_456
Ga1 O2 La 87.4(3) 1_556 2_456
Nb O2 La 87.4(3) 1_556 2_456
Ga2 O2 La 75.12(18) 2_566 2_456
Ga3 O2 La 76.26(18) 1_546 2_456
Ga3 O2 La 125.2(3) 1_656 2_456
O2 O2 La 131.39(16) 1_554 2_456
O2 O2 La 48.61(16) 1_556 2_456
O2 O2 La 119.5(3) 5_445 2_456
O2 O2 La 96.9(2) 5_455 2_456
O3 O2 La 101.6(3) 4_556 2_456
O3 O2 La 26.21(13) 3_456 2_456
Ga2 O2 La 139.5(2) 2 2_456
O2 O2 La 120.3(2) 6 2_456
O2 O2 La 26.2(2) 6_446 2_456
O2 O2 La 103.4(4) 6_546 2_456
O3 O2 La 145.3(3) 4 2_456
Ga1 O2 La 80.06(15) 1_445 2_456
Nb O2 La 80.06(15) 1_445 2_456
O3 O2 La 59.46(19) 6_445 2_456
Ga2 O2 O3 61.6(4) . 3_455
Ga3 O2 O3 151.9(4) 4_446 3_455
La O2 O3 83.6(4) 4_445 3_455
O2 O2 O3 56.9(2) 4_445 3_455
O2 O2 O3 31.7(2) 3_455 3_455
La O2 O3 42.8(2) . 3_455
O3 O2 O3 134.5(5) 2 3_455
O3 O2 O3 92.3(4) 6 3_455
O1 O2 O3 29.8(3) 2_455 3_455
O2 O2 O3 161.4(5) 2_556 3_455
O3 O2 O3 123.1(3) 1_556 3_455
O1 O2 O3 90.5(3) 2_456 3_455
O3 O2 O3 74.4(3) . 3_455
O1 O2 O3 129.9(5) 1_545 3_455
Nb O2 O3 102.9(3) . 3_455
Ga1 O2 O3 102.9(3) . 3_455
O2 O2 O3 92.9(5) 2 3_455
Ga2 O2 O3 149.2(3) 2_556 3_455
O3 O2 O3 94.4(3) 5_445 3_455
La O2 O3 124.9(3) 4_446 3_455
Ga3 O2 O3 77.1(2) 2_455 3_455
Ga3 O2 O3 102.6(2) 2_565 3_455
La O2 O3 96.6(2) 1_556 3_455
La O2 O3 25.56(14) 2_455 3_455
O3 O2 O3 100.76(19) 4_446 3_455
Ga3 O2 O3 77.8(3) 4_445 3_455
Ga3 O2 O3 46.13(16) 1_556 3_455
O3 O2 O3 152.2(3) 3_556 3_455
Ga2 O2 O3 40.35(17) 1_554 3_455
La O2 O3 129.8(4) 2 3_455
O3 O2 O3 67.1(2) 4_445 3_455
O2 O2 O3 66.7(3) 5_456 3_455
O2 O2 O3 132.6(4) 5_446 3_455
O3 O2 O3 107.0(4) 3 3_455
O2 O2 O3 91.1(2) 6_556 3_455
O3 O2 O3 116.8(3) 5 3_455
O1 O2 O3 57.1(2) . 3_455
Ga1 O2 O3 134.3(3) 1_556 3_455
Nb O2 O3 134.3(3) 1_556 3_455
Ga2 O2 O3 69.50(18) 2_566 3_455
Ga3 O2 O3 111.6(2) 1_546 3_455
Ga3 O2 O3 137.9(3) 1_656 3_455
O2 O2 O3 59.6(2) 1_554 3_455
O2 O2 O3 120.4(2) 1_556 3_455
O2 O2 O3 96.0(4) 5_445 3_455
O2 O2 O3 31.1(2) 5_455 3_455
O3 O2 O3 121.4(3) 4_556 3_455
O3 O2 O3 56.95(15) 3_456 3_455
Ga2 O2 O3 96.7(3) 2 3_455
O2 O2 O3 62.1(2) 6 3_455
O2 O2 O3 70.3(2) 6_446 3_455
O2 O2 O3 161.3(4) 6_546 3_455
O3 O2 O3 91.1(3) 4 3_455
Ga1 O2 O3 78.5(2) 1_445 3_455
Nb O2 O3 78.5(2) 1_445 3_455
O3 O2 O3 70.8(2) 6_445 3_455
La O2 O3 75.80(17) 2_456 3_455
Ga2 O2 O3 33.7(4) . 2_455
Ga3 O2 O3 141.8(6) 4_446 2_455
La O2 O3 96.2(3) 4_445 2_455
O2 O2 O3 43.4(3) 4_445 2_455
O2 O2 O3 16.9(3) 3_455 2_455
La O2 O3 61.6(2) . 2_455
O3 O2 O3 157.2(5) 2 2_455
O3 O2 O3 103.2(3) 6 2_455
O1 O2 O3 54.3(3) 2_455 2_455
O2 O2 O3 134.1(7) 2_556 2_455
O3 O2 O3 107.7(4) 1_556 2_455
O1 O2 O3 62.5(3) 2_456 2_455
O3 O2 O3 101.0(3) . 2_455
O1 O2 O3 139.3(3) 1_545 2_455
Nb O2 O3 125.1(3) . 2_455
Ga1 O2 O3 125.1(3) . 2_455
O2 O2 O3 118.2(5) 2 2_455
Ga2 O2 O3 139.2(3) 2_556 2_455
O3 O2 O3 90.1(2) 5_445 2_455
La O2 O3 97.8(3) 4_446 2_455
Ga3 O2 O3 60.19(17) 2_455 2_455
Ga3 O2 O3 104.4(2) 2_565 2_455
La O2 O3 75.6(2) 1_556 2_455
La O2 O3 25.39(15) 2_455 2_455
O3 O2 O3 79.8(3) 4_446 2_455
Ga3 O2 O3 105.8(3) 4_445 2_455
Ga3 O2 O3 28.09(14) 1_556 2_455
O3 O2 O3 143.0(4) 3_556 2_455
Ga2 O2 O3 66.4(2) 1_554 2_455
La O2 O3 156.8(4) 2 2_455
O3 O2 O3 76.7(3) 4_445 2_455
O2 O2 O3 51.9(2) 5_456 2_455
O2 O2 O3 116.7(4) 5_446 2_455
O3 O2 O3 134.4(4) 3 2_455
O2 O2 O3 84.93(17) 6_556 2_455
O3 O2 O3 131.1(3) 5 2_455
O1 O2 O3 63.07(15) . 2_455
Ga1 O2 O3 119.2(3) 1_556 2_455
Nb O2 O3 119.2(3) 1_556 2_455
Ga2 O2 O3 64.94(17) 2_566 2_455
Ga3 O2 O3 101.3(2) 1_546 2_455
Ga3 O2 O3 145.8(3) 1_656 2_455
O2 O2 O3 86.8(2) 1_554 2_455
O2 O2 O3 93.2(2) 1_556 2_455
O2 O2 O3 110.4(4) 5_445 2_455
O2 O2 O3 52.52(19) 5_455 2_455
O3 O2 O3 117.7(2) 4_556 2_455
O3 O2 O3 30.6(3) 3_456 2_455
Ga2 O2 O3 118.7(3) 2 2_455
O2 O2 O3 82.36(18) 6 2_455
O2 O2 O3 47.35(13) 6_446 2_455
O2 O2 O3 147.8(4) 6_546 2_455
O3 O2 O3 113.3(2) 4 2_455
Ga1 O2 O3 78.35(19) 1_445 2_455
Nb O2 O3 78.35(19) 1_445 2_455
O3 O2 O3 62.0(2) 6_445 2_455
La O2 O3 47.77(17) 2_456 2_455
O3 O2 O3 28.1(3) 3_455 2_455
Ga2 O2 O3 50.4(3) . 5_455
Ga3 O2 O3 121.8(4) 4_446 5_455
La O2 O3 116.7(4) 4_445 5_455
O2 O2 O3 71.3(3) 4_445 5_455
O2 O2 O3 11.7(3) 3_455 5_455
La O2 O3 40.73(19) . 5_455
O3 O2 O3 130.4(3) 2 5_455
O3 O2 O3 75.5(3) 6 5_455
O1 O2 O3 62.6(3) 2_455 5_455
O2 O2 O3 138.5(7) 2_556 5_455
O3 O2 O3 89.9(4) 1_556 5_455
O1 O2 O3 69.7(3) 2_456 5_455
O3 O2 O3 85.2(3) . 5_455
O1 O2 O3 163.3(5) 1_545 5_455
Nb O2 O3 100.8(3) . 5_455
Ga1 O2 O3 100.8(3) . 5_455
O2 O2 O3 121.0(6) 2 5_455
Ga2 O2 O3 161.4(4) 2_556 5_455
O3 O2 O3 117.8(3) 5_445 5_455
La O2 O3 109.8(3) 4_446 5_455
Ga3 O2 O3 86.99(19) 2_455 5_455
Ga3 O2 O3 77.32(18) 2_565 5_455
La O2 O3 64.1(2) 1_556 5_455
La O2 O3 48.79(14) 2_455 5_455
O3 O2 O3 103.1(3) 4_446 5_455
Ga3 O2 O3 99.4(3) 4_445 5_455
Ga3 O2 O3 17.05(15) 1_556 5_455
O3 O2 O3 122.7(3) 3_556 5_455
Ga2 O2 O3 71.3(2) 1_554 5_455
La O2 O3 147.3(3) 2 5_455
O3 O2 O3 98.9(3) 4_445 5_455
O2 O2 O3 33.4(3) 5_456 5_455
O2 O2 O3 140.2(4) 5_446 5_455
O3 O2 O3 117.0(3) 3 5_455
O2 O2 O3 60.28(15) 6_556 5_455
O3 O2 O3 103.4(3) 5 5_455
O1 O2 O3 35.41(12) . 5_455
Ga1 O2 O3 101.4(2) 1_556 5_455
Nb O2 O3 101.4(2) 1_556 5_455
Ga2 O2 O3 38.89(13) 2_566 5_455
Ga3 O2 O3 128.5(2) 1_546 5_455
Ga3 O2 O3 118.7(2) 1_656 5_455
O2 O2 O3 86.9(2) 1_554 5_455
O2 O2 O3 93.1(2) 1_556 5_455
O2 O2 O3 129.4(4) 5_445 5_455
O2 O2 O3 36.60(19) 5_455 5_455
O3 O2 O3 93.0(2) 4_556 5_455
O3 O2 O3 35.7(3) 3_456 5_455
Ga2 O2 O3 128.0(4) 2 5_455
O2 O2 O3 59.98(17) 6 5_455
O2 O2 O3 71.62(15) 6_446 5_455
O2 O2 O3 160.5(6) 6_546 5_455
O3 O2 O3 89.9(3) 4 5_455
Ga1 O2 O3 105.03(19) 1_445 5_455
Nb O2 O3 105.03(19) 1_445 5_455
O3 O2 O3 89.89(17) 6_445 5_455
La O2 O3 61.52(18) 2_456 5_455
O3 O2 O3 33.5(3) 3_455 5_455
O3 O2 O3 27.86(18) 2_455 5_455
Ga2 O2 La 110.3(6) . 2_556
Ga3 O2 La 24.7(3) 4_446 2_556
La O2 La 104.6(3) 4_445 2_556
O2 O2 La 121.3(3) 4_445 2_556
O2 O2 La 138.5(2) 3_455 2_556
La O2 La 136.5(3) . 2_556
O3 O2 La 51.4(4) 2 2_556
O3 O2 La 86.6(4) 6 2_556
O1 O2 La 159.9(4) 2_455 2_556
O2 O2 La 14.67(12) 2_556 2_556
O3 O2 La 48.7(3) 1_556 2_556
O1 O2 La 80.7(4) 2_456 2_556
O3 O2 La 111.7(3) . 2_556
O1 O2 La 59.0(4) 1_545 2_556
Nb O2 La 81.3(2) . 2_556
Ga1 O2 La 81.3(2) . 2_556
O2 O2 La 96.9(4) 2 2_556
Ga2 O2 La 36.72(14) 2_556 2_556
O3 O2 La 89.5(3) 5_445 2_556
La O2 La 48.91(16) 4_446 2_556
Ga3 O2 La 101.1(3) 2_455 2_556
Ga3 O2 La 73.6(2) 2_565 2_556
La O2 La 73.8(2) 1_556 2_556
La O2 La 152.6(3) 2_455 2_556
O3 O2 La 76.6(3) 4_446 2_556
Ga3 O2 La 111.0(2) 4_445 2_556
Ga3 O2 La 124.1(3) 1_556 2_556
O3 O2 La 24.91(15) 3_556 2_556
Ga2 O2 La 149.4(3) 1_554 2_556
La O2 La 59.51(13) 2 2_556
O3 O2 La 119.7(2) 4_445 2_556
O2 O2 La 104.0(5) 5_456 2_556
O2 O2 La 49.2(3) 5_446 2_556
O3 O2 La 80.4(2) 3 2_556
O2 O2 La 82.1(3) 6_556 2_556
O3 O2 La 64.7(2) 5 2_556
O1 O2 La 118.0(3) . 2_556
Ga1 O2 La 38.12(11) 1_556 2_556
Nb O2 La 38.12(11) 1_556 2_556
Ga2 O2 La 103.3(3) 2_566 2_556
Ga3 O2 La 71.11(17) 1_546 2_556
Ga3 O2 La 43.38(11) 1_656 2_556
O2 O2 La 129.84(15) 1_554 2_556
O2 O2 La 50.16(15) 1_556 2_556
O2 O2 La 92.9(2) 5_445 2_556
O2 O2 La 148.5(3) 5_455 2_556
O3 O2 La 54.08(18) 4_556 2_556
O3 O2 La 113.5(3) 3_456 2_556
Ga2 O2 La 93.06(16) 2 2_556
O2 O2 La 119.31(19) 6 2_556
O2 O2 La 104.9(4) 6_446 2_556
O2 O2 La 25.65(19) 6_546 2_556
O3 O2 La 92.6(2) 4 2_556
Ga1 O2 La 105.92(19) 1_445 2_556
Nb O2 La 105.92(19) 1_445 2_556
O3 O2 La 110.2(3) 6_445 2_556
La O2 La 96.1(3) 2_456 2_556
O3 O2 La 170.2(3) 3_455 2_556
O3 O2 La 143.2(4) 2_455 2_556
O3 O2 La 137.4(3) 5_455 2_556
Ga2 O2 O3 92.4(6) . 2_556
Ga3 O2 O3 26.6(4) 4_446 2_556
La O2 O3 127.8(4) 4_445 2_556
O2 O2 O3 118.0(2) 4_445 2_556
O2 O2 O3 113.8(2) 3_455 2_556
La O2 O3 123.0(4) . 2_556
O3 O2 O3 65.5(4) 2 2_556
O3 O2 O3 78.7(4) 6 2_556
O1 O2 O3 175.0(4) 2_455 2_556
O2 O2 O3 30.1(4) 2_556 2_556
O3 O2 O3 27.0(3) 1_556 2_556
O1 O2 O3 62.1(4) 2_456 2_556
O3 O2 O3 119.6(4) . 2_556
O1 O2 O3 83.7(4) 1_545 2_556
Nb O2 O3 87.4(3) . 2_556
Ga1 O2 O3 87.4(3) . 2_556
O2 O2 O3 120.3(4) 2 2_556
Ga2 O2 O3 58.9(2) 2_556 2_556
O3 O2 O3 104.1(4) 5_445 2_556
La O2 O3 44.0(2) 4_446 2_556
Ga3 O2 O3 100.7(3) 2_455 2_556
Ga3 O2 O3 60.7(2) 2_565 2_556
La O2 O3 48.7(2) 1_556 2_556
La O2 O3 141.2(4) 2_455 2_556
O3 O2 O3 77.3(3) 4_446 2_556
Ga3 O2 O3 128.4(2) 4_445 2_556
Ga3 O2 O3 99.2(3) 1_556 2_556
O3 O2 O3 27.9(3) 3_556 2_556
Ga2 O2 O3 169.9(3) 1_554 2_556
La O2 O3 81.7(2) 2 2_556
O3 O2 O3 138.9(3) 4_445 2_556
O2 O2 O3 79.1(4) 5_456 2_556
O2 O2 O3 63.8(4) 5_446 2_556
O3 O2 O3 95.4(3) 3 2_556
O2 O2 O3 61.7(3) 6_556 2_556
O3 O2 O3 66.7(2) 5 2_556
O1 O2 O3 99.1(3) . 2_556
Ga1 O2 O3 20.23(12) 1_556 2_556
Nb O2 O3 20.23(12) 1_556 2_556
Ga2 O2 O3 81.2(2) 2_566 2_556
Ga3 O2 O3 84.9(2) 1_546 2_556
Ga3 O2 O3 48.60(17) 1_656 2_556
O2 O2 O3 149.42(18) 1_554 2_556
O2 O2 O3 30.58(18) 1_556 2_556
O2 O2 O3 117.3(3) 5_445 2_556
O2 O2 O3 133.2(3) 5_455 2_556
O3 O2 O3 42.2(2) 4_556 2_556
O3 O2 O3 90.9(3) 3_456 2_556
Ga2 O2 O3 117.9(2) 2 2_556
O2 O2 O3 113.3(3) 6 2_556
O2 O2 O3 96.4(5) 6_446 2_556
O2 O2 O3 49.5(3) 6_546 2_556
O3 O2 O3 96.1(3) 4 2_556
Ga1 O2 O3 120.3(3) 1_445 2_556
Nb O2 O3 120.3(3) 1_445 2_556
O3 O2 O3 115.5(3) 6_445 2_556
La O2 O3 79.2(3) 2_456 2_556
O3 O2 O3 145.3(3) 3_455 2_556
O3 O2 O3 121.5(4) 2_455 2_556
O3 O2 O3 112.4(3) 5_455 2_556
La O2 O3 25.07(12) 2_556 2_556
Ga2 O2 O3 78.7(5) . 6_556
Ga3 O2 O3 42.3(4) 4_446 6_556
La O2 O3 154.7(5) 4_445 6_556
O2 O2 O3 115.46(18) 4_445 6_556
O2 O2 O3 88.4(3) 3_455 6_556
La O2 O3 99.1(3) . 6_556
O3 O2 O3 78.6(4) 2 6_556
O3 O2 O3 65.2(4) 6 6_556
O1 O2 O3 147.5(4) 2_455 6_556
O2 O2 O3 57.2(5) 2_556 6_556
O3 O2 O3 10.9(3) 1_556 6_556
O1 O2 O3 52.5(3) 2_456 6_556
O3 O2 O3 114.0(3) . 6_556
O1 O2 O3 111.0(5) 1_545 6_556
Nb O2 O3 87.2(3) . 6_556
Ga1 O2 O3 87.2(3) . 6_556
O2 O2 O3 139.1(3) 2 6_556
Ga2 O2 O3 86.3(3) 2_556 6_556
O3 O2 O3 124.2(5) 5_445 6_556
La O2 O3 57.3(3) 4_446 6_556
Ga3 O2 O3 105.5(4) 2_455 6_556
Ga3 O2 O3 45.3(2) 2_565 6_556
La O2 O3 24.13(12) 1_556 6_556
La O2 O3 124.1(3) 2_455 6_556
O3 O2 O3 88.1(3) 4_446 6_556
Ga3 O2 O3 133.2(3) 4_445 6_556
Ga3 O2 O3 73.9(2) 1_556 6_556
O3 O2 O3 43.7(3) 3_556 6_556
Ga2 O2 O3 152.2(3) 1_554 6_556
La O2 O3 102.0(3) 2 6_556
O3 O2 O3 158.0(3) 4_445 6_556
O2 O2 O3 52.1(3) 5_456 6_556
O2 O2 O3 87.8(5) 5_446 6_556
O3 O2 O3 104.1(4) 3 6_556
O2 O2 O3 37.0(3) 6_556 6_556
O3 O2 O3 66.5(2) 5 6_556
O1 O2 O3 73.7(3) . 6_556
Ga1 O2 O3 20.13(11) 1_556 6_556
Nb O2 O3 20.13(11) 1_556 6_556
Ga2 O2 O3 54.3(2) 2_566 6_556
Ga3 O2 O3 106.4(3) 1_546 6_556
Ga3 O2 O3 57.16(19) 1_656 6_556
O2 O2 O3 149.1(2) 1_554 6_556
O2 O2 O3 30.9(2) 1_556 6_556
O2 O2 O3 144.8(4) 5_445 6_556
O2 O2 O3 107.5(3) 5_455 6_556
O3 O2 O3 34.0(3) 4_556 6_556
O3 O2 O3 70.5(2) 3_456 6_556
Ga2 O2 O3 141.6(2) 2 6_556
O2 O2 O3 95.8(3) 6 6_556
O2 O2 O3 93.1(4) 6_446 6_556
O2 O2 O3 77.0(4) 6_546 6_556
O3 O2 O3 91.1(3) 4 6_556
Ga1 O2 O3 137.3(3) 1_445 6_556
Nb O2 O3 137.3(3) 1_445 6_556
O3 O2 O3 123.0(4) 6_445 6_556
La O2 O3 68.8(2) 2_456 6_556
O3 O2 O3 118.8(3) 3_455 6_556
O3 O2 O3 99.7(3) 2_455 6_556
O3 O2 O3 85.4(2) 5_455 6_556
La O2 O3 52.02(18) 2_556 6_556
O3 O2 O3 27.5(2) 2_556 6_556
Ga2 O2 O1 88.1(6) . 1_546
Ga3 O2 O1 49.3(4) 4_446 1_546
La O2 O1 97.5(3) 4_445 1_546
O2 O2 O1 94.9(3) 4_445 1_546
O2 O2 O1 124.93(19) 3_455 1_546
La O2 O1 156.1(4) . 1_546
O3 O2 O1 76.9(4) 2 1_546
O3 O2 O1 110.1(5) 6 1_546
O1 O2 O1 149.9(3) 2_455 1_546
O2 O2 O1 12.9(3) 2_556 1_546
O3 O2 O1 59.8(4) 1_556 1_546
O1 O2 O1 62.0(3) 2_456 1_546
O3 O2 O1 137.0(3) . 1_546
O1 O2 O1 61.5(3) 1_545 1_546
Nb O2 O1 107.8(3) . 1_546
Ga1 O2 O1 107.8(3) . 1_546
O2 O2 O1 108.3(4) 2 1_546
Ga2 O2 O1 33.4(2) 2_556 1_546
O3 O2 O1 70.9(3) 5_445 1_546
La O2 O1 23.90(13) 4_446 1_546
Ga3 O2 O1 74.9(2) 2_455 1_546
Ga3 O2 O1 93.6(3) 2_565 1_546
La O2 O1 70.9(3) 1_556 1_546
La O2 O1 126.0(3) 2_455 1_546
O3 O2 O1 50.2(2) 4_446 1_546
Ga3 O2 O1 129.6(2) 4_445 1_546
Ga3 O2 O1 113.5(4) 1_556 1_546
O3 O2 O1 49.9(2) 3_556 1_546
Ga2 O2 O1 150.5(3) 1_554 1_546
La O2 O1 77.6(2) 2 1_546
O3 O2 O1 105.7(2) 4_445 1_546
O2 O2 O1 101.7(5) 5_456 1_546
O2 O2 O1 30.8(3) 5_446 1_546
O3 O2 O1 103.9(3) 3 1_546
O2 O2 O1 93.9(4) 6_556 1_546
O3 O2 O1 91.1(3) 5 1_546
O1 O2 O1 131.0(5) . 1_546
Ga1 O2 O1 53.29(18) 1_556 1_546
Nb O2 O1 53.29(18) 1_556 1_546
Ga2 O2 O1 111.1(3) 2_566 1_546
Ga3 O2 O1 51.63(16) 1_546 1_546
Ga3 O2 O1 69.80(18) 1_656 1_546
O2 O2 O1 141.8(2) 1_554 1_546
O2 O2 O1 38.2(2) 1_556 1_546
O2 O2 O1 90.6(3) 5_445 1_546
O2 O2 O1 164.2(4) 5_455 1_546
O3 O2 O1 74.3(2) 4_556 1_546
O3 O2 O1 96.9(3) 3_456 1_546
Ga2 O2 O1 99.8(2) 2 1_546
O2 O2 O1 144.5(3) 6 1_546
O2 O2 O1 78.6(4) 6_446 1_546
O2 O2 O1 30.7(3) 6_546 1_546
O3 O2 O1 119.2(2) 4 1_546
Ga1 O2 O1 87.15(18) 1_445 1_546
Nb O2 O1 87.15(18) 1_445 1_546
O3 O2 O1 85.9(2) 6_445 1_546
La O2 O1 74.2(2) 2_456 1_546
O3 O2 O1 148.6(3) 3_455 1_546
O3 O2 O1 121.7(3) 2_455 1_546
O3 O2 O1 130.5(4) 5_455 1_546
La O2 O1 26.63(8) 2_556 1_546
O3 O2 O1 33.28(15) 2_556 1_546
O3 O2 O1 57.3(3) 6_556 1_546
Ga2 O2 O2 111.7(5) . 4
Ga3 O2 O2 59.7(3) 4_446 4
La O2 O2 136.1(3) 4_445 4
O2 O2 O2 144.7(5) 4_445 4
O2 O2 O2 84.7(5) 3_455 4
La O2 O2 52.2(3) . 4
O3 O2 O2 57.9(2) 2 4
O3 O2 O2 6.4(4) 6 4
O1 O2 O2 103.4(3) 2_455 4
O2 O2 O2 98.20(12) 2_556 4
O3 O2 O2 51.2(4) 1_556 4
O1 O2 O2 102.7(3) 2_456 4
O3 O2 O2 55.5(3) . 4
O1 O2 O2 116.9(2) 1_545 4
Nb O2 O2 38.25(16) . 4
Ga1 O2 O2 38.25(16) . 4
O2 O2 O2 96.46(8) 2 4
Ga2 O2 O2 115.8(2) 2_556 4
O3 O2 O2 167.5(4) 5_445 4
La O2 O2 115.68(16) 4_446 4
Ga3 O2 O2 155.5(3) 2_455 4
Ga3 O2 O2 14.1(2) 2_565 4
La O2 O2 66.05(19) 1_556 4
La O2 O2 118.1(3) 2_455 4
O3 O2 O2 147.1(3) 4_446 4
Ga3 O2 O2 77.49(12) 4_445 4
Ga3 O2 O2 78.7(2) 1_556 4
O3 O2 O2 59.59(16) 3_556 4
Ga2 O2 O2 98.64(17) 1_554 4
La O2 O2 83.10(14) 2 4
O3 O2 O2 142.8(2) 4_445 4
O2 O2 O2 61.0(3) 5_456 4
O2 O2 O2 133.6(4) 5_446 4
O3 O2 O2 61.21(18) 3 4
O2 O2 O2 30.8(3) 6_556 4
O3 O2 O2 30.38(16) 5 4
O1 O2 O2 38.70(18) . 4
Ga1 O2 O2 54.08(13) 1_556 4
Nb O2 O2 54.08(13) 1_556 4
Ga2 O2 O2 40.18(18) 2_566 4
Ga3 O2 O2 155.0(3) 1_546 4
Ga3 O2 O2 46.35(8) 1_656 4
O2 O2 O2 90.0 1_554 4
O2 O2 O2 90.0 1_556 4
O2 O2 O2 128.2(3) 5_445 4
O2 O2 O2 64.2(2) 5_455 4
O3 O2 O2 32.22(18) 4_556 4
O3 O2 O2 93.6(3) 3_456 4
Ga2 O2 O2 107.90(13) 2 4
O2 O2 O2 39.1(3) 6 4
O2 O2 O2 136.7(3) 6_446 4
O2 O2 O2 103.92(13) 6_546 4
O3 O2 O2 35.5(2) 4 4
Ga1 O2 O2 163.47(18) 1_445 4
Nb O2 O2 163.47(18) 1_445 4
O3 O2 O2 163.2(3) 6_445 4
La O2 O2 112.2(2) 2_456 4
O3 O2 O2 93.4(3) 3_455 4
O3 O2 O2 101.4(3) 2_455 4
O3 O2 O2 73.5(2) 5_455 4
La O2 O2 84.37(12) 2_556 4
O3 O2 O2 74.25(14) 2_556 4
O3 O2 O2 59.2(2) 6_556 4
O1 O2 O2 106.49(14) 1_546 4
Ga2 O2 O2 151.6(5) . 3
Ga3 O2 O2 33.6(5) 4_446 3
La O2 O2 96.2(3) 4_445 3
O2 O2 O2 155.3(5) 4_445 3
O2 O2 O2 144.7(5) 3_455 3
La O2 O2 101.2(2) . 3
O3 O2 O2 6.5(4) 2 3
O3 O2 O2 58.0(2) 6 3
O1 O2 O2 123.4(4) 2_455 3
O2 O2 O2 57.7(4) 2_556 3
O3 O2 O2 64.2(3) 1_556 3
O1 O2 O2 121.5(3) 2_456 3
O3 O2 O2 66.9(2) . 3
O1 O2 O2 57.9(2) 1_545 3
Nb O2 O2 38.25(16) . 3
Ga1 O2 O2 38.25(16) . 3
O2 O2 O2 65.1(3) 2 3
Ga2 O2 O2 59.2(2) 2_556 3
O3 O2 O2 108.2(3) 5_445 3
La O2 O2 93.7(2) 4_446 3
Ga3 O2 O2 138.4(3) 2_455 3
Ga3 O2 O2 58.41(9) 2_565 3
La O2 O2 97.40(13) 1_556 3
La O2 O2 159.3(2) 2_455 3
O3 O2 O2 117.2(3) 4_446 3
Ga3 O2 O2 69.07(15) 4_445 3
Ga3 O2 O2 136.7(2) 1_556 3
O3 O2 O2 32.2(2) 3_556 3
Ga2 O2 O2 110.95(14) 1_554 3
La O2 O2 29.66(19) 2 3
O3 O2 O2 115.7(3) 4_445 3
O2 O2 O2 114.2(3) 5_456 3
O2 O2 O2 81.3(3) 5_446 3
O3 O2 O2 36.4(3) 3 3
O2 O2 O2 79.58(17) 6_556 3
O3 O2 O2 30.01(16) 5 3
O1 O2 O2 98.07(17) . 3
Ga1 O2 O2 54.08(13) 1_556 3
Nb O2 O2 54.08(13) 1_556 3
Ga2 O2 O2 97.90(17) 2_566 3
Ga3 O2 O2 97.6(3) 1_546 3
Ga3 O2 O2 18.83(13) 1_656 3
O2 O2 O2 90.0 1_554 3
O2 O2 O2 90.0 1_556 3
O2 O2 O2 82.2(3) 5_445 3
O2 O2 O2 111.6(3) 5_455 3
O3 O2 O2 48.32(18) 4_556 3
O3 O2 O2 143.5(3) 3_456 3
Ga2 O2 O2 68.83(18) 2 3
O2 O2 O2 80.59(16) 6 3
O2 O2 O2 148.8(3) 6_446 3
O2 O2 O2 49.34(16) 6_546 3
O3 O2 O2 50.19(16) 4 3
Ga1 O2 O2 118.5(3) 1_445 3
Nb O2 O2 118.5(3) 1_445 3
O3 O2 O2 136.4(3) 6_445 3
La O2 O2 138.61(16) 2_456 3
O3 O2 O2 140.8(2) 3_455 3
O3 O2 O2 161.1(3) 2_455 3
O3 O2 O2 133.4(2) 5_455 3
La O2 O2 44.89(16) 2_556 3
O3 O2 O2 59.45(18) 2_556 3
O3 O2 O2 74.12(14) 6_556 3
O1 O2 O2 70.52(18) 1_546 3
O2 O2 O2 60.000(1) 4 3
Ga2 O2 O2 65.3(3) . 6_445
Ga3 O2 O2 167.2(5) 4_446 6_445
La O2 O2 48.4(3) 4_445 6_445
O2 O2 O2 32.1(3) 4_445 6_445
O2 O2 O2 62.76(18) 3_455 6_445
La O2 O2 79.9(4) . 6_445
O3 O2 O2 137.5(7) 2 6_445
O3 O2 O2 129.0(6) 6 6_445
O1 O2 O2 30.9(2) 2_455 6_445
O2 O2 O2 129.8(2) 2_556 6_445
O3 O2 O2 153.9(4) 1_556 6_445
O1 O2 O2 93.2(3) 2_456 6_445
O3 O2 O2 90.8(5) . 6_445
O1 O2 O2 93.7(4) 1_545 6_445
Nb O2 O2 122.6(6) . 6_445
Ga1 O2 O2 122.6(6) . 6_445
O2 O2 O2 77.0(5) 2 6_445
Ga2 O2 O2 108.4(3) 2_556 6_445
O3 O2 O2 53.9(2) 5_445 6_445
La O2 O2 105.6(3) 4_446 6_445
Ga3 O2 O2 48.84(14) 2_455 6_445
Ga3 O2 O2 143.1(4) 2_565 6_445
La O2 O2 120.7(2) 1_556 6_445
La O2 O2 22.50(6) 2_455 6_445
O3 O2 O2 72.7(3) 4_446 6_445
Ga3 O2 O2 78.5(4) 4_445 6_445
Ga3 O2 O2 75.80(8) 1_556 6_445
O3 O2 O2 166.7(3) 3_556 6_445
Ga2 O2 O2 40.1(2) 1_554 6_445
La O2 O2 112.9(4) 2 6_445
O3 O2 O2 29.1(2) 4_445 6_445
O2 O2 O2 99.6(2) 5_456 6_445
O2 O2 O2 94.2(3) 5_446 6_445
O3 O2 O2 110.6(5) 3 6_445
O2 O2 O2 130.5(2) 6_556 6_445
O3 O2 O2 143.7(5) 5 6_445
O1 O2 O2 97.9(3) . 6_445
Ga1 O2 O2 163.5(4) 1_556 6_445
Nb O2 O2 163.5(4) 1_556 6_445
Ga2 O2 O2 108.92(19) 2_566 6_445
Ga3 O2 O2 72.2(2) 1_546 6_445
Ga3 O2 O2 158.7(5) 1_656 6_445
O2 O2 O2 58.0(3) 1_554 6_445
O2 O2 O2 122.0(3) 1_556 6_445
O2 O2 O2 62.6(4) 5_445 6_445
O2 O2 O2 67.9(3) 5_455 6_445
O3 O2 O2 162.2(3) 4_556 6_445
O3 O2 O2 74.31(19) 3_456 6_445
Ga2 O2 O2 73.2(3) 2 6_445
O2 O2 O2 94.6(4) 6 6_445
O2 O2 O2 54.58(12) 6_446 6_445
O2 O2 O2 120.5(4) 6_546 6_445
O3 O2 O2 114.4(5) 4 6_445
Ga1 O2 O2 37.74(16) 1_445 6_445
Nb O2 O2 37.74(16) 1_445 6_445
O3 O2 O2 35.1(2) 6_445 6_445
La O2 O2 76.06(17) 2_456 6_445
O3 O2 O2 40.83(17) 3_455 6_445
O3 O2 O2 47.81(14) 2_455 6_445
O3 O2 O2 70.25(15) 5_455 6_445
La O2 O2 143.3(3) 2_556 6_445
O3 O2 O2 149.5(4) 2_556 6_445
O3 O2 O2 143.9(3) 6_556 6_445
O1 O2 O2 120.8(3) 1_546 6_445
O2 O2 O2 132.0(3) 4 6_445
O2 O2 O2 141.8(3) 3 6_445
Ga2 O2 O2 145.4(5) . 6_545
Ga3 O2 O2 81.4(2) 4_446 6_545
La O2 O2 43.0(3) 4_445 6_545
O2 O2 O2 107.0(5) 4_445 6_545
O2 O2 O2 146.7(3) 3_455 6_545
La O2 O2 109.0(5) . 6_545
O3 O2 O2 51.1(3) 2 6_545
O3 O2 O2 97.6(4) 6 6_545
O1 O2 O2 85.4(5) 2_455 6_545
O2 O2 O2 76.4(4) 2_556 6_545
O3 O2 O2 115.4(3) 1_556 6_545
O1 O2 O2 142.4(5) 2_456 6_545
O3 O2 O2 65.8(4) . 6_545
O1 O2 O2 25.0(3) 1_545 6_545
Nb O2 O2 65.1(2) . 6_545
Ga1 O2 O2 65.1(2) . 6_545
O2 O2 O2 23.9(2) 2 6_545
Ga2 O2 O2 51.74(14) 2_556 6_545
O3 O2 O2 65.0(3) 5_445 6_545
La O2 O2 103.2(3) 4_446 6_545
Ga3 O2 O2 101.7(3) 2_455 6_545
Ga3 O2 O2 107.72(19) 2_565 6_545
La O2 O2 147.4(4) 1_556 6_545
La O2 O2 111.8(4) 2_455 6_545
O3 O2 O2 97.9(3) 4_446 6_545
Ga3 O2 O2 47.0(3) 4_445 6_545
Ga3 O2 O2 161.0(5) 1_556 6_545
O3 O2 O2 80.14(17) 3_556 6_545
Ga2 O2 O2 74.9(4) 1_554 6_545
La O2 O2 23.58(5) 2 6_545
O3 O2 O2 62.5(3) 4_445 6_545
O2 O2 O2 163.6(4) 5_456 6_545
O2 O2 O2 67.21(16) 5_446 6_545
O3 O2 O2 42.48(18) 3 6_545
O2 O2 O2 130.5(2) 6_556 6_545
O3 O2 O2 75.3(2) 5 6_545
O1 O2 O2 127.5(5) . 6_545
Ga1 O2 O2 103.99(18) 1_556 6_545
Nb O2 O2 103.99(18) 1_556 6_545
Ga2 O2 O2 141.8(3) 2_566 6_545
Ga3 O2 O2 66.7(2) 1_546 6_545
Ga3 O2 O2 72.03(7) 1_656 6_545
O2 O2 O2 58.0(3) 1_554 6_545
O2 O2 O2 122.0(3) 1_556 6_545
O2 O2 O2 29.2(2) 5_445 6_545
O2 O2 O2 109.5(6) 5_455 6_545
O3 O2 O2 101.5(2) 4_556 6_545
O3 O2 O2 162.5(3) 3_456 6_545
Ga2 O2 O2 18.51(19) 2 6_545
O2 O2 O2 94.6(4) 6 6_545
O2 O2 O2 120.5(4) 6_446 6_545
O2 O2 O2 54.58(12) 6_546 6_545
O3 O2 O2 71.8(3) 4 6_545
Ga1 O2 O2 68.6(2) 1_445 6_545
Nb O2 O2 68.6(2) 1_445 6_545
O3 O2 O2 89.4(3) 6_445 6_545
La O2 O2 142.9(3) 2_456 6_545
O3 O2 O2 115.0(5) 3_455 6_545
O3 O2 O2 136.8(4) 2_455 6_545
O3 O2 O2 144.9(5) 5_455 6_545
La O2 O2 74.76(17) 2_556 6_545
O3 O2 O2 99.4(2) 2_556 6_545
O3 O2 O2 123.5(3) 6_556 6_545
O1 O2 O2 84.5(3) 1_546 6_545
O2 O2 O2 102.77(12) 4 6_545
O2 O2 O2 53.22(17) 3 6_545
O2 O2 O2 89.9(4) 6_445 6_545
Ga2 O2 O2 92.3(6) . 4_444
Ga3 O2 O2 149.7(5) 4_446 4_444
La O2 O2 41.1(3) 4_445 4_444
O2 O2 O2 61.03(15) 4_445 4_444
O2 O2 O2 75.99(7) 3_455 4_444
La O2 O2 67.1(3) . 4_444
O3 O2 O2 110.6(5) 2 4_444
O3 O2 O2 108.2(5) 6 4_444
O1 O2 O2 16.08(17) 2_455 4_444
O2 O2 O2 138.7(5) 2_556 4_444
O3 O2 O2 163.3(4) 1_556 4_444
O1 O2 O2 121.7(4) 2_456 4_444
O3 O2 O2 63.0(2) . 4_444
O1 O2 O2 85.3(5) 1_545 4_444
Nb O2 O2 93.9(3) . 4_444
Ga1 O2 O2 93.9(3) . 4_444
O2 O2 O2 52.2(3) 2 4_444
Ga2 O2 O2 109.9(3) 2_556 4_444
O3 O2 O2 66.6(4) 5_445 4_444
La O2 O2 130.6(3) 4_446 4_444
Ga3 O2 O2 75.9(3) 2_455 4_444
Ga3 O2 O2 127.3(3) 2_565 4_444
La O2 O2 141.2(3) 1_556 4_444
La O2 O2 43.8(2) 2_455 4_444
O3 O2 O2 97.5(3) 4_446 4_444
Ga3 O2 O2 49.44(12) 4_445 4_444
Ga3 O2 O2 90.6(3) 1_556 4_444
O3 O2 O2 148.3(3) 3_556 4_444
Ga2 O2 O2 14.72(8) 1_554 4_444
La O2 O2 90.8(3) 2 4_444
O3 O2 O2 31.3(2) 4_445 4_444
O2 O2 O2 111.6(4) 5_456 4_444
O2 O2 O2 106.0(5) 5_446 4_444
O3 O2 O2 81.9(3) 3 4_444
O2 O2 O2 129.1(4) 6_556 4_444
O3 O2 O2 115.3(3) 5 4_444
O1 O2 O2 91.6(3) . 4_444
Ga1 O2 O2 166.0(3) 1_556 4_444
Nb O2 O2 166.0(3) 1_556 4_444
Ga2 O2 O2 110.0(3) 2_566 4_444
Ga3 O2 O2 85.6(3) 1_546 4_444
Ga3 O2 O2 130.2(3) 1_656 4_444
O2 O2 O2 28.97(15) 1_554 4_444
O2 O2 O2 151.03(15) 1_556 4_444
O2 O2 O2 51.6(3) 5_445 4_444
O2 O2 O2 57.5(3) 5_455 4_444
O3 O2 O2 144.1(3) 4_556 4_444
O3 O2 O2 96.7(3) 3_456 4_444
Ga2 O2 O2 52.75(17) 2 4_444
O2 O2 O2 74.5(3) 6 4_444
O2 O2 O2 83.7(4) 6_446 4_444
O2 O2 O2 119.4(4) 6_546 4_444
O3 O2 O2 87.0(2) 4 4_444
Ga1 O2 O2 51.2(2) 1_445 4_444
Nb O2 O2 51.2(2) 1_445 4_444
O3 O2 O2 59.5(3) 6_445 4_444
La O2 O2 104.3(3) 2_456 4_444
O3 O2 O2 45.0(2) 3_455 4_444
O3 O2 O2 66.4(3) 2_455 4_444
O3 O2 O2 78.3(3) 5_455 4_444
La O2 O2 144.3(3) 2_556 4_444
O3 O2 O2 168.8(3) 2_556 4_444
O3 O2 O2 163.6(3) 6_556 4_444
O1 O2 O2 136.8(3) 1_546 4_444
O2 O2 O2 113.29(18) 4 4_444
O2 O2 O2 116.10(19) 3 4_444
O2 O2 O2 29.1(3) 6_445 4_444
O2 O2 O2 71.2(3) 6_545 4_444
Ga2 O2 O2 92.3(6) . 3_454
Ga3 O2 O2 141.0(5) 4_446 3_454
La O2 O2 67.8(3) 4_445 3_454
O2 O2 O2 75.99(7) 4_445 3_454
O2 O2 O2 61.03(15) 3_455 3_454
La O2 O2 39.1(3) . 3_454
O3 O2 O2 106.8(5) 2 3_454
O3 O2 O2 83.3(5) 6 3_454
O1 O2 O2 16.08(17) 2_455 3_454
O2 O2 O2 163.0(6) 2_556 3_454
O3 O2 O2 135.3(5) 1_556 3_454
O1 O2 O2 121.7(4) 2_456 3_454
O3 O2 O2 47.4(2) . 3_454
O1 O2 O2 107.2(5) 1_545 3_454
Nb O2 O2 79.3(3) . 3_454
Ga1 O2 O2 79.3(3) . 3_454
O2 O2 O2 63.1(4) 2 3_454
Ga2 O2 O2 134.6(3) 2_556 3_454
O3 O2 O2 94.2(3) 5_445 3_454
La O2 O2 151.3(3) 4_446 3_454
Ga3 O2 O2 95.0(3) 2_455 3_454
Ga3 O2 O2 100.8(3) 2_565 3_454
La O2 O2 121.5(3) 1_556 3_454
La O2 O2 47.3(2) 2_455 3_454
O3 O2 O2 119.4(3) 4_446 3_454
Ga3 O2 O2 46.59(12) 4_445 3_454
Ga3 O2 O2 74.4(3) 1_556 3_454
O3 O2 O2 140.0(3) 3_556 3_454
Ga2 O2 O2 14.72(8) 1_554 3_454
La O2 O2 98.7(2) 2 3_454
O3 O2 O2 59.2(2) 4_445 3_454
O2 O2 O2 90.2(4) 5_456 3_454
O2 O2 O2 134.0(4) 5_446 3_454
O3 O2 O2 77.3(3) 3 3_454
O2 O2 O2 101.2(4) 6_556 3_454
O3 O2 O2 98.6(3) 5 3_454
O1 O2 O2 64.0(4) . 3_454
Ga1 O2 O2 141.3(3) 1_556 3_454
Nb O2 O2 141.3(3) 1_556 3_454
Ga2 O2 O2 83.4(3) 2_566 3_454
Ga3 O2 O2 113.4(3) 1_546 3_454
Ga3 O2 O2 118.8(3) 1_656 3_454
O2 O2 O2 28.97(15) 1_554 3_454
O2 O2 O2 151.03(15) 1_556 3_454
O2 O2 O2 75.8(3) 5_445 3_454
O2 O2 O2 30.0(4) 5_455 3_454
O3 O2 O2 119.6(3) 4_556 3_454
O3 O2 O2 87.9(3) 3_456 3_454
Ga2 O2 O2 69.53(15) 2 3_454
O2 O2 O2 48.5(3) 6 3_454
O2 O2 O2 95.5(4) 6_446 3_454
O2 O2 O2 141.0(4) 6_546 3_454
O3 O2 O2 69.1(2) 4 3_454
Ga1 O2 O2 78.2(2) 1_445 3_454
Nb O2 O2 78.2(2) 1_445 3_454
O3 O2 O2 81.8(3) 6_445 3_454
La O2 O2 106.4(3) 2_456 3_454
O3 O2 O2 31.2(2) 3_455 3_454
O3 O2 O2 59.2(3) 2_455 3_454
O3 O2 O2 58.5(3) 5_455 3_454
La O2 O2 157.4(3) 2_556 3_454
O3 O2 O2 161.6(3) 2_556 3_454
O3 O2 O2 137.6(3) 6_556 3_454
O1 O2 O2 164.8(3) 1_546 3_454
O2 O2 O2 87.4(3) 4 3_454
O2 O2 O2 113.29(18) 3 3_454
O2 O2 O2 46.8(3) 6_445 3_454
O2 O2 O2 86.7(3) 6_545 3_454
O2 O2 O2 28.03(14) 4_444 3_454
Ga2 O2 O2 38.7(5) . 3_456
Ga3 O2 O2 79.9(5) 4_446 3_456
La O2 O2 136.3(4) 4_445 3_456
O2 O2 O2 75.99(7) 4_445 3_456
O2 O2 O2 61.03(15) 3_455 3_456
La O2 O2 99.4(4) . 3_456
O3 O2 O2 118.3(5) 2 3_456
O3 O2 O2 93.8(5) 6 3_456
O1 O2 O2 119.8(4) 2_455 3_456
O2 O2 O2 74.4(5) 2_556 3_456
O3 O2 O2 50.9(3) 1_556 3_456
O1 O2 O2 15.23(13) 2_456 3_456
O3 O2 O2 138.5(4) . 3_456
O1 O2 O2 126.1(5) 1_545 3_456
Nb O2 O2 123.5(3) . 3_456
Ga1 O2 O2 123.5(3) . 3_456
O2 O2 O2 173.8(5) 2 3_456
Ga2 O2 O2 98.6(3) 2_556 3_456
O3 O2 O2 102.0(4) 5_445 3_456
La O2 O2 47.95(11) 4_446 3_456
Ga3 O2 O2 70.6(2) 2_455 3_456
Ga3 O2 O2 76.6(3) 2_565 3_456
La O2 O2 21.76(13) 1_556 3_456
La O2 O2 86.6(3) 2_455 3_456
O3 O2 O2 62.8(3) 4_446 3_456
Ga3 O2 O2 161.0(3) 4_445 3_456
Ga3 O2 O2 48.0(3) 1_556 3_456
O3 O2 O2 81.3(3) 3_556 3_456
Ga2 O2 O2 131.8(3) 1_554 3_456
La O2 O2 137.7(3) 2 3_456
O3 O2 O2 122.9(3) 4_445 3_456
O2 O2 O2 39.4(4) 5_456 3_456
O2 O2 O2 85.4(4) 5_446 3_456
O3 O2 O2 143.7(4) 3 3_456
O2 O2 O2 56.8(3) 6_556 3_456
O3 O2 O2 105.0(3) 5 3_456
O1 O2 O2 77.2(4) . 3_456
Ga1 O2 O2 59.58(18) 1_556 3_456
Nb O2 O2 59.58(18) 1_556 3_456
Ga2 O2 O2 57.9(2) 2_566 3_456
Ga3 O2 O2 92.3(2) 1_546 3_456
Ga3 O2 O2 97.2(3) 1_656 3_456
O2 O2 O2 151.03(15) 1_554 3_456
O2 O2 O2 28.97(15) 1_556 3_456
O2 O2 O2 142.8(4) 5_445 3_456
O2 O2 O2 100.1(4) 5_455 3_456
O3 O2 O2 72.5(3) 4_556 3_456
O3 O2 O2 35.1(2) 3_456 3_456
Ga2 O2 O2 161.9(3) 2 3_456
O2 O2 O2 110.0(4) 6 3_456
O2 O2 O2 54.7(3) 6_446 3_456
O2 O2 O2 96.0(4) 6_546 3_456
O3 O2 O2 122.9(3) 4 3_456
Ga1 O2 O2 107.0(2) 1_445 3_456
Nb O2 O2 107.0(2) 1_445 3_456
O3 O2 O2 87.5(3) 6_445 3_456
La O2 O2 29.06(15) 2_456 3_456
O3 O2 O2 91.8(3) 3_455 3_456
O3 O2 O2 65.5(3) 2_455 3_456
O3 O2 O2 64.7(3) 5_455 3_456
La O2 O2 78.60(18) 2_556 3_456
O3 O2 O2 56.09(18) 2_556 3_456
O3 O2 O2 40.16(16) 6_556 3_456
O1 O2 O2 65.8(2) 1_546 3_456
O2 O2 O2 87.4(3) 4 3_456
O2 O2 O2 113.29(17) 3 3_456
O2 O2 O2 104.0(3) 6_445 3_456
O2 O2 O2 150.2(4) 6_545 3_456
O2 O2 O2 130.4(3) 4_444 3_456
O2 O2 O2 122.1(3) 3_454 3_456
Ga2 O2 O2 38.7(5) . 4_446
Ga3 O2 O2 84.9(5) 4_446 4_446
La O2 O2 110.3(4) 4_445 4_446
O2 O2 O2 61.03(15) 4_445 4_446
O2 O2 O2 75.99(7) 3_455 4_446
La O2 O2 123.4(4) . 4_446
O3 O2 O2 122.5(5) 2 4_446
O3 O2 O2 119.7(5) 6 4_446
O1 O2 O2 119.8(4) 2_455 4_446
O2 O2 O2 61.8(4) 2_556 4_446
O3 O2 O2 67.4(3) 1_556 4_446
O1 O2 O2 15.23(13) 2_456 4_446
O3 O2 O2 166.4(4) . 4_446
O1 O2 O2 102.3(5) 1_545 4_446
Nb O2 O2 143.7(3) . 4_446
Ga1 O2 O2 143.7(3) . 4_446
O2 O2 O2 146.4(3) 2 4_446
Ga2 O2 O2 77.7(3) 2_556 4_446
O3 O2 O2 74.8(4) 5_445 4_446
La O2 O2 26.39(12) 4_446 4_446
Ga3 O2 O2 48.4(3) 2_455 4_446
Ga3 O2 O2 100.7(3) 2_565 4_446
La O2 O2 47.74(12) 1_556 4_446
La O2 O2 84.1(3) 2_455 4_446
O3 O2 O2 35.1(3) 4_446 4_446
Ga3 O2 O2 169.2(3) 4_445 4_446
Ga3 O2 O2 67.1(2) 1_556 4_446
O3 O2 O2 86.1(3) 3_556 4_446
Ga2 O2 O2 131.8(3) 1_554 4_446
La O2 O2 127.1(3) 2 4_446
O3 O2 O2 101.7(3) 4_445 4_446
O2 O2 O2 66.0(4) 5_456 4_446
O2 O2 O2 60.0(4) 5_446 4_446
O3 O2 O2 152.3(3) 3 4_446
O2 O2 O2 83.6(4) 6_556 4_446
O3 O2 O2 122.4(3) 5 4_446
O1 O2 O2 104.2(3) . 4_446
Ga1 O2 O2 71.53(17) 1_556 4_446
Nb O2 O2 71.53(17) 1_556 4_446
Ga2 O2 O2 85.8(2) 2_566 4_446
Ga3 O2 O2 64.3(2) 1_546 4_446
Ga3 O2 O2 106.8(2) 1_656 4_446
O2 O2 O2 151.03(15) 1_554 4_446
O2 O2 O2 28.97(15) 1_556 4_446
O2 O2 O2 114.8(4) 5_445 4_446
O2 O2 O2 120.3(3) 5_455 4_446
O3 O2 O2 90.9(3) 4_556 4_446
O3 O2 O2 48.3(2) 3_456 4_446
Ga2 O2 O2 134.0(3) 2 4_446
O2 O2 O2 137.5(4) 6 4_446
O2 O2 O2 38.5(4) 6_446 4_446
O2 O2 O2 79.5(4) 6_546 4_446
O3 O2 O2 147.9(3) 4 4_446
Ga1 O2 O2 82.6(3) 1_445 4_446
Nb O2 O2 82.6(3) 1_445 4_446
O3 O2 O2 65.9(3) 6_445 4_446
La O2 O2 24.61(15) 2_456 4_446
O3 O2 O2 100.3(3) 3_455 4_446
O3 O2 O2 72.4(3) 2_455 4_446
O3 O2 O2 83.8(3) 5_455 4_446
La O2 O2 72.01(19) 2_556 4_446
O3 O2 O2 58.29(18) 2_556 4_446
O3 O2 O2 57.12(18) 6_556 4_446
O1 O2 O2 49.71(19) 1_546 4_446
O2 O2 O2 113.29(18) 4 4_446
O2 O2 O2 116.1(2) 3 4_446
O2 O2 O2 93.0(3) 6_445 4_446
O2 O2 O2 127.2(4) 6_545 4_446
O2 O2 O2 122.1(3) 4_444 4_446
O2 O2 O2 130.4(3) 3_454 4_446
O2 O2 O2 28.03(14) 3_456 4_446
Ga2 O2 La 119.5(4) . 1_545
Ga3 O2 La 87.0(3) 4_446 1_545
La O2 La 34.86(18) 4_445 1_545
O2 O2 La 86.0(4) 4_445 1_545
O2 O2 La 143.2(4) 3_455 1_545
La O2 La 132.2(5) . 1_545
O3 O2 La 70.7(3) 2 1_545
O3 O2 La 123.6(4) 6 1_545
O1 O2 La 91.2(3) 2_455 1_545
O2 O2 La 64.4(4) 2_556 1_545
O3 O2 La 118.4(4) 1_556 1_545
O1 O2 La 116.1(3) 2_456 1_545
O3 O2 La 92.5(3) . 1_545
O1 O2 La 12.84(18) 1_545 1_545
Nb O2 La 92.0(2) . 1_545
Ga1 O2 La 92.0(2) . 1_545
O2 O2 La 46.1(2) 2 1_545
Ga2 O2 La 35.31(13) 2_556 1_545
O3 O2 La 39.7(2) 5_445 1_545
La O2 La 80.19(17) 4_446 1_545
Ga3 O2 La 75.90(15) 2_455 1_545
Ga3 O2 La 128.5(2) 2_565 1_545
La O2 La 138.4(3) 1_556 1_545
La O2 La 103.0(2) 2_455 1_545
O3 O2 La 69.9(2) 4_446 1_545
Ga3 O2 La 71.29(18) 4_445 1_545
Ga3 O2 La 153.0(2) 1_556 1_545
O3 O2 La 86.16(19) 3_556 1_545
Ga2 O2 La 85.0(2) 1_554 1_545
La O2 La 44.75(10) 2 1_545
O3 O2 La 52.26(19) 4_445 1_545
O2 O2 La 167.0(5) 5_456 1_545
O2 O2 La 42.5(2) 5_446 1_545
O3 O2 La 70.04(19) 3 1_545
O2 O2 La 148.20(18) 6_556 1_545
O3 O2 La 97.9(2) 5 1_545
O1 O2 La 154.8(4) . 1_545
Ga1 O2 La 107.2(2) 1_556 1_545
Nb O2 La 107.2(2) 1_556 1_545
Ga2 O2 La 167.9(2) 2_566 1_545
Ga3 O2 La 38.70(8) 1_546 1_545
Ga3 O2 La 87.51(15) 1_656 1_545
O2 O2 La 75.17(17) 1_554 1_545
O2 O2 La 104.83(17) 1_556 1_545
O2 O2 La 23.75(14) 5_445 1_545
O2 O2 La 128.3(5) 5_455 1_545
O3 O2 La 115.2(2) 4_556 1_545
O3 O2 La 138.0(2) 3_456 1_545
Ga2 O2 La 34.62(8) 2 1_545
O2 O2 La 121.5(4) 6 1_545
O2 O2 La 94.3(3) 6_446 1_545
O2 O2 La 44.4(2) 6_546 1_545
O3 O2 La 99.6(2) 4 1_545
Ga1 O2 La 48.49(9) 1_445 1_545
Nb O2 La 48.49(9) 1_445 1_545
O3 O2 La 67.03(15) 6_445 1_545
La O2 La 114.9(2) 2_456 1_545
O3 O2 La 118.5(3) 3_455 1_545
O3 O2 La 126.6(2) 2_455 1_545
O3 O2 La 151.1(3) 5_455 1_545
La O2 La 69.82(12) 2_556 1_545
O3 O2 La 93.75(19) 2_556 1_545
O3 O2 La 121.3(3) 6_556 1_545
O1 O2 La 67.49(19) 1_546 1_545
O2 O2 La 127.8(2) 4 1_545
O2 O2 La 70.1(2) 3 1_545
O2 O2 La 81.0(3) 6_445 1_545
O2 O2 La 27.98(14) 6_545 1_545
O2 O2 La 75.1(2) 4_444 1_545
O2 O2 La 99.4(2) 3_454 1_545
O2 O2 La 127.7(2) 3_456 1_545
O2 O2 La 101.0(3) 4_446 1_545
Ga2 O2 O3 145.3(6) . 2_554
Ga3 O2 O3 95.4(5) 4_446 2_554
La O2 O3 60.4(3) 4_445 2_554
O2 O2 O3 115.4(2) 4_445 2_554
O2 O2 O3 111.6(2) 3_455 2_554
La O2 O3 66.4(3) . 2_554
O3 O2 O3 56.2(4) 2 2_554
O3 O2 O3 69.2(4) 6 2_554
O1 O2 O3 61.1(4) 2_455 2_554
O2 O2 O3 112.3(5) 2_556 2_554
O3 O2 O3 118.0(4) 1_556 2_554
O1 O2 O3 174.6(4) 2_456 2_554
O3 O2 O3 24.3(2) . 2_554
O1 O2 O3 67.6(4) 1_545 2_554
Nb O2 O3 41.7(2) . 2_554
Ga1 O2 O3 41.7(2) . 2_554
O2 O2 O3 23.0(2) 2 2_554
Ga2 O2 O3 93.3(3) 2_556 2_554
O3 O2 O3 95.4(4) 5_445 2_554
La O2 O3 145.2(2) 4_446 2_554
Ga3 O2 O3 124.8(3) 2_455 2_554
Ga3 O2 O3 87.4(2) 2_565 2_554
La O2 O3 141.7(2) 1_556 2_554
La O2 O3 97.0(3) 2_455 2_554
O3 O2 O3 134.8(3) 4_446 2_554
Ga3 O2 O3 6.86(14) 4_445 2_554
Ga3 O2 O3 121.9(3) 1_556 2_554
O3 O2 O3 94.0(3) 3_556 2_554
Ga2 O2 O3 48.6(2) 1_554 2_554
La O2 O3 45.99(18) 2 2_554
O3 O2 O3 71.3(3) 4_445 2_554
O2 O2 O3 124.6(4) 5_456 2_554
O2 O2 O3 109.8(4) 5_446 2_554
O3 O2 O3 26.5(3) 3 2_554
O2 O2 O3 106.0(4) 6_556 2_554
O3 O2 O3 62.2(2) 5 2_554
O1 O2 O3 86.4(3) . 2_554
Ga1 O2 O3 111.9(2) 1_556 2_554
Nb O2 O3 111.9(2) 1_556 2_554
Ga2 O2 O3 104.9(2) 2_566 2_554
Ga3 O2 O3 105.1(2) 1_546 2_554
Ga3 O2 O3 74.7(2) 1_656 2_554
O2 O2 O3 27.68(17) 1_554 2_554
O2 O2 O3 152.32(17) 1_556 2_554
O2 O2 O3 54.8(3) 5_445 2_554
O2 O2 O3 68.3(4) 5_455 2_554
O3 O2 O3 94.7(3) 4_556 2_554
O3 O2 O3 139.6(3) 3_456 2_554
Ga2 O2 O3 35.38(13) 2 2_554
O2 O2 O3 53.2(3) 6 2_554
O2 O2 O3 138.1(5) 6_446 2_554
O2 O2 O3 92.9(3) 6_546 2_554
O3 O2 O3 40.3(3) 4 2_554
Ga1 O2 O3 89.1(3) 1_445 2_554
Nb O2 O3 89.1(3) 1_445 2_554
O3 O2 O3 107.4(3) 6_445 2_554
La O2 O3 159.0(3) 2_456 2_554
O3 O2 O3 84.5(3) 3_455 2_554
O3 O2 O3 112.6(4) 2_455 2_554
O3 O2 O3 104.9(3) 5_455 2_554
La O2 O3 104.1(2) 2_556 2_554
O3 O2 O3 121.7(3) 2_556 2_554
O3 O2 O3 128.7(2) 6_556 2_554
O1 O2 O3 123.4(2) 1_546 2_554
O2 O2 O3 75.64(14) 4 2_554
O2 O2 O3 62.34(17) 3 2_554
O2 O2 O3 84.4(4) 6_445 2_554
O2 O2 O3 42.6(3) 6_545 2_554
O2 O2 O3 55.47(18) 4_444 2_554
O2 O2 O3 53.39(18) 3_454 2_554
O2 O2 O3 162.4(3) 3_456 2_554
O2 O2 O3 169.3(3) 4_446 2_554
La O2 O3 68.40(17) 1_545 2_554
Ga2 O2 O3 127.0(6) . 6_554
Ga3 O2 O3 103.4(5) 4_446 6_554
La O2 O3 77.1(4) 4_445 6_554
O2 O2 O3 113.13(16) 4_445 6_554
O2 O2 O3 88.6(2) 3_455 6_554
La O2 O3 41.3(2) . 6_554
O3 O2 O3 69.0(4) 2 6_554
O3 O2 O3 56.0(4) 6 6_554
O1 O2 O3 51.8(3) 2_455 6_554
O2 O2 O3 132.2(5) 2_556 6_554
O3 O2 O3 112.4(4) 1_556 6_554
O1 O2 O3 149.7(3) 2_456 6_554
O3 O2 O3 9.3(2) . 6_554
O1 O2 O3 92.7(5) 1_545 6_554
Nb O2 O3 41.5(2) . 6_554
Ga1 O2 O3 41.5(2) . 6_554
O2 O2 O3 46.6(3) 2 6_554
Ga2 O2 O3 117.9(3) 2_556 6_554
O3 O2 O3 112.7(4) 5_445 6_554
La O2 O3 168.7(3) 4_446 6_554
Ga3 O2 O3 130.1(4) 2_455 6_554
Ga3 O2 O3 75.9(2) 2_565 6_554
La O2 O3 123.4(2) 1_556 6_554
La O2 O3 85.6(3) 2_455 6_554
O3 O2 O3 150.7(4) 4_446 6_554
Ga3 O2 O3 21.43(13) 4_445 6_554
Ga3 O2 O3 97.3(2) 1_556 6_554
O3 O2 O3 102.3(3) 3_556 6_554
Ga2 O2 O3 41.57(18) 1_554 6_554
La O2 O3 68.2(2) 2 6_554
O3 O2 O3 80.8(3) 4_445 6_554
O2 O2 O3 100.2(3) 5_456 6_554
O2 O2 O3 134.7(4) 5_446 6_554
O3 O2 O3 40.9(2) 3 6_554
O2 O2 O3 88.7(4) 6_556 6_554
O3 O2 O3 62.1(2) 5 6_554
O1 O2 O3 62.4(3) . 6_554
Ga1 O2 O3 111.6(2) 1_556 6_554
Nb O2 O3 111.6(2) 1_556 6_554
Ga2 O2 O3 82.1(2) 2_566 6_554
Ga3 O2 O3 126.7(3) 1_546 6_554
Ga3 O2 O3 81.02(19) 1_656 6_554
O2 O2 O3 27.94(16) 1_554 6_554
O2 O2 O3 152.06(16) 1_556 6_554
O2 O2 O3 75.8(4) 5_445 6_554
O2 O2 O3 44.2(3) 5_455 6_554
O3 O2 O3 90.0(2) 4_556 6_554
O3 O2 O3 116.1(2) 3_456 6_554
Ga2 O2 O3 58.4(2) 2 6_554
O2 O2 O3 30.0(3) 6 6_554
O2 O2 O3 133.7(4) 6_446 6_554
O2 O2 O3 115.9(3) 6_546 6_554
O3 O2 O3 32.8(2) 4 6_554
Ga1 O2 O3 101.4(3) 1_445 6_554
Nb O2 O3 101.4(3) 1_445 6_554
O3 O2 O3 113.8(4) 6_445 6_554
La O2 O3 140.6(2) 2_456 6_554
O3 O2 O3 66.2(2) 3_455 6_554
O3 O2 O3 93.5(3) 2_455 6_554
O3 O2 O3 80.6(3) 5_455 6_554
La O2 O3 120.4(2) 2_556 6_554
O3 O2 O3 128.7(2) 2_556 6_554
O3 O2 O3 121.2(3) 6_556 6_554
O1 O2 O3 144.8(2) 1_546 6_554
O2 O2 O3 62.08(16) 4 6_554
O2 O2 O3 75.53(13) 3 6_554
O2 O2 O3 81.7(4) 6_445 6_554
O2 O2 O3 67.7(3) 6_545 6_554
O2 O2 O3 54.36(15) 4_444 6_554
O2 O2 O3 38.28(16) 3_454 6_554
O2 O2 O3 139.5(3) 3_456 6_554
O2 O2 O3 164.4(3) 4_446 6_554
La O2 O3 92.7(2) 1_545 6_554
O3 O2 O3 25.10(16) 2_554 6_554
Ga2 O2 O2 97.0(4) . 3_445
Ga3 O2 O2 93.6(3) 4_446 3_445
La O2 O2 40.2(4) 4_445 3_445
O2 O2 O2 67.9(5) 4_445 3_445
O2 O2 O2 127.9(5) 3_455 3_445
La O2 O2 146.0(3) . 3_445
O3 O2 O2 89.6(2) 2 3_445
O3 O2 O2 144.7(4) 6 3_445
O1 O2 O2 94.4(3) 2_455 3_445
O2 O2 O2 60.1(3) 2_556 3_445
O3 O2 O2 116.8(3) 1_556 3_445
O1 O2 O2 94.2(2) 2_456 3_445
O3 O2 O2 114.1(3) . 3_445
O1 O2 O2 31.39(13) 1_545 3_445
Nb O2 O2 114.6(2) . 3_445
Ga1 O2 O2 114.6(2) . 3_445
O2 O2 O2 66.9(3) 2 3_445
Ga2 O2 O2 34.75(13) 2_556 3_445
O3 O2 O2 21.4(2) 5_445 3_445
La O2 O2 62.66(18) 4_446 3_445
Ga3 O2 O2 54.3(2) 2_455 3_445
Ga3 O2 O2 142.4(2) 2_565 3_445
La O2 O2 123.27(18) 1_556 3_445
La O2 O2 92.2(3) 2_455 3_445
O3 O2 O2 46.9(3) 4_446 3_445
Ga3 O2 O2 91.56(12) 4_445 3_445
Ga3 O2 O2 132.8(3) 1_556 3_445
O3 O2 O2 93.25(17) 3_556 3_445
Ga2 O2 O2 92.84(17) 1_554 3_445
La O2 O2 66.25(10) 2 3_445
O3 O2 O2 49.6(2) 4_445 3_445
O2 O2 O2 144.6(4) 5_456 3_445
O2 O2 O2 27.2(4) 5_446 3_445
O3 O2 O2 93.09(16) 3 3_445
O2 O2 O2 151.4(3) 6_556 3_445
O3 O2 O2 117.1(3) 5 3_445
O1 O2 O2 171.0(3) . 3_445
Ga1 O2 O2 108.13(14) 1_556 3_445
Nb O2 O2 108.13(14) 1_556 3_445
Ga2 O2 O2 165.2(2) 2_566 3_445
Ga3 O2 O2 15.67(17) 1_546 3_445
Ga3 O2 O2 101.91(17) 1_656 3_445
O2 O2 O2 90.0 1_554 3_445
O2 O2 O2 90.0 1_556 3_445
O2 O2 O2 37.1(3) 5_445 3_445
O2 O2 O2 137.0(3) 5_455 3_445
O3 O2 O2 124.2(2) 4_556 3_445
O3 O2 O2 115.4(3) 3_456 3_445
Ga2 O2 O2 54.58(12) 2 3_445
O2 O2 O2 142.5(3) 6 3_445
O2 O2 O2 72.1(3) 6_446 3_445
O2 O2 O2 46.88(19) 6_546 3_445
O3 O2 O2 122.7(2) 4 3_445
Ga1 O2 O2 36.05(16) 1_445 3_445
Nb O2 O2 36.05(16) 1_445 3_445
O3 O2 O2 49.2(2) 6_445 3_445
La O2 O2 91.8(2) 2_456 3_445
O3 O2 O2 114.4(3) 3_455 3_445
O3 O2 O2 111.2(3) 2_455 3_445
O3 O2 O2 139.1(3) 5_455 3_445
La O2 O2 70.83(10) 2_556 3_445
O3 O2 O2 89.80(12) 2_556 3_445
O3 O2 O2 114.88(18) 6_556 3_445
O1 O2 O2 57.65(16) 1_546 3_445
O2 O2 O2 147.3(2) 4 3_445
O2 O2 O2 87.3(2) 3 3_445
O2 O2 O2 73.6(3) 6_445 3_445
O2 O2 O2 51.1(2) 6_545 3_445
O2 O2 O2 79.5(2) 4_444 3_445
O2 O2 O2 107.32(19) 3_454 3_445
O2 O2 O2 107.32(19) 3_456 3_445
O2 O2 O2 79.5(2) 4_446 3_445
La O2 O2 23.13(11) 1_545 3_445
O3 O2 O2 89.81(11) 2_554 3_445
O3 O2 O2 112.61(15) 6_554 3_445
Ga2 O2 O2 145.0(5) . 4_545
Ga3 O2 O2 46.1(4) 4_446 4_545
La O2 O2 75.1(2) 4_445 4_545
O2 O2 O2 127.9(5) 4_445 4_545
O2 O2 O2 172.1(5) 3_455 4_545
La O2 O2 123.4(3) . 4_545
O3 O2 O2 30.2(2) 2 4_545
O3 O2 O2 85.1(4) 6 4_545
O1 O2 O2 120.8(3) 2_455 4_545
O2 O2 O2 46.1(5) 2_556 4_545
O3 O2 O2 80.3(3) 1_556 4_545
O1 O2 O2 119.1(3) 2_456 4_545
O3 O2 O2 81.2(3) . 4_545
O1 O2 O2 31.39(13) 1_545 4_545
Nb O2 O2 60.7(2) . 4_545
Ga1 O2 O2 60.7(2) . 4_545
O2 O2 O2 56.9(4) 2 4_545
Ga2 O2 O2 34.75(13) 2_556 4_545
O3 O2 O2 81.0(2) 5_445 4_545
La O2 O2 81.09(12) 4_446 4_545
Ga3 O2 O2 112.4(2) 2_455 4_545
Ga3 O2 O2 84.8(2) 2_565 4_545
La O2 O2 111.3(2) 1_556 4_545
La O2 O2 146.0(2) 2_455 4_545
O3 O2 O2 94.7(2) 4_446 4_545
Ga3 O2 O2 72.71(16) 4_445 4_545
Ga3 O2 O2 160.7(3) 1_556 4_545
O3 O2 O2 45.0(2) 3_556 4_545
Ga2 O2 O2 109.44(13) 1_554 4_545
La O2 O2 20.2(2) 2 4_545
O3 O2 O2 94.5(2) 4_445 4_545
O2 O2 O2 136.9(4) 5_456 4_545
O2 O2 O2 57.26(16) 5_446 4_545
O3 O2 O2 47.7(2) 3 4_545
O2 O2 O2 104.30(15) 6_556 4_545
O3 O2 O2 57.2(3) 5 4_545
O1 O2 O2 125.2(3) . 4_545
Ga1 O2 O2 68.56(18) 1_556 4_545
Nb O2 O2 68.56(18) 1_556 4_545
Ga2 O2 O2 124.3(3) 2_566 4_545
Ga3 O2 O2 70.86(11) 1_546 4_545
Ga3 O2 O2 43.47(17) 1_656 4_545
O2 O2 O2 90.0 1_554 4_545
O2 O2 O2 90.0 1_556 4_545
O2 O2 O2 61.00(16) 5_445 4_545
O2 O2 O2 130.9(3) 5_455 4_545
O3 O2 O2 71.4(2) 4_556 4_545
O3 O2 O2 153.4(2) 3_456 4_545
Ga2 O2 O2 54.58(12) 2 4_545
O2 O2 O2 102.90(13) 6 4_545
O2 O2 O2 126.9(3) 6_446 4_545
O2 O2 O2 28.5(3) 6_546 4_545
O3 O2 O2 72.1(2) 4 4_545
Ga1 O2 O2 92.40(14) 1_445 4_545
Nb O2 O2 92.40(14) 1_445 4_545
O3 O2 O2 109.1(2) 6_445 4_545
La O2 O2 131.67(16) 2_456 4_545
O3 O2 O2 149.6(2) 3_455 4_545
O3 O2 O2 170.7(3) 2_455 4_545
O3 O2 O2 160.6(3) 5_455 4_545
La O2 O2 40.07(15) 2_556 4_545
O3 O2 O2 63.75(18) 2_556 4_545
O3 O2 O2 87.49(19) 6_556 4_545
O1 O2 O2 57.65(16) 1_546 4_545
O2 O2 O2 87.3(2) 4 4_545
O2 O2 O2 27.3(2) 3 4_545
O2 O2 O2 123.5(3) 6_445 4_545
O2 O2 O2 36.1(3) 6_545 4_545
O2 O2 O2 107.32(19) 4_444 4_545
O2 O2 O2 118.66(16) 3_454 4_545
O2 O2 O2 118.66(16) 3_456 4_545
O2 O2 O2 107.32(19) 4_446 4_545
La O2 O2 44.12(8) 1_545 4_545
O3 O2 O2 66.18(17) 2_554 4_545
O3 O2 O2 87.71(18) 6_554 4_545
O2 O2 O2 60.0 3_445 4_545
Ga2 O2 O3 60.7(4) . 5_446
Ga3 O2 O3 78.8(5) 4_446 5_446
La O2 O3 90.2(3) 4_445 5_446
O2 O2 O3 64.4(2) 4_445 5_446
O2 O2 O3 100.6(2) 3_455 5_446
La O2 O3 150.5(4) . 5_446
O3 O2 O3 107.6(5) 2 5_446
O3 O2 O3 133.8(6) 6 5_446
O1 O2 O3 124.5(3) 2_455 5_446
O2 O2 O3 43.9(3) 2_556 5_446
O3 O2 O3 77.0(4) 1_556 5_446
O1 O2 O3 42.8(2) 2_456 5_446
O3 O2 O3 164.8(4) . 5_446
O1 O2 O3 74.8(4) 1_545 5_446
Nb O2 O3 139.0(3) . 5_446
Ga1 O2 O3 139.0(3) . 5_446
O2 O2 O3 120.0(3) 2 5_446
Ga2 O2 O3 51.5(2) 2_556 5_446
O3 O2 O3 55.2(2) 5_445 5_446
La O2 O3 12.66(12) 4_446 5_446
Ga3 O2 O3 45.10(16) 2_455 5_446
Ga3 O2 O3 114.2(3) 2_565 5_446
La O2 O3 70.0(3) 1_556 5_446
La O2 O3 94.9(2) 2_455 5_446
O3 O2 O3 21.0(2) 4_446 5_446
Ga3 O2 O3 145.1(3) 4_445 5_446
Ga3 O2 O3 93.8(3) 1_556 5_446
O3 O2 O3 79.6(3) 3_556 5_446
Ga2 O2 O3 132.2(2) 1_554 5_446
La O2 O3 102.4(2) 2 5_446
O3 O2 O3 88.9(3) 4_445 5_446
O2 O2 O3 93.1(5) 5_456 5_446
O2 O2 O3 32.5(3) 5_446 5_446
O3 O2 O3 132.0(3) 3 5_446
O2 O2 O3 103.9(5) 6_556 5_446
O3 O2 O3 121.2(4) 5 5_446
O1 O2 O3 131.1(4) . 5_446
Ga1 O2 O3 75.5(2) 1_556 5_446
Nb O2 O3 75.5(2) 1_556 5_446
Ga2 O2 O3 111.5(3) 2_566 5_446
Ga3 O2 O3 39.96(16) 1_546 5_446
Ga3 O2 O3 100.4(3) 1_656 5_446
O2 O2 O3 140.78(17) 1_554 5_446
O2 O2 O3 39.22(17) 1_556 5_446
O2 O2 O3 90.7(3) 5_445 5_446
O2 O2 O3 144.8(3) 5_455 5_446
O3 O2 O3 97.8(3) 4_556 5_446
O3 O2 O3 74.3(2) 3_456 5_446
Ga2 O2 O3 108.0(2) 2 5_446
O2 O2 O3 163.5(5) 6 5_446
O2 O2 O3 47.5(3) 6_446 5_446
O2 O2 O3 55.9(3) 6_546 5_446
O3 O2 O3 150.2(3) 4 5_446
Ga1 O2 O3 68.07(16) 1_445 5_446
Nb O2 O3 68.07(16) 1_445 5_446
O3 O2 O3 59.16(19) 6_445 5_446
La O2 O3 48.45(18) 2_456 5_446
O3 O2 O3 117.7(3) 3_455 5_446
O3 O2 O3 92.7(2) 2_455 5_446
O3 O2 O3 109.9(3) 5_455 5_446
La O2 O3 57.77(18) 2_556 5_446
O3 O2 O3 56.3(2) 2_556 5_446
O3 O2 O3 69.5(3) 6_556 5_446
O1 O2 O3 31.21(13) 1_546 5_446
O2 O2 O3 128.25(15) 4 5_446
O2 O2 O3 101.4(2) 3 5_446
O2 O2 O3 93.6(3) 6_445 5_446
O2 O2 O3 99.7(3) 6_545 5_446
O2 O2 O3 118.0(3) 4_444 5_446
O2 O2 O3 140.1(2) 3_454 5_446
O2 O2 O3 53.95(18) 3_456 5_446
O2 O2 O3 27.5(2) 4_446 5_446
La O2 O3 73.90(18) 1_545 5_446
O3 O2 O3 142.1(2) 2_554 5_446
O3 O2 O3 166.4(3) 6_554 5_446
O2 O2 O3 53.81(19) 3_445 5_446
O2 O2 O3 84.29(15) 4_545 5_446
Ga2 O2 O1 37.6(4) . 1_445
Ga3 O2 O1 152.1(7) 4_446 1_445
La O2 O1 70.7(3) 4_445 1_445
O2 O2 O1 13.4(3) 4_445 1_445
O2 O2 O1 48.0(3) 3_455 1_445
La O2 O1 86.3(3) . 1_445
O3 O2 O1 164.6(5) 2 1_445
O3 O2 O1 133.3(4) 6 1_445
O1 O2 O1 52.8(5) 2_455 1_445
O2 O2 O1 119.1(4) 2_556 1_445
O3 O2 O1 126.7(4) 1_556 1_445
O1 O2 O1 65.4(5) 2_456 1_445
O3 O2 O1 113.3(4) . 1_445
O1 O2 O1 108.8(2) 1_545 1_445
Nb O2 O1 145.1(4) . 1_445
Ga1 O2 O1 145.1(4) . 1_445
O2 O2 O1 104.5(4) 2 1_445
Ga2 O2 O1 110.9(2) 2_556 1_445
O3 O2 O1 59.0(2) 5_445 1_445
La O2 O1 85.6(3) 4_446 1_445
Ga3 O2 O1 33.21(15) 2_455 1_445
Ga3 O2 O1 135.0(2) 2_565 1_445
La O2 O1 94.1(3) 1_556 1_445
La O2 O1 19.22(18) 2_455 1_445
O3 O2 O1 57.1(2) 4_446 1_445
Ga3 O2 O1 105.5(4) 4_445 1_445
Ga3 O2 O1 56.84(13) 1_556 1_445
O3 O2 O1 153.3(4) 3_556 1_445
Ga2 O2 O1 64.5(3) 1_554 1_445
La O2 O1 137.3(3) 2 1_445
O3 O2 O1 51.5(3) 4_445 1_445
O2 O2 O1 79.4(3) 5_456 1_445
O2 O2 O1 90.0(3) 5_446 1_445
O3 O2 O1 138.2(4) 3 1_445
O2 O2 O1 114.01(16) 6_556 1_445
O3 O2 O1 160.4(3) 5 1_445
O1 O2 O1 93.57(17) . 1_445
Ga1 O2 O1 135.5(4) 1_556 1_445
Nb O2 O1 135.5(4) 1_556 1_445
Ga2 O2 O1 95.48(16) 2_566 1_445
Ga3 O2 O1 71.51(14) 1_546 1_445
Ga3 O2 O1 173.4(4) 1_656 1_445
O2 O2 O1 84.5(3) 1_554 1_445
O2 O2 O1 95.5(3) 1_556 1_445
O2 O2 O1 84.6(3) 5_445 1_445
O2 O2 O1 74.9(3) 5_455 1_445
O3 O2 O1 144.8(3) 4_556 1_445
O3 O2 O1 49.1(2) 3_456 1_445
Ga2 O2 O1 99.1(3) 2 1_445
O2 O2 O1 106.0(2) 6 1_445
O2 O2 O1 29.7(3) 6_446 1_445
O2 O2 O1 122.0(3) 6_546 1_445
O3 O2 O1 134.1(4) 4 1_445
Ga1 O2 O1 47.98(11) 1_445 1_445
Nb O2 O1 47.98(11) 1_445 1_445
O3 O2 O1 31.08(12) 6_445 1_445
La O2 O1 48.2(2) 2_456 1_445
O3 O2 O1 43.88(19) 3_455 1_445
O3 O2 O1 31.06(12) 2_455 1_445
O3 O2 O1 58.84(12) 5_455 1_445
La O2 O1 133.4(3) 2_556 1_445
O3 O2 O1 125.5(4) 2_556 1_445
O3 O2 O1 116.2(3) 6_556 1_445
O1 O2 O1 106.7(3) 1_546 1_445
O2 O2 O1 132.2(3) 4 1_445
O2 O2 O1 166.4(3) 3 1_445
O2 O2 O1 27.9(2) 6_445 1_445
O2 O2 O1 113.7(3) 6_545 1_445
O2 O2 O1 56.3(3) 4_444 1_445
O2 O2 O1 65.9(3) 3_454 1_445
O2 O2 O1 76.1(3) 3_456 1_445
O2 O2 O1 67.2(3) 4_446 1_445
La O2 O1 96.44(16) 1_545 1_445
O3 O2 O1 111.7(4) 2_554 1_445
O3 O2 O1 104.1(3) 6_554 1_445
O2 O2 O1 80.3(2) 3_445 1_445
O2 O2 O1 139.9(2) 4_545 1_445
O3 O2 O1 75.7(2) 5_446 1_445
Ga2 O2 O3 71.0(3) . 3_446
Ga3 O2 O3 96.0(4) 4_446 3_446
La O2 O3 61.1(3) 4_445 3_446
O2 O2 O3 52.7(3) 4_445 3_446
O2 O2 O3 107.9(3) 3_455 3_446
La O2 O3 151.8(3) . 3_446
O3 O2 O3 109.2(4) 2 3_446
O3 O2 O3 157.9(5) 6 3_446
O1 O2 O3 102.2(3) 2_455 3_446
O2 O2 O3 57.04(17) 2_556 3_446
O3 O2 O3 104.5(5) 1_556 3_446
O1 O2 O3 66.1(2) 2_456 3_446
O3 O2 O3 141.4(4) . 3_446
O1 O2 O3 57.1(3) 1_545 3_446
Nb O2 O3 139.6(3) . 3_446
Ga1 O2 O3 139.6(3) . 3_446
O2 O2 O3 94.5(2) 2 3_446
Ga2 O2 O3 45.65(17) 2_556 3_446
O3 O2 O3 26.1(4) 5_445 3_446
La O2 O3 40.88(16) 4_446 3_446
Ga3 O2 O3 33.59(14) 2_455 3_446
Ga3 O2 O3 140.9(4) 2_565 3_446
La O2 O3 98.4(3) 1_556 3_446
La O2 O3 83.5(2) 2_455 3_446
O3 O2 O3 18.7(2) 4_446 3_446
Ga3 O2 O3 118.3(3) 4_445 3_446
Ga3 O2 O3 107.9(2) 1_556 3_446
O3 O2 O3 96.3(3) 3_556 3_446
Ga2 O2 O3 106.4(2) 1_554 3_446
La O2 O3 91.28(19) 2 3_446
O3 O2 O3 60.90(16) 4_445 3_446
O2 O2 O3 116.4(4) 5_456 3_446
O2 O2 O3 24.0(2) 5_446 3_446
O3 O2 O3 120.3(2) 3 3_446
O2 O2 O3 133.1(5) 6_556 3_446
O3 O2 O3 133.5(3) 5 3_446
O1 O2 O3 152.6(3) . 3_446
Ga1 O2 O3 100.5(3) 1_556 3_446
Nb O2 O3 100.5(3) 1_556 3_446
Ga2 O2 O3 137.4(3) 2_566 3_446
Ga3 O2 O3 12.61(12) 1_546 3_446
Ga3 O2 O3 113.0(2) 1_656 3_446
O2 O2 O3 111.6(2) 1_554 3_446
O2 O2 O3 68.4(2) 1_556 3_446
O2 O2 O3 63.0(2) 5_445 3_446
O2 O2 O3 139.8(3) 5_455 3_446
O3 O2 O3 122.2(3) 4_556 3_446
O3 O2 O3 88.9(2) 3_456 3_446
Ga2 O2 O3 82.12(18) 2 3_446
O2 O2 O3 166.0(5) 6 3_446
O2 O2 O3 47.9(2) 6_446 3_446
O2 O2 O3 56.0(2) 6_546 3_446
O3 O2 O3 149.7(2) 4 3_446
Ga1 O2 O3 40.50(16) 1_445 3_446
Nb O2 O3 40.50(16) 1_445 3_446
O3 O2 O3 38.8(3) 6_445 3_446
La O2 O3 63.96(15) 2_456 3_446
O3 O2 O3 109.0(3) 3_455 3_446
O3 O2 O3 93.61(18) 2_455 3_446
O3 O2 O3 119.5(2) 5_455 3_446
La O2 O3 71.4(2) 2_556 3_446
O3 O2 O3 80.3(3) 2_556 3_446
O3 O2 O3 98.1(3) 6_556 3_446
O1 O2 O3 48.00(18) 1_546 3_446
O2 O2 O3 154.4(2) 4 3_446
O2 O2 O3 104.8(3) 3 3_446
O2 O2 O3 73.1(3) 6_445 3_446
O2 O2 O3 79.1(2) 6_545 3_446
O2 O2 O3 91.6(3) 4_444 3_446
O2 O2 O3 118.1(3) 3_454 3_446
O2 O2 O3 80.0(2) 3_456 3_446
O2 O2 O3 52.0(2) 4_446 3_446
La O2 O3 51.17(13) 1_545 3_446
O3 O2 O3 117.5(2) 2_554 3_446
O3 O2 O3 138.1(3) 6_554 3_446
O2 O2 O3 28.27(18) 3_445 3_446
O2 O2 O3 79.46(16) 4_545 3_446
O3 O2 O3 29.2(2) 5_446 3_446
O1 O2 O3 66.09(19) 1_445 3_446
Ga3 O3 Nb 115.0(5) 4_445 .
Ga3 O3 Ga1 115.0(5) 4_445 .
Nb O3 Ga1 0.0 . .
Ga3 O3 La 135.8(5) 4_445 .
Nb O3 La 104.4(5) . .
Ga1 O3 La 104.4(5) . .
Ga3 O3 Ga3 97.1(6) 4_445 2_564
Nb O3 Ga3 88.2(4) . 2_564
Ga1 O3 Ga3 88.2(4) . 2_564
La O3 Ga3 103.8(4) . 2_564
Ga3 O3 O3 155.5(9) 4_445 6
Nb O3 O3 47.6(3) . 6
Ga1 O3 O3 47.6(3) . 6
La O3 O3 56.8(3) . 6
Ga3 O3 O3 98.9(6) 2_564 6
Ga3 O3 O3 67.8(4) 4_445 3
Nb O3 O3 47.5(3) . 3
Ga1 O3 O3 47.5(3) . 3
La O3 O3 149.4(3) . 3
Ga3 O3 O3 88.8(3) 2_564 3
O3 O3 O3 94.11(9) 6 3
Ga3 O3 O3 108.3(3) 4_445 4
Nb O3 O3 47.5(3) . 4
Ga1 O3 O3 47.5(3) . 4
La O3 O3 113.1(6) . 4
Ga3 O3 O3 40.9(3) 2_564 4
O3 O3 O3 73.4(6) 6 4
O3 O3 O3 60.000(1) 3 4
Ga3 O3 O3 63.5(5) 4_445 6_554
Nb O3 O3 119.6(5) . 6_554
Ga1 O3 O3 119.6(5) . 6_554
La O3 O3 113.6(4) . 6_554
Ga3 O3 O3 39.3(4) 2_564 6_554
O3 O3 O3 137.0(10) 6 6_554
O3 O3 O3 93.85(10) 3 6_554
O3 O3 O3 74.5(5) 4 6_554
Ga3 O3 O2 40.3(5) 4_445 2
Nb O3 O2 96.0(5) . 2
Ga1 O3 O2 96.0(5) . 2
La O3 O2 119.0(5) . 2
Ga3 O3 O2 134.2(6) 2_564 2
O3 O3 O2 117.3(9) 6 2
O3 O3 O2 63.0(5) 3 2
O3 O3 O2 122.6(5) 4 2
O3 O3 O2 103.8(7) 6_554 2
Ga3 O3 O2 127.8(8) 4_445 6
Nb O3 O2 95.0(5) . 6
Ga1 O3 O2 95.0(5) . 6
La O3 O2 64.3(4) . 6
Ga3 O3 O2 39.6(3) 2_564 6
O3 O3 O2 75.3(6) 6 6
O3 O3 O2 121.4(6) 3 6
O3 O3 O2 61.8(6) 4 6
O3 O3 O2 64.7(6) 6_554 6
O2 O3 O2 167.1(9) 2 6
Ga3 O3 O2 35.0(3) 4_445 1_554
Nb O3 O2 149.8(5) . 1_554
Ga1 O3 O2 149.8(5) . 1_554
La O3 O2 103.0(4) . 1_554
Ga3 O3 O2 97.6(5) 2_564 1_554
O3 O3 O2 156.6(6) 6 1_554
O3 O3 O2 102.8(5) 3 1_554
O3 O3 O2 129.2(3) 4 1_554
O3 O3 O2 58.5(4) 6_554 1_554
O2 O3 O2 59.1(6) 2 1_554
O2 O3 O2 108.3(5) 6 1_554
Ga3 O3 O3 102.2(5) 4_445 2
Nb O3 O3 36.2(4) . 2
Ga1 O3 O3 36.2(4) . 2
La O3 O3 97.6(6) . 2
Ga3 O3 O3 124.0(2) 2_564 2
O3 O3 O3 53.4(6) 6 2
O3 O3 O3 53.2(4) 3 2
O3 O3 O3 83.1(3) 4 2
O3 O3 O3 146.7(3) 6_554 2
O2 O3 O3 68.1(4) 2 2
O2 O3 O3 124.7(6) 6 2
O2 O3 O3 127.0(4) 1_554 2
Ga3 O3 O1 84.9(5) 4_445 2_455
Nb O3 O1 133.6(7) . 2_455
Ga1 O3 O1 133.6(7) . 2_455
La O3 O1 52.5(3) . 2_455
Ga3 O3 O1 132.8(5) 2_564 2_455
O3 O3 O1 97.5(6) 6 2_455
O3 O3 O1 133.7(7) 3 2_455
O3 O3 O1 165.1(7) 4 2_455
O3 O3 O1 106.8(6) 6_554 2_455
O2 O3 O1 71.8(3) 2 2_455
O2 O3 O1 104.9(4) 6 2_455
O2 O3 O1 59.1(5) 1_554 2_455
O3 O3 O1 101.1(5) 2 2_455
Ga3 O3 O3 25.2(4) 4_445 2_554
Nb O3 O3 100.9(4) . 2_554
Ga1 O3 O3 100.9(4) . 2_554
La O3 O3 154.7(6) . 2_554
Ga3 O3 O3 75.6(4) 2_564 2_554
O3 O3 O3 148.4(3) 6 2_554
O3 O3 O3 55.2(5) 3 2_554
O3 O3 O3 83.4(3) 4 2_554
O3 O3 O3 50.3(4) 6_554 2_554
O2 O3 O3 58.8(4) 2 2_554
O2 O3 O3 112.4(6) 6 2_554
O2 O3 O3 52.9(4) 1_554 2_554
O3 O3 O3 103.5(5) 2 2_554
O1 O3 O3 109.1(5) 2_455 2_554
Ga3 O3 O2 110.3(6) 4_445 .
Nb O3 O2 80.7(5) . .
Ga1 O3 O2 80.7(5) . .
La O3 O2 55.9(3) . .
Ga3 O3 O2 152.6(5) 2_564 .
O3 O3 O2 55.5(6) 6 .
O3 O3 O2 101.6(4) 3 .
O3 O3 O2 124.8(3) 4 .
O3 O3 O2 159.7(4) 6_554 .
O2 O3 O2 72.3(6) 2 .
O2 O3 O2 116.2(5) 6 .
O2 O3 O2 104.6(4) 1_554 .
O3 O3 O2 51.5(4) 2 .
O1 O3 O2 52.8(5) 2_455 .
O3 O3 O2 131.0(4) 2_554 .
Ga3 O3 Ga2 63.7(3) 4_445 1_554
Nb O3 Ga2 160.5(7) . 1_554
Ga1 O3 Ga2 160.5(7) . 1_554
La O3 Ga2 72.5(2) . 1_554
Ga3 O3 Ga2 111.3(4) 2_564 1_554
O3 O3 Ga2 125.8(4) 6 1_554
O3 O3 Ga2 129.1(5) 3 1_554
O3 O3 Ga2 151.9(4) 4 1_554
O3 O3 Ga2 78.2(4) 6_554 1_554
O2 O3 Ga2 70.3(3) 2 1_554
O2 O3 Ga2 100.5(4) 6 1_554
O2 O3 Ga2 31.3(3) 1_554 1_554
O3 O3 Ga2 124.4(3) 2 1_554
O1 O3 Ga2 30.0(4) 2_455 1_554
O3 O3 Ga2 84.1(4) 2_554 1_554
O2 O3 Ga2 81.8(4) . 1_554
Ga3 O3 Ga3 65.6(3) 4_445 1_655
Nb O3 Ga3 60.6(2) . 1_655
Ga1 O3 Ga3 60.6(2) . 1_655
La O3 Ga3 157.9(4) . 1_655
Ga3 O3 Ga3 62.1(2) 2_564 1_655
O3 O3 Ga3 106.4(2) 6 1_655
O3 O3 Ga3 28.33(19) 3 1_655
O3 O3 Ga3 45.0(3) 4 1_655
O3 O3 Ga3 67.3(2) 6_554 1_655
O2 O3 Ga3 80.5(3) 2 1_655
O2 O3 Ga3 99.2(4) 6 1_655
O2 O3 Ga3 96.0(4) 1_554 1_655
O3 O3 Ga3 79.4(3) 2 1_655
O1 O3 Ga3 149.6(5) 2_455 1_655
O3 O3 Ga3 43.2(2) 2_554 1_655
O2 O3 Ga3 129.6(4) . 1_655
Ga2 O3 Ga3 127.3(4) 1_554 1_655
Ga3 O3 La 72.4(4) 4_445 4_445
Nb O3 La 102.0(5) . 4_445
Ga1 O3 La 102.0(5) . 4_445
La O3 La 80.6(3) . 4_445
Ga3 O3 La 167.7(5) 2_564 4_445
O3 O3 La 93.1(7) 6 4_445
O3 O3 La 93.1(5) 3 4_445
O3 O3 La 147.9(5) 4 4_445
O3 O3 La 128.4(6) 6_554 4_445
O2 O3 La 38.7(3) 2 4_445
O2 O3 La 143.8(4) 6 4_445
O2 O3 La 70.2(3) 1_554 4_445
O3 O3 La 65.85(17) 2 4_445
O1 O3 La 41.8(2) 2_455 4_445
O3 O3 La 95.5(2) 2_554 4_445
O2 O3 La 38.4(3) . 4_445
Ga2 O3 La 58.57(18) 1_554 4_445
Ga3 O3 La 117.0(3) 1_655 4_445
Ga3 O3 O3 122.0(3) 4_445 5
Nb O3 O3 8.5(4) . 5
Ga1 O3 O3 8.5(4) . 5
La O3 O3 99.3(5) . 5
Ga3 O3 O3 82.7(3) 2_564 5
O3 O3 O3 43.0(3) 6 5
O3 O3 O3 54.1(4) 3 5
O3 O3 O3 42.9(3) 4 5
O3 O3 O3 117.0(5) 6_554 5
O2 O3 O3 104.5(4) 2 5
O2 O3 O3 86.7(3) 6 5
O2 O3 O3 156.9(4) 1_554 5
O3 O3 O3 42.8(3) 2 5
O1 O3 O3 135.2(7) 2_455 5
O3 O3 O3 105.6(3) 2_554 5
O2 O3 O3 83.0(5) . 5
Ga2 O3 O3 164.9(6) 1_554 5
Ga3 O3 O3 63.6(3) 1_655 5
La O3 O3 108.2(4) 4_445 5
Ga3 O3 O2 115.8(5) 4_445 5_455
Nb O3 O2 128.6(5) . 5_455
Ga1 O3 O2 128.6(5) . 5_455
La O3 O2 36.0(3) . 5_455
Ga3 O3 O2 78.4(3) 2_564 5_455
O3 O3 O2 85.6(4) 6 5_455
O3 O3 O2 166.9(6) 3 5_455
O3 O3 O2 107.6(6) 4 5_455
O3 O3 O2 77.8(4) 6_554 5_455
O2 O3 O2 128.4(4) 2 5_455
O2 O3 O2 45.9(4) 6 5_455
O2 O3 O2 81.5(3) 1_554 5_455
O3 O3 O2 133.4(6) 2 5_455
O1 O3 O2 59.1(2) 2_455 5_455
O3 O3 O2 122.5(6) 2_554 5_455
O2 O3 O2 89.0(4) . 5_455
Ga2 O3 O2 59.5(2) 1_554 5_455
Ga3 O3 O2 139.8(5) 1_655 5_455
La O3 O2 100.0(3) 4_445 5_455
O3 O3 O2 120.8(3) 5 5_455
Ga3 O3 Ga3 117.5(6) 4_445 4_446
Nb O3 Ga3 52.8(3) . 4_446
Ga1 O3 Ga3 52.8(3) . 4_446
La O3 Ga3 71.4(3) . 4_446
Ga3 O3 Ga3 135.2(4) 2_564 4_446
O3 O3 Ga3 40.1(5) 6 4_446
O3 O3 Ga3 80.0(2) 3 4_446
O3 O3 Ga3 98.33(12) 4 4_446
O3 O3 Ga3 172.3(3) 6_554 4_446
O2 O3 Ga3 77.6(5) 2 4_446
O2 O3 Ga3 114.7(5) 6 4_446
O2 O3 Ga3 127.2(5) 1_554 4_446
O3 O3 Ga3 26.8(3) 2 4_446
O1 O3 Ga3 80.8(5) 2_455 4_446
O3 O3 Ga3 127.1(5) 2_554 4_446
O2 O3 Ga3 28.0(2) . 4_446
Ga2 O3 Ga3 109.3(3) 1_554 4_446
Ga3 O3 Ga3 105.7(2) 1_655 4_446
La O3 Ga3 57.0(2) 4_445 4_446
O3 O3 Ga3 55.6(3) 5 4_446
O2 O3 Ga3 107.4(4) 5_455 4_446
Ga3 O3 O3 66.1(5) 4_445 5_554
Nb O3 O3 80.6(4) . 5_554
Ga1 O3 O3 80.6(4) . 5_554
La O3 O3 143.2(3) . 5_554
Ga3 O3 O3 39.5(2) 2_564 5_554
O3 O3 O3 118.0(4) 6 5_554
O3 O3 O3 55.4(3) 3 5_554
O3 O3 O3 44.8(3) 4 5_554
O3 O3 O3 41.4(3) 6_554 5_554
O2 O3 O3 96.2(4) 2 5_554
O2 O3 O3 79.1(4) 6 5_554
O2 O3 O3 85.1(5) 1_554 5_554
O3 O3 O3 105.9(3) 2 5_554
O1 O3 O3 143.7(7) 2_455 5_554
O3 O3 O3 41.1(2) 2_554 5_554
O2 O3 O3 156.8(4) . 5_554
Ga2 O3 O3 113.8(5) 1_554 5_554
Ga3 O3 O3 27.21(19) 1_655 5_554
La O3 O3 134.8(2) 4_445 5_554
O3 O3 O3 80.5(4) 5 5_554
O2 O3 O3 113.4(4) 5_455 5_554
Ga3 O3 O3 131.2(3) 4_446 5_554
Ga3 O3 Ga2 114.5(5) 4_445 2_565
Nb O3 Ga2 118.6(5) . 2_565
Ga1 O3 Ga2 118.6(5) . 2_565
La O3 Ga2 57.1(2) . 2_565
Ga3 O3 Ga2 51.8(2) 2_564 2_565
O3 O3 Ga2 90.0(5) 6 2_565
O3 O3 Ga2 140.4(5) 3 2_565
O3 O3 Ga2 83.9(5) 4 2_565
O3 O3 Ga2 58.8(3) 6_554 2_565
O2 O3 Ga2 145.3(5) 2 2_565
O2 O3 Ga2 24.0(3) 6 2_565
O2 O3 Ga2 87.2(3) 1_554 2_565
O3 O3 Ga2 143.3(5) 2 2_565
O1 O3 Ga2 84.4(2) 2_455 2_565
O3 O3 Ga2 108.9(5) 2_554 2_565
O2 O3 Ga2 112.9(3) . 2_565
Ga2 O3 Ga2 76.50(19) 1_554 2_565
Ga3 O3 Ga2 113.5(4) 1_655 2_565
La O3 Ga2 126.0(2) 4_445 2_565
O3 O3 Ga2 110.15(15) 5 2_565
O2 O3 Ga2 26.7(2) 5_455 2_565
Ga3 O3 Ga2 124.0(3) 4_446 2_565
O3 O3 Ga2 88.2(2) 5_554 2_565
Ga3 O3 Ga1 46.9(4) 4_445 1_554
Nb O3 Ga1 107.1(4) . 1_554
Ga1 O3 Ga1 107.1(4) . 1_554
La O3 Ga1 137.5(5) . 1_554
Ga3 O3 Ga1 50.3(2) 2_564 1_554
O3 O3 Ga1 144.6(6) 6 1_554
O3 O3 Ga1 71.42(10) 3 1_554
O3 O3 Ga1 71.42(10) 4 1_554
O3 O3 Ga1 24.2(2) 6_554 1_554
O2 O3 Ga1 85.4(5) 2 1_554
O2 O3 Ga1 85.0(5) 6 1_554
O2 O3 Ga1 57.9(3) 1_554 1_554
O3 O3 Ga1 124.5(4) 2 1_554
O1 O3 Ga1 116.0(5) 2_455 1_554
O3 O3 Ga1 27.6(2) 2_554 1_554
O2 O3 Ga1 157.1(4) . 1_554
Ga2 O3 Ga1 86.2(3) 1_554 1_554
Ga3 O3 Ga1 47.75(16) 1_655 1_554
La O3 Ga1 119.1(3) 4_445 1_554
O3 O3 Ga1 107.9(4) 5 1_554
O2 O3 Ga1 101.5(4) 5_455 1_554
Ga3 O3 Ga1 151.0(3) 4_446 1_554
O3 O3 Ga1 27.7(2) 5_554 1_554
Ga2 O3 Ga1 82.7(3) 2_565 1_554
Ga3 O3 Nb 46.9(4) 4_445 1_554
Nb O3 Nb 107.1(4) . 1_554
Ga1 O3 Nb 107.1(4) . 1_554
La O3 Nb 137.5(5) . 1_554
Ga3 O3 Nb 50.3(2) 2_564 1_554
O3 O3 Nb 144.6(6) 6 1_554
O3 O3 Nb 71.42(10) 3 1_554
O3 O3 Nb 71.42(10) 4 1_554
O3 O3 Nb 24.2(2) 6_554 1_554
O2 O3 Nb 85.4(5) 2 1_554
O2 O3 Nb 85.0(5) 6 1_554
O2 O3 Nb 57.9(3) 1_554 1_554
O3 O3 Nb 124.5(4) 2 1_554
O1 O3 Nb 116.0(5) 2_455 1_554
O3 O3 Nb 27.6(2) 2_554 1_554
O2 O3 Nb 157.1(4) . 1_554
Ga2 O3 Nb 86.2(3) 1_554 1_554
Ga3 O3 Nb 47.75(16) 1_655 1_554
La O3 Nb 119.1(3) 4_445 1_554
O3 O3 Nb 107.9(4) 5 1_554
O2 O3 Nb 101.5(4) 5_455 1_554
Ga3 O3 Nb 151.0(3) 4_446 1_554
O3 O3 Nb 27.7(2) 5_554 1_554
Ga2 O3 Nb 82.7(3) 2_565 1_554
Ga1 O3 Nb 0.0 1_554 1_554
Ga3 O3 La 68.4(3) 4_445 2
Nb O3 La 54.2(3) . 2
Ga1 O3 La 54.2(3) . 2
La O3 La 127.2(5) . 2
Ga3 O3 La 120.4(3) 2_564 2
O3 O3 La 87.5(5) 6 2
O3 O3 La 31.7(3) 3 2
O3 O3 La 87.4(3) 4 2
O3 O3 La 118.7(3) 6_554 2
O2 O3 La 42.0(3) 2 2
O2 O3 La 147.7(4) 6 2
O2 O3 La 98.4(4) 1_554 2
O3 O3 La 34.5(3) 2 2
O1 O3 La 104.2(3) 2_455 2
O3 O3 La 70.0(3) 2_554 2
O2 O3 La 72.3(3) . 2
Ga2 O3 La 111.7(3) 1_554 2
Ga3 O3 La 59.41(14) 1_655 2
La O3 La 62.5(2) 4_445 2
O3 O3 La 62.71(15) 5 2
O2 O3 La 160.8(4) 5_455 2
Ga3 O3 La 57.32(18) 4_446 2
O3 O3 La 85.66(17) 5_554 2
Ga2 O3 La 171.3(3) 2_565 2
Ga1 O3 La 94.5(2) 1_554 2
Nb O3 La 94.5(2) 1_554 2
Ga3 O3 O2 75.3(4) 4_445 3_454
Nb O3 O2 169.7(5) . 3_454
Ga1 O3 O2 169.7(5) . 3_454
La O3 O2 66.7(3) . 3_454
Ga3 O3 O2 89.0(4) 2_564 3_454
O3 O3 O2 123.3(2) 6 3_454
O3 O3 O2 142.4(4) 3 3_454
O3 O3 O2 129.7(5) 4 3_454
O3 O3 O2 62.5(3) 6_554 3_454
O2 O3 O2 93.1(4) 2 3_454
O2 O3 O2 76.5(3) 6 3_454
O2 O3 O2 40.5(4) 1_554 3_454
O3 O3 O2 146.7(3) 2 3_454
O1 O3 O2 45.7(4) 2_455 3_454
O3 O3 O2 88.0(5) 2_554 3_454
O2 O3 O2 97.5(3) . 3_454
Ga2 O3 O2 24.63(17) 1_554 3_454
Ga3 O3 O2 126.1(4) 1_655 3_454
La O3 O2 82.2(2) 4_445 3_454
O3 O3 O2 161.6(2) 5 3_454
O2 O3 O2 41.0(4) 5_455 3_454
Ga3 O3 O2 125.2(3) 4_446 3_454
O3 O3 O2 103.3(5) 5_554 3_454
Ga2 O3 O2 52.62(18) 2_565 3_454
Ga1 O3 O2 78.5(3) 1_554 3_454
Nb O3 O2 78.5(3) 1_554 3_454
La O3 O2 135.1(3) 2 3_454
Ga3 O3 Ga3 155.7(5) 4_445 2_565
Nb O3 Ga3 41.8(3) . 2_565
Ga1 O3 Ga3 41.8(3) . 2_565
La O3 Ga3 63.4(3) . 2_565
Ga3 O3 Ga3 90.1(3) 2_564 2_565
O3 O3 Ga3 10.0(3) 6 2_565
O3 O3 Ga3 89.3(2) 3 2_565
O3 O3 Ga3 63.4(3) 4 2_565
O3 O3 Ga3 129.0(6) 6_554 2_565
O2 O3 Ga3 122.4(6) 2 2_565
O2 O3 Ga3 70.5(4) 6 2_565
O2 O3 Ga3 165.8(4) 1_554 2_565
O3 O3 Ga3 55.4(3) 2 2_565
O1 O3 Ga3 107.1(5) 2_455 2_565
O3 O3 Ga3 141.2(3) 2_554 2_565
O2 O3 Ga3 65.1(3) . 2_565
Ga2 O3 Ga3 134.5(3) 1_554 2_565
Ga3 O3 Ga3 98.1(2) 1_655 2_565
La O3 Ga3 102.1(3) 4_445 2_565
O3 O3 Ga3 35.9(3) 5 2_565
O2 O3 Ga3 88.3(3) 5_455 2_565
Ga3 O3 Ga3 47.03(15) 4_446 2_565
O3 O3 Ga3 108.1(3) 5_554 2_565
Ga2 O3 Ga3 88.2(2) 2_565 2_565
Ga1 O3 Ga3 134.6(3) 1_554 2_565
Nb O3 Ga3 134.6(3) 1_554 2_565
La O3 Ga3 87.9(2) 2 2_565
O2 O3 Ga3 128.3(3) 3_454 2_565
Ga3 O3 La 63.8(4) 4_445 1_554
Nb O3 La 149.4(6) . 1_554
Ga1 O3 La 149.4(6) . 1_554
La O3 La 92.2(3) . 1_554
Ga3 O3 La 62.6(3) 2_564 1_554
O3 O3 La 140.5(5) 6 1_554
O3 O3 La 118.25(13) 3 1_554
O3 O3 La 102.4(3) 4 1_554
O3 O3 La 30.25(19) 6_554 1_554
O2 O3 La 98.2(5) 2 1_554
O2 O3 La 68.9(4) 6 1_554
O2 O3 La 40.1(3) 1_554 1_554
O3 O3 La 165.9(5) 2 1_554
O1 O3 La 76.9(4) 2_455 1_554
O3 O3 La 64.8(4) 2_554 1_554
O2 O3 La 129.5(3) . 1_554
Ga2 O3 La 49.48(17) 1_554 1_554
Ga3 O3 La 95.3(3) 1_655 1_554
La O3 La 106.1(2) 4_445 1_554
O3 O3 La 145.2(5) 5 1_554
O2 O3 La 57.7(3) 5_455 1_554
Ga3 O3 La 157.4(3) 4_446 1_554
O3 O3 La 71.0(4) 5_554 1_554
Ga2 O3 La 50.80(16) 2_565 1_554
Ga1 O3 La 47.74(16) 1_554 1_554
Nb O3 La 47.74(16) 1_554 1_554
La O3 La 132.0(3) 2 1_554
O2 O3 La 32.3(2) 3_454 1_554
Ga3 O3 La 138.7(3) 2_565 1_554
Ga3 O3 O1 156.5(5) 4_445 .
Nb O3 O1 88.3(4) . .
Ga1 O3 O1 88.3(4) . .
La O3 O1 28.97(16) . .
Ga3 O3 O1 79.4(4) 2_564 .
O3 O3 O1 46.2(3) 6 .
O3 O3 O1 134.7(4) 3 .
O3 O3 O1 84.4(5) 4 .
O3 O3 O1 103.0(6) 6_554 .
O2 O3 O1 146.1(6) 2 .
O2 O3 O1 40.9(4) 6 .
O2 O3 O1 121.9(4) 1_554 .
O3 O3 O1 98.9(5) 2 .
O1 O3 O1 80.9(3) 2_455 .
O3 O3 O1 153.0(6) 2_554 .
O2 O3 O1 75.3(4) . .
Ga2 O3 O1 95.7(2) 1_554 .
Ga3 O3 O1 129.3(3) 1_655 .
La O3 O1 107.5(3) 4_445 .
O3 O3 O1 80.9(3) 5 .
O2 O3 O1 40.6(3) 5_455 .
Ga3 O3 O1 78.6(3) 4_446 .
O3 O3 O1 117.6(2) 5_554 .
Ga2 O3 O1 45.7(3) 2_565 .
Ga1 O3 O1 125.4(4) 1_554 .
Nb O3 O1 125.4(4) 1_554 .
La O3 O1 133.3(4) 2 .
O2 O3 O1 81.4(3) 3_454 .
Ga3 O3 O1 47.8(2) 2_565 .
La O3 O1 94.6(4) 1_554 .
Ga3 O3 O2 96.4(5) 4_445 4_554
Nb O3 O2 89.1(4) . 4_554
Ga1 O3 O2 89.1(4) . 4_554
La O3 O2 104.0(4) . 4_554
Ga3 O3 O2 1.0(2) 2_564 4_554
O3 O3 O2 99.8(6) 6 4_554
O3 O3 O2 89.1(4) 3 4_554
O3 O3 O2 41.8(3) 4 4_554
O3 O3 O2 38.3(4) 6_554 4_554
O2 O3 O2 133.6(5) 2 4_554
O2 O3 O2 39.9(5) 6 4_554
O2 O3 O2 96.5(5) 1_554 4_554
O3 O3 O2 124.9(2) 2 4_554
O1 O3 O2 132.1(4) 2_455 4_554
O3 O3 O2 75.0(3) 2_554 4_554
O2 O3 O2 153.3(5) . 4_554
Ga2 O3 O2 110.4(4) 1_554 4_554
Ga3 O3 O2 62.2(2) 1_655 4_554
La O3 O2 166.7(4) 4_445 4_554
O3 O3 O2 83.7(3) 5 4_554
O2 O3 O2 78.1(3) 5_455 4_554
Ga3 O3 O2 136.2(3) 4_446 4_554
O3 O3 O2 39.3(2) 5_554 4_554
Ga2 O3 O2 51.5(2) 2_565 4_554
Ga1 O3 O2 49.5(2) 1_554 4_554
Nb O3 O2 49.5(2) 1_554 4_554
La O3 O2 120.8(3) 2 4_554
O2 O3 O2 88.1(4) 3_454 4_554
Ga3 O3 O2 91.0(3) 2_565 4_554
La O3 O2 61.6(3) 1_554 4_554
O1 O3 O2 79.8(4) . 4_554
Ga3 O3 O2 124.4(5) 4_445 3_455
Nb O3 O2 103.6(5) . 3_455
Ga1 O3 O2 103.6(5) . 3_455
La O3 O2 19.8(2) . 3_455
Ga3 O3 O2 123.6(3) 2_564 3_455
O3 O3 O2 59.1(3) 6 3_455
O3 O3 O2 138.7(4) 3 3_455
O3 O3 O2 127.3(4) 4 3_455
O3 O3 O2 127.4(3) 6_554 3_455
O2 O3 O2 99.8(4) 2 3_455
O2 O3 O2 84.1(4) 6 3_455
O2 O3 O2 97.8(3) 1_554 3_455
O3 O3 O2 85.9(4) 2 3_455
O1 O3 O2 40.0(4) 2_455 3_455
O3 O3 O2 149.1(2) 2_554 3_455
O2 O3 O2 38.1(3) . 3_455
Ga2 O3 O2 66.7(3) 1_554 3_455
Ga3 O3 O2 164.0(4) 1_655 3_455
La O3 O2 61.1(2) 4_445 3_455
O3 O3 O2 101.2(5) 5 3_455
O2 O3 O2 51.0(4) 5_455 3_455
Ga3 O3 O2 59.2(2) 4_446 3_455
O3 O3 O2 162.9(2) 5_554 3_455
Ga2 O3 O2 75.3(2) 2_565 3_455
Ga1 O3 O2 148.2(3) 1_554 3_455
Nb O3 O2 148.2(3) 1_554 3_455
La O3 O2 110.4(3) 2 3_455
O2 O3 O2 69.94(19) 3_454 3_455
Ga3 O3 O2 68.0(2) 2_565 3_455
La O3 O2 100.5(2) 1_554 3_455
O1 O3 O2 46.88(19) . 3_455
O2 O3 O2 123.7(3) 4_554 3_455
Ga3 O3 Ga2 31.6(3) 4_445 2
Nb O3 Ga2 99.2(4) . 2
Ga1 O3 Ga2 99.2(4) . 2
La O3 Ga2 125.5(4) . 2
Ga3 O3 Ga2 125.6(4) 2_564 2
O3 O3 Ga2 125.5(7) 6 2
O3 O3 Ga2 61.2(4) 3 2
O3 O3 Ga2 119.0(4) 4 2
O3 O3 Ga2 95.0(5) 6_554 2
O2 O3 Ga2 9.0(4) 2 2
O2 O3 Ga2 159.2(6) 6 2
O2 O3 Ga2 53.7(3) 1_554 2
O3 O3 Ga2 74.6(3) 2 2
O1 O3 Ga2 75.8(3) 2_455 2
O3 O3 Ga2 49.99(16) 2_554 2
O2 O3 Ga2 81.2(3) . 2
Ga2 O3 Ga2 69.45(19) 1_554 2
Ga3 O3 Ga2 75.12(18) 1_655 2
La O3 Ga2 46.50(14) 4_445 2
O3 O3 Ga2 107.67(12) 5 2
O2 O3 Ga2 128.9(3) 5_455 2
Ga3 O3 Ga2 86.1(3) 4_446 2
O3 O3 Ga2 88.4(2) 5_554 2
Ga2 O3 Ga2 140.9(3) 2_565 2
Ga1 O3 Ga2 76.41(19) 1_554 2
Nb O3 Ga2 76.41(19) 1_554 2
La O3 Ga2 45.20(12) 2 2
O2 O3 Ga2 90.6(3) 3_454 2
Ga3 O3 Ga2 129.7(3) 2_565 2
La O3 Ga2 91.5(2) 1_554 2
O1 O3 Ga2 153.9(3) . 2
O2 O3 Ga2 125.0(3) 4_554 2
O2 O3 Ga2 107.0(3) 3_455 2
Ga3 O3 O2 152.6(4) 4_445 4
Nb O3 O2 46.1(3) . 4
Ga1 O3 O2 46.1(3) . 4
La O3 O2 71.3(3) . 4
Ga3 O3 O2 66.6(3) 2_564 4
O3 O3 O2 32.6(5) 6 4
O3 O3 O2 89.1(4) 3 4
O3 O3 O2 44.8(4) 4 4
O3 O3 O2 105.5(6) 6_554 4
O2 O3 O2 140.5(5) 2 4
O2 O3 O2 52.0(5) 6 4
O2 O3 O2 160.2(5) 1_554 4
O3 O3 O2 72.8(3) 2 4
O1 O3 O2 122.5(5) 2_455 4
O3 O3 O2 128.2(2) 2_554 4
O2 O3 O2 88.1(5) . 4
Ga2 O3 O2 141.7(3) 1_554 4
Ga3 O3 O2 87.0(2) 1_655 4
La O3 O2 125.6(4) 4_445 4
O3 O3 O2 37.8(2) 5 4
O2 O3 O2 83.6(3) 5_455 4
Ga3 O3 O2 70.0(3) 4_446 4
O3 O3 O2 88.9(3) 5_554 4
Ga2 O3 O2 73.7(2) 2_565 4
Ga1 O3 O2 113.0(3) 1_554 4
Nb O3 O2 113.0(3) 1_554 4
La O3 O2 99.9(3) 2 4
O2 O3 O2 123.8(3) 3_454 4
Ga3 O3 O2 23.5(2) 2_565 4
La O3 O2 120.2(3) 1_554 4
O1 O3 O2 46.06(19) . 4
O2 O3 O2 67.5(2) 4_554 4
O2 O3 O2 82.7(4) 3_455 4
Ga2 O3 O2 145.1(3) 2 4
Ga3 O3 La 147.3(6) 4_445 2_565
Nb O3 La 74.7(3) . 2_565
Ga1 O3 La 74.7(3) . 2_565
La O3 La 61.2(2) . 2_565
Ga3 O3 La 50.7(2) 2_564 2_565
O3 O3 La 53.5(5) 6 2_565
O3 O3 La 111.3(5) 3 2_565
O3 O3 La 53.5(5) 4 2_565
O3 O3 La 84.4(5) 6_554 2_565
O2 O3 La 170.0(5) 2 2_565
O2 O3 La 22.9(4) 6 2_565
O2 O3 La 130.9(4) 1_554 2_565
O3 O3 La 101.9(4) 2 2_565
O1 O3 La 111.6(3) 2_455 2_565
O3 O3 La 126.0(3) 2_554 2_565
O2 O3 La 102.0(3) . 2_565
Ga2 O3 La 117.7(2) 1_554 2_565
Ga3 O3 La 97.7(2) 1_655 2_565
La O3 La 138.5(3) 4_445 2_565
O3 O3 La 66.20(12) 5 2_565
O2 O3 La 58.4(2) 5_455 2_565
Ga3 O3 La 93.5(2) 4_446 2_565
O3 O3 La 86.18(15) 5_554 2_565
Ga2 O3 La 44.27(13) 2_565 2_565
Ga1 O3 La 100.8(3) 1_554 2_565
Nb O3 La 100.8(3) 1_554 2_565
La O3 La 128.9(2) 2 2_565
O2 O3 La 95.8(2) 3_454 2_565
Ga3 O3 La 47.87(12) 2_565 2_565
La O3 La 91.8(2) 1_554 2_565
O1 O3 La 32.39(13) . 2_565
O2 O3 La 51.4(2) 4_554 2_565
O2 O3 La 79.1(2) 3_455 2_565
Ga2 O3 La 172.4(2) 2 2_565
O2 O3 La 29.57(17) 4 2_565
Ga3 O3 O2 85.0(4) 4_445 5
Nb O3 O2 42.3(3) . 5
Ga1 O3 O2 42.3(3) . 5
La O3 O2 139.2(4) . 5
Ga3 O3 O2 61.7(2) 2_564 5
O3 O3 O2 86.4(3) 6 5
O3 O3 O2 29.8(3) 3 5
O3 O3 O2 30.6(3) 4 5
O3 O3 O2 80.1(3) 6_554 5
O2 O3 O2 92.0(3) 2 5
O2 O3 O2 91.6(3) 6 5
O2 O3 O2 116.2(4) 1_554 5
O3 O3 O2 68.3(3) 2 5
O1 O3 O2 163.5(4) 2_455 5
O3 O3 O2 63.4(3) 2_554 5
O2 O3 O2 119.5(4) . 5
Ga2 O3 O2 147.5(4) 1_554 5
Ga3 O3 O2 20.2(2) 1_655 5
La O3 O2 122.2(3) 4_445 5
O3 O3 O2 44.0(3) 5 5
O2 O3 O2 137.4(4) 5_455 5
Ga3 O3 O2 92.3(3) 4_446 5
O3 O3 O2 39.1(3) 5_554 5
Ga2 O3 O2 111.8(3) 2_565 5
Ga1 O3 O2 64.8(3) 1_554 5
Nb O3 O2 64.8(3) 1_554 5
La O3 O2 59.74(17) 2 5
O2 O3 O2 142.4(4) 3_454 5
Ga3 O3 O2 78.0(3) 2_565 5
La O3 O2 110.1(4) 1_554 5
O1 O3 O2 112.7(3) . 5
O2 O3 O2 62.2(3) 4_554 5
O2 O3 O2 145.2(3) 3_455 5
Ga2 O3 O2 88.8(2) 2 5
O2 O3 O2 67.9(3) 4 5
La O3 O2 83.6(2) 2_565 5
Ga3 O3 Ga2 115.7(5) 4_445 .
Nb O3 Ga2 91.8(5) . .
Ga1 O3 Ga2 91.8(5) . .
La O3 Ga2 41.1(2) . .
Ga3 O3 Ga2 143.4(4) 2_564 .
O3 O3 Ga2 56.9(4) 6 .
O3 O3 Ga2 117.5(4) 3 .
O3 O3 Ga2 130.2(2) 4 .
O3 O3 Ga2 146.53(15) 6_554 .
O2 O3 Ga2 82.2(4) 2 .
O2 O3 Ga2 104.1(4) 6 .
O2 O3 Ga2 100.5(4) 1_554 .
O3 O3 Ga2 66.4(3) 2 .
O1 O3 Ga2 43.0(5) 2_455 .
O3 O3 Ga2 139.8(2) 2_554 .
O2 O3 Ga2 15.94(19) . .
Ga2 O3 Ga2 73.0(2) 1_554 .
Ga3 O3 Ga2 145.4(3) 1_655 .
La O3 Ga2 44.38(14) 4_445 .
O3 O3 Ga2 92.4(5) 5 .
O2 O3 Ga2 73.2(3) 5_455 .
Ga3 O3 Ga2 40.90(14) 4_446 .
O3 O3 Ga2 172.1(4) 5_554 .
Ga2 O3 Ga2 97.57(19) 2_565 .
Ga1 O3 Ga2 158.4(3) 1_554 .
Nb O3 Ga2 158.4(3) 1_554 .
La O3 Ga2 88.0(3) 2 .
O2 O3 Ga2 84.5(3) 3_454 .
Ga3 O3 Ga2 66.8(2) 2_565 .
La O3 Ga2 116.83(18) 1_554 .
O1 O3 Ga2 64.0(2) . .
O2 O3 Ga2 143.8(3) 4_554 .
O2 O3 Ga2 22.35(16) 3_455 .
Ga2 O3 Ga2 90.6(2) 2 .
O2 O3 Ga2 87.5(3) 4 .
La O3 Ga2 94.1(2) 2_565 .
O2 O3 Ga2 133.1(4) 5 .
Ga3 O3 La 118.1(4) 4_445 4
Nb O3 La 34.9(3) . 4
Ga1 O3 La 34.9(3) . 4
La O3 La 105.6(3) . 4
Ga3 O3 La 53.52(17) 2_564 4
O3 O3 La 59.8(3) 6 4
O3 O3 La 59.8(3) 3 4
O3 O3 La 14.57(16) 4 4
O3 O3 La 88.9(4) 6_554 4
O2 O3 La 122.0(3) 2 4
O2 O3 La 65.7(3) 6 4
O2 O3 La 143.3(4) 1_554 4
O3 O3 La 71.10(17) 2 4
O1 O3 La 156.6(5) 2_455 4
O3 O3 La 94.34(16) 2_554 4
O2 O3 La 110.3(4) . 4
Ga2 O3 La 164.4(4) 1_554 4
Ga3 O3 La 52.56(12) 1_655 4
La O3 La 137.0(3) 4_445 4
O3 O3 La 29.19(18) 5 4
O2 O3 La 109.5(3) 5_455 4
Ga3 O3 La 84.1(2) 4_446 4
O3 O3 La 58.2(2) 5_554 4
Ga2 O3 La 89.4(2) 2_565 4
Ga1 O3 La 85.4(2) 1_554 4
Nb O3 La 85.4(2) 1_554 4
La O3 La 82.08(15) 2 4
O2 O3 La 140.0(4) 3_454 4
Ga3 O3 La 49.98(11) 2_565 4
La O3 La 116.0(3) 1_554 4
O1 O3 La 78.66(18) . 4
O2 O3 La 54.5(2) 4_554 4
O2 O3 La 116.5(3) 3_455 4
Ga2 O3 La 120.97(18) 2 4
O2 O3 La 34.46(17) 4 4
La O3 La 51.50(12) 2_565 4
O2 O3 La 34.05(17) 5 4
Ga2 O3 La 116.2(3) . 4
Ga3 O3 O1 94.7(5) 4_445 1_554
Nb O3 O1 128.8(5) . 1_554
Ga1 O3 O1 128.8(5) . 1_554
La O3 O1 74.5(3) . 1_554
Ga3 O3 O1 45.5(2) 2_564 1_554
O3 O3 O1 109.7(5) 6 1_554
O3 O3 O1 129.9(4) 3 1_554
O3 O3 O1 84.9(5) 4 1_554
O3 O3 O1 39.4(3) 6_554 1_554
O2 O3 O1 130.2(5) 2 1_554
O2 O3 O1 37.0(4) 6 1_554
O2 O3 O1 71.3(4) 1_554 1_554
O3 O3 O1 161.7(4) 2 1_554
O1 O3 O1 87.3(3) 2_455 1_554
O3 O3 O1 88.8(5) 2_554 1_554
O2 O3 O1 128.4(3) . 1_554
Ga2 O3 O1 69.7(2) 1_554 1_554
Ga3 O3 O1 101.6(4) 1_655 1_554
La O3 O1 127.2(2) 4_445 1_554
O3 O3 O1 121.1(2) 5 1_554
O2 O3 O1 39.5(3) 5_455 1_554
Ga3 O3 O1 144.2(3) 4_446 1_554
O3 O3 O1 74.5(3) 5_554 1_554
Ga2 O3 O1 20.5(2) 2_565 1_554
Ga1 O3 O1 63.6(3) 1_554 1_554
Nb O3 O1 63.6(3) 1_554 1_554
La O3 O1 158.1(4) 2 1_554
O2 O3 O1 45.35(19) 3_454 1_554
Ga3 O3 O1 106.7(3) 2_565 1_554
La O3 O1 32.1(2) 1_554 1_554
O1 O3 O1 66.15(17) . 1_554
O2 O3 O1 44.8(2) 4_554 1_554
O2 O3 O1 90.5(3) 3_455 1_554
Ga2 O3 O1 123.6(3) 2 1_554
O2 O3 O1 88.9(3) 4 1_554
La O3 O1 59.8(2) 2_565 1_554
O2 O3 O1 106.6(3) 5 1_554
Ga2 O3 O1 112.5(2) . 1_554
La O3 O1 94.7(2) 4 1_554
Ga3 O3 O1 72.0(5) 4_445 1_545
Nb O3 O1 74.3(4) . 1_545
Ga1 O3 O1 74.3(4) . 1_545
La O3 O1 101.6(5) . 1_545
Ga3 O3 O1 152.0(3) 2_564 1_545
O3 O3 O1 85.4(7) 6 1_545
O3 O3 O1 63.3(4) 3 1_545
O3 O3 O1 116.8(4) 4 1_545
O3 O3 O1 135.1(5) 6_554 1_545
O2 O3 O1 32.0(5) 2 1_545
O2 O3 O1 160.2(6) 6 1_545
O2 O3 O1 87.9(4) 1_554 1_545
O3 O3 O1 39.9(2) 2 1_545
O1 O3 O1 73.1(3) 2_455 1_545
O3 O3 O1 86.3(4) 2_554 1_545
O2 O3 O1 46.4(3) . 1_545
Ga2 O3 O1 87.3(3) 1_554 1_545
Ga3 O3 O1 90.2(2) 1_655 1_545
La O3 O1 31.45(11) 4_445 1_545
O3 O3 O1 81.9(3) 5 1_545
O2 O3 O1 129.5(3) 5_455 1_545
Ga3 O3 O1 45.6(3) 4_446 1_545
O3 O3 O1 114.62(19) 5_554 1_545
Ga2 O3 O1 156.2(3) 2_565 1_545
Ga1 O3 O1 113.9(3) 1_554 1_545
Nb O3 O1 113.9(3) 1_554 1_545
La O3 O1 31.77(10) 2 1_545
O2 O3 O1 111.9(3) 3_454 1_545
Ga3 O3 O1 91.0(4) 2_565 1_545
La O3 O1 127.9(3) 1_554 1_545
O1 O3 O1 120.7(6) . 1_545
O2 O3 O1 152.3(3) 4_554 1_545
O2 O3 O1 82.4(3) 3_455 1_545
Ga2 O3 O1 40.5(3) 2 1_545
O2 O3 O1 111.7(4) 4 1_545
La O3 O1 138.7(4) 2_565 1_545
O2 O3 O1 91.3(2) 5 1_545
Ga2 O3 O1 60.5(3) . 1_545
La O3 O1 108.1(2) 4 1_545
O1 O3 O1 156.9(3) 1_554 1_545
Ga3 O3 Ga3 97.1(3) 4_445 .
Nb O3 Ga3 148.0(4) . .
Ga1 O3 Ga3 148.0(4) . .
La O3 Ga3 46.50(18) . .
Ga3 O3 Ga3 87.5(3) 2_564 .
O3 O3 Ga3 102.00(17) 6 .
O3 O3 Ga3 163.8(2) 3 .
O3 O3 Ga3 123.5(6) 4 .
O3 O3 Ga3 73.50(17) 6_554 .
O2 O3 Ga3 109.5(3) 2 .
O2 O3 Ga3 62.7(3) 6 .
O2 O3 Ga3 62.2(3) 1_554 .
O3 O3 Ga3 139.8(4) 2 .
O1 O3 Ga3 45.7(2) 2_455 .
O3 O3 Ga3 108.7(5) 2_554 .
O2 O3 Ga3 88.8(3) . .
Ga2 O3 Ga3 39.60(10) 1_554 .
Ga3 O3 Ga3 140.8(4) 1_655 .
La O3 Ga3 87.39(16) 4_445 .
O3 O3 Ga3 140.6(3) 5 .
O2 O3 Ga3 20.2(2) 5_455 .
Ga3 O3 Ga3 113.4(2) 4_446 .
O3 O3 Ga3 114.2(4) 5_554 .
Ga2 O3 Ga3 39.69(8) 2_565 .
Ga1 O3 Ga3 94.3(2) 1_554 .
Nb O3 Ga3 94.3(2) 1_554 .
La O3 Ga3 149.1(3) 2 .
O2 O3 Ga3 21.83(19) 3_454 .
Ga3 O3 Ga3 106.5(2) 2_565 .
La O3 Ga3 46.64(10) 1_554 .
O1 O3 Ga3 59.7(2) . .
O2 O3 Ga3 86.9(3) 4_554 .
O2 O3 Ga3 54.3(2) 3_455 .
Ga2 O3 Ga3 109.0(2) 2 .
O2 O3 Ga3 103.8(2) 4 .
La O3 Ga3 78.08(16) 2_565 .
O2 O3 Ga3 149.1(4) 5 .
Ga2 O3 Ga3 73.49(13) . .
La O3 Ga3 128.2(3) 4 .
O1 O3 Ga3 42.51(11) 1_554 .
O1 O3 Ga3 118.8(2) 1_545 .
Ga3 O3 O3 136.1(5) 4_445 1_556
Nb O3 O3 51.3(4) . 1_556
Ga1 O3 O3 51.3(4) . 1_556
La O3 O3 59.5(3) . 1_556
Ga3 O3 O3 120.7(3) 2_564 1_556
O3 O3 O3 22.2(6) 6 1_556
O3 O3 O3 90.000(1) 3 1_556
O3 O3 O3 90.000(1) 4 1_556
O3 O3 O3 159.3(5) 6_554 1_556
O2 O3 O3 96.1(5) 2 1_556
O2 O3 O3 96.0(5) 6 1_556
O2 O3 O3 140.1(4) 1_554 1_556
O3 O3 O3 39.3(4) 2 1_556
O1 O3 O3 84.7(5) 2_455 1_556
O3 O3 O3 142.8(4) 2_554 1_556
O2 O3 O3 35.4(3) . 1_556
Ga2 O3 O3 114.7(2) 1_554 1_556
Ga3 O3 O3 111.1(2) 1_655 1_556
La O3 O3 71.54(19) 4_445 1_556
O3 O3 O3 50.8(4) 5 1_556
O2 O3 O3 94.4(3) 5_455 1_556
Ga3 O3 O3 18.62(17) 4_446 1_556
O3 O3 O3 131.3(3) 5_554 1_556
Ga2 O3 O3 106.71(19) 2_565 1_556
Ga1 O3 O3 158.41(12) 1_554 1_556
Nb O3 O3 158.41(12) 1_554 1_556
La O3 O3 73.16(18) 2 1_556
O2 O3 O3 122.8(3) 3_454 1_556
Ga3 O3 O3 30.60(18) 2_565 1_556
La O3 O3 151.71(13) 1_554 1_556
O1 O3 O3 61.0(3) . 1_556
O2 O3 O3 121.6(2) 4_554 1_556
O2 O3 O3 52.9(2) 3_455 1_556
Ga2 O3 O3 104.68(18) 2 1_556
O2 O3 O3 54.1(3) 4 1_556
La O3 O3 75.23(18) 2_565 1_556
O2 O3 O3 93.6(3) 5 1_556
Ga2 O3 O3 41.67(13) . 1_556
La O3 O3 75.49(17) 4 1_556
O1 O3 O3 127.2(2) 1_554 1_556
O1 O3 O3 64.2(3) 1_545 1_556
Ga3 O3 O3 105.41(16) . 1_556
Ga3 O3 O3 43.9(5) 4_445 1_554
Nb O3 O3 128.7(4) . 1_554
Ga1 O3 O3 128.7(4) . 1_554
La O3 O3 120.5(3) . 1_554
Ga3 O3 O3 59.3(3) 2_564 1_554
O3 O3 O3 157.8(6) 6 1_554
O3 O3 O3 90.0 3 1_554
O3 O3 O3 89.999(1) 4 1_554
O3 O3 O3 20.7(5) 6_554 1_554
O2 O3 O3 83.9(5) 2 1_554
O2 O3 O3 84.0(5) 6 1_554
O2 O3 O3 39.9(4) 1_554 1_554
O3 O3 O3 140.7(4) 2 1_554
O1 O3 O3 95.3(5) 2_455 1_554
O3 O3 O3 37.2(4) 2_554 1_554
O2 O3 O3 144.6(3) . 1_554
Ga2 O3 O3 65.3(2) 1_554 1_554
Ga3 O3 O3 68.9(2) 1_655 1_554
La O3 O3 108.46(19) 4_445 1_554
O3 O3 O3 129.2(4) 5 1_554
O2 O3 O3 85.6(3) 5_455 1_554
Ga3 O3 O3 161.38(17) 4_446 1_554
O3 O3 O3 48.7(3) 5_554 1_554
Ga2 O3 O3 73.29(19) 2_565 1_554
Ga1 O3 O3 21.59(12) 1_554 1_554
Nb O3 O3 21.59(12) 1_554 1_554
La O3 O3 106.84(18) 2 1_554
O2 O3 O3 57.2(3) 3_454 1_554
Ga3 O3 O3 149.40(18) 2_565 1_554
La O3 O3 28.29(13) 1_554 1_554
O1 O3 O3 119.0(3) . 1_554
O2 O3 O3 58.4(2) 4_554 1_554
O2 O3 O3 127.1(2) 3_455 1_554
Ga2 O3 O3 75.32(18) 2 1_554
O2 O3 O3 125.9(3) 4 1_554
La O3 O3 104.77(18) 2_565 1_554
O2 O3 O3 86.4(3) 5 1_554
Ga2 O3 O3 138.33(13) . 1_554
La O3 O3 104.51(17) 4 1_554
O1 O3 O3 52.8(2) 1_554 1_554
O1 O3 O3 115.8(3) 1_545 1_554
Ga3 O3 O3 74.59(16) . 1_554
O3 O3 O3 179.999(5) 1_556 1_554
Ga3 O3 Ga3 115.1(4) 4_445 1_656
Nb O3 Ga3 12.0(3) . 1_656
Ga1 O3 Ga3 12.0(3) . 1_656
La O3 Ga3 99.2(4) . 1_656
Ga3 O3 Ga3 99.9(3) 2_564 1_656
O3 O3 Ga3 43.7(2) 6 1_656
O3 O3 Ga3 50.66(14) 3 1_656
O3 O3 Ga3 59.36(15) 4 1_656
O3 O3 Ga3 131.1(3) 6_554 1_656
O2 O3 Ga3 89.3(4) 2 1_656
O2 O3 Ga3 102.7(4) 6 1_656
O2 O3 Ga3 147.4(4) 1_554 1_656
O3 O3 Ga3 24.96(16) 2 1_656
O1 O3 Ga3 121.9(5) 2_455 1_656
O3 O3 Ga3 105.8(4) 2_554 1_656
O2 O3 Ga3 69.2(3) . 1_656
Ga2 O3 Ga3 148.7(4) 1_554 1_656
Ga3 O3 Ga3 68.91(15) 1_655 1_656
La O3 Ga3 90.6(3) 4_445 1_656
O3 O3 Ga3 17.79(17) 5 1_656
O2 O3 Ga3 128.9(4) 5_455 1_656
Ga3 O3 Ga3 41.18(11) 4_446 1_656
O3 O3 Ga3 91.1(3) 5_554 1_656
Ga2 O3 Ga3 125.1(3) 2_565 1_656
Ga1 O3 Ga3 116.47(18) 1_554 1_656
Nb O3 Ga3 116.47(18) 1_554 1_656
La O3 Ga3 48.98(12) 2 1_656
O2 O3 Ga3 165.0(4) 3_454 1_656
Ga3 O3 Ga3 40.63(11) 2_565 1_656
La O3 Ga3 161.2(3) 1_554 1_656
O1 O3 Ga3 88.4(3) . 1_656
O2 O3 Ga3 100.9(3) 4_554 1_656
O2 O3 Ga3 95.1(3) 3_455 1_656
Ga2 O3 Ga3 93.9(2) 2 1_656
O2 O3 Ga3 51.38(19) 4 1_656
La O3 Ga3 80.91(17) 2_565 1_656
O2 O3 Ga3 52.2(2) 5 1_656
Ga2 O3 Ga3 81.1(2) . 1_656
La O3 Ga3 46.49(9) 4 1_656
O1 O3 Ga3 138.5(3) 1_554 1_656
O1 O3 Ga3 64.3(2) 1_545 1_656
Ga3 O3 Ga3 145.5(3) . 1_656
O3 O3 Ga3 42.21(13) 1_556 1_656
O3 O3 Ga3 137.79(13) 1_554 1_656
Ga3 O3 O2 51.3(3) 4_445 3_554
Nb O3 O2 70.0(3) . 3_554
Ga1 O3 O2 70.0(3) . 3_554
La O3 O2 172.9(4) . 3_554
Ga3 O3 O2 72.2(3) 2_564 3_554
O3 O3 O2 117.4(2) 6 3_554
O3 O3 O2 27.3(2) 3 3_554
O3 O3 O2 60.0(3) 4 3_554
O3 O3 O2 67.2(2) 6_554 3_554
O2 O3 O2 66.8(4) 2 3_554
O2 O3 O2 111.2(5) 6 3_554
O2 O3 O2 83.5(4) 1_554 3_554
O3 O3 O2 80.4(4) 2 3_554
O1 O3 O2 134.6(4) 2_455 3_554
O3 O3 O2 31.1(3) 2_554 3_554
O2 O3 O2 125.7(3) . 3_554
Ga2 O3 O2 114.4(3) 1_554 3_554
Ga3 O3 O2 15.03(14) 1_655 3_554
La O3 O2 104.6(3) 4_445 3_554
O3 O3 O2 74.5(3) 5 3_554
O2 O3 O2 144.8(4) 5_455 3_554
Ga3 O3 O2 107.0(3) 4_446 3_554
O3 O3 O2 33.3(2) 5_554 3_554
Ga2 O3 O2 121.2(3) 2_565 3_554
Ga1 O3 O2 44.2(2) 1_554 3_554
Nb O3 O2 44.2(2) 1_554 3_554
La O3 O2 53.41(19) 2 3_554
O2 O3 O2 118.4(4) 3_454 3_554
Ga3 O3 O2 110.3(2) 2_565 3_554
La O3 O2 91.1(3) 1_554 3_554
O1 O3 O2 144.3(3) . 3_554
O2 O3 O2 72.1(2) 4_554 3_554
O2 O3 O2 163.6(4) 3_455 3_554
Ga2 O3 O2 60.70(16) 2 3_554
O2 O3 O2 101.55(17) 4 3_554
La O3 O2 112.4(2) 2_565 3_554
O2 O3 O2 33.7(3) 5 3_554
Ga2 O3 O2 141.2(3) . 3_554
La O3 O2 67.25(18) 4 3_554
O1 O3 O2 105.4(4) 1_554 3_554
O1 O3 O2 81.3(2) 1_545 3_554
Ga3 O3 O2 137.6(3) . 3_554
O3 O3 O2 117.0(2) 1_556 3_554
O3 O3 O2 63.0(2) 1_554 3_554
Ga3 O3 O2 76.0(2) 1_656 3_554
Ga3 O3 O2 55.4(3) 4_445 4_444
Nb O3 O2 154.8(6) . 4_444
Ga1 O3 O2 154.8(6) . 4_444
La O3 O2 80.4(3) . 4_444
Ga3 O3 O2 115.1(4) 2_564 4_444
O3 O3 O2 130.9(5) 6 4_444
O3 O3 O2 119.7(5) 3 4_444
O3 O3 O2 153.2(3) 4 4_444
O3 O3 O2 78.9(4) 6_554 4_444
O2 O3 O2 61.2(3) 2 4_444
O2 O3 O2 109.0(4) 6 4_444
O2 O3 O2 25.7(2) 1_554 4_444
O3 O3 O2 119.2(2) 2 4_444
O1 O3 O2 33.4(5) 2_455 4_444
O3 O3 O2 77.3(3) 2_554 4_444
O2 O3 O2 81.9(2) . 4_444
Ga2 O3 O2 9.49(13) 1_554 4_444
Ga3 O3 O2 120.3(3) 1_655 4_444
La O3 O2 53.8(2) 4_445 4_444
O3 O3 O2 161.9(4) 5 4_444
O2 O3 O2 69.0(3) 5_455 4_444
Ga3 O3 O2 108.1(3) 4_446 4_444
O3 O3 O2 110.6(4) 5_554 4_444
Ga2 O3 O2 85.1(2) 2_565 4_444
Ga1 O3 O2 83.1(3) 1_554 4_444
Nb O3 O2 83.1(3) 1_554 4_444
La O3 O2 102.9(3) 2 4_444
O2 O3 O2 32.5(2) 3_454 4_444
Ga3 O3 O2 140.4(3) 2_565 4_444
La O3 O2 52.5(2) 1_554 4_444
O1 O3 O2 104.8(2) . 4_444
O2 O3 O2 114.1(4) 4_554 4_444
O2 O3 O2 72.53(13) 3_455 4_444
Ga2 O3 O2 60.02(17) 2 4_444
O2 O3 O2 150.8(3) 4 4_444
La O3 O2 127.0(2) 2_565 4_444
O2 O3 O2 140.2(3) 5 4_444
Ga2 O3 O2 75.4(2) . 4_444
La O3 O2 167.8(4) 4 4_444
O1 O3 O2 76.4(2) 1_554 4_444
O1 O3 O2 80.5(3) 1_545 4_444
Ga3 O3 O2 49.02(15) . 4_444
O3 O3 O2 116.5(2) 1_556 4_444
O3 O3 O2 63.5(2) 1_554 4_444
Ga3 O3 O2 144.1(3) 1_656 4_444
O2 O3 O2 106.6(4) 3_554 4_444
Ga3 O3 La 24.8(2) 4_445 4_444
Nb O3 La 138.4(4) . 4_444
Ga1 O3 La 138.4(4) . 4_444
La O3 La 111.4(3) . 4_444
Ga3 O3 La 102.8(4) 2_564 4_444
O3 O3 La 157.5(7) 6 4_444
O3 O3 La 92.2(4) 3 4_444
O3 O3 La 127.91(17) 4 4_444
O3 O3 La 63.7(4) 6_554 4_444
O2 O3 La 48.1(4) 2 4_444
O2 O3 La 119.0(5) 6 4_444
O2 O3 La 11.8(2) 1_554 4_444
O3 O3 La 116.2(3) 2 4_444
O1 O3 La 63.1(4) 2_455 4_444
O3 O3 La 46.2(2) 2_554 4_444
O2 O3 La 102.1(3) . 4_444
Ga2 O3 La 39.01(13) 1_554 4_444
Ga3 O3 La 89.1(2) 1_655 4_444
La O3 La 64.97(16) 4_445 4_444
O3 O3 La 146.1(2) 5 4_444
O2 O3 La 93.0(3) 5_455 4_444
Ga3 O3 La 120.7(3) 4_446 4_444
O3 O3 La 83.2(3) 5_554 4_444
Ga2 O3 La 98.8(2) 2_565 4_444
Ga1 O3 La 57.59(15) 1_554 4_444
Nb O3 La 57.59(15) 1_554 4_444
La O3 La 86.65(19) 2 4_444
O2 O3 La 52.0(2) 3_454 4_444
Ga3 O3 La 167.1(3) 2_565 4_444
La O3 La 50.19(12) 1_554 4_444
O1 O3 La 132.9(3) . 4_444
O2 O3 La 101.8(3) 4_554 4_444
O2 O3 La 103.1(2) 3_455 4_444
Ga2 O3 La 42.14(10) 2 4_444
O2 O3 La 169.3(4) 4 4_444
La O3 La 141.9(3) 2_565 4_444
O2 O3 La 109.1(3) 5 4_444
Ga2 O3 La 101.24(19) . 4_444
La O3 La 140.3(3) 4 4_444
O1 O3 La 82.1(3) 1_554 4_444
O1 O3 La 78.3(3) 1_545 4_444
Ga3 O3 La 73.33(14) . 4_444
O3 O3 La 136.51(16) 1_556 4_444
O3 O3 La 43.49(16) 1_554 4_444
Ga3 O3 La 135.6(2) 1_656 4_444
O2 O3 La 75.5(2) 3_554 4_444
O2 O3 La 31.20(16) 4_444 4_444
Ga3 O3 O2 94.8(4) 4_445 3
Nb O3 O2 22.5(3) . 3
Ga1 O3 O2 22.5(3) . 3
La O3 O2 118.2(4) . 3
Ga3 O3 O2 100.9(3) 2_564 3
O3 O3 O2 64.1(3) 6 3
O3 O3 O2 31.2(2) 3 3
O3 O3 O2 61.2(3) 4 3
O3 O3 O2 121.1(2) 6_554 3
O2 O3 O2 73.8(4) 2 3
O2 O3 O2 116.6(4) 6 3
O2 O3 O2 128.4(3) 1_554 3
O3 O3 O2 26.2(3) 2 3
O1 O3 O2 126.0(5) 2_455 3
O3 O3 O2 86.2(4) 2_554 3
O2 O3 O2 77.7(4) . 3
Ga2 O3 O2 142.6(4) 1_554 3
Ga3 O3 O2 54.1(2) 1_655 3
La O3 O2 86.7(3) 4_445 3
O3 O3 O2 30.97(18) 5 3
O2 O3 O2 149.3(3) 5_455 3
Ga3 O3 O2 51.7(2) 4_446 3
O3 O3 O2 79.8(3) 5_554 3
Ga2 O3 O2 140.5(3) 2_565 3
Ga1 O3 O2 101.2(2) 1_554 3
Nb O3 O2 101.2(2) 1_554 3
La O3 O2 31.86(14) 2 3
O2 O3 O2 166.9(4) 3_454 3
Ga3 O3 O2 61.0(2) 2_565 3
La O3 O2 148.9(3) 1_554 3
O1 O3 O2 108.7(3) . 3
O2 O3 O2 101.69(17) 4_554 3
O2 O3 O2 110.4(4) 3_455 3
Ga2 O3 O2 76.7(2) 2 3
O2 O3 O2 68.6(2) 4 3
La O3 O2 97.1(2) 2_565 3
O2 O3 O2 42.2(3) 5 3
Ga2 O3 O2 92.3(3) . 3
La O3 O2 52.36(15) 4 3
O1 O3 O2 146.1(3) 1_554 3
O1 O3 O2 56.0(2) 1_545 3
Ga3 O3 O2 164.5(3) . 3
O3 O3 O2 59.1(2) 1_556 3
O3 O3 O2 120.9(2) 1_554 3
Ga3 O3 O2 20.46(17) 1_656 3
O2 O3 O2 57.93(13) 3_554 3
O2 O3 O2 134.4(3) 4_444 3
La O3 O2 116.7(2) 4_444 3
Ga3 O3 O1 12.9(4) 4_445 1_544
Nb O3 O1 110.2(4) . 1_544
Ga1 O3 O1 110.2(4) . 1_544
La O3 O1 132.1(3) . 1_544
Ga3 O3 O1 109.4(4) 2_564 1_544
O3 O3 O1 144.0(7) 6 1_544
O3 O3 O1 65.4(4) 3 1_544
O3 O3 O1 114.7(3) 4 1_544
O3 O3 O1 76.3(5) 6_554 1_544
O2 O3 O1 27.5(5) 2 1_544
O2 O3 O1 140.4(6) 6 1_544
O2 O3 O1 40.0(3) 1_554 1_544
O3 O3 O1 91.6(4) 2 1_544
O1 O3 O1 79.6(4) 2_455 1_544
O3 O3 O1 34.93(19) 2_554 1_544
O2 O3 O1 98.0(4) . 1_544
Ga2 O3 O1 63.79(18) 1_554 1_544
Ga3 O3 O1 70.03(17) 1_655 1_544
La O3 O1 60.8(3) 4_445 1_544
O3 O3 O1 118.18(19) 5 1_544
O2 O3 O1 121.1(3) 5_455 1_544
Ga3 O3 O1 104.9(4) 4_446 1_544
O3 O3 O1 75.8(3) 5_554 1_544
Ga2 O3 O1 124.9(3) 2_565 1_544
Ga1 O3 O1 59.2(2) 1_554 1_544
Nb O3 O1 59.2(2) 1_554 1_544
La O3 O1 59.3(2) 2 1_544
O2 O3 O1 80.1(3) 3_454 1_544
Ga3 O3 O1 146.9(4) 2_565 1_544
La O3 O1 74.3(2) 1_554 1_544
O1 O3 O1 159.3(2) . 1_544
O2 O3 O1 108.6(4) 4_554 1_544
O2 O3 O1 117.0(3) 3_455 1_544
Ga2 O3 O1 18.8(2) 2 1_544
O2 O3 O1 154.5(2) 4 1_544
La O3 O1 160.0(4) 2_565 1_544
O2 O3 O1 87.8(2) 5 1_544
Ga2 O3 O1 104.9(3) . 1_544
La O3 O1 121.81(18) 4 1_544
O1 O3 O1 106.0(5) 1_554 1_544
O1 O3 O1 59.27(13) 1_545 1_544
Ga3 O3 O1 101.1(2) . 1_544
O3 O3 O1 123.5(3) 1_556 1_544
O3 O3 O1 56.5(3) 1_554 1_544
Ga3 O3 O1 107.8(3) 1_656 1_544
O2 O3 O1 55.03(17) 3_554 1_544
O2 O3 O1 54.57(16) 4_444 1_544
La O3 O1 28.23(13) 4_444 1_544
O2 O3 O1 88.4(3) 3 1_544
Ga3 O3 O2 44.3(4) 4_445 6_545
Nb O3 O2 79.7(4) . 6_545
Ga1 O3 O2 79.7(4) . 6_545
La O3 O2 132.6(5) . 6_545
Ga3 O3 O2 123.6(4) 2_564 6_545
O3 O3 O2 111.2(6) 6 6_545
O3 O3 O2 44.2(4) 3 6_545
O3 O3 O2 104.1(4) 4 6_545
O3 O3 O2 103.7(5) 6_554 6_545
O2 O3 O2 18.9(3) 2 6_545
O2 O3 O2 163.0(6) 6 6_545
O2 O3 O2 72.4(3) 1_554 6_545
O3 O3 O2 58.0(3) 2 6_545
O1 O3 O2 90.1(3) 2_455 6_545
O3 O3 O2 53.7(3) 2_554 6_545
O2 O3 O2 79.1(3) . 6_545
Ga2 O3 O2 88.5(3) 1_554 6_545
Ga3 O3 O2 64.1(2) 1_655 6_545
La O3 O2 52.97(19) 4_445 6_545
O3 O3 O2 88.21(18) 5 6_545
O2 O3 O2 147.3(3) 5_455 6_545
Ga3 O3 O2 75.1(3) 4_446 6_545
O3 O3 O2 84.1(2) 5_554 6_545
Ga2 O3 O2 158.6(4) 2_565 6_545
Ga1 O3 O2 81.2(3) 1_554 6_545
Nb O3 O2 81.2(3) 1_554 6_545
La O3 O2 26.07(17) 2 6_545
O2 O3 O2 110.0(3) 3_454 6_545
Ga3 O3 O2 113.1(3) 2_565 6_545
La O3 O2 107.9(3) 1_554 6_545
O1 O3 O2 153.2(5) . 6_545
O2 O3 O2 123.4(3) 4_554 6_545
O2 O3 O2 112.8(4) 3_455 6_545
Ga2 O3 O2 19.47(15) 2 6_545
O2 O3 O2 125.8(3) 4 6_545
La O3 O2 153.8(2) 2_565 6_545
O2 O3 O2 73.6(3) 5 6_545
Ga2 O3 O2 92.3(3) . 6_545
La O3 O2 103.2(2) 4 6_545
O1 O3 O2 139.0(4) 1_554 6_545
O1 O3 O2 32.9(3) 1_545 6_545
Ga3 O3 O2 128.0(3) . 6_545
O3 O3 O2 93.2(3) 1_556 6_545
O3 O3 O2 86.8(3) 1_554 6_545
Ga3 O3 O2 75.1(2) 1_656 6_545
O2 O3 O2 51.86(19) 3_554 6_545
O2 O3 O2 79.1(3) 4_444 6_545
La O3 O2 60.6(2) 4_444 6_545
O2 O3 O2 57.3(2) 3 6_545
O1 O3 O2 33.7(3) 1_544 6_545
Ga3 O3 O1 126.0(5) 4_445 2_565
Nb O3 O1 61.5(4) . 2_565
Ga1 O3 O1 61.5(4) . 2_565
La O3 O1 89.8(4) . 2_565
Ga3 O3 O1 34.0(3) 2_564 2_565
O3 O3 O1 65.5(6) 6 2_565
O3 O3 O1 85.4(4) 3 2_565
O3 O3 O1 25.6(4) 4 2_565
O3 O3 O1 73.2(5) 6_554 2_565
O2 O3 O1 148.2(3) 2 2_565
O2 O3 O1 37.3(3) 6 2_565
O2 O3 O1 131.3(5) 1_554 2_565
O3 O3 O1 96.6(3) 2 2_565
O1 O3 O1 139.8(3) 2_455 2_565
O3 O3 O1 101.2(3) 2_554 2_565
O2 O3 O1 120.8(5) . 2_565
Ga2 O3 O1 136.5(3) 1_554 2_565
Ga3 O3 O1 69.03(19) 1_655 2_565
La O3 O1 158.3(4) 4_445 2_565
O3 O3 O1 54.0(2) 5 2_565
O2 O3 O1 82.6(3) 5_455 2_565
Ga3 O3 O1 101.5(4) 4_446 2_565
O3 O3 O1 60.1(2) 5_554 2_565
Ga2 O3 O1 60.78(17) 2_565 2_565
Ga1 O3 O1 81.0(3) 1_554 2_565
Nb O3 O1 81.0(3) 1_554 2_565
La O3 O1 110.6(2) 2 2_565
O2 O3 O1 111.9(3) 3_454 2_565
Ga3 O3 O1 56.3(3) 2_565 2_565
La O3 O1 93.6(3) 1_554 2_565
O1 O3 O1 60.8(3) . 2_565
O2 O3 O1 35.0(3) 4_554 2_565
O2 O3 O1 106.9(3) 3_455 2_565
Ga2 O3 O1 144.1(2) 2 2_565
O2 O3 O1 32.9(3) 4 2_565
La O3 O1 28.71(14) 2_565 2_565
O2 O3 O1 56.18(17) 5 2_565
Ga2 O3 O1 118.2(3) . 2_565
La O3 O1 28.68(13) 4 2_565
O1 O3 O1 67.3(3) 1_554 2_565
O1 O3 O1 135.8(2) 1_545 2_565
Ga3 O3 O1 100.0(2) . 2_565
O3 O3 O1 86.8(3) 1_556 2_565
O3 O3 O1 93.2(3) 1_554 2_565
Ga3 O3 O1 71.7(2) 1_656 2_565
O2 O3 O1 83.7(2) 3_554 2_565
O2 O3 O1 143.7(3) 4_444 2_565
La O3 O1 136.6(4) 4_444 2_565
O2 O3 O1 80.9(2) 3 2_565
O1 O3 O1 135.8(2) 1_544 2_565
O2 O3 O1 129.6(2) 6_545 2_565
Ga3 O3 O2 97.3(5) 4_445 4_445
Nb O3 O2 106.7(5) . 4_445
Ga1 O3 O2 106.7(5) . 4_445
La O3 O2 50.6(3) . 4_445
Ga3 O3 O2 152.4(3) 2_564 4_445
O3 O3 O2 76.3(5) 6 4_445
O3 O3 O2 118.5(5) 3 4_445
O3 O3 O2 149.4(2) 4 4_445
O3 O3 O2 133.7(3) 6_554 4_445
O2 O3 O2 68.6(4) 2 4_445
O2 O3 O2 114.4(4) 6 4_445
O2 O3 O2 81.4(3) 1_554 4_445
O3 O3 O2 75.2(3) 2 4_445
O1 O3 O2 26.9(4) 2_455 4_445
O3 O3 O2 122.27(19) 2_554 4_445
O2 O3 O2 26.0(2) . 4_445
Ga2 O3 O2 56.0(3) 1_554 4_445
Ga3 O3 O2 145.5(3) 1_655 4_445
La O3 O2 29.99(15) 4_445 4_445
O3 O3 O2 108.9(5) 5 4_445
O2 O3 O2 74.2(3) 5_455 4_445
Ga3 O3 O2 53.9(2) 4_446 4_445
O3 O3 O2 163.4(3) 5_554 4_445
Ga2 O3 O2 100.7(2) 2_565 4_445
Ga1 O3 O2 139.0(3) 1_554 4_445
Nb O3 O2 139.0(3) 1_554 4_445
La O3 O2 86.8(3) 2 4_445
O2 O3 O2 72.23(14) 3_454 4_445
Ga3 O3 O2 86.3(3) 2_565 4_445
La O3 O2 103.8(2) 1_554 4_445
O1 O3 O2 78.0(2) . 4_445
O2 O3 O2 152.2(3) 4_554 4_445
O2 O3 O2 31.22(19) 3_455 4_445
Ga2 O3 O2 75.9(2) 2 4_445
O2 O3 O2 107.0(4) 4 4_445
La O3 O2 110.0(2) 2_565 4_445
O2 O3 O2 143.1(3) 5 4_445
Ga2 O3 O2 19.57(17) . 4_445
La O3 O2 135.0(3) 4 4_445
O1 O3 O2 109.9(2) 1_554 4_445
O1 O3 O2 55.5(2) 1_545 4_445
Ga3 O3 O2 67.46(18) . 4_445
O3 O3 O2 59.6(2) 1_556 4_445
O3 O3 O2 120.4(2) 1_554 4_445
Ga3 O3 O2 95.0(3) 1_656 4_445
O2 O3 O2 134.4(3) 3_554 4_445
O2 O3 O2 56.95(15) 4_444 4_445
La O3 O2 81.7(2) 4_444 4_445
O2 O3 O2 101.1(4) 3 4_445
O1 O3 O2 87.6(3) 1_544 4_445
O2 O3 O2 82.6(3) 6_545 4_445
O1 O3 O2 136.5(3) 2_565 4_445
Ga3 O3 O2 128.9(6) 4_445 2_565
Nb O3 O2 106.0(4) . 2_565
Ga1 O3 O2 106.0(4) . 2_565
La O3 O2 50.1(3) . 2_565
Ga3 O3 O2 54.1(2) 2_564 2_565
O3 O3 O2 75.5(5) 6 2_565
O3 O3 O2 137.9(5) 3 2_565
O3 O3 O2 78.0(5) 4 2_565
O3 O3 O2 70.5(4) 6_554 2_565
O2 O3 O2 157.2(5) 2 2_565
O2 O3 O2 16.6(3) 6 2_565
O2 O3 O2 101.2(3) 1_554 2_565
O3 O3 O2 128.7(5) 2 2_565
O1 O3 O2 88.4(2) 2_455 2_565
O3 O3 O2 120.8(5) 2_554 2_565
O2 O3 O2 105.1(3) . 2_565
Ga2 O3 O2 86.9(2) 1_554 2_565
Ga3 O3 O2 115.3(3) 1_655 2_565
La O3 O2 127.6(2) 4_445 2_565
O3 O3 O2 97.51(19) 5 2_565
O2 O3 O2 29.6(2) 5_455 2_565
Ga3 O3 O2 111.1(3) 4_446 2_565
O3 O3 O2 93.2(2) 5_554 2_565
Ga2 O3 O2 14.59(19) 2_565 2_565
Ga1 O3 O2 93.6(3) 1_554 2_565
Nb O3 O2 93.6(3) 1_554 2_565
La O3 O2 160.1(3) 2 2_565
O2 O3 O2 64.5(3) 3_454 2_565
Ga3 O3 O2 73.6(2) 2_565 2_565
La O3 O2 65.4(2) 1_554 2_565
O1 O3 O2 32.6(3) . 2_565
O2 O3 O2 54.2(2) 4_554 2_565
O2 O3 O2 69.7(3) 3_455 2_565
Ga2 O3 O2 154.7(3) 2 2_565
O2 O3 O2 60.2(3) 4 2_565
La O3 O2 31.38(16) 2_565 2_565
O2 O3 O2 108.2(3) 5 2_565
Ga2 O3 O2 91.1(2) . 2_565
La O3 O2 80.5(2) 4 2_565
O1 O3 O2 34.4(3) 1_554 2_565
O1 O3 O2 151.5(4) 1_545 2_565
Ga3 O3 O2 47.75(15) . 2_565
O3 O3 O2 93.2(2) 1_556 2_565
O3 O3 O2 86.8(2) 1_554 2_565
Ga3 O3 O2 111.3(3) 1_656 2_565
O2 O3 O2 126.2(3) 3_554 2_565
O2 O3 O2 96.1(3) 4_444 2_565
La O3 O2 112.9(3) 4_444 2_565
O2 O3 O2 128.5(3) 3 2_565
O1 O3 O2 139.5(4) 1_544 2_565
O2 O3 O2 173.2(5) 6_545 2_565
O1 O3 O2 52.99(16) 2_565 2_565
O2 O3 O2 98.8(3) 4_445 2_565
Ga3 O3 Ga2 165.7(4) 4_445 2_566
Nb O3 Ga2 77.0(3) . 2_566
Ga1 O3 Ga2 77.0(3) . 2_566
La O3 Ga2 29.98(18) . 2_566
Ga3 O3 Ga2 90.9(3) 2_564 2_566
O3 O3 Ga2 31.4(2) 6 2_566
O3 O3 Ga2 124.4(2) 3 2_566
O3 O3 Ga2 85.5(4) 4 2_566
O3 O3 Ga2 118.8(5) 6_554 2_566
O2 O3 Ga2 134.5(5) 2 2_566
O2 O3 Ga2 55.0(4) 6 2_566
O2 O3 Ga2 132.2(3) 1_554 2_566
O3 O3 Ga2 82.8(4) 2 2_566
O1 O3 Ga2 81.0(4) 2_455 2_566
O3 O3 Ga2 166.5(3) 2_554 2_566
O2 O3 Ga2 62.2(3) . 2_566
Ga2 O3 Ga2 102.3(2) 1_554 2_566
Ga3 O3 Ga2 128.7(2) 1_655 2_566
La O3 Ga2 98.0(3) 4_445 2_566
O3 O3 Ga2 70.7(3) 5 2_566
O2 O3 Ga2 54.2(3) 5_455 2_566
Ga3 O3 Ga2 62.36(17) 4_446 2_566
O3 O3 Ga2 125.8(2) 5_554 2_566
Ga2 O3 Ga2 62.05(14) 2_565 2_566
Ga1 O3 Ga2 139.9(3) 1_554 2_566
Nb O3 Ga2 139.9(3) 1_554 2_566
La O3 Ga2 117.3(3) 2 2_566
O2 O3 Ga2 93.1(2) 3_454 2_566
Ga3 O3 Ga2 35.19(9) 2_565 2_566
La O3 Ga2 110.4(2) 1_554 2_566
O1 O3 Ga2 16.4(3) . 2_566
O2 O3 Ga2 91.5(3) 4_554 2_566
O2 O3 Ga2 41.96(17) 3_455 2_566
Ga2 O3 Ga2 143.4(3) 2 2_566
O2 O3 Ga2 41.73(17) 4 2_566
La O3 Ga2 40.48(9) 2_565 2_566
O2 O3 Ga2 109.3(3) 5 2_566
Ga2 O3 Ga2 53.69(12) . 2_566
La O3 Ga2 76.19(16) 4 2_566
O1 O3 Ga2 82.5(3) 1_554 2_566
O1 O3 Ga2 105.7(3) 1_545 2_566
Ga3 O3 Ga2 71.35(13) . 2_566
O3 O3 Ga2 44.66(14) 1_556 2_566
O3 O3 Ga2 135.34(14) 1_554 2_566
Ga3 O3 Ga2 74.87(17) 1_656 2_566
O2 O3 Ga2 143.0(2) 3_554 2_566
O2 O3 Ga2 110.4(2) 4_444 2_566
La O3 Ga2 141.34(17) 4_444 2_566
O2 O3 Ga2 95.3(3) 3 2_566
O1 O3 Ga2 158.3(3) 1_544 2_566
O2 O3 Ga2 137.4(4) 6_545 2_566
O1 O3 Ga2 65.8(3) 2_565 2_566
O2 O3 Ga2 70.72(19) 4_445 2_566
O2 O3 Ga2 48.8(2) 2_565 2_566
Ga3 O3 O2 45.5(4) 4_445 5_445
Nb O3 O2 102.9(4) . 5_445
Ga1 O3 O2 102.9(4) . 5_445
La O3 O2 107.9(4) . 5_445
Ga3 O3 O2 142.4(4) 2_564 5_445
O3 O3 O2 115.3(7) 6 5_445
O3 O3 O2 74.1(5) 3 5_445
O3 O3 O2 134.0(5) 4 5_445
O3 O3 O2 107.5(6) 6_554 5_445
O2 O3 O2 11.6(3) 2 5_445
O2 O3 O2 161.8(4) 6 5_445
O2 O3 O2 56.0(4) 1_554 5_445
O3 O3 O2 71.3(2) 2 5_445
O1 O3 O2 60.4(2) 2_455 5_445
O3 O3 O2 67.1(2) 2_554 5_445
O2 O3 O2 65.0(4) . 5_445
Ga2 O3 O2 61.4(2) 1_554 5_445
Ga3 O3 O2 92.0(2) 1_655 5_445
La O3 O2 28.66(17) 4_445 5_445
O3 O3 O2 111.2(2) 5 5_445
O2 O3 O2 117.8(3) 5_455 5_445
Ga3 O3 O2 75.3(3) 4_446 5_445
O3 O3 O2 106.3(3) 5_554 5_445
Ga2 O3 O2 137.9(2) 2_565 5_445
Ga1 O3 O2 92.2(3) 1_554 5_445
Nb O3 O2 92.2(3) 1_554 5_445
La O3 O2 50.31(18) 2 5_445
O2 O3 O2 85.3(2) 3_454 5_445
Ga3 O3 O2 122.1(4) 2_565 5_445
La O3 O2 96.1(3) 1_554 5_445
O1 O3 O2 135.9(3) . 5_445
O2 O3 O2 141.7(3) 4_554 5_445
O2 O3 O2 89.1(3) 3_455 5_445
Ga2 O3 O2 17.97(15) 2 5_445
O2 O3 O2 143.6(3) 4 5_445
La O3 O2 166.9(4) 2_565 5_445
O2 O3 O2 103.4(3) 5 5_445
Ga2 O3 O2 73.0(2) . 5_445
La O3 O2 132.1(2) 4 5_445
O1 O3 O2 126.7(3) 1_554 5_445
O1 O3 O2 31.9(3) 1_545 5_445
Ga3 O3 O2 99.74(19) . 5_445
O3 O3 O2 93.1(2) 1_556 5_445
O3 O3 O2 86.9(2) 1_554 5_445
Ga3 O3 O2 94.6(3) 1_656 5_445
O2 O3 O2 78.1(2) 3_554 5_445
O2 O3 O2 52.8(3) 4_444 5_445
La O3 O2 46.5(2) 4_444 5_445
O2 O3 O2 81.6(2) 3 5_445
O1 O3 O2 33.0(3) 1_544 5_445
O2 O3 O2 29.89(16) 6_545 5_445
O1 O3 O2 159.49(19) 2_565 5_445
O2 O3 O2 57.9(3) 4_445 5_445
O2 O3 O2 147.31(19) 2_565 5_445
Ga2 O3 O2 126.5(3) 2_566 5_445
Ga3 O3 O3 61.7(5) 4_445 4_445
Nb O3 O3 122.8(5) . 4_445
Ga1 O3 O3 122.8(5) . 4_445
La O3 O3 80.60(17) . 4_445
Ga3 O3 O3 147.1(3) 2_564 4_445
O3 O3 O3 110.1(5) 6 4_445
O3 O3 O3 103.9(7) 3 4_445
O3 O3 O3 163.9(7) 4 4_445
O3 O3 O3 108.7(4) 6_554 4_445
O2 O3 O3 41.4(3) 2 4_445
O2 O3 O3 134.1(3) 6 4_445
O2 O3 O3 50.4(4) 1_554 4_445
O3 O3 O3 86.73(15) 2 4_445
O1 O3 O3 30.43(8) 2_455 4_445
O3 O3 O3 86.88(15) 2_554 4_445
O2 O3 O3 54.8(3) . 4_445
Ga2 O3 O3 38.10(15) 1_554 4_445
Ga3 O3 O3 120.7(4) 1_655 4_445
La O3 O3 21.23(18) 4_445 4_445
O3 O3 O3 129.3(3) 5 4_445
O2 O3 O3 88.40(19) 5_455 4_445
Ga3 O3 O3 77.4(2) 4_446 4_445
O3 O3 O3 127.9(2) 5_554 4_445
Ga2 O3 O3 111.51(18) 2_565 4_445
Ga1 O3 O3 104.8(2) 1_554 4_445
Nb O3 O3 104.8(2) 1_554 4_445
La O3 O3 77.2(3) 2 4_445
O2 O3 O3 62.45(17) 3_454 4_445
Ga3 O3 O3 119.80(16) 2_565 4_445
La O3 O3 84.85(10) 1_554 4_445
O1 O3 O3 109.57(16) . 4_445
O2 O3 O3 146.1(2) 4_554 4_445
O2 O3 O3 63.98(17) 3_455 4_445
Ga2 O3 O3 45.7(2) 2 4_445
O2 O3 O3 142.2(2) 4 4_445
La O3 O3 141.5(2) 2_565 4_445
O2 O3 O3 133.4(4) 5 4_445
Ga2 O3 O3 54.84(10) . 4_445
La O3 O3 157.5(3) 4 4_445
O1 O3 O3 107.76(15) 1_554 4_445
O1 O3 O3 49.5(2) 1_545 4_445
Ga3 O3 O3 71.86(10) . 4_445
O3 O3 O3 90.001(1) 1_556 4_445
O3 O3 O3 90.000(1) 1_554 4_445
Ga3 O3 O3 111.6(3) 1_656 4_445
O2 O3 O3 106.0(3) 3_554 4_445
O2 O3 O3 32.61(19) 4_444 4_445
La O3 O3 47.45(17) 4_444 4_445
O2 O3 O3 105.4(3) 3 4_445
O1 O3 O3 53.0(3) 1_544 4_445
O2 O3 O3 59.8(3) 6_545 4_445
O1 O3 O3 170.2(3) 2_565 4_445
O2 O3 O3 35.71(17) 4_445 4_445
O2 O3 O3 118.0(2) 2_565 4_445
Ga2 O3 O3 105.61(11) 2_566 4_445
O2 O3 O3 30.0(2) 5_445 4_445
Ga3 O3 O3 101.6(3) 4_445 3_455
Nb O3 O3 139.3(4) . 3_455
Ga1 O3 O3 139.3(4) . 3_455
La O3 O3 35.5(3) . 3_455
Ga3 O3 O3 105.0(3) 2_564 3_455
O3 O3 O3 91.95(5) 6 3_455
O3 O3 O3 163.9(7) 3 3_455
O3 O3 O3 136.1(7) 4 3_455
O3 O3 O3 91.83(5) 6_554 3_455
O2 O3 O3 101.0(3) 2 3_455
O2 O3 O3 74.5(3) 6 3_455
O2 O3 O3 67.7(3) 1_554 3_455
O3 O3 O3 121.2(3) 2 3_455
O1 O3 O3 30.43(8) 2_455 3_455
O3 O3 O3 119.6(3) 2_554 3_455
O2 O3 O3 69.9(2) . 3_455
Ga2 O3 O3 38.10(15) 1_554 3_455
Ga3 O3 O3 158.6(2) 1_655 3_455
La O3 O3 71.72(13) 4_445 3_455
O3 O3 O3 134.7(3) 5 3_455
O2 O3 O3 28.7(2) 5_455 3_455
Ga3 O3 O3 95.33(12) 4_446 3_455
O3 O3 O3 133.0(3) 5_554 3_455
Ga2 O3 O3 54.34(19) 2_565 3_455
Ga1 O3 O3 110.93(13) 1_554 3_455
Nb O3 O3 110.93(13) 1_554 3_455
La O3 O3 134.1(3) 2 3_455
O2 O3 O3 33.0(3) 3_454 3_455
Ga3 O3 O3 98.83(18) 2_565 3_455
La O3 O3 63.39(14) 1_554 3_455
O1 O3 O3 57.8(2) . 3_455
O2 O3 O3 104.6(3) 4_554 3_455
O2 O3 O3 37.3(2) 3_455 3_455
Ga2 O3 O3 103.3(2) 2 3_455
O2 O3 O3 103.8(3) 4 3_455
La O3 O3 84.2(2) 2_565 3_455
O2 O3 O3 166.0(4) 5 3_455
Ga2 O3 O3 54.84(10) . 3_455
La O3 O3 135.5(3) 4 3_455
O1 O3 O3 60.99(18) 1_554 3_455
O1 O3 O3 102.4(2) 1_545 3_455
Ga3 O3 O3 18.95(15) . 3_455
O3 O3 O3 90.000(1) 1_556 3_455
O3 O3 O3 90.000(1) 1_554 3_455
Ga3 O3 O3 132.13(13) 1_656 3_455
O2 O3 O3 150.7(2) 3_554 3_455
O2 O3 O3 46.99(17) 4_444 3_455
La O3 O3 76.84(12) 4_444 3_455
O2 O3 O3 147.1(2) 3 3_455
O1 O3 O3 101.48(18) 1_544 3_455
O2 O3 O3 119.7(3) 6_545 3_455
O1 O3 O3 110.7(3) 2_565 3_455
O2 O3 O3 48.89(16) 4_445 3_455
O2 O3 O3 58.1(2) 2_565 3_455
Ga2 O3 O3 64.67(16) 2_566 3_455
O2 O3 O3 89.8(2) 5_445 3_455
O3 O3 O3 60.0 4_445 3_455
Ga3 O3 O2 105.7(5) 4_445 2_556
Nb O3 O2 58.8(4) . 2_556
Ga1 O3 O2 58.8(4) . 2_556
La O3 O2 77.5(4) . 2_556
Ga3 O3 O2 145.4(4) 2_564 2_556
O3 O3 O2 52.2(6) 6 2_556
O3 O3 O2 76.6(3) 3 2_556
O3 O3 O2 106.0(2) 4 2_556
O3 O3 O2 168.0(5) 6_554 2_556
O2 O3 O2 65.5(4) 2 2_556
O2 O3 O2 126.5(6) 6 2_556
O2 O3 O2 116.1(5) 1_554 2_556
O3 O3 O2 26.0(2) 2 2_556
O1 O3 O2 75.9(4) 2_455 2_556
O3 O3 O2 117.6(4) 2_554 2_556
O2 O3 O2 25.7(3) . 2_556
Ga2 O3 O2 102.1(3) 1_554 2_556
Ga3 O3 O2 104.2(3) 1_655 2_556
La O3 O2 46.46(19) 4_445 2_556
O3 O3 O2 63.3(3) 5 2_556
O2 O3 O2 112.9(4) 5_455 2_556
Ga3 O3 O2 12.19(15) 4_446 2_556
O3 O3 O2 131.3(3) 5_554 2_556
Ga2 O3 O2 133.1(3) 2_565 2_556
Ga1 O3 O2 144.1(3) 1_554 2_556
Nb O3 O2 144.1(3) 1_554 2_556
La O3 O2 49.81(19) 2 2_556
O2 O3 O2 121.6(3) 3_454 2_556
Ga3 O3 O2 59.1(2) 2_565 2_556
La O3 O2 151.5(3) 1_554 2_556
O1 O3 O2 88.9(4) . 2_556
O2 O3 O2 146.4(3) 4_554 2_556
O2 O3 O2 62.2(2) 3_455 2_556
Ga2 O3 O2 74.1(2) 2 2_556
O2 O3 O2 81.8(3) 4 2_556
La O3 O2 105.7(3) 2_565 2_556
O2 O3 O2 94.3(3) 5 2_556
Ga2 O3 O2 41.16(16) . 2_556
La O3 O2 92.4(2) 4 2_556
O1 O3 O2 152.0(3) 1_554 2_556
O1 O3 O2 33.7(3) 1_545 2_556
Ga3 O3 O2 114.5(2) . 2_556
O3 O3 O2 30.58(18) 1_556 2_556
O3 O3 O2 149.42(18) 1_554 2_556
Ga3 O3 O2 46.83(17) 1_656 2_556
O2 O3 O2 102.4(3) 3_554 2_556
O2 O3 O2 99.3(3) 4_444 2_556
La O3 O2 108.8(3) 4_444 2_556
O2 O3 O2 52.2(3) 3 2_556
O1 O3 O2 92.9(3) 1_544 2_556
O2 O3 O2 64.4(2) 6_545 2_556
O1 O3 O2 112.6(4) 2_565 2_556
O2 O3 O2 49.43(19) 4_445 2_556
O2 O3 O2 121.5(4) 2_565 2_556
Ga2 O3 O2 73.0(2) 2_566 2_556
O2 O3 O2 63.2(2) 5_445 2_556
O3 O3 O2 67.4(2) 4_445 2_556
O3 O3 O2 95.60(16) 3_455 2_556
Ga3 O3 O2 167.0(6) 4_445 6_556
Nb O3 O2 58.3(3) . 6_556
Ga1 O3 O2 58.3(3) . 6_556
La O3 O2 46.7(2) . 6_556
Ga3 O3 O2 93.9(3) 2_564 6_556
O3 O3 O2 12.5(3) 6 6_556
O3 O3 O2 105.6(2) 3 6_556
O3 O3 O2 75.9(3) 4 6_556
O3 O3 O2 129.3(6) 6_554 6_556
O2 O3 O2 126.8(6) 2 6_556
O2 O3 O2 65.2(4) 6 6_556
O2 O3 O2 149.5(4) 1_554 6_556
O3 O3 O2 65.6(4) 2 6_556
O1 O3 O2 92.7(5) 2_455 6_556
O3 O3 O2 157.5(3) 2_554 6_556
O2 O3 O2 59.0(3) . 6_556
Ga2 O3 O2 118.3(3) 1_554 6_556
Ga3 O3 O2 114.3(3) 1_655 6_556
La O3 O2 97.3(3) 4_445 6_556
O3 O3 O2 52.7(3) 5 6_556
O2 O3 O2 73.2(3) 5_455 6_556
Ga3 O3 O2 49.5(2) 4_446 6_556
O3 O3 O2 120.3(3) 5_554 6_556
Ga2 O3 O2 78.0(2) 2_565 6_556
Ga1 O3 O2 143.5(3) 1_554 6_556
Nb O3 O2 143.5(3) 1_554 6_556
La O3 O2 99.9(3) 2 6_556
O2 O3 O2 112.0(3) 3_454 6_556
Ga3 O3 O2 16.73(12) 2_565 6_556
La O3 O2 128.2(3) 1_554 6_556
O1 O3 O2 33.7(3) . 6_556
O2 O3 O2 94.7(4) 4_554 6_556
O2 O3 O2 52.81(17) 3_455 6_556
Ga2 O3 O2 135.5(3) 2 6_556
O2 O3 O2 31.5(3) 4 6_556
La O3 O2 44.94(16) 2_565 6_556
O2 O3 O2 94.1(3) 5 6_556
Ga2 O3 O2 56.22(19) . 6_556
La O3 O2 63.84(17) 4 6_556
O1 O3 O2 98.0(3) 1_554 6_556
O1 O3 O2 95.1(4) 1_545 6_556
Ga3 O3 O2 90.34(19) . 6_556
O3 O3 O2 30.9(2) 1_556 6_556
O3 O3 O2 149.1(2) 1_554 6_556
Ga3 O3 O2 55.78(18) 1_656 6_556
O2 O3 O2 126.9(3) 3_554 6_556
O2 O3 O2 125.2(2) 4_444 6_556
La O3 O2 155.8(2) 4_444 6_556
O2 O3 O2 76.2(3) 3 6_556
O1 O3 O2 154.3(4) 1_544 6_556
O2 O3 O2 123.0(4) 6_545 6_556
O1 O3 O2 62.6(3) 2_565 6_556
O2 O3 O2 75.6(2) 4_445 6_556
O2 O3 O2 63.66(18) 2_565 6_556
Ga2 O3 O2 19.09(12) 2_566 6_556
O2 O3 O2 122.7(4) 5_445 6_556
O3 O3 O2 111.05(16) 4_445 6_556
O3 O3 O2 82.10(19) 3_455 6_556
O2 O3 O2 61.4(3) 2_556 6_556
Ga3 O3 Ga2 109.8(5) 4_445 1_664
Nb O3 Ga2 74.8(4) . 1_664
Ga1 O3 Ga2 74.8(4) . 1_664
La O3 Ga2 99.0(3) . 1_664
Ga3 O3 Ga2 15.63(14) 2_564 1_664
O3 O3 Ga2 83.8(6) 6 1_664
O3 O3 Ga2 85.6(4) 3 1_664
O3 O3 Ga2 29.4(4) 4 1_664
O3 O3 Ga2 54.9(4) 6_554 1_664
O2 O3 Ga2 142.0(4) 2 1_664
O2 O3 Ga2 36.7(3) 6 1_664
O2 O3 Ga2 113.2(4) 1_554 1_664
O3 O3 Ga2 110.91(13) 2 1_664
O1 O3 Ga2 140.1(3) 2_455 1_664
O3 O3 Ga2 86.3(2) 2_554 1_664
O2 O3 Ga2 138.9(4) . 1_664
Ga2 O3 Ga2 124.6(3) 1_554 1_664
Ga3 O3 Ga2 62.61(19) 1_655 1_664
La O3 Ga2 176.6(3) 4_445 1_664
O3 O3 Ga2 68.5(2) 5 1_664
O2 O3 Ga2 81.4(3) 5_455 1_664
Ga3 O3 Ga2 119.6(2) 4_446 1_664
O3 O3 Ga2 46.29(11) 5_554 1_664
Ga2 O3 Ga2 55.75(16) 2_565 1_664
Ga1 O3 Ga2 63.46(19) 1_554 1_664
Nb O3 Ga2 63.46(19) 1_554 1_664
La O3 Ga2 115.62(18) 2 1_664
O2 O3 Ga2 100.8(3) 3_454 1_664
Ga3 O3 Ga2 74.74(17) 2_565 1_664
La O3 Ga2 77.3(2) 1_554 1_664
O1 O3 Ga2 71.5(2) . 1_664
O2 O3 Ga2 16.6(2) 4_554 1_664
O2 O3 Ga2 118.2(3) 3_455 1_664
Ga2 O3 Ga2 134.6(2) 2 1_664
O2 O3 Ga2 51.3(2) 4 1_664
La O3 Ga2 39.97(10) 2_565 1_664
O2 O3 Ga2 56.11(18) 5 1_664
Ga2 O3 Ga2 133.9(2) . 1_664
La O3 Ga2 39.82(10) 4 1_664
O1 O3 Ga2 55.63(15) 1_554 1_664
O1 O3 Ga2 146.15(19) 1_545 1_664
Ga3 O3 Ga2 94.8(2) . 1_664
O3 O3 Ga2 105.29(15) 1_556 1_664
O3 O3 Ga2 74.70(15) 1_554 1_664
Ga3 O3 Ga2 86.13(15) 1_656 1_664
O2 O3 Ga2 75.5(2) 3_554 1_664
O2 O3 Ga2 129.6(3) 4_444 1_664
La O3 Ga2 118.2(3) 4_444 1_664
O2 O3 Ga2 90.55(18) 3 1_664
O1 O3 Ga2 121.2(3) 1_544 1_664
O2 O3 Ga2 126.7(2) 6_545 1_664
O1 O3 Ga2 18.5(3) 2_565 1_664
O2 O3 Ga2 149.5(2) 4_445 1_664
O2 O3 Ga2 53.19(17) 2_565 1_664
Ga2 O3 Ga2 80.22(16) 2_566 1_664
O2 O3 Ga2 152.6(3) 5_445 1_664
O3 O3 Ga2 162.16(19) 4_445 1_664
O3 O3 Ga2 109.9(3) 3_455 1_664
O2 O3 Ga2 130.1(3) 2_556 1_664
O2 O3 Ga2 80.1(2) 6_556 1_664
Ga3 O3 La 21.1(2) 4_445 2_554
Nb O3 La 97.3(3) . 2_554
Ga1 O3 La 97.3(3) . 2_554
La O3 La 156.7(3) . 2_554
Ga3 O3 La 85.3(3) 2_564 2_554
O3 O3 La 144.0(2) 6 2_554
O3 O3 La 50.0(2) 3 2_554
O3 O3 La 88.0(3) 4 2_554
O3 O3 La 60.8(3) 6_554 2_554
O2 O3 La 48.8(4) 2 2_554
O2 O3 La 122.9(5) 6 2_554
O2 O3 La 54.0(3) 1_554 2_554
O3 O3 La 94.7(4) 2 2_554
O1 O3 La 105.7(4) 2_455 2_554
O3 O3 La 10.6(2) 2_554 2_554
O2 O3 La 120.8(4) . 2_554
Ga2 O3 La 84.2(2) 1_554 2_554
Ga3 O3 La 44.58(13) 1_655 2_554
La O3 La 86.5(2) 4_445 2_554
O3 O3 La 103.2(3) 5 2_554
O2 O3 La 130.0(4) 5_455 2_554
Ga3 O3 La 117.0(2) 4_446 2_554
O3 O3 La 48.9(2) 5_554 2_554
Ga2 O3 La 119.0(3) 2_565 2_554
Ga1 O3 La 38.16(10) 1_554 2_554
Nb O3 La 38.16(10) 1_554 2_554
La O3 La 60.54(13) 2 2_554
O2 O3 La 92.4(3) 3_454 2_554
Ga3 O3 La 139.03(19) 2_565 2_554
La O3 La 72.77(19) 1_554 2_554
O1 O3 La 163.6(4) . 2_554
O2 O3 La 84.8(3) 4_554 2_554
O2 O3 La 144.3(3) 3_455 2_554
Ga2 O3 La 40.29(9) 2 2_554
O2 O3 La 131.6(2) 4 2_554
La O3 La 134.9(3) 2_565 2_554
O2 O3 La 64.0(2) 5 2_554
Ga2 O3 La 130.8(3) . 2_554
La O3 La 97.12(16) 4 2_554
O1 O3 La 98.7(3) 1_554 2_554
O1 O3 La 75.7(2) 1_545 2_554
Ga3 O3 La 114.0(2) . 2_554
O3 O3 La 133.71(14) 1_556 2_554
O3 O3 La 46.29(14) 1_554 2_554
Ga3 O3 La 100.26(15) 1_656 2_554
O2 O3 La 30.31(16) 3_554 2_554
O2 O3 La 76.2(2) 4_444 2_554
La O3 La 45.24(10) 4_444 2_554
O2 O3 La 80.0(2) 3 2_554
O1 O3 La 27.39(12) 1_544 2_554
O2 O3 La 43.1(2) 6_545 2_554
O1 O3 La 108.5(3) 2_565 2_554
O2 O3 La 114.7(2) 4_445 2_554
O2 O3 La 131.3(3) 2_565 2_554
Ga2 O3 La 173.29(19) 2_566 2_554
O2 O3 La 57.9(2) 5_445 2_554
O3 O3 La 80.4(2) 4_445 2_554
O3 O3 La 121.70(15) 3_455 2_554
O2 O3 La 107.2(2) 2_556 2_554
O2 O3 La 155.6(2) 6_556 2_554
Ga2 O3 La 95.0(2) 1_664 2_554
Ga3 O3 La 95.8(3) 4_445 2_455
Nb O3 La 128.4(5) . 2_455
Ga1 O3 La 128.4(5) . 2_455
La O3 La 41.59(18) . 2_455
Ga3 O3 La 129.7(3) 2_564 2_455
O3 O3 La 88.1(3) 6 2_455
O3 O3 La 140.7(6) 3 2_455
O3 O3 La 154.6(5) 4 2_455
O3 O3 La 110.9(2) 6_554 2_455
O2 O3 La 81.1(3) 2 2_455
O2 O3 La 97.1(3) 6 2_455
O2 O3 La 68.5(3) 1_554 2_455
O3 O3 La 100.0(3) 2 2_455
O1 O3 La 10.9(3) 2_455 2_455
O3 O3 La 119.7(2) 2_554 2_455
O2 O3 La 49.1(2) . 2_455
Ga2 O3 La 37.99(14) 1_554 2_455
Ga3 O3 La 160.4(3) 1_655 2_455
La O3 La 47.62(11) 4_445 2_455
O3 O3 La 128.3(5) 5 2_455
O2 O3 La 52.40(19) 5_455 2_455
Ga3 O3 La 76.8(2) 4_446 2_455
O3 O3 La 150.9(4) 5_554 2_455
Ga2 O3 La 78.74(13) 2_565 2_455
Ga1 O3 La 123.8(2) 1_554 2_455
Nb O3 La 123.8(2) 1_554 2_455
La O3 La 109.5(3) 2 2_455
O2 O3 La 48.4(2) 3_454 2_455
Ga3 O3 La 97.4(2) 2_565 2_455
La O3 La 80.67(13) 1_554 2_455
O1 O3 La 70.19(13) . 2_455
O2 O3 La 129.3(3) 4_554 2_455
O2 O3 La 29.60(19) 3_455 2_455
Ga2 O3 La 85.83(18) 2 2_455
O2 O3 La 111.6(3) 4 2_455
La O3 La 101.48(17) 2_565 2_455
O2 O3 La 168.1(4) 5 2_455
Ga2 O3 La 36.60(7) . 2_455
La O3 La 146.0(3) 4 2_455
O1 O3 La 85.18(15) 1_554 2_455
O1 O3 La 77.77(19) 1_545 2_455
Ga3 O3 La 42.67(7) . 2_455
O3 O3 La 77.60(14) 1_556 2_455
O3 O3 La 102.41(14) 1_554 2_455
Ga3 O3 La 117.6(3) 1_656 2_455
O2 O3 La 145.4(3) 3_554 2_455
O2 O3 La 43.01(18) 4_444 2_455
La O3 La 73.51(12) 4_444 2_455
O2 O3 La 126.0(3) 3 2_455
O1 O3 La 90.51(18) 1_544 2_455
O2 O3 La 98.7(2) 6_545 2_455
O1 O3 La 130.1(2) 2_565 2_455
O2 O3 La 25.02(15) 4_445 2_455
O2 O3 La 80.56(17) 2_565 2_455
Ga2 O3 La 70.03(13) 2_566 2_455
O2 O3 La 69.58(17) 5_445 2_455
O3 O3 La 40.11(9) 4_445 2_455
O3 O3 La 24.71(9) 3_455 2_455
O2 O3 La 74.0(2) 2_556 2_455
O2 O3 La 82.41(19) 6_556 2_455
Ga2 O3 La 133.6(2) 1_664 2_455
La O3 La 116.60(19) 2_554 2_455
Ga3 O3 O1 46.7(3) 4_445 2_454
Nb O3 O1 159.5(5) . 2_454
Ga1 O3 O1 159.5(5) . 2_454
La O3 O1 96.1(3) . 2_454
Ga3 O3 O1 86.0(3) 2_564 2_454
O3 O3 O1 152.88(15) 6 2_454
O3 O3 O1 112.7(3) 3 2_454
O3 O3 O1 122.8(2) 4 2_454
O3 O3 O1 48.5(4) 6_554 2_454
O2 O3 O1 74.4(4) 2 2_454
O2 O3 O1 92.9(4) 6 2_454
O2 O3 O1 15.4(3) 1_554 2_454
O3 O3 O1 142.2(3) 2 2_454
O1 O3 O1 61.4(3) 2_455 2_454
O3 O3 O1 58.7(4) 2_554 2_454
O2 O3 O1 112.4(3) . 2_454
Ga2 O3 O1 31.5(2) 1_554 2_454
Ga3 O3 O1 99.5(3) 1_655 2_454
La O3 O1 82.06(19) 4_445 2_454
O3 O3 O1 162.7(5) 5 2_454
O2 O3 O1 69.2(3) 5_455 2_454
Ga3 O3 O1 138.3(3) 4_446 2_454
O3 O3 O1 82.4(4) 5_554 2_454
Ga2 O3 O1 72.04(18) 2_565 2_454
Ga1 O3 O1 54.9(2) 1_554 2_454
Nb O3 O1 54.9(2) 1_554 2_454
La O3 O1 113.1(2) 2 2_454
O2 O3 O1 29.7(2) 3_454 2_454
Ga3 O3 O1 157.5(2) 2_565 2_454
La O3 O1 25.29(10) 1_554 2_454
O1 O3 O1 109.8(3) . 2_454
O2 O3 O1 85.0(3) 4_554 2_454
O2 O3 O1 96.0(3) 3_455 2_454
Ga2 O3 O1 68.85(15) 2 2_454
O2 O3 O1 144.9(3) 4 2_454
La O3 O1 115.5(2) 2_565 2_454
O2 O3 O1 118.8(4) 5 2_454
Ga2 O3 O1 104.5(2) . 2_454
La O3 O1 137.3(3) 4 2_454
O1 O3 O1 55.97(18) 1_554 2_454
O1 O3 O1 102.8(3) 1_545 2_454
Ga3 O3 O1 51.31(13) . 2_454
O3 O3 O1 146.13(18) 1_556 2_454
O3 O3 O1 33.88(18) 1_554 2_454
Ga3 O3 O1 161.7(2) 1_656 2_454
O2 O3 O1 89.6(3) 3_554 2_454
O2 O3 O1 30.5(2) 4_444 2_454
La O3 O1 26.72(6) 4_444 2_454
O2 O3 O1 141.5(3) 3 2_454
O1 O3 O1 54.00(17) 1_544 2_454
O2 O3 O1 87.2(2) 6_545 2_454
O1 O3 O1 118.5(4) 2_565 2_454
O2 O3 O1 87.0(2) 4_445 2_454
O2 O3 O1 86.3(2) 2_565 2_454
Ga2 O3 O1 122.65(18) 2_566 2_454
O2 O3 O1 71.0(2) 5_445 2_454
O3 O3 O1 61.14(14) 4_445 2_454
O3 O3 O1 61.14(14) 3_455 2_454
O2 O3 O1 128.5(3) 2_556 2_454
O2 O3 O1 141.6(2) 6_556 2_454
Ga2 O3 O1 101.4(3) 1_664 2_454
La O3 O1 62.72(16) 2_554 2_454
La O3 O1 68.89(16) 2_455 2_454
Ga3 O3 O3 117.7(5) 4_445 3_556
Nb O3 O3 30.0(3) . 3_556
Ga1 O3 O3 30.0(3) . 3_556
La O3 O3 87.0(3) . 3_556
Ga3 O3 O3 116.2(3) 2_564 3_556
O3 O3 O3 38.0(4) 6 3_556
O3 O3 O3 62.50(13) 3 3_556
O3 O3 O3 76.65(6) 4 3_556
O3 O3 O3 149.4(4) 6_554 3_556
O2 O3 O3 83.4(5) 2 3_556
O2 O3 O3 109.5(5) 6 3_556
O2 O3 O3 141.5(5) 1_554 3_556
O3 O3 O3 15.7(3) 2 3_556
O1 O3 O3 103.7(5) 2_455 3_556
O3 O3 O3 116.3(5) 2_554 3_556
O2 O3 O3 50.9(3) . 3_556
Ga2 O3 O3 131.4(4) 1_554 3_556
Ga3 O3 O3 85.0(2) 1_655 3_556
La O3 O3 75.2(3) 4_445 3_556
O3 O3 O3 33.8(3) 5 3_556
O2 O3 O3 121.2(4) 5_455 3_556
Ga3 O3 O3 22.94(12) 4_446 3_556
O3 O3 O3 108.9(4) 5_554 3_556
Ga2 O3 O3 127.7(3) 2_565 3_556
Ga1 O3 O3 132.7(2) 1_554 3_556
Nb O3 O3 132.7(2) 1_554 3_556
La O3 O3 49.5(2) 2 3_556
O2 O3 O3 147.8(4) 3_454 3_556
Ga3 O3 O3 39.69(8) 2_565 3_556
La O3 O3 178.4(3) 1_554 3_556
O1 O3 O3 84.0(3) . 3_556
O2 O3 O3 117.2(3) 4_554 3_556
O2 O3 O3 79.1(3) 3_455 3_556
Ga2 O3 O3 90.1(3) 2 3_556
O2 O3 O3 58.2(2) 4 3_556
La O3 O3 86.65(19) 2_565 3_556
O2 O3 O3 69.8(3) 5 3_556
Ga2 O3 O3 63.3(2) . 3_556
La O3 O3 62.96(18) 4 3_556
O1 O3 O3 146.3(3) 1_554 3_556
O1 O3 O3 53.6(3) 1_545 3_556
Ga3 O3 O3 132.8(2) . 3_556
O3 O3 O3 27.50(13) 1_556 3_556
O3 O3 O3 152.50(13) 1_554 3_556
Ga3 O3 O3 18.25(13) 1_656 3_556
O2 O3 O3 89.6(3) 3_554 3_556
O2 O3 O3 128.7(4) 4_444 3_556
La O3 O3 131.4(3) 4_444 3_556
O2 O3 O3 31.7(2) 3 3_556
O1 O3 O3 107.3(4) 1_544 3_556
O2 O3 O3 73.7(3) 6_545 3_556
O1 O3 O3 85.1(3) 2_565 3_556
O2 O3 O3 76.8(3) 4_445 3_556
O2 O3 O3 113.1(3) 2_565 3_556
Ga2 O3 O3 68.30(12) 2_566 3_556
O2 O3 O3 85.5(3) 5_445 3_556
O3 O3 O3 96.4(3) 4_445 3_556
O3 O3 O3 116.34(17) 3_455 3_556
O2 O3 O3 29.44(19) 2_556 3_556
O2 O3 O3 50.41(15) 6_556 3_556
Ga2 O3 O3 101.4(2) 1_664 3_556
La O3 O3 108.4(2) 2_554 3_556
La O3 O3 99.6(3) 2_455 3_556
O1 O3 O3 156.2(3) 2_454 3_556
Ga3 O3 O3 141.7(5) 4_445 4_556
Nb O3 O3 30.0(3) . 4_556
Ga1 O3 O3 30.0(3) . 4_556
La O3 O3 74.4(3) . 4_556
Ga3 O3 O3 95.9(3) 2_564 4_556
O3 O3 O3 17.62(16) 6 4_556
O3 O3 O3 76.65(6) 3 4_556
O3 O3 O3 62.50(13) 4 4_556
O3 O3 O3 134.9(5) 6_554 4_556
O2 O3 O3 110.1(5) 2 4_556
O2 O3 O3 82.8(5) 6 4_556
O2 O3 O3 166.5(5) 1_554 4_556
O3 O3 O3 42.1(3) 2 4_556
O1 O3 O3 111.3(5) 2_455 4_556
O3 O3 O3 130.8(5) 2_554 4_556
O2 O3 O3 62.7(3) . 4_556
Ga2 O3 O3 141.0(3) 1_554 4_556
Ga3 O3 O3 89.6(3) 1_655 4_556
La O3 O3 96.3(2) 4_445 4_556
O3 O3 O3 26.0(4) 5 4_556
O2 O3 O3 102.0(4) 5_455 4_556
Ga3 O3 O3 39.32(7) 4_446 4_556
O3 O3 O3 105.0(4) 5_554 4_556
Ga2 O3 O3 101.9(3) 2_565 4_556
Ga1 O3 O3 132.7(2) 1_554 4_556
Nb O3 O3 132.7(2) 1_554 4_556
La O3 O3 73.9(2) 2 4_556
O2 O3 O3 140.9(3) 3_454 4_556
Ga3 O3 O3 14.08(12) 2_565 4_556
La O3 O3 151.7(4) 1_554 4_556
O1 O3 O3 61.7(3) . 4_556
O2 O3 O3 96.9(3) 4_554 4_556
O2 O3 O3 75.2(3) 3_455 4_556
Ga2 O3 O3 116.7(3) 2 4_556
O2 O3 O3 32.1(2) 4 4_556
La O3 O3 60.0(2) 2_565 4_556
O2 O3 O3 70.0(3) 5 4_556
Ga2 O3 O3 68.62(15) . 4_556
La O3 O3 48.00(18) 4 4_556
O1 O3 O3 119.7(3) 1_554 4_556
O1 O3 O3 79.8(3) 1_545 4_556
Ga3 O3 O3 119.4(3) . 4_556
O3 O3 O3 27.50(13) 1_556 4_556
O3 O3 O3 152.50(13) 1_554 4_556
Ga3 O3 O3 26.84(14) 1_656 4_556
O2 O3 O3 99.9(3) 3_554 4_556
O2 O3 O3 144.0(3) 4_444 4_556
La O3 O3 158.0(3) 4_444 4_556
O2 O3 O3 47.3(2) 3 4_556
O1 O3 O3 133.0(4) 1_544 4_556
O2 O3 O3 99.4(3) 6_545 4_556
O1 O3 O3 62.3(3) 2_565 4_556
O2 O3 O3 87.0(2) 4_445 4_556
O2 O3 O3 87.3(3) 2_565 4_556
Ga2 O3 O3 48.15(17) 2_566 4_556
O2 O3 O3 111.7(3) 5_445 4_556
O3 O3 O3 116.34(17) 4_445 4_556
O3 O3 O3 109.4(2) 3_455 4_556
O2 O3 O3 50.49(16) 2_556 4_556
O2 O3 O3 29.08(19) 6_556 4_556
Ga2 O3 O3 80.3(2) 1_664 4_556
La O3 O3 126.7(3) 2_554 4_556
La O3 O3 103.09(19) 2_455 4_556
O1 O3 O3 170.5(3) 2_454 4_556
O3 O3 O3 26.70(12) 3_556 4_556
Ga3 O3 O3 35.5(3) 4_445 3_554
Nb O3 O3 104.0(4) . 3_554
Ga1 O3 O3 104.0(4) . 3_554
La O3 O3 147.9(4) . 3_554
Ga3 O3 O3 62.5(2) 2_564 3_554
O3 O3 O3 148.7(5) 6 3_554
O3 O3 O3 62.50(13) 3 3_554
O3 O3 O3 76.65(6) 4 3_554
O3 O3 O3 37.0(3) 6_554 3_554
O2 O3 O3 72.3(5) 2 3_554
O2 O3 O3 98.5(5) 6 3_554
O2 O3 O3 54.7(3) 1_554 3_554
O3 O3 O3 114.2(5) 2 3_554
O1 O3 O3 113.6(5) 2_455 3_554
O3 O3 O3 14.0(2) 2_554 3_554
O2 O3 O3 144.6(4) . 3_554
Ga2 O3 O3 85.5(3) 1_554 3_554
Ga3 O3 O3 43.4(2) 1_655 3_554
La O3 O3 107.8(3) 4_445 3_554
O3 O3 O3 106.8(5) 5 3_554
O2 O3 O3 112.4(4) 5_455 3_554
Ga3 O3 O3 139.5(3) 4_446 3_554
O3 O3 O3 32.0(3) 5_554 3_554
Ga2 O3 O3 95.8(2) 2_565 3_554
Ga1 O3 O3 13.61(6) 1_554 3_554
Nb O3 O3 13.61(6) 1_554 3_554
La O3 O3 82.2(3) 2 3_554
O2 O3 O3 83.4(3) 3_454 3_554
Ga3 O3 O3 139.2(3) 2_565 3_554
La O3 O3 55.77(11) 1_554 3_554
O1 O3 O3 139.0(4) . 3_554
O2 O3 O3 61.8(3) 4_554 3_554
O2 O3 O3 152.0(3) 3_455 3_554
Ga2 O3 O3 63.4(2) 2 3_554
O2 O3 O3 120.9(4) 4 3_554
La O3 O3 113.2(3) 2_565 3_554
O2 O3 O3 62.8(3) 5 3_554
Ga2 O3 O3 151.1(3) . 3_554
La O3 O3 89.4(3) 4 3_554
O1 O3 O3 76.1(3) 1_554 3_554
O1 O3 O3 100.3(3) 1_545 3_554
Ga3 O3 O3 101.99(18) . 3_554
O3 O3 O3 152.50(13) 1_556 3_554
O3 O3 O3 27.50(13) 1_554 3_554
Ga3 O3 O3 111.4(2) 1_656 3_554
O2 O3 O3 35.6(3) 3_554 3_554
O2 O3 O3 80.3(3) 4_444 3_554
La O3 O3 51.27(17) 4_444 3_554
O2 O3 O3 93.5(3) 3 3_554
O1 O3 O3 47.0(2) 1_544 3_554
O2 O3 O3 67.6(3) 6_545 3_554
O1 O3 O3 90.7(3) 2_565 3_554
O2 O3 O3 132.0(3) 4_445 3_554
O2 O3 O3 107.1(3) 2_565 3_554
Ga2 O3 O3 153.1(3) 2_566 3_554
O2 O3 O3 79.9(3) 5_445 3_554
O3 O3 O3 96.4(3) 4_445 3_554
O3 O3 O3 116.34(17) 3_455 3_554
O2 O3 O3 131.0(3) 2_556 3_554
O2 O3 O3 152.3(3) 6_556 3_554
Ga2 O3 O3 74.4(2) 1_664 3_554
La O3 O3 24.56(14) 2_554 3_554
La O3 O3 123.2(2) 2_455 3_554
O1 O3 O3 56.1(2) 2_454 3_554
O3 O3 O3 125.0(3) 3_556 3_554
O3 O3 O3 132.9(2) 4_556 3_554
Ga3 O3 O3 60.4(3) 4_445 4_554
Nb O3 O3 104.0(4) . 4_554
Ga1 O3 O3 104.0(4) . 4_554
La O3 O3 129.1(5) . 4_554
Ga3 O3 O3 36.8(3) 2_564 4_554
O3 O3 O3 133.6(7) 6 4_554
O3 O3 O3 76.65(6) 3 4_554
O3 O3 O3 62.50(13) 4 4_554
O3 O3 O3 17.62(18) 6_554 4_554
O2 O3 O3 98.9(4) 2 4_554
O2 O3 O3 71.9(5) 6 4_554
O2 O3 O3 67.1(3) 1_554 4_554
O3 O3 O3 129.1(4) 2 4_554
O1 O3 O3 121.9(5) 2_455 4_554
O3 O3 O3 40.6(2) 2_554 4_554
O2 O3 O3 170.6(4) . 4_554
Ga2 O3 O3 92.1(3) 1_554 4_554
Ga3 O3 O3 49.7(2) 1_655 4_554
La O3 O3 132.2(3) 4_445 4_554
O3 O3 O3 102.8(5) 5 4_554
O2 O3 O3 94.1(4) 5_455 4_554
Ga3 O3 O3 155.2(2) 4_446 4_554
O3 O3 O3 24.0(3) 5_554 4_554
Ga2 O3 O3 72.3(3) 2_565 4_554
Ga1 O3 O3 13.61(6) 1_554 4_554
Nb O3 O3 13.61(6) 1_554 4_554
La O3 O3 103.6(2) 2 4_554
O2 O3 O3 79.3(3) 3_454 4_554
Ga3 O3 O3 123.9(3) 2_565 4_554
La O3 O3 47.03(17) 1_554 4_554
O1 O3 O3 112.6(5) . 4_554
O2 O3 O3 36.0(3) 4_554 4_554
O2 O3 O3 144.6(4) 3_455 4_554
Ga2 O3 O3 89.96(19) 2 4_554
O2 O3 O3 101.1(4) 4 4_554
La O3 O3 87.2(3) 2_565 4_554
O2 O3 O3 63.1(3) 5 4_554
Ga2 O3 O3 163.9(2) . 4_554
La O3 O3 77.0(2) 4 4_554
O1 O3 O3 54.8(3) 1_554 4_554
O1 O3 O3 126.5(3) 1_545 4_554
Ga3 O3 O3 91.1(3) . 4_554
O3 O3 O3 152.50(13) 1_556 4_554
O3 O3 O3 27.50(13) 1_554 4_554
Ga3 O3 O3 114.9(2) 1_656 4_554
O2 O3 O3 50.7(2) 3_554 4_554
O2 O3 O3 90.9(2) 4_444 4_554
La O3 O3 68.91(11) 4_444 4_554
O2 O3 O3 103.5(3) 3 4_554
O1 O3 O3 72.8(2) 1_544 4_554
O2 O3 O3 93.6(3) 6_545 4_554
O1 O3 O3 68.4(3) 2_565 4_554
O2 O3 O3 147.8(3) 4_445 4_554
O2 O3 O3 81.7(4) 2_565 4_554
Ga2 O3 O3 126.5(3) 2_566 4_554
O2 O3 O3 105.8(3) 5_445 4_554
O3 O3 O3 116.34(17) 4_445 4_554
O3 O3 O3 109.4(2) 3_455 4_554
O2 O3 O3 153.0(3) 2_556 4_554
O2 O3 O3 130.5(3) 6_556 4_554
Ga2 O3 O3 50.5(2) 1_664 4_554
La O3 O3 51.04(12) 2_554 4_554
La O3 O3 127.4(2) 2_455 4_554
O1 O3 O3 60.88(17) 2_454 4_554
O3 O3 O3 132.9(2) 3_556 4_554
O3 O3 O3 125.0(3) 4_556 4_554
O3 O3 O3 26.70(12) 3_554 4_554
Ga3 O3 O1 65.6(3) 4_445 2
Nb O3 O1 49.5(3) . 2
Ga1 O3 O1 49.5(3) . 2
La O3 O1 146.3(5) . 2
Ga3 O3 O1 96.8(3) 2_564 2
O3 O3 O1 94.2(3) 6 2
O3 O3 O1 8.2(4) 3 2
O3 O3 O1 67.7(4) 4 2
O3 O3 O1 99.2(3) 6_554 2
O2 O3 O1 55.9(3) 2 2
O2 O3 O1 129.3(3) 6 2
O2 O3 O1 100.3(4) 1_554 2
O3 O3 O1 48.7(4) 2 2
O1 O3 O1 125.7(3) 2_455 2
O3 O3 O1 56.6(4) 2_554 2
O2 O3 O1 94.8(4) . 2
Ga2 O3 O1 123.9(3) 1_554 2
Ga3 O3 O1 35.7(2) 1_655 2
La O3 O1 84.9(2) 4_445 2
O3 O3 O1 57.0(3) 5 2
O2 O3 O1 175.1(4) 5_455 2
Ga3 O3 O1 75.1(3) 4_446 2
O3 O3 O1 62.5(2) 5_554 2
Ga2 O3 O1 148.5(3) 2_565 2
Ga1 O3 O1 75.9(3) 1_554 2
Nb O3 O1 75.9(3) 1_554 2
La O3 O1 23.78(15) 2 2
O2 O3 O1 140.8(4) 3_454 2
Ga3 O3 O1 90.6(3) 2_565 2
La O3 O1 121.1(4) 1_554 2
O1 O3 O1 137.8(2) . 2
O2 O3 O1 97.1(2) 4_554 2
O2 O3 O1 132.7(4) 3_455 2
Ga2 O3 O1 54.87(14) 2 2
O2 O3 O1 93.6(2) 4 2
La O3 O1 117.7(2) 2_565 2
O2 O3 O1 37.77(15) 5 2
Ga2 O3 O1 110.8(3) . 2
La O3 O1 66.34(11) 4 2
O1 O3 O1 136.8(3) 1_554 2
O1 O3 O1 55.2(2) 1_545 2
Ga3 O3 O1 162.4(3) . 2
O3 O3 O1 87.1(3) 1_556 2
O3 O3 O1 92.9(3) 1_554 2
Ga3 O3 O1 50.5(2) 1_656 2
O2 O3 O1 32.0(3) 3_554 2
O2 O3 O1 114.5(3) 4_444 2
La O3 O1 89.1(3) 4_444 2
O2 O3 O1 30.1(3) 3 2
O1 O3 O1 61.4(3) 1_544 2
O2 O3 O1 37.00(14) 6_545 2
O1 O3 O1 92.85(14) 2_565 2
O2 O3 O1 110.5(3) 4_445 2
O2 O3 O1 145.7(2) 2_565 2
Ga2 O3 O1 125.4(3) 2_566 2
O2 O3 O1 66.68(16) 5_445 2
O3 O3 O1 96.3(3) 4_445 2
O3 O3 O1 156.1(3) 3_455 2
O2 O3 O1 70.5(3) 2_556 2
O2 O3 O1 106.3(3) 6_556 2
Ga2 O3 O1 93.69(15) 1_664 2
La O3 O1 49.9(2) 2_554 2
La O3 O1 132.5(3) 2_455 2
O1 O3 O1 111.8(3) 2_454 2
O3 O3 O1 59.8(3) 3_556 2
O3 O3 O1 77.2(3) 4_556 2
O3 O3 O1 65.7(3) 3_554 2
O3 O3 O1 82.5(3) 4_554 2
Ga3 O3 La 93.5(5) 4_445 2_564
Nb O3 La 108.5(4) . 2_564
Ga1 O3 La 108.5(4) . 2_564
La O3 La 92.5(3) . 2_564
Ga3 O3 La 21.17(15) 2_564 2_564
O3 O3 La 107.9(6) 6 2_564
O3 O3 La 106.8(3) 3 2_564
O3 O3 La 61.8(4) 4 2_564
O3 O3 La 30.1(4) 6_554 2_564
O2 O3 La 133.9(5) 2 2_564
O2 O3 La 34.8(4) 6 2_564
O2 O3 La 82.8(4) 1_554 2_564
O3 O3 La 144.61(9) 2 2_564
O1 O3 La 111.8(4) 2_455 2_564
O3 O3 La 78.2(4) 2_554 2_564
O2 O3 La 148.3(3) . 2_564
Ga2 O3 La 91.0(3) 1_554 2_564
Ga3 O3 La 78.7(2) 1_655 2_564
La O3 La 149.5(2) 4_445 2_564
O3 O3 La 102.2(3) 5 2_564
O2 O3 La 61.2(3) 5_455 2_564
Ga3 O3 La 147.9(3) 4_446 2_564
O3 O3 La 52.46(17) 5_554 2_564
Ga2 O3 La 35.77(13) 2_565 2_564
Ga1 O3 La 50.65(16) 1_554 2_564
Nb O3 La 50.65(16) 1_554 2_564
La O3 La 138.0(2) 2 2_564
O2 O3 La 67.9(2) 3_454 2_564
Ga3 O3 La 101.1(2) 2_565 2_564
La O3 La 44.15(13) 1_554 2_564
O1 O3 La 74.8(3) . 2_564
O2 O3 La 20.40(17) 4_554 2_564
O2 O3 La 111.0(2) 3_455 2_564
Ga2 O3 La 125.1(3) 2 2_564
O2 O3 La 78.6(3) 4 2_564
La O3 La 54.55(14) 2_565 2_564
O2 O3 La 81.9(3) 5 2_564
Ga2 O3 La 133.33(19) . 2_564
La O3 La 73.52(17) 4 2_564
O1 O3 La 24.70(10) 1_554 2_564
O1 O3 La 164.5(3) 1_545 2_564
Ga3 O3 La 67.17(16) . 2_564
O3 O3 La 129.78(11) 1_556 2_564
O3 O3 La 50.22(11) 1_554 2_564
Ga3 O3 La 119.9(2) 1_656 2_564
O2 O3 La 85.4(2) 3_554 2_564
O2 O3 La 95.9(3) 4_444 2_564
La O3 La 90.8(2) 4_444 2_564
O2 O3 La 122.1(2) 3 2_564
O1 O3 La 106.4(3) 1_544 2_564
O2 O3 La 131.7(3) 6_545 2_564
O1 O3 La 49.4(2) 2_565 2_564
O2 O3 La 134.3(2) 4_445 2_564
O2 O3 La 43.5(2) 2_565 2_564
Ga2 O3 La 89.70(17) 2_566 2_564
O2 O3 La 136.7(3) 5_445 2_564
O3 O3 La 128.47(13) 4_445 2_564
O3 O3 La 85.4(2) 3_455 2_564
O2 O3 La 160.1(3) 2_556 2_564
O2 O3 La 99.2(2) 6_556 2_564
Ga2 O3 La 33.77(9) 1_664 2_564
La O3 La 88.8(2) 2_554 2_564
La O3 La 109.82(17) 2_455 2_564
O1 O3 La 69.10(18) 2_454 2_564
O3 O3 La 134.5(3) 3_556 2_564
O3 O3 La 110.4(3) 4_556 2_564
O3 O3 La 64.26(14) 3_554 2_564
O3 O3 La 38.2(2) 4_554 2_564
O1 O3 La 114.4(2) 2 2_564
Ga3 O3 O2 16.5(3) 4_445 2_554
Nb O3 O2 124.8(4) . 2_554
Ga1 O3 O2 124.8(4) . 2_554
La O3 O2 130.5(3) . 2_554
Ga3 O3 O2 84.2(3) 2_564 2_554
O3 O3 O2 171.3(4) 6 2_554
O3 O3 O2 77.8(3) 3 2_554
O3 O3 O2 104.60(18) 4 2_554
O3 O3 O2 47.9(4) 6_554 2_554
O2 O3 O2 56.2(4) 2 2_554
O2 O3 O2 111.6(6) 6 2_554
O2 O3 O2 28.2(3) 1_554 2_554
O3 O3 O2 118.2(4) 2 2_554
O1 O3 O2 86.1(5) 2_455 2_554
O3 O3 O2 24.7(3) 2_554 2_554
O2 O3 O2 122.6(4) . 2_554
Ga2 O3 O2 59.6(2) 1_554 2_554
Ga3 O3 O2 67.8(2) 1_655 2_554
La O3 O2 84.3(2) 4_445 2_554
O3 O3 O2 130.2(4) 5 2_554
O2 O3 O2 103.1(4) 5_455 2_554
Ga3 O3 O2 133.8(3) 4_446 2_554
O3 O3 O2 59.9(3) 5_554 2_554
Ga2 O3 O2 98.3(3) 2_565 2_554
Ga1 O3 O2 35.42(14) 1_554 2_554
Nb O3 O2 35.42(14) 1_554 2_554
La O3 O2 84.0(2) 2 2_554
O2 O3 O2 64.7(2) 3_454 2_554
Ga3 O3 O2 165.9(2) 2_565 2_554
La O3 O2 47.99(17) 1_554 2_554
O1 O3 O2 142.5(4) . 2_554
O2 O3 O2 83.3(3) 4_554 2_554
O2 O3 O2 125.7(3) 3_455 2_554
Ga2 O3 O2 47.68(17) 2 2_554
O2 O3 O2 148.3(3) 4 2_554
La O3 O2 132.3(3) 2_565 2_554
O2 O3 O2 88.0(3) 5 2_554
Ga2 O3 O2 124.1(2) . 2_554
La O3 O2 117.2(2) 4 2_554
O1 O3 O2 78.2(3) 1_554 2_554
O1 O3 O2 88.1(3) 1_545 2_554
Ga3 O3 O2 86.2(2) . 2_554
O3 O3 O2 152.32(17) 1_556 2_554
O3 O3 O2 27.68(17) 1_554 2_554
Ga3 O3 O2 127.8(2) 1_656 2_554
O2 O3 O2 55.7(3) 3_554 2_554
O2 O3 O2 53.2(2) 4_444 2_554
La O3 O2 23.32(12) 4_444 2_554
O2 O3 O2 107.4(3) 3 2_554
O1 O3 O2 28.9(2) 1_544 2_554
O2 O3 O2 60.7(2) 6_545 2_554
O1 O3 O2 116.3(4) 2_565 2_554
O2 O3 O2 104.6(3) 4_445 2_554
O2 O3 O2 112.6(4) 2_565 2_554
Ga2 O3 O2 157.3(2) 2_566 2_554
O2 O3 O2 59.78(19) 5_445 2_554
O3 O3 O2 69.5(2) 4_445 2_554
O3 O3 O2 95.11(14) 3_455 2_554
O2 O3 O2 121.7(3) 2_556 2_554
O2 O3 O2 176.1(3) 6_556 2_554
Ga2 O3 O2 98.5(3) 1_664 2_554
La O3 O2 27.75(12) 2_554 2_554
La O3 O2 96.18(18) 2_455 2_554
O1 O3 O2 34.99(15) 2_454 2_554
O3 O3 O2 133.4(3) 3_556 2_554
O3 O3 O2 154.4(3) 4_556 2_554
O3 O3 O2 27.95(18) 3_554 2_554
O3 O3 O2 48.00(13) 4_554 2_554
O1 O3 O2 77.3(3) 2 2_554
La O3 O2 77.8(2) 2_564 2_554
Ga3 O3 O2 71.8(5) 4_445 6_554
Nb O3 O2 124.2(5) . 6_554
Ga1 O3 O2 124.2(5) . 6_554
La O3 O2 102.6(4) . 6_554
Ga3 O3 O2 38.0(2) 2_564 6_554
O3 O3 O2 130.7(7) 6 6_554
O3 O3 O2 104.2(2) 3 6_554
O3 O3 O2 77.1(3) 4 6_554
O3 O3 O2 11.1(2) 6_554 6_554
O2 O3 O2 111.8(6) 2 6_554
O2 O3 O2 56.0(4) 6 6_554
O2 O3 O2 60.5(4) 1_554 6_554
O3 O3 O2 156.0(3) 2 6_554
O1 O3 O2 101.4(5) 2_455 6_554
O3 O3 O2 61.0(4) 2_554 6_554
O2 O3 O2 152.6(4) . 6_554
Ga2 O3 O2 74.8(3) 1_554 6_554
Ga3 O3 O2 77.0(3) 1_655 6_554
La O3 O2 130.1(3) 4_445 6_554
O3 O3 O2 120.0(4) 5 6_554
O2 O3 O2 66.9(3) 5_455 6_554
Ga3 O3 O2 170.7(3) 4_446 6_554
O3 O3 O2 50.2(3) 5_554 6_554
Ga2 O3 O2 47.9(2) 2_565 6_554
Ga1 O3 O2 35.26(16) 1_554 6_554
Nb O3 O2 35.26(16) 1_554 6_554
La O3 O2 129.8(3) 2 6_554
O2 O3 O2 55.8(2) 3_454 6_554
Ga3 O3 O2 124.1(3) 2_565 6_554
La O3 O2 25.30(14) 1_554 6_554
O1 O3 O2 92.7(4) . 6_554
O2 O3 O2 37.0(3) 4_554 6_554
O2 O3 O2 117.0(3) 3_455 6_554
Ga2 O3 O2 103.3(2) 2 6_554
O2 O3 O2 101.5(4) 4 6_554
La O3 O2 77.2(2) 2_565 6_554
O2 O3 O2 87.8(3) 5 6_554
Ga2 O3 O2 137.5(2) . 6_554
La O3 O2 90.9(2) 4 6_554
O1 O3 O2 28.3(3) 1_554 6_554
O1 O3 O2 143.7(3) 1_545 6_554
Ga3 O3 O2 64.04(19) . 6_554
O3 O3 O2 152.05(16) 1_556 6_554
O3 O3 O2 27.94(16) 1_554 6_554
Ga3 O3 O2 136.2(2) 1_656 6_554
O2 O3 O2 78.0(3) 3_554 6_554
O2 O3 O2 77.4(2) 4_444 6_554
La O3 O2 67.90(19) 4_444 6_554
O2 O3 O2 129.8(3) 3 6_554
O1 O3 O2 84.4(3) 1_544 6_554
O2 O3 O2 113.8(4) 6_545 6_554
O1 O3 O2 70.8(3) 2_565 6_554
O2 O3 O2 128.1(2) 4_445 6_554
O2 O3 O2 60.1(2) 2_565 6_554
Ga2 O3 O2 108.8(2) 2_566 6_554
O2 O3 O2 113.7(4) 5_445 6_554
O3 O3 O2 109.16(13) 4_445 6_554
O3 O3 O2 82.79(18) 3_455 6_554
O2 O3 O2 176.6(3) 2_556 6_554
O2 O3 O2 121.2(3) 6_556 6_554
Ga2 O3 O2 53.30(17) 1_664 6_554
La O3 O2 71.3(2) 2_554 6_554
La O3 O2 103.75(19) 2_455 6_554
O1 O3 O2 48.07(19) 2_454 6_554
O3 O3 O2 153.8(3) 3_556 6_554
O3 O3 O2 132.9(3) 4_556 6_554
O3 O3 O2 47.93(13) 3_554 6_554
O3 O3 O2 27.58(18) 4_554 6_554
O1 O3 O2 110.0(3) 2 6_554
La O3 O2 23.02(13) 2_564 6_554
O2 O3 O2 55.6(2) 2_554 6_554
Ga3 O3 La 77.1(4) 4_445 4_554
Nb O3 La 82.2(4) . 4_554
Ga1 O3 La 82.2(4) . 4_554
La O3 La 129.6(4) . 4_554
Ga3 O3 La 25.80(15) 2_564 4_554
O3 O3 La 111.7(5) 6 4_554
O3 O3 La 66.3(3) 3 4_554
O3 O3 La 39.28(11) 4 4_554
O3 O3 La 37.4(2) 6_554 4_554
O2 O3 La 109.6(4) 2 4_554
O2 O3 La 65.4(4) 6 4_554
O2 O3 La 90.1(4) 1_554 4_554
O3 O3 La 112.7(2) 2 4_554
O1 O3 La 144.2(5) 2_455 4_554
O3 O3 La 52.88(16) 2_554 4_554
O2 O3 La 163.0(4) . 4_554
Ga2 O3 La 115.0(3) 1_554 4_554
Ga3 O3 La 38.14(15) 1_655 4_554
La O3 La 148.0(3) 4_445 4_554
O3 O3 La 80.1(3) 5 4_554
O2 O3 La 101.7(4) 5_455 4_554
Ga3 O3 La 135.0(2) 4_446 4_554
O3 O3 La 13.68(10) 5_554 4_554
Ga2 O3 La 75.6(2) 2_565 4_554
Ga1 O3 La 33.03(10) 1_554 4_554
Nb O3 La 33.03(10) 1_554 4_554
La O3 La 97.54(17) 2 4_554
O2 O3 La 99.3(3) 3_454 4_554
Ga3 O3 La 101.72(19) 2_565 4_554
La O3 La 67.47(19) 1_554 4_554
O1 O3 La 104.3(3) . 4_554
O2 O3 La 25.64(16) 4_554 4_554
O2 O3 La 149.4(3) 3_455 4_554
Ga2 O3 La 101.6(2) 2 4_554
O2 O3 La 80.2(2) 4 4_554
La O3 La 73.41(17) 2_565 4_554
O2 O3 La 44.4(2) 5 4_554
Ga2 O3 La 167.2(2) . 4_554
La O3 La 53.78(12) 4 4_554
O1 O3 La 64.1(2) 1_554 4_554
O1 O3 La 127.7(2) 1_545 4_554
Ga3 O3 La 105.9(2) . 4_554
O3 O3 La 129.27(11) 1_556 4_554
O3 O3 La 50.73(11) 1_554 4_554
Ga3 O3 La 93.82(14) 1_656 4_554
O2 O3 La 46.55(17) 3_554 4_554
O2 O3 La 114.2(3) 4_444 4_554
La O3 La 90.6(2) 4_444 4_554
O2 O3 La 86.55(19) 3 4_554
O1 O3 La 87.8(2) 1_544 4_554
O2 O3 La 97.8(2) 6_545 4_554
O1 O3 La 49.0(2) 2_565 4_554
O2 O3 La 171.0(3) 4_445 4_554
O2 O3 La 79.7(2) 2_565 4_554
Ga2 O3 La 113.7(2) 2_566 4_554
O2 O3 La 119.4(3) 5_445 4_554
O3 O3 La 137.63(16) 4_445 4_554
O3 O3 La 124.7(2) 3_455 4_554
O2 O3 La 138.7(2) 2_556 4_554
O2 O3 La 111.3(2) 6_556 4_554
Ga2 O3 La 33.48(9) 1_664 4_554
La O3 La 61.53(13) 2_554 4_554
La O3 La 147.3(2) 2_455 4_554
O1 O3 La 84.0(2) 2_454 4_554
O3 O3 La 112.1(2) 3_556 4_554
O3 O3 La 101.77(19) 4_556 4_554
O3 O3 La 41.65(17) 3_554 4_554
O3 O3 La 23.25(14) 4_554 4_554
O1 O3 La 73.86(19) 2 4_554
La O3 La 40.53(10) 2_564 4_554
O2 O3 La 68.14(18) 2_554 4_554
O2 O3 La 43.60(14) 6_554 4_554
Ga3 O3 O2 150.5(5) 4_445 5_456
Nb O3 O2 83.2(4) . 5_456
Ga1 O3 O2 83.2(4) . 5_456
La O3 O2 21.5(2) . 5_456
Ga3 O3 O2 107.0(3) 2_564 5_456
O3 O3 O2 35.76(16) 6 5_456
O3 O3 O2 128.15(16) 3 5_456
O3 O3 O2 101.1(4) 4 5_456
O3 O3 O2 129.5(4) 6_554 5_456
O2 O3 O2 118.8(5) 2 5_456
O2 O3 O2 69.2(4) 6 5_456
O2 O3 O2 122.6(3) 1_554 5_456
O3 O3 O2 78.4(5) 2 5_456
O1 O3 O2 66.3(4) 2_455 5_456
O3 O3 O2 175.3(2) 2_554 5_456
O2 O3 O2 47.03(17) . 5_456
Ga2 O3 O2 91.3(2) 1_554 5_456
Ga3 O3 O2 141.4(3) 1_655 5_456
La O3 O2 81.3(2) 4_445 5_456
O3 O3 O2 78.7(4) 5 5_456
O2 O3 O2 55.2(2) 5_455 5_456
Ga3 O3 O2 53.80(19) 4_446 5_456
O3 O3 O2 142.7(2) 5_554 5_456
Ga2 O3 O2 70.74(19) 2_565 5_456
Ga1 O3 O2 153.2(3) 1_554 5_456
Nb O3 O2 153.2(3) 1_554 5_456
La O3 O2 111.1(3) 2 5_456
O2 O3 O2 88.2(3) 3_454 5_456
Ga3 O3 O2 43.33(16) 2_565 5_456
La O3 O2 112.7(2) 1_554 5_456
O1 O3 O2 28.3(3) . 5_456
O2 O3 O2 107.6(3) 4_554 5_456
O2 O3 O2 26.3(2) 3_455 5_456
Ga2 O3 O2 127.4(3) 2 5_456
O2 O3 O2 56.37(17) 4 5_456
La O3 O2 57.15(15) 2_565 5_456
O2 O3 O2 121.2(4) 5 5_456
Ga2 O3 O2 36.96(13) . 5_456
La O3 O2 90.3(2) 4 5_456
O1 O3 O2 90.5(3) 1_554 5_456
O1 O3 O2 92.6(3) 1_545 5_456
Ga3 O3 O2 67.90(16) . 5_456
O3 O3 O2 39.22(17) 1_556 5_456
O3 O3 O2 140.78(17) 1_554 5_456
Ga3 O3 O2 77.8(2) 1_656 5_456
O2 O3 O2 153.1(2) 3_554 5_456
O2 O3 O2 98.1(3) 4_444 5_456
La O3 O2 129.11(19) 4_444 5_456
O2 O3 O2 97.0(2) 3 5_456
O1 O3 O2 141.4(3) 1_544 5_456
O2 O3 O2 125.5(4) 6_545 5_456
O1 O3 O2 82.7(3) 2_565 5_456
O2 O3 O2 53.83(17) 4_445 5_456
O2 O3 O2 59.63(16) 2_565 5_456
Ga2 O3 O2 16.92(10) 2_566 5_456
O2 O3 O2 109.9(3) 5_445 5_456
O3 O3 O2 88.99(12) 4_445 5_456
O3 O3 O2 56.21(16) 3_455 5_456
O2 O3 O2 62.4(3) 2_556 5_456
O2 O3 O2 27.1(2) 6_556 5_456
Ga2 O3 O2 97.0(2) 1_664 5_456
La O3 O2 167.6(3) 2_554 5_456
La O3 O2 55.68(14) 2_455 5_456
O1 O3 O2 117.3(2) 2_454 5_456
O3 O3 O2 66.30(19) 3_556 5_456
O3 O3 O2 53.2(2) 4_556 5_456
O3 O3 O2 166.5(3) 3_554 5_456
O3 O3 O2 140.9(4) 4_554 5_456
O1 O3 O2 126.1(3) 2 5_456
La O3 O2 102.8(2) 2_564 5_456
O2 O3 O2 150.8(2) 2_554 5_456
O2 O3 O2 118.6(2) 6_554 5_456
La O3 O2 130.5(2) 4_554 5_456
Ga3 O3 La 135.5(4) 4_445 4_455
Nb O3 La 108.9(4) . 4_455
Ga1 O3 La 108.9(4) . 4_455
La O3 La 27.4(2) . 4_455
Ga3 O3 La 76.9(2) 2_564 4_455
O3 O3 La 66.7(3) 6 4_455
O3 O3 La 153.4(5) 3 4_455
O3 O3 La 95.6(5) 4 4_455
O3 O3 La 89.1(3) 6_554 4_455
O2 O3 La 141.5(3) 2 4_455
O2 O3 La 38.2(3) 6 4_455
O2 O3 La 101.3(3) 1_554 4_455
O3 O3 La 117.8(5) 2 4_455
O1 O3 La 69.71(19) 2_455 4_455
O3 O3 La 138.4(5) 2_554 4_455
O2 O3 La 83.1(3) . 4_455
Ga2 O3 La 77.44(16) 1_554 4_455
Ga3 O3 La 137.2(3) 1_655 4_455
La O3 La 105.73(19) 4_445 4_455
O3 O3 La 101.2(2) 5 4_455
O2 O3 La 19.8(2) 5_455 4_455
Ga3 O3 La 94.4(2) 4_446 4_455
O3 O3 La 116.07(15) 5_554 4_455
Ga2 O3 La 30.57(9) 2_565 4_455
Ga1 O3 La 113.2(3) 1_554 4_455
Nb O3 La 113.2(3) 1_554 4_455
La O3 La 151.6(3) 2 4_455
O2 O3 La 60.7(2) 3_454 4_455
Ga3 O3 La 68.71(14) 2_565 4_455
La O3 La 74.98(15) 1_554 4_455
O1 O3 La 20.9(2) . 4_455
O2 O3 La 77.0(2) 4_554 4_455
O2 O3 La 46.85(16) 3_455 4_455
Ga2 O3 La 144.94(19) 2 4_455
O2 O3 La 64.66(18) 4 4_455
La O3 La 42.65(8) 2_565 4_455
O2 O3 La 126.1(3) 5 4_455
Ga2 O3 La 68.48(12) . 4_455
La O3 La 93.86(18) 4 4_455
O1 O3 La 49.9(2) 1_554 4_455
O1 O3 La 129.0(3) 1_545 4_455
Ga3 O3 La 39.40(7) . 4_455
O3 O3 La 78.62(13) 1_556 4_455
O3 O3 La 101.38(13) 1_554 4_455
Ga3 O3 La 109.3(2) 1_656 4_455
O2 O3 La 149.1(3) 3_554 4_455
O2 O3 La 86.89(17) 4_444 4_455
La O3 La 112.66(16) 4_444 4_455
O2 O3 La 129.7(3) 3 4_455
O1 O3 La 140.5(2) 1_544 4_455
O2 O3 La 158.7(3) 6_545 4_455
O1 O3 La 70.13(15) 2_565 4_455
O2 O3 La 76.28(16) 4_445 4_455
O2 O3 La 22.87(15) 2_565 4_455
Ga2 O3 La 35.51(7) 2_566 4_455
O2 O3 La 130.0(2) 5_445 4_455
O3 O3 La 100.13(16) 4_445 4_455
O3 O3 La 41.64(16) 3_455 4_455
O2 O3 La 102.7(2) 2_556 4_455
O2 O3 La 54.15(15) 6_556 4_455
Ga2 O3 La 74.59(15) 1_664 4_455
La O3 La 147.6(3) 2_554 4_455
La O3 La 60.41(9) 2_455 4_455
O1 O3 La 88.85(15) 2_454 4_455
O3 O3 La 103.75(17) 3_556 4_455
O3 O3 La 82.6(2) 4_556 4_455
O3 O3 La 126.0(2) 3_554 4_455
O3 O3 La 102.7(3) 4_554 4_455
O1 O3 La 158.1(3) 2 4_455
La O3 La 65.27(13) 2_564 4_455
O2 O3 La 122.0(2) 2_554 4_455
O2 O3 La 78.11(19) 6_554 4_455
La O3 La 102.6(2) 4_554 4_455
O2 O3 La 40.60(14) 5_456 4_455
Ga3 O3 O3 76.9(3) 4_445 5_445
Nb O3 O3 99.0(5) . 5_445
Ga1 O3 O3 99.0(5) . 5_445
La O3 O3 77.8(4) . 5_445
Ga3 O3 O3 172.1(5) 2_564 5_445
O3 O3 O3 88.5(7) 6 5_445
O3 O3 O3 93.6(4) 3 5_445
O3 O3 O3 145.7(4) 4 5_445
O3 O3 O3 132.9(6) 6_554 5_445
O2 O3 O3 42.1(3) 2 5_445
O2 O3 O3 141.8(5) 6 5_445
O2 O3 O3 74.6(4) 1_554 5_445
O3 O3 O3 62.9(2) 2 5_445
O1 O3 O3 42.4(3) 2_455 5_445
O3 O3 O3 99.61(14) 2_554 5_445
O2 O3 O3 33.8(3) . 5_445
Ga2 O3 O3 61.5(2) 1_554 5_445
Ga3 O3 O3 118.69(17) 1_655 5_445
La O3 O3 4.66(7) 4_445 5_445
O3 O3 O3 104.8(4) 5 5_445
O2 O3 O3 99.4(3) 5_455 5_445
Ga3 O3 O3 52.7(2) 4_446 5_445
O3 O3 O3 138.2(2) 5_554 5_445
Ga2 O3 O3 125.9(3) 2_565 5_445
Ga1 O3 O3 123.6(3) 1_554 5_445
Nb O3 O3 123.6(3) 1_554 5_445
La O3 O3 62.45(10) 2 5_445
O2 O3 O3 84.5(3) 3_454 5_445
Ga3 O3 O3 97.5(4) 2_565 5_445
La O3 O3 109.7(3) 1_554 5_445
O1 O3 O3 104.0(4) . 5_445
O2 O3 O3 171.1(4) 4_554 5_445
O2 O3 O3 58.1(3) 3_455 5_445
Ga2 O3 O3 50.20(6) 2 5_445
O2 O3 O3 121.0(4) 4 5_445
La O3 O3 134.4(4) 2_565 5_445
O2 O3 O3 122.1(2) 5 5_445
Ga2 O3 O3 40.4(2) . 5_445
La O3 O3 133.8(3) 4 5_445
O1 O3 O3 129.1(2) 1_554 5_445
O1 O3 O3 30.83(6) 1_545 5_445
Ga3 O3 O3 88.1(2) . 5_445
O3 O3 O3 66.9(2) 1_556 5_445
O3 O3 O3 113.1(2) 1_554 5_445
Ga3 O3 O3 87.4(3) 1_656 5_445
O2 O3 O3 107.05(16) 3_554 5_445
O2 O3 O3 57.3(2) 4_444 5_445
La O3 O3 69.59(17) 4_444 5_445
O2 O3 O3 84.8(2) 3 5_445
O1 O3 O3 65.1(2) 1_544 5_445
O2 O3 O3 55.20(14) 6_545 5_445
O1 O3 O3 153.7(5) 2_565 5_445
O2 O3 O3 27.4(2) 4_445 5_445
O2 O3 O3 126.0(3) 2_565 5_445
Ga2 O3 O3 93.9(3) 2_566 5_445
O2 O3 O3 32.58(17) 5_445 5_445
O3 O3 O3 25.0(2) 4_445 5_445
O3 O3 O3 71.6(2) 3_455 5_445
O2 O3 O3 42.4(2) 2_556 5_445
O2 O3 O3 92.7(4) 6_556 5_445
Ga2 O3 O3 172.2(4) 1_664 5_445
La O3 O3 90.41(13) 2_554 5_445
La O3 O3 47.1(2) 2_455 5_445
O1 O3 O3 86.1(2) 2_454 5_445
O3 O3 O3 71.4(3) 3_556 5_445
O3 O3 O3 91.9(3) 4_556 5_445
O3 O3 O3 112.1(3) 3_554 5_445
O3 O3 O3 136.8(3) 4_554 5_445
O1 O3 O3 85.44(13) 2 5_445
La O3 O3 152.4(3) 2_564 5_445
O2 O3 O3 88.9(2) 2_554 5_445
O2 O3 O3 134.2(3) 6_554 5_445
La O3 O3 151.7(2) 4_554 5_445
O2 O3 O3 77.4(3) 5_456 5_445
La O3 O3 103.6(3) 4_455 5_445
Ga3 O3 O3 131.9(4) 4_445 5_455
Nb O3 O3 110.4(5) . 5_455
Ga1 O3 O3 110.4(5) . 5_455
La O3 O3 7.48(14) . 5_455
Ga3 O3 O3 99.3(2) 2_564 5_455
O3 O3 O3 63.0(2) 6 5_455
O3 O3 O3 156.6(2) 3 5_455
O3 O3 O3 113.6(5) 4 5_455
O3 O3 O3 106.3(3) 6_554 5_455
O2 O3 O3 121.2(4) 2 5_455
O2 O3 O3 60.3(3) 6 5_455
O2 O3 O3 97.9(3) 1_554 5_455
O3 O3 O3 105.1(6) 2 5_455
O1 O3 O3 51.6(3) 2_455 5_455
O3 O3 O3 148.2(6) 2_554 5_455
O2 O3 O3 62.2(3) . 5_455
Ga2 O3 O3 68.27(19) 1_554 5_455
Ga3 O3 O3 158.1(3) 1_655 5_455
La O3 O3 83.8(2) 4_445 5_455
O3 O3 O3 104.8(4) 5 5_455
O2 O3 O3 28.6(3) 5_455 5_455
Ga3 O3 O3 78.8(3) 4_446 5_455
O3 O3 O3 138.2(2) 5_554 5_455
Ga2 O3 O3 50.72(6) 2_565 5_455
Ga1 O3 O3 130.1(3) 1_554 5_455
Nb O3 O3 130.1(3) 1_554 5_455
La O3 O3 134.2(4) 2 5_455
O2 O3 O3 60.3(2) 3_454 5_455
Ga3 O3 O3 68.9(2) 2_565 5_455
La O3 O3 84.8(2) 1_554 5_455
O1 O3 O3 29.42(8) . 5_455
O2 O3 O3 99.4(2) 4_554 5_455
O2 O3 O3 24.8(2) 3_455 5_455
Ga2 O3 O3 126.8(2) 2 5_455
O2 O3 O3 74.3(2) 4 5_455
La O3 O3 60.41(7) 2_565 5_455
O2 O3 O3 141.9(3) 5 5_455
Ga2 O3 O3 46.90(19) . 5_455
La O3 O3 107.9(2) 4 5_455
O1 O3 O3 67.4(2) 1_554 5_455
O1 O3 O3 107.1(3) 1_545 5_455
Ga3 O3 O3 39.51(11) . 5_455
O3 O3 O3 66.9(2) 1_556 5_455
O3 O3 O3 113.1(2) 1_554 5_455
Ga3 O3 O3 106.0(3) 1_656 5_455
O2 O3 O3 171.4(3) 3_554 5_455
O2 O3 O3 76.8(2) 4_444 5_455
La O3 O3 107.2(2) 4_444 5_455
O2 O3 O3 125.4(4) 3 5_455
O1 O3 O3 130.3(2) 1_544 5_455
O2 O3 O3 136.6(3) 6_545 5_455
O1 O3 O3 89.10(17) 2_565 5_455
O2 O3 O3 54.0(2) 4_445 5_455
O2 O3 O3 45.20(14) 2_565 5_455
Ga2 O3 O3 34.31(13) 2_566 5_455
O2 O3 O3 109.8(2) 5_445 5_455
O3 O3 O3 81.1(2) 4_445 5_455
O3 O3 O3 30.4(2) 3_455 5_455
O2 O3 O3 84.6(3) 2_556 5_455
O2 O3 O3 52.2(2) 6_556 5_455
Ga2 O3 O3 96.27(12) 1_664 5_455
La O3 O3 152.0(3) 2_554 5_455
La O3 O3 41.12(13) 2_455 5_455
O1 O3 O3 89.9(2) 2_454 5_455
O3 O3 O3 94.4(3) 3_556 5_455
O3 O3 O3 80.6(3) 4_556 5_455
O3 O3 O3 140.5(3) 3_554 5_455
O3 O3 O3 122.2(3) 4_554 5_455
O1 O3 O3 153.8(4) 2 5_455
La O3 O3 86.43(14) 2_564 5_455
O2 O3 O3 124.7(3) 2_554 5_455
O2 O3 O3 95.4(2) 6_554 5_455
La O3 O3 124.9(2) 4_554 5_455
O2 O3 O3 28.4(2) 5_456 5_455
La O3 O3 22.36(6) 4_455 5_455
O3 O3 O3 81.4(3) 5_445 5_455
Ga3 O3 La 86.4(3) 4_445 1_655
Nb O3 La 30.3(2) . 1_655
Ga1 O3 La 30.3(2) . 1_655
La O3 La 134.6(4) . 1_655
Ga3 O3 La 81.51(19) 2_564 1_655
O3 O3 La 77.83(12) 6 1_655
O3 O3 La 19.1(3) 3 1_655
O3 O3 La 45.5(3) 4 1_655
O3 O3 La 98.88(16) 6_554 1_655
O2 O3 La 79.9(3) 2 1_655
O2 O3 La 106.9(3) 6 1_655
O2 O3 La 121.2(3) 1_554 1_655
O3 O3 La 48.5(2) 2 1_655
O1 O3 La 145.4(4) 2_455 1_655
O3 O3 La 70.6(3) 2_554 1_655
O2 O3 La 100.0(3) . 1_655
Ga2 O3 La 148.1(3) 1_554 1_655
Ga3 O3 La 32.59(10) 1_655 1_655
La O3 La 103.8(2) 4_445 1_655
O3 O3 La 35.9(2) 5 1_655
O2 O3 La 151.6(3) 5_455 1_655
Ga3 O3 La 73.81(15) 4_446 1_655
O3 O3 La 57.5(2) 5_554 1_655
Ga2 O3 La 129.4(2) 2_565 1_655
Ga1 O3 La 80.33(14) 1_554 1_655
Nb O3 La 80.33(14) 1_554 1_655
La O3 La 41.88(8) 2 1_655
O2 O3 La 158.2(3) 3_454 1_655
Ga3 O3 La 71.68(13) 2_565 1_655
La O3 La 127.8(3) 1_554 1_655
O1 O3 La 115.7(2) . 1_655
O2 O3 La 82.1(2) 4_554 1_655
O2 O3 La 131.5(3) 3_455 1_655
Ga2 O3 La 79.34(13) 2 1_655
O2 O3 La 69.98(17) 4 1_655
La O3 La 93.27(15) 2_565 1_655
O2 O3 La 20.37(18) 5 1_655
Ga2 O3 La 114.6(2) . 1_655
La O3 La 42.08(7) 4 1_655
O1 O3 La 126.8(3) 1_554 1_655
O1 O3 La 72.35(13) 1_545 1_655
Ga3 O3 La 168.8(3) . 1_655
O3 O3 La 78.74(13) 1_556 1_655
O3 O3 La 101.26(13) 1_554 1_655
Ga3 O3 La 36.67(6) 1_656 1_655
O2 O3 La 39.84(19) 3_554 1_655
O2 O3 La 138.7(2) 4_444 1_655
La O3 La 111.05(17) 4_444 1_655
O2 O3 La 22.33(16) 3 1_655
O1 O3 La 84.58(15) 1_544 1_655
O2 O3 La 61.13(15) 6_545 1_655
O1 O3 La 69.59(12) 2_565 1_655
O2 O3 La 122.8(3) 4_445 1_655
O2 O3 La 122.4(2) 2_565 1_655
Ga2 O3 La 106.59(17) 2_566 1_655
O2 O3 La 90.27(18) 5_445 1_655
O3 O3 La 118.9(3) 4_445 1_655
O3 O3 La 168.73(13) 3_455 1_655
O2 O3 La 74.45(18) 2_556 1_655
O2 O3 La 88.37(19) 6_556 1_655
Ga2 O3 La 74.04(11) 1_664 1_655
La O3 La 67.37(10) 2_554 1_655
La O3 La 147.8(3) 2_455 1_655
O1 O3 La 129.3(2) 2_454 1_655
O3 O3 La 52.46(16) 3_556 1_655
O3 O3 La 60.22(19) 4_556 1_655
O3 O3 La 74.7(2) 3_554 1_655
O3 O3 La 81.35(19) 4_554 1_655
O1 O3 La 24.47(9) 2 1_655
La O3 La 102.11(17) 2_564 1_655
O2 O3 La 94.68(17) 2_554 1_655
O2 O3 La 107.4(2) 6_554 1_655
La O3 La 64.48(10) 4_554 1_655
O2 O3 La 113.4(2) 5_456 1_655
La O3 La 134.42(19) 4_455 1_655
O3 O3 La 103.00(17) 5_445 1_655
O3 O3 La 140.6(3) 5_455 1_655
Ga3 O3 O1 122.6(5) 4_445 2_456
Nb O3 O1 81.3(4) . 2_456
Ga1 O3 O1 81.3(4) . 2_456
La O3 O1 43.6(3) . 2_456
Ga3 O3 O1 139.7(4) 2_564 2_456
O3 O3 O1 46.9(5) 6 2_456
O3 O3 O1 110.8(3) 3 2_456
O3 O3 O1 119.83(19) 4 2_456
O3 O3 O1 155.18(12) 6_554 2_456
O2 O3 O1 85.7(5) 2 2_456
O2 O3 O1 102.6(4) 6 2_456
O2 O3 O1 111.0(4) 1_554 2_456
O3 O3 O1 58.1(4) 2 2_456
O1 O3 O1 53.9(4) 2_455 2_456
O3 O3 O1 144.5(3) 2_554 2_456
O2 O3 O1 13.7(2) . 2_456
Ga2 O3 O1 83.8(3) 1_554 2_456
Ga3 O3 O1 137.4(3) 1_655 2_456
La O3 O1 50.18(17) 4_445 2_456
O3 O3 O1 81.6(4) 5 2_456
O2 O3 O1 78.4(3) 5_455 2_456
Ga3 O3 O1 31.70(13) 4_446 2_456
O3 O3 O1 161.9(4) 5_554 2_456
Ga2 O3 O1 100.54(19) 2_565 2_456
Ga1 O3 O1 168.4(3) 1_554 2_456
Nb O3 O1 168.4(3) 1_554 2_456
La O3 O1 83.8(2) 2 2_456
O2 O3 O1 94.6(3) 3_454 2_456
Ga3 O3 O1 56.86(19) 2_565 2_456
La O3 O1 126.7(2) 1_554 2_456
O1 O3 O1 61.7(2) . 2_456
O2 O3 O1 140.4(3) 4_554 2_456
O2 O3 O1 27.9(2) 3_455 2_456
Ga2 O3 O1 94.6(2) 2 2_456
O2 O3 O1 78.5(3) 4 2_456
La O3 O1 89.0(2) 2_565 2_456
O2 O3 O1 123.0(3) 5 2_456
Ga2 O3 O1 10.85(13) . 2_456
La O3 O1 105.6(2) 4 2_456
O1 O3 O1 117.8(3) 1_554 2_456
O1 O3 O1 59.8(3) 1_545 2_456
Ga3 O3 O1 81.74(17) . 2_456
O3 O3 O1 30.82(15) 1_556 2_456
O3 O3 O1 149.18(15) 1_554 2_456
Ga3 O3 O1 70.8(2) 1_656 2_456
O2 O3 O1 136.9(3) 3_554 2_456
O2 O3 O1 86.1(3) 4_444 2_456
La O3 O1 110.8(2) 4_444 2_456
O2 O3 O1 83.4(3) 3 2_456
O1 O3 O1 110.8(3) 1_544 2_456
O2 O3 O1 92.7(3) 6_545 2_456
O1 O3 O1 110.4(4) 2_565 2_456
O2 O3 O1 29.6(2) 4_445 2_456
O2 O3 O1 91.7(2) 2_565 2_456
Ga2 O3 O1 48.87(12) 2_566 2_456
O2 O3 O1 77.9(3) 5_445 2_456
O3 O3 O1 63.66(12) 4_445 2_456
O3 O3 O1 63.66(12) 3_455 2_456
O2 O3 O1 34.52(15) 2_556 2_456
O2 O3 O1 47.81(19) 6_556 2_456
Ga2 O3 O1 127.5(2) 1_664 2_456
La O3 O1 134.4(2) 2_554 2_456
La O3 O1 47.20(15) 2_455 2_456
O1 O3 O1 115.30(16) 2_454 2_456
O3 O3 O1 53.30(18) 3_556 2_456
O3 O3 O1 57.86(16) 4_556 2_456
O3 O3 O1 157.8(3) 3_554 2_456
O3 O3 O1 172.5(3) 4_554 2_456
O1 O3 O1 105.0(3) 2 2_456
La O3 O1 135.23(18) 2_564 2_456
O2 O3 O1 133.1(3) 2_554 2_456
O2 O3 O1 144.9(2) 6_554 2_456
La O3 O1 158.5(2) 4_554 2_456
O2 O3 O1 33.37(13) 5_456 2_456
La O3 O1 70.21(12) 4_455 2_456
O3 O3 O1 45.8(2) 5_445 2_456
O3 O3 O1 50.4(2) 5_455 2_456
La O3 O1 105.4(2) 1_655 2_456
Ga3 O3 O3 36.45(19) 4_445 5_444
Nb O3 O3 131.1(4) . 5_444
Ga1 O3 O3 131.1(4) . 5_444
La O3 O3 101.5(4) . 5_444
Ga3 O3 O3 124.6(5) 2_564 5_444
O3 O3 O3 136.0(8) 6 5_444
O3 O3 O3 93.6(4) 3 5_444
O3 O3 O3 144.7(3) 4 5_444
O3 O3 O3 85.4(5) 6_554 5_444
O2 O3 O3 35.1(3) 2 5_444
O2 O3 O3 133.7(5) 6 5_444
O2 O3 O3 28.4(3) 1_554 5_444
O3 O3 O3 99.95(14) 2 5_444
O1 O3 O3 49.1(4) 2_455 5_444
O3 O3 O3 61.6(2) 2_554 5_444
O2 O3 O3 80.5(4) . 5_444
Ga2 O3 O3 36.2(2) 1_554 5_444
Ga3 O3 O3 100.6(2) 1_655 5_444
La O3 O3 43.15(11) 4_445 5_444
O3 O3 O3 139.52(16) 5 5_444
O2 O3 O3 95.7(3) 5_455 5_444
Ga3 O3 O3 99.4(3) 4_446 5_444
O3 O3 O3 101.8(4) 5_554 5_444
Ga2 O3 O3 110.3(3) 2_565 5_444
Ga1 O3 O3 78.4(3) 1_554 5_444
Nb O3 O3 78.4(3) 1_554 5_444
La O3 O3 77.07(8) 2 5_444
O2 O3 O3 58.0(3) 3_454 5_444
Ga3 O3 O3 145.2(4) 2_565 5_444
La O3 O3 68.0(2) 1_554 5_444
O1 O3 O3 129.0(3) . 5_444
O2 O3 O3 123.6(4) 4_554 5_444
O2 O3 O3 88.0(3) 3_455 5_444
Ga2 O3 O3 33.28(5) 2 5_444
O2 O3 O3 168.5(5) 4 5_444
La O3 O3 153.7(2) 2_565 5_444
O2 O3 O3 118.3(3) 5 5_444
Ga2 O3 O3 81.3(3) . 5_444
La O3 O3 152.3(2) 4 5_444
O1 O3 O3 97.8(3) 1_554 5_444
O1 O3 O3 60.1(2) 1_545 5_444
Ga3 O3 O3 75.8(2) . 5_444
O3 O3 O3 114.7(2) 1_556 5_444
O3 O3 O3 65.3(2) 1_554 5_444
Ga3 O3 O3 123.4(2) 1_656 5_444
O2 O3 O3 85.7(2) 3_554 5_444
O2 O3 O3 26.75(19) 4_444 5_444
La O3 O3 21.83(13) 4_444 5_444
O2 O3 O3 108.92(17) 3 5_444
O1 O3 O3 30.69(10) 1_544 5_444
O2 O3 O3 52.48(13) 6_545 5_444
O1 O3 O3 158.5(5) 2_565 5_444
O2 O3 O3 62.0(3) 4_445 5_444
O2 O3 O3 122.4(3) 2_565 5_444
Ga2 O3 O3 129.8(3) 2_566 5_444
O2 O3 O3 28.83(16) 5_445 5_444
O3 O3 O3 26.5(3) 4_445 5_444
O3 O3 O3 71.9(3) 3_455 5_444
O2 O3 O3 87.9(3) 2_556 5_444
O2 O3 O3 137.5(4) 6_556 5_444
Ga2 O3 O3 140.0(4) 1_664 5_444
La O3 O3 56.71(15) 2_554 5_444
La O3 O3 60.1(2) 2_455 5_444
O1 O3 O3 42.70(18) 2_454 5_444
O3 O3 O3 113.5(3) 3_556 5_444
O3 O3 O3 138.4(3) 4_556 5_444
O3 O3 O3 70.0(2) 3_554 5_444
O3 O3 O3 90.4(2) 4_554 5_444
O1 O3 O3 87.87(14) 2 5_444
La O3 O3 111.1(3) 2_564 5_444
O2 O3 O3 43.0(2) 2_554 5_444
O2 O3 O3 88.7(3) 6_554 5_444
La O3 O3 111.1(3) 4_554 5_444
O2 O3 O3 114.0(3) 5_456 5_444
La O3 O3 113.1(2) 4_455 5_444
O3 O3 O3 47.76(10) 5_445 5_444
O3 O3 O3 99.7(3) 5_455 5_444
La O3 O3 112.28(11) 1_655 5_444
O1 O3 O3 90.1(3) 2_456 5_444
loop_
_geom_bond_atom_site_label_1
_geom_bond_atom_site_label_2
_geom_bond_distance
_geom_bond_site_symmetry_2
La O3 2.430(10) .
La O3 2.430(10) 6
La O2 2.440(14) 3_455
La O2 2.440(14) 5_455
La O1 2.617(8) .
La O1 2.617(8) 2_455
La O2 2.861(13) .
La O2 2.861(13) 6
La Ga2 3.430(3) .
La Ga2 3.430(3) 2_565
La Nb 3.4882(10) .
La Ga1 3.4882(10) .
Ga1 O3 1.972(10) 3
Ga1 O3 1.972(10) 2
Ga1 O3 1.972(10) 5
Ga1 O3 1.972(10) .
Ga1 O3 1.972(10) 6
Ga1 O3 1.972(10) 4
Ga1 La 3.4881(10) 2
Ga1 La 3.4882(10) 4
Ga1 O2 3.643(12) 2
Ga1 O2 3.643(12) 3
Ga1 O2 3.643(12) .
Nb O3 1.972(10) 3
Nb O3 1.972(10) 2
Nb O3 1.972(10) 5
Nb O3 1.972(10) .
Nb O3 1.972(10) 6
Nb O3 1.972(10) 4
Nb La 3.4881(10) 2
Nb La 3.4882(10) 4
Nb O2 3.643(12) 2
Nb O2 3.643(12) 3
Nb O2 3.643(12) .
Ga2 O1 1.79(2) 2_456
Ga2 O2 1.853(12) 4_445
Ga2 O2 1.853(12) .
Ga2 O2 1.853(12) 3_455
Ga2 O1 3.33(2) 2_455
Ga2 La 3.430(3) 4_445
Ga2 La 3.430(3) 2_455
Ga2 O3 3.562(10) 4_446
Ga2 O3 3.562(10) 1_556
Ga2 O3 3.562(10) 3_456
Ga2 O2 3.741(12) 2_556
Ga3 O3 1.844(12) 3_455
Ga3 O3 1.845(12) 5_454
Ga3 O2 1.884(13) 3_454
Ga3 O2 1.884(13) 5_455
Ga3 O3 2.608(14) 2_454
Ga3 O3 2.608(14) 4_455
Ga3 O1 3.591(11) 1_554
Ga3 O1 3.591(11) 2_455
Ga3 O3 3.689(10) 1_455
Ga3 O3 3.689(10) 6_454
Ga3 O3 4.003(15) 3_454
Ga3 O3 4.003(15) 5_455
O1 Ga2 1.79(2) 2_566
O1 La 2.617(8) 2_565
O1 La 2.617(8) 4_455
O1 O2 2.96(3) 6
O1 O2 2.96(3) 5_455
O1 O2 2.96(3) 2_565
O1 O2 3.12(3) 6_556
O1 O2 3.12(3) 5_456
O1 O2 3.12(3) 2_566
O1 O3 3.251(10) 6
O1 O3 3.251(10) 5_455
O1 O3 3.251(10) 2_565
O1 Ga2 3.33(2) 2_565
O1 O2 3.601(11) 3_455
O1 O2 3.601(11) 4
O1 O2 3.601(11) 1_565
O1 Ga3 3.591(11) 2_565
O1 Ga3 3.591(11) 1_556
O1 Ga3 3.591(11) 4_456
O1 O3 4.463(15) .
O1 O3 4.463(15) 4_455
O1 O3 4.463(15) 3_565
O1 Ga3 4.736(18) 2_564
O1 Ga3 4.736(18) 4_455
O1 Nb 4.826(5) 1_455
O1 Ga1 4.826(5) 1_455
O1 Nb 4.826(5) 1_565
O1 Ga1 4.826(5) 1_565
O1 O2 4.877(11) .
O1 O2 4.877(11) 3_565
O1 O2 4.877(11) 4_455
O1 La 4.85(2) 1_556
O1 La 4.85(2) 2_566
O1 La 4.85(2) 4_456
O1 O3 4.90(2) 1_556
O1 O3 4.90(2) 3_566
O1 O3 4.90(2) 4_456
O1 O3 4.970(19) 4
O1 O3 4.970(19) 3_455
O1 O3 4.970(19) 1_565
O1 Ga2 4.960(7) 1_565
O1 Ga2 4.960(7) 1_665
O1 O1 5.088(17) 2_465
O1 O1 5.088(17) 2_455
O1 O1 5.088(17) 2_565
O1 O1 5.1230 1_554
O1 O1 5.1230 1_556
O1 Ga3 5.374(7) 4_446
O1 Ga3 5.374(7) 1_666
O1 Ga3 5.374(7) 2_465
O1 O3 5.366(16) 4_556
O1 O3 5.366(16) 3_456
O1 O3 5.366(16) 1_566
O1 O3 5.445(12) 5
O1 O3 5.445(12) 2_455
O1 O3 5.445(12) 6_565
O1 O2 5.74(2) 3_454
O1 O2 5.74(2) 4_554
O1 O2 5.74(2) 1_564
O1 O3 5.81(2) 6_554
O1 O3 5.81(2) 5_454
O1 O3 5.81(2) 2_564
O1 O1 5.75(3) 2_466
O1 O1 5.75(3) 2_456
O1 O1 5.75(3) 2_566
O1 O3 5.868(9) 2
O1 O3 5.868(9) 6_455
O1 O3 5.868(9) 5_565
O1 La 5.955(4) 2_455
O1 La 5.955(4) 4
O1 La 5.955(4) 1_565
O1 O2 6.298(11) 4_445
O1 O2 6.298(11) 1_665
O1 O2 6.298(11) 3_465
O1 O3 6.32(2) 6_556
O2 Ga3 1.884(13) 4_446
O2 La 2.440(14) 4_445
O2 O2 2.836(18) 4_445
O2 O2 2.836(18) 3_455
O2 O3 2.863(16) 2
O2 O3 2.895(17) 6
O2 O1 2.96(3) 2_455
O2 O2 2.93(3) 2_556
O2 O3 3.070(19) 1_556
O2 O1 3.12(3) 2_456
O2 O3 3.40(2) .
O2 O1 3.601(11) 1_545
O2 O2 3.72(3) 2
O2 Ga2 3.741(12) 2_556
O2 O3 3.944(14) 5_445
O2 La 4.057(17) 4_446
O2 Ga3 4.269(11) 2_455
O2 Ga3 4.282(11) 2_565
O2 La 4.323(16) 1_556
O2 La 4.350(12) 2_455
O2 O3 4.348(15) 4_446
O2 Ga3 4.392(17) 4_445
O2 Ga3 4.487(11) 1_556
O2 O3 4.491(19) 3_556
O2 Ga2 4.559(18) 1_554
O2 La 4.565(11) 2
O2 O3 4.584(17) 4_445
O2 O2 4.628(16) 5_456
O2 O2 4.628(16) 5_446
O2 O3 4.721(16) 3
O2 O2 4.84(2) 6_556
O2 O3 4.853(13) 5
O2 Ga1 4.876(15) 1_556
O2 Nb 4.876(15) 1_556
O2 Ga2 4.982(11) 2_566
O2 Ga3 5.030(11) 1_546
O2 Ga3 5.040(11) 1_656
O2 O2 5.1230 1_554
O2 O2 5.1230 1_556
O2 O2 5.16(2) 5_445
O2 O2 5.16(2) 5_455
O2 O3 5.186(15) 4_556
O2 O3 5.271(15) 3_456
O2 Ga2 5.303(15) 2
O2 O2 5.35(3) 6
O2 O2 5.333(17) 6_446
O2 O2 5.333(17) 6_546
O2 O3 5.386(15) 4
O2 Ga1 5.399(11) 1_445
O2 Nb 5.399(11) 1_445
O2 O3 5.389(16) 6_445
O2 La 5.425(14) 2_456
O2 O3 5.468(18) 3_455
O2 O3 5.487(15) 2_455
O2 O3 5.582(16) 5_455
O2 La 5.599(14) 2_556
O2 O3 5.60(2) 2_556
O2 O3 5.61(2) 6_556
O2 O1 5.74(2) 1_546
O2 O2 5.722(18) 4
O2 O2 5.722(18) 3
O2 O2 5.80(2) 6_445
O2 O2 5.80(2) 6_545
O2 O2 5.855(9) 4_444
O2 O2 5.855(9) 3_454
O2 O2 5.855(9) 3_456
O2 O2 5.855(9) 4_446
O2 La 6.002(11) 1_545
O2 O3 6.13(2) 2_554
O2 O3 6.14(2) 6_554
O2 O2 6.148(18) 3_445
O2 O2 6.148(18) 4_545
O2 O3 6.22(2) 5_446
O2 O1 6.298(11) 1_445
O2 O3 6.390(15) 3_446
O3 Ga3 1.844(12) 4_445
O3 Ga3 2.608(14) 2_564
O3 O3 2.66(3) 6
O3 O3 2.667(15) 3
O3 O3 2.667(15) 4
O3 O3 2.84(3) 6_554
O3 O2 2.863(16) 2
O3 O2 2.895(17) 6
O3 O2 3.070(19) 1_554
O3 O3 3.18(3) 2
O3 O1 3.251(10) 2_455
O3 O3 3.34(2) 2_554
O3 Ga2 3.562(10) 1_554
O3 Ga3 3.689(10) 1_655
O3 La 3.891(14) 4_445
O3 O3 3.90(2) 5
O3 O2 3.944(14) 5_455
O3 Ga3 4.003(15) 4_446
O3 O3 4.03(3) 5_554
O3 Ga2 4.076(12) 2_565
O3 Ga1 4.185(14) 1_554
O3 Nb 4.185(14) 1_554
O3 La 4.253(12) 2
O3 O2 4.348(15) 3_454
O3 Ga3 4.407(12) 2_565
O3 La 4.419(13) 1_554
O3 O2 4.491(19) 4_554
O3 O2 4.584(17) 3_455
O3 Ga2 4.626(12) 2
O3 O2 4.721(16) 4
O3 La 4.833(12) 2_565
O3 O2 4.853(13) 5
O3 La 4.916(10) 4
O3 O1 4.90(2) 1_554
O3 O1 4.970(19) 1_545
O3 O3 5.1230 1_556
O3 O3 5.1230 1_554
O3 Ga3 5.122(12) 1_656
O3 O2 5.186(15) 3_554
O3 O2 5.271(15) 4_444
O3 La 5.363(12) 4_444
O3 O2 5.386(15) 3
O3 O1 5.366(16) 1_544
O3 O2 5.389(16) 6_545
O3 O1 5.445(12) 2_565
O3 O2 5.468(18) 4_445
O3 O2 5.487(15) 2_565
O3 Ga2 5.554(12) 2_566
O3 O2 5.582(16) 5_445
O3 O3 5.606(17) 4_445
O3 O3 5.606(17) 3_455
O3 O2 5.60(2) 2_556
O3 O2 5.61(2) 6_556
O3 Ga2 5.637(13) 1_664
O3 La 5.632(12) 2_554
O3 La 5.734(10) 2_455
O3 O1 5.81(2) 2_454
O3 O3 5.776(7) 3_556
O3 O3 5.776(7) 4_556
O3 O3 5.776(7) 3_554
O3 O3 5.776(7) 4_554
O3 O1 5.868(9) 2
O3 La 6.081(15) 2_564
O3 O2 6.13(2) 2_554
O3 O2 6.14(2) 6_554
O3 La 6.148(14) 4_554
O3 O2 6.22(2) 5_456
O3 La 6.242(10) 4_455
O3 O3 6.287(18) 5_445
O3 O3 6.287(18) 5_455
O3 La 6.311(8) 1_655
O3 O1 6.32(2) 2_456
O3 O3 6.366(15) 5_444
