#------------------------------------------------------------------------------
#$Date: 2017-02-07 17:13:06 +0200 (Tue, 07 Feb 2017) $
#$Revision: 191892 $
#$URL: file:///home/coder/svn-repositories/cod/cif/2/10/35/2103545.cif $
#------------------------------------------------------------------------------
#
# This file is available in the Crystallography Open Database (COD),
# http://www.crystallography.net/. The original data for this entry
# were provided by IUCr Journals, http://journals.iucr.org/.
#
# The file may be used within the scientific community so long as
# proper attribution is given to the journal article from which the
# data were obtained.
#
data_2103545
loop_
_publ_author_name
'Pavlovska, A.'
'Werner, S.'
'Maximov, B.'
'Mill, B.'
_publ_section_title
;
 Pressure-induced phase transitions of piezoelectric single crystals
 from the langasite family: La~3~Nb~0.5~Ga~5.5~O~14~ and
 La~3~Ta~0.5~Ga~5.5~O~14~
;
_journal_issue                   6
_journal_name_full               'Acta Crystallographica Section B'
_journal_page_first              939
_journal_page_last               947
_journal_paper_doi               10.1107/S0108768102010273
_journal_volume                  58
_journal_year                    2002
_chemical_formula_sum            'Ga5.5 La3 Nb0.5 O14'
_chemical_formula_weight         1070.65
_chemical_name_systematic        ?
_space_group_IT_number           150
_symmetry_space_group_name_Hall  'P 3 2"'
_symmetry_space_group_name_H-M   'P 3 2 1'
_atom_sites_solution_hydrogens   geom
_atom_sites_solution_primary     direct
_atom_sites_solution_secondary   difmap
_audit_creation_method           SHELXL-97
_cell_angle_alpha                90.00
_cell_angle_beta                 90.00
_cell_angle_gamma                120.00
_cell_formula_units_Z            1
_cell_length_a                   8.014
_cell_length_b                   8.014
_cell_length_c                   5.046
_cell_measurement_temperature    293(2)
_cell_volume                     280.7
_computing_structure_refinement  'SHELXL-97 (Sheldrick, 1997)'
_computing_structure_solution    'SHELXS-97 (Sheldrick, 1990)'
_diffrn_ambient_pressure         9.9E+6
_diffrn_ambient_temperature      293(2)
_diffrn_measured_fraction_theta_full 0.597
_diffrn_measured_fraction_theta_max 0.597
_diffrn_radiation_source         synchrotron
_diffrn_radiation_wavelength     0.54920
_diffrn_reflns_av_R_equivalents  0.0000
_diffrn_reflns_av_sigmaI/netI    0.0533
_diffrn_reflns_limit_h_max       11
_diffrn_reflns_limit_h_min       -12
_diffrn_reflns_limit_k_max       8
_diffrn_reflns_limit_k_min       -8
_diffrn_reflns_limit_l_max       6
_diffrn_reflns_limit_l_min       -6
_diffrn_reflns_number            456
_diffrn_reflns_theta_full        25.52
_diffrn_reflns_theta_max         25.52
_diffrn_reflns_theta_min         2.27
_exptl_absorpt_coefficient_mu    14.382
_exptl_crystal_density_diffrn    6.335
_exptl_crystal_density_method    'not measured'
_exptl_crystal_F_000             474
_refine_diff_density_max         1.478
_refine_diff_density_min         -1.754
_refine_diff_density_rms         0.426
_refine_ls_abs_structure_details 'Flack H D (1983), Acta Cryst. A39, 876-881'
_refine_ls_abs_structure_Flack   0.09(9)
_refine_ls_extinction_method     none
_refine_ls_goodness_of_fit_ref   0.973
_refine_ls_hydrogen_treatment    mixed
_refine_ls_matrix_type           full
_refine_ls_number_parameters     38
_refine_ls_number_reflns         456
_refine_ls_number_restraints     0
_refine_ls_restrained_S_all      0.973
_refine_ls_R_factor_all          0.0412
_refine_ls_R_factor_gt           0.0409
_refine_ls_shift/su_max          0.000
_refine_ls_shift/su_mean         0.000
_refine_ls_structure_factor_coef Fsqd
_refine_ls_weighting_details
'calc w=1/[\s^2^(Fo^2^)+(0.1000P)^2^+0.0000P] where P=(Fo^2^+2Fc^2^)/3'
_refine_ls_weighting_scheme      calc
_refine_ls_wR_factor_gt          0.1111
_refine_ls_wR_factor_ref         0.1122
_reflns_number_gt                454
_reflns_number_total             456
_reflns_threshold_expression     >2sigma(I)
_cod_data_source_file            sn0021-9.9d3.cif
_cod_data_source_block           9.9d3
_cod_depositor_comments
;
The _diffrn_ambient_pressure was taken from the original data block
header, after comparison with the paper text and supplementary
material.

Changing (with the help of Perl) all _diffrn_radiation_source values in
the files that were reportedly colected on the HASYLAB D3 beamline
(Hamburg) from 'fine-focus sealed tube' to synchrotron.

The command was:

perl -i -ne \
    "s/'fine-focus sealed tube'/synchrotron/; \
    print unless /_diffrn_radiation_type|_diffrn_radiation_monochromator/" \
    *d3*.cif \
    11.57split.cif \
    21.85split.cif \
    22.85split.cif

Saulius Gra\<zulis
;
_cod_original_formula_sum        'Ga5.50 La3 Nb0.50 O14'
_cod_database_code               2103545
loop_
_symmetry_equiv_pos_as_xyz
'x, y, z'
'y, x, -z'
'-y, x-y, z'
'-x+y, -x, z'
'-x, -x+y, -z'
'x-y, -y, -z'
loop_
_atom_site_label
_atom_site_type_symbol
_atom_site_fract_x
_atom_site_fract_y
_atom_site_fract_z
_atom_site_U_iso_or_equiv
_atom_site_adp_type
_atom_site_occupancy
_atom_site_symmetry_multiplicity
_atom_site_calc_flag
_atom_site_refinement_flags
La La -0.43207(11) 0.0000 0.0000 0.0114(3) Uani 1 2 d S
Ga1 Ga 0.0000 0.0000 0.0000 0.0131(6) Uani 0.50 6 d SP
Ga2 Ga -0.6667 -0.3333 -0.5250(5) 0.0092(4) Uani 1 3 d S
Ga3 Ga -0.7672(2) 0.0000 -0.5000 0.0111(4) Uani 1 2 d S
Nb Nb 0.0000 0.0000 0.0000 0.0131(6) Uani 0.50 6 d SP
O1 O -0.3333 0.3333 0.171(3) 0.012(2) Uani 1 3 d S
O3 O -0.2196(13) -0.0719(18) -0.240(3) 0.039(4) Uani 1 1 d .
O2 O -0.695(2) -0.1488(18) 0.309(3) 0.049(5) Uani 1 1 d .
loop_
_atom_site_aniso_label
_atom_site_aniso_U_11
_atom_site_aniso_U_22
_atom_site_aniso_U_33
_atom_site_aniso_U_23
_atom_site_aniso_U_13
_atom_site_aniso_U_12
La 0.0124(3) 0.0084(4) 0.0122(6) -0.0018(3) -0.00091(16) 0.00421(18)
Ga1 0.0124(7) 0.0124(7) 0.0144(15) 0.000 0.000 0.0062(3)
Ga2 0.0113(6) 0.0113(6) 0.0051(11) 0.000 0.000 0.0057(3)
Ga3 0.0098(5) 0.0122(7) 0.0119(10) 0.0051(6) 0.0025(3) 0.0061(4)
Nb 0.0124(7) 0.0124(7) 0.0144(15) 0.000 0.000 0.0062(3)
O1 0.013(4) 0.013(4) 0.010(7) 0.000 0.000 0.0063(18)
O3 0.020(5) 0.046(7) 0.057(9) -0.044(6) -0.009(5) 0.021(5)
O2 0.083(12) 0.039(7) 0.051(9) 0.036(7) 0.062(9) 0.050(9)
loop_
_atom_type_symbol
_atom_type_description
_atom_type_scat_dispersion_real
_atom_type_scat_dispersion_imag
_atom_type_scat_source
La La -0.9700 1.5670 'International Tables Vol C Tables 4.2.6.8 and 6.1.1.4'
Nb Nb -0.8490 2.7800 'International Tables Vol C Tables 4.2.6.8 and 6.1.1.4'
Ga Ga 0.2490 1.0300 'International Tables Vol C Tables 4.2.6.8 and 6.1.1.4'
O O 0.0000 0.0000 'International Tables Vol C Tables 4.2.6.8 and 6.1.1.4'
loop_
_geom_angle_atom_site_label_1
_geom_angle_atom_site_label_2
_geom_angle_atom_site_label_3
_geom_angle
_geom_angle_site_symmetry_1
_geom_angle_site_symmetry_3
O3 La O3 66.6(6) 6 .
O3 La O2 106.7(6) 6 .
O3 La O2 139.9(4) . .
O3 La O2 139.9(4) 6 6
O3 La O2 106.7(6) . 6
O2 La O2 102.0(7) . 6
O3 La O1 79.4(3) 6 .
O3 La O1 123.0(3) . .
O2 La O1 92.1(4) . .
O2 La O1 72.1(5) 6 .
O3 La O1 123.0(3) 6 2_455
O3 La O1 79.4(3) . 2_455
O2 La O1 72.1(5) . 2_455
O2 La O1 92.1(4) 6 2_455
O1 La O1 155.13(7) . 2_455
O3 La O2 64.3(4) 6 4_445
O3 La O2 79.2(5) . 4_445
O2 La O2 63.6(5) . 4_445
O2 La O2 155.7(2) 6 4_445
O1 La O2 125.2(4) . 4_445
O1 La O2 65.4(4) 2_455 4_445
O3 La O2 79.2(5) 6 2_565
O3 La O2 64.3(4) . 2_565
O2 La O2 155.7(2) . 2_565
O2 La O2 63.6(5) 6 2_565
O1 La O2 65.4(4) . 2_565
O1 La O2 125.2(4) 2_455 2_565
O2 La O2 136.5(4) 4_445 2_565
O3 La Ga2 85.3(4) 6 1_556
O3 La Ga2 110.6(4) . 1_556
O2 La Ga2 31.1(3) . 1_556
O2 La Ga2 130.8(3) 6 1_556
O1 La Ga2 110.5(3) . 1_556
O1 La Ga2 65.2(4) 2_455 1_556
O2 La Ga2 32.5(2) 4_445 1_556
O2 La Ga2 164.5(2) 2_565 1_556
O3 La Ga2 110.6(4) 6 2_564
O3 La Ga2 85.3(4) . 2_564
O2 La Ga2 130.8(3) . 2_564
O2 La Ga2 31.1(3) 6 2_564
O1 La Ga2 65.2(4) . 2_564
O1 La Ga2 110.5(3) 2_455 2_564
O2 La Ga2 164.5(2) 4_445 2_564
O2 La Ga2 32.5(2) 2_565 2_564
Ga2 La Ga2 161.44(3) 1_556 2_564
O3 La Ga1 33.3(3) 6 .
O3 La Ga1 33.3(3) . .
O2 La Ga1 129.0(4) . .
O2 La Ga1 129.0(4) 6 .
O1 La Ga1 102.44(3) . .
O1 La Ga1 102.43(3) 2_455 .
O2 La Ga1 68.2(2) 4_445 .
O2 La Ga1 68.2(2) 2_565 .
Ga2 La Ga1 99.281(15) 1_556 .
Ga2 La Ga1 99.282(15) 2_564 .
O3 La Nb 33.3(3) 6 .
O3 La Nb 33.3(3) . .
O2 La Nb 129.0(4) . .
O2 La Nb 129.0(4) 6 .
O1 La Nb 102.44(3) . .
O1 La Nb 102.43(3) 2_455 .
O2 La Nb 68.2(2) 4_445 .
O2 La Nb 68.2(2) 2_565 .
Ga2 La Nb 99.281(15) 1_556 .
Ga2 La Nb 99.282(15) 2_564 .
Ga1 La Nb 0.0 . .
O3 Ga1 O3 107.2(9) 2 .
O3 Ga1 O3 83.3(6) 2 3
O3 Ga1 O3 86.2(6) . 3
O3 Ga1 O3 86.2(6) 2 5
O3 Ga1 O3 162.2(7) . 5
O3 Ga1 O3 107.2(9) 3 5
O3 Ga1 O3 86.2(6) 2 6
O3 Ga1 O3 83.3(6) . 6
O3 Ga1 O3 162.2(7) 3 6
O3 Ga1 O3 86.2(6) 5 6
O3 Ga1 O3 162.2(7) 2 4
O3 Ga1 O3 86.2(6) . 4
O3 Ga1 O3 86.2(6) 3 4
O3 Ga1 O3 83.3(6) 5 4
O3 Ga1 O3 107.2(9) 6 4
O3 Ga1 La 41.6(3) 2 2
O3 Ga1 La 98.9(3) . 2
O3 Ga1 La 41.6(3) 3 2
O3 Ga1 La 98.9(3) 5 2
O3 Ga1 La 126.4(5) 6 2
O3 Ga1 La 126.4(5) 4 2
O3 Ga1 La 126.4(5) 2 4
O3 Ga1 La 126.4(5) . 4
O3 Ga1 La 98.9(3) 3 4
O3 Ga1 La 41.6(3) 5 4
O3 Ga1 La 98.9(3) 6 4
O3 Ga1 La 41.6(3) 4 4
La Ga1 La 120.0 2 4
O3 Ga1 La 98.9(3) 2 .
O3 Ga1 La 41.6(3) . .
O3 Ga1 La 126.4(5) 3 .
O3 Ga1 La 126.4(5) 5 .
O3 Ga1 La 41.6(3) 6 .
O3 Ga1 La 98.9(3) 4 .
La Ga1 La 120.0 2 .
La Ga1 La 120.0 4 .
O3 Ga1 O2 51.4(4) 2 1_655
O3 Ga1 O2 146.3(4) . 1_655
O3 Ga1 O2 67.2(5) 3 1_655
O3 Ga1 O2 51.5(4) 5 1_655
O3 Ga1 O2 116.2(5) 6 1_655
O3 Ga1 O2 111.1(4) 4 1_655
La Ga1 O2 47.4(3) 2 1_655
La Ga1 O2 79.9(2) 4 1_655
La Ga1 O2 148.41(17) . 1_655
O3 Ga1 O2 67.2(5) 2 5_445
O3 Ga1 O2 51.5(4) . 5_445
O3 Ga1 O2 51.4(4) 3 5_445
O3 Ga1 O2 146.3(4) 5 5_445
O3 Ga1 O2 111.1(4) 6 5_445
O3 Ga1 O2 116.2(5) 4 5_445
La Ga1 O2 47.4(3) 2 5_445
La Ga1 O2 148.41(17) 4 5_445
La Ga1 O2 79.9(2) . 5_445
O2 Ga1 O2 94.8(5) 1_655 5_445
O3 Ga1 O2 51.5(4) 2 4_445
O3 Ga1 O2 67.2(5) . 4_445
O3 Ga1 O2 111.1(4) 3 4_445
O3 Ga1 O2 116.2(5) 5 4_445
O3 Ga1 O2 51.4(4) 6 4_445
O3 Ga1 O2 146.3(4) 4 4_445
La Ga1 O2 79.9(2) 2 4_445
La Ga1 O2 148.40(17) 4 4_445
La Ga1 O2 47.4(3) . 4_445
O2 Ga1 O2 102.4(3) 1_655 4_445
O2 Ga1 O2 63.2(3) 5_445 4_445
O1 Ga2 O2 117.6(5) 2_455 3_454
O1 Ga2 O2 117.6(5) 2_455 4_444
O2 Ga2 O2 100.3(6) 3_454 4_444
O1 Ga2 O2 117.6(5) 2_455 1_554
O2 Ga2 O2 100.3(6) 3_454 1_554
O2 Ga2 O2 100.3(6) 4_444 1_554
O1 Ga2 O1 179.999(4) 2_455 2_454
O2 Ga2 O1 62.4(5) 3_454 2_454
O2 Ga2 O1 62.4(5) 4_444 2_454
O2 Ga2 O1 62.4(5) 1_554 2_454
O1 Ga2 La 135.24(3) 2_455 4_444
O2 Ga2 La 56.9(6) 3_454 4_444
O2 Ga2 La 43.3(3) 4_444 4_444
O2 Ga2 La 106.6(5) 1_554 4_444
O1 Ga2 La 44.76(3) 2_454 4_444
O1 Ga2 La 135.25(3) 2_455 2_454
O2 Ga2 La 43.3(3) 3_454 2_454
O2 Ga2 La 106.6(5) 4_444 2_454
O2 Ga2 La 56.9(6) 1_554 2_454
O1 Ga2 La 44.76(3) 2_454 2_454
La Ga2 La 75.14(4) 4_444 2_454
O1 Ga2 La 135.24(3) 2_455 1_554
O2 Ga2 La 106.6(5) 3_454 1_554
O2 Ga2 La 56.9(6) 4_444 1_554
O2 Ga2 La 43.3(3) 1_554 1_554
O1 Ga2 La 44.76(3) 2_454 1_554
La Ga2 La 75.14(4) 4_444 1_554
La Ga2 La 75.14(4) 2_454 1_554
O1 Ga2 O3 65.2(3) 2_455 4_445
O2 Ga2 O3 59.1(4) 3_454 4_445
O2 Ga2 O3 102.4(7) 4_444 4_445
O2 Ga2 O3 151.7(5) 1_554 4_445
O1 Ga2 O3 114.8(3) 2_454 4_445
La Ga2 O3 79.4(3) 4_444 4_445
La Ga2 O3 100.02(16) 2_454 4_445
La Ga2 O3 154.5(3) 1_554 4_445
O1 Ga2 O3 65.2(3) 2_455 .
O2 Ga2 O3 151.7(5) 3_454 .
O2 Ga2 O3 59.1(4) 4_444 .
O2 Ga2 O3 102.4(7) 1_554 .
O1 Ga2 O3 114.8(3) 2_454 .
La Ga2 O3 100.02(16) 4_444 .
La Ga2 O3 154.5(3) 2_454 .
La Ga2 O3 79.4(3) 1_554 .
O3 Ga2 O3 103.7(3) 4_445 .
O1 Ga2 O3 65.2(3) 2_455 3_455
O2 Ga2 O3 102.4(7) 3_454 3_455
O2 Ga2 O3 151.7(5) 4_444 3_455
O2 Ga2 O3 59.1(4) 1_554 3_455
O1 Ga2 O3 114.8(3) 2_454 3_455
La Ga2 O3 154.5(3) 4_444 3_455
La Ga2 O3 79.4(3) 2_454 3_455
La Ga2 O3 100.01(16) 1_554 3_455
O3 Ga2 O3 103.7(3) 4_445 3_455
O3 Ga2 O3 103.7(3) . 3_455
O1 Ga2 La 41.90(3) 2_455 4_445
O2 Ga2 La 98.0(3) 3_454 4_445
O2 Ga2 La 88.1(6) 4_444 4_445
O2 Ga2 La 158.2(6) 1_554 4_445
O1 Ga2 La 138.10(3) 2_454 4_445
La Ga2 La 93.347(5) 4_444 4_445
La Ga2 La 139.788(5) 2_454 4_445
La Ga2 La 139.788(5) 1_554 4_445
O3 Ga2 La 39.78(17) 4_445 4_445
O3 Ga2 La 64.6(3) . 4_445
O3 Ga2 La 105.2(2) 3_455 4_445
O3 Ga3 O3 134.5(8) 3_455 5_454
O3 Ga3 O2 108.1(5) 3_455 1_554
O3 Ga3 O2 100.6(7) 5_454 1_554
O3 Ga3 O2 100.6(7) 3_455 6
O3 Ga3 O2 108.0(5) 5_454 6
O2 Ga3 O2 100.6(13) 1_554 6
O3 Ga3 O3 78.4(7) 3_455 2_454
O3 Ga3 O3 74.2(6) 5_454 2_454
O2 Ga3 O3 77.5(7) 1_554 2_454
O2 Ga3 O3 177.4(5) 6 2_454
O3 Ga3 O3 74.2(6) 3_455 4_455
O3 Ga3 O3 78.4(7) 5_454 4_455
O2 Ga3 O3 177.4(5) 1_554 4_455
O2 Ga3 O3 77.5(7) 6 4_455
O3 Ga3 O3 104.3(4) 2_454 4_455
O3 Ga3 Nb 35.5(3) 3_455 1_455
O3 Ga3 Nb 110.8(5) 5_454 1_455
O2 Ga3 Nb 143.3(3) 1_554 1_455
O2 Ga3 Nb 87.6(6) 6 1_455
O3 Ga3 Nb 92.9(2) 2_454 1_455
O3 Ga3 Nb 38.8(3) 4_455 1_455
O3 Ga3 Nb 110.8(5) 3_455 1_454
O3 Ga3 Nb 35.5(3) 5_454 1_454
O2 Ga3 Nb 87.6(6) 1_554 1_454
O2 Ga3 Nb 143.3(3) 6 1_454
O3 Ga3 Nb 38.8(3) 2_454 1_454
O3 Ga3 Nb 92.9(2) 4_455 1_454
Nb Ga3 Nb 107.03(5) 1_455 1_454
O3 Ga3 O1 160.0(6) 3_455 1_554
O3 Ga3 O1 61.6(4) 5_454 1_554
O2 Ga3 O1 74.7(4) 1_554 1_554
O2 Ga3 O1 59.7(5) 6 1_554
O3 Ga3 O1 121.1(4) 2_454 1_554
O3 Ga3 O1 102.7(3) 4_455 1_554
Nb Ga3 O1 137.07(18) 1_455 1_554
Nb Ga3 O1 89.0(2) 1_454 1_554
O3 Ga3 O1 61.6(4) 3_455 2_455
O3 Ga3 O1 160.0(6) 5_454 2_455
O2 Ga3 O1 59.7(5) 1_554 2_455
O2 Ga3 O1 74.7(4) 6 2_455
O3 Ga3 O1 102.7(3) 2_454 2_455
O3 Ga3 O1 121.1(4) 4_455 2_455
Nb Ga3 O1 89.0(2) 1_455 2_455
Nb Ga3 O1 137.07(18) 1_454 2_455
O1 Ga3 O1 106.13(19) 1_554 2_455
O3 Ga3 O3 45.7(3) 3_455 1_455
O3 Ga3 O3 89.2(7) 5_454 1_455
O2 Ga3 O3 134.6(6) 1_554 1_455
O2 Ga3 O3 118.4(7) 6 1_455
O3 Ga3 O3 62.6(4) 2_454 1_455
O3 Ga3 O3 47.9(2) 4_455 1_455
Nb Ga3 O3 32.9(2) 1_455 1_455
Nb Ga3 O3 75.1(2) 1_454 1_455
O1 Ga3 O3 144.3(2) 1_554 1_455
O1 Ga3 O3 107.2(3) 2_455 1_455
O3 Ga3 O3 89.2(7) 3_455 6_454
O3 Ga3 O3 45.7(3) 5_454 6_454
O2 Ga3 O3 118.4(7) 1_554 6_454
O2 Ga3 O3 134.6(6) 6 6_454
O3 Ga3 O3 47.9(2) 2_454 6_454
O3 Ga3 O3 62.6(4) 4_455 6_454
Nb Ga3 O3 75.1(2) 1_455 6_454
Nb Ga3 O3 32.9(2) 1_454 6_454
O1 Ga3 O3 107.2(3) 1_554 6_454
O1 Ga3 O3 144.3(2) 2_455 6_454
O3 Ga3 O3 45.7(5) 1_455 6_454
O3 Nb O3 107.2(9) 2 .
O3 Nb O3 83.3(6) 2 3
O3 Nb O3 86.2(6) . 3
O3 Nb O3 86.2(6) 2 5
O3 Nb O3 162.2(7) . 5
O3 Nb O3 107.2(9) 3 5
O3 Nb O3 86.2(6) 2 6
O3 Nb O3 83.3(6) . 6
O3 Nb O3 162.2(7) 3 6
O3 Nb O3 86.2(6) 5 6
O3 Nb O3 162.2(7) 2 4
O3 Nb O3 86.2(6) . 4
O3 Nb O3 86.2(6) 3 4
O3 Nb O3 83.3(6) 5 4
O3 Nb O3 107.2(9) 6 4
O3 Nb Ga3 54.2(5) 2 1_656
O3 Nb Ga3 159.8(5) . 1_656
O3 Nb Ga3 98.1(4) 3 1_656
O3 Nb Ga3 32.2(3) 5 1_656
O3 Nb Ga3 87.2(4) 6 1_656
O3 Nb Ga3 113.7(3) 4 1_656
O3 Nb Ga3 32.2(3) 2 4_446
O3 Nb Ga3 98.1(4) . 4_446
O3 Nb Ga3 113.7(3) 3 4_446
O3 Nb Ga3 87.2(4) 5 4_446
O3 Nb Ga3 54.2(5) 6 4_446
O3 Nb Ga3 159.8(5) 4 4_446
Ga3 Nb Ga3 61.99(4) 1_656 4_446
O3 Nb Ga3 98.1(4) 2 4_445
O3 Nb Ga3 32.2(3) . 4_445
O3 Nb Ga3 54.2(5) 3 4_445
O3 Nb Ga3 159.8(5) 5 4_445
O3 Nb Ga3 113.7(3) 6 4_445
O3 Nb Ga3 87.2(4) 4 4_445
Ga3 Nb Ga3 145.41(2) 1_656 4_445
Ga3 Nb Ga3 107.03(5) 4_446 4_445
O3 Nb Ga3 113.7(3) 2 1_655
O3 Nb Ga3 87.2(4) . 1_655
O3 Nb Ga3 32.2(3) 3 1_655
O3 Nb Ga3 98.1(4) 5 1_655
O3 Nb Ga3 159.8(5) 6 1_655
O3 Nb Ga3 54.2(5) 4 1_655
Ga3 Nb Ga3 107.03(5) 1_656 1_655
Ga3 Nb Ga3 145.41(2) 4_446 1_655
Ga3 Nb Ga3 61.99(4) 4_445 1_655
O3 Nb Ga3 87.2(4) 2 2_565
O3 Nb Ga3 113.7(3) . 2_565
O3 Nb Ga3 159.8(5) 3 2_565
O3 Nb Ga3 54.2(5) 5 2_565
O3 Nb Ga3 32.2(3) 6 2_565
O3 Nb Ga3 98.1(4) 4 2_565
Ga3 Nb Ga3 61.99(4) 1_656 2_565
Ga3 Nb Ga3 61.99(4) 4_446 2_565
Ga3 Nb Ga3 145.41(2) 4_445 2_565
Ga3 Nb Ga3 145.41(2) 1_655 2_565
O3 Nb Ga3 159.8(5) 2 2_564
O3 Nb Ga3 54.2(5) . 2_564
O3 Nb Ga3 87.2(4) 3 2_564
O3 Nb Ga3 113.7(3) 5 2_564
O3 Nb Ga3 98.1(4) 6 2_564
O3 Nb Ga3 32.2(3) 4 2_564
Ga3 Nb Ga3 145.41(2) 1_656 2_564
Ga3 Nb Ga3 145.41(2) 4_446 2_564
Ga3 Nb Ga3 61.99(4) 4_445 2_564
Ga3 Nb Ga3 61.99(4) 1_655 2_564
Ga3 Nb Ga3 107.03(5) 2_565 2_564
Ga2 O1 La 109.9(4) 2_565 .
Ga2 O1 La 109.9(4) 2_565 2_565
La O1 La 109.0(4) . 2_565
Ga2 O1 La 109.9(4) 2_565 4_455
La O1 La 109.0(4) . 4_455
La O1 La 109.0(4) 2_565 4_455
Ga2 O1 O2 146.4(3) 2_565 2_565
La O1 O2 62.3(4) . 2_565
La O1 O2 52.0(4) 2_565 2_565
La O1 O2 103.2(6) 4_455 2_565
Ga2 O1 O2 146.4(3) 2_565 6
La O1 O2 52.0(4) . 6
La O1 O2 103.2(6) 2_565 6
La O1 O2 62.3(4) 4_455 6
O2 O1 O2 57.2(5) 2_565 6
Ga2 O1 O2 146.4(3) 2_565 5_455
La O1 O2 103.2(6) . 5_455
La O1 O2 62.3(4) 2_565 5_455
La O1 O2 52.0(4) 4_455 5_455
O2 O1 O2 57.2(5) 2_565 5_455
O2 O1 O2 57.2(5) 6 5_455
Ga2 O1 O2 31.4(3) 2_565 2_566
La O1 O2 96.9(3) . 2_566
La O1 O2 88.7(4) 2_565 2_566
La O1 O2 140.7(5) 4_455 2_566
O2 O1 O2 115.0(3) 2_565 2_566
O2 O1 O2 148.77(13) 6 2_566
O2 O1 O2 148.77(13) 5_455 2_566
Ga2 O1 O2 31.4(3) 2_565 6_556
La O1 O2 88.7(4) . 6_556
La O1 O2 140.7(5) 2_565 6_556
La O1 O2 96.9(3) 4_455 6_556
O2 O1 O2 148.77(13) 2_565 6_556
O2 O1 O2 115.0(3) 6 6_556
O2 O1 O2 148.77(13) 5_455 6_556
O2 O1 O2 53.7(5) 2_566 6_556
Ga2 O1 O2 31.4(3) 2_565 5_456
La O1 O2 140.7(5) . 5_456
La O1 O2 96.9(3) 2_565 5_456
La O1 O2 88.7(4) 4_455 5_456
O2 O1 O2 148.77(13) 2_565 5_456
O2 O1 O2 148.77(13) 6 5_456
O2 O1 O2 115.0(3) 5_455 5_456
O2 O1 O2 53.7(5) 2_566 5_456
O2 O1 O2 53.7(5) 6_556 5_456
Ga2 O1 O3 83.6(4) 2_565 6
La O1 O3 48.27(17) . 6
La O1 O3 81.8(3) 2_565 6
La O1 O3 157.2(4) 4_455 6
O2 O1 O3 67.0(5) 2_565 6
O2 O1 O3 96.1(4) 6 6
O2 O1 O3 124.1(5) 5_455 6
O2 O1 O3 56.6(3) 2_566 6
O2 O1 O3 85.4(5) 6_556 6
O2 O1 O3 110.3(5) 5_456 6
Ga2 O1 O3 83.6(4) 2_565 5_455
La O1 O3 81.8(3) . 5_455
La O1 O3 157.2(4) 2_565 5_455
La O1 O3 48.27(18) 4_455 5_455
O2 O1 O3 124.1(5) 2_565 5_455
O2 O1 O3 67.0(5) 6 5_455
O2 O1 O3 96.1(4) 5_455 5_455
O2 O1 O3 110.3(5) 2_566 5_455
O2 O1 O3 56.6(3) 6_556 5_455
O2 O1 O3 85.4(5) 5_456 5_455
O3 O1 O3 118.79(15) 6 5_455
Ga2 O1 O3 83.6(4) 2_565 2_565
La O1 O3 157.2(4) . 2_565
La O1 O3 48.27(17) 2_565 2_565
La O1 O3 81.8(3) 4_455 2_565
O2 O1 O3 96.1(4) 2_565 2_565
O2 O1 O3 124.1(5) 6 2_565
O2 O1 O3 67.0(5) 5_455 2_565
O2 O1 O3 85.4(5) 2_566 2_565
O2 O1 O3 110.3(5) 6_556 2_565
O2 O1 O3 56.6(3) 5_456 2_565
O3 O1 O3 118.79(15) 6 2_565
O3 O1 O3 118.79(15) 5_455 2_565
Ga2 O1 Ga2 179.997(1) 2_565 2_564
La O1 Ga2 70.1(4) . 2_564
La O1 Ga2 70.1(4) 2_565 2_564
La O1 Ga2 70.1(4) 4_455 2_564
O2 O1 Ga2 33.6(3) 2_565 2_564
O2 O1 Ga2 33.6(3) 6 2_564
O2 O1 Ga2 33.6(3) 5_455 2_564
O2 O1 Ga2 148.6(3) 2_566 2_564
O2 O1 Ga2 148.6(3) 6_556 2_564
O2 O1 Ga2 148.6(3) 5_456 2_564
O3 O1 Ga2 96.4(4) 6 2_564
O3 O1 Ga2 96.4(4) 5_455 2_564
O3 O1 Ga2 96.4(4) 2_565 2_564
Ga2 O1 O2 78.7(4) 2_565 3_565
La O1 O2 94.4(2) . 3_565
La O1 O2 42.57(19) 2_565 3_565
La O1 O2 149.3(2) 4_455 3_565
O2 O1 O2 69.9(4) 2_565 3_565
O2 O1 O2 125.8(4) 6 3_565
O2 O1 O2 104.4(5) 5_455 3_565
O2 O1 O2 49.8(5) 2_566 3_565
O2 O1 O2 103.3(4) 6_556 3_565
O2 O1 O2 85.0(3) 5_456 3_565
O3 O1 O2 49.1(3) 6 3_565
O3 O1 O2 159.5(5) 5_455 3_565
O3 O1 O2 69.7(3) 2_565 3_565
Ga2 O1 O2 101.3(4) 2_564 3_565
Ga2 O1 O2 78.7(4) 2_565 .
La O1 O2 42.57(19) . .
La O1 O2 149.3(2) 2_565 .
La O1 O2 94.4(3) 4_455 .
O2 O1 O2 104.4(5) 2_565 .
O2 O1 O2 69.9(4) 6 .
O2 O1 O2 125.8(4) 5_455 .
O2 O1 O2 85.0(3) 2_566 .
O2 O1 O2 49.8(5) 6_556 .
O2 O1 O2 103.3(4) 5_456 .
O3 O1 O2 69.7(3) 6 .
O3 O1 O2 49.1(3) 5_455 .
O3 O1 O2 159.5(5) 2_565 .
Ga2 O1 O2 101.3(4) 2_564 .
O2 O1 O2 116.3(2) 3_565 .
Ga2 O1 O2 78.7(4) 2_565 4_455
La O1 O2 149.3(2) . 4_455
La O1 O2 94.4(3) 2_565 4_455
La O1 O2 42.57(19) 4_455 4_455
O2 O1 O2 125.8(4) 2_565 4_455
O2 O1 O2 104.4(5) 6 4_455
O2 O1 O2 69.9(4) 5_455 4_455
O2 O1 O2 103.3(4) 2_566 4_455
O2 O1 O2 85.0(3) 6_556 4_455
O2 O1 O2 49.8(5) 5_456 4_455
O3 O1 O2 159.5(5) 6 4_455
O3 O1 O2 69.7(3) 5_455 4_455
O3 O1 O2 49.1(3) 2_565 4_455
Ga2 O1 O2 101.3(4) 2_564 4_455
O2 O1 O2 116.3(2) 3_565 4_455
O2 O1 O2 116.3(2) . 4_455
Ga2 O1 Ga3 62.2(2) 2_565 2_565
La O1 Ga3 78.11(9) . 2_565
La O1 Ga3 72.19(9) 2_565 2_565
La O1 Ga3 171.3(5) 4_455 2_565
O2 O1 Ga3 84.4(2) 2_565 2_565
O2 O1 Ga3 126.1(4) 6 2_565
O2 O1 Ga3 132.4(4) 5_455 2_565
O2 O1 Ga3 31.0(2) 2_566 2_565
O2 O1 Ga3 78.0(4) 6_556 2_565
O2 O1 Ga3 82.6(5) 5_456 2_565
O3 O1 Ga3 30.4(2) 6 2_565
O3 O1 Ga3 130.4(4) 5_455 2_565
O3 O1 Ga3 93.4(3) 2_565 2_565
Ga2 O1 Ga3 117.8(2) 2_564 2_565
O2 O1 Ga3 29.92(17) 3_565 2_565
O2 O1 Ga3 87.7(3) . 2_565
O2 O1 Ga3 129.3(4) 4_455 2_565
Ga2 O1 Ga3 62.2(2) 2_565 1_556
La O1 Ga3 72.19(9) . 1_556
La O1 Ga3 171.3(5) 2_565 1_556
La O1 Ga3 78.11(9) 4_455 1_556
O2 O1 Ga3 132.4(4) 2_565 1_556
O2 O1 Ga3 84.4(2) 6 1_556
O2 O1 Ga3 126.1(4) 5_455 1_556
O2 O1 Ga3 82.6(5) 2_566 1_556
O2 O1 Ga3 31.0(2) 6_556 1_556
O2 O1 Ga3 78.0(4) 5_456 1_556
O3 O1 Ga3 93.4(3) 6 1_556
O3 O1 Ga3 30.4(2) 5_455 1_556
O3 O1 Ga3 130.4(4) 2_565 1_556
Ga2 O1 Ga3 117.8(2) 2_564 1_556
O2 O1 Ga3 129.3(4) 3_565 1_556
O2 O1 Ga3 29.92(16) . 1_556
O2 O1 Ga3 87.7(3) 4_455 1_556
Ga3 O1 Ga3 100.0(3) 2_565 1_556
Ga2 O1 Ga3 62.2(2) 2_565 4_456
La O1 Ga3 171.3(5) . 4_456
La O1 Ga3 78.11(9) 2_565 4_456
La O1 Ga3 72.19(9) 4_455 4_456
O2 O1 Ga3 126.1(4) 2_565 4_456
O2 O1 Ga3 132.4(4) 6 4_456
O2 O1 Ga3 84.4(2) 5_455 4_456
O2 O1 Ga3 78.0(4) 2_566 4_456
O2 O1 Ga3 82.6(5) 6_556 4_456
O2 O1 Ga3 31.0(2) 5_456 4_456
O3 O1 Ga3 130.4(4) 6 4_456
O3 O1 Ga3 93.4(3) 5_455 4_456
O3 O1 Ga3 30.4(2) 2_565 4_456
Ga2 O1 Ga3 117.8(2) 2_564 4_456
O2 O1 Ga3 87.7(3) 3_565 4_456
O2 O1 Ga3 129.3(4) . 4_456
O2 O1 Ga3 29.92(17) 4_455 4_456
Ga3 O1 Ga3 100.0(3) 2_565 4_456
Ga3 O1 Ga3 100.0(3) 1_556 4_456
Ga2 O1 O3 118.7(3) 2_565 .
La O1 O3 27.58(18) . .
La O1 O3 81.6(3) 2_565 .
La O1 O3 122.8(5) 4_455 .
O2 O1 O3 39.9(4) 2_565 .
O2 O1 O3 60.6(4) 6 .
O2 O1 O3 93.3(5) 5_455 .
O2 O1 O3 93.6(3) 2_566 .
O2 O1 O3 108.9(4) 6_556 .
O2 O1 O3 147.3(5) 5_456 .
O3 O1 O3 37.0(4) 6 .
O3 O1 O3 108.5(4) 5_455 .
O3 O1 O3 129.8(4) 2_565 .
Ga2 O1 O3 61.3(3) 2_564 .
O2 O1 O3 71.8(3) 3_565 .
O2 O1 O3 68.9(2) . .
O2 O1 O3 162.5(6) 4_455 .
Ga3 O1 O3 65.75(17) 2_565 .
Ga3 O1 O3 98.84(18) 1_556 .
Ga3 O1 O3 158.15(13) 4_456 .
Ga2 O1 O3 118.7(3) 2_565 4_455
La O1 O3 81.6(3) . 4_455
La O1 O3 122.8(5) 2_565 4_455
La O1 O3 27.58(18) 4_455 4_455
O2 O1 O3 93.3(5) 2_565 4_455
O2 O1 O3 39.9(4) 6 4_455
O2 O1 O3 60.6(4) 5_455 4_455
O2 O1 O3 147.3(5) 2_566 4_455
O2 O1 O3 93.6(3) 6_556 4_455
O2 O1 O3 108.8(4) 5_456 4_455
O3 O1 O3 129.8(4) 6 4_455
O3 O1 O3 37.0(4) 5_455 4_455
O3 O1 O3 108.5(4) 2_565 4_455
Ga2 O1 O3 61.3(3) 2_564 4_455
O2 O1 O3 162.5(6) 3_565 4_455
O2 O1 O3 71.8(3) . 4_455
O2 O1 O3 68.9(2) 4_455 4_455
Ga3 O1 O3 158.15(13) 2_565 4_455
Ga3 O1 O3 65.75(17) 1_556 4_455
Ga3 O1 O3 98.84(18) 4_456 4_455
O3 O1 O3 98.9(4) . 4_455
Ga2 O1 O3 118.7(3) 2_565 3_565
La O1 O3 122.8(5) . 3_565
La O1 O3 27.58(18) 2_565 3_565
La O1 O3 81.6(3) 4_455 3_565
O2 O1 O3 60.6(4) 2_565 3_565
O2 O1 O3 93.3(5) 6 3_565
O2 O1 O3 39.9(4) 5_455 3_565
O2 O1 O3 108.8(4) 2_566 3_565
O2 O1 O3 147.3(5) 6_556 3_565
O2 O1 O3 93.6(3) 5_456 3_565
O3 O1 O3 108.5(4) 6 3_565
O3 O1 O3 129.8(4) 5_455 3_565
O3 O1 O3 37.0(4) 2_565 3_565
Ga2 O1 O3 61.3(3) 2_564 3_565
O2 O1 O3 68.9(2) 3_565 3_565
O2 O1 O3 162.5(6) . 3_565
O2 O1 O3 71.8(3) 4_455 3_565
Ga3 O1 O3 98.84(18) 2_565 3_565
Ga3 O1 O3 158.15(13) 1_556 3_565
Ga3 O1 O3 65.75(17) 4_456 3_565
O3 O1 O3 98.9(4) . 3_565
O3 O1 O3 98.9(4) 4_455 3_565
Ga2 O1 Ga3 137.04(14) 2_565 2_564
La O1 Ga3 58.0(2) . 2_564
La O1 Ga3 52.6(2) 2_565 2_564
La O1 Ga3 112.9(5) 4_455 2_564
O2 O1 Ga3 10.0(3) 2_565 2_564
O2 O1 Ga3 63.0(4) 6 2_564
O2 O1 Ga3 67.1(3) 5_455 2_564
O2 O1 Ga3 105.7(2) 2_566 2_564
O2 O1 Ga3 140.4(3) 6_556 2_564
O2 O1 Ga3 146.3(3) 5_456 2_564
O3 O1 Ga3 57.1(3) 6 2_564
O3 O1 Ga3 128.4(4) 5_455 2_564
O3 O1 Ga3 99.5(3) 2_565 2_564
Ga2 O1 Ga3 42.96(14) 2_564 2_564
O2 O1 Ga3 63.0(3) 3_565 2_564
O2 O1 Ga3 100.5(2) . 2_564
O2 O1 Ga3 134.6(4) 4_455 2_564
Ga3 O1 Ga3 74.83(10) 2_565 2_564
Ga3 O1 Ga3 129.99(15) 1_556 2_564
Ga3 O1 Ga3 129.99(15) 4_456 2_564
O3 O1 Ga3 32.9(2) . 2_564
O3 O1 Ga3 101.0(4) 4_455 2_564
O3 O1 Ga3 66.1(2) 3_565 2_564
Ga2 O1 Ga3 137.04(14) 2_565 .
La O1 Ga3 52.6(2) . .
La O1 Ga3 112.9(5) 2_565 .
La O1 Ga3 58.0(2) 4_455 .
O2 O1 Ga3 67.1(3) 2_565 .
O2 O1 Ga3 10.0(3) 6 .
O2 O1 Ga3 63.0(4) 5_455 .
O2 O1 Ga3 146.3(3) 2_566 .
O2 O1 Ga3 105.7(2) 6_556 .
O2 O1 Ga3 140.4(3) 5_456 .
O3 O1 Ga3 99.5(3) 6 .
O3 O1 Ga3 57.1(3) 5_455 .
O3 O1 Ga3 128.4(4) 2_565 .
Ga2 O1 Ga3 42.96(14) 2_564 .
O2 O1 Ga3 134.6(4) 3_565 .
O2 O1 Ga3 63.0(3) . .
O2 O1 Ga3 100.5(2) 4_455 .
Ga3 O1 Ga3 129.99(15) 2_565 .
Ga3 O1 Ga3 74.83(10) 1_556 .
Ga3 O1 Ga3 129.99(15) 4_456 .
O3 O1 Ga3 66.1(2) . .
O3 O1 Ga3 32.9(2) 4_455 .
O3 O1 Ga3 101.0(4) 3_565 .
Ga3 O1 Ga3 72.3(2) 2_564 .
Ga2 O1 Ga3 137.04(14) 2_565 4_455
La O1 Ga3 112.9(5) . 4_455
La O1 Ga3 58.0(2) 2_565 4_455
La O1 Ga3 52.6(2) 4_455 4_455
O2 O1 Ga3 63.0(4) 2_565 4_455
O2 O1 Ga3 67.0(3) 6 4_455
O2 O1 Ga3 10.0(3) 5_455 4_455
O2 O1 Ga3 140.4(3) 2_566 4_455
O2 O1 Ga3 146.3(3) 6_556 4_455
O2 O1 Ga3 105.7(2) 5_456 4_455
O3 O1 Ga3 128.4(4) 6 4_455
O3 O1 Ga3 99.5(3) 5_455 4_455
O3 O1 Ga3 57.1(3) 2_565 4_455
Ga2 O1 Ga3 42.96(14) 2_564 4_455
O2 O1 Ga3 100.5(2) 3_565 4_455
O2 O1 Ga3 134.6(4) . 4_455
O2 O1 Ga3 63.0(3) 4_455 4_455
Ga3 O1 Ga3 129.99(15) 2_565 4_455
Ga3 O1 Ga3 129.99(15) 1_556 4_455
Ga3 O1 Ga3 74.83(10) 4_456 4_455
O3 O1 Ga3 101.0(4) . 4_455
O3 O1 Ga3 66.1(2) 4_455 4_455
O3 O1 Ga3 32.9(2) 3_565 4_455
Ga3 O1 Ga3 72.3(2) 2_564 4_455
Ga3 O1 Ga3 72.3(2) . 4_455
Ga2 O1 Nb 100.6(2) 2_565 .
La O1 Nb 45.93(4) . .
La O1 Nb 70.80(9) 2_565 .
La O1 Nb 146.8(5) 4_455 .
O2 O1 Nb 49.2(3) 2_565 .
O2 O1 Nb 85.1(4) 6 .
O2 O1 Nb 106.3(4) 5_455 .
O2 O1 Nb 71.57(18) 2_566 .
O2 O1 Nb 102.7(3) 6_556 .
O2 O1 Nb 124.4(4) 5_456 .
O3 O1 Nb 17.8(3) 6 .
O3 O1 Nb 126.1(2) 5_455 .
O3 O1 Nb 115.1(2) 2_565 .
Ga2 O1 Nb 79.4(2) 2_564 .
O2 O1 Nb 48.8(3) 3_565 .
O2 O1 Nb 78.75(16) . .
O2 O1 Nb 164.14(19) 4_455 .
Ga3 O1 Nb 41.81(3) 2_565 .
Ga3 O1 Nb 106.13(8) 1_556 .
Ga3 O1 Nb 136.36(16) 4_456 .
O3 O1 Nb 24.72(15) . .
O3 O1 Nb 123.6(3) 4_455 .
O3 O1 Nb 95.28(19) 3_565 .
Ga3 O1 Nb 39.29(7) 2_564 .
Ga3 O1 Nb 90.82(19) . .
Ga3 O1 Nb 111.0(3) 4_455 .
Ga2 O1 Ga1 100.6(2) 2_565 .
La O1 Ga1 45.93(4) . .
La O1 Ga1 70.80(9) 2_565 .
La O1 Ga1 146.8(5) 4_455 .
O2 O1 Ga1 49.2(3) 2_565 .
O2 O1 Ga1 85.1(4) 6 .
O2 O1 Ga1 106.3(4) 5_455 .
O2 O1 Ga1 71.57(18) 2_566 .
O2 O1 Ga1 102.7(3) 6_556 .
O2 O1 Ga1 124.4(4) 5_456 .
O3 O1 Ga1 17.8(3) 6 .
O3 O1 Ga1 126.1(2) 5_455 .
O3 O1 Ga1 115.1(2) 2_565 .
Ga2 O1 Ga1 79.4(2) 2_564 .
O2 O1 Ga1 48.8(3) 3_565 .
O2 O1 Ga1 78.75(16) . .
O2 O1 Ga1 164.14(19) 4_455 .
Ga3 O1 Ga1 41.81(3) 2_565 .
Ga3 O1 Ga1 106.13(8) 1_556 .
Ga3 O1 Ga1 136.36(16) 4_456 .
O3 O1 Ga1 24.72(15) . .
O3 O1 Ga1 123.6(3) 4_455 .
O3 O1 Ga1 95.28(19) 3_565 .
Ga3 O1 Ga1 39.29(7) 2_564 .
Ga3 O1 Ga1 90.82(19) . .
Ga3 O1 Ga1 111.0(3) 4_455 .
Nb O1 Ga1 0.0 . .
Ga2 O1 Nb 100.6(2) 2_565 1_455
La O1 Nb 70.80(9) . 1_455
La O1 Nb 146.8(5) 2_565 1_455
La O1 Nb 45.93(4) 4_455 1_455
O2 O1 Nb 106.3(4) 2_565 1_455
O2 O1 Nb 49.2(3) 6 1_455
O2 O1 Nb 85.1(4) 5_455 1_455
O2 O1 Nb 124.4(4) 2_566 1_455
O2 O1 Nb 71.57(18) 6_556 1_455
O2 O1 Nb 102.7(3) 5_456 1_455
O3 O1 Nb 115.1(2) 6 1_455
O3 O1 Nb 17.8(3) 5_455 1_455
O3 O1 Nb 126.1(2) 2_565 1_455
Ga2 O1 Nb 79.4(2) 2_564 1_455
O2 O1 Nb 164.14(19) 3_565 1_455
O2 O1 Nb 48.8(3) . 1_455
O2 O1 Nb 78.75(16) 4_455 1_455
Ga3 O1 Nb 136.36(16) 2_565 1_455
Ga3 O1 Nb 41.81(3) 1_556 1_455
Ga3 O1 Nb 106.13(8) 4_456 1_455
O3 O1 Nb 95.28(19) . 1_455
O3 O1 Nb 24.72(15) 4_455 1_455
O3 O1 Nb 123.6(3) 3_565 1_455
Ga3 O1 Nb 111.0(3) 2_564 1_455
Ga3 O1 Nb 39.29(7) . 1_455
Ga3 O1 Nb 90.82(19) 4_455 1_455
Nb O1 Nb 116.72(12) . 1_455
Ga1 O1 Nb 116.72(12) . 1_455
Ga2 O1 Ga1 100.6(2) 2_565 1_455
La O1 Ga1 70.80(9) . 1_455
La O1 Ga1 146.8(5) 2_565 1_455
La O1 Ga1 45.93(4) 4_455 1_455
O2 O1 Ga1 106.3(4) 2_565 1_455
O2 O1 Ga1 49.2(3) 6 1_455
O2 O1 Ga1 85.1(4) 5_455 1_455
O2 O1 Ga1 124.4(4) 2_566 1_455
O2 O1 Ga1 71.57(18) 6_556 1_455
O2 O1 Ga1 102.7(3) 5_456 1_455
O3 O1 Ga1 115.1(2) 6 1_455
O3 O1 Ga1 17.8(3) 5_455 1_455
O3 O1 Ga1 126.1(2) 2_565 1_455
Ga2 O1 Ga1 79.4(2) 2_564 1_455
O2 O1 Ga1 164.14(19) 3_565 1_455
O2 O1 Ga1 48.8(3) . 1_455
O2 O1 Ga1 78.75(16) 4_455 1_455
Ga3 O1 Ga1 136.36(16) 2_565 1_455
Ga3 O1 Ga1 41.81(3) 1_556 1_455
Ga3 O1 Ga1 106.13(8) 4_456 1_455
O3 O1 Ga1 95.28(19) . 1_455
O3 O1 Ga1 24.72(15) 4_455 1_455
O3 O1 Ga1 123.6(3) 3_565 1_455
Ga3 O1 Ga1 111.0(3) 2_564 1_455
Ga3 O1 Ga1 39.29(7) . 1_455
Ga3 O1 Ga1 90.82(19) 4_455 1_455
Nb O1 Ga1 116.72(12) . 1_455
Ga1 O1 Ga1 116.72(12) . 1_455
Nb O1 Ga1 0.0 1_455 1_455
Ga2 O1 Ga1 100.6(2) 2_565 1_565
La O1 Ga1 146.8(5) . 1_565
La O1 Ga1 45.93(4) 2_565 1_565
La O1 Ga1 70.80(9) 4_455 1_565
O2 O1 Ga1 85.1(4) 2_565 1_565
O2 O1 Ga1 106.3(4) 6 1_565
O2 O1 Ga1 49.2(3) 5_455 1_565
O2 O1 Ga1 102.7(3) 2_566 1_565
O2 O1 Ga1 124.4(4) 6_556 1_565
O2 O1 Ga1 71.57(18) 5_456 1_565
O3 O1 Ga1 126.1(2) 6 1_565
O3 O1 Ga1 115.1(2) 5_455 1_565
O3 O1 Ga1 17.8(3) 2_565 1_565
Ga2 O1 Ga1 79.4(2) 2_564 1_565
O2 O1 Ga1 78.75(16) 3_565 1_565
O2 O1 Ga1 164.14(19) . 1_565
O2 O1 Ga1 48.8(3) 4_455 1_565
Ga3 O1 Ga1 106.13(8) 2_565 1_565
Ga3 O1 Ga1 136.36(16) 1_556 1_565
Ga3 O1 Ga1 41.81(4) 4_456 1_565
O3 O1 Ga1 123.6(3) . 1_565
O3 O1 Ga1 95.28(19) 4_455 1_565
O3 O1 Ga1 24.72(15) 3_565 1_565
Ga3 O1 Ga1 90.82(19) 2_564 1_565
Ga3 O1 Ga1 111.0(3) . 1_565
Ga3 O1 Ga1 39.29(7) 4_455 1_565
Nb O1 Ga1 116.72(12) . 1_565
Ga1 O1 Ga1 116.72(12) . 1_565
Nb O1 Ga1 116.72(12) 1_455 1_565
Ga1 O1 Ga1 116.72(12) 1_455 1_565
Ga2 O1 Nb 100.6(2) 2_565 1_565
La O1 Nb 146.8(5) . 1_565
La O1 Nb 45.93(4) 2_565 1_565
La O1 Nb 70.80(9) 4_455 1_565
O2 O1 Nb 85.1(4) 2_565 1_565
O2 O1 Nb 106.3(4) 6 1_565
O2 O1 Nb 49.2(3) 5_455 1_565
O2 O1 Nb 102.7(3) 2_566 1_565
O2 O1 Nb 124.4(4) 6_556 1_565
O2 O1 Nb 71.57(18) 5_456 1_565
O3 O1 Nb 126.1(2) 6 1_565
O3 O1 Nb 115.1(2) 5_455 1_565
O3 O1 Nb 17.8(3) 2_565 1_565
Ga2 O1 Nb 79.4(2) 2_564 1_565
O2 O1 Nb 78.75(16) 3_565 1_565
O2 O1 Nb 164.14(19) . 1_565
O2 O1 Nb 48.8(3) 4_455 1_565
Ga3 O1 Nb 106.13(8) 2_565 1_565
Ga3 O1 Nb 136.36(16) 1_556 1_565
Ga3 O1 Nb 41.81(4) 4_456 1_565
O3 O1 Nb 123.6(3) . 1_565
O3 O1 Nb 95.28(19) 4_455 1_565
O3 O1 Nb 24.72(15) 3_565 1_565
Ga3 O1 Nb 90.82(19) 2_564 1_565
Ga3 O1 Nb 111.0(3) . 1_565
Ga3 O1 Nb 39.29(7) 4_455 1_565
Nb O1 Nb 116.72(12) . 1_565
Ga1 O1 Nb 116.72(12) . 1_565
Nb O1 Nb 116.72(12) 1_455 1_565
Ga1 O1 Nb 116.72(12) 1_455 1_565
Ga1 O1 Nb 0.0 1_565 1_565
Ga2 O1 O2 81.6(3) 2_565 4_445
La O1 O2 29.1(2) . 4_445
La O1 O2 114.84(14) 2_565 4_445
La O1 O2 127.13(14) 4_455 4_445
O2 O1 O2 82.8(5) 2_565 4_445
O2 O1 O2 79.8(3) 6 4_445
O2 O1 O2 131.9(4) 5_455 4_445
O2 O1 O2 69.0(3) 2_566 4_445
O2 O1 O2 66.0(5) 6_556 4_445
O2 O1 O2 113.0(4) 5_456 4_445
O3 O1 O2 34.4(3) 6 4_445
O3 O1 O2 84.5(2) 5_455 4_445
O3 O1 O2 150.7(4) 2_565 4_445
Ga2 O1 O2 98.4(3) 2_564 4_445
O2 O1 O2 82.6(3) 3_565 4_445
O2 O1 O2 35.5(3) . 4_445
O2 O1 O2 149.0(5) 4_455 4_445
Ga3 O1 O2 57.36(13) 2_565 4_445
Ga3 O1 O2 61.88(15) 1_556 4_445
Ga3 O1 O2 143.7(4) 4_456 4_445
O3 O1 O2 42.9(3) . 4_445
O3 O1 O2 100.79(19) 4_455 4_445
O3 O1 O2 139.2(3) 3_565 4_445
Ga3 O1 O2 75.17(18) 2_564 4_445
Ga3 O1 O2 78.26(16) . 4_445
Ga3 O1 O2 141.3(4) 4_455 4_445
Nb O1 O2 44.29(14) . 4_445
Ga1 O1 O2 44.29(14) . 4_445
Nb O1 O2 81.63(11) 1_455 4_445
Ga1 O1 O2 81.63(11) 1_455 4_445
Ga1 O1 O2 160.37(12) 1_565 4_445
Nb O1 O2 160.37(12) 1_565 4_445
Ga2 O1 O2 81.6(3) 2_565 1_665
La O1 O2 127.13(14) . 1_665
La O1 O2 29.1(2) 2_565 1_665
La O1 O2 114.84(14) 4_455 1_665
O2 O1 O2 79.8(3) 2_565 1_665
O2 O1 O2 131.9(4) 6 1_665
O2 O1 O2 82.8(5) 5_455 1_665
O2 O1 O2 66.0(5) 2_566 1_665
O2 O1 O2 113.0(4) 6_556 1_665
O2 O1 O2 69.0(3) 5_456 1_665
O3 O1 O2 84.5(2) 6 1_665
O3 O1 O2 150.7(4) 5_455 1_665
O3 O1 O2 34.4(3) 2_565 1_665
Ga2 O1 O2 98.4(3) 2_564 1_665
O2 O1 O2 35.5(3) 3_565 1_665
O2 O1 O2 149.0(5) . 1_665
O2 O1 O2 82.6(3) 4_455 1_665
Ga3 O1 O2 61.88(15) 2_565 1_665
Ga3 O1 O2 143.7(4) 1_556 1_665
Ga3 O1 O2 57.36(13) 4_456 1_665
O3 O1 O2 100.79(19) . 1_665
O3 O1 O2 139.2(3) 4_455 1_665
O3 O1 O2 42.9(3) 3_565 1_665
Ga3 O1 O2 78.26(16) 2_564 1_665
Ga3 O1 O2 141.3(4) . 1_665
Ga3 O1 O2 75.17(18) 4_455 1_665
Nb O1 O2 81.63(11) . 1_665
Ga1 O1 O2 81.63(11) . 1_665
Nb O1 O2 160.37(12) 1_455 1_665
Ga1 O1 O2 160.37(12) 1_455 1_665
Ga1 O1 O2 44.29(14) 1_565 1_665
Nb O1 O2 44.29(14) 1_565 1_665
O2 O1 O2 117.90(13) 4_445 1_665
Ga2 O1 O2 81.6(3) 2_565 3_465
La O1 O2 114.84(14) . 3_465
La O1 O2 127.13(14) 2_565 3_465
La O1 O2 29.1(2) 4_455 3_465
O2 O1 O2 131.9(4) 2_565 3_465
O2 O1 O2 82.8(5) 6 3_465
O2 O1 O2 79.8(3) 5_455 3_465
O2 O1 O2 113.0(4) 2_566 3_465
O2 O1 O2 69.0(3) 6_556 3_465
O2 O1 O2 66.0(5) 5_456 3_465
O3 O1 O2 150.7(4) 6 3_465
O3 O1 O2 34.4(3) 5_455 3_465
O3 O1 O2 84.5(2) 2_565 3_465
Ga2 O1 O2 98.4(3) 2_564 3_465
O2 O1 O2 149.0(5) 3_565 3_465
O2 O1 O2 82.6(3) . 3_465
O2 O1 O2 35.5(3) 4_455 3_465
Ga3 O1 O2 143.7(4) 2_565 3_465
Ga3 O1 O2 57.36(13) 1_556 3_465
Ga3 O1 O2 61.88(15) 4_456 3_465
O3 O1 O2 139.2(3) . 3_465
O3 O1 O2 42.9(3) 4_455 3_465
O3 O1 O2 100.79(19) 3_565 3_465
Ga3 O1 O2 141.3(4) 2_564 3_465
Ga3 O1 O2 75.17(18) . 3_465
Ga3 O1 O2 78.26(16) 4_455 3_465
Nb O1 O2 160.37(12) . 3_465
Ga1 O1 O2 160.37(12) . 3_465
Nb O1 O2 44.29(14) 1_455 3_465
Ga1 O1 O2 44.29(14) 1_455 3_465
Ga1 O1 O2 81.62(11) 1_565 3_465
Nb O1 O2 81.62(11) 1_565 3_465
O2 O1 O2 117.90(12) 4_445 3_465
O2 O1 O2 117.90(12) 1_665 3_465
Ga2 O1 O3 51.8(2) 2_565 1_556
La O1 O3 64.1(2) . 1_556
La O1 O3 103.1(2) 2_565 1_556
La O1 O3 147.4(3) 4_455 1_556
O2 O1 O3 100.7(3) 2_565 1_556
O2 O1 O3 115.6(3) 6 1_556
O2 O1 O3 157.8(4) 5_455 1_556
O2 O1 O3 33.2(3) 2_566 1_556
O2 O1 O3 52.8(3) 6_556 1_556
O2 O1 O3 82.0(4) 5_456 1_556
O3 O1 O3 33.7(4) 6 1_556
O3 O1 O3 99.7(3) 5_455 1_556
O3 O1 O3 117.3(4) 2_565 1_556
Ga2 O1 O3 128.2(2) 2_564 1_556
O2 O1 O3 61.0(2) 3_565 1_556
O2 O1 O3 58.2(3) . 1_556
O2 O1 O3 130.5(5) 4_455 1_556
Ga3 O1 O3 31.06(15) 2_565 1_556
Ga3 O1 O3 69.5(2) 1_556 1_556
Ga3 O1 O3 110.1(4) 4_456 1_556
O3 O1 O3 66.83(19) . 1_556
O3 O1 O3 129.90(12) 4_455 1_556
O3 O1 O3 129.90(12) 3_565 1_556
Ga3 O1 O3 90.81(13) 2_564 1_556
Ga3 O1 O3 113.81(12) . 1_556
Ga3 O1 O3 159.80(19) 4_455 1_556
Nb O1 O3 51.52(13) . 1_556
Ga1 O1 O3 51.52(13) . 1_556
Nb O1 O3 105.92(17) 1_455 1_556
Ga1 O1 O3 105.92(17) 1_455 1_556
Ga1 O1 O3 133.4(2) 1_565 1_556
Nb O1 O3 133.4(2) 1_565 1_556
O2 O1 O3 35.9(2) 4_445 1_556
O2 O1 O3 90.8(2) 1_665 1_556
O2 O1 O3 121.6(3) 3_465 1_556
Ga2 O1 O3 51.8(2) 2_565 3_566
La O1 O3 147.4(3) . 3_566
La O1 O3 64.1(2) 2_565 3_566
La O1 O3 103.1(2) 4_455 3_566
O2 O1 O3 115.6(3) 2_565 3_566
O2 O1 O3 157.7(4) 6 3_566
O2 O1 O3 100.7(3) 5_455 3_566
O2 O1 O3 52.8(3) 2_566 3_566
O2 O1 O3 82.0(4) 6_556 3_566
O2 O1 O3 33.2(3) 5_456 3_566
O3 O1 O3 99.7(3) 6 3_566
O3 O1 O3 117.3(4) 5_455 3_566
O3 O1 O3 33.7(4) 2_565 3_566
Ga2 O1 O3 128.2(2) 2_564 3_566
O2 O1 O3 58.2(3) 3_565 3_566
O2 O1 O3 130.5(5) . 3_566
O2 O1 O3 61.0(2) 4_455 3_566
Ga3 O1 O3 69.5(2) 2_565 3_566
Ga3 O1 O3 110.1(4) 1_556 3_566
Ga3 O1 O3 31.06(15) 4_456 3_566
O3 O1 O3 129.90(12) . 3_566
O3 O1 O3 129.90(12) 4_455 3_566
O3 O1 O3 66.83(19) 3_565 3_566
Ga3 O1 O3 113.81(12) 2_564 3_566
Ga3 O1 O3 159.80(19) . 3_566
Ga3 O1 O3 90.81(13) 4_455 3_566
Nb O1 O3 105.92(17) . 3_566
Ga1 O1 O3 105.92(17) . 3_566
Nb O1 O3 133.4(2) 1_455 3_566
Ga1 O1 O3 133.4(2) 1_455 3_566
Ga1 O1 O3 51.52(14) 1_565 3_566
Nb O1 O3 51.52(14) 1_565 3_566
O2 O1 O3 121.6(3) 4_445 3_566
O2 O1 O3 35.9(2) 1_665 3_566
O2 O1 O3 90.8(2) 3_465 3_566
O3 O1 O3 85.8(3) 1_556 3_566
Ga2 O1 O3 51.8(2) 2_565 4_456
La O1 O3 103.1(2) . 4_456
La O1 O3 147.4(3) 2_565 4_456
La O1 O3 64.1(2) 4_455 4_456
O2 O1 O3 157.8(4) 2_565 4_456
O2 O1 O3 100.7(3) 6 4_456
O2 O1 O3 115.6(3) 5_455 4_456
O2 O1 O3 82.0(4) 2_566 4_456
O2 O1 O3 33.2(3) 6_556 4_456
O2 O1 O3 52.8(3) 5_456 4_456
O3 O1 O3 117.3(4) 6 4_456
O3 O1 O3 33.7(4) 5_455 4_456
O3 O1 O3 99.7(3) 2_565 4_456
Ga2 O1 O3 128.2(2) 2_564 4_456
O2 O1 O3 130.5(5) 3_565 4_456
O2 O1 O3 61.0(2) . 4_456
O2 O1 O3 58.2(3) 4_455 4_456
Ga3 O1 O3 110.1(4) 2_565 4_456
Ga3 O1 O3 31.06(15) 1_556 4_456
Ga3 O1 O3 69.5(2) 4_456 4_456
O3 O1 O3 129.90(12) . 4_456
O3 O1 O3 66.83(19) 4_455 4_456
O3 O1 O3 129.90(12) 3_565 4_456
Ga3 O1 O3 159.80(19) 2_564 4_456
Ga3 O1 O3 90.81(13) . 4_456
Ga3 O1 O3 113.81(12) 4_455 4_456
Nb O1 O3 133.4(2) . 4_456
Ga1 O1 O3 133.4(2) . 4_456
Nb O1 O3 51.52(14) 1_455 4_456
Ga1 O1 O3 51.52(14) 1_455 4_456
Ga1 O1 O3 105.92(17) 1_565 4_456
Nb O1 O3 105.92(17) 1_565 4_456
O2 O1 O3 90.8(2) 4_445 4_456
O2 O1 O3 121.6(3) 1_665 4_456
O2 O1 O3 35.9(2) 3_465 4_456
O3 O1 O3 85.8(3) 1_556 4_456
O3 O1 O3 85.8(3) 3_566 4_456
Ga2 O1 La 29.60(10) 2_565 1_556
La O1 La 80.3(3) . 1_556
La O1 La 121.9(3) 2_565 1_556
La O1 La 121.9(3) 4_455 1_556
O2 O1 La 129.0(3) 2_565 1_556
O2 O1 La 123.4(2) 6 1_556
O2 O1 La 173.6(3) 5_455 1_556
O2 O1 La 33.8(4) 2_566 1_556
O2 O1 La 25.0(3) 6_556 1_556
O2 O1 La 60.8(3) 5_456 1_556
O3 O1 La 62.2(3) 6 1_556
O3 O1 La 79.0(3) 5_455 1_556
O3 O1 La 111.6(5) 2_565 1_556
Ga2 O1 La 150.40(10) 2_564 1_556
O2 O1 La 80.5(3) 3_565 1_556
O2 O1 La 53.7(3) . 1_556
O2 O1 La 104.3(4) 4_455 1_556
Ga3 O1 La 53.34(18) 2_565 1_556
Ga3 O1 La 49.49(17) 1_556 1_556
Ga3 O1 La 91.7(3) 4_456 1_556
O3 O1 La 92.2(3) . 1_556
O3 O1 La 115.2(2) 4_455 1_556
O3 O1 La 142.0(3) 3_565 1_556
Ga3 O1 La 119.25(5) 2_564 1_556
Ga3 O1 La 116.63(5) . 1_556
Ga3 O1 La 166.4(2) 4_455 1_556
Nb O1 La 80.01(12) . 1_556
Ga1 O1 La 80.01(12) . 1_556
Nb O1 La 91.10(14) 1_455 1_556
Ga1 O1 La 91.10(14) 1_455 1_556
Ga1 O1 La 129.2(3) 1_565 1_556
Nb O1 La 129.2(3) 1_565 1_556
O2 O1 La 52.2(2) 4_445 1_556
O2 O1 La 99.4(3) 1_665 1_556
O2 O1 La 93.9(3) 3_465 1_556
O3 O1 La 28.65(15) 1_556 1_556
O3 O1 La 78.2(3) 3_566 1_556
O3 O1 La 58.1(2) 4_456 1_556
Ga2 O1 La 29.60(10) 2_565 2_566
La O1 La 121.9(3) . 2_566
La O1 La 80.3(3) 2_565 2_566
La O1 La 121.9(3) 4_455 2_566
O2 O1 La 123.4(2) 2_565 2_566
O2 O1 La 173.6(3) 6 2_566
O2 O1 La 129.0(3) 5_455 2_566
O2 O1 La 25.0(3) 2_566 2_566
O2 O1 La 60.8(3) 6_556 2_566
O2 O1 La 33.8(4) 5_456 2_566
O3 O1 La 79.0(3) 6 2_566
O3 O1 La 111.6(5) 5_455 2_566
O3 O1 La 62.2(3) 2_565 2_566
Ga2 O1 La 150.40(10) 2_564 2_566
O2 O1 La 53.7(3) 3_565 2_566
O2 O1 La 104.3(4) . 2_566
O2 O1 La 80.5(3) 4_455 2_566
Ga3 O1 La 49.49(17) 2_565 2_566
Ga3 O1 La 91.7(3) 1_556 2_566
Ga3 O1 La 53.34(18) 4_456 2_566
O3 O1 La 115.2(2) . 2_566
O3 O1 La 142.0(4) 4_455 2_566
O3 O1 La 92.2(3) 3_565 2_566
Ga3 O1 La 116.63(5) 2_564 2_566
Ga3 O1 La 166.4(2) . 2_566
Ga3 O1 La 119.25(5) 4_455 2_566
Nb O1 La 91.10(14) . 2_566
Ga1 O1 La 91.10(14) . 2_566
Nb O1 La 129.2(3) 1_455 2_566
Ga1 O1 La 129.2(3) 1_455 2_566
Ga1 O1 La 80.01(12) 1_565 2_566
Nb O1 La 80.01(12) 1_565 2_566
O2 O1 La 93.9(3) 4_445 2_566
O2 O1 La 52.2(2) 1_665 2_566
O2 O1 La 99.4(3) 3_465 2_566
O3 O1 La 58.1(2) 1_556 2_566
O3 O1 La 28.65(15) 3_566 2_566
O3 O1 La 78.2(3) 4_456 2_566
La O1 La 50.65(16) 1_556 2_566
Ga2 O1 La 29.60(10) 2_565 4_456
La O1 La 121.9(3) . 4_456
La O1 La 121.9(3) 2_565 4_456
La O1 La 80.3(3) 4_455 4_456
O2 O1 La 173.6(3) 2_565 4_456
O2 O1 La 129.0(3) 6 4_456
O2 O1 La 123.4(2) 5_455 4_456
O2 O1 La 60.8(3) 2_566 4_456
O2 O1 La 33.8(4) 6_556 4_456
O2 O1 La 25.0(3) 5_456 4_456
O3 O1 La 111.6(5) 6 4_456
O3 O1 La 62.2(3) 5_455 4_456
O3 O1 La 79.0(3) 2_565 4_456
Ga2 O1 La 150.40(10) 2_564 4_456
O2 O1 La 104.3(4) 3_565 4_456
O2 O1 La 80.5(3) . 4_456
O2 O1 La 53.7(3) 4_455 4_456
Ga3 O1 La 91.7(3) 2_565 4_456
Ga3 O1 La 53.34(18) 1_556 4_456
Ga3 O1 La 49.49(17) 4_456 4_456
O3 O1 La 142.0(4) . 4_456
O3 O1 La 92.2(3) 4_455 4_456
O3 O1 La 115.2(2) 3_565 4_456
Ga3 O1 La 166.4(2) 2_564 4_456
Ga3 O1 La 119.25(5) . 4_456
Ga3 O1 La 116.63(5) 4_455 4_456
Nb O1 La 129.2(3) . 4_456
Ga1 O1 La 129.2(3) . 4_456
Nb O1 La 80.01(12) 1_455 4_456
Ga1 O1 La 80.01(12) 1_455 4_456
Ga1 O1 La 91.10(14) 1_565 4_456
Nb O1 La 91.10(14) 1_565 4_456
O2 O1 La 99.4(3) 4_445 4_456
O2 O1 La 93.9(3) 1_665 4_456
O2 O1 La 52.2(2) 3_465 4_456
O3 O1 La 78.2(3) 1_556 4_456
O3 O1 La 58.1(2) 3_566 4_456
O3 O1 La 28.65(15) 4_456 4_456
La O1 La 50.65(16) 1_556 4_456
La O1 La 50.65(16) 2_566 4_456
Ga2 O1 O3 115.3(2) 2_565 4
La O1 O3 60.91(18) . 4
La O1 O3 49.48(16) 2_565 4
La O1 O3 134.3(6) 4_455 4
O2 O1 O3 31.2(3) 2_565 4
O2 O1 O3 82.5(5) 6 4
O2 O1 O3 85.3(4) 5_455 4
O2 O1 O3 83.9(2) 2_566 4
O2 O1 O3 125.2(4) 6_556 4
O2 O1 O3 128.6(4) 5_456 4
O3 O1 O3 40.0(4) 6 4
O3 O1 O3 141.7(3) 5_455 4
O3 O1 O3 97.0(2) 2_565 4
Ga2 O1 O3 64.7(2) 2_564 4
O2 O1 O3 43.6(4) 3_565 4
O2 O1 O3 99.9(2) . 4
O2 O1 O3 143.4(3) 4_455 4
Ga3 O1 O3 53.13(15) 2_565 4
Ga3 O1 O3 128.89(11) 1_556 4
Ga3 O1 O3 124.73(11) 4_456 4
O3 O1 O3 33.5(2) . 4
O3 O1 O3 121.9(5) 4_455 4
O3 O1 O3 72.0(3) 3_565 4
Ga3 O1 O3 21.83(15) 2_564 4
Ga3 O1 O3 91.0(3) . 4
Ga3 O1 O3 88.4(3) 4_455 4
Nb O1 O3 23.73(12) . 4
Ga1 O1 O3 23.73(12) . 4
Nb O1 O3 126.8(3) 1_455 4
Ga1 O1 O3 126.8(3) 1_455 4
Ga1 O1 O3 94.70(17) 1_565 4
Nb O1 O3 94.70(17) 1_565 4
O2 O1 O3 67.24(18) 4_445 4
O2 O1 O3 67.52(16) 1_665 4
O2 O1 O3 163.1(4) 3_465 4
O3 O1 O3 72.58(13) 1_556 4
O3 O1 O3 99.8(2) 3_566 4
O3 O1 O3 157.1(3) 4_456 4
La O1 O3 101.10(18) 1_556 4
La O1 O3 96.12(17) 2_566 4
La O1 O3 144.6(3) 4_456 4
Ga2 O1 O3 115.3(2) 2_565 3_455
La O1 O3 49.48(16) . 3_455
La O1 O3 134.3(6) 2_565 3_455
La O1 O3 60.91(18) 4_455 3_455
O2 O1 O3 85.3(4) 2_565 3_455
O2 O1 O3 31.2(3) 6 3_455
O2 O1 O3 82.5(5) 5_455 3_455
O2 O1 O3 128.6(4) 2_566 3_455
O2 O1 O3 83.9(2) 6_556 3_455
O2 O1 O3 125.2(4) 5_456 3_455
O3 O1 O3 97.0(2) 6 3_455
O3 O1 O3 40.0(4) 5_455 3_455
O3 O1 O3 141.7(3) 2_565 3_455
Ga2 O1 O3 64.7(2) 2_564 3_455
O2 O1 O3 143.4(3) 3_565 3_455
O2 O1 O3 43.6(4) . 3_455
O2 O1 O3 99.9(2) 4_455 3_455
Ga3 O1 O3 124.73(11) 2_565 3_455
Ga3 O1 O3 53.13(15) 1_556 3_455
Ga3 O1 O3 128.89(11) 4_456 3_455
O3 O1 O3 72.0(3) . 3_455
O3 O1 O3 33.5(2) 4_455 3_455
O3 O1 O3 121.9(5) 3_565 3_455
Ga3 O1 O3 88.4(3) 2_564 3_455
Ga3 O1 O3 21.83(15) . 3_455
Ga3 O1 O3 91.0(3) 4_455 3_455
Nb O1 O3 94.70(17) . 3_455
Ga1 O1 O3 94.70(17) . 3_455
Nb O1 O3 23.73(12) 1_455 3_455
Ga1 O1 O3 23.73(12) 1_455 3_455
Ga1 O1 O3 126.8(3) 1_565 3_455
Nb O1 O3 126.8(3) 1_565 3_455
O2 O1 O3 67.52(16) 4_445 3_455
O2 O1 O3 163.1(4) 1_665 3_455
O2 O1 O3 67.24(18) 3_465 3_455
O3 O1 O3 99.8(2) 1_556 3_455
O3 O1 O3 157.1(3) 3_566 3_455
O3 O1 O3 72.58(14) 4_456 3_455
La O1 O3 96.12(17) 1_556 3_455
La O1 O3 144.6(3) 2_566 3_455
La O1 O3 101.10(18) 4_456 3_455
O3 O1 O3 103.1(3) 4 3_455
Ga2 O1 O3 115.3(2) 2_565 1_565
La O1 O3 134.4(6) . 1_565
La O1 O3 60.91(18) 2_565 1_565
La O1 O3 49.47(16) 4_455 1_565
O2 O1 O3 82.5(5) 2_565 1_565
O2 O1 O3 85.3(4) 6 1_565
O2 O1 O3 31.2(3) 5_455 1_565
O2 O1 O3 125.2(4) 2_566 1_565
O2 O1 O3 128.6(4) 6_556 1_565
O2 O1 O3 83.9(2) 5_456 1_565
O3 O1 O3 141.7(3) 6 1_565
O3 O1 O3 97.0(2) 5_455 1_565
O3 O1 O3 40.0(4) 2_565 1_565
Ga2 O1 O3 64.7(2) 2_564 1_565
O2 O1 O3 99.9(2) 3_565 1_565
O2 O1 O3 143.4(3) . 1_565
O2 O1 O3 43.6(4) 4_455 1_565
Ga3 O1 O3 128.89(11) 2_565 1_565
Ga3 O1 O3 124.73(11) 1_556 1_565
Ga3 O1 O3 53.13(15) 4_456 1_565
O3 O1 O3 121.9(5) . 1_565
O3 O1 O3 72.0(3) 4_455 1_565
O3 O1 O3 33.5(2) 3_565 1_565
Ga3 O1 O3 91.0(3) 2_564 1_565
Ga3 O1 O3 88.4(3) . 1_565
Ga3 O1 O3 21.83(15) 4_455 1_565
Nb O1 O3 126.8(3) . 1_565
Ga1 O1 O3 126.8(3) . 1_565
Nb O1 O3 94.70(17) 1_455 1_565
Ga1 O1 O3 94.70(17) 1_455 1_565
Ga1 O1 O3 23.73(12) 1_565 1_565
Nb O1 O3 23.73(12) 1_565 1_565
O2 O1 O3 163.1(4) 4_445 1_565
O2 O1 O3 67.24(18) 1_665 1_565
O2 O1 O3 67.52(16) 3_465 1_565
O3 O1 O3 157.1(3) 1_556 1_565
O3 O1 O3 72.58(13) 3_566 1_565
O3 O1 O3 99.80(19) 4_456 1_565
La O1 O3 144.6(3) 1_556 1_565
La O1 O3 101.10(18) 2_566 1_565
La O1 O3 96.12(17) 4_456 1_565
O3 O1 O3 103.1(3) 4 1_565
O3 O1 O3 103.1(3) 3_455 1_565
Ga2 O1 Ga2 71.64(18) 2_565 1_566
La O1 Ga2 135.94(2) . 1_566
La O1 Ga2 111.38(3) 2_565 1_566
La O1 Ga2 40.43(16) 4_455 1_566
O2 O1 Ga2 138.2(5) 2_565 1_566
O2 O1 Ga2 101.4(4) 6 1_566
O2 O1 Ga2 81.0(2) 5_455 1_566
O2 O1 Ga2 100.8(4) 2_566 1_566
O2 O1 Ga2 70.7(4) 6_556 1_566
O2 O1 Ga2 48.4(3) 5_456 1_566
O3 O1 Ga2 154.7(5) 6 1_566
O3 O1 Ga2 54.3(3) 5_455 1_566
O3 O1 Ga2 64.9(2) 2_565 1_566
Ga2 O1 Ga2 108.35(18) 2_564 1_566
O2 O1 Ga2 127.5(4) 3_565 1_566
O2 O1 Ga2 99.3(2) . 1_566
O2 O1 Ga2 17.1(3) 4_455 1_566
Ga3 O1 Ga2 130.9(4) 2_565 1_566
Ga3 O1 Ga2 70.57(12) 1_556 1_566
Ga3 O1 Ga2 40.27(6) 4_456 1_566
O3 O1 Ga2 160.6(2) . 1_566
O3 O1 Ga2 62.1(2) 4_455 1_566
O3 O1 Ga2 88.71(13) 3_565 1_566
Ga3 O1 Ga2 148.0(3) 2_564 1_566
Ga3 O1 Ga2 95.01(9) . 1_566
Ga3 O1 Ga2 75.86(6) 4_455 1_566
Nb O1 Ga2 172.2(4) . 1_566
Ga1 O1 Ga2 172.2(4) . 1_566
Nb O1 Ga2 65.87(2) 1_455 1_566
Ga1 O1 Ga2 65.87(2) 1_455 1_566
Ga1 O1 Ga2 65.87(2) 1_565 1_566
Nb O1 Ga2 65.87(2) 1_565 1_566
O2 O1 Ga2 132.1(2) 4_445 1_566
O2 O1 Ga2 96.92(15) 1_665 1_566
O2 O1 Ga2 21.64(15) 3_465 1_566
O3 O1 Ga2 121.0(4) 1_556 1_566
O3 O1 Ga2 69.50(17) 3_566 1_566
O3 O1 Ga2 41.51(14) 4_456 1_566
La O1 Ga2 92.7(2) 1_556 1_566
La O1 Ga2 82.0(2) 2_566 1_566
La O1 Ga2 43.10(9) 4_456 1_566
O3 O1 Ga2 160.54(17) 4 1_566
O3 O1 Ga2 88.85(11) 3_455 1_566
O3 O1 Ga2 58.73(13) 1_565 1_566
Ga2 O1 Ga2 71.65(18) 2_565 1_556
La O1 Ga2 40.43(16) . 1_556
La O1 Ga2 135.94(2) 2_565 1_556
La O1 Ga2 111.38(4) 4_455 1_556
O2 O1 Ga2 101.4(4) 2_565 1_556
O2 O1 Ga2 81.0(2) 6 1_556
O2 O1 Ga2 138.2(5) 5_455 1_556
O2 O1 Ga2 70.7(4) 2_566 1_556
O2 O1 Ga2 48.4(3) 6_556 1_556
O2 O1 Ga2 100.8(4) 5_456 1_556
O3 O1 Ga2 54.3(3) 6 1_556
O3 O1 Ga2 64.9(2) 5_455 1_556
O3 O1 Ga2 154.7(5) 2_565 1_556
Ga2 O1 Ga2 108.36(18) 2_564 1_556
O2 O1 Ga2 99.3(2) 3_565 1_556
O2 O1 Ga2 17.1(3) . 1_556
O2 O1 Ga2 127.5(4) 4_455 1_556
Ga3 O1 Ga2 70.57(12) 2_565 1_556
Ga3 O1 Ga2 40.27(6) 1_556 1_556
Ga3 O1 Ga2 130.9(4) 4_456 1_556
O3 O1 Ga2 62.1(2) . 1_556
O3 O1 Ga2 88.71(13) 4_455 1_556
O3 O1 Ga2 160.6(2) 3_565 1_556
Ga3 O1 Ga2 95.01(9) 2_564 1_556
Ga3 O1 Ga2 75.86(6) . 1_556
Ga3 O1 Ga2 148.0(3) 4_455 1_556
Nb O1 Ga2 65.87(2) . 1_556
Ga1 O1 Ga2 65.87(2) . 1_556
Nb O1 Ga2 65.87(2) 1_455 1_556
Ga1 O1 Ga2 65.87(2) 1_455 1_556
Ga1 O1 Ga2 172.2(4) 1_565 1_556
Nb O1 Ga2 172.2(4) 1_565 1_556
O2 O1 Ga2 21.64(15) 4_445 1_556
O2 O1 Ga2 132.1(2) 1_665 1_556
O2 O1 Ga2 96.92(15) 3_465 1_556
O3 O1 Ga2 41.51(14) 1_556 1_556
O3 O1 Ga2 121.0(4) 3_566 1_556
O3 O1 Ga2 69.50(17) 4_456 1_556
La O1 Ga2 43.10(9) 1_556 1_556
La O1 Ga2 92.7(2) 2_566 1_556
La O1 Ga2 82.0(2) 4_456 1_556
O3 O1 Ga2 88.85(11) 4 1_556
O3 O1 Ga2 58.73(13) 3_455 1_556
O3 O1 Ga2 160.54(17) 1_565 1_556
Ga2 O1 Ga2 110.56(17) 1_566 1_556
Ga2 O1 Ga2 71.65(18) 2_565 1_666
La O1 Ga2 111.38(4) . 1_666
La O1 Ga2 40.43(16) 2_565 1_666
La O1 Ga2 135.94(2) 4_455 1_666
O2 O1 Ga2 81.0(2) 2_565 1_666
O2 O1 Ga2 138.2(5) 6 1_666
O2 O1 Ga2 101.4(4) 5_455 1_666
O2 O1 Ga2 48.4(3) 2_566 1_666
O2 O1 Ga2 100.8(4) 6_556 1_666
O2 O1 Ga2 70.7(4) 5_456 1_666
O3 O1 Ga2 64.9(2) 6 1_666
O3 O1 Ga2 154.7(5) 5_455 1_666
O3 O1 Ga2 54.3(3) 2_565 1_666
Ga2 O1 Ga2 108.36(18) 2_564 1_666
O2 O1 Ga2 17.1(3) 3_565 1_666
O2 O1 Ga2 127.5(4) . 1_666
O2 O1 Ga2 99.3(2) 4_455 1_666
Ga3 O1 Ga2 40.27(6) 2_565 1_666
Ga3 O1 Ga2 130.9(4) 1_556 1_666
Ga3 O1 Ga2 70.57(12) 4_456 1_666
O3 O1 Ga2 88.71(13) . 1_666
O3 O1 Ga2 160.6(2) 4_455 1_666
O3 O1 Ga2 62.1(2) 3_565 1_666
Ga3 O1 Ga2 75.86(6) 2_564 1_666
Ga3 O1 Ga2 148.0(3) . 1_666
Ga3 O1 Ga2 95.01(9) 4_455 1_666
Nb O1 Ga2 65.87(2) . 1_666
Ga1 O1 Ga2 65.87(2) . 1_666
Nb O1 Ga2 172.2(4) 1_455 1_666
Ga1 O1 Ga2 172.2(4) 1_455 1_666
Ga1 O1 Ga2 65.87(2) 1_565 1_666
Nb O1 Ga2 65.87(2) 1_565 1_666
O2 O1 Ga2 96.92(15) 4_445 1_666
O2 O1 Ga2 21.64(15) 1_665 1_666
O2 O1 Ga2 132.1(2) 3_465 1_666
O3 O1 Ga2 69.50(17) 1_556 1_666
O3 O1 Ga2 41.51(14) 3_566 1_666
O3 O1 Ga2 121.0(4) 4_456 1_666
La O1 Ga2 82.0(2) 1_556 1_666
La O1 Ga2 43.10(9) 2_566 1_666
La O1 Ga2 92.7(2) 4_456 1_666
O3 O1 Ga2 58.73(13) 4 1_666
O3 O1 Ga2 160.54(17) 3_455 1_666
O3 O1 Ga2 88.85(11) 1_565 1_666
Ga2 O1 Ga2 110.56(17) 1_566 1_666
Ga2 O1 Ga2 110.56(17) 1_556 1_666
Ga2 O1 O1 110.4(4) 2_565 2_465
La O1 O1 119.0(4) . 2_465
La O1 O1 97.8(3) 2_565 2_465
La O1 O1 12.44(3) 4_455 2_465
O2 O1 O1 100.7(6) 2_565 2_465
O2 O1 O1 69.2(4) 6 2_465
O2 O1 O1 45.2(3) 5_455 2_465
O2 O1 O1 138.4(5) 2_566 2_465
O2 O1 O1 103.7(4) 6_556 2_465
O2 O1 O1 84.7(4) 5_456 2_465
O3 O1 O1 164.9(6) 6 2_465
O3 O1 O1 59.78(18) 5_455 2_465
O3 O1 O1 69.7(3) 2_565 2_465
Ga2 O1 O1 69.6(4) 2_564 2_465
O2 O1 O1 136.97(19) 3_565 2_465
O2 O1 O1 106.8(2) . 2_465
O2 O1 O1 35.5(2) 4_455 2_465
Ga3 O1 O1 162.7(3) 2_565 2_465
Ga3 O1 O1 88.81(9) 1_556 2_465
Ga3 O1 O1 63.53(10) 4_456 2_465
O3 O1 O1 127.9(6) . 2_465
O3 O1 O1 38.91(18) 4_455 2_465
O3 O1 O1 70.2(3) 3_565 2_465
Ga3 O1 O1 110.8(5) 2_564 2_465
Ga3 O1 O1 66.6(3) . 2_465
Ga3 O1 O1 43.6(2) 4_455 2_465
Nb O1 O1 149.0(6) . 2_465
Ga1 O1 O1 149.0(6) . 2_465
Nb O1 O1 58.36(6) 1_455 2_465
Ga1 O1 O1 58.36(6) 1_455 2_465
Ga1 O1 O1 58.36(6) 1_565 2_465
Nb O1 O1 58.36(6) 1_565 2_465
O2 O1 O1 139.37(18) 4_445 2_465
O2 O1 O1 102.44(13) 1_665 2_465
O2 O1 O1 34.8(2) 3_465 2_465
O3 O1 O1 156.4(4) 1_556 2_465
O3 O1 O1 93.6(2) 3_566 2_465
O3 O1 O1 70.6(2) 4_456 2_465
La O1 O1 128.4(4) 1_556 2_465
La O1 O1 115.9(3) 2_566 2_465
La O1 O1 81.5(3) 4_456 2_465
O3 O1 O1 130.5(5) 4 2_465
O3 O1 O1 72.4(2) 3_455 2_465
O3 O1 O1 37.39(14) 1_565 2_465
Ga2 O1 O1 38.79(18) 1_566 2_465
Ga2 O1 O1 123.686(17) 1_556 2_465
Ga2 O1 O1 123.686(17) 1_666 2_465
Ga2 O1 O1 110.4(4) 2_565 2_455
La O1 O1 12.44(3) . 2_455
La O1 O1 119.0(4) 2_565 2_455
La O1 O1 97.8(3) 4_455 2_455
O2 O1 O1 69.2(4) 2_565 2_455
O2 O1 O1 45.2(3) 6 2_455
O2 O1 O1 100.7(6) 5_455 2_455
O2 O1 O1 103.7(4) 2_566 2_455
O2 O1 O1 84.7(4) 6_556 2_455
O2 O1 O1 138.4(5) 5_456 2_455
O3 O1 O1 59.78(18) 6 2_455
O3 O1 O1 69.7(3) 5_455 2_455
O3 O1 O1 164.9(6) 2_565 2_455
Ga2 O1 O1 69.6(4) 2_564 2_455
O2 O1 O1 106.8(2) 3_565 2_455
O2 O1 O1 35.5(2) . 2_455
O2 O1 O1 136.97(19) 4_455 2_455
Ga3 O1 O1 88.81(9) 2_565 2_455
Ga3 O1 O1 63.53(10) 1_556 2_455
Ga3 O1 O1 162.7(3) 4_456 2_455
O3 O1 O1 38.91(18) . 2_455
O3 O1 O1 70.2(3) 4_455 2_455
O3 O1 O1 127.9(6) 3_565 2_455
Ga3 O1 O1 66.6(3) 2_564 2_455
Ga3 O1 O1 43.6(2) . 2_455
Ga3 O1 O1 110.8(5) 4_455 2_455
Nb O1 O1 58.36(6) . 2_455
Ga1 O1 O1 58.36(6) . 2_455
Nb O1 O1 58.36(6) 1_455 2_455
Ga1 O1 O1 58.36(6) 1_455 2_455
Ga1 O1 O1 149.0(6) 1_565 2_455
Nb O1 O1 149.0(6) 1_565 2_455
O2 O1 O1 34.8(2) 4_445 2_455
O2 O1 O1 139.37(18) 1_665 2_455
O2 O1 O1 102.44(14) 3_465 2_455
O3 O1 O1 70.6(2) 1_556 2_455
O3 O1 O1 156.4(4) 3_566 2_455
O3 O1 O1 93.6(2) 4_456 2_455
La O1 O1 81.5(3) 1_556 2_455
La O1 O1 128.4(4) 2_566 2_455
La O1 O1 115.9(3) 4_456 2_455
O3 O1 O1 72.4(2) 4 2_455
O3 O1 O1 37.39(14) 3_455 2_455
O3 O1 O1 130.5(5) 1_565 2_455
Ga2 O1 O1 123.686(18) 1_566 2_455
Ga2 O1 O1 38.79(18) 1_556 2_455
Ga2 O1 O1 123.685(17) 1_666 2_455
O1 O1 O1 108.5(4) 2_465 2_455
Ga2 O1 O1 110.4(4) 2_565 2_565
La O1 O1 97.8(3) . 2_565
La O1 O1 12.44(3) 2_565 2_565
La O1 O1 119.0(4) 4_455 2_565
O2 O1 O1 45.2(3) 2_565 2_565
O2 O1 O1 100.7(6) 6 2_565
O2 O1 O1 69.2(4) 5_455 2_565
O2 O1 O1 84.7(4) 2_566 2_565
O2 O1 O1 138.4(5) 6_556 2_565
O2 O1 O1 103.7(4) 5_456 2_565
O3 O1 O1 69.7(3) 6 2_565
O3 O1 O1 164.9(6) 5_455 2_565
O3 O1 O1 59.78(18) 2_565 2_565
Ga2 O1 O1 69.6(4) 2_564 2_565
O2 O1 O1 35.5(2) 3_565 2_565
O2 O1 O1 136.97(19) . 2_565
O2 O1 O1 106.8(2) 4_455 2_565
Ga3 O1 O1 63.53(10) 2_565 2_565
Ga3 O1 O1 162.7(3) 1_556 2_565
Ga3 O1 O1 88.81(9) 4_456 2_565
O3 O1 O1 70.2(3) . 2_565
O3 O1 O1 127.9(6) 4_455 2_565
O3 O1 O1 38.91(18) 3_565 2_565
Ga3 O1 O1 43.6(2) 2_564 2_565
Ga3 O1 O1 110.8(5) . 2_565
Ga3 O1 O1 66.6(3) 4_455 2_565
Nb O1 O1 58.36(6) . 2_565
Ga1 O1 O1 58.36(6) . 2_565
Nb O1 O1 149.0(6) 1_455 2_565
Ga1 O1 O1 149.0(6) 1_455 2_565
Ga1 O1 O1 58.36(6) 1_565 2_565
Nb O1 O1 58.36(6) 1_565 2_565
O2 O1 O1 102.44(13) 4_445 2_565
O2 O1 O1 34.8(2) 1_665 2_565
O2 O1 O1 139.37(18) 3_465 2_565
O3 O1 O1 93.6(2) 1_556 2_565
O3 O1 O1 70.6(2) 3_566 2_565
O3 O1 O1 156.4(4) 4_456 2_565
La O1 O1 115.9(3) 1_556 2_565
La O1 O1 81.5(3) 2_566 2_565
La O1 O1 128.4(4) 4_456 2_565
O3 O1 O1 37.39(14) 4 2_565
O3 O1 O1 130.5(5) 3_455 2_565
O3 O1 O1 72.4(2) 1_565 2_565
Ga2 O1 O1 123.686(17) 1_566 2_565
Ga2 O1 O1 123.685(17) 1_556 2_565
Ga2 O1 O1 38.79(18) 1_666 2_565
O1 O1 O1 108.5(4) 2_465 2_565
O1 O1 O1 108.5(4) 2_455 2_565
Ga2 O1 O1 180.0 2_565 1_554
La O1 O1 70.1(4) . 1_554
La O1 O1 70.1(4) 2_565 1_554
La O1 O1 70.1(4) 4_455 1_554
O2 O1 O1 33.6(3) 2_565 1_554
O2 O1 O1 33.6(3) 6 1_554
O2 O1 O1 33.6(3) 5_455 1_554
O2 O1 O1 148.6(3) 2_566 1_554
O2 O1 O1 148.6(3) 6_556 1_554
O2 O1 O1 148.6(3) 5_456 1_554
O3 O1 O1 96.4(4) 6 1_554
O3 O1 O1 96.4(4) 5_455 1_554
O3 O1 O1 96.4(4) 2_565 1_554
Ga2 O1 O1 0.0 2_564 1_554
O2 O1 O1 101.3(4) 3_565 1_554
O2 O1 O1 101.3(4) . 1_554
O2 O1 O1 101.3(4) 4_455 1_554
Ga3 O1 O1 117.8(2) 2_565 1_554
Ga3 O1 O1 117.8(2) 1_556 1_554
Ga3 O1 O1 117.8(2) 4_456 1_554
O3 O1 O1 61.3(3) . 1_554
O3 O1 O1 61.3(3) 4_455 1_554
O3 O1 O1 61.3(3) 3_565 1_554
Ga3 O1 O1 42.96(14) 2_564 1_554
Ga3 O1 O1 42.96(14) . 1_554
Ga3 O1 O1 42.96(14) 4_455 1_554
Nb O1 O1 79.4(2) . 1_554
Ga1 O1 O1 79.4(2) . 1_554
Nb O1 O1 79.4(2) 1_455 1_554
Ga1 O1 O1 79.4(2) 1_455 1_554
Ga1 O1 O1 79.4(2) 1_565 1_554
Nb O1 O1 79.4(2) 1_565 1_554
O2 O1 O1 98.4(3) 4_445 1_554
O2 O1 O1 98.4(3) 1_665 1_554
O2 O1 O1 98.4(3) 3_465 1_554
O3 O1 O1 128.2(2) 1_556 1_554
O3 O1 O1 128.2(2) 3_566 1_554
O3 O1 O1 128.2(2) 4_456 1_554
La O1 O1 150.40(10) 1_556 1_554
La O1 O1 150.40(10) 2_566 1_554
La O1 O1 150.40(10) 4_456 1_554
O3 O1 O1 64.7(2) 4 1_554
O3 O1 O1 64.7(2) 3_455 1_554
O3 O1 O1 64.7(2) 1_565 1_554
Ga2 O1 O1 108.35(18) 1_566 1_554
Ga2 O1 O1 108.36(18) 1_556 1_554
Ga2 O1 O1 108.36(18) 1_666 1_554
O1 O1 O1 69.6(4) 2_465 1_554
O1 O1 O1 69.6(4) 2_455 1_554
O1 O1 O1 69.6(4) 2_565 1_554
Ga2 O1 O1 0.001(1) 2_565 1_556
La O1 O1 109.9(4) . 1_556
La O1 O1 109.9(4) 2_565 1_556
La O1 O1 109.9(4) 4_455 1_556
O2 O1 O1 146.4(3) 2_565 1_556
O2 O1 O1 146.4(3) 6 1_556
O2 O1 O1 146.4(3) 5_455 1_556
O2 O1 O1 31.4(3) 2_566 1_556
O2 O1 O1 31.4(3) 6_556 1_556
O2 O1 O1 31.4(3) 5_456 1_556
O3 O1 O1 83.6(4) 6 1_556
O3 O1 O1 83.6(4) 5_455 1_556
O3 O1 O1 83.6(4) 2_565 1_556
Ga2 O1 O1 180.0 2_564 1_556
O2 O1 O1 78.7(4) 3_565 1_556
O2 O1 O1 78.7(4) . 1_556
O2 O1 O1 78.7(4) 4_455 1_556
Ga3 O1 O1 62.2(2) 2_565 1_556
Ga3 O1 O1 62.2(2) 1_556 1_556
Ga3 O1 O1 62.2(2) 4_456 1_556
O3 O1 O1 118.7(3) . 1_556
O3 O1 O1 118.7(3) 4_455 1_556
O3 O1 O1 118.7(3) 3_565 1_556
Ga3 O1 O1 137.04(14) 2_564 1_556
Ga3 O1 O1 137.04(14) . 1_556
Ga3 O1 O1 137.04(14) 4_455 1_556
Nb O1 O1 100.6(2) . 1_556
Ga1 O1 O1 100.6(2) . 1_556
Nb O1 O1 100.6(2) 1_455 1_556
Ga1 O1 O1 100.6(2) 1_455 1_556
Ga1 O1 O1 100.6(2) 1_565 1_556
Nb O1 O1 100.6(2) 1_565 1_556
O2 O1 O1 81.6(3) 4_445 1_556
O2 O1 O1 81.6(3) 1_665 1_556
O2 O1 O1 81.6(3) 3_465 1_556
O3 O1 O1 51.8(2) 1_556 1_556
O3 O1 O1 51.8(2) 3_566 1_556
O3 O1 O1 51.8(2) 4_456 1_556
La O1 O1 29.60(10) 1_556 1_556
La O1 O1 29.60(10) 2_566 1_556
La O1 O1 29.60(10) 4_456 1_556
O3 O1 O1 115.3(2) 4 1_556
O3 O1 O1 115.3(2) 3_455 1_556
O3 O1 O1 115.3(2) 1_565 1_556
Ga2 O1 O1 71.64(18) 1_566 1_556
Ga2 O1 O1 71.65(18) 1_556 1_556
Ga2 O1 O1 71.64(18) 1_666 1_556
O1 O1 O1 110.4(4) 2_465 1_556
O1 O1 O1 110.4(4) 2_455 1_556
O1 O1 O1 110.4(4) 2_565 1_556
O1 O1 O1 179.999(2) 1_554 1_556
Ga2 O1 Ga3 71.59(17) 2_565 4_446
La O1 Ga3 45.41(15) . 4_446
La O1 Ga3 100.87(5) 2_565 4_446
La O1 Ga3 146.77(3) 4_455 4_446
O2 O1 Ga3 83.8(3) 2_565 4_446
O2 O1 Ga3 97.4(3) 6 4_446
O2 O1 Ga3 140.3(4) 5_455 4_446
O2 O1 Ga3 51.7(2) 2_566 4_446
O2 O1 Ga3 66.6(3) 6_556 4_446
O2 O1 Ga3 102.0(4) 5_456 4_446
O3 O1 Ga3 20.0(3) 6 4_446
O3 O1 Ga3 100.8(2) 5_455 4_446
O3 O1 Ga3 130.4(3) 2_565 4_446
Ga2 O1 Ga3 108.42(17) 2_564 4_446
O2 O1 Ga3 63.71(17) 3_565 4_446
O2 O1 Ga3 52.7(2) . 4_446
O2 O1 Ga3 149.7(5) 4_455 4_446
Ga3 O1 Ga3 37.07(6) 2_565 4_446
Ga3 O1 Ga3 73.67(13) 1_556 4_446
Ga3 O1 Ga3 129.6(4) 4_456 4_446
O3 O1 Ga3 47.3(2) . 4_446
O3 O1 Ga3 121.10(14) 4_455 4_446
O3 O1 Ga3 128.10(15) 3_565 4_446
Ga3 O1 Ga3 74.33(5) 2_564 4_446
Ga3 O1 Ga3 97.36(8) . 4_446
Ga3 O1 Ga3 146.7(3) 4_455 4_446
Nb O1 Ga3 36.18(3) . 4_446
Ga1 O1 Ga3 36.18(3) . 4_446
Nb O1 Ga3 100.85(4) 1_455 4_446
Ga1 O1 Ga3 100.85(4) 1_455 4_446
Ga1 O1 Ga3 142.42(8) 1_565 4_446
Nb O1 Ga3 142.42(8) 1_565 4_446
O2 O1 Ga3 20.35(12) 4_445 4_446
O2 O1 Ga3 98.33(17) 1_665 4_446
O2 O1 Ga3 130.8(2) 3_465 4_446
O3 O1 Ga3 20.05(13) 1_556 4_446
O3 O1 Ga3 102.8(3) 3_566 4_446
O3 O1 Ga3 97.6(2) 4_456 4_446
La O1 Ga3 45.57(8) 1_556 4_446
La O1 Ga3 76.57(17) 2_566 4_446
La O1 Ga3 96.2(2) 4_456 4_446
O3 O1 Ga3 59.56(12) 4 4_446
O3 O1 Ga3 87.87(11) 3_455 4_446
O3 O1 Ga3 161.60(17) 1_565 4_446
Ga2 O1 Ga3 137.4(3) 1_566 4_446
Ga2 O1 Ga3 36.03(4) 1_556 4_446
Ga2 O1 Ga3 76.97(9) 1_666 4_446
O1 O1 Ga3 159.21(4) 2_465 4_446
O1 O1 Ga3 53.84(13) 2_455 4_446
O1 O1 Ga3 89.20(6) 2_565 4_446
O1 O1 Ga3 108.42(17) 1_554 4_446
O1 O1 Ga3 71.58(17) 1_556 4_446
Ga2 O1 Ga3 71.58(17) 2_565 1_666
La O1 Ga3 146.77(3) . 1_666
La O1 Ga3 45.41(15) 2_565 1_666
La O1 Ga3 100.87(5) 4_455 1_666
O2 O1 Ga3 97.4(3) 2_565 1_666
O2 O1 Ga3 140.3(4) 6 1_666
O2 O1 Ga3 83.8(3) 5_455 1_666
O2 O1 Ga3 66.6(3) 2_566 1_666
O2 O1 Ga3 102.0(4) 6_556 1_666
O2 O1 Ga3 51.7(2) 5_456 1_666
O3 O1 Ga3 100.8(2) 6 1_666
O3 O1 Ga3 130.4(3) 5_455 1_666
O3 O1 Ga3 20.0(3) 2_565 1_666
Ga2 O1 Ga3 108.42(17) 2_564 1_666
O2 O1 Ga3 52.7(2) 3_565 1_666
O2 O1 Ga3 149.7(5) . 1_666
O2 O1 Ga3 63.71(18) 4_455 1_666
Ga3 O1 Ga3 73.67(13) 2_565 1_666
Ga3 O1 Ga3 129.6(4) 1_556 1_666
Ga3 O1 Ga3 37.06(6) 4_456 1_666
O3 O1 Ga3 121.10(14) . 1_666
O3 O1 Ga3 128.10(15) 4_455 1_666
O3 O1 Ga3 47.3(2) 3_565 1_666
Ga3 O1 Ga3 97.36(8) 2_564 1_666
Ga3 O1 Ga3 146.7(3) . 1_666
Ga3 O1 Ga3 74.33(5) 4_455 1_666
Nb O1 Ga3 100.85(4) . 1_666
Ga1 O1 Ga3 100.85(4) . 1_666
Nb O1 Ga3 142.42(8) 1_455 1_666
Ga1 O1 Ga3 142.42(8) 1_455 1_666
Ga1 O1 Ga3 36.18(3) 1_565 1_666
Nb O1 Ga3 36.18(3) 1_565 1_666
O2 O1 Ga3 130.8(2) 4_445 1_666
O2 O1 Ga3 20.35(12) 1_665 1_666
O2 O1 Ga3 98.33(17) 3_465 1_666
O3 O1 Ga3 97.6(2) 1_556 1_666
O3 O1 Ga3 20.05(13) 3_566 1_666
O3 O1 Ga3 102.8(3) 4_456 1_666
La O1 Ga3 96.2(2) 1_556 1_666
La O1 Ga3 45.56(8) 2_566 1_666
La O1 Ga3 76.57(17) 4_456 1_666
O3 O1 Ga3 87.87(11) 4 1_666
O3 O1 Ga3 161.60(17) 3_455 1_666
O3 O1 Ga3 59.56(12) 1_565 1_666
Ga2 O1 Ga3 76.97(9) 1_566 1_666
Ga2 O1 Ga3 137.4(3) 1_556 1_666
Ga2 O1 Ga3 36.03(4) 1_666 1_666
O1 O1 Ga3 89.20(6) 2_465 1_666
O1 O1 Ga3 159.21(4) 2_455 1_666
O1 O1 Ga3 53.85(13) 2_565 1_666
O1 O1 Ga3 108.42(17) 1_554 1_666
O1 O1 Ga3 71.58(17) 1_556 1_666
Ga3 O1 Ga3 110.51(16) 4_446 1_666
Ga2 O1 Ga3 71.58(17) 2_565 2_465
La O1 Ga3 100.87(5) . 2_465
La O1 Ga3 146.77(3) 2_565 2_465
La O1 Ga3 45.41(15) 4_455 2_465
O2 O1 Ga3 140.3(4) 2_565 2_465
O2 O1 Ga3 83.8(3) 6 2_465
O2 O1 Ga3 97.4(3) 5_455 2_465
O2 O1 Ga3 102.0(4) 2_566 2_465
O2 O1 Ga3 51.7(2) 6_556 2_465
O2 O1 Ga3 66.6(3) 5_456 2_465
O3 O1 Ga3 130.4(3) 6 2_465
O3 O1 Ga3 20.0(3) 5_455 2_465
O3 O1 Ga3 100.8(2) 2_565 2_465
Ga2 O1 Ga3 108.42(17) 2_564 2_465
O2 O1 Ga3 149.7(5) 3_565 2_465
O2 O1 Ga3 63.71(18) . 2_465
O2 O1 Ga3 52.7(2) 4_455 2_465
Ga3 O1 Ga3 129.6(4) 2_565 2_465
Ga3 O1 Ga3 37.06(6) 1_556 2_465
Ga3 O1 Ga3 73.67(13) 4_456 2_465
O3 O1 Ga3 128.10(15) . 2_465
O3 O1 Ga3 47.3(2) 4_455 2_465
O3 O1 Ga3 121.10(14) 3_565 2_465
Ga3 O1 Ga3 146.7(3) 2_564 2_465
Ga3 O1 Ga3 74.33(5) . 2_465
Ga3 O1 Ga3 97.36(8) 4_455 2_465
Nb O1 Ga3 142.42(8) . 2_465
Ga1 O1 Ga3 142.42(8) . 2_465
Nb O1 Ga3 36.18(3) 1_455 2_465
Ga1 O1 Ga3 36.18(3) 1_455 2_465
Ga1 O1 Ga3 100.85(4) 1_565 2_465
Nb O1 Ga3 100.85(4) 1_565 2_465
O2 O1 Ga3 98.33(17) 4_445 2_465
O2 O1 Ga3 130.8(2) 1_665 2_465
O2 O1 Ga3 20.35(12) 3_465 2_465
O3 O1 Ga3 102.8(3) 1_556 2_465
O3 O1 Ga3 97.6(2) 3_566 2_465
O3 O1 Ga3 20.05(13) 4_456 2_465
La O1 Ga3 76.57(17) 1_556 2_465
La O1 Ga3 96.2(2) 2_566 2_465
La O1 Ga3 45.57(8) 4_456 2_465
O3 O1 Ga3 161.60(17) 4 2_465
O3 O1 Ga3 59.56(12) 3_455 2_465
O3 O1 Ga3 87.87(11) 1_565 2_465
Ga2 O1 Ga3 36.03(4) 1_566 2_465
Ga2 O1 Ga3 76.97(9) 1_556 2_465
Ga2 O1 Ga3 137.4(3) 1_666 2_465
O1 O1 Ga3 53.85(13) 2_465 2_465
O1 O1 Ga3 89.20(6) 2_455 2_465
O1 O1 Ga3 159.21(4) 2_565 2_465
O1 O1 Ga3 108.42(17) 1_554 2_465
O1 O1 Ga3 71.58(17) 1_556 2_465
Ga3 O1 Ga3 110.51(16) 4_446 2_465
Ga3 O1 Ga3 110.51(16) 1_666 2_465
Ga2 O1 O3 86.3(2) 2_565 5
La O1 O3 65.98(13) . 5
La O1 O3 60.94(10) 2_565 5
La O1 O3 163.6(5) 4_455 5
O2 O1 O3 60.4(3) 2_565 5
O2 O1 O3 105.7(4) 6 5
O2 O1 O3 112.7(4) 5_455 5
O2 O1 O3 55.1(3) 2_566 5
O2 O1 O3 98.6(4) 6_556 5
O2 O1 O3 104.9(4) 5_456 5
O3 O1 O3 21.7(3) 6 5
O3 O1 O3 140.4(3) 5_455 5
O3 O1 O3 97.9(3) 2_565 5
Ga2 O1 O3 93.7(2) 2_564 5
O2 O1 O3 28.6(3) 3_565 5
O2 O1 O3 91.4(2) . 5
O2 O1 O3 144.7(3) 4_455 5
Ga3 O1 O3 24.09(18) 2_565 5
Ga3 O1 O3 113.3(2) 1_556 5
Ga3 O1 O3 115.3(2) 4_456 5
O3 O1 O3 46.0(3) . 5
O3 O1 O3 144.9(3) 4_455 5
O3 O1 O3 88.3(2) 3_565 5
Ga3 O1 O3 50.78(17) 2_564 5
Ga3 O1 O3 112.0(2) . 5
Ga3 O1 O3 113.6(2) 4_455 5
Nb O1 O3 21.41(16) . 5
Ga1 O1 O3 21.41(16) . 5
Nb O1 O3 135.87(12) 1_455 5
Ga1 O1 O3 135.87(12) 1_455 5
Ga1 O1 O3 104.41(10) 1_565 5
Nb O1 O3 104.41(10) 1_565 5
O2 O1 O3 56.07(14) 4_445 5
O2 O1 O3 63.52(15) 1_665 5
O2 O1 O3 167.3(4) 3_465 5
O3 O1 O3 46.3(2) 1_556 5
O3 O1 O3 84.6(2) 3_566 5
O3 O1 O3 131.7(3) 4_456 5
La O1 O3 73.62(18) 1_556 5
La O1 O3 71.13(19) 2_566 5
La O1 O3 115.8(3) 4_456 5
O3 O1 O3 29.2(3) 4 5
O3 O1 O3 115.40(15) 3_455 5
O3 O1 O3 121.81(13) 1_565 5
Ga2 O1 O3 152.9(3) 1_566 5
Ga2 O1 O3 75.56(11) 1_556 5
Ga2 O1 O3 45.41(13) 1_666 5
O1 O1 O3 157.1(4) 2_465 5
O1 O1 O3 78.27(13) 2_455 5
O1 O1 O3 49.45(11) 2_565 5
O1 O1 O3 93.7(2) 1_554 5
O1 O1 O3 86.3(2) 1_556 5
Ga3 O1 O3 39.93(10) 4_446 5
Ga3 O1 O3 81.26(13) 1_666 5
Ga3 O1 O3 149.0(3) 2_465 5
Ga2 O1 O3 86.3(2) 2_565 2_455
La O1 O3 60.94(10) . 2_455
La O1 O3 163.6(5) 2_565 2_455
La O1 O3 65.98(13) 4_455 2_455
O2 O1 O3 112.7(4) 2_565 2_455
O2 O1 O3 60.4(3) 6 2_455
O2 O1 O3 105.7(4) 5_455 2_455
O2 O1 O3 104.9(4) 2_566 2_455
O2 O1 O3 55.1(3) 6_556 2_455
O2 O1 O3 98.6(4) 5_456 2_455
O3 O1 O3 97.9(3) 6 2_455
O3 O1 O3 21.7(3) 5_455 2_455
O3 O1 O3 140.4(3) 2_565 2_455
Ga2 O1 O3 93.7(2) 2_564 2_455
O2 O1 O3 144.7(3) 3_565 2_455
O2 O1 O3 28.6(3) . 2_455
O2 O1 O3 91.4(2) 4_455 2_455
Ga3 O1 O3 115.3(2) 2_565 2_455
Ga3 O1 O3 24.09(18) 1_556 2_455
Ga3 O1 O3 113.3(2) 4_456 2_455
O3 O1 O3 88.3(2) . 2_455
O3 O1 O3 46.0(3) 4_455 2_455
O3 O1 O3 144.9(3) 3_565 2_455
Ga3 O1 O3 113.6(2) 2_564 2_455
Ga3 O1 O3 50.78(17) . 2_455
Ga3 O1 O3 112.0(2) 4_455 2_455
Nb O1 O3 104.41(10) . 2_455
Ga1 O1 O3 104.41(10) . 2_455
Nb O1 O3 21.41(16) 1_455 2_455
Ga1 O1 O3 21.41(16) 1_455 2_455
Ga1 O1 O3 135.87(12) 1_565 2_455
Nb O1 O3 135.87(12) 1_565 2_455
O2 O1 O3 63.52(15) 4_445 2_455
O2 O1 O3 167.3(4) 1_665 2_455
O2 O1 O3 56.07(14) 3_465 2_455
O3 O1 O3 84.6(2) 1_556 2_455
O3 O1 O3 131.7(3) 3_566 2_455
O3 O1 O3 46.3(2) 4_456 2_455
La O1 O3 71.14(19) 1_556 2_455
La O1 O3 115.8(3) 2_566 2_455
La O1 O3 73.62(18) 4_456 2_455
O3 O1 O3 121.81(14) 4 2_455
O3 O1 O3 29.2(3) 3_455 2_455
O3 O1 O3 115.40(15) 1_565 2_455
Ga2 O1 O3 75.56(11) 1_566 2_455
Ga2 O1 O3 45.41(13) 1_556 2_455
Ga2 O1 O3 152.9(3) 1_666 2_455
O1 O1 O3 78.27(13) 2_465 2_455
O1 O1 O3 49.45(11) 2_455 2_455
O1 O1 O3 157.1(4) 2_565 2_455
O1 O1 O3 93.7(2) 1_554 2_455
O1 O1 O3 86.3(2) 1_556 2_455
Ga3 O1 O3 81.26(13) 4_446 2_455
Ga3 O1 O3 149.0(3) 1_666 2_455
Ga3 O1 O3 39.93(10) 2_465 2_455
O3 O1 O3 119.58(5) 5 2_455
Ga2 O1 O3 86.3(2) 2_565 6_565
La O1 O3 163.6(5) . 6_565
La O1 O3 65.98(13) 2_565 6_565
La O1 O3 60.94(10) 4_455 6_565
O2 O1 O3 105.7(4) 2_565 6_565
O2 O1 O3 112.7(4) 6 6_565
O2 O1 O3 60.4(3) 5_455 6_565
O2 O1 O3 98.6(4) 2_566 6_565
O2 O1 O3 104.9(4) 6_556 6_565
O2 O1 O3 55.1(3) 5_456 6_565
O3 O1 O3 140.4(3) 6 6_565
O3 O1 O3 97.9(3) 5_455 6_565
O3 O1 O3 21.7(3) 2_565 6_565
Ga2 O1 O3 93.7(2) 2_564 6_565
O2 O1 O3 91.4(2) 3_565 6_565
O2 O1 O3 144.7(3) . 6_565
O2 O1 O3 28.6(3) 4_455 6_565
Ga3 O1 O3 113.3(2) 2_565 6_565
Ga3 O1 O3 115.3(2) 1_556 6_565
Ga3 O1 O3 24.09(18) 4_456 6_565
O3 O1 O3 144.9(3) . 6_565
O3 O1 O3 88.3(2) 4_455 6_565
O3 O1 O3 46.0(3) 3_565 6_565
Ga3 O1 O3 112.0(2) 2_564 6_565
Ga3 O1 O3 113.6(2) . 6_565
Ga3 O1 O3 50.78(17) 4_455 6_565
Nb O1 O3 135.87(12) . 6_565
Ga1 O1 O3 135.87(12) . 6_565
Nb O1 O3 104.41(10) 1_455 6_565
Ga1 O1 O3 104.41(10) 1_455 6_565
Ga1 O1 O3 21.41(16) 1_565 6_565
Nb O1 O3 21.41(16) 1_565 6_565
O2 O1 O3 167.3(4) 4_445 6_565
O2 O1 O3 56.07(14) 1_665 6_565
O2 O1 O3 63.52(15) 3_465 6_565
O3 O1 O3 131.7(3) 1_556 6_565
O3 O1 O3 46.3(2) 3_566 6_565
O3 O1 O3 84.6(2) 4_456 6_565
La O1 O3 115.8(3) 1_556 6_565
La O1 O3 73.62(18) 2_566 6_565
La O1 O3 71.13(19) 4_456 6_565
O3 O1 O3 115.40(15) 4 6_565
O3 O1 O3 121.81(13) 3_455 6_565
O3 O1 O3 29.2(3) 1_565 6_565
Ga2 O1 O3 45.41(13) 1_566 6_565
Ga2 O1 O3 152.9(3) 1_556 6_565
Ga2 O1 O3 75.56(11) 1_666 6_565
O1 O1 O3 49.45(12) 2_465 6_565
O1 O1 O3 157.1(4) 2_455 6_565
O1 O1 O3 78.27(13) 2_565 6_565
O1 O1 O3 93.7(2) 1_554 6_565
O1 O1 O3 86.3(2) 1_556 6_565
Ga3 O1 O3 149.0(3) 4_446 6_565
Ga3 O1 O3 39.93(10) 1_666 6_565
Ga3 O1 O3 81.26(13) 2_465 6_565
O3 O1 O3 119.58(5) 5 6_565
O3 O1 O3 119.58(5) 2_455 6_565
Ga2 O1 O3 55.8(3) 2_565 4_556
La O1 O3 83.10(19) . 4_556
La O1 O3 74.3(2) 2_565 4_556
La O1 O3 164.7(5) 4_455 4_556
O2 O1 O3 90.6(3) 2_565 4_556
O2 O1 O3 132.3(4) 6 4_556
O2 O1 O3 136.0(4) 5_455 4_556
O2 O1 O3 24.5(3) 2_566 4_556
O2 O1 O3 73.4(4) 6_556 4_556
O2 O1 O3 76.0(5) 5_456 4_556
O3 O1 O3 36.3(3) 6 4_556
O3 O1 O3 127.8(4) 5_455 4_556
O3 O1 O3 90.4(3) 2_565 4_556
Ga2 O1 O3 124.2(3) 2_564 4_556
O2 O1 O3 31.8(2) 3_565 4_556
O2 O1 O3 88.4(4) . 4_556
O2 O1 O3 123.3(4) 4_455 4_556
Ga3 O1 O3 6.70(19) 2_565 4_556
Ga3 O1 O3 97.5(3) 1_556 4_556
Ga3 O1 O3 94.4(3) 4_456 4_556
O3 O1 O3 72.20(14) . 4_556
O3 O1 O3 160.1(2) 4_455 4_556
O3 O1 O3 100.0(2) 3_565 4_556
Ga3 O1 O3 81.24(19) 2_564 4_556
Ga3 O1 O3 135.49(17) . 4_556
Ga3 O1 O3 132.24(15) 4_455 4_556
Nb O1 O3 48.45(18) . 4_556
Ga1 O1 O3 48.45(18) . 4_556
Nb O1 O3 136.3(2) 1_455 4_556
Ga1 O1 O3 136.3(2) 1_455 4_556
Ga1 O1 O3 104.44(14) 1_565 4_556
Nb O1 O3 104.44(14) 1_565 4_556
O2 O1 O3 60.43(18) 4_445 4_556
O2 O1 O3 60.70(18) 1_665 4_556
O2 O1 O3 137.4(4) 3_465 4_556
O3 O1 O3 30.4(2) 1_556 4_556
O3 O1 O3 64.4(3) 3_566 4_556
O3 O1 O3 104.7(4) 4_456 4_556
La O1 O3 49.3(2) 1_556 4_556
La O1 O3 43.1(2) 2_566 4_556
La O1 O3 85.3(3) 4_456 4_556
O3 O1 O3 59.46(13) 4 4_556
O3 O1 O3 127.88(7) 3_455 4_556
O3 O1 O3 127.88(7) 1_565 4_556
Ga2 O1 O3 124.3(4) 1_566 4_556
Ga2 O1 O3 71.44(16) 1_556 4_556
Ga2 O1 O3 39.19(11) 1_666 4_556
O1 O1 O3 157.9(4) 2_465 4_556
O1 O1 O3 93.23(19) 2_455 4_556
O1 O1 O3 66.8(2) 2_565 4_556
O1 O1 O3 124.2(3) 1_554 4_556
O1 O1 O3 55.8(3) 1_556 4_556
Ga3 O1 O3 40.13(12) 4_446 4_556
Ga3 O1 O3 70.42(15) 1_666 4_556
Ga3 O1 O3 124.6(4) 2_465 4_556
O3 O1 O3 30.6(4) 5 4_556
O3 O1 O3 114.86(19) 2_455 4_556
O3 O1 O3 109.30(18) 6_565 4_556
Ga2 O1 O3 55.8(3) 2_565 3_456
La O1 O3 74.3(2) . 3_456
La O1 O3 164.7(5) 2_565 3_456
La O1 O3 83.10(19) 4_455 3_456
O2 O1 O3 136.0(4) 2_565 3_456
O2 O1 O3 90.6(3) 6 3_456
O2 O1 O3 132.3(4) 5_455 3_456
O2 O1 O3 76.0(5) 2_566 3_456
O2 O1 O3 24.5(3) 6_556 3_456
O2 O1 O3 73.4(4) 5_456 3_456
O3 O1 O3 90.4(3) 6 3_456
O3 O1 O3 36.3(3) 5_455 3_456
O3 O1 O3 127.8(4) 2_565 3_456
Ga2 O1 O3 124.2(3) 2_564 3_456
O2 O1 O3 123.3(4) 3_565 3_456
O2 O1 O3 31.8(2) . 3_456
O2 O1 O3 88.4(4) 4_455 3_456
Ga3 O1 O3 94.4(3) 2_565 3_456
Ga3 O1 O3 6.70(19) 1_556 3_456
Ga3 O1 O3 97.5(3) 4_456 3_456
O3 O1 O3 100.0(2) . 3_456
O3 O1 O3 72.20(14) 4_455 3_456
O3 O1 O3 160.1(2) 3_565 3_456
Ga3 O1 O3 132.24(15) 2_564 3_456
Ga3 O1 O3 81.24(19) . 3_456
Ga3 O1 O3 135.49(17) 4_455 3_456
Nb O1 O3 104.44(14) . 3_456
Ga1 O1 O3 104.44(14) . 3_456
Nb O1 O3 48.45(18) 1_455 3_456
Ga1 O1 O3 48.45(18) 1_455 3_456
Ga1 O1 O3 136.3(2) 1_565 3_456
Nb O1 O3 136.3(2) 1_565 3_456
O2 O1 O3 60.70(18) 4_445 3_456
O2 O1 O3 137.4(4) 1_665 3_456
O2 O1 O3 60.43(18) 3_465 3_456
O3 O1 O3 64.4(3) 1_556 3_456
O3 O1 O3 104.7(4) 3_566 3_456
O3 O1 O3 30.4(2) 4_456 3_456
La O1 O3 43.1(2) 1_556 3_456
La O1 O3 85.3(3) 2_566 3_456
La O1 O3 49.3(2) 4_456 3_456
O3 O1 O3 127.88(7) 4 3_456
O3 O1 O3 59.46(13) 3_455 3_456
O3 O1 O3 127.88(7) 1_565 3_456
Ga2 O1 O3 71.44(16) 1_566 3_456
Ga2 O1 O3 39.19(11) 1_556 3_456
Ga2 O1 O3 124.3(4) 1_666 3_456
O1 O1 O3 93.23(19) 2_465 3_456
O1 O1 O3 66.8(2) 2_455 3_456
O1 O1 O3 157.9(4) 2_565 3_456
O1 O1 O3 124.2(3) 1_554 3_456
O1 O1 O3 55.8(3) 1_556 3_456
Ga3 O1 O3 70.43(15) 4_446 3_456
Ga3 O1 O3 124.6(4) 1_666 3_456
Ga3 O1 O3 40.13(12) 2_465 3_456
O3 O1 O3 109.30(18) 5 3_456
O3 O1 O3 30.6(4) 2_455 3_456
O3 O1 O3 114.86(19) 6_565 3_456
O3 O1 O3 91.5(4) 4_556 3_456
Ga2 O1 O3 55.8(3) 2_565 1_566
La O1 O3 164.7(5) . 1_566
La O1 O3 83.09(19) 2_565 1_566
La O1 O3 74.3(2) 4_455 1_566
O2 O1 O3 132.3(4) 2_565 1_566
O2 O1 O3 136.0(4) 6 1_566
O2 O1 O3 90.6(3) 5_455 1_566
O2 O1 O3 73.4(4) 2_566 1_566
O2 O1 O3 76.0(5) 6_556 1_566
O2 O1 O3 24.5(3) 5_456 1_566
O3 O1 O3 127.8(4) 6 1_566
O3 O1 O3 90.4(3) 5_455 1_566
O3 O1 O3 36.3(3) 2_565 1_566
Ga2 O1 O3 124.2(3) 2_564 1_566
O2 O1 O3 88.4(4) 3_565 1_566
O2 O1 O3 123.3(4) . 1_566
O2 O1 O3 31.8(2) 4_455 1_566
Ga3 O1 O3 97.5(3) 2_565 1_566
Ga3 O1 O3 94.4(3) 1_556 1_566
Ga3 O1 O3 6.70(19) 4_456 1_566
O3 O1 O3 160.1(2) . 1_566
O3 O1 O3 100.0(2) 4_455 1_566
O3 O1 O3 72.20(14) 3_565 1_566
Ga3 O1 O3 135.49(17) 2_564 1_566
Ga3 O1 O3 132.24(15) . 1_566
Ga3 O1 O3 81.24(19) 4_455 1_566
Nb O1 O3 136.3(2) . 1_566
Ga1 O1 O3 136.3(2) . 1_566
Nb O1 O3 104.44(14) 1_455 1_566
Ga1 O1 O3 104.44(14) 1_455 1_566
Ga1 O1 O3 48.45(18) 1_565 1_566
Nb O1 O3 48.45(18) 1_565 1_566
O2 O1 O3 137.4(4) 4_445 1_566
O2 O1 O3 60.43(18) 1_665 1_566
O2 O1 O3 60.70(18) 3_465 1_566
O3 O1 O3 104.7(4) 1_556 1_566
O3 O1 O3 30.4(2) 3_566 1_566
O3 O1 O3 64.4(3) 4_456 1_566
La O1 O3 85.3(3) 1_556 1_566
La O1 O3 49.3(2) 2_566 1_566
La O1 O3 43.1(2) 4_456 1_566
O3 O1 O3 127.88(7) 4 1_566
O3 O1 O3 127.88(7) 3_455 1_566
O3 O1 O3 59.46(13) 1_565 1_566
Ga2 O1 O3 39.19(11) 1_566 1_566
Ga2 O1 O3 124.3(4) 1_556 1_566
Ga2 O1 O3 71.44(16) 1_666 1_566
O1 O1 O3 66.8(2) 2_465 1_566
O1 O1 O3 157.9(4) 2_455 1_566
O1 O1 O3 93.23(19) 2_565 1_566
O1 O1 O3 124.2(3) 1_554 1_566
O1 O1 O3 55.8(3) 1_556 1_566
Ga3 O1 O3 124.6(4) 4_446 1_566
Ga3 O1 O3 40.13(12) 1_666 1_566
Ga3 O1 O3 70.42(15) 2_465 1_566
O3 O1 O3 114.86(18) 5 1_566
O3 O1 O3 109.30(18) 2_455 1_566
O3 O1 O3 30.6(4) 6_565 1_566
O3 O1 O3 91.5(4) 4_556 1_566
O3 O1 O3 91.5(4) 3_456 1_566
Ga2 O1 O2 141.31(15) 2_565 1_554
La O1 O2 38.9(3) . 1_554
La O1 O2 103.9(4) 2_565 1_554
La O1 O2 74.9(3) 4_455 1_554
O2 O1 O2 53.4(2) 2_565 1_554
O2 O1 O2 13.3(3) 6 1_554
O2 O1 O2 67.5(4) 5_455 1_554
O2 O1 O2 135.8(2) 2_566 1_554
O2 O1 O2 111.2(3) 6_556 1_554
O2 O1 O2 156.8(2) 5_456 1_554
O3 O1 O2 83.1(3) 6 1_554
O3 O1 O2 71.5(4) 5_455 1_554
O3 O1 O2 134.2(5) 2_565 1_554
Ga2 O1 O2 38.69(14) 2_564 1_554
O2 O1 O2 117.4(3) 3_565 1_554
O2 O1 O2 62.6(3) . 1_554
O2 O1 O2 117.4(3) 4_455 1_554
Ga3 O1 O2 113.3(2) 2_565 1_554
Ga3 O1 O2 82.51(18) 1_556 1_554
Ga3 O1 O2 145.7(3) 4_456 1_554
O3 O1 O2 48.4(2) . 1_554
O3 O1 O2 50.7(3) 4_455 1_554
O3 O1 O2 100.0(4) 3_565 1_554
Ga3 O1 O2 56.9(2) 2_564 1_554
Ga3 O1 O2 17.83(14) . 1_554
Ga3 O1 O2 77.6(2) 4_455 1_554
Nb O1 O2 73.13(19) . 1_554
Ga1 O1 O2 73.13(19) . 1_554
Nb O1 O2 54.13(17) 1_455 1_554
Ga1 O1 O2 54.13(17) 1_455 1_554
Ga1 O1 O2 116.6(3) 1_565 1_554
Nb O1 O2 116.6(3) 1_565 1_554
O2 O1 O2 67.26(17) 4_445 1_554
O2 O1 O2 132.7(3) 1_665 1_554
O2 O1 O2 92.9(3) 3_465 1_554
O3 O1 O2 102.89(17) 1_556 1_554
O3 O1 O2 166.8(3) 3_566 1_554
O3 O1 O2 104.49(18) 4_456 1_554
La O1 O2 114.19(11) 1_556 1_554
La O1 O2 160.80(14) 2_566 1_554
La O1 O2 133.00(12) 4_456 1_554
O3 O1 O2 73.9(3) 4 1_554
O3 O1 O2 31.9(2) 3_455 1_554
O3 O1 O2 97.2(3) 1_565 1_554
Ga2 O1 O2 112.83(18) 1_566 1_554
Ga2 O1 O2 71.09(14) 1_556 1_554
Ga2 O1 O2 132.3(2) 1_666 1_554
O1 O1 O2 82.4(3) 2_465 1_554
O1 O1 O2 33.4(3) 2_455 1_554
O1 O1 O2 98.6(4) 2_565 1_554
O1 O1 O2 38.69(14) 1_554 1_554
O1 O1 O2 141.31(15) 1_556 1_554
Ga3 O1 O2 84.23(14) 4_446 1_554
Ga3 O1 O2 146.8(3) 1_666 1_554
Ga3 O1 O2 90.21(15) 2_465 1_554
O3 O1 O2 94.3(2) 5 1_554
O3 O1 O2 59.9(2) 2_455 1_554
O3 O1 O2 125.4(3) 6_565 1_554
O3 O1 O2 119.4(2) 4_556 1_554
O3 O1 O2 88.1(2) 3_456 1_554
O3 O1 O2 149.1(2) 1_566 1_554
Ga2 O1 O2 141.31(15) 2_565 3_564
La O1 O2 74.9(3) . 3_564
La O1 O2 38.9(3) 2_565 3_564
La O1 O2 103.9(4) 4_455 3_564
O2 O1 O2 13.3(3) 2_565 3_564
O2 O1 O2 67.5(4) 6 3_564
O2 O1 O2 53.4(2) 5_455 3_564
O2 O1 O2 111.2(3) 2_566 3_564
O2 O1 O2 156.8(2) 6_556 3_564
O2 O1 O2 135.8(2) 5_456 3_564
O3 O1 O2 71.5(4) 6 3_564
O3 O1 O2 134.2(5) 5_455 3_564
O3 O1 O2 83.1(3) 2_565 3_564
Ga2 O1 O2 38.69(14) 2_564 3_564
O2 O1 O2 62.6(3) 3_565 3_564
O2 O1 O2 117.4(3) . 3_564
O2 O1 O2 117.4(3) 4_455 3_564
Ga3 O1 O2 82.51(18) 2_565 3_564
Ga3 O1 O2 145.7(3) 1_556 3_564
Ga3 O1 O2 113.3(2) 4_456 3_564
O3 O1 O2 50.7(3) . 3_564
O3 O1 O2 100.0(4) 4_455 3_564
O3 O1 O2 48.4(2) 3_565 3_564
Ga3 O1 O2 17.83(14) 2_564 3_564
Ga3 O1 O2 77.6(2) . 3_564
Ga3 O1 O2 56.9(2) 4_455 3_564
Nb O1 O2 54.13(17) . 3_564
Ga1 O1 O2 54.13(17) . 3_564
Nb O1 O2 116.6(3) 1_455 3_564
Ga1 O1 O2 116.6(3) 1_455 3_564
Ga1 O1 O2 73.13(19) 1_565 3_564
Nb O1 O2 73.13(19) 1_565 3_564
O2 O1 O2 92.9(3) 4_445 3_564
O2 O1 O2 67.26(17) 1_665 3_564
O2 O1 O2 132.7(3) 3_465 3_564
O3 O1 O2 104.49(18) 1_556 3_564
O3 O1 O2 102.89(17) 3_566 3_564
O3 O1 O2 166.8(3) 4_456 3_564
La O1 O2 133.01(12) 1_556 3_564
La O1 O2 114.19(11) 2_566 3_564
La O1 O2 160.80(14) 4_456 3_564
O3 O1 O2 31.9(2) 4 3_564
O3 O1 O2 97.2(3) 3_455 3_564
O3 O1 O2 73.9(3) 1_565 3_564
Ga2 O1 O2 132.3(2) 1_566 3_564
Ga2 O1 O2 112.83(18) 1_556 3_564
Ga2 O1 O2 71.09(14) 1_666 3_564
O1 O1 O2 98.6(4) 2_465 3_564
O1 O1 O2 82.4(3) 2_455 3_564
O1 O1 O2 33.4(3) 2_565 3_564
O1 O1 O2 38.69(14) 1_554 3_564
O1 O1 O2 141.31(14) 1_556 3_564
Ga3 O1 O2 90.21(15) 4_446 3_564
Ga3 O1 O2 84.23(14) 1_666 3_564
Ga3 O1 O2 146.8(3) 2_465 3_564
O3 O1 O2 59.9(2) 5 3_564
O3 O1 O2 125.4(3) 2_455 3_564
O3 O1 O2 94.3(2) 6_565 3_564
O3 O1 O2 88.1(2) 4_556 3_564
O3 O1 O2 149.1(2) 3_456 3_564
O3 O1 O2 119.4(2) 1_566 3_564
O2 O1 O2 65.5(2) 1_554 3_564
Ga2 O1 O2 141.31(14) 2_565 4_454
La O1 O2 103.9(4) . 4_454
La O1 O2 74.9(3) 2_565 4_454
La O1 O2 38.9(3) 4_455 4_454
O2 O1 O2 67.5(4) 2_565 4_454
O2 O1 O2 53.4(2) 6 4_454
O2 O1 O2 13.3(3) 5_455 4_454
O2 O1 O2 156.8(2) 2_566 4_454
O2 O1 O2 135.8(2) 6_556 4_454
O2 O1 O2 111.2(3) 5_456 4_454
O3 O1 O2 134.2(5) 6 4_454
O3 O1 O2 83.1(3) 5_455 4_454
O3 O1 O2 71.5(4) 2_565 4_454
Ga2 O1 O2 38.69(14) 2_564 4_454
O2 O1 O2 117.4(3) 3_565 4_454
O2 O1 O2 117.4(3) . 4_454
O2 O1 O2 62.6(3) 4_455 4_454
Ga3 O1 O2 145.7(3) 2_565 4_454
Ga3 O1 O2 113.3(2) 1_556 4_454
Ga3 O1 O2 82.51(18) 4_456 4_454
O3 O1 O2 100.0(4) . 4_454
O3 O1 O2 48.4(2) 4_455 4_454
O3 O1 O2 50.7(3) 3_565 4_454
Ga3 O1 O2 77.6(2) 2_564 4_454
Ga3 O1 O2 56.9(2) . 4_454
Ga3 O1 O2 17.83(14) 4_455 4_454
Nb O1 O2 116.6(3) . 4_454
Ga1 O1 O2 116.6(3) . 4_454
Nb O1 O2 73.13(19) 1_455 4_454
Ga1 O1 O2 73.13(19) 1_455 4_454
Ga1 O1 O2 54.13(17) 1_565 4_454
Nb O1 O2 54.13(17) 1_565 4_454
O2 O1 O2 132.7(3) 4_445 4_454
O2 O1 O2 92.9(3) 1_665 4_454
O2 O1 O2 67.26(17) 3_465 4_454
O3 O1 O2 166.8(3) 1_556 4_454
O3 O1 O2 104.49(18) 3_566 4_454
O3 O1 O2 102.89(17) 4_456 4_454
La O1 O2 160.80(14) 1_556 4_454
La O1 O2 133.00(12) 2_566 4_454
La O1 O2 114.19(10) 4_456 4_454
O3 O1 O2 97.2(3) 4 4_454
O3 O1 O2 73.9(3) 3_455 4_454
O3 O1 O2 31.9(2) 1_565 4_454
Ga2 O1 O2 71.09(14) 1_566 4_454
Ga2 O1 O2 132.3(2) 1_556 4_454
Ga2 O1 O2 112.83(18) 1_666 4_454
O1 O1 O2 33.4(3) 2_465 4_454
O1 O1 O2 98.6(4) 2_455 4_454
O1 O1 O2 82.4(3) 2_565 4_454
O1 O1 O2 38.69(14) 1_554 4_454
O1 O1 O2 141.31(14) 1_556 4_454
Ga3 O1 O2 146.8(3) 4_446 4_454
Ga3 O1 O2 90.21(15) 1_666 4_454
Ga3 O1 O2 84.23(14) 2_465 4_454
O3 O1 O2 125.4(3) 5 4_454
O3 O1 O2 94.3(2) 2_455 4_454
O3 O1 O2 59.9(2) 6_565 4_454
O3 O1 O2 149.1(2) 4_556 4_454
O3 O1 O2 119.4(2) 3_456 4_454
O3 O1 O2 88.1(2) 1_566 4_454
O2 O1 O2 65.5(2) 1_554 4_454
O2 O1 O2 65.5(2) 3_564 4_454
Ga2 O1 O3 146.43(15) 2_565 6_554
La O1 O3 47.5(3) . 6_554
La O1 O3 67.4(3) 2_565 6_554
La O1 O3 102.0(4) 4_455 6_554
O2 O1 O3 15.6(3) 2_565 6_554
O2 O1 O3 46.7(4) 6 6_554
O2 O1 O3 64.3(4) 5_455 6_554
O2 O1 O3 117.2(2) 2_566 6_554
O2 O1 O3 135.9(4) 6_556 6_554
O2 O1 O3 163.1(3) 5_456 6_554
O3 O1 O3 62.8(3) 6 6_554
O3 O1 O3 111.5(4) 5_455 6_554
O3 O1 O3 111.5(4) 2_565 6_554
Ga2 O1 O3 33.57(15) 2_564 6_554
O2 O1 O3 79.1(3) 3_565 6_554
O2 O1 O3 89.0(3) . 6_554
O2 O1 O3 134.1(5) 4_455 6_554
Ga3 O1 O3 86.42(18) 2_565 6_554
Ga3 O1 O3 116.7(2) 1_556 6_554
Ga3 O1 O3 141.1(3) 4_456 6_554
O3 O1 O3 29.1(4) . 6_554
O3 O1 O3 85.8(3) 4_455 6_554
O3 O1 O3 75.3(3) 3_565 6_554
Ga3 O1 O3 16.84(11) 2_564 6_554
Ga3 O1 O3 55.77(19) . 6_554
Ga3 O1 O3 72.0(2) 4_455 6_554
Nb O1 O3 46.09(17) . 6_554
Ga1 O1 O3 46.09(17) . 6_554
Nb O1 O3 94.1(2) 1_455 6_554
Ga1 O1 O3 94.1(2) 1_455 6_554
Ga1 O1 O3 99.4(3) 1_565 6_554
Nb O1 O3 99.4(3) 1_565 6_554
O2 O1 O3 70.8(2) 4_445 6_554
O2 O1 O3 94.5(2) 1_665 6_554
O2 O1 O3 128.0(3) 3_465 6_554
O3 O1 O3 95.2(3) 1_556 6_554
O3 O1 O3 130.3(2) 3_566 6_554
O3 O1 O3 143.9(2) 4_456 6_554
La O1 O3 121.26(15) 1_556 6_554
La O1 O3 132.19(9) 2_566 6_554
La O1 O3 169.41(16) 4_456 6_554
O3 O1 O3 36.1(2) 4 6_554
O3 O1 O3 71.7(3) 3_455 6_554
O3 O1 O3 93.1(3) 1_565 6_554
Ga2 O1 O3 141.7(3) 1_566 6_554
Ga2 O1 O3 87.53(19) 1_556 6_554
Ga2 O1 O3 92.61(14) 1_666 6_554
O1 O1 O3 103.0(5) 2_465 6_554
O1 O1 O3 53.7(3) 2_455 6_554
O1 O1 O3 59.7(3) 2_565 6_554
O1 O1 O3 33.57(15) 1_554 6_554
O1 O1 O3 146.43(15) 1_556 6_554
Ga3 O1 O3 76.11(17) 4_446 6_554
Ga3 O1 O3 112.76(17) 1_666 6_554
Ga3 O1 O3 130.0(2) 2_465 6_554
O3 O1 O3 62.69(15) 5 6_554
O3 O1 O3 97.7(2) 2_455 6_554
O3 O1 O3 119.1(4) 6_565 6_554
O3 O1 O3 93.1(3) 4_556 6_554
O3 O1 O3 120.4(3) 3_456 6_554
O3 O1 O3 147.53(18) 1_566 6_554
O2 O1 O3 40.05(18) 1_554 6_554
O2 O1 O3 28.95(18) 3_564 6_554
O2 O1 O3 71.9(2) 4_454 6_554
Ga2 O1 O3 146.43(16) 2_565 5_454
La O1 O3 67.4(3) . 5_454
La O1 O3 102.0(4) 2_565 5_454
La O1 O3 47.5(3) 4_455 5_454
O2 O1 O3 64.3(4) 2_565 5_454
O2 O1 O3 15.6(3) 6 5_454
O2 O1 O3 46.7(4) 5_455 5_454
O2 O1 O3 163.1(3) 2_566 5_454
O2 O1 O3 117.2(2) 6_556 5_454
O2 O1 O3 135.9(4) 5_456 5_454
O3 O1 O3 111.5(4) 6 5_454
O3 O1 O3 62.8(3) 5_455 5_454
O3 O1 O3 111.5(4) 2_565 5_454
Ga2 O1 O3 33.57(15) 2_564 5_454
O2 O1 O3 134.1(5) 3_565 5_454
O2 O1 O3 79.1(3) . 5_454
O2 O1 O3 89.0(3) 4_455 5_454
Ga3 O1 O3 141.1(3) 2_565 5_454
Ga3 O1 O3 86.42(18) 1_556 5_454
Ga3 O1 O3 116.7(2) 4_456 5_454
O3 O1 O3 75.3(3) . 5_454
O3 O1 O3 29.1(4) 4_455 5_454
O3 O1 O3 85.8(3) 3_565 5_454
Ga3 O1 O3 72.0(2) 2_564 5_454
Ga3 O1 O3 16.84(11) . 5_454
Ga3 O1 O3 55.77(19) 4_455 5_454
Nb O1 O3 99.4(3) . 5_454
Ga1 O1 O3 99.4(3) . 5_454
Nb O1 O3 46.09(17) 1_455 5_454
Ga1 O1 O3 46.09(17) 1_455 5_454
Ga1 O1 O3 94.1(2) 1_565 5_454
Nb O1 O3 94.1(2) 1_565 5_454
O2 O1 O3 94.5(2) 4_445 5_454
O2 O1 O3 128.0(3) 1_665 5_454
O2 O1 O3 70.8(2) 3_465 5_454
O3 O1 O3 130.3(2) 1_556 5_454
O3 O1 O3 143.9(2) 3_566 5_454
O3 O1 O3 95.2(3) 4_456 5_454
La O1 O3 132.19(9) 1_556 5_454
La O1 O3 169.41(16) 2_566 5_454
La O1 O3 121.26(15) 4_456 5_454
O3 O1 O3 93.1(3) 4 5_454
O3 O1 O3 36.1(2) 3_455 5_454
O3 O1 O3 71.7(3) 1_565 5_454
Ga2 O1 O3 87.5(2) 1_566 5_454
Ga2 O1 O3 92.61(14) 1_556 5_454
Ga2 O1 O3 141.7(3) 1_666 5_454
O1 O1 O3 53.7(3) 2_465 5_454
O1 O1 O3 59.7(3) 2_455 5_454
O1 O1 O3 103.0(5) 2_565 5_454
O1 O1 O3 33.57(15) 1_554 5_454
O1 O1 O3 146.43(16) 1_556 5_454
Ga3 O1 O3 112.76(17) 4_446 5_454
Ga3 O1 O3 130.0(2) 1_666 5_454
Ga3 O1 O3 76.11(17) 2_465 5_454
O3 O1 O3 119.1(4) 5 5_454
O3 O1 O3 62.69(15) 2_455 5_454
O3 O1 O3 97.7(2) 6_565 5_454
O3 O1 O3 147.53(18) 4_556 5_454
O3 O1 O3 93.1(3) 3_456 5_454
O3 O1 O3 120.4(3) 1_566 5_454
O2 O1 O3 28.95(18) 1_554 5_454
O2 O1 O3 71.9(2) 3_564 5_454
O2 O1 O3 40.05(18) 4_454 5_454
O3 O1 O3 57.2(3) 6_554 5_454
Ga2 O1 O3 146.43(16) 2_565 2_564
La O1 O3 102.0(4) . 2_564
La O1 O3 47.5(3) 2_565 2_564
La O1 O3 67.4(3) 4_455 2_564
O2 O1 O3 46.7(4) 2_565 2_564
O2 O1 O3 64.3(4) 6 2_564
O2 O1 O3 15.6(3) 5_455 2_564
O2 O1 O3 135.9(4) 2_566 2_564
O2 O1 O3 163.1(3) 6_556 2_564
O2 O1 O3 117.2(2) 5_456 2_564
O3 O1 O3 111.5(4) 6 2_564
O3 O1 O3 111.5(4) 5_455 2_564
O3 O1 O3 62.8(3) 2_565 2_564
Ga2 O1 O3 33.57(15) 2_564 2_564
O2 O1 O3 89.0(3) 3_565 2_564
O2 O1 O3 134.1(5) . 2_564
O2 O1 O3 79.1(3) 4_455 2_564
Ga3 O1 O3 116.7(2) 2_565 2_564
Ga3 O1 O3 141.1(3) 1_556 2_564
Ga3 O1 O3 86.42(18) 4_456 2_564
O3 O1 O3 85.8(3) . 2_564
O3 O1 O3 75.3(3) 4_455 2_564
O3 O1 O3 29.1(4) 3_565 2_564
Ga3 O1 O3 55.77(19) 2_564 2_564
Ga3 O1 O3 72.0(2) . 2_564
Ga3 O1 O3 16.84(11) 4_455 2_564
Nb O1 O3 94.1(2) . 2_564
Ga1 O1 O3 94.1(2) . 2_564
Nb O1 O3 99.4(3) 1_455 2_564
Ga1 O1 O3 99.4(3) 1_455 2_564
Ga1 O1 O3 46.09(17) 1_565 2_564
Nb O1 O3 46.09(17) 1_565 2_564
O2 O1 O3 128.0(3) 4_445 2_564
O2 O1 O3 70.8(2) 1_665 2_564
O2 O1 O3 94.5(2) 3_465 2_564
O3 O1 O3 143.9(2) 1_556 2_564
O3 O1 O3 95.2(3) 3_566 2_564
O3 O1 O3 130.3(2) 4_456 2_564
La O1 O3 169.41(16) 1_556 2_564
La O1 O3 121.26(15) 2_566 2_564
La O1 O3 132.19(9) 4_456 2_564
O3 O1 O3 71.7(3) 4 2_564
O3 O1 O3 93.1(3) 3_455 2_564
O3 O1 O3 36.1(2) 1_565 2_564
Ga2 O1 O3 92.61(14) 1_566 2_564
Ga2 O1 O3 141.7(3) 1_556 2_564
Ga2 O1 O3 87.5(2) 1_666 2_564
O1 O1 O3 59.7(3) 2_465 2_564
O1 O1 O3 103.0(5) 2_455 2_564
O1 O1 O3 53.7(3) 2_565 2_564
O1 O1 O3 33.57(15) 1_554 2_564
O1 O1 O3 146.43(15) 1_556 2_564
Ga3 O1 O3 130.0(2) 4_446 2_564
Ga3 O1 O3 76.11(17) 1_666 2_564
Ga3 O1 O3 112.76(17) 2_465 2_564
O3 O1 O3 97.7(2) 5 2_564
O3 O1 O3 119.1(4) 2_455 2_564
O3 O1 O3 62.69(15) 6_565 2_564
O3 O1 O3 120.4(3) 4_556 2_564
O3 O1 O3 147.53(18) 3_456 2_564
O3 O1 O3 93.1(3) 1_566 2_564
O2 O1 O3 71.9(2) 1_554 2_564
O2 O1 O3 40.05(18) 3_564 2_564
O2 O1 O3 28.95(18) 4_454 2_564
O3 O1 O3 57.2(3) 6_554 2_564
O3 O1 O3 57.2(3) 5_454 2_564
Ga2 O1 O1 54.3(3) 2_565 2_466
La O1 O1 136.2(2) . 2_466
La O1 O1 114.77(15) 2_565 2_466
La O1 O1 57.01(8) 4_455 2_466
O2 O1 O1 154.1(5) 2_565 2_466
O2 O1 O1 115.5(4) 6 2_466
O2 O1 O1 97.3(2) 5_455 2_466
O2 O1 O1 83.8(5) 2_566 2_466
O2 O1 O1 56.6(4) 6_556 2_466
O2 O1 O1 33.3(4) 5_456 2_466
O3 O1 O1 137.6(6) 6 2_466
O3 O1 O1 57.7(3) 5_455 2_466
O3 O1 O1 66.5(2) 2_565 2_466
Ga2 O1 O1 125.7(3) 2_564 2_466
O2 O1 O1 117.4(5) 3_565 2_466
O2 O1 O1 94.4(3) . 2_466
O2 O1 O1 28.4(3) 4_455 2_466
Ga3 O1 O1 114.5(5) 2_565 2_466
Ga3 O1 O1 64.47(19) 1_556 2_466
Ga3 O1 O1 36.94(10) 4_456 2_466
O3 O1 O1 163.3(3) . 2_466
O3 O1 O1 75.6(2) 4_455 2_466
O3 O1 O1 97.54(14) 3_565 2_466
Ga3 O1 O1 162.9(3) 2_564 2_466
Ga3 O1 O1 107.72(12) . 2_466
Ga3 O1 O1 91.18(12) 4_455 2_466
Nb O1 O1 154.9(5) . 2_466
Ga1 O1 O1 154.9(5) . 2_466
Nb O1 O1 72.994(11) 1_455 2_466
Ga1 O1 O1 72.994(11) 1_455 2_466
Ga1 O1 O1 72.994(11) 1_565 2_466
Nb O1 O1 72.994(11) 1_565 2_466
O2 O1 O1 121.9(4) 4_445 2_466
O2 O1 O1 93.3(2) 1_665 2_466
O2 O1 O1 32.71(19) 3_465 2_466
O3 O1 O1 104.3(4) 1_556 2_466
O3 O1 O1 60.4(2) 3_566 2_466
O3 O1 O1 33.41(17) 4_456 2_466
La O1 O1 76.6(3) 1_556 2_466
La O1 O1 67.0(3) 2_566 2_466
La O1 O1 26.15(17) 4_456 2_466
O3 O1 O1 160.2(3) 4 2_466
O3 O1 O1 96.71(12) 3_455 2_466
O3 O1 O1 71.93(14) 1_565 2_466
Ga2 O1 O1 17.32(9) 1_566 2_466
Ga2 O1 O1 101.6(3) 1_556 2_466
Ga2 O1 O1 101.6(3) 1_666 2_466
O1 O1 O1 56.11(9) 2_465 2_466
O1 O1 O1 125.75(17) 2_455 2_466
O1 O1 O1 125.75(18) 2_565 2_466
O1 O1 O1 125.7(3) 1_554 2_466
O1 O1 O1 54.3(3) 1_556 2_466
Ga3 O1 O1 122.0(4) 4_446 2_466
Ga3 O1 O1 73.02(14) 1_666 2_466
Ga3 O1 O1 37.70(2) 2_465 2_466
O3 O1 O1 137.8(4) 5 2_466
O3 O1 O1 76.48(13) 2_455 2_466
O3 O1 O1 51.60(16) 6_565 2_466
O3 O1 O1 107.8(5) 4_556 2_466
O3 O1 O1 63.3(2) 3_456 2_466
O3 O1 O1 32.91(14) 1_566 2_466
O2 O1 O1 125.2(2) 1_554 2_466
O2 O1 O1 145.2(2) 3_564 2_466
O2 O1 O1 88.1(2) 4_454 2_466
O3 O1 O1 158.9(4) 6_554 2_466
O3 O1 O1 103.0(2) 5_454 2_466
O3 O1 O1 107.48(19) 2_564 2_466
Ga2 O1 O1 54.3(3) 2_565 2_456
La O1 O1 57.01(8) . 2_456
La O1 O1 136.2(2) 2_565 2_456
La O1 O1 114.77(14) 4_455 2_456
O2 O1 O1 115.5(4) 2_565 2_456
O2 O1 O1 97.3(2) 6 2_456
O2 O1 O1 154.1(5) 5_455 2_456
O2 O1 O1 56.6(4) 2_566 2_456
O2 O1 O1 33.3(4) 6_556 2_456
O2 O1 O1 83.8(5) 5_456 2_456
O3 O1 O1 57.7(3) 6 2_456
O3 O1 O1 66.5(2) 5_455 2_456
O3 O1 O1 137.6(6) 2_565 2_456
Ga2 O1 O1 125.7(3) 2_564 2_456
O2 O1 O1 94.4(3) 3_565 2_456
O2 O1 O1 28.4(3) . 2_456
O2 O1 O1 117.4(5) 4_455 2_456
Ga3 O1 O1 64.47(19) 2_565 2_456
Ga3 O1 O1 36.94(10) 1_556 2_456
Ga3 O1 O1 114.5(5) 4_456 2_456
O3 O1 O1 75.6(2) . 2_456
O3 O1 O1 97.54(14) 4_455 2_456
O3 O1 O1 163.3(3) 3_565 2_456
Ga3 O1 O1 107.72(12) 2_564 2_456
Ga3 O1 O1 91.18(12) . 2_456
Ga3 O1 O1 162.9(3) 4_455 2_456
Nb O1 O1 72.994(11) . 2_456
Ga1 O1 O1 72.994(11) . 2_456
Nb O1 O1 72.995(11) 1_455 2_456
Ga1 O1 O1 72.995(11) 1_455 2_456
Ga1 O1 O1 154.9(5) 1_565 2_456
Nb O1 O1 154.9(5) 1_565 2_456
O2 O1 O1 32.71(19) 4_445 2_456
O2 O1 O1 121.9(4) 1_665 2_456
O2 O1 O1 93.3(2) 3_465 2_456
O3 O1 O1 33.41(16) 1_556 2_456
O3 O1 O1 104.3(4) 3_566 2_456
O3 O1 O1 60.4(2) 4_456 2_456
La O1 O1 26.15(17) 1_556 2_456
La O1 O1 76.6(3) 2_566 2_456
La O1 O1 67.0(3) 4_456 2_456
O3 O1 O1 96.71(12) 4 2_456
O3 O1 O1 71.93(14) 3_455 2_456
O3 O1 O1 160.2(3) 1_565 2_456
Ga2 O1 O1 101.6(3) 1_566 2_456
Ga2 O1 O1 17.32(9) 1_556 2_456
Ga2 O1 O1 101.6(3) 1_666 2_456
O1 O1 O1 125.75(18) 2_465 2_456
O1 O1 O1 56.11(9) 2_455 2_456
O1 O1 O1 125.75(18) 2_565 2_456
O1 O1 O1 125.7(3) 1_554 2_456
O1 O1 O1 54.3(3) 1_556 2_456
Ga3 O1 O1 37.70(2) 4_446 2_456
Ga3 O1 O1 122.0(4) 1_666 2_456
Ga3 O1 O1 73.02(14) 2_465 2_456
O3 O1 O1 76.48(13) 5 2_456
O3 O1 O1 51.60(16) 2_455 2_456
O3 O1 O1 137.8(4) 6_565 2_456
O3 O1 O1 63.3(2) 4_556 2_456
O3 O1 O1 32.91(14) 3_456 2_456
O3 O1 O1 107.8(5) 1_566 2_456
O2 O1 O1 88.1(2) 1_554 2_456
O2 O1 O1 125.2(2) 3_564 2_456
O2 O1 O1 145.2(2) 4_454 2_456
O3 O1 O1 103.0(2) 6_554 2_456
O3 O1 O1 107.48(19) 5_454 2_456
O3 O1 O1 158.9(4) 2_564 2_456
O1 O1 O1 89.4(4) 2_466 2_456
Ga2 O1 O1 54.3(3) 2_565 2_566
La O1 O1 114.77(15) . 2_566
La O1 O1 57.01(8) 2_565 2_566
La O1 O1 136.2(2) 4_455 2_566
O2 O1 O1 97.3(2) 2_565 2_566
O2 O1 O1 154.1(5) 6 2_566
O2 O1 O1 115.5(4) 5_455 2_566
O2 O1 O1 33.3(4) 2_566 2_566
O2 O1 O1 83.8(5) 6_556 2_566
O2 O1 O1 56.6(4) 5_456 2_566
O3 O1 O1 66.5(2) 6 2_566
O3 O1 O1 137.6(6) 5_455 2_566
O3 O1 O1 57.7(3) 2_565 2_566
Ga2 O1 O1 125.7(3) 2_564 2_566
O2 O1 O1 28.4(3) 3_565 2_566
O2 O1 O1 117.4(5) . 2_566
O2 O1 O1 94.4(3) 4_455 2_566
Ga3 O1 O1 36.93(10) 2_565 2_566
Ga3 O1 O1 114.5(5) 1_556 2_566
Ga3 O1 O1 64.47(19) 4_456 2_566
O3 O1 O1 97.54(14) . 2_566
O3 O1 O1 163.3(3) 4_455 2_566
O3 O1 O1 75.6(2) 3_565 2_566
Ga3 O1 O1 91.18(12) 2_564 2_566
Ga3 O1 O1 162.9(3) . 2_566
Ga3 O1 O1 107.72(12) 4_455 2_566
Nb O1 O1 72.994(11) . 2_566
Ga1 O1 O1 72.994(11) . 2_566
Nb O1 O1 154.9(5) 1_455 2_566
Ga1 O1 O1 154.9(5) 1_455 2_566
Ga1 O1 O1 72.994(11) 1_565 2_566
Nb O1 O1 72.994(11) 1_565 2_566
O2 O1 O1 93.3(2) 4_445 2_566
O2 O1 O1 32.71(19) 1_665 2_566
O2 O1 O1 121.9(4) 3_465 2_566
O3 O1 O1 60.4(2) 1_556 2_566
O3 O1 O1 33.41(16) 3_566 2_566
O3 O1 O1 104.3(4) 4_456 2_566
La O1 O1 67.0(3) 1_556 2_566
La O1 O1 26.15(17) 2_566 2_566
La O1 O1 76.6(3) 4_456 2_566
O3 O1 O1 71.93(14) 4 2_566
O3 O1 O1 160.2(3) 3_455 2_566
O3 O1 O1 96.71(12) 1_565 2_566
Ga2 O1 O1 101.6(3) 1_566 2_566
Ga2 O1 O1 101.6(3) 1_556 2_566
Ga2 O1 O1 17.32(9) 1_666 2_566
O1 O1 O1 125.75(18) 2_465 2_566
O1 O1 O1 125.75(18) 2_455 2_566
O1 O1 O1 56.11(9) 2_565 2_566
O1 O1 O1 125.7(3) 1_554 2_566
O1 O1 O1 54.3(3) 1_556 2_566
Ga3 O1 O1 73.02(14) 4_446 2_566
Ga3 O1 O1 37.70(2) 1_666 2_566
Ga3 O1 O1 122.0(4) 2_465 2_566
O3 O1 O1 51.60(16) 5 2_566
O3 O1 O1 137.8(4) 2_455 2_566
O3 O1 O1 76.48(13) 6_565 2_566
O3 O1 O1 32.91(14) 4_556 2_566
O3 O1 O1 107.8(5) 3_456 2_566
O3 O1 O1 63.3(2) 1_566 2_566
O2 O1 O1 145.2(2) 1_554 2_566
O2 O1 O1 88.1(2) 3_564 2_566
O2 O1 O1 125.2(2) 4_454 2_566
O3 O1 O1 107.48(19) 6_554 2_566
O3 O1 O1 158.9(4) 5_454 2_566
O3 O1 O1 103.0(2) 2_564 2_566
O1 O1 O1 89.4(4) 2_466 2_566
O1 O1 O1 89.4(4) 2_456 2_566
Ga2 O1 O3 86.6(2) 2_565 2
La O1 O3 41.63(18) . 2
La O1 O3 86.41(11) 2_565 2
La O1 O3 150.6(3) 4_455 2
O2 O1 O3 66.2(4) 2_565 2
O2 O1 O3 90.3(4) 6 2
O2 O1 O3 123.3(4) 5_455 2
O2 O1 O3 61.3(2) 2_566 2
O2 O1 O3 84.7(4) 6_556 2
O2 O1 O3 114.8(4) 5_456 2
O3 O1 O3 6.7(3) 6 2
O3 O1 O3 113.3(3) 5_455 2
O3 O1 O3 125.3(4) 2_565 2
Ga2 O1 O3 93.4(2) 2_564 2
O2 O1 O3 55.6(2) 3_565 2
O2 O1 O3 64.3(2) . 2
O2 O1 O3 164.6(5) 4_455 2
Ga3 O1 O3 36.76(16) 2_565 2
Ga3 O1 O3 89.38(14) 1_556 2
Ga3 O1 O3 136.7(3) 4_456 2
O3 O1 O3 32.7(4) . 2
O3 O1 O3 123.17(15) 4_455 2
O3 O1 O3 112.40(13) 3_565 2
Ga3 O1 O3 56.52(13) 2_564 2
Ga3 O1 O3 93.28(19) . 2
Ga3 O1 O3 128.8(3) 4_455 2
Nb O1 O3 18.19(11) . 2
Ga1 O1 O3 18.19(11) . 2
Nb O1 O3 108.64(13) 1_455 2
Ga1 O1 O3 108.64(13) 1_455 2
Ga1 O1 O3 131.56(12) 1_565 2
Nb O1 O3 131.56(12) 1_565 2
O2 O1 O3 28.81(17) 4_445 2
O2 O1 O3 90.94(18) 1_665 2
O2 O1 O3 146.5(2) 3_465 2
O3 O1 O3 35.2(3) 1_556 2
O3 O1 O3 106.17(17) 3_566 2
O3 O1 O3 115.31(19) 4_456 2
La O1 O3 62.89(15) 1_556 2
La O1 O3 84.5(2) 2_566 2
La O1 O3 113.3(3) 4_456 2
O3 O1 O3 41.8(2) 4 2
O3 O1 O3 90.3(2) 3_455 2
O3 O1 O3 144.8(2) 1_565 2
Ga2 O1 O3 155.4(3) 1_566 2
Ga2 O1 O3 49.55(10) 1_556 2
Ga2 O1 O3 71.53(14) 1_666 2
O1 O1 O3 159.6(4) 2_465 2
O1 O1 O3 53.06(16) 2_455 2
O1 O1 O3 74.15(10) 2_565 2
O1 O1 O3 93.4(2) 1_554 2
O1 O1 O3 86.6(2) 1_556 2
Ga3 O1 O3 18.04(11) 4_446 2
Ga3 O1 O3 107.48(16) 1_666 2
Ga3 O1 O3 126.40(17) 2_465 2
O3 O1 O3 27.64(14) 5 2
O3 O1 O3 92.07(14) 2_455 2
O3 O1 O3 146.93(17) 6_565 2
O3 O1 O3 42.3(3) 4_556 2
O3 O1 O3 87.0(2) 3_456 2
O3 O1 O3 133.7(3) 1_566 2
O2 O1 O3 77.2(2) 1_554 2
O2 O1 O3 72.17(19) 3_564 2
O2 O1 O3 132.0(3) 4_454 2
O3 O1 O3 60.08(12) 6_554 2
O3 O1 O3 105.9(3) 5_454 2
O3 O1 O3 112.0(2) 2_564 2
O1 O1 O3 139.4(4) 2_466 2
O1 O1 O3 54.96(10) 2_456 2
O1 O1 O3 73.14(16) 2_566 2
Ga2 O1 O3 86.6(2) 2_565 6_455
La O1 O3 86.41(11) . 6_455
La O1 O3 150.6(3) 2_565 6_455
La O1 O3 41.63(18) 4_455 6_455
O2 O1 O3 123.3(4) 2_565 6_455
O2 O1 O3 66.2(4) 6 6_455
O2 O1 O3 90.3(4) 5_455 6_455
O2 O1 O3 114.8(4) 2_566 6_455
O2 O1 O3 61.3(2) 6_556 6_455
O2 O1 O3 84.7(4) 5_456 6_455
O3 O1 O3 125.3(4) 6 6_455
O3 O1 O3 6.7(3) 5_455 6_455
O3 O1 O3 113.3(3) 2_565 6_455
Ga2 O1 O3 93.4(2) 2_564 6_455
O2 O1 O3 164.6(5) 3_565 6_455
O2 O1 O3 55.5(2) . 6_455
O2 O1 O3 64.3(2) 4_455 6_455
Ga3 O1 O3 136.7(3) 2_565 6_455
Ga3 O1 O3 36.75(16) 1_556 6_455
Ga3 O1 O3 89.38(14) 4_456 6_455
O3 O1 O3 112.40(13) . 6_455
O3 O1 O3 32.7(4) 4_455 6_455
O3 O1 O3 123.17(15) 3_565 6_455
Ga3 O1 O3 128.8(3) 2_564 6_455
Ga3 O1 O3 56.52(13) . 6_455
Ga3 O1 O3 93.28(19) 4_455 6_455
Nb O1 O3 131.57(12) . 6_455
Ga1 O1 O3 131.57(12) . 6_455
Nb O1 O3 18.19(11) 1_455 6_455
Ga1 O1 O3 18.19(11) 1_455 6_455
Ga1 O1 O3 108.64(13) 1_565 6_455
Nb O1 O3 108.64(13) 1_565 6_455
O2 O1 O3 90.94(18) 4_445 6_455
O2 O1 O3 146.5(2) 1_665 6_455
O2 O1 O3 28.81(17) 3_465 6_455
O3 O1 O3 106.17(17) 1_556 6_455
O3 O1 O3 115.30(19) 3_566 6_455
O3 O1 O3 35.2(3) 4_456 6_455
La O1 O3 84.5(2) 1_556 6_455
La O1 O3 113.3(3) 2_566 6_455
La O1 O3 62.89(15) 4_456 6_455
O3 O1 O3 144.8(2) 4 6_455
O3 O1 O3 41.8(2) 3_455 6_455
O3 O1 O3 90.3(2) 1_565 6_455
Ga2 O1 O3 49.55(10) 1_566 6_455
Ga2 O1 O3 71.53(14) 1_556 6_455
Ga2 O1 O3 155.4(3) 1_666 6_455
O1 O1 O3 53.06(16) 2_465 6_455
O1 O1 O3 74.15(10) 2_455 6_455
O1 O1 O3 159.6(4) 2_565 6_455
O1 O1 O3 93.4(2) 1_554 6_455
O1 O1 O3 86.6(2) 1_556 6_455
Ga3 O1 O3 107.48(16) 4_446 6_455
Ga3 O1 O3 126.40(16) 1_666 6_455
Ga3 O1 O3 18.04(11) 2_465 6_455
O3 O1 O3 146.93(17) 5 6_455
O3 O1 O3 27.64(14) 2_455 6_455
O3 O1 O3 92.07(13) 6_565 6_455
O3 O1 O3 133.7(3) 4_556 6_455
O3 O1 O3 42.3(3) 3_456 6_455
O3 O1 O3 87.00(19) 1_566 6_455
O2 O1 O3 72.17(19) 1_554 6_455
O2 O1 O3 132.0(3) 3_564 6_455
O2 O1 O3 77.2(2) 4_454 6_455
O3 O1 O3 112.0(2) 6_554 6_455
O3 O1 O3 60.08(12) 5_454 6_455
O3 O1 O3 105.9(3) 2_564 6_455
O1 O1 O3 54.96(10) 2_466 6_455
O1 O1 O3 73.14(16) 2_456 6_455
O1 O1 O3 139.4(4) 2_566 6_455
O3 O1 O3 119.64(4) 2 6_455
Ga2 O1 O3 86.6(2) 2_565 5_565
La O1 O3 150.6(3) . 5_565
La O1 O3 41.63(18) 2_565 5_565
La O1 O3 86.41(11) 4_455 5_565
O2 O1 O3 90.3(4) 2_565 5_565
O2 O1 O3 123.3(4) 6 5_565
O2 O1 O3 66.2(4) 5_455 5_565
O2 O1 O3 84.7(4) 2_566 5_565
O2 O1 O3 114.8(4) 6_556 5_565
O2 O1 O3 61.3(2) 5_456 5_565
O3 O1 O3 113.3(3) 6 5_565
O3 O1 O3 125.3(4) 5_455 5_565
O3 O1 O3 6.7(3) 2_565 5_565
Ga2 O1 O3 93.4(2) 2_564 5_565
O2 O1 O3 64.3(2) 3_565 5_565
O2 O1 O3 164.6(5) . 5_565
O2 O1 O3 55.5(2) 4_455 5_565
Ga3 O1 O3 89.38(14) 2_565 5_565
Ga3 O1 O3 136.7(3) 1_556 5_565
Ga3 O1 O3 36.75(16) 4_456 5_565
O3 O1 O3 123.17(15) . 5_565
O3 O1 O3 112.39(13) 4_455 5_565
O3 O1 O3 32.7(4) 3_565 5_565
Ga3 O1 O3 93.28(19) 2_564 5_565
Ga3 O1 O3 128.8(3) . 5_565
Ga3 O1 O3 56.52(13) 4_455 5_565
Nb O1 O3 108.64(13) . 5_565
Ga1 O1 O3 108.64(13) . 5_565
Nb O1 O3 131.56(12) 1_455 5_565
Ga1 O1 O3 131.56(12) 1_455 5_565
Ga1 O1 O3 18.19(11) 1_565 5_565
Nb O1 O3 18.19(11) 1_565 5_565
O2 O1 O3 146.5(2) 4_445 5_565
O2 O1 O3 28.81(17) 1_665 5_565
O2 O1 O3 90.94(18) 3_465 5_565
O3 O1 O3 115.30(19) 1_556 5_565
O3 O1 O3 35.2(3) 3_566 5_565
O3 O1 O3 106.17(17) 4_456 5_565
La O1 O3 113.3(3) 1_556 5_565
La O1 O3 62.89(15) 2_566 5_565
La O1 O3 84.5(2) 4_456 5_565
O3 O1 O3 90.3(2) 4 5_565
O3 O1 O3 144.8(2) 3_455 5_565
O3 O1 O3 41.8(2) 1_565 5_565
Ga2 O1 O3 71.53(14) 1_566 5_565
Ga2 O1 O3 155.4(3) 1_556 5_565
Ga2 O1 O3 49.55(10) 1_666 5_565
O1 O1 O3 74.15(10) 2_465 5_565
O1 O1 O3 159.6(4) 2_455 5_565
O1 O1 O3 53.06(16) 2_565 5_565
O1 O1 O3 93.4(2) 1_554 5_565
O1 O1 O3 86.6(2) 1_556 5_565
Ga3 O1 O3 126.40(17) 4_446 5_565
Ga3 O1 O3 18.04(11) 1_666 5_565
Ga3 O1 O3 107.48(16) 2_465 5_565
O3 O1 O3 92.07(14) 5 5_565
O3 O1 O3 146.93(17) 2_455 5_565
O3 O1 O3 27.64(14) 6_565 5_565
O3 O1 O3 87.00(19) 4_556 5_565
O3 O1 O3 133.7(3) 3_456 5_565
O3 O1 O3 42.3(3) 1_566 5_565
O2 O1 O3 132.0(3) 1_554 5_565
O2 O1 O3 77.2(2) 3_564 5_565
O2 O1 O3 72.17(19) 4_454 5_565
O3 O1 O3 105.9(3) 6_554 5_565
O3 O1 O3 112.0(2) 5_454 5_565
O3 O1 O3 60.08(12) 2_564 5_565
O1 O1 O3 73.14(16) 2_466 5_565
O1 O1 O3 139.4(4) 2_456 5_565
O1 O1 O3 54.96(10) 2_566 5_565
O3 O1 O3 119.64(4) 2 5_565
O3 O1 O3 119.64(4) 6_455 5_565
Ga2 O1 La 98.48(16) 2_565 2_455
La O1 La 37.02(3) . 2_455
La O1 La 143.3(4) 2_565 2_455
La O1 La 81.11(9) 4_455 2_455
O2 O1 La 91.6(3) 2_565 2_455
O2 O1 La 49.2(2) 6 2_455
O2 O1 La 104.8(4) 5_455 2_455
O2 O1 La 105.6(4) 2_566 2_455
O2 O1 La 68.0(3) 6_556 2_455
O2 O1 La 118.9(3) 5_456 2_455
O3 O1 La 78.8(2) 6 2_455
O3 O1 La 44.8(3) 5_455 2_455
O3 O1 La 162.4(2) 2_565 2_455
Ga2 O1 La 81.52(16) 2_564 2_455
O2 O1 La 127.8(2) 3_565 2_455
O2 O1 La 21.0(3) . 2_455
O2 O1 La 114.02(18) 4_455 2_455
Ga3 O1 La 103.11(7) 2_565 2_455
Ga3 O1 La 40.93(6) 1_556 2_455
Ga3 O1 La 137.31(16) 4_456 2_455
O3 O1 La 64.25(15) . 2_455
O3 O1 La 55.16(13) 4_455 2_455
O3 O1 La 142.5(4) 3_565 2_455
Ga3 O1 La 90.79(15) 2_564 2_455
Ga3 O1 La 42.02(3) . 2_455
Ga3 O1 La 113.9(2) 4_455 2_455
Nb O1 La 81.82(5) . 2_455
Ga1 O1 La 81.82(5) . 2_455
Nb O1 La 36.34(2) 1_455 2_455
Ga1 O1 La 36.34(2) 1_455 2_455
Ga1 O1 La 150.1(2) 1_565 2_455
Nb O1 La 150.1(2) 1_565 2_455
O2 O1 La 46.03(11) 4_445 2_455
O2 O1 La 163.16(11) 1_665 2_455
O2 O1 La 78.57(12) 3_465 2_455
O3 O1 La 76.42(13) 1_556 2_455
O3 O1 La 150.0(3) 3_566 2_455
O3 O1 La 69.05(13) 4_456 2_455
La O1 La 74.65(8) 1_556 2_455
La O1 La 125.2(2) 2_566 2_455
La O1 La 94.22(12) 4_456 2_455
O3 O1 La 97.77(16) 4 2_455
O3 O1 La 23.46(12) 3_455 2_455
O3 O1 La 126.4(2) 1_565 2_455
Ga2 O1 La 99.08(3) 1_566 2_455
Ga2 O1 La 35.27(2) 1_556 2_455
Ga2 O1 La 142.94(9) 1_666 2_455
O1 O1 La 93.35(12) 2_465 2_455
O1 O1 La 25.39(7) 2_455 2_455
O1 O1 La 133.7(3) 2_565 2_455
O1 O1 La 81.52(16) 1_554 2_455
O1 O1 La 98.48(16) 1_556 2_455
Ga3 O1 La 66.10(2) 4_446 2_455
Ga3 O1 La 170.0(3) 1_666 2_455
Ga3 O1 La 63.90(2) 2_465 2_455
O3 O1 La 99.65(11) 5 2_455
O3 O1 La 24.06(10) 2_455 2_455
O3 O1 La 140.74(11) 6_565 2_455
O3 O1 La 105.32(13) 4_556 2_455
O3 O1 La 45.66(17) 3_456 2_455
O3 O1 La 133.1(2) 1_566 2_455
O2 O1 La 43.22(13) 1_554 2_455
O2 O1 La 104.9(2) 3_564 2_455
O2 O1 La 97.2(2) 4_454 2_455
O3 O1 La 76.09(19) 6_554 2_455
O3 O1 La 58.21(12) 5_454 2_455
O3 O1 La 113.5(3) 2_564 2_455
O1 O1 La 100.45(8) 2_466 2_455
O1 O1 La 49.27(9) 2_456 2_455
O1 O1 La 136.8(2) 2_566 2_455
O3 O1 La 72.29(13) 2 2_455
O3 O1 La 49.79(11) 6_455 2_455
O3 O1 La 167.49(17) 5_565 2_455
Ga2 O1 La 98.48(16) 2_565 4
La O1 La 81.12(9) . 4
La O1 La 37.03(3) 2_565 4
La O1 La 143.3(4) 4_455 4
O2 O1 La 49.2(2) 2_565 4
O2 O1 La 104.8(4) 6 4
O2 O1 La 91.6(3) 5_455 4
O2 O1 La 68.0(3) 2_566 4
O2 O1 La 118.9(3) 6_556 4
O2 O1 La 105.6(4) 5_456 4
O3 O1 La 44.8(3) 6 4
O3 O1 La 162.4(2) 5_455 4
O3 O1 La 78.8(2) 2_565 4
Ga2 O1 La 81.52(16) 2_564 4
O2 O1 La 21.0(3) 3_565 4
O2 O1 La 114.02(18) . 4
O2 O1 La 127.8(2) 4_455 4
Ga3 O1 La 40.93(6) 2_565 4
Ga3 O1 La 137.31(16) 1_556 4
Ga3 O1 La 103.11(6) 4_456 4
O3 O1 La 55.16(13) . 4
O3 O1 La 142.5(4) 4_455 4
O3 O1 La 64.25(15) 3_565 4
Ga3 O1 La 42.02(3) 2_564 4
Ga3 O1 La 113.9(2) . 4
Ga3 O1 La 90.79(15) 4_455 4
Nb O1 La 36.34(2) . 4
Ga1 O1 La 36.34(2) . 4
Nb O1 La 150.1(2) 1_455 4
Ga1 O1 La 150.1(2) 1_455 4
Ga1 O1 La 81.82(5) 1_565 4
Nb O1 La 81.82(5) 1_565 4
O2 O1 La 78.57(12) 4_445 4
O2 O1 La 46.03(11) 1_665 4
O2 O1 La 163.16(11) 3_465 4
O3 O1 La 69.05(13) 1_556 4
O3 O1 La 76.42(13) 3_566 4
O3 O1 La 150.0(3) 4_456 4
La O1 La 94.22(12) 1_556 4
La O1 La 74.65(8) 2_566 4
La O1 La 125.2(2) 4_456 4
O3 O1 La 23.46(12) 4 4
O3 O1 La 126.4(2) 3_455 4
O3 O1 La 97.77(16) 1_565 4
Ga2 O1 La 142.94(9) 1_566 4
Ga2 O1 La 99.08(3) 1_556 4
Ga2 O1 La 35.27(2) 1_666 4
O1 O1 La 133.7(3) 2_465 4
O1 O1 La 93.35(12) 2_455 4
O1 O1 La 25.39(7) 2_565 4
O1 O1 La 81.52(16) 1_554 4
O1 O1 La 98.48(16) 1_556 4
Ga3 O1 La 63.90(2) 4_446 4
Ga3 O1 La 66.10(2) 1_666 4
Ga3 O1 La 170.0(3) 2_465 4
O3 O1 La 24.06(10) 5 4
O3 O1 La 140.75(11) 2_455 4
O3 O1 La 99.64(11) 6_565 4
O3 O1 La 45.66(17) 4_556 4
O3 O1 La 133.1(2) 3_456 4
O3 O1 La 105.32(13) 1_566 4
O2 O1 La 97.2(2) 1_554 4
O2 O1 La 43.22(13) 3_564 4
O2 O1 La 104.9(2) 4_454 4
O3 O1 La 58.22(12) 6_554 4
O3 O1 La 113.5(3) 5_454 4
O3 O1 La 76.09(19) 2_564 4
O1 O1 La 136.8(2) 2_466 4
O1 O1 La 100.45(8) 2_456 4
O1 O1 La 49.27(9) 2_566 4
O3 O1 La 49.79(11) 2 4
O3 O1 La 167.49(17) 6_455 4
O3 O1 La 72.29(13) 5_565 4
La O1 La 117.86(8) 2_455 4
Ga2 O1 La 98.48(16) 2_565 1_565
La O1 La 143.3(4) . 1_565
La O1 La 81.11(9) 2_565 1_565
La O1 La 37.02(3) 4_455 1_565
O2 O1 La 104.8(4) 2_565 1_565
O2 O1 La 91.6(3) 6 1_565
O2 O1 La 49.2(2) 5_455 1_565
O2 O1 La 118.9(3) 2_566 1_565
O2 O1 La 105.6(4) 6_556 1_565
O2 O1 La 68.0(3) 5_456 1_565
O3 O1 La 162.4(2) 6 1_565
O3 O1 La 78.8(2) 5_455 1_565
O3 O1 La 44.8(3) 2_565 1_565
Ga2 O1 La 81.52(16) 2_564 1_565
O2 O1 La 114.02(18) 3_565 1_565
O2 O1 La 127.8(2) . 1_565
O2 O1 La 21.0(3) 4_455 1_565
Ga3 O1 La 137.31(16) 2_565 1_565
Ga3 O1 La 103.11(6) 1_556 1_565
Ga3 O1 La 40.93(6) 4_456 1_565
O3 O1 La 142.5(4) . 1_565
O3 O1 La 64.25(15) 4_455 1_565
O3 O1 La 55.16(13) 3_565 1_565
Ga3 O1 La 113.9(2) 2_564 1_565
Ga3 O1 La 90.79(15) . 1_565
Ga3 O1 La 42.02(3) 4_455 1_565
Nb O1 La 150.1(2) . 1_565
Ga1 O1 La 150.1(2) . 1_565
Nb O1 La 81.82(5) 1_455 1_565
Ga1 O1 La 81.82(5) 1_455 1_565
Ga1 O1 La 36.34(2) 1_565 1_565
Nb O1 La 36.34(2) 1_565 1_565
O2 O1 La 163.16(11) 4_445 1_565
O2 O1 La 78.57(12) 1_665 1_565
O2 O1 La 46.03(11) 3_465 1_565
O3 O1 La 150.0(3) 1_556 1_565
O3 O1 La 69.05(13) 3_566 1_565
O3 O1 La 76.42(13) 4_456 1_565
La O1 La 125.2(2) 1_556 1_565
La O1 La 94.22(12) 2_566 1_565
La O1 La 74.65(8) 4_456 1_565
O3 O1 La 126.4(2) 4 1_565
O3 O1 La 97.77(16) 3_455 1_565
O3 O1 La 23.46(12) 1_565 1_565
Ga2 O1 La 35.27(2) 1_566 1_565
Ga2 O1 La 142.94(9) 1_556 1_565
Ga2 O1 La 99.08(3) 1_666 1_565
O1 O1 La 25.39(7) 2_465 1_565
O1 O1 La 133.7(3) 2_455 1_565
O1 O1 La 93.35(12) 2_565 1_565
O1 O1 La 81.52(16) 1_554 1_565
O1 O1 La 98.48(16) 1_556 1_565
Ga3 O1 La 170.0(3) 4_446 1_565
Ga3 O1 La 63.90(2) 1_666 1_565
Ga3 O1 La 66.10(2) 2_465 1_565
O3 O1 La 140.74(11) 5 1_565
O3 O1 La 99.64(11) 2_455 1_565
O3 O1 La 24.06(10) 6_565 1_565
O3 O1 La 133.1(2) 4_556 1_565
O3 O1 La 105.32(13) 3_456 1_565
O3 O1 La 45.66(17) 1_566 1_565
O2 O1 La 104.9(2) 1_554 1_565
O2 O1 La 97.2(2) 3_564 1_565
O2 O1 La 43.22(13) 4_454 1_565
O3 O1 La 113.5(3) 6_554 1_565
O3 O1 La 76.09(19) 5_454 1_565
O3 O1 La 58.21(12) 2_564 1_565
O1 O1 La 49.27(9) 2_466 1_565
O1 O1 La 136.8(2) 2_456 1_565
O1 O1 La 100.45(8) 2_566 1_565
O3 O1 La 167.49(17) 2 1_565
O3 O1 La 72.29(13) 6_455 1_565
O3 O1 La 49.79(11) 5_565 1_565
La O1 La 117.86(8) 2_455 1_565
La O1 La 117.86(8) 4 1_565
Ga2 O1 O2 83.5(2) 2_565 3_455
La O1 O2 32.4(3) . 3_455
La O1 O2 138.1(2) 2_565 3_455
La O1 O2 102.43(13) 4_455 3_455
O2 O1 O2 94.7(5) 2_565 3_455
O2 O1 O2 67.9(3) 6 3_455
O2 O1 O2 125.1(4) 5_455 3_455
O2 O1 O2 83.8(4) 2_566 3_455
O2 O1 O2 57.4(5) 6_556 3_455
O2 O1 O2 111.0(4) 5_456 3_455
O3 O1 O2 59.8(3) 6 3_455
O3 O1 O2 59.3(3) 5_455 3_455
O3 O1 O2 167.2(5) 2_565 3_455
Ga2 O1 O2 96.5(2) 2_564 3_455
O2 O1 O2 107.8(3) 3_565 3_455
O2 O1 O2 11.3(3) . 3_455
O2 O1 O2 127.4(4) 4_455 3_455
Ga3 O1 O2 80.87(13) 2_565 3_455
Ga3 O1 O2 40.96(19) 1_556 3_455
Ga3 O1 O2 139.1(4) 4_456 3_455
O3 O1 O2 58.0(3) . 3_455
O3 O1 O2 77.67(17) 4_455 3_455
O3 O1 O2 155.0(4) 3_565 3_455
Ga3 O1 O2 90.0(2) 2_564 3_455
Ga3 O1 O2 62.69(11) . 3_455
Ga3 O1 O2 134.9(3) 4_455 3_455
Nb O1 O2 67.72(17) . 3_455
Ga1 O1 O2 67.72(17) . 3_455
Nb O1 O2 56.54(12) 1_455 3_455
Ga1 O1 O2 56.54(12) 1_455 3_455
Ga1 O1 O2 172.9(2) 1_565 3_455
Nb O1 O2 172.9(2) 1_565 3_455
O2 O1 O2 25.49(17) 4_445 3_455
O2 O1 O2 142.6(2) 1_665 3_455
O2 O1 O2 93.35(19) 3_465 3_455
O3 O1 O2 53.59(16) 1_556 3_455
O3 O1 O2 134.0(3) 3_566 3_455
O3 O1 O2 72.0(3) 4_456 3_455
La O1 O2 55.82(14) 1_556 3_455
La O1 O2 105.8(2) 2_566 3_455
La O1 O2 89.7(2) 4_456 3_455
O3 O1 O2 88.7(2) 4 3_455
O3 O1 O2 46.22(16) 3_455 3_455
O3 O1 O2 149.2(2) 1_565 3_455
Ga2 O1 O2 110.5(2) 1_566 3_455
Ga2 O1 O2 13.18(12) 1_556 3_455
Ga2 O1 O2 121.12(17) 1_666 3_455
O1 O1 O2 114.86(14) 2_465 3_455
O1 O1 O2 27.5(3) 2_455 3_455
O1 O1 O2 125.8(2) 2_565 3_455
O1 O1 O2 96.5(2) 1_554 3_455
O1 O1 O2 83.5(2) 1_556 3_455
Ga3 O1 O2 44.35(13) 4_446 3_455
Ga3 O1 O2 150.5(3) 1_666 3_455
Ga3 O1 O2 74.82(19) 2_465 3_455
O3 O1 O2 81.51(17) 5 3_455
O3 O1 O2 38.07(18) 2_455 3_455
O3 O1 O2 155.9(3) 6_565 3_455
O3 O1 O2 82.63(16) 4_556 3_455
O3 O1 O2 42.2(2) 3_456 3_455
O3 O1 O2 132.8(3) 1_566 3_455
O2 O1 O2 58.46(12) 1_554 3_455
O2 O1 O2 107.3(3) 3_564 3_455
O2 O1 O2 119.3(2) 4_454 3_455
O3 O1 O2 79.7(2) 6_554 3_455
O3 O1 O2 79.46(16) 5_454 3_455
O3 O1 O2 130.0(3) 2_564 3_455
O1 O1 O2 105.3(3) 2_466 3_455
O1 O1 O2 29.70(19) 2_456 3_455
O1 O1 O2 114.0(2) 2_566 3_455
O3 O1 O2 54.0(2) 2 3_455
O3 O1 O2 65.6(2) 6_455 3_455
O3 O1 O2 168.5(3) 5_565 3_455
La O1 O2 22.86(10) 2_455 3_455
La O1 O2 103.41(16) 4 3_455
La O1 O2 137.68(14) 1_565 3_455
Ga2 O1 O2 83.5(2) 2_565 4
La O1 O2 102.43(12) . 4
La O1 O2 32.4(3) 2_565 4
La O1 O2 138.1(2) 4_455 4
O2 O1 O2 67.9(3) 2_565 4
O2 O1 O2 125.1(4) 6 4
O2 O1 O2 94.7(5) 5_455 4
O2 O1 O2 57.4(5) 2_566 4
O2 O1 O2 111.0(4) 6_556 4
O2 O1 O2 83.8(4) 5_456 4
O3 O1 O2 59.3(3) 6 4
O3 O1 O2 167.2(5) 5_455 4
O3 O1 O2 59.8(3) 2_565 4
Ga2 O1 O2 96.5(2) 2_564 4
O2 O1 O2 11.3(3) 3_565 4
O2 O1 O2 127.4(4) . 4
O2 O1 O2 107.8(3) 4_455 4
Ga3 O1 O2 40.96(19) 2_565 4
Ga3 O1 O2 139.1(4) 1_556 4
Ga3 O1 O2 80.87(13) 4_456 4
O3 O1 O2 77.67(17) . 4
O3 O1 O2 155.0(4) 4_455 4
O3 O1 O2 58.0(3) 3_565 4
Ga3 O1 O2 62.69(11) 2_564 4
Ga3 O1 O2 134.9(3) . 4
Ga3 O1 O2 90.0(2) 4_455 4
Nb O1 O2 56.54(12) . 4
Ga1 O1 O2 56.54(12) . 4
Nb O1 O2 172.9(2) 1_455 4
Ga1 O1 O2 172.9(2) 1_455 4
Ga1 O1 O2 67.72(17) 1_565 4
Nb O1 O2 67.72(17) 1_565 4
O2 O1 O2 93.35(19) 4_445 4
O2 O1 O2 25.49(16) 1_665 4
O2 O1 O2 142.6(2) 3_465 4
O3 O1 O2 72.0(3) 1_556 4
O3 O1 O2 53.59(16) 3_566 4
O3 O1 O2 134.0(3) 4_456 4
La O1 O2 89.7(2) 1_556 4
La O1 O2 55.82(14) 2_566 4
La O1 O2 105.8(2) 4_456 4
O3 O1 O2 46.22(15) 4 4
O3 O1 O2 149.2(2) 3_455 4
O3 O1 O2 88.7(2) 1_565 4
Ga2 O1 O2 121.12(17) 1_566 4
Ga2 O1 O2 110.5(2) 1_556 4
Ga2 O1 O2 13.18(12) 1_666 4
O1 O1 O2 125.8(2) 2_465 4
O1 O1 O2 114.86(14) 2_455 4
O1 O1 O2 27.5(3) 2_565 4
O1 O1 O2 96.5(2) 1_554 4
O1 O1 O2 83.5(2) 1_556 4
Ga3 O1 O2 74.82(19) 4_446 4
Ga3 O1 O2 44.35(13) 1_666 4
Ga3 O1 O2 150.5(3) 2_465 4
O3 O1 O2 38.07(18) 5 4
O3 O1 O2 155.9(3) 2_455 4
O3 O1 O2 81.51(17) 6_565 4
O3 O1 O2 42.2(2) 4_556 4
O3 O1 O2 132.8(3) 3_456 4
O3 O1 O2 82.63(16) 1_566 4
O2 O1 O2 119.3(2) 1_554 4
O2 O1 O2 58.46(12) 3_564 4
O2 O1 O2 107.3(3) 4_454 4
O3 O1 O2 79.46(16) 6_554 4
O3 O1 O2 130.0(3) 5_454 4
O3 O1 O2 79.7(2) 2_564 4
O1 O1 O2 114.0(2) 2_466 4
O1 O1 O2 105.3(3) 2_456 4
O1 O1 O2 29.70(19) 2_566 4
O3 O1 O2 65.6(2) 2 4
O3 O1 O2 168.5(3) 6_455 4
O3 O1 O2 54.0(2) 5_565 4
La O1 O2 137.68(14) 2_455 4
La O1 O2 22.86(10) 4 4
La O1 O2 103.41(16) 1_565 4
O2 O1 O2 118.75(8) 3_455 4
Ga2 O1 O2 83.5(2) 2_565 1_565
La O1 O2 138.1(2) . 1_565
La O1 O2 102.43(13) 2_565 1_565
La O1 O2 32.4(3) 4_455 1_565
O2 O1 O2 125.1(4) 2_565 1_565
O2 O1 O2 94.7(5) 6 1_565
O2 O1 O2 67.9(3) 5_455 1_565
O2 O1 O2 111.0(4) 2_566 1_565
O2 O1 O2 83.8(4) 6_556 1_565
O2 O1 O2 57.4(5) 5_456 1_565
O3 O1 O2 167.2(5) 6 1_565
O3 O1 O2 59.8(3) 5_455 1_565
O3 O1 O2 59.3(3) 2_565 1_565
Ga2 O1 O2 96.5(2) 2_564 1_565
O2 O1 O2 127.4(4) 3_565 1_565
O2 O1 O2 107.8(3) . 1_565
O2 O1 O2 11.3(3) 4_455 1_565
Ga3 O1 O2 139.1(4) 2_565 1_565
Ga3 O1 O2 80.87(13) 1_556 1_565
Ga3 O1 O2 40.96(19) 4_456 1_565
O3 O1 O2 155.0(4) . 1_565
O3 O1 O2 58.0(3) 4_455 1_565
O3 O1 O2 77.67(17) 3_565 1_565
Ga3 O1 O2 134.9(3) 2_564 1_565
Ga3 O1 O2 90.0(2) . 1_565
Ga3 O1 O2 62.69(11) 4_455 1_565
Nb O1 O2 172.9(2) . 1_565
Ga1 O1 O2 172.9(2) . 1_565
Nb O1 O2 67.72(17) 1_455 1_565
Ga1 O1 O2 67.72(17) 1_455 1_565
Ga1 O1 O2 56.54(12) 1_565 1_565
Nb O1 O2 56.54(12) 1_565 1_565
O2 O1 O2 142.6(2) 4_445 1_565
O2 O1 O2 93.35(19) 1_665 1_565
O2 O1 O2 25.48(17) 3_465 1_565
O3 O1 O2 134.0(3) 1_556 1_565
O3 O1 O2 72.0(3) 3_566 1_565
O3 O1 O2 53.59(16) 4_456 1_565
La O1 O2 105.8(2) 1_556 1_565
La O1 O2 89.7(2) 2_566 1_565
La O1 O2 55.82(14) 4_456 1_565
O3 O1 O2 149.2(2) 4 1_565
O3 O1 O2 88.7(2) 3_455 1_565
O3 O1 O2 46.22(15) 1_565 1_565
Ga2 O1 O2 13.18(12) 1_566 1_565
Ga2 O1 O2 121.12(17) 1_556 1_565
Ga2 O1 O2 110.5(2) 1_666 1_565
O1 O1 O2 27.5(3) 2_465 1_565
O1 O1 O2 125.8(2) 2_455 1_565
O1 O1 O2 114.86(13) 2_565 1_565
O1 O1 O2 96.5(2) 1_554 1_565
O1 O1 O2 83.5(2) 1_556 1_565
Ga3 O1 O2 150.5(3) 4_446 1_565
Ga3 O1 O2 74.82(19) 1_666 1_565
Ga3 O1 O2 44.35(13) 2_465 1_565
O3 O1 O2 155.9(3) 5 1_565
O3 O1 O2 81.51(17) 2_455 1_565
O3 O1 O2 38.07(18) 6_565 1_565
O3 O1 O2 132.8(3) 4_556 1_565
O3 O1 O2 82.63(16) 3_456 1_565
O3 O1 O2 42.2(2) 1_566 1_565
O2 O1 O2 107.3(3) 1_554 1_565
O2 O1 O2 119.3(2) 3_564 1_565
O2 O1 O2 58.46(12) 4_454 1_565
O3 O1 O2 130.0(3) 6_554 1_565
O3 O1 O2 79.7(2) 5_454 1_565
O3 O1 O2 79.46(16) 2_564 1_565
O1 O1 O2 29.70(19) 2_466 1_565
O1 O1 O2 114.0(2) 2_456 1_565
O1 O1 O2 105.3(3) 2_566 1_565
O3 O1 O2 168.5(3) 2 1_565
O3 O1 O2 54.0(2) 6_455 1_565
O3 O1 O2 65.6(2) 5_565 1_565
La O1 O2 103.41(16) 2_455 1_565
La O1 O2 137.68(14) 4 1_565
La O1 O2 22.86(10) 1_565 1_565
O2 O1 O2 118.75(8) 3_455 1_565
O2 O1 O2 118.75(8) 4 1_565
Ga2 O1 O3 30.03(12) 2_565 6_556
La O1 O3 86.6(3) . 6_556
La O1 O3 101.8(3) 2_565 6_556
La O1 O3 137.8(4) 4_455 6_556
O2 O1 O3 118.6(3) 2_565 6_556
O2 O1 O3 136.8(3) 6 6_556
O2 O1 O3 163.2(4) 5_455 6_556
O2 O1 O3 14.5(4) 2_566 6_556
O2 O1 O3 43.0(3) 6_556 6_556
O2 O1 O3 58.9(4) 5_456 6_556
O3 O1 O3 53.6(3) 6 6_556
O3 O1 O3 98.8(4) 5_455 6_556
O3 O1 O3 98.8(4) 2_565 6_556
Ga2 O1 O3 149.97(12) 2_564 6_556
O2 O1 O3 60.7(3) 3_565 6_556
O2 O1 O3 70.5(4) . 6_556
O2 O1 O3 108.2(4) 4_455 6_556
Ga3 O1 O3 35.7(2) 2_565 6_556
Ga3 O1 O3 69.6(2) 1_556 6_556
Ga3 O1 O3 87.1(3) 4_456 6_556
O3 O1 O3 89.2(3) . 6_556
O3 O1 O3 135.3(2) 4_455 6_556
O3 O1 O3 123.3(4) 3_565 6_556
Ga3 O1 O3 108.61(12) 2_564 6_556
Ga3 O1 O3 132.55(12) . 6_556
Ga3 O1 O3 154.86(17) 4_455 6_556
Nb O1 O3 70.66(16) . 6_556
Ga1 O1 O3 70.66(16) . 6_556
Nb O1 O3 111.2(2) 1_455 6_556
Ga1 O1 O3 111.2(2) 1_455 6_556
Ga1 O1 O3 116.4(2) 1_565 6_556
Nb O1 O3 116.4(2) 1_565 6_556
O2 O1 O3 57.7(2) 4_445 6_556
O2 O1 O3 80.4(3) 1_665 6_556
O2 O1 O3 108.7(3) 3_465 6_556
O3 O1 O3 23.2(2) 1_556 6_556
O3 O1 O3 65.4(3) 3_566 6_556
O3 O1 O3 74.4(2) 4_456 6_556
La O1 O3 20.14(12) 1_556 6_556
La O1 O3 36.81(15) 2_566 6_556
La O1 O3 58.75(19) 4_456 6_556
O3 O1 O3 87.7(3) 4 6_556
O3 O1 O3 114.1(2) 3_455 6_556
O3 O1 O3 137.9(3) 1_565 6_556
Ga2 O1 O3 101.5(3) 1_566 6_556
Ga2 O1 O3 56.69(16) 1_556 6_556
Ga2 O1 O3 62.04(19) 1_666 6_556
O1 O1 O3 140.3(4) 2_465 6_556
O1 O1 O3 91.7(3) 2_455 6_556
O1 O1 O3 96.2(3) 2_565 6_556
O1 O1 O3 149.97(12) 1_554 6_556
O1 O1 O3 30.03(12) 1_556 6_556
Ga3 O1 O3 43.19(13) 4_446 6_556
Ga3 O1 O3 80.7(2) 1_666 6_556
Ga3 O1 O3 94.0(2) 2_465 6_556
O3 O1 O3 58.63(16) 5 6_556
O3 O1 O3 91.0(3) 2_455 6_556
O3 O1 O3 109.6(3) 6_565 6_556
O3 O1 O3 30.6(3) 4_556 6_556
O3 O1 O3 63.1(2) 3_456 6_556
O3 O1 O3 81.6(3) 1_566 6_556
O2 O1 O3 124.86(15) 1_554 6_556
O2 O1 O3 118.19(15) 3_564 6_556
O2 O1 O3 169.5(2) 4_454 6_556
O3 O1 O3 116.40(16) 6_554 6_556
O3 O1 O3 149.29(8) 5_454 6_556
O3 O1 O3 149.29(8) 2_564 6_556
O1 O1 O3 84.2(4) 2_466 6_556
O1 O1 O3 42.1(2) 2_456 6_556
O1 O1 O3 47.7(3) 2_566 6_556
O3 O1 O3 56.72(16) 2 6_556
O3 O1 O3 104.0(3) 6_455 6_556
O3 O1 O3 98.7(2) 5_565 6_556
La O1 O3 91.23(15) 2_455 6_556
La O1 O3 76.24(15) 4 6_556
La O1 O3 126.8(2) 1_565 6_556
O2 O1 O3 69.86(18) 3_455 6_556
O2 O1 O3 69.6(2) 4 6_556
O2 O1 O3 113.6(3) 1_565 6_556
Ga3 O3 Nb 112.4(5) 4_445 .
Ga3 O3 Ga1 112.4(5) 4_445 .
Nb O3 Ga1 0.0 . .
Ga3 O3 La 138.4(5) 4_445 .
Nb O3 La 105.1(5) . .
Ga1 O3 La 105.1(5) . .
Ga3 O3 Ga3 94.3(6) 4_445 2_564
Nb O3 Ga3 87.0(4) . 2_564
Ga1 O3 Ga3 87.0(4) . 2_564
La O3 Ga3 105.4(5) . 2_564
Ga3 O3 O3 155.2(9) 4_445 6
Nb O3 O3 48.4(3) . 6
Ga1 O3 O3 48.4(3) . 6
La O3 O3 56.7(3) . 6
Ga3 O3 O3 99.2(6) 2_564 6
Ga3 O3 O3 65.6(5) 4_445 3
Nb O3 O3 46.9(3) . 3
Ga1 O3 O3 46.9(3) . 3
La O3 O3 149.4(3) . 3
Ga3 O3 O3 87.4(3) 2_564 3
O3 O3 O3 94.28(8) 6 3
Ga3 O3 O3 105.5(3) 4_445 4
Nb O3 O3 46.9(3) . 4
Ga1 O3 O3 46.9(3) . 4
La O3 O3 113.2(6) . 4
Ga3 O3 O3 40.2(3) 2_564 4
O3 O3 O3 73.3(6) 6 4
O3 O3 O3 60.000(1) 3 4
Ga3 O3 O2 125.9(8) 4_445 2_565
Nb O3 O2 95.2(5) . 2_565
Ga1 O3 O2 95.2(5) . 2_565
La O3 O2 65.6(4) . 2_565
Ga3 O3 O2 39.8(4) 2_564 2_565
O3 O3 O2 76.1(6) 6 2_565
O3 O3 O2 120.8(6) 3 2_565
O3 O3 O2 61.3(6) 4 2_565
Ga3 O3 O3 62.6(5) 4_445 6_554
Nb O3 O3 119.0(6) . 6_554
Ga1 O3 O3 119.0(6) . 6_554
La O3 O3 113.6(5) . 6_554
Ga3 O3 O3 39.0(4) 2_564 6_554
O3 O3 O3 136.8(10) 6 6_554
O3 O3 O3 93.98(10) 3 6_554
O3 O3 O3 74.5(4) 4 6_554
O2 O3 O3 63.4(5) 2_565 6_554
Ga3 O3 O2 40.1(4) 4_445 5_445
Nb O3 O2 95.2(6) . 5_445
Ga1 O3 O2 95.2(6) . 5_445
La O3 O2 120.9(6) . 5_445
Ga3 O3 O2 131.0(5) 2_564 5_445
O3 O3 O2 118.4(9) 6 5_445
O3 O3 O2 61.3(6) 3 5_445
O3 O3 O2 120.7(6) 4 5_445
O2 O3 O2 165.5(8) 2_565 5_445
O3 O3 O2 102.7(6) 6_554 5_445
Ga3 O3 O2 36.3(3) 4_445 4_444
Nb O3 O2 148.5(5) . 4_444
Ga1 O3 O2 148.5(5) . 4_444
La O3 O2 103.9(4) . 4_444
Ga3 O3 O2 97.1(7) 2_564 4_444
O3 O3 O2 157.4(7) 6 4_444
O3 O3 O2 101.9(5) 3 4_444
O3 O3 O2 128.5(4) 4 4_444
O2 O3 O2 107.9(6) 2_565 4_444
O3 O3 O2 58.1(6) 6_554 4_444
O2 O3 O2 58.8(8) 5_445 4_444
Ga3 O3 O1 87.9(4) 4_445 2_455
Nb O3 O1 133.0(8) . 2_455
Ga1 O3 O1 133.0(8) . 2_455
La O3 O1 52.4(3) . 2_455
Ga3 O3 O1 135.1(5) 2_564 2_455
O3 O3 O1 96.8(6) 6 2_455
O3 O3 O1 132.8(7) 3 2_455
O3 O3 O1 165.4(6) 4 2_455
O2 O3 O1 106.4(4) 2_565 2_455
O3 O3 O1 108.0(4) 6_554 2_455
O2 O3 O1 73.2(4) 5_445 2_455
O2 O3 O1 60.7(5) 4_444 2_455
Ga3 O3 O3 100.8(5) 4_445 2
Nb O3 O3 36.4(5) . 2
Ga1 O3 O3 36.4(5) . 2
La O3 O3 98.5(6) . 2
Ga3 O3 O3 122.9(2) 2_564 2
O3 O3 O3 54.4(6) 6 2
O3 O3 O3 52.2(4) 3 2
O3 O3 O3 82.7(3) 4 2
O2 O3 O3 125.8(5) 2_565 2
O3 O3 O3 145.9(3) 6_554 2
O2 O3 O3 67.7(5) 5_445 2
O2 O3 O3 126.2(5) 4_444 2
O1 O3 O3 100.4(4) 2_455 2
Ga3 O3 O2 112.8(7) 4_445 4_445
Nb O3 O2 79.9(6) . 4_445
Ga1 O3 O2 79.9(6) . 4_445
La O3 O2 56.3(4) . 4_445
Ga3 O3 O2 152.7(4) 2_564 4_445
O3 O3 O2 54.5(6) 6 4_445
O3 O3 O2 100.5(5) 3 4_445
O3 O3 O2 123.4(3) 4 4_445
O2 O3 O2 117.4(5) 2_565 4_445
O3 O3 O2 161.1(4) 6_554 4_445
O2 O3 O2 74.4(5) 5_445 4_445
O2 O3 O2 106.5(6) 4_444 4_445
O1 O3 O2 53.2(4) 2_455 4_445
O3 O3 O2 50.9(4) 2 4_445
Ga3 O3 O3 22.7(4) 4_445 2_554
Nb O3 O3 99.4(4) . 2_554
Ga1 O3 O3 99.4(4) . 2_554
La O3 O3 155.5(7) . 2_554
Ga3 O3 O3 74.7(4) 2_564 2_554
O3 O3 O3 147.8(4) 6 2_554
O3 O3 O3 54.4(6) 3 2_554
O3 O3 O3 83.1(3) 4 2_554
O2 O3 O3 111.6(6) 2_565 2_554
O3 O3 O3 51.1(5) 6_554 2_554
O2 O3 O3 56.7(3) 5_445 2_554
O2 O3 O3 52.6(4) 4_444 2_554
O1 O3 O3 109.9(4) 2_455 2_554
O3 O3 O3 101.8(6) 2 2_554
O2 O3 O3 130.9(5) 4_445 2_554
Ga3 O3 Ga2 65.7(3) 4_445 .
Nb O3 Ga2 160.6(7) . .
Ga1 O3 Ga2 160.6(7) . .
La O3 Ga2 72.9(2) . .
Ga3 O3 Ga2 112.2(5) 2_564 .
O3 O3 Ga2 126.1(4) 6 .
O3 O3 Ga2 128.4(5) 3 .
O3 O3 Ga2 152.1(5) 4 .
O2 O3 Ga2 101.1(4) 2_565 .
O3 O3 Ga2 78.2(3) 6_554 .
O2 O3 Ga2 70.8(5) 5_445 .
O2 O3 Ga2 31.8(2) 4_444 .
O1 O3 Ga2 31.1(3) 2_455 .
O3 O3 Ga2 124.2(3) 2 .
O2 O3 Ga2 83.3(3) 4_445 .
O3 O3 Ga2 84.3(4) 2_554 .
Ga3 O3 Ga3 63.0(3) 4_445 1_655
Nb O3 Ga3 59.9(2) . 1_655
Ga1 O3 Ga3 59.9(2) . 1_655
La O3 Ga3 157.8(4) . 1_655
Ga3 O3 Ga3 60.2(2) 2_564 1_655
O3 O3 Ga3 106.4(2) 6 1_655
O3 O3 Ga3 28.73(16) 3 1_655
O3 O3 Ga3 44.6(3) 4 1_655
O2 O3 Ga3 97.8(4) 2_565 1_655
O3 O3 Ga3 67.2(3) 6_554 1_655
O2 O3 Ga3 78.9(4) 5_445 1_655
O2 O3 Ga3 95.1(4) 4_444 1_655
O1 O3 Ga3 149.8(4) 2_455 1_655
O3 O3 Ga3 78.8(3) 2 1_655
O2 O3 Ga3 128.8(5) 4_445 1_655
O3 O3 Ga3 42.7(2) 2_554 1_655
Ga2 O3 Ga3 126.9(3) . 1_655
Ga3 O3 La 74.3(4) 4_445 4_445
Nb O3 La 101.3(6) . 4_445
Ga1 O3 La 101.3(6) . 4_445
La O3 La 81.3(4) . 4_445
Ga3 O3 La 167.8(5) 2_564 4_445
O3 O3 La 93.0(8) 6 4_445
O3 O3 La 91.8(5) 3 4_445
O3 O3 La 146.6(5) 4 4_445
O2 O3 La 145.9(4) 2_565 4_445
O3 O3 La 129.0(5) 6_554 4_445
O2 O3 La 40.0(3) 5_445 4_445
O2 O3 La 71.1(5) 4_444 4_445
O1 O3 La 42.04(19) 2_455 4_445
O3 O3 La 64.9(2) 2 4_445
O2 O3 La 39.2(3) 4_445 4_445
O3 O3 La 95.0(2) 2_554 4_445
Ga2 O3 La 59.33(18) . 4_445
Ga3 O3 La 116.3(3) 1_655 4_445
Ga3 O3 O2 116.9(6) 4_445 6
Nb O3 O2 129.5(4) . 6
Ga1 O3 O2 129.5(4) . 6
La O3 O2 36.9(3) . 6
Ga3 O3 O2 79.3(4) 2_564 6
O3 O3 O2 86.1(4) 6 6
O3 O3 O2 166.6(6) 3 6
O3 O3 O2 107.6(6) 4 6
O2 O3 O2 46.3(4) 2_565 6
O3 O3 O2 76.9(4) 6_554 6
O2 O3 O2 129.9(6) 5_445 6
O2 O3 O2 81.8(3) 4_444 6
O1 O3 O2 60.2(2) 2_455 6
O3 O3 O2 135.2(6) 2 6
O2 O3 O2 90.6(4) 4_445 6
O3 O3 O2 122.5(7) 2_554 6
Ga2 O3 O2 59.9(2) . 6
Ga3 O3 O2 138.9(5) 1_655 6
La O3 O2 101.6(3) 4_445 6
Ga3 O3 O3 119.5(4) 4_445 5
Nb O3 O3 8.9(3) . 5
Ga1 O3 O3 8.9(3) . 5
La O3 O3 99.8(5) . 5
Ga3 O3 O3 81.5(3) 2_564 5
O3 O3 O3 43.6(3) 6 5
O3 O3 O3 53.9(5) 3 5
O3 O3 O3 42.1(3) 4 5
O2 O3 O3 86.6(3) 2_565 5
O3 O3 O3 116.2(5) 6_554 5
O2 O3 O3 104.0(5) 5_445 5
O2 O3 O3 155.8(4) 4_444 5
O1 O3 O3 134.9(7) 2_455 5
O3 O3 O3 43.3(3) 2 5
O2 O3 O3 82.3(5) 4_445 5
O3 O3 O3 104.4(3) 2_554 5
Ga2 O3 O3 165.6(7) . 5
Ga3 O3 O3 63.0(3) 1_655 5
La O3 O3 107.8(4) 4_445 5
O2 O3 O3 121.3(3) 6 5
Ga3 O3 Ga3 118.3(6) 4_445 4_446
Nb O3 Ga3 52.2(4) . 4_446
Ga1 O3 Ga3 52.2(4) . 4_446
La O3 Ga3 72.1(4) . 4_446
Ga3 O3 Ga3 134.1(4) 2_564 4_446
O3 O3 Ga3 39.7(5) 6 4_446
O3 O3 Ga3 79.1(2) 3 4_446
O3 O3 Ga3 97.07(13) 4 4_446
O2 O3 Ga3 115.4(4) 2_565 4_446
O3 O3 Ga3 171.1(3) 6_554 4_446
O2 O3 Ga3 78.9(5) 5_445 4_446
O2 O3 Ga3 128.4(6) 4_444 4_446
O1 O3 Ga3 80.9(4) 2_455 4_446
O3 O3 Ga3 26.8(3) 2 4_446
O2 O3 Ga3 27.8(2) 4_445 4_446
O3 O3 Ga3 126.0(6) 2_554 4_446
Ga2 O3 Ga3 110.4(4) . 4_446
Ga3 O3 Ga3 104.9(3) 1_655 4_446
La O3 Ga3 57.4(2) 4_445 4_446
O2 O3 Ga3 108.9(3) 6 4_446
O3 O3 Ga3 55.1(3) 5 4_446
Ga3 O3 Ga2 114.3(6) 4_445 2_564
Nb O3 Ga2 118.8(4) . 2_564
Ga1 O3 Ga2 118.8(4) . 2_564
La O3 Ga2 58.0(3) . 2_564
Ga3 O3 Ga2 52.6(3) 2_564 2_564
O3 O3 Ga2 90.4(5) 6 2_564
O3 O3 Ga2 139.9(5) 3 2_564
O3 O3 Ga2 83.6(5) 4 2_564
O2 O3 Ga2 24.0(2) 2_565 2_564
O3 O3 Ga2 57.9(3) 6_554 2_564
O2 O3 Ga2 145.6(6) 5_445 2_564
O2 O3 Ga2 87.3(5) 4_444 2_564
O1 O3 Ga2 85.8(2) 2_455 2_564
O3 O3 Ga2 144.6(5) 2 2_564
O2 O3 Ga2 114.2(3) 4_445 2_564
O3 O3 Ga2 108.8(6) 2_554 2_564
Ga2 O3 Ga2 77.1(2) . 2_564
Ga3 O3 Ga2 112.5(4) 1_655 2_564
La O3 Ga2 127.8(2) 4_445 2_564
O2 O3 Ga2 26.77(18) 6 2_564
O3 O3 Ga2 109.99(14) 5 2_564
Ga3 O3 Ga2 124.9(3) 4_446 2_564
Ga3 O3 O3 64.1(5) 4_445 5_554
Nb O3 O3 79.3(3) . 5_554
Ga1 O3 O3 79.3(3) . 5_554
La O3 O3 143.2(4) . 5_554
Ga3 O3 O3 37.8(2) 2_564 5_554
O3 O3 O3 117.3(4) 6 5_554
O3 O3 O3 55.3(3) 3 5_554
O3 O3 O3 44.2(4) 4 5_554
O2 O3 O3 77.6(4) 2_565 5_554
O3 O3 O3 41.9(3) 6_554 5_554
O2 O3 O3 94.5(4) 5_445 5_554
O2 O3 O3 85.0(6) 4_444 5_554
O1 O3 O3 145.2(6) 2_455 5_554
O3 O3 O3 104.7(3) 2 5_554
O2 O3 O3 155.4(5) 4_445 5_554
O3 O3 O3 41.6(3) 2_554 5_554
Ga2 O3 O3 114.2(5) . 5_554
Ga3 O3 O3 26.68(18) 1_655 5_554
La O3 O3 134.54(19) 4_445 5_554
O2 O3 O3 112.8(4) 6 5_554
O3 O3 O3 79.2(3) 5 5_554
Ga3 O3 O3 129.6(4) 4_446 5_554
Ga2 O3 O3 87.4(3) 2_564 5_554
Ga3 O3 Ga1 45.1(4) 4_445 1_554
Nb O3 Ga1 105.8(4) . 1_554
Ga1 O3 Ga1 105.8(4) . 1_554
La O3 Ga1 137.9(6) . 1_554
Ga3 O3 Ga1 49.2(2) 2_564 1_554
O3 O3 Ga1 144.2(6) 6 1_554
O3 O3 Ga1 71.03(11) 3 1_554
O3 O3 Ga1 71.03(11) 4 1_554
O2 O3 Ga1 83.8(5) 2_565 1_554
O3 O3 Ga1 24.59(19) 6_554 1_554
O2 O3 Ga1 83.8(3) 5_445 1_554
O2 O3 Ga1 57.5(4) 4_444 1_554
O1 O3 Ga1 117.4(4) 2_455 1_554
O3 O3 Ga1 123.2(4) 2 1_554
O2 O3 Ga1 157.9(4) 4_445 1_554
O3 O3 Ga1 28.0(3) 2_554 1_554
Ga2 O3 Ga1 86.4(3) . 1_554
Ga3 O3 Ga1 47.12(16) 1_655 1_554
La O3 Ga1 119.2(2) 4_445 1_554
O2 O3 Ga1 101.1(4) 6 1_554
O3 O3 Ga1 106.7(4) 5 1_554
Ga3 O3 Ga1 149.9(3) 4_446 1_554
Ga2 O3 Ga1 82.2(3) 2_564 1_554
O3 O3 Ga1 27.9(3) 5_554 1_554
Ga3 O3 Nb 45.1(4) 4_445 1_554
Nb O3 Nb 105.8(4) . 1_554
Ga1 O3 Nb 105.8(4) . 1_554
La O3 Nb 137.9(6) . 1_554
Ga3 O3 Nb 49.2(2) 2_564 1_554
O3 O3 Nb 144.2(6) 6 1_554
O3 O3 Nb 71.03(11) 3 1_554
O3 O3 Nb 71.03(11) 4 1_554
O2 O3 Nb 83.8(5) 2_565 1_554
O3 O3 Nb 24.59(19) 6_554 1_554
O2 O3 Nb 83.8(3) 5_445 1_554
O2 O3 Nb 57.5(4) 4_444 1_554
O1 O3 Nb 117.4(4) 2_455 1_554
O3 O3 Nb 123.2(4) 2 1_554
O2 O3 Nb 157.9(4) 4_445 1_554
O3 O3 Nb 28.0(3) 2_554 1_554
Ga2 O3 Nb 86.4(3) . 1_554
Ga3 O3 Nb 47.12(16) 1_655 1_554
La O3 Nb 119.2(2) 4_445 1_554
O2 O3 Nb 101.1(4) 6 1_554
O3 O3 Nb 106.7(4) 5 1_554
Ga3 O3 Nb 149.9(3) 4_446 1_554
Ga2 O3 Nb 82.2(3) 2_564 1_554
O3 O3 Nb 27.9(3) 5_554 1_554
Ga1 O3 Nb 0.0 1_554 1_554
Ga3 O3 O2 77.1(4) 4_445 1_554
Nb O3 O2 170.3(4) . 1_554
Ga1 O3 O2 170.3(4) . 1_554
La O3 O2 66.8(3) . 1_554
Ga3 O3 O2 90.1(4) 2_564 1_554
O3 O3 O2 123.2(2) 6 1_554
O3 O3 O2 142.3(3) 3 1_554
O3 O3 O2 130.1(5) 4 1_554
O2 O3 O2 76.8(3) 2_565 1_554
O3 O3 O2 62.6(3) 6_554 1_554
O2 O3 O2 93.7(4) 5_445 1_554
O2 O3 O2 41.1(4) 4_444 1_554
O1 O3 O2 46.7(3) 2_455 1_554
O3 O3 O2 146.8(3) 2 1_554
O2 O3 O2 98.8(3) 4_445 1_554
O3 O3 O2 88.7(6) 2_554 1_554
Ga2 O3 O2 24.83(18) . 1_554
Ga3 O3 O2 126.0(4) 1_655 1_554
La O3 O2 83.1(2) 4_445 1_554
O2 O3 O2 40.8(4) 6 1_554
O3 O3 O2 161.8(2) 5 1_554
Ga3 O3 O2 126.2(3) 4_446 1_554
Ga2 O3 O2 52.9(2) 2_564 1_554
O3 O3 O2 103.9(5) 5_554 1_554
Ga1 O3 O2 79.0(3) 1_554 1_554
Nb O3 O2 79.0(3) 1_554 1_554
Ga3 O3 La 67.5(4) 4_445 2
Nb O3 La 53.8(3) . 2
Ga1 O3 La 53.8(3) . 2
La O3 La 127.6(6) . 2
Ga3 O3 La 118.5(3) 2_564 2
O3 O3 La 87.8(5) 6 2
O3 O3 La 31.1(3) 3 2
O3 O3 La 86.8(4) 4 2
O2 O3 La 147.2(4) 2_565 2
O3 O3 La 118.4(3) 6_554 2
O2 O3 La 41.4(5) 5_445 2
O2 O3 La 98.0(4) 4_444 2
O1 O3 La 103.8(4) 2_455 2
O3 O3 La 33.8(2) 2 2
O2 O3 La 72.0(4) 4_445 2
O3 O3 La 69.0(4) 2_554 2
Ga2 O3 La 111.5(3) . 2
Ga3 O3 La 59.23(15) 1_655 2
La O3 La 61.8(2) 4_445 2
O2 O3 La 161.9(4) 6 2
O3 O3 La 62.68(13) 5 2
Ga3 O3 La 57.2(2) 4_446 2
Ga2 O3 La 170.4(3) 2_564 2
O3 O3 La 85.07(17) 5_554 2
Ga1 O3 La 93.83(18) 1_554 2
Nb O3 La 93.83(18) 1_554 2
O2 O3 La 135.1(3) 1_554 2
Ga3 O3 O1 158.0(6) 4_445 .
Nb O3 O1 88.8(3) . .
Ga1 O3 O1 88.8(3) . .
La O3 O1 29.42(15) . .
Ga3 O3 O1 80.3(3) 2_564 .
O3 O3 O1 46.2(3) 6 .
O3 O3 O1 134.7(4) 3 .
O3 O3 O1 84.1(5) 4 .
O2 O3 O1 41.7(4) 2_565 .
O3 O3 O1 102.6(5) 6_554 .
O2 O3 O1 148.5(5) 5_445 .
O2 O3 O1 122.7(4) 4_444 .
O1 O3 O1 81.3(2) 2_455 .
O3 O3 O1 100.0(5) 2 .
O2 O3 O1 75.6(3) 4_445 .
O3 O3 O1 153.1(7) 2_554 .
Ga2 O3 O1 96.4(2) . .
Ga3 O3 O1 128.7(3) 1_655 .
La O3 O1 108.6(3) 4_445 .
O2 O3 O1 41.2(3) 6 .
O3 O3 O1 81.1(3) 5 .
Ga3 O3 O1 79.1(3) 4_446 .
Ga2 O3 O1 46.1(2) 2_564 .
O3 O3 O1 116.9(2) 5_554 .
Ga1 O3 O1 125.1(4) 1_554 .
Nb O3 O1 125.1(4) 1_554 .
O2 O3 O1 81.6(3) 1_554 .
La O3 O1 133.7(4) 2 .
Ga3 O3 Ga3 153.3(5) 4_445 2_565
Nb O3 Ga3 41.6(2) . 2_565
Ga1 O3 Ga3 41.6(2) . 2_565
La O3 Ga3 64.1(3) . 2_565
Ga3 O3 Ga3 90.7(3) 2_564 2_565
O3 O3 Ga3 10.1(3) 6 2_565
O3 O3 Ga3 88.5(2) 3 2_565
O3 O3 Ga3 63.3(3) 4 2_565
O2 O3 Ga3 72.1(3) 2_565 2_565
O3 O3 Ga3 129.3(6) 6_554 2_565
O2 O3 Ga3 122.1(6) 5_445 2_565
O2 O3 Ga3 167.2(4) 4_444 2_565
O1 O3 Ga3 106.7(4) 2_455 2_565
O3 O3 Ga3 55.2(3) 2 2_565
O2 O3 Ga3 63.7(3) 4_445 2_565
O3 O3 Ga3 139.9(4) 2_554 2_565
Ga2 O3 Ga3 135.4(3) . 2_565
Ga3 O3 Ga3 97.5(2) 1_655 2_565
La O3 Ga3 101.4(4) 4_445 2_565
O2 O3 Ga3 89.8(3) 6 2_565
O3 O3 Ga3 35.6(3) 5 2_565
Ga3 O3 Ga3 45.78(16) 4_446 2_565
Ga2 O3 Ga3 89.5(2) 2_564 2_565
O3 O3 Ga3 107.3(3) 5_554 2_565
Ga1 O3 Ga3 134.2(3) 1_554 2_565
Nb O3 Ga3 134.2(3) 1_554 2_565
O2 O3 Ga3 129.2(3) 1_554 2_565
La O3 Ga3 87.0(3) 2 2_565
O1 O3 Ga3 48.7(2) . 2_565
Ga3 O3 La 64.3(4) 4_445 1_554
Nb O3 La 148.7(6) . 1_554
Ga1 O3 La 148.7(6) . 1_554
La O3 La 92.4(4) . 1_554
Ga3 O3 La 63.1(3) 2_564 1_554
O3 O3 La 140.5(5) 6 1_554
O3 O3 La 118.11(12) 3 1_554
O3 O3 La 102.5(3) 4 1_554
O2 O3 La 68.2(4) 2_565 1_554
O3 O3 La 30.11(16) 6_554 1_554
O2 O3 La 97.9(5) 5_445 1_554
O2 O3 La 40.1(5) 4_444 1_554
O1 O3 La 78.1(3) 2_455 1_554
O3 O3 La 165.0(4) 2 1_554
O2 O3 La 131.1(3) 4_445 1_554
O3 O3 La 65.4(5) 2_554 1_554
Ga2 O3 La 49.69(19) . 1_554
Ga3 O3 La 94.9(3) 1_655 1_554
La O3 La 107.0(2) 4_445 1_554
O2 O3 La 57.1(3) 6 1_554
O3 O3 La 144.5(5) 5 1_554
Ga3 O3 La 158.7(3) 4_446 1_554
Ga2 O3 La 50.39(18) 2_564 1_554
O3 O3 La 71.4(4) 5_554 1_554
Ga1 O3 La 48.05(18) 1_554 1_554
Nb O3 La 48.05(18) 1_554 1_554
O2 O3 La 32.56(19) 1_554 1_554
La O3 La 131.7(2) 2 1_554
O1 O3 La 94.6(3) . 1_554
Ga3 O3 La 139.7(3) 2_565 1_554
Ga3 O3 O2 94.5(7) 4_445 3_564
Nb O3 O2 87.9(4) . 3_564
Ga1 O3 O2 87.9(4) . 3_564
La O3 O2 104.5(5) . 3_564
Ga3 O3 O2 1.1(2) 2_564 3_564
O3 O3 O2 99.4(6) 6 3_564
O3 O3 O2 88.5(4) 3 3_564
O3 O3 O2 41.2(3) 4 3_564
O2 O3 O2 39.1(6) 2_565 3_564
O3 O3 O2 38.6(4) 6_554 3_564
O2 O3 O2 131.6(5) 5_445 3_564
O2 O3 O2 96.7(7) 4_444 3_564
O1 O3 O2 134.0(5) 2_455 3_564
O3 O3 O2 123.9(2) 2 3_564
O2 O3 O2 152.6(4) 4_445 3_564
O3 O3 O2 75.1(4) 2_554 3_564
Ga2 O3 O2 111.4(4) . 3_564
Ga3 O3 O2 61.2(3) 1_655 3_564
La O3 O2 167.6(4) 4_445 3_564
O2 O3 O2 78.3(4) 6 3_564
O3 O3 O2 82.3(3) 5 3_564
Ga3 O3 O2 134.7(3) 4_446 3_564
Ga2 O3 O2 51.5(3) 2_564 3_564
O3 O3 O2 38.6(3) 5_554 3_564
Ga1 O3 O2 49.4(3) 1_554 3_564
Nb O3 O2 49.4(3) 1_554 3_564
O2 O3 O2 89.1(4) 1_554 3_564
La O3 O2 119.5(3) 2 3_564
O1 O3 O2 79.7(4) . 3_564
Ga3 O3 O2 91.0(3) 2_565 3_564
La O3 O2 62.3(3) 1_554 3_564
Ga3 O3 O2 127.3(5) 4_445 .
Nb O3 O2 103.6(6) . .
Ga1 O3 O2 103.6(6) . .
La O3 O2 20.2(2) . .
Ga3 O3 O2 125.5(3) 2_564 .
O3 O3 O2 58.4(4) 6 .
O3 O3 O2 137.8(4) 3 .
O3 O3 O2 127.1(4) 4 .
O2 O3 O2 85.7(3) 2_565 .
O3 O3 O2 128.1(3) 6_554 .
O2 O3 O2 101.5(4) 5_445 .
O2 O3 O2 99.3(3) 4_444 .
O1 O3 O2 40.0(4) 2_455 .
O3 O3 O2 85.9(5) 2 .
O2 O3 O2 38.1(3) 4_445 .
O3 O3 O2 149.7(3) 2_554 .
Ga2 O3 O2 67.7(3) . .
Ga3 O3 O2 163.3(5) 1_655 .
La O3 O2 61.6(2) 4_445 .
O2 O3 O2 52.6(4) 6 .
O3 O3 O2 101.1(6) 5 .
Ga3 O3 O2 59.3(3) 4_446 .
Ga2 O3 O2 76.73(19) 2_564 .
O3 O3 O2 163.3(2) 5_554 .
Ga1 O3 O2 149.5(4) 1_554 .
Nb O3 O2 149.5(4) 1_554 .
O2 O3 O2 70.7(2) 1_554 .
La O3 O2 110.1(4) 2 .
O1 O3 O2 47.5(2) . .
Ga3 O3 O2 67.9(3) 2_565 .
La O3 O2 101.5(3) 1_554 .
O2 O3 O2 124.7(4) 3_564 .
Ga3 O3 Ga2 31.9(4) 4_445 2_554
Nb O3 Ga2 98.6(4) . 2_554
Ga1 O3 Ga2 98.6(4) . 2_554
La O3 Ga2 126.4(4) . 2_554
Ga3 O3 Ga2 123.5(4) 2_564 2_554
O3 O3 Ga2 126.0(8) 6 2_554
O3 O3 Ga2 60.3(5) 3 2_554
O3 O3 Ga2 118.0(4) 4 2_554
O2 O3 Ga2 157.7(5) 2_565 2_554
O3 O3 Ga2 94.5(4) 6_554 2_554
O2 O3 Ga2 8.2(3) 5_445 2_554
O2 O3 Ga2 53.3(4) 4_444 2_554
O1 O3 Ga2 76.4(2) 2_455 2_554
O3 O3 Ga2 74.0(2) 2 2_554
O2 O3 Ga2 82.4(4) 4_445 2_554
O3 O3 Ga2 48.81(18) 2_554 2_554
Ga2 O3 Ga2 69.46(18) . 2_554
Ga3 O3 Ga2 74.43(16) 1_655 2_554
La O3 Ga2 46.90(13) 4_445 2_554
O2 O3 Ga2 129.4(3) 6 2_554
O3 O3 Ga2 107.39(13) 5 2_554
Ga3 O3 Ga2 86.9(3) 4_446 2_554
Ga2 O3 Ga2 140.6(3) 2_564 2_554
O3 O3 Ga2 87.8(2) 5_554 2_554
Ga1 O3 Ga2 75.63(16) 1_554 2_554
Nb O3 Ga2 75.63(16) 1_554 2_554
O2 O3 Ga2 90.7(3) 1_554 2_554
La O3 Ga2 45.06(12) 2 2_554
O1 O3 Ga2 155.3(4) . 2_554
Ga3 O3 Ga2 129.1(4) 2_565 2_554
La O3 Ga2 91.3(2) 1_554 2_554
O2 O3 Ga2 123.9(4) 3_564 2_554
O2 O3 Ga2 107.8(3) . 2_554
Ga3 O3 La 145.8(7) 4_445 2_565
Nb O3 La 74.3(3) . 2_565
Ga1 O3 La 74.3(3) . 2_565
La O3 La 61.7(2) . 2_565
Ga3 O3 La 51.74(19) 2_564 2_565
O3 O3 La 53.0(5) 6 2_565
O3 O3 La 110.8(4) 3 2_565
O3 O3 La 53.1(5) 4 2_565
O2 O3 La 24.1(3) 2_565 2_565
O3 O3 La 84.5(5) 6_554 2_565
O2 O3 La 169.3(6) 5_445 2_565
O2 O3 La 131.8(6) 4_444 2_565
O1 O3 La 112.5(3) 2_455 2_565
O3 O3 La 101.9(4) 2 2_565
O2 O3 La 101.4(3) 4_445 2_565
O3 O3 La 126.0(4) 2_554 2_565
Ga2 O3 La 118.9(3) . 2_565
Ga3 O3 La 97.0(2) 1_655 2_565
La O3 La 139.0(3) 4_445 2_565
O2 O3 La 59.2(2) 6 2_565
O3 O3 La 65.39(15) 5 2_565
Ga3 O3 La 92.7(2) 4_446 2_565
Ga2 O3 La 45.08(13) 2_564 2_565
O3 O3 La 85.53(15) 5_554 2_565
Ga1 O3 La 100.8(3) 1_554 2_565
Nb O3 La 100.8(3) 1_554 2_565
O2 O3 La 96.7(3) 1_554 2_565
La O3 La 128.1(2) 2 2_565
O1 O3 La 32.36(10) . 2_565
Ga3 O3 La 48.17(10) 2_565 2_565
La O3 La 92.3(3) 1_554 2_565
O2 O3 La 51.5(3) 3_564 2_565
O2 O3 La 79.6(2) . 2_565
Ga2 O3 La 171.0(2) 2_554 2_565
Ga3 O3 O2 149.6(5) 4_445 3_565
Nb O3 O2 45.6(3) . 3_565
Ga1 O3 O2 45.6(3) . 3_565
La O3 O2 71.7(3) . 3_565
Ga3 O3 O2 67.5(3) 2_564 3_565
O3 O3 O2 32.0(5) 6 3_565
O3 O3 O2 88.6(4) 3 3_565
O3 O3 O2 44.9(4) 4 3_565
O2 O3 O2 53.4(4) 2_565 3_565
O3 O3 O2 106.1(6) 6_554 3_565
O2 O3 O2 139.4(6) 5_445 3_565
O2 O3 O2 161.3(7) 4_444 3_565
O1 O3 O2 122.3(5) 2_455 3_565
O3 O3 O2 72.4(3) 2 3_565
O2 O3 O2 86.4(4) 4_445 3_565
O3 O3 O2 127.8(3) 2_554 3_565
Ga2 O3 O2 142.9(3) . 3_565
Ga3 O3 O2 86.6(3) 1_655 3_565
La O3 O2 124.6(4) 4_445 3_565
O2 O3 O2 84.7(3) 6 3_565
O3 O3 O2 36.9(3) 5 3_565
Ga3 O3 O2 68.5(2) 4_446 3_565
Ga2 O3 O2 74.9(2) 2_564 3_565
O3 O3 O2 88.4(3) 5_554 3_565
Ga1 O3 O2 113.1(4) 1_554 3_565
Nb O3 O2 113.1(4) 1_554 3_565
O2 O3 O2 124.9(4) 1_554 3_565
La O3 O2 98.9(3) 2 3_565
O1 O3 O2 46.5(3) . 3_565
Ga3 O3 O2 23.23(17) 2_565 3_565
La O3 O2 121.2(4) 1_554 3_565
O2 O3 O2 67.8(2) 3_564 3_565
O2 O3 O2 82.5(5) . 3_565
Ga2 O3 O2 144.0(3) 2_554 3_565
La O3 O2 29.88(15) 2_565 3_565
Ga3 O3 Ga2 118.2(5) 4_445 1_556
Nb O3 Ga2 91.7(5) . 1_556
Ga1 O3 Ga2 91.7(5) . 1_556
La O3 Ga2 41.5(3) . 1_556
Ga3 O3 Ga2 145.0(3) 2_564 1_556
O3 O3 Ga2 56.3(5) 6 1_556
O3 O3 Ga2 116.6(4) 3 1_556
O3 O3 Ga2 129.56(17) 4 1_556
O2 O3 Ga2 105.7(4) 2_565 1_556
O3 O3 Ga2 147.39(16) 6_554 1_556
O2 O3 Ga2 84.0(4) 5_445 1_556
O2 O3 Ga2 101.9(5) 4_444 1_556
O1 O3 Ga2 42.8(3) 2_455 1_556
O3 O3 Ga2 66.3(3) 2 1_556
O2 O3 Ga2 16.1(2) 4_445 1_556
O3 O3 Ga2 139.7(3) 2_554 1_556
Ga2 O3 Ga2 73.9(2) . 1_556
Ga3 O3 Ga2 144.8(4) 1_655 1_556
La O3 Ga2 44.76(16) 4_445 1_556
O2 O3 Ga2 74.6(2) 6 1_556
O3 O3 Ga2 92.3(5) 5 1_556
Ga3 O3 Ga2 41.14(15) 4_446 1_556
Ga2 O3 Ga2 99.00(18) 2_564 1_556
O3 O3 Ga2 170.7(5) 5_554 1_556
Ga1 O3 Ga2 159.4(2) 1_554 1_556
Nb O3 Ga2 159.4(2) 1_554 1_556
O2 O3 Ga2 85.3(2) 1_554 1_556
La O3 Ga2 87.8(3) 2 1_556
O1 O3 Ga2 64.7(2) . 1_556
Ga3 O3 Ga2 66.4(2) 2_565 1_556
La O3 Ga2 117.86(19) 1_554 1_556
O2 O3 Ga2 144.4(4) 3_564 1_556
O2 O3 Ga2 22.31(16) . 1_556
Ga2 O3 Ga2 91.4(3) 2_554 1_556
La O3 Ga2 94.27(19) 2_565 1_556
O2 O3 Ga2 86.9(3) 3_565 1_556
Ga3 O3 O2 82.2(3) 4_445 6_655
Nb O3 O2 42.1(3) . 6_655
Ga1 O3 O2 42.1(3) . 6_655
La O3 O2 139.4(4) . 6_655
Ga3 O3 O2 59.8(2) 2_564 6_655
O3 O3 O2 86.9(3) 6 6_655
O3 O3 O2 30.3(3) 3 6_655
O3 O3 O2 30.2(4) 4 6_655
O2 O3 O2 90.5(3) 2_565 6_655
O3 O3 O2 79.5(3) 6_554 6_655
O2 O3 O2 90.5(3) 5_445 6_655
O2 O3 O2 114.9(3) 4_444 6_655
O1 O3 O2 163.1(4) 2_455 6_655
O3 O3 O2 68.3(3) 2 6_655
O2 O3 O2 118.8(4) 4_445 6_655
O3 O3 O2 62.5(3) 2_554 6_655
Ga2 O3 O2 146.7(4) . 6_655
Ga3 O3 O2 19.8(2) 1_655 6_655
La O3 O2 121.5(3) 4_445 6_655
O2 O3 O2 136.7(4) 6 6_655
O3 O3 O2 43.9(4) 5 6_655
Ga3 O3 O2 91.8(3) 4_446 6_655
Ga2 O3 O2 110.7(3) 2_564 6_655
O3 O3 O2 38.0(3) 5_554 6_655
Ga1 O3 O2 63.8(2) 1_554 6_655
Nb O3 O2 63.8(2) 1_554 6_655
O2 O3 O2 141.9(4) 1_554 6_655
La O3 O2 59.76(18) 2 6_655
O1 O3 O2 112.4(3) . 6_655
Ga3 O3 O2 77.8(3) 2_565 6_655
La O3 O2 109.3(3) 1_554 6_655
O2 O3 O2 60.8(3) 3_564 6_655
O2 O3 O2 145.0(3) . 6_655
Ga2 O3 O2 88.1(2) 2_554 6_655
La O3 O2 82.9(3) 2_565 6_655
O2 O3 O2 67.7(5) 3_565 6_655
Ga2 O3 O2 132.8(4) 1_556 6_655
Ga3 O3 O1 93.9(6) 4_445 1_554
Nb O3 O1 128.7(5) . 1_554
Ga1 O3 O1 128.7(5) . 1_554
La O3 O1 75.6(4) . 1_554
Ga3 O3 O1 46.2(2) 2_564 1_554
O3 O3 O1 110.4(6) 6 1_554
O3 O3 O1 129.1(4) 3 1_554
O3 O3 O1 84.7(4) 4 1_554
O2 O3 O1 36.9(3) 2_565 1_554
O3 O3 O1 38.3(3) 6_554 1_554
O2 O3 O1 129.4(5) 5_445 1_554
O2 O3 O1 71.0(5) 4_444 1_554
O1 O3 O1 88.9(3) 2_455 1_554
O3 O3 O1 162.7(3) 2 1_554
O2 O3 O1 130.2(3) 4_445 1_554
O3 O3 O1 88.5(6) 2_554 1_554
Ga2 O3 O1 70.2(3) . 1_554
Ga3 O3 O1 100.4(4) 1_655 1_554
La O3 O1 128.7(2) 4_445 1_554
O2 O3 O1 39.7(3) 6 1_554
O3 O3 O1 120.8(2) 5 1_554
Ga3 O3 O1 145.5(3) 4_446 1_554
Ga2 O3 O1 20.74(17) 2_564 1_554
O3 O3 O1 73.8(3) 5_554 1_554
Ga1 O3 O1 62.9(3) 1_554 1_554
Nb O3 O1 62.9(3) 1_554 1_554
O2 O3 O1 45.7(2) 1_554 1_554
La O3 O1 156.7(4) 2 1_554
O1 O3 O1 66.83(19) . 1_554
Ga3 O3 O1 108.3(3) 2_565 1_554
La O3 O1 31.50(18) 1_554 1_554
O2 O3 O1 45.1(2) 3_564 1_554
O2 O3 O1 92.3(2) . 1_554
Ga2 O3 O1 122.7(3) 2_554 1_554
La O3 O1 60.9(2) 2_565 1_554
O2 O3 O1 90.3(3) 3_565 1_554
Ga2 O3 O1 114.2(2) 1_556 1_554
O2 O3 O1 105.4(3) 6_655 1_554
Ga3 O3 O1 72.2(5) 4_445 1_545
Nb O3 O1 74.1(5) . 1_545
Ga1 O3 O1 74.1(5) . 1_545
La O3 O1 102.4(5) . 1_545
Ga3 O3 O1 149.7(3) 2_564 1_545
O3 O3 O1 86.0(8) 6 1_545
O3 O3 O1 62.3(4) 3 1_545
O3 O3 O1 116.1(4) 4 1_545
O2 O3 O1 161.9(5) 2_565 1_545
O3 O3 O1 134.6(5) 6_554 1_545
O2 O3 O1 32.5(4) 5_445 1_545
O2 O3 O1 87.7(5) 4_444 1_545
O1 O3 O1 72.9(3) 2_455 1_545
O3 O3 O1 39.53(19) 2 1_545
O2 O3 O1 47.1(3) 4_445 1_545
O3 O3 O1 85.0(4) 2_554 1_545
Ga2 O3 O1 87.3(3) . 1_545
Ga3 O3 O1 89.6(2) 1_655 1_545
La O3 O1 30.95(12) 4_445 1_545
O2 O3 O1 131.0(3) 6 1_545
O3 O3 O1 82.1(3) 5 1_545
Ga3 O3 O1 46.5(3) 4_446 1_545
Ga2 O3 O1 157.7(3) 2_564 1_545
O3 O3 O1 113.73(16) 5_554 1_545
Ga1 O3 O1 113.0(3) 1_554 1_545
Nb O3 O1 113.0(3) 1_554 1_545
O2 O3 O1 112.1(3) 1_554 1_545
La O3 O1 31.41(11) 2 1_545
O1 O3 O1 121.9(5) . 1_545
Ga3 O3 O1 90.6(4) 2_565 1_545
La O3 O1 127.8(3) 1_554 1_545
O2 O3 O1 150.7(3) 3_564 1_545
O2 O3 O1 82.7(3) . 1_545
Ga2 O3 O1 40.5(2) 2_554 1_545
La O3 O1 138.7(4) 2_565 1_545
O2 O3 O1 111.0(4) 3_565 1_545
Ga2 O3 O1 60.9(2) 1_556 1_545
O2 O3 O1 91.0(2) 6_655 1_545
O1 O3 O1 157.1(3) 1_554 1_545
Ga3 O3 La 115.2(4) 4_445 4
Nb O3 La 34.7(3) . 4
Ga1 O3 La 34.7(3) . 4
La O3 La 105.8(3) . 4
Ga3 O3 La 52.83(17) 2_564 4
O3 O3 La 59.9(3) 6 4
O3 O3 La 59.9(3) 3 4
O3 O3 La 14.36(17) 4 4
O2 O3 La 65.4(3) 2_565 4
O3 O3 La 88.7(4) 6_554 4
O2 O3 La 120.6(5) 5_445 4
O2 O3 La 142.4(6) 4_444 4
O1 O3 La 156.2(4) 2_455 4
O3 O3 La 71.1(2) 2 4
O2 O3 La 109.0(4) 4_445 4
O3 O3 La 93.78(15) 2_554 4
Ga2 O3 La 164.7(5) . 4
Ga3 O3 La 52.27(12) 1_655 4
La O3 La 136.0(4) 4_445 4
O2 O3 La 109.5(3) 6 4
O3 O3 La 28.67(17) 5 4
Ga3 O3 La 83.0(2) 4_446 4
Ga2 O3 La 89.2(2) 2_564 4
O3 O3 La 57.4(2) 5_554 4
Ga1 O3 La 84.9(2) 1_554 4
Nb O3 La 84.9(2) 1_554 4
O2 O3 La 140.2(4) 1_554 4
La O3 La 81.75(16) 2 4
O1 O3 La 78.48(16) . 4
Ga3 O3 La 49.88(10) 2_565 4
La O3 La 115.8(3) 1_554 4
O2 O3 La 53.66(18) 3_564 4
O2 O3 La 116.3(4) . 4
Ga2 O3 La 120.15(19) 2_554 4
La O3 La 50.91(11) 2_565 4
O2 O3 La 34.3(2) 3_565 4
Ga2 O3 La 115.7(3) 1_556 4
O2 O3 La 34.0(2) 6_655 4
O1 O3 La 94.6(2) 1_554 4
O1 O3 La 107.7(3) 1_545 4
Ga3 O3 Ga3 98.8(4) 4_445 .
Nb O3 Ga3 148.8(4) . .
Ga1 O3 Ga3 148.8(4) . .
La O3 Ga3 46.7(2) . .
Ga3 O3 Ga3 88.8(3) 2_564 .
O3 O3 Ga3 102.11(15) 6 .
O3 O3 Ga3 163.57(19) 3 .
O3 O3 Ga3 123.7(6) 4 .
O2 O3 Ga3 63.2(3) 2_565 .
O3 O3 Ga3 73.28(19) 6_554 .
O2 O3 Ga3 110.6(5) 5_445 .
O2 O3 Ga3 62.7(3) 4_444 .
O1 O3 Ga3 46.76(19) 2_455 .
O3 O3 Ga3 140.8(4) 2 .
O2 O3 Ga3 90.1(3) 4_445 .
O3 O3 Ga3 109.2(6) 2_554 .
Ga2 O3 Ga3 40.02(11) . .
Ga3 O3 Ga3 140.4(4) 1_655 .
La O3 Ga3 88.57(17) 4_445 .
O2 O3 Ga3 20.1(2) 6 .
O3 O3 Ga3 141.0(2) 5 .
Ga3 O3 Ga3 114.5(2) 4_446 .
Ga2 O3 Ga3 40.11(10) 2_564 .
O3 O3 Ga3 114.4(4) 5_554 .
Ga1 O3 Ga3 94.5(3) 1_554 .
Nb O3 Ga3 94.5(3) 1_554 .
O2 O3 Ga3 21.73(17) 1_554 .
La O3 Ga3 149.4(3) 2 .
O1 O3 Ga3 60.00(18) . .
Ga3 O3 Ga3 107.55(18) 2_565 .
La O3 Ga3 46.60(12) 1_554 .
O2 O3 Ga3 87.7(3) 3_564 .
O2 O3 Ga3 55.4(2) . .
Ga2 O3 Ga3 109.44(19) 2_554 .
La O3 Ga3 78.91(17) 2_565 .
O2 O3 Ga3 104.7(3) 3_565 .
Ga2 O3 Ga3 74.52(13) 1_556 .
O2 O3 Ga3 148.4(4) 6_655 .
O1 O3 Ga3 43.10(12) 1_554 .
O1 O3 Ga3 119.5(2) 1_545 .
La O3 Ga3 128.3(3) 4 .
Ga3 O3 Ga3 113.8(4) 4_445 1_656
Nb O3 Ga3 12.5(3) . 1_656
Ga1 O3 Ga3 12.5(3) . 1_656
La O3 Ga3 99.0(4) . 1_656
Ga3 O3 Ga3 99.2(3) 2_564 1_656
O3 O3 Ga3 43.7(2) 6 1_656
O3 O3 Ga3 50.87(16) 3 1_656
O3 O3 Ga3 59.20(13) 4 1_656
O2 O3 Ga3 102.9(3) 2_565 1_656
O3 O3 Ga3 131.2(3) 6_554 1_656
O2 O3 Ga3 89.2(5) 5_445 1_656
O2 O3 Ga3 147.1(5) 4_444 1_656
O1 O3 Ga3 120.7(5) 2_455 1_656
O3 O3 Ga3 25.15(18) 2 1_656
O2 O3 Ga3 67.7(3) 4_445 1_656
O3 O3 Ga3 105.2(4) 2_554 1_656
Ga2 O3 Ga3 148.5(4) . 1_656
Ga3 O3 Ga3 69.15(17) 1_655 1_656
La O3 Ga3 89.7(3) 4_445 1_656
O2 O3 Ga3 129.3(3) 6 1_656
O3 O3 Ga3 18.22(16) 5 1_656
Ga3 O3 Ga3 39.95(13) 4_446 1_656
Ga2 O3 Ga3 125.1(2) 2_564 1_656
O3 O3 Ga3 90.7(3) 5_554 1_656
Ga1 O3 Ga3 116.09(19) 1_554 1_656
Nb O3 Ga3 116.09(19) 1_554 1_656
O2 O3 Ga3 164.9(4) 1_554 1_656
La O3 Ga3 49.13(14) 2 1_656
O1 O3 Ga3 88.2(3) . 1_656
Ga3 O3 Ga3 39.51(12) 2_565 1_656
La O3 Ga3 161.1(3) 1_554 1_656
O2 O3 Ga3 100.1(2) 3_564 1_656
O2 O3 Ga3 94.1(4) . 1_656
Ga2 O3 Ga3 94.0(2) 2_554 1_656
La O3 Ga3 80.09(16) 2_565 1_656
O2 O3 Ga3 50.27(18) 3_565 1_656
Ga2 O3 Ga3 80.2(2) 1_556 1_656
O2 O3 Ga3 52.8(2) 6_655 1_656
O1 O3 Ga3 138.6(3) 1_554 1_656
O1 O3 Ga3 64.3(2) 1_545 1_656
La O3 Ga3 46.51(9) 4 1_656
Ga3 O3 Ga3 145.6(2) . 1_656
Ga3 O3 O3 136.7(5) 4_445 1_556
Nb O3 O3 52.1(4) . 1_556
Ga1 O3 O3 52.1(4) . 1_556
La O3 O3 59.5(4) . 1_556
Ga3 O3 O3 121.0(3) 2_564 1_556
O3 O3 O3 22.4(7) 6 1_556
O3 O3 O3 90.0 3 1_556
O3 O3 O3 90.000(1) 4 1_556
O2 O3 O3 97.2(4) 2_565 1_556
O3 O3 O3 159.2(4) 6_554 1_556
O2 O3 O3 97.1(4) 5_445 1_556
O2 O3 O3 140.6(5) 4_444 1_556
O1 O3 O3 83.6(4) 2_455 1_556
O3 O3 O3 40.3(4) 2 1_556
O2 O3 O3 34.1(2) 4_445 1_556
O3 O3 O3 142.0(5) 2_554 1_556
Ga2 O3 O3 114.8(3) . 1_556
Ga3 O3 O3 111.3(2) 1_655 1_556
La O3 O3 71.1(2) 4_445 1_556
O2 O3 O3 95.2(3) 6 1_556
O3 O3 O3 51.6(4) 5 1_556
Ga3 O3 O3 18.38(15) 4_446 1_556
Ga2 O3 O3 107.42(19) 2_564 1_556
O3 O3 O3 130.8(3) 5_554 1_556
Ga1 O3 O3 157.95(13) 1_554 1_556
Nb O3 O3 157.95(13) 1_554 1_556
O2 O3 O3 122.7(2) 1_554 1_556
La O3 O3 73.43(18) 2 1_556
O1 O3 O3 61.3(3) . 1_556
Ga3 O3 O3 30.3(2) 2_565 1_556
La O3 O3 151.85(12) 1_554 1_556
O2 O3 O3 121.3(3) 3_564 1_556
O2 O3 O3 52.0(3) . 1_556
Ga2 O3 O3 105.2(2) 2_554 1_556
La O3 O3 75.0(2) 2_565 1_556
O2 O3 O3 53.5(3) 3_565 1_556
Ga2 O3 O3 40.85(13) 1_556 1_556
O2 O3 O3 94.2(2) 6_655 1_556
O1 O3 O3 128.2(2) 1_554 1_556
O1 O3 O3 64.7(2) 1_545 1_556
La O3 O3 75.69(18) 4 1_556
Ga3 O3 O3 105.61(17) . 1_556
Ga3 O3 O3 42.12(13) 1_656 1_556
Ga3 O3 O3 43.4(5) 4_445 1_554
Nb O3 O3 127.9(4) . 1_554
Ga1 O3 O3 127.9(4) . 1_554
La O3 O3 120.5(4) . 1_554
Ga3 O3 O3 59.0(3) 2_564 1_554
O3 O3 O3 157.6(7) 6 1_554
O3 O3 O3 90.0 3 1_554
O3 O3 O3 90.000(2) 4 1_554
O2 O3 O3 82.8(4) 2_565 1_554
O3 O3 O3 20.8(4) 6_554 1_554
O2 O3 O3 82.9(4) 5_445 1_554
O2 O3 O3 39.4(5) 4_444 1_554
O1 O3 O3 96.4(4) 2_455 1_554
O3 O3 O3 139.7(4) 2 1_554
O2 O3 O3 145.9(2) 4_445 1_554
O3 O3 O3 38.0(5) 2_554 1_554
Ga2 O3 O3 65.2(3) . 1_554
Ga3 O3 O3 68.7(2) 1_655 1_554
La O3 O3 108.9(2) 4_445 1_554
O2 O3 O3 84.8(3) 6 1_554
O3 O3 O3 128.4(4) 5 1_554
Ga3 O3 O3 161.62(15) 4_446 1_554
Ga2 O3 O3 72.58(19) 2_564 1_554
O3 O3 O3 49.2(3) 5_554 1_554
Ga1 O3 O3 22.05(13) 1_554 1_554
Nb O3 O3 22.05(13) 1_554 1_554
O2 O3 O3 57.3(2) 1_554 1_554
La O3 O3 106.58(18) 2 1_554
O1 O3 O3 118.7(3) . 1_554
Ga3 O3 O3 149.7(2) 2_565 1_554
La O3 O3 28.15(12) 1_554 1_554
O2 O3 O3 58.7(3) 3_564 1_554
O2 O3 O3 128.0(3) . 1_554
Ga2 O3 O3 74.8(2) 2_554 1_554
La O3 O3 105.0(2) 2_565 1_554
O2 O3 O3 126.5(3) 3_565 1_554
Ga2 O3 O3 139.15(13) 1_556 1_554
O2 O3 O3 85.8(2) 6_655 1_554
O1 O3 O3 51.8(2) 1_554 1_554
O1 O3 O3 115.3(2) 1_545 1_554
La O3 O3 104.31(18) 4 1_554
Ga3 O3 O3 74.39(17) . 1_554
Ga3 O3 O3 137.88(13) 1_656 1_554
O3 O3 O3 179.999(1) 1_556 1_554
Ga3 O3 O2 57.4(3) 4_445 3_454
Nb O3 O2 154.3(6) . 3_454
Ga1 O3 O2 154.3(6) . 3_454
La O3 O2 81.0(3) . 3_454
Ga3 O3 O2 115.9(5) 2_564 3_454
O3 O3 O2 131.2(6) 6 3_454
O3 O3 O2 118.8(5) 3 3_454
O3 O3 O2 153.4(3) 4 3_454
O2 O3 O2 109.8(4) 2_565 3_454
O3 O3 O2 79.1(4) 6_554 3_454
O2 O3 O2 61.4(3) 5_445 3_454
O2 O3 O2 26.2(2) 4_444 3_454
O1 O3 O2 34.5(4) 2_455 3_454
O3 O3 O2 118.6(2) 2 3_454
O2 O3 O2 83.3(3) 4_445 3_454
O3 O3 O2 77.3(4) 2_554 3_454
Ga2 O3 O2 9.7(2) . 3_454
Ga3 O3 O2 119.9(4) 1_655 3_454
La O3 O2 54.30(17) 4_445 3_454
O2 O3 O2 69.6(4) 6 3_454
O3 O3 O2 161.9(4) 5 3_454
Ga3 O3 O2 109.0(3) 4_446 3_454
Ga2 O3 O2 85.9(3) 2_564 3_454
O3 O3 O2 111.0(5) 5_554 3_454
Ga1 O3 O2 83.3(3) 1_554 3_454
Nb O3 O2 83.3(3) 1_554 3_454
O2 O3 O2 33.02(18) 1_554 3_454
La O3 O2 102.4(3) 2 3_454
O1 O3 O2 105.7(3) . 3_454
Ga3 O3 O2 141.1(4) 2_565 3_454
La O3 O2 52.89(18) 1_554 3_454
O2 O3 O2 115.1(4) 3_564 3_454
O2 O3 O2 73.47(14) . 3_454
Ga2 O3 O2 59.8(2) 2_554 3_454
La O3 O2 128.5(3) 2_565 3_454
O2 O3 O2 152.1(5) 3_565 3_454
Ga2 O3 O2 76.3(3) 1_556 3_454
O2 O3 O2 139.4(2) 6_655 3_454
O1 O3 O2 77.0(2) 1_554 3_454
O1 O3 O2 80.2(2) 1_545 3_454
La O3 O2 167.7(4) 4 3_454
Ga3 O3 O2 49.6(2) . 3_454
Ga3 O3 O2 143.7(4) 1_656 3_454
O3 O3 O2 116.5(3) 1_556 3_454
O3 O3 O2 63.5(3) 1_554 3_454
Ga3 O3 O2 49.0(3) 4_445 1_654
Nb O3 O2 68.8(3) . 1_654
Ga1 O3 O2 68.8(3) . 1_654
La O3 O2 172.5(4) . 1_654
Ga3 O3 O2 70.6(2) 2_564 1_654
O3 O3 O2 117.0(3) 6 1_654
O3 O3 O2 27.0(3) 3 1_654
O3 O3 O2 59.6(4) 4 1_654
O2 O3 O2 109.9(5) 2_565 1_654
O3 O3 O2 67.5(3) 6_554 1_654
O2 O3 O2 65.0(4) 5_445 1_654
O2 O3 O2 83.1(4) 4_444 1_654
O1 O3 O2 134.9(4) 2_455 1_654
O3 O3 O2 79.1(3) 2 1_654
O2 O3 O2 124.8(4) 4_445 1_654
O3 O3 O2 30.8(4) 2_554 1_654
Ga2 O3 O2 114.3(4) . 1_654
Ga3 O3 O2 14.92(19) 1_655 1_654
La O3 O2 103.8(3) 4_445 1_654
O2 O3 O2 144.2(4) 6 1_654
O3 O3 O2 73.6(3) 5 1_654
Ga3 O3 O2 105.9(3) 4_446 1_654
Ga2 O3 O2 120.5(4) 2_564 1_654
O3 O3 O2 33.36(19) 5_554 1_654
Ga1 O3 O2 44.1(2) 1_554 1_654
Nb O3 O2 44.1(2) 1_554 1_654
O2 O3 O2 118.8(5) 1_554 1_654
La O3 O2 52.80(16) 2 1_654
O1 O3 O2 143.6(3) . 1_654
Ga3 O3 O2 109.1(3) 2_565 1_654
La O3 O2 91.3(3) 1_554 1_654
O2 O3 O2 71.5(3) 3_564 1_654
O2 O3 O2 162.8(5) . 1_654
Ga2 O3 O2 60.0(2) 2_554 1_654
La O3 O2 111.6(3) 2_565 1_654
O2 O3 O2 100.81(17) 3_565 1_654
Ga2 O3 O2 140.5(4) 1_556 1_654
O2 O3 O2 33.1(4) 6_655 1_654
O1 O3 O2 104.6(4) 1_554 1_654
O1 O3 O2 80.4(2) 1_545 1_654
La O3 O2 66.7(2) 4 1_654
Ga3 O3 O2 137.7(4) . 1_654
Ga3 O3 O2 75.8(2) 1_656 1_654
O3 O3 O2 116.6(3) 1_556 1_654
O3 O3 O2 63.4(3) 1_554 1_654
O2 O3 O2 106.4(5) 3_454 1_654
Ga3 O3 La 26.3(2) 4_445 4_444
Nb O3 La 137.2(4) . 4_444
Ga1 O3 La 137.2(4) . 4_444
La O3 La 112.5(3) . 4_444
Ga3 O3 La 101.6(4) 2_564 4_444
O3 O3 La 158.7(8) 6 4_444
O3 O3 La 91.3(4) 3 4_444
O3 O3 La 126.70(15) 4 4_444
O2 O3 La 118.2(5) 2_565 4_444
O3 O3 La 63.0(4) 6_554 4_444
O2 O3 La 48.0(4) 5_445 4_444
O2 O3 La 11.7(3) 4_444 4_444
O1 O3 La 64.9(3) 2_455 4_444
O3 O3 La 115.7(3) 2 4_444
O2 O3 La 104.3(3) 4_445 4_444
O3 O3 La 45.5(3) 2_554 4_444
Ga2 O3 La 39.58(12) . 4_444
Ga3 O3 La 88.1(2) 1_655 4_444
La O3 La 66.22(15) 4_445 4_444
O2 O3 La 93.2(3) 6 4_444
O3 O3 La 145.1(2) 5 4_444
Ga3 O3 La 122.1(3) 4_446 4_444
Ga2 O3 La 98.6(3) 2_564 4_444
O3 O3 La 82.6(4) 5_554 4_444
Ga1 O3 La 56.82(14) 1_554 4_444
Nb O3 La 56.82(14) 1_554 4_444
O2 O3 La 52.4(2) 1_554 4_444
La O3 La 86.39(17) 2 4_444
O1 O3 La 133.8(3) . 4_444
Ga3 O3 La 167.6(4) 2_565 4_444
La O3 La 49.96(12) 1_554 4_444
O2 O3 La 101.3(4) 3_564 4_444
O2 O3 La 104.7(3) . 4_444
Ga2 O3 La 42.07(9) 2_554 4_444
La O3 La 142.3(4) 2_565 4_444
O2 O3 La 169.1(4) 3_565 4_444
Ga2 O3 La 102.9(2) 1_556 4_444
O2 O3 La 107.7(3) 6_655 4_444
O1 O3 La 81.4(3) 1_554 4_444
O1 O3 La 78.4(2) 1_545 4_444
La O3 La 139.0(2) 4 4_444
Ga3 O3 La 73.86(15) . 4_444
Ga3 O3 La 135.5(2) 1_656 4_444
O3 O3 La 137.34(18) 1_556 4_444
O3 O3 La 42.66(18) 1_554 4_444
O2 O3 La 31.8(2) 3_454 4_444
O2 O3 La 74.8(3) 1_654 4_444
Ga3 O3 O2 43.7(4) 4_445 2
Nb O3 O2 79.4(4) . 2
Ga1 O3 O2 79.4(4) . 2
La O3 O2 133.3(5) . 2
Ga3 O3 O2 121.3(3) 2_564 2
O3 O3 O2 111.8(6) 6 2
O3 O3 O2 43.5(5) 3 2
O3 O3 O2 103.4(4) 4 2
O2 O3 O2 161.1(6) 2_565 2
O3 O3 O2 103.2(4) 6_554 2
O2 O3 O2 17.8(5) 5_445 2
O2 O3 O2 71.8(4) 4_444 2
O1 O3 O2 90.1(3) 2_455 2
O3 O3 O2 57.6(3) 2 2
O2 O3 O2 79.8(3) 4_445 2
O3 O3 O2 52.4(4) 2_554 2
Ga2 O3 O2 88.2(2) . 2
Ga3 O3 O2 63.7(2) 1_655 2
La O3 O2 52.8(2) 4_445 2
O2 O3 O2 147.7(3) 6 2
O3 O3 O2 88.19(16) 5 2
Ga3 O3 O2 75.6(3) 4_446 2
Ga2 O3 O2 157.8(3) 2_564 2
O3 O3 O2 83.5(2) 5_554 2
Ga1 O3 O2 80.3(2) 1_554 2
Nb O3 O2 80.3(2) 1_554 2
O2 O3 O2 109.9(3) 1_554 2
La O3 O2 26.20(14) 2 2
O1 O3 O2 154.3(5) . 2
Ga3 O3 O2 112.5(3) 2_565 2
La O3 O2 107.4(2) 1_554 2
O2 O3 O2 122.1(3) 3_564 2
O2 O3 O2 113.2(4) . 2
Ga2 O3 O2 19.20(12) 2_554 2
La O3 O2 152.9(2) 2_565 2
O2 O3 O2 124.9(3) 3_565 2
Ga2 O3 O2 92.7(3) 1_556 2
O2 O3 O2 73.2(3) 6_655 2
O1 O3 O2 137.6(3) 1_554 2
O1 O3 O2 32.8(3) 1_545 2
La O3 O2 102.7(2) 4 2
Ga3 O3 O2 128.2(2) . 2
Ga3 O3 O2 75.3(2) 1_656 2
O3 O3 O2 93.8(2) 1_556 2
O3 O3 O2 86.2(2) 1_554 2
O2 O3 O2 78.6(3) 3_454 2
O2 O3 O2 51.17(17) 1_654 2
La O3 O2 60.22(17) 4_444 2
Ga3 O3 O2 128.7(7) 4_445 5_455
Nb O3 O2 106.2(4) . 5_455
Ga1 O3 O2 106.2(4) . 5_455
La O3 O2 51.0(3) . 5_455
Ga3 O3 O2 54.9(2) 2_564 5_455
O3 O3 O2 75.8(5) 6 5_455
O3 O3 O2 137.5(6) 3 5_455
O3 O3 O2 77.7(6) 4 5_455
O2 O3 O2 16.8(4) 2_565 5_455
O3 O3 O2 69.7(4) 6_554 5_455
O2 O3 O2 158.4(7) 5_445 5_455
O2 O3 O2 101.6(4) 4_444 5_455
O1 O3 O2 89.6(3) 2_455 5_455
O3 O3 O2 129.9(4) 2 5_455
O2 O3 O2 106.0(3) 4_445 5_455
O3 O3 O2 120.7(6) 2_554 5_455
Ga2 O3 O2 87.7(3) . 5_455
Ga3 O3 O2 114.3(4) 1_655 5_455
La O3 O2 129.4(3) 4_445 5_455
O2 O3 O2 30.0(2) 6 5_455
O3 O3 O2 97.3(2) 5 5_455
Ga3 O3 O2 111.8(3) 4_446 5_455
Ga2 O3 O2 14.8(2) 2_564 5_455
O3 O3 O2 92.4(2) 5_554 5_455
Ga1 O3 O2 93.0(3) 1_554 5_455
Nb O3 O2 93.0(3) 1_554 5_455
O2 O3 O2 64.8(4) 1_554 5_455
La O3 O2 160.0(3) 2 5_455
O1 O3 O2 32.9(3) . 5_455
Ga3 O3 O2 74.8(3) 2_565 5_455
La O3 O2 65.1(3) 1_554 5_455
O2 O3 O2 54.0(3) 3_564 5_455
O2 O3 O2 71.0(2) . 5_455
Ga2 O3 O2 154.8(3) 2_554 5_455
La O3 O2 31.9(2) 2_565 5_455
O2 O3 O2 61.1(2) 3_565 5_455
Ga2 O3 O2 92.32(19) 1_556 5_455
O2 O3 O2 107.2(4) 6_655 5_455
O1 O3 O2 34.8(3) 1_554 5_455
O1 O3 O2 153.1(3) 1_545 5_455
La O3 O2 80.2(3) 4 5_455
Ga3 O3 O2 48.2(2) . 5_455
Ga3 O3 O2 111.2(3) 1_656 5_455
O3 O3 O2 93.7(2) 1_556 5_455
O3 O3 O2 86.3(2) 1_554 5_455
O2 O3 O2 97.1(4) 3_454 5_455
O2 O3 O2 125.5(3) 1_654 5_455
La O3 O2 113.0(3) 4_444 5_455
O2 O3 O2 172.4(4) 2 5_455
Ga3 O3 O1 123.9(6) 4_445 2_565
Nb O3 O1 60.7(4) . 2_565
Ga1 O3 O1 60.7(4) . 2_565
La O3 O1 89.8(3) . 2_565
Ga3 O3 O1 34.8(2) 2_564 2_565
O3 O3 O1 64.8(6) 6 2_565
O3 O3 O1 85.3(4) 3 2_565
O3 O3 O1 25.5(4) 4 2_565
O2 O3 O1 37.4(3) 2_565 2_565
O3 O3 O1 73.8(5) 6_554 2_565
O2 O3 O1 146.2(5) 5_445 2_565
O2 O3 O1 131.6(7) 4_444 2_565
O1 O3 O1 140.4(3) 2_455 2_565
O3 O3 O1 96.1(2) 2 2_565
O2 O3 O1 119.2(4) 4_445 2_565
O3 O3 O1 101.5(2) 2_554 2_565
Ga2 O3 O1 137.5(4) . 2_565
Ga3 O3 O1 68.76(19) 1_655 2_565
La O3 O1 157.2(4) 4_445 2_565
O2 O3 O1 82.8(3) 6 2_565
O3 O3 O1 52.92(19) 5 2_565
Ga3 O3 O1 100.0(3) 4_446 2_565
Ga2 O3 O1 61.03(18) 2_564 2_565
O3 O3 O1 59.9(2) 5_554 2_565
Ga1 O3 O1 81.2(3) 1_554 2_565
Nb O3 O1 81.2(3) 1_554 2_565
O2 O3 O1 112.7(3) 1_554 2_565
La O3 O1 109.82(19) 2 2_565
O1 O3 O1 60.4(2) . 2_565
Ga3 O3 O1 56.0(2) 2_565 2_565
La O3 O1 94.2(3) 1_554 2_565
O2 O3 O1 35.2(3) 3_564 2_565
O2 O3 O1 106.8(3) . 2_565
Ga2 O3 O1 143.1(2) 2_554 2_565
La O3 O1 28.23(11) 2_565 2_565
O2 O3 O1 32.9(3) 3_565 2_565
Ga2 O3 O1 117.5(3) 1_556 2_565
O2 O3 O1 55.7(2) 6_655 2_565
O1 O3 O1 68.0(2) 1_554 2_565
O1 O3 O1 134.9(2) 1_545 2_565
La O3 O1 28.15(10) 4 2_565
Ga3 O3 O1 100.6(2) . 2_565
Ga3 O3 O1 70.98(18) 1_656 2_565
O3 O3 O1 86.3(2) 1_556 2_565
O3 O3 O1 93.7(2) 1_554 2_565
O2 O3 O1 145.0(4) 3_454 2_565
O2 O3 O1 83.4(2) 1_654 2_565
La O3 O1 136.3(4) 4_444 2_565
O2 O3 O1 128.8(2) 2 2_565
O2 O3 O1 52.9(2) 5_455 2_565
Ga3 O3 O1 13.3(4) 4_445 1_544
Nb O3 O1 109.6(4) . 1_544
Ga1 O3 O1 109.6(4) . 1_544
La O3 O1 132.9(3) . 1_544
Ga3 O3 O1 107.4(4) 2_564 1_544
O3 O3 O1 144.7(8) 6 1_544
O3 O3 O1 64.9(4) 3 1_544
O3 O3 O1 113.7(3) 4 1_544
O2 O3 O1 138.7(6) 2_565 1_544
O3 O3 O1 75.6(4) 6_554 1_544
O2 O3 O1 27.1(4) 5_445 1_544
O2 O3 O1 39.4(3) 4_444 1_544
O1 O3 O1 80.6(3) 2_455 1_544
O3 O3 O1 91.2(3) 2 1_544
O2 O3 O1 99.6(4) 4_445 1_544
O3 O3 O1 33.85(15) 2_554 1_544
Ga2 O3 O1 63.76(16) . 1_544
Ga3 O3 O1 69.36(15) 1_655 1_544
La O3 O1 61.54(19) 4_445 1_544
O2 O3 O1 120.9(3) 6 1_544
O3 O3 O1 117.77(17) 5 1_544
Ga3 O3 O1 105.9(3) 4_446 1_544
Ga2 O3 O1 124.2(4) 2_564 1_544
O3 O3 O1 75.3(3) 5_554 1_544
Ga1 O3 O1 58.30(19) 1_554 1_544
Nb O3 O1 58.30(19) 1_554 1_544
O2 O3 O1 80.1(3) 1_554 1_544
La O3 O1 59.38(18) 2 1_544
O1 O3 O1 160.1(2) . 1_544
Ga3 O3 O1 146.2(4) 2_565 1_544
La O3 O1 73.8(2) 1_554 1_544
O2 O3 O1 107.6(4) 3_564 1_544
O2 O3 O1 118.0(3) . 1_544
Ga2 O3 O1 19.01(16) 2_554 1_544
La O3 O1 159.1(4) 2_565 1_544
O2 O3 O1 153.4(3) 3_565 1_544
Ga2 O3 O1 106.0(3) 1_556 1_544
O2 O3 O1 86.9(2) 6_655 1_544
O1 O3 O1 104.7(4) 1_554 1_544
O1 O3 O1 59.46(13) 1_545 1_544
La O3 O1 120.92(17) 4 1_544
Ga3 O3 O1 101.2(2) . 1_544
Ga3 O3 O1 108.0(2) 1_656 1_544
O3 O3 O1 124.2(3) 1_556 1_544
O3 O3 O1 55.8(3) 1_554 1_544
O2 O3 O1 54.4(2) 3_454 1_544
O2 O3 O1 54.5(2) 1_654 1_544
La O3 O1 27.81(11) 4_444 1_544
O2 O3 O1 33.7(2) 2 1_544
O2 O3 O1 138.9(4) 5_455 1_544
O1 O3 O1 135.0(2) 2_565 1_544
Ga3 O3 O2 99.9(5) 4_445 3_455
Nb O3 O2 106.3(6) . 3_455
Ga1 O3 O2 106.3(6) . 3_455
La O3 O2 51.0(4) . 3_455
Ga3 O3 O2 154.8(4) 2_564 3_455
O3 O3 O2 75.9(6) 6 3_455
O3 O3 O2 117.4(5) 3 3_455
O3 O3 O2 148.7(2) 4 3_455
O2 O3 O2 116.2(3) 2_565 3_455
O3 O3 O2 134.7(3) 6_554 3_455
O2 O3 O2 70.1(3) 5_445 3_455
O2 O3 O2 82.7(3) 4_444 3_455
O1 O3 O2 26.8(3) 2_455 3_455
O3 O3 O2 74.7(3) 2 3_455
O2 O3 O2 26.49(19) 4_445 3_455
O3 O3 O2 122.3(2) 2_554 3_455
Ga2 O3 O2 56.9(2) . 3_455
Ga3 O3 O2 145.0(4) 1_655 3_455
La O3 O2 30.27(19) 4_445 3_455
O2 O3 O2 75.7(3) 6 3_455
O3 O3 O2 108.7(5) 5 3_455
Ga3 O3 O2 54.1(2) 4_446 3_455
Ga2 O3 O2 102.4(3) 2_564 3_455
O3 O3 O2 163.8(3) 5_554 3_455
Ga1 O3 O2 139.9(3) 1_554 3_455
Nb O3 O2 139.9(3) 1_554 3_455
O2 O3 O2 73.13(15) 1_554 3_455
La O3 O2 86.3(3) 2 3_455
O1 O3 O2 78.8(3) . 3_455
Ga3 O3 O2 85.9(3) 2_565 3_455
La O3 O2 104.9(2) 1_554 3_455
O2 O3 O2 153.8(5) 3_564 3_455
O2 O3 O2 31.4(2) . 3_455
Ga2 O3 O2 76.5(3) 2_554 3_455
La O3 O2 110.5(3) 2_565 3_455
O2 O3 O2 106.4(5) 3_565 3_455
Ga2 O3 O2 19.62(19) 1_556 3_455
O2 O3 O2 142.6(3) 6_655 3_455
O1 O3 O2 111.6(2) 1_554 3_455
O1 O3 O2 55.4(2) 1_545 3_455
La O3 O2 134.5(3) 4 3_455
Ga3 O3 O2 68.62(19) . 3_455
Ga3 O3 O2 94.0(3) 1_656 3_455
O3 O3 O2 58.8(2) 1_556 3_455
O3 O3 O2 121.2(2) 1_554 3_455
O2 O3 O2 57.75(17) 3_454 3_455
O2 O3 O2 133.9(4) 1_654 3_455
La O3 O2 83.3(2) 4_444 3_455
O2 O3 O2 82.7(4) 2 3_455
O2 O3 O2 100.3(3) 5_455 3_455
O1 O3 O2 136.1(3) 2_565 3_455
O1 O3 O2 88.6(3) 1_544 3_455
Ga3 O3 O2 93.6(4) 4_445 1_655
Nb O3 O2 21.9(3) . 1_655
Ga1 O3 O2 21.9(3) . 1_655
La O3 O2 117.8(5) . 1_655
Ga3 O3 O2 99.9(3) 2_564 1_655
O3 O3 O2 63.7(3) 6 1_655
O3 O3 O2 31.6(2) 3 1_655
O3 O3 O2 61.1(3) 4 1_655
O2 O3 O2 116.3(4) 2_565 1_655
O3 O3 O2 121.5(2) 6_554 1_655
O2 O3 O2 73.4(6) 5_445 1_655
O2 O3 O2 128.2(3) 4_444 1_655
O1 O3 O2 124.7(5) 2_455 1_655
O3 O3 O2 25.3(2) 2 1_655
O2 O3 O2 76.1(4) 4_445 1_655
O3 O3 O2 85.8(4) 2_554 1_655
Ga2 O3 O2 142.3(4) . 1_655
Ga3 O3 O2 54.62(18) 1_655 1_655
La O3 O2 85.5(3) 4_445 1_655
O2 O3 O2 149.4(3) 6 1_655
O3 O3 O2 30.75(19) 5 1_655
Ga3 O3 O2 50.3(2) 4_446 1_655
Ga2 O3 O2 140.2(3) 2_564 1_655
O3 O3 O2 79.7(3) 5_554 1_655
Ga1 O3 O2 101.1(2) 1_554 1_655
Nb O3 O2 101.1(2) 1_554 1_655
O2 O3 O2 166.9(4) 1_554 1_655
La O3 O2 31.96(17) 2 1_655
O1 O3 O2 108.3(3) . 1_655
Ga3 O3 O2 59.6(2) 2_565 1_655
La O3 O2 149.1(3) 1_554 1_655
O2 O3 O2 100.97(18) 3_564 1_655
O2 O3 O2 109.2(5) . 1_655
Ga2 O3 O2 76.7(2) 2_554 1_655
La O3 O2 96.1(2) 2_565 1_655
O2 O3 O2 67.4(2) 3_565 1_655
Ga2 O3 O2 91.1(3) 1_556 1_655
O2 O3 O2 43.1(3) 6_655 1_655
O1 O3 O2 145.8(3) 1_554 1_655
O1 O3 O2 55.6(2) 1_545 1_655
La O3 O2 52.28(17) 4 1_655
Ga3 O3 O2 164.2(3) . 1_655
Ga3 O3 O2 20.20(16) 1_656 1_655
O3 O3 O2 58.6(2) 1_556 1_655
O3 O3 O2 121.4(2) 1_554 1_655
O2 O3 O2 133.9(4) 3_454 1_655
O2 O3 O2 58.00(17) 1_654 1_655
La O3 O2 116.6(2) 4_444 1_655
O2 O3 O2 57.5(2) 2 1_655
O2 O3 O2 128.1(2) 5_455 1_655
O1 O3 O2 80.1(2) 2_565 1_655
O1 O3 O2 88.8(2) 1_544 1_655
O2 O3 O2 99.8(4) 3_455 1_655
Ga3 O3 Ga2 168.7(4) 4_445 2_565
Nb O3 Ga2 77.3(3) . 2_565
Ga1 O3 Ga2 77.3(3) . 2_565
La O3 Ga2 30.32(16) . 2_565
Ga3 O3 Ga2 92.0(3) 2_564 2_565
O3 O3 Ga2 30.9(2) 6 2_565
O3 O3 Ga2 124.2(2) 3 2_565
O3 O3 Ga2 85.3(4) 4 2_565
O2 O3 Ga2 56.3(4) 2_565 2_565
O3 O3 Ga2 118.9(5) 6_554 2_565
O2 O3 Ga2 136.2(5) 5_445 2_565
O2 O3 Ga2 133.4(3) 4_444 2_565
O1 O3 Ga2 81.0(3) 2_455 2_565
O3 O3 Ga2 83.5(4) 2 2_565
O2 O3 Ga2 61.9(3) 4_445 2_565
O3 O3 Ga2 166.5(3) 2_554 2_565
Ga2 O3 Ga2 103.17(19) . 2_565
Ga3 O3 Ga2 128.3(2) 1_655 2_565
La O3 Ga2 98.5(3) 4_445 2_565
O2 O3 Ga2 55.2(3) 6 2_565
O3 O3 Ga2 70.8(3) 5 2_565
Ga3 O3 Ga2 62.27(16) 4_446 2_565
Ga2 O3 Ga2 62.95(13) 2_564 2_565
O3 O3 Ga2 125.2(2) 5_554 2_565
Ga1 O3 Ga2 140.0(3) 1_554 2_565
Nb O3 Ga2 140.0(3) 1_554 2_565
O2 O3 Ga2 93.5(2) 1_554 2_565
La O3 Ga2 117.2(3) 2 2_565
O1 O3 Ga2 16.9(2) . 2_565
Ga3 O3 Ga2 35.69(8) 2_565 2_565
La O3 Ga2 110.8(2) 1_554 2_565
O2 O3 Ga2 91.7(3) 3_564 2_565
O2 O3 Ga2 42.0(2) . 2_565
Ga2 O3 Ga2 144.3(4) 2_554 2_565
La O3 Ga2 40.54(8) 2_565 2_565
O2 O3 Ga2 41.7(3) 3_565 2_565
Ga2 O3 Ga2 53.75(12) 1_556 2_565
O2 O3 Ga2 109.2(3) 6_655 2_565
O1 O3 Ga2 83.7(2) 1_554 2_565
O1 O3 Ga2 106.3(3) 1_545 2_565
La O3 Ga2 76.04(14) 4 2_565
Ga3 O3 Ga2 71.92(11) . 2_565
Ga3 O3 Ga2 74.34(16) 1_656 2_565
O3 O3 Ga2 44.46(17) 1_556 2_565
O3 O3 Ga2 135.54(17) 1_554 2_565
O2 O3 Ga2 111.3(3) 3_454 2_565
O2 O3 Ga2 142.3(3) 1_654 2_565
La O3 Ga2 142.74(18) 4_444 2_565
O2 O3 Ga2 137.8(4) 2 2_565
O2 O3 Ga2 49.54(18) 5_455 2_565
O1 O3 Ga2 65.40(18) 2_565 2_565
O1 O3 Ga2 159.5(3) 1_544 2_565
O2 O3 Ga2 70.9(3) 3_455 2_565
O2 O3 Ga2 94.5(3) 1_655 2_565
Ga3 O3 O3 63.9(5) 4_445 4_445
Nb O3 O3 122.7(6) . 4_445
Ga1 O3 O3 122.7(6) . 4_445
La O3 O3 81.10(18) . 4_445
Ga3 O3 O3 147.5(3) 2_564 4_445
O3 O3 O3 110.3(6) 6 4_445
O3 O3 O3 103.1(7) 3 4_445
O3 O3 O3 163.1(7) 4 4_445
O2 O3 O3 135.3(4) 2_565 4_445
O3 O3 O3 108.9(4) 6_554 4_445
O2 O3 O3 42.6(5) 5_445 4_445
O2 O3 O3 50.9(5) 4_444 4_445
O1 O3 O3 30.60(7) 2_455 4_445
O3 O3 O3 86.39(15) 2 4_445
O2 O3 O3 56.1(2) 4_445 4_445
O3 O3 O3 86.56(17) 2_554 4_445
Ga2 O3 O3 38.16(15) . 4_445
Ga3 O3 O3 120.4(4) 1_655 4_445
La O3 O3 21.88(17) 4_445 4_445
O2 O3 O3 89.2(2) 6 4_445
O3 O3 O3 129.6(4) 5 4_445
Ga3 O3 O3 78.3(2) 4_446 4_445
Ga2 O3 O3 112.4(2) 2_564 4_445
O3 O3 O3 128.0(2) 5_554 4_445
Ga1 O3 O3 104.87(19) 1_554 4_445
Nb O3 O3 104.87(19) 1_554 4_445
O2 O3 O3 62.68(17) 1_554 4_445
La O3 O3 77.0(3) 2 4_445
O1 O3 O3 110.52(16) . 4_445
Ga3 O3 O3 119.79(18) 2_565 4_445
La O3 O3 85.14(11) 1_554 4_445
O2 O3 O3 146.9(3) 3_564 4_445
O2 O3 O3 64.5(2) . 4_445
Ga2 O3 O3 46.1(3) 2_554 4_445
La O3 O3 142.6(2) 2_565 4_445
O2 O3 O3 142.0(3) 3_565 4_445
Ga2 O3 O3 55.50(11) 1_556 4_445
O2 O3 O3 133.0(4) 6_655 4_445
O1 O3 O3 108.31(16) 1_554 4_445
O1 O3 O3 49.5(2) 1_545 4_445
La O3 O3 157.1(3) 4 4_445
Ga3 O3 O3 72.38(11) . 4_445
Ga3 O3 O3 111.4(3) 1_656 4_445
O3 O3 O3 90.000(2) 1_556 4_445
O3 O3 O3 90.000(1) 1_554 4_445
O2 O3 O3 32.45(17) 3_454 4_445
O2 O3 O3 105.7(3) 1_654 4_445
La O3 O3 48.3(2) 4_444 4_445
O2 O3 O3 59.8(3) 2 4_445
O2 O3 O3 119.2(3) 5_455 4_445
O1 O3 O3 170.8(3) 2_565 4_445
O1 O3 O3 53.5(3) 1_544 4_445
O2 O3 O3 36.2(2) 3_455 4_445
O2 O3 O3 105.0(3) 1_655 4_445
Ga2 O3 O3 106.26(11) 2_565 4_445
Ga3 O3 O3 103.7(3) 4_445 3_455
Nb O3 O3 140.2(3) . 3_455
Ga1 O3 O3 140.2(3) . 3_455
La O3 O3 35.8(3) . 3_455
Ga3 O3 O3 106.9(4) 2_564 3_455
O3 O3 O3 92.13(4) 6 3_455
O3 O3 O3 163.1(7) 3 3_455
O3 O3 O3 136.9(7) 4 3_455
O2 O3 O3 75.9(4) 2_565 3_455
O3 O3 O3 91.98(5) 6_554 3_455
O2 O3 O3 102.0(5) 5_445 3_455
O2 O3 O3 68.2(3) 4_444 3_455
O1 O3 O3 30.61(7) 2_455 3_455
O3 O3 O3 121.7(2) 2 3_455
O2 O3 O3 70.9(2) 4_445 3_455
O3 O3 O3 120.0(3) 2_554 3_455
Ga2 O3 O3 38.16(15) . 3_455
Ga3 O3 O3 158.5(3) 1_655 3_455
La O3 O3 72.30(13) 4_445 3_455
O2 O3 O3 29.62(19) 6 3_455
O3 O3 O3 135.5(3) 5 3_455
Ga3 O3 O3 96.24(13) 4_446 3_455
Ga2 O3 O3 55.47(19) 2_564 3_455
O3 O3 O3 133.6(3) 5_554 3_455
Ga1 O3 O3 111.44(16) 1_554 3_455
Nb O3 O3 111.44(16) 1_554 3_455
O2 O3 O3 32.9(2) 1_554 3_455
La O3 O3 134.0(3) 2 3_455
O1 O3 O3 58.6(2) . 3_455
Ga3 O3 O3 99.88(18) 2_565 3_455
La O3 O3 63.63(13) 1_554 3_455
O2 O3 O3 105.9(4) 3_564 3_455
O2 O3 O3 38.1(3) . 3_455
Ga2 O3 O3 103.5(2) 2_554 3_455
La O3 O3 85.5(3) 2_565 3_455
O2 O3 O3 104.9(3) 3_565 3_455
Ga2 O3 O3 55.50(11) 1_556 3_455
O2 O3 O3 166.2(4) 6_655 3_455
O1 O3 O3 62.15(17) 1_554 3_455
O1 O3 O3 102.7(2) 1_545 3_455
La O3 O3 136.1(3) 4 3_455
Ga3 O3 O3 19.41(14) . 3_455
Ga3 O3 O3 132.05(13) 1_656 3_455
O3 O3 O3 90.0 1_556 3_455
O3 O3 O3 90.0 1_554 3_455
O2 O3 O3 47.2(3) 3_454 3_455
O2 O3 O3 150.8(3) 1_654 3_455
La O3 O3 77.43(13) 4_444 3_455
O2 O3 O3 119.7(3) 2 3_455
O2 O3 O3 59.3(3) 5_455 3_455
O1 O3 O3 111.6(3) 2_565 3_455
O1 O3 O3 101.57(18) 1_544 3_455
O2 O3 O3 49.50(15) 3_455 3_455
O2 O3 O3 146.5(2) 1_655 3_455
Ga2 O3 O3 65.41(19) 2_565 3_455
O3 O3 O3 60.0 4_445 3_455
Ga3 O3 O2 166.8(7) 4_445 2_566
Nb O3 O2 58.6(3) . 2_566
Ga1 O3 O2 58.6(3) . 2_566
La O3 O2 47.0(2) . 2_566
Ga3 O3 O2 94.7(3) 2_564 2_566
O3 O3 O2 12.0(3) 6 2_566
O3 O3 O2 105.2(2) 3 2_566
O3 O3 O2 75.8(3) 4 2_566
O2 O3 O2 66.5(3) 2_565 2_566
O3 O3 O2 129.4(6) 6_554 2_566
O2 O3 O2 127.7(6) 5_445 2_566
O2 O3 O2 150.8(4) 4_444 2_566
O1 O3 O2 92.4(4) 2_455 2_566
O3 O3 O2 66.1(4) 2 2_566
O2 O3 O2 58.0(4) 4_445 2_566
O3 O3 O2 156.6(3) 2_554 2_566
Ga2 O3 O2 119.1(3) . 2_566
Ga3 O3 O2 113.9(3) 1_655 2_566
La O3 O2 97.2(3) 4_445 2_566
O2 O3 O2 74.3(3) 6 2_566
O3 O3 O2 52.7(4) 5 2_566
Ga3 O3 O2 48.9(2) 4_446 2_566
Ga2 O3 O2 78.9(2) 2_564 2_566
O3 O3 O2 119.6(3) 5_554 2_566
Ga1 O3 O2 143.3(3) 1_554 2_566
Nb O3 O2 143.3(3) 1_554 2_566
O2 O3 O2 112.5(3) 1_554 2_566
La O3 O2 99.6(3) 2 2_566
O1 O3 O2 34.3(3) . 2_566
Ga3 O3 O2 17.10(11) 2_565 2_566
La O3 O2 128.7(3) 1_554 2_566
O2 O3 O2 94.7(5) 3_564 2_566
O2 O3 O2 52.6(2) . 2_566
Ga2 O3 O2 135.8(4) 2_554 2_566
La O3 O2 44.9(2) 2_565 2_566
O2 O3 O2 31.2(4) 3_565 2_566
Ga2 O3 O2 55.9(2) 1_556 2_566
O2 O3 O2 94.1(2) 6_655 2_566
O1 O3 O2 99.3(3) 1_554 2_566
O1 O3 O2 95.3(4) 1_545 2_566
La O3 O2 63.8(2) 4 2_566
Ga3 O3 O2 90.99(18) . 2_566
Ga3 O3 O2 55.15(17) 1_656 2_566
O3 O3 O2 30.6(3) 1_556 2_566
O3 O3 O2 149.4(2) 1_554 2_566
O2 O3 O2 125.9(3) 3_454 2_566
O2 O3 O2 126.1(4) 1_654 2_566
La O3 O2 157.3(3) 4_444 2_566
O2 O3 O2 123.1(4) 2 2_566
O2 O3 O2 64.48(14) 5_455 2_566
O1 O3 O2 62.1(3) 2_565 2_566
O1 O3 O2 154.8(4) 1_544 2_566
O2 O3 O2 75.4(2) 3_455 2_566
O2 O3 O2 75.3(3) 1_655 2_566
Ga2 O3 O2 19.19(12) 2_565 2_566
O3 O3 O2 111.4(2) 4_445 2_566
O3 O3 O2 82.8(2) 3_455 2_566
Ga3 O3 O2 106.2(6) 4_445 5_446
Nb O3 O2 58.6(5) . 5_446
Ga1 O3 O2 58.6(5) . 5_446
La O3 O2 78.1(4) . 5_446
Ga3 O3 O2 144.5(4) 2_564 5_446
O3 O3 O2 52.4(6) 6 5_446
O3 O3 O2 75.7(3) 3 5_446
O3 O3 O2 105.2(3) 4 5_446
O2 O3 O2 127.8(5) 2_565 5_446
O3 O3 O2 167.6(4) 6_554 5_446
O2 O3 O2 66.5(4) 5_445 5_446
O2 O3 O2 116.6(7) 4_444 5_446
O1 O3 O2 75.5(4) 2_455 5_446
O3 O3 O2 25.8(2) 2 5_446
O2 O3 O2 25.3(4) 4_445 5_446
O3 O3 O2 116.5(5) 2_554 5_446
Ga2 O3 O2 102.6(4) . 5_446
Ga3 O3 O2 103.7(3) 1_655 5_446
La O3 O2 46.2(3) 4_445 5_446
O2 O3 O2 114.4(4) 6 5_446
O3 O3 O2 63.3(4) 5 5_446
Ga3 O3 O2 12.67(16) 4_446 5_446
Ga2 O3 O2 134.5(3) 2_564 5_446
O3 O3 O2 130.1(3) 5_554 5_446
Ga1 O3 O2 143.2(3) 1_554 5_446
Nb O3 O2 143.2(3) 1_554 5_446
O2 O3 O2 122.2(4) 1_554 5_446
La O3 O2 49.5(2) 2 5_446
O1 O3 O2 89.7(3) . 5_446
Ga3 O3 O2 58.3(2) 2_565 5_446
La O3 O2 152.3(3) 1_554 5_446
O2 O3 O2 145.2(3) 3_564 5_446
O2 O3 O2 62.2(3) . 5_446
Ga2 O3 O2 74.6(3) 2_554 5_446
La O3 O2 105.4(3) 2_565 5_446
O2 O3 O2 80.8(3) 3_565 5_446
Ga2 O3 O2 41.1(2) 1_556 5_446
O2 O3 O2 94.1(3) 6_655 5_446
O1 O3 O2 153.7(3) 1_554 5_446
O1 O3 O2 34.1(3) 1_545 5_446
La O3 O2 91.9(3) 4 5_446
Ga3 O3 O2 115.4(3) . 5_446
Ga3 O3 O2 46.1(2) 1_656 5_446
O3 O3 O2 30.63(16) 1_556 5_446
O3 O3 O2 149.37(16) 1_554 5_446
O2 O3 O2 99.6(4) 3_454 5_446
O2 O3 O2 101.4(3) 1_654 5_446
La O3 O2 109.7(3) 4_444 5_446
O2 O3 O2 64.7(2) 2 5_446
O2 O3 O2 122.5(3) 5_455 5_446
O1 O3 O2 111.5(3) 2_565 5_446
O1 O3 O2 93.6(3) 1_544 5_446
O2 O3 O2 49.2(2) 3_455 5_446
O2 O3 O2 51.1(3) 1_655 5_446
Ga2 O3 O2 73.2(2) 2_565 5_446
O3 O3 O2 67.8(2) 4_445 5_446
O3 O3 O2 96.1(2) 3_455 5_446
O2 O3 O2 61.2(3) 2_566 5_446
Ga3 O3 O2 46.5(5) 4_445 6_545
Nb O3 O2 102.8(5) . 6_545
Ga1 O3 O2 102.8(5) . 6_545
La O3 O2 108.5(4) . 6_545
Ga3 O3 O2 140.6(4) 2_564 6_545
O3 O3 O2 116.0(8) 6 6_545
O3 O3 O2 73.4(5) 3 6_545
O3 O3 O2 133.3(5) 4 6_545
O2 O3 O2 161.9(4) 2_565 6_545
O3 O3 O2 107.0(5) 6_554 6_545
O2 O3 O2 12.8(5) 5_445 6_545
O2 O3 O2 55.6(5) 4_444 6_545
O1 O3 O2 60.5(2) 2_455 6_545
O3 O3 O2 71.1(2) 2 6_545
O2 O3 O2 66.3(3) 4_445 6_545
O3 O3 O2 66.1(2) 2_554 6_545
Ga2 O3 O2 61.1(2) . 6_545
Ga3 O3 O2 91.6(3) 1_655 6_545
La O3 O2 29.0(2) 4_445 6_545
O2 O3 O2 118.4(3) 6 6_545
O3 O3 O2 111.5(2) 5 6_545
Ga3 O3 O2 76.5(3) 4_446 6_545
Ga2 O3 O2 138.1(2) 2_564 6_545
O3 O3 O2 105.9(3) 5_554 6_545
Ga1 O3 O2 91.6(2) 1_554 6_545
Nb O3 O2 91.6(2) 1_554 6_545
O2 O3 O2 85.2(3) 1_554 6_545
La O3 O2 50.39(17) 2 6_545
O1 O3 O2 137.1(3) . 6_545
Ga3 O3 O2 122.0(4) 2_565 6_545
La O3 O2 95.7(2) 1_554 6_545
O2 O3 O2 140.9(3) 3_564 6_545
O2 O3 O2 89.6(4) . 6_545
Ga2 O3 O2 18.2(2) 2_554 6_545
La O3 O2 167.7(4) 2_565 6_545
O2 O3 O2 143.1(4) 3_565 6_545
Ga2 O3 O2 73.7(3) 1_556 6_545
O2 O3 O2 103.1(3) 6_655 6_545
O1 O3 O2 126.1(3) 1_554 6_545
O1 O3 O2 32.1(2) 1_545 6_545
La O3 O2 131.7(2) 4 6_545
Ga3 O3 O2 99.95(19) . 6_545
Ga3 O3 O2 94.9(3) 1_656 6_545
O3 O3 O2 93.7(2) 1_556 6_545
O3 O3 O2 86.3(2) 1_554 6_545
O2 O3 O2 52.2(3) 3_454 6_545
O2 O3 O2 77.6(2) 1_654 6_545
La O3 O2 46.48(17) 4_444 6_545
O2 O3 O2 29.93(15) 2 6_545
O2 O3 O2 148.1(2) 5_455 6_545
O1 O3 O2 158.7(2) 2_565 6_545
O1 O3 O2 33.3(3) 1_544 6_545
O2 O3 O2 58.3(4) 3_455 6_545
O2 O3 O2 81.7(2) 1_655 6_545
Ga2 O3 O2 127.3(3) 2_565 6_545
O3 O3 O2 29.9(3) 4_445 6_545
O3 O3 O2 89.7(2) 3_455 6_545
O2 O3 O2 123.2(5) 2_566 6_545
O2 O3 O2 63.8(2) 5_446 6_545
Ga3 O3 Ga2 107.7(6) 4_445 1_665
Nb O3 Ga2 74.1(4) . 1_665
Ga1 O3 Ga2 74.1(4) . 1_665
La O3 Ga2 99.2(3) . 1_665
Ga3 O3 Ga2 16.02(14) 2_564 1_665
O3 O3 Ga2 83.5(6) 6 1_665
O3 O3 Ga2 85.4(4) 3 1_665
O3 O3 Ga2 29.2(3) 4 1_665
O2 O3 Ga2 36.0(3) 2_565 1_665
O3 O3 Ga2 55.0(4) 6_554 1_665
O2 O3 Ga2 139.8(4) 5_445 1_665
O2 O3 Ga2 113.1(6) 4_444 1_665
O1 O3 Ga2 141.3(3) 2_455 1_665
O3 O3 Ga2 110.47(14) 2 1_665
O2 O3 Ga2 137.7(3) 4_445 1_665
O3 O3 Ga2 86.4(2) 2_554 1_665
Ga2 O3 Ga2 125.3(4) . 1_665
Ga3 O3 Ga2 62.1(2) 1_655 1_665
La O3 Ga2 175.3(3) 4_445 1_665
O2 O3 Ga2 81.3(3) 6 1_665
O3 O3 Ga2 67.5(2) 5 1_665
Ga3 O3 Ga2 118.3(2) 4_446 1_665
Ga2 O3 Ga2 55.57(18) 2_564 1_665
O3 O3 Ga2 45.86(11) 5_554 1_665
Ga1 O3 Ga2 63.4(2) 1_554 1_665
Nb O3 Ga2 63.4(2) 1_554 1_665
O2 O3 Ga2 101.4(3) 1_554 1_665
La O3 Ga2 114.85(18) 2 1_665
O1 O3 Ga2 71.2(2) . 1_665
Ga3 O3 Ga2 74.81(16) 2_565 1_665
La O3 Ga2 77.6(3) 1_554 1_665
O2 O3 Ga2 16.44(19) 3_564 1_665
O2 O3 Ga2 118.6(3) . 1_665
Ga2 O3 Ga2 133.6(2) 2_554 1_665
La O3 Ga2 39.77(11) 2_565 1_665
O2 O3 Ga2 51.7(2) 3_565 1_665
Ga2 O3 Ga2 133.8(2) 1_556 1_665
O2 O3 Ga2 55.4(2) 6_655 1_665
O1 O3 Ga2 55.76(17) 1_554 1_665
O1 O3 Ga2 145.2(2) 1_545 1_665
La O3 Ga2 39.37(10) 4 1_665
Ga3 O3 Ga2 95.2(2) . 1_665
Ga3 O3 Ga2 85.68(14) 1_656 1_665
O3 O3 Ga2 105.11(15) 1_556 1_665
O3 O3 Ga2 74.89(15) 1_554 1_665
O2 O3 Ga2 130.4(4) 3_454 1_665
O2 O3 Ga2 75.2(2) 1_654 1_665
La O3 Ga2 117.5(3) 4_444 1_665
O2 O3 Ga2 125.8(2) 2 1_665
O2 O3 Ga2 52.8(2) 5_455 1_665
O1 O3 Ga2 18.84(18) 2_565 1_665
O1 O3 Ga2 120.2(3) 1_544 1_665
O2 O3 Ga2 149.9(3) 3_455 1_665
O2 O3 Ga2 90.16(19) 1_655 1_665
Ga2 O3 Ga2 80.11(15) 2_565 1_665
O3 O3 Ga2 162.8(2) 4_445 1_665
O3 O3 Ga2 110.8(3) 3_455 1_665
O2 O3 Ga2 80.0(2) 2_566 1_665
O2 O3 Ga2 129.3(3) 5_446 1_665
O2 O3 Ga2 151.7(3) 6_545 1_665
Ga3 O3 La 97.9(4) 4_445 2_455
Nb O3 La 128.9(6) . 2_455
Ga1 O3 La 128.9(6) . 2_455
La O3 La 42.26(19) . 2_455
Ga3 O3 La 132.0(4) 2_564 2_455
O3 O3 La 88.3(4) 6 2_455
O3 O3 La 139.6(6) 3 2_455
O3 O3 La 155.4(5) 4 2_455
O2 O3 La 99.0(3) 2_565 2_455
O3 O3 La 111.3(2) 6_554 2_455
O2 O3 La 82.1(4) 5_445 2_455
O2 O3 La 69.2(3) 4_444 2_455
O1 O3 La 10.1(2) 2_455 2_455
O3 O3 La 100.0(3) 2 2_455
O2 O3 La 50.0(2) 4_445 2_455
O3 O3 La 119.6(2) 2_554 2_455
Ga2 O3 La 38.19(13) . 2_455
Ga3 O3 La 159.9(3) 1_655 2_455
La O3 La 47.82(11) 4_445 2_455
O2 O3 La 53.77(17) 6 2_455
O3 O3 La 128.9(5) 5 2_455
Ga3 O3 La 77.5(2) 4_446 2_455
Ga2 O3 La 80.25(14) 2_564 2_455
O3 O3 La 151.7(5) 5_554 2_455
Ga1 O3 La 124.3(2) 1_554 2_455
Nb O3 La 124.3(2) 1_554 2_455
O2 O3 La 48.74(17) 1_554 2_455
La O3 La 109.1(3) 2 2_455
O1 O3 La 71.34(13) . 2_455
Ga3 O3 La 98.1(2) 2_565 2_455
La O3 La 81.21(15) 1_554 2_455
O2 O3 La 130.9(3) 3_564 2_455
O2 O3 La 30.4(3) . 2_455
Ga2 O3 La 85.90(18) 2_554 2_455
La O3 La 102.84(15) 2_565 2_455
O2 O3 La 112.4(3) 3_565 2_455
Ga2 O3 La 37.19(8) 1_556 2_455
O2 O3 La 168.0(4) 6_655 2_455
O1 O3 La 86.63(15) 1_554 2_455
O1 O3 La 77.7(2) 1_545 2_455
La O3 La 146.6(2) 4 2_455
Ga3 O3 La 43.54(7) . 2_455
Ga3 O3 La 117.2(3) 1_656 2_455
O3 O3 La 77.43(15) 1_556 2_455
O3 O3 La 102.57(15) 1_554 2_455
O2 O3 La 43.1(3) 3_454 2_455
O2 O3 La 145.0(3) 1_654 2_455
La O3 La 74.31(12) 4_444 2_455
O2 O3 La 98.5(3) 2 2_455
O2 O3 La 82.1(2) 5_455 2_455
O1 O3 La 130.99(19) 2_565 2_455
O1 O3 La 90.70(16) 1_544 2_455
O2 O3 La 25.40(13) 3_455 2_455
O2 O3 La 125.2(3) 1_655 2_455
Ga2 O3 La 70.88(12) 2_565 2_455
O3 O3 La 39.85(11) 4_445 2_455
O3 O3 La 25.07(8) 3_455 2_455
O2 O3 La 83.03(19) 2_566 2_455
O2 O3 La 74.3(3) 5_446 2_455
O2 O3 La 69.3(2) 6_545 2_455
Ga2 O3 La 134.8(2) 1_665 2_455
Ga3 O3 La 18.8(2) 4_445 2_554
Nb O3 La 96.1(3) . 2_554
Ga1 O3 La 96.1(3) . 2_554
La O3 La 157.1(3) . 2_554
Ga3 O3 La 84.0(3) 2_564 2_554
O3 O3 La 143.6(3) 6 2_554
O3 O3 La 49.5(3) 3 2_554
O3 O3 La 87.6(3) 4 2_554
O2 O3 La 121.7(5) 2_565 2_554
O3 O3 La 61.1(3) 6_554 2_554
O2 O3 La 47.1(3) 5_445 2_554
O2 O3 La 53.6(2) 4_444 2_554
O1 O3 La 106.3(3) 2_455 2_554
O3 O3 La 93.3(3) 2 2_554
O2 O3 La 120.9(4) 4_445 2_554
O3 O3 La 10.2(3) 2_554 2_554
Ga2 O3 La 84.2(2) . 2_554
Ga3 O3 La 44.30(11) 1_655 2_554
La O3 La 86.18(18) 4_445 2_554
O2 O3 La 129.7(4) 6 2_554
O3 O3 La 102.3(3) 5 2_554
Ga3 O3 La 116.5(3) 4_446 2_554
Ga2 O3 La 118.5(3) 2_564 2_554
O3 O3 La 49.1(2) 5_554 2_554
Ga1 O3 La 38.17(8) 1_554 2_554
Nb O3 La 38.17(8) 1_554 2_554
O2 O3 La 92.8(3) 1_554 2_554
La O3 La 59.93(11) 2 2_554
O1 O3 La 163.3(5) . 2_554
Ga3 O3 La 137.7(2) 2_565 2_554
La O3 La 73.03(18) 1_554 2_554
O2 O3 La 84.5(4) 3_564 2_554
O2 O3 La 144.7(3) . 2_554
Ga2 O3 La 39.46(8) 2_554 2_554
La O3 La 134.6(3) 2_565 2_554
O2 O3 La 130.9(3) 3_565 2_554
Ga2 O3 La 130.8(3) 1_556 2_554
O2 O3 La 63.4(2) 6_655 2_554
O1 O3 La 98.0(3) 1_554 2_554
O1 O3 La 74.8(2) 1_545 2_554
La O3 La 96.56(16) 4 2_554
Ga3 O3 La 114.2(2) . 2_554
Ga3 O3 La 99.99(16) 1_656 2_554
O3 O3 La 133.36(16) 1_556 2_554
O3 O3 La 46.64(16) 1_554 2_554
O2 O3 La 76.1(3) 3_454 2_554
O2 O3 La 30.3(2) 1_654 2_554
La O3 La 44.62(8) 4_444 2_554
O2 O3 La 42.3(2) 2 2_554
O2 O3 La 130.8(3) 5_455 2_554
O1 O3 La 108.4(2) 2_565 2_554
O1 O3 La 26.69(9) 1_544 2_554
O2 O3 La 114.8(3) 3_455 2_554
O2 O3 La 79.99(19) 1_655 2_554
Ga2 O3 La 172.55(19) 2_565 2_554
O3 O3 La 80.2(3) 4_445 2_554
O3 O3 La 121.79(14) 3_455 2_554
O2 O3 La 154.7(2) 2_566 2_554
O2 O3 La 106.5(2) 5_446 2_554
O2 O3 La 57.2(2) 6_545 2_554
Ga2 O3 La 94.8(2) 1_665 2_554
La O3 La 116.39(17) 2_455 2_554
Ga3 O3 O1 47.9(3) 4_445 2_454
Nb O3 O1 158.3(4) . 2_454
Ga1 O3 O1 158.3(4) . 2_454
La O3 O1 96.6(3) . 2_454
Ga3 O3 O1 86.1(4) 2_564 2_454
O3 O3 O1 153.25(12) 6 2_454
O3 O3 O1 112.2(3) 3 2_454
O3 O3 O1 122.6(2) 4 2_454
O2 O3 O1 92.6(4) 2_565 2_454
O3 O3 O1 48.3(3) 6_554 2_454
O2 O3 O1 74.2(5) 5_445 2_454
O2 O3 O1 15.4(4) 4_444 2_454
O1 O3 O1 62.8(3) 2_455 2_454
O3 O3 O1 141.6(3) 2 2_454
O2 O3 O1 114.1(3) 4_445 2_454
O3 O3 O1 58.9(4) 2_554 2_454
Ga2 O3 O1 31.65(19) . 2_454
Ga3 O3 O1 99.0(3) 1_655 2_454
La O3 O1 82.90(19) 4_445 2_454
O2 O3 O1 69.0(3) 6 2_454
O3 O3 O1 161.6(5) 5 2_454
Ga3 O3 O1 139.5(3) 4_446 2_454
Ga2 O3 O1 72.0(2) 2_564 2_454
O3 O3 O1 82.7(4) 5_554 2_454
Ga1 O3 O1 54.99(17) 1_554 2_454
Nb O3 O1 54.99(17) 1_554 2_454
O2 O3 O1 30.1(2) 1_554 2_454
La O3 O1 112.81(19) 2 2_454
O1 O3 O1 110.2(3) . 2_454
Ga3 O3 O1 158.9(2) 2_565 2_454
La O3 O1 25.37(8) 1_554 2_454
O2 O3 O1 85.5(3) 3_564 2_454
O2 O3 O1 97.1(3) . 2_454
Ga2 O3 O1 68.60(14) 2_554 2_454
La O3 O1 116.4(3) 2_565 2_454
O2 O3 O1 146.0(4) 3_565 2_454
Ga2 O3 O1 105.59(19) 1_556 2_454
O2 O3 O1 117.8(3) 6_655 2_454
O1 O3 O1 55.70(18) 1_554 2_454
O1 O3 O1 102.6(3) 1_545 2_454
La O3 O1 136.9(3) 4 2_454
Ga3 O3 O1 51.54(13) . 2_454
Ga3 O3 O1 161.5(2) 1_656 2_454
O3 O3 O1 146.43(15) 1_556 2_454
O3 O3 O1 33.57(16) 1_554 2_454
O2 O3 O1 30.9(2) 3_454 2_454
O2 O3 O1 89.5(3) 1_654 2_454
La O3 O1 26.57(6) 4_444 2_454
O2 O3 O1 86.71(19) 2 2_454
O2 O3 O1 86.5(3) 5_455 2_454
O1 O3 O1 119.1(4) 2_565 2_454
O1 O3 O1 53.57(15) 1_544 2_454
O2 O3 O1 88.1(2) 3_455 2_454
O2 O3 O1 141.5(2) 1_655 2_454
Ga2 O3 O1 123.45(19) 2_565 2_454
O3 O3 O1 61.39(13) 4_445 2_454
O3 O3 O1 61.39(13) 3_455 2_454
O2 O3 O1 142.5(2) 2_566 2_454
O2 O3 O1 129.1(3) 5_446 2_454
O2 O3 O1 70.64(17) 6_545 2_454
Ga2 O3 O1 101.6(3) 1_665 2_454
La O3 O1 69.34(15) 2_455 2_454
La O3 O1 62.72(14) 2_554 2_454
Ga3 O3 O3 116.6(6) 4_445 3_556
Nb O3 O3 30.3(3) . 3_556
Ga1 O3 O3 30.3(3) . 3_556
La O3 O3 87.5(4) . 3_556
Ga3 O3 O3 115.7(3) 2_564 3_556
O3 O3 O3 38.7(4) 6 3_556
O3 O3 O3 61.93(13) 3 3_556
O3 O3 O3 76.39(6) 4 3_556
O2 O3 O3 110.5(4) 2_565 3_556
O3 O3 O3 149.0(4) 6_554 3_556
O2 O3 O3 83.3(6) 5_445 3_556
O2 O3 O3 141.2(7) 4_444 3_556
O1 O3 O3 102.8(5) 2_455 3_556
O3 O3 O3 16.0(3) 2 3_556
O2 O3 O3 49.8(3) 4_445 3_556
O3 O3 O3 114.9(6) 2_554 3_556
Ga2 O3 O3 131.5(5) . 3_556
Ga3 O3 O3 84.7(3) 1_655 3_556
La O3 O3 74.3(4) 4_445 3_556
O2 O3 O3 122.5(3) 6 3_556
O3 O3 O3 34.4(3) 5 3_556
Ga3 O3 O3 22.08(12) 4_446 3_556
Ga2 O3 O3 128.6(2) 2_564 3_556
O3 O3 O3 108.0(4) 5_554 3_556
Ga1 O3 O3 131.7(2) 1_554 3_556
Nb O3 O3 131.7(2) 1_554 3_556
O2 O3 O3 148.1(4) 1_554 3_556
La O3 O3 49.1(2) 2 3_556
O1 O3 O3 84.7(3) . 3_556
Ga3 O3 O3 39.27(8) 2_565 3_556
La O3 O3 178.7(4) 1_554 3_556
O2 O3 O3 116.5(3) 3_564 3_556
O2 O3 O3 78.8(4) . 3_556
Ga2 O3 O3 89.9(3) 2_554 3_556
La O3 O3 86.47(16) 2_565 3_556
O2 O3 O3 57.57(17) 3_565 3_556
Ga2 O3 O3 62.8(2) 1_556 3_556
O2 O3 O3 70.0(3) 6_655 3_556
O1 O3 O3 147.3(3) 1_554 3_556
O1 O3 O3 53.5(3) 1_545 3_556
La O3 O3 62.98(16) 4 3_556
Ga3 O3 O3 133.5(3) . 3_556
Ga3 O3 O3 17.92(11) 1_656 3_556
O3 O3 O3 28.07(13) 1_556 3_556
O3 O3 O3 151.93(13) 1_554 3_556
O2 O3 O3 128.4(4) 3_454 3_556
O2 O3 O3 88.6(3) 1_654 3_556
La O3 O3 131.2(4) 4_444 3_556
O2 O3 O3 73.5(3) 2 3_556
O2 O3 O3 113.9(3) 5_455 3_556
O1 O3 O3 84.5(2) 2_565 3_556
O1 O3 O3 107.2(4) 1_544 3_556
O2 O3 O3 76.1(3) 3_455 3_556
O2 O3 O3 30.7(2) 1_655 3_556
Ga2 O3 O3 68.57(12) 2_565 3_556
O3 O3 O3 96.1(3) 4_445 3_556
O3 O3 O3 116.77(17) 3_455 3_556
O2 O3 O3 50.53(16) 2_566 3_556
O2 O3 O3 28.9(2) 5_446 3_556
O2 O3 O3 85.5(3) 6_545 3_556
Ga2 O3 O3 101.1(2) 1_665 3_556
La O3 O3 99.6(3) 2_455 3_556
La O3 O3 107.5(3) 2_554 3_556
O1 O3 O3 155.9(4) 2_454 3_556
Ga3 O3 O3 140.2(6) 4_445 4_556
Nb O3 O3 30.3(3) . 4_556
Ga1 O3 O3 30.3(3) . 4_556
La O3 O3 74.8(3) . 4_556
Ga3 O3 O3 95.5(3) 2_564 4_556
O3 O3 O3 18.10(17) 6 4_556
O3 O3 O3 76.39(6) 3 4_556
O3 O3 O3 61.93(13) 4 4_556
O2 O3 O3 83.3(4) 2_565 4_556
O3 O3 O3 134.4(5) 6_554 4_556
O2 O3 O3 110.5(6) 5_445 4_556
O2 O3 O3 167.2(7) 4_444 4_556
O1 O3 O3 111.0(4) 2_455 4_556
O3 O3 O3 42.9(3) 2 4_556
O2 O3 O3 61.8(2) 4_445 4_556
O3 O3 O3 129.7(6) 2_554 4_556
Ga2 O3 O3 141.8(3) . 4_556
Ga3 O3 O3 89.2(3) 1_655 4_556
La O3 O3 96.1(3) 4_445 4_556
O2 O3 O3 102.8(4) 6 4_556
O3 O3 O3 26.2(4) 5 4_556
Ga3 O3 O3 38.80(6) 4_446 4_556
Ga2 O3 O3 102.2(3) 2_564 4_556
O3 O3 O3 103.8(4) 5_554 4_556
Ga1 O3 O3 131.7(2) 1_554 4_556
Nb O3 O3 131.7(2) 1_554 4_556
O2 O3 O3 141.3(3) 1_554 4_556
La O3 O3 73.9(3) 2 4_556
O1 O3 O3 61.9(2) . 4_556
Ga3 O3 O3 13.25(11) 2_565 4_556
La O3 O3 151.6(4) 1_554 4_556
O2 O3 O3 96.0(3) 3_564 4_556
O2 O3 O3 75.0(3) . 4_556
Ga2 O3 O3 116.9(4) 2_554 4_556
La O3 O3 59.3(2) 2_565 4_556
O2 O3 O3 30.9(2) 3_565 4_556
Ga2 O3 O3 68.42(12) 1_556 4_556
O2 O3 O3 70.0(3) 6_655 4_556
O1 O3 O3 120.1(3) 1_554 4_556
O1 O3 O3 80.2(3) 1_545 4_556
La O3 O3 47.6(2) 4 4_556
Ga3 O3 O3 119.9(2) . 4_556
Ga3 O3 O3 26.43(16) 1_656 4_556
O3 O3 O3 28.07(13) 1_556 4_556
O3 O3 O3 151.93(13) 1_554 4_556
O2 O3 O3 144.6(3) 3_454 4_556
O2 O3 O3 99.0(4) 1_654 4_556
La O3 O3 158.5(4) 4_444 4_556
O2 O3 O3 99.6(3) 2 4_556
O2 O3 O3 87.5(3) 5_455 4_556
O1 O3 O3 61.2(3) 2_565 4_556
O1 O3 O3 133.2(4) 1_544 4_556
O2 O3 O3 86.8(2) 3_455 4_556
O2 O3 O3 46.6(3) 1_655 4_556
Ga2 O3 O3 48.08(15) 2_565 4_556
O3 O3 O3 116.77(17) 4_445 4_556
O3 O3 O3 110.1(2) 3_455 4_556
O2 O3 O3 28.93(17) 2_566 4_556
O2 O3 O3 50.52(18) 5_446 4_556
O2 O3 O3 112.3(3) 6_545 4_556
Ga2 O3 O3 79.6(2) 1_665 4_556
La O3 O3 103.65(17) 2_455 4_556
La O3 O3 125.9(3) 2_554 4_556
O1 O3 O3 171.3(3) 2_454 4_556
O3 O3 O3 27.22(12) 3_556 4_556
Ga3 O3 O3 33.3(3) 4_445 3_554
Nb O3 O3 102.7(5) . 3_554
Ga1 O3 O3 102.7(5) . 3_554
La O3 O3 148.5(4) . 3_554
Ga3 O3 O3 61.6(3) 2_564 3_554
O3 O3 O3 148.3(5) 6 3_554
O3 O3 O3 61.93(13) 3 3_554
O3 O3 O3 76.39(6) 4 3_554
O2 O3 O3 97.5(5) 2_565 3_554
O3 O3 O3 37.6(3) 6_554 3_554
O2 O3 O3 70.4(4) 5_445 3_554
O2 O3 O3 54.2(3) 4_444 3_554
O1 O3 O3 114.7(4) 2_455 3_554
O3 O3 O3 112.6(4) 2 3_554
O2 O3 O3 144.7(4) 4_445 3_554
O3 O3 O3 14.1(3) 2_554 3_554
Ga2 O3 O3 85.5(2) . 3_554
Ga3 O3 O3 42.9(3) 1_655 3_554
La O3 O3 107.5(3) 4_445 3_554
O2 O3 O3 112.2(4) 6 3_554
O3 O3 O3 105.8(5) 5 3_554
Ga3 O3 O3 138.4(3) 4_446 3_554
Ga2 O3 O3 95.5(3) 2_564 3_554
O3 O3 O3 32.4(4) 5_554 3_554
Ga1 O3 O3 13.88(6) 1_554 3_554
Nb O3 O3 13.88(6) 1_554 3_554
O2 O3 O3 84.0(2) 1_554 3_554
La O3 O3 81.3(2) 2 3_554
O1 O3 O3 139.0(4) . 3_554
Ga3 O3 O3 138.5(3) 2_565 3_554
La O3 O3 56.20(10) 1_554 3_554
O2 O3 O3 61.9(4) 3_564 3_554
O2 O3 O3 153.1(4) . 3_554
Ga2 O3 O3 62.35(19) 2_554 3_554
La O3 O3 113.3(3) 2_565 3_554
O2 O3 O3 120.8(4) 3_565 3_554
Ga2 O3 O3 151.4(3) 1_556 3_554
O2 O3 O3 61.9(3) 6_655 3_554
O1 O3 O3 75.6(2) 1_554 3_554
O1 O3 O3 99.1(3) 1_545 3_554
La O3 O3 89.0(3) 4 3_554
Ga3 O3 O3 102.36(19) . 3_554
Ga3 O3 O3 110.9(2) 1_656 3_554
O3 O3 O3 151.93(13) 1_556 3_554
O3 O3 O3 28.07(13) 1_554 3_554
O2 O3 O3 80.4(3) 3_454 3_554
O2 O3 O3 35.4(3) 1_654 3_554
La O3 O3 50.32(15) 4_444 3_554
O2 O3 O3 66.5(3) 2 3_554
O2 O3 O3 106.8(3) 5_455 3_554
O1 O3 O3 91.1(3) 2_565 3_554
O1 O3 O3 45.93(19) 1_544 3_554
O2 O3 O3 132.4(3) 3_455 3_554
O2 O3 O3 93.4(3) 1_655 3_554
Ga2 O3 O3 153.4(4) 2_565 3_554
O3 O3 O3 96.1(3) 4_445 3_554
O3 O3 O3 116.77(17) 3_455 3_554
O2 O3 O3 152.0(4) 2_566 3_554
O2 O3 O3 130.0(3) 5_446 3_554
O2 O3 O3 79.0(3) 6_545 3_554
Ga2 O3 O3 74.5(3) 1_665 3_554
La O3 O3 123.4(2) 2_455 3_554
La O3 O3 24.29(12) 2_554 3_554
O1 O3 O3 56.13(16) 2_454 3_554
O3 O3 O3 123.9(3) 3_556 3_554
O3 O3 O3 131.9(2) 4_556 3_554
Ga3 O3 O3 59.0(4) 4_445 4_554
Nb O3 O3 102.7(4) . 4_554
Ga1 O3 O3 102.7(4) . 4_554
La O3 O3 129.3(6) . 4_554
Ga3 O3 O3 35.5(3) 2_564 4_554
O3 O3 O3 132.9(7) 6 4_554
O3 O3 O3 76.39(6) 3 4_554
O3 O3 O3 61.93(13) 4 4_554
O2 O3 O3 70.4(5) 2_565 4_554
O3 O3 O3 18.12(19) 6_554 4_554
O2 O3 O3 97.5(3) 5_445 4_554
O2 O3 O3 67.1(4) 4_444 4_554
O1 O3 O3 123.6(4) 2_455 4_554
O3 O3 O3 127.8(4) 2 4_554
O2 O3 O3 171.8(4) 4_445 4_554
O3 O3 O3 41.2(3) 2_554 4_554
Ga2 O3 O3 92.6(3) . 4_554
Ga3 O3 O3 49.09(19) 1_655 4_554
La O3 O3 132.7(2) 4_445 4_554
O2 O3 O3 93.6(4) 6 4_554
O3 O3 O3 101.5(5) 5 4_554
Ga3 O3 O3 153.5(3) 4_446 4_554
Ga2 O3 O3 71.6(4) 2_564 4_554
O3 O3 O3 24.0(3) 5_554 4_554
Ga1 O3 O3 13.88(6) 1_554 4_554
Nb O3 O3 13.88(6) 1_554 4_554
O2 O3 O3 80.0(3) 1_554 4_554
La O3 O3 103.0(2) 2 4_554
O1 O3 O3 112.0(5) . 4_554
Ga3 O3 O3 123.4(3) 2_565 4_554
La O3 O3 47.43(19) 1_554 4_554
O2 O3 O3 35.6(4) 3_564 4_554
O2 O3 O3 145.8(4) . 4_554
Ga2 O3 O3 89.43(17) 2_554 4_554
La O3 O3 86.9(4) 2_565 4_554
O2 O3 O3 101.0(4) 3_565 4_554
Ga2 O3 O3 165.3(3) 1_556 4_554
O2 O3 O3 61.9(2) 6_655 4_554
O1 O3 O3 54.0(3) 1_554 4_554
O1 O3 O3 125.7(3) 1_545 4_554
La O3 O3 76.2(2) 4 4_554
Ga3 O3 O3 91.4(3) . 4_554
Ga3 O3 O3 114.4(2) 1_656 4_554
O3 O3 O3 151.93(13) 1_556 4_554
O3 O3 O3 28.07(13) 1_554 4_554
O2 O3 O3 91.5(3) 3_454 4_554
O2 O3 O3 50.6(2) 1_654 4_554
La O3 O3 68.43(12) 4_444 4_554
O2 O3 O3 92.9(3) 2 4_554
O2 O3 O3 80.9(4) 5_455 4_554
O1 O3 O3 68.4(3) 2_565 4_554
O1 O3 O3 72.17(19) 1_544 4_554
O2 O3 O3 149.3(3) 3_455 4_554
O2 O3 O3 103.4(2) 1_655 4_554
Ga2 O3 O3 126.3(4) 2_565 4_554
O3 O3 O3 116.77(17) 4_445 4_554
O3 O3 O3 110.1(2) 3_455 4_554
O2 O3 O3 130.1(4) 2_566 4_554
O2 O3 O3 152.0(3) 5_446 4_554
O2 O3 O3 105.4(3) 6_545 4_554
Ga2 O3 O3 50.1(2) 1_665 4_554
La O3 O3 128.3(3) 2_455 4_554
La O3 O3 51.28(11) 2_554 4_554
O1 O3 O3 61.20(16) 2_454 4_554
O3 O3 O3 131.9(2) 3_556 4_554
O3 O3 O3 123.9(3) 4_556 4_554
O3 O3 O3 27.22(12) 3_554 4_554
Ga3 O3 O1 64.3(3) 4_445 2
Nb O3 O1 48.3(2) . 2
Ga1 O3 O1 48.3(2) . 2
La O3 O1 145.8(5) . 2
Ga3 O3 O1 95.2(2) 2_564 2
O3 O3 O1 93.7(3) 6 2
O3 O3 O1 7.8(3) 3 2
O3 O3 O1 67.1(4) 4 2
O2 O3 O1 128.3(3) 2_565 2
O3 O3 O1 99.6(2) 6_554 2
O2 O3 O1 54.9(4) 5_445 2
O2 O3 O1 100.2(3) 4_444 2
O1 O3 O1 125.3(4) 2_455 2
O3 O3 O1 47.3(3) 2 2
O2 O3 O1 93.8(4) 4_445 2
O3 O3 O1 56.4(4) 2_554 2
Ga2 O3 O1 124.0(3) . 2
Ga3 O3 O1 36.07(18) 1_655 2
La O3 O1 84.0(2) 4_445 2
O2 O3 O1 174.4(4) 6 2
O3 O3 O1 56.1(2) 5 2
Ga3 O3 O1 74.0(2) 4_446 2
Ga2 O3 O1 147.8(3) 2_564 2
O3 O3 O1 62.4(2) 5_554 2
Ga1 O3 O1 75.9(2) 1_554 2
Nb O3 O1 75.9(2) 1_554 2
O2 O3 O1 141.3(3) 1_554 2
La O3 O1 23.34(11) 2 2
O1 O3 O1 137.1(2) . 2
Ga3 O3 O1 89.1(2) 2_565 2
La O3 O1 121.5(3) 1_554 2
O2 O3 O1 96.3(3) 3_564 2
O2 O3 O1 131.6(4) . 2
Ga2 O3 O1 54.78(13) 2_554 2
La O3 O1 116.48(18) 2_565 2
O2 O3 O1 92.2(3) 3_565 2
Ga2 O3 O1 109.8(3) 1_556 2
O2 O3 O1 37.83(17) 6_655 2
O1 O3 O1 136.0(3) 1_554 2
O1 O3 O1 54.51(16) 1_545 2
La O3 O1 65.75(11) 4 2
Ga3 O3 O1 162.9(2) . 2
Ga3 O3 O1 50.06(17) 1_656 2
O3 O3 O1 86.6(2) 1_556 2
O3 O3 O1 93.4(2) 1_554 2
O2 O3 O1 114.3(3) 3_454 2
O2 O3 O1 32.1(2) 1_654 2
La O3 O1 89.03(19) 4_444 2
O2 O3 O1 37.04(15) 2 2
O2 O3 O1 144.8(3) 5_455 2
O1 O3 O1 92.07(13) 2_565 2
O1 O3 O1 61.7(2) 1_544 2
O2 O3 O1 109.6(3) 3_455 2
O2 O3 O1 30.0(2) 1_655 2
Ga2 O3 O1 124.4(3) 2_565 2
O3 O3 O1 96.1(3) 4_445 2
O3 O3 O1 155.8(3) 3_455 2
O2 O3 O1 105.2(3) 2_566 2
O2 O3 O1 69.5(2) 5_446 2
O2 O3 O1 66.69(19) 6_545 2
Ga2 O3 O1 93.12(15) 1_665 2
La O3 O1 131.8(3) 2_455 2
La O3 O1 50.04(18) 2_554 2
O1 O3 O1 112.0(2) 2_454 2
O3 O3 O1 58.7(2) 3_556 2
O3 O3 O1 76.3(3) 4_556 2
O3 O3 O1 65.6(3) 3_554 2
O3 O3 O1 82.5(2) 4_554 2
Ga3 O3 La 91.9(6) 4_445 2_564
Nb O3 La 108.0(5) . 2_564
Ga1 O3 La 108.0(5) . 2_564
La O3 La 93.3(4) . 2_564
Ga3 O3 La 21.91(18) 2_564 2_564
O3 O3 La 108.2(7) 6 2_564
O3 O3 La 106.2(3) 3 2_564
O3 O3 La 61.7(3) 4 2_564
O2 O3 La 34.3(4) 2_565 2_564
O3 O3 La 29.3(4) 6_554 2_564
O2 O3 La 132.0(5) 5_445 2_564
O2 O3 La 82.4(6) 4_444 2_564
O1 O3 La 113.3(4) 2_455 2_564
O3 O3 La 144.34(9) 2 2_564
O2 O3 La 149.4(3) 4_445 2_564
O3 O3 La 78.0(4) 2_554 2_564
Ga2 O3 La 91.4(3) . 2_564
Ga3 O3 La 77.7(3) 1_655 2_564
La O3 La 150.6(3) 4_445 2_564
O2 O3 La 61.2(3) 6 2_564
O3 O3 La 101.6(3) 5 2_564
Ga3 O3 La 147.8(2) 4_446 2_564
Ga2 O3 La 35.72(15) 2_564 2_564
O3 O3 La 51.84(16) 5_554 2_564
Ga1 O3 La 50.03(18) 1_554 2_564
Nb O3 La 50.03(18) 1_554 2_564
O2 O3 La 68.4(3) 1_554 2_564
La O3 La 136.8(2) 2 2_564
O1 O3 La 75.1(3) . 2_564
Ga3 O3 La 102.1(2) 2_565 2_564
La O3 La 44.01(15) 1_554 2_564
O2 O3 La 20.88(17) 3_564 2_564
O2 O3 La 112.4(3) . 2_564
Ga2 O3 La 123.8(3) 2_554 2_564
La O3 La 55.37(16) 2_565 2_564
O2 O3 La 79.8(2) 3_565 2_564
Ga2 O3 La 134.7(2) 1_556 2_564
O2 O3 La 80.8(2) 6_655 2_564
O1 O3 La 24.57(10) 1_554 2_564
O1 O3 La 163.0(3) 1_545 2_564
La O3 La 73.33(19) 4 2_564
Ga3 O3 La 67.61(19) . 2_564
Ga3 O3 La 119.7(2) 1_656 2_564
O3 O3 La 130.37(10) 1_556 2_564
O3 O3 La 49.63(10) 1_554 2_564
O2 O3 La 96.3(3) 3_454 2_564
O2 O3 La 84.8(3) 1_654 2_564
La O3 La 89.9(2) 4_444 2_564
O2 O3 La 130.3(3) 2 2_564
O2 O3 La 43.54(17) 5_455 2_564
O1 O3 La 50.2(2) 2_565 2_564
O1 O3 La 105.0(3) 1_544 2_564
O2 O3 La 135.9(2) 3_455 2_564
O2 O3 La 121.8(2) 1_655 2_564
Ga2 O3 La 90.49(18) 2_565 2_564
O3 O3 La 128.80(16) 4_445 2_564
O3 O3 La 86.4(2) 3_455 2_564
O2 O3 La 100.1(3) 2_566 2_564
O2 O3 La 160.4(2) 5_446 2_564
O2 O3 La 135.7(3) 6_545 2_564
Ga2 O3 La 34.07(10) 1_665 2_564
La O3 La 111.1(2) 2_455 2_564
La O3 La 88.2(2) 2_554 2_564
O1 O3 La 68.93(19) 2_454 2_564
O3 O3 La 134.7(3) 3_556 2_564
O3 O3 La 110.4(2) 4_556 2_564
O3 O3 La 63.90(17) 3_554 2_564
O3 O3 La 37.4(2) 4_554 2_564
O1 O3 La 113.8(2) 2 2_564
Ga3 O3 O2 153.2(5) 4_445 6_556
Nb O3 O2 83.8(4) . 6_556
Ga1 O3 O2 83.8(4) . 6_556
La O3 O2 21.6(2) . 6_556
Ga3 O3 O2 108.2(3) 2_564 6_556
O3 O3 O2 35.57(16) 6 6_556
O3 O3 O2 128.08(13) 3 6_556
O3 O3 O2 101.0(4) 4 6_556
O2 O3 O2 70.5(4) 2_565 6_556
O3 O3 O2 129.4(4) 6_554 6_556
O2 O3 O2 120.7(5) 5_445 6_556
O2 O3 O2 123.6(3) 4_444 6_556
O1 O3 O2 66.0(3) 2_455 6_556
O3 O3 O2 79.3(4) 2 6_556
O2 O3 O2 46.90(17) 4_445 6_556
O3 O3 O2 175.85(16) 2_554 6_556
Ga2 O3 O2 91.8(2) . 6_556
Ga3 O3 O2 141.2(3) 1_655 6_556
La O3 O2 81.8(3) 4_445 6_556
O2 O3 O2 56.1(3) 6 6_556
O3 O3 O2 79.1(4) 5 6_556
Ga3 O3 O2 54.20(18) 4_446 6_556
Ga2 O3 O2 71.54(16) 2_564 6_556
O3 O3 O2 142.2(2) 5_554 6_556
Ga1 O3 O2 153.4(3) 1_554 6_556
Nb O3 O2 153.4(3) 1_554 6_556
O2 O3 O2 88.3(3) 1_554 6_556
La O3 O2 111.4(3) 2 6_556
O1 O3 O2 28.7(2) . 6_556
Ga3 O3 O2 43.85(13) 2_565 6_556
La O3 O2 113.0(2) 1_554 6_556
O2 O3 O2 107.7(3) 3_564 6_556
O2 O3 O2 26.1(3) . 6_556
Ga2 O3 O2 128.3(3) 2_554 6_556
La O3 O2 57.27(14) 2_565 6_556
O2 O3 O2 56.4(2) 3_565 6_556
Ga2 O3 O2 37.05(13) 1_556 6_556
O2 O3 O2 121.5(3) 6_655 6_556
O1 O3 O2 91.5(2) 1_554 6_556
O1 O3 O2 93.4(3) 1_545 6_556
La O3 O2 90.36(17) 4 6_556
Ga3 O3 O2 68.21(14) . 6_556
Ga3 O3 O2 77.5(2) 1_656 6_556
O3 O3 O2 39.15(17) 1_556 6_556
O3 O3 O2 140.85(16) 1_554 6_556
O2 O3 O2 98.7(3) 3_454 6_556
O2 O3 O2 152.6(3) 1_654 6_556
La O3 O2 130.39(19) 4_444 6_556
O2 O3 O2 126.2(4) 2 6_556
O2 O3 O2 60.34(15) 5_455 6_556
O1 O3 O2 82.3(2) 2_565 6_556
O1 O3 O2 142.5(3) 1_544 6_556
O2 O3 O2 53.9(3) 3_455 6_556
O2 O3 O2 96.5(3) 1_655 6_556
Ga2 O3 O2 16.99(10) 2_565 6_556
O3 O3 O2 89.50(13) 4_445 6_556
O3 O3 O2 56.56(17) 3_455 6_556
O2 O3 O2 27.32(19) 2_566 6_556
O2 O3 O2 62.9(3) 5_446 6_556
O2 O3 O2 110.8(3) 6_545 6_556
Ga2 O3 O2 96.99(17) 1_665 6_556
La O3 O2 56.22(13) 2_455 6_556
La O3 O2 167.7(3) 2_554 6_556
O1 O3 O2 117.87(18) 2_454 6_556
O3 O3 O2 66.79(17) 3_556 6_556
O3 O3 O2 53.55(17) 4_556 6_556
O3 O3 O2 167.0(3) 3_554 6_556
O3 O3 O2 140.8(4) 4_554 6_556
O1 O3 O2 125.5(3) 2 6_556
La O3 O2 103.55(19) 2_564 6_556
Ga3 O3 La 137.5(5) 4_445 4_455
Nb O3 La 108.9(3) . 4_455
Ga1 O3 La 108.9(3) . 4_455
La O3 La 27.8(2) . 4_455
Ga3 O3 La 78.0(2) 2_564 4_455
O3 O3 La 66.2(3) 6 4_455
O3 O3 La 152.9(5) 3 4_455
O3 O3 La 95.2(5) 4 4_455
O2 O3 La 38.8(3) 2_565 4_455
O3 O3 La 89.0(3) 6_554 4_455
O2 O3 La 144.0(5) 5_445 4_455
O2 O3 La 102.5(3) 4_444 4_455
O1 O3 La 70.77(17) 2_455 4_455
O3 O3 La 118.6(5) 2 4_455
O2 O3 La 83.7(3) 4_445 4_455
O3 O3 La 139.2(6) 2_554 4_455
Ga2 O3 La 78.63(16) . 4_455
Ga3 O3 La 136.3(3) 1_655 4_455
La O3 La 107.2(2) 4_445 4_455
O2 O3 La 20.8(2) 6 4_455
O3 O3 La 100.8(2) 5 4_455
Ga3 O3 La 94.77(19) 4_446 4_455
Ga2 O3 La 31.22(8) 2_564 4_455
O3 O3 La 115.58(17) 5_554 4_455
Ga1 O3 La 113.4(3) 1_554 4_455
Nb O3 La 113.4(3) 1_554 4_455
O2 O3 La 61.4(2) 1_554 4_455
La O3 La 151.9(3) 2 4_455
O1 O3 La 20.49(18) . 4_455
Ga3 O3 La 69.20(12) 2_565 4_455
La O3 La 75.34(17) 1_554 4_455
O2 O3 La 77.1(3) 3_564 4_455
O2 O3 La 47.79(15) . 4_455
Ga2 O3 La 146.4(2) 2_554 4_455
La O3 La 42.64(8) 2_565 4_455
O2 O3 La 64.8(2) 3_565 4_455
Ga2 O3 La 69.33(11) 1_556 4_455
O2 O3 La 125.3(3) 6_655 4_455
O1 O3 La 50.89(17) 1_554 4_455
O1 O3 La 130.3(3) 1_545 4_455
La O3 La 93.31(16) 4 4_455
Ga3 O3 La 40.15(7) . 4_455
Ga3 O3 La 108.71(18) 1_656 4_455
O3 O3 La 78.51(15) 1_556 4_455
O3 O3 La 101.49(15) 1_554 4_455
O2 O3 La 88.3(3) 3_454 4_455
O2 O3 La 148.6(3) 1_654 4_455
La O3 La 113.86(19) 4_444 4_455
O2 O3 La 160.0(3) 2 4_455
O2 O3 La 23.22(12) 5_455 4_455
O1 O3 La 69.67(14) 2_565 4_455
O1 O3 La 141.4(2) 1_544 4_455
O2 O3 La 77.5(2) 3_455 4_455
O2 O3 La 128.8(3) 1_655 4_455
Ga2 O3 La 35.54(6) 2_565 4_455
O3 O3 La 101.37(17) 4_445 4_455
O3 O3 La 42.88(19) 3_455 4_455
O2 O3 La 54.25(16) 2_566 4_455
O2 O3 La 103.4(2) 5_446 4_455
O2 O3 La 131.2(2) 6_545 4_455
Ga2 O3 La 74.24(15) 1_665 4_455
La O3 La 61.93(9) 2_455 4_455
La O3 La 148.1(3) 2_554 4_455
O1 O3 La 89.72(17) 2_454 4_455
O3 O3 La 104.07(15) 3_556 4_455
O3 O3 La 82.3(2) 4_556 4_455
O3 O3 La 126.5(3) 3_554 4_455
O3 O3 La 102.6(4) 4_554 4_455
O1 O3 La 156.9(2) 2 4_455
La O3 La 65.76(14) 2_564 4_455
O2 O3 La 40.65(11) 6_556 4_455
Ga3 O3 O3 78.8(3) 4_445 5_445
Nb O3 O3 98.6(6) . 5_445
Ga1 O3 O3 98.6(6) . 5_445
La O3 O3 78.3(5) . 5_445
Ga3 O3 O3 172.4(5) 2_564 5_445
O3 O3 O3 88.4(9) 6 5_445
O3 O3 O3 92.7(4) 3 5_445
O3 O3 O3 144.8(4) 4 5_445
O2 O3 O3 143.6(4) 2_565 5_445
O3 O3 O3 133.4(5) 6_554 5_445
O2 O3 O3 43.6(2) 5_445 5_445
O2 O3 O3 75.4(5) 4_444 5_445
O1 O3 O3 42.2(3) 2_455 5_445
O3 O3 O3 62.3(2) 2 5_445
O2 O3 O3 34.6(3) 4_445 5_445
O3 O3 O3 99.16(13) 2_554 5_445
Ga2 O3 O3 62.0(2) . 5_445
Ga3 O3 O3 118.28(18) 1_655 5_445
La O3 O3 4.63(9) 4_445 5_445
O2 O3 O3 100.7(3) 6 5_445
O3 O3 O3 104.7(5) 5 5_445
Ga3 O3 O3 53.2(3) 4_446 5_445
Ga2 O3 O3 127.3(3) 2_564 5_445
O3 O3 O3 138.1(2) 5_554 5_445
Ga1 O3 O3 123.7(2) 1_554 5_445
Nb O3 O3 123.7(2) 1_554 5_445
O2 O3 O3 85.1(3) 1_554 5_445
La O3 O3 62.08(12) 2 5_445
O1 O3 O3 104.9(4) . 5_445
Ga3 O3 O3 96.9(4) 2_565 5_445
La O3 O3 110.5(3) 1_554 5_445
O2 O3 O3 172.0(5) 3_564 5_445
O2 O3 O3 58.3(3) . 5_445
Ga2 O3 O3 50.79(6) 2_554 5_445
La O3 O3 134.8(4) 2_565 5_445
O2 O3 O3 120.1(5) 3_565 5_445
Ga2 O3 O3 40.6(3) 1_556 5_445
O2 O3 O3 121.8(3) 6_655 5_445
O1 O3 O3 130.3(3) 1_554 5_445
O1 O3 O3 30.76(6) 1_545 5_445
La O3 O3 133.2(4) 4 5_445
Ga3 O3 O3 89.0(2) . 5_445
Ga3 O3 O3 86.7(3) 1_656 5_445
O3 O3 O3 66.6(3) 1_556 5_445
O3 O3 O3 113.4(3) 1_554 5_445
O2 O3 O3 57.6(2) 3_454 5_445
O2 O3 O3 106.51(16) 1_654 5_445
La O3 O3 70.75(16) 4_444 5_445
O2 O3 O3 55.3(2) 2 5_445
O2 O3 O3 127.4(3) 5_455 5_445
O1 O3 O3 152.8(4) 2_565 5_445
O1 O3 O3 65.93(16) 1_544 5_445
O2 O3 O3 27.4(3) 3_455 5_445
O2 O3 O3 83.9(3) 1_655 5_445
Ga2 O3 O3 94.2(4) 2_565 5_445
O3 O3 O3 25.4(2) 4_445 5_445
O3 O3 O3 71.9(2) 3_455 5_445
O2 O3 O3 92.6(4) 2_566 5_445
O2 O3 O3 42.4(3) 5_446 5_445
O2 O3 O3 33.1(2) 6_545 5_445
Ga2 O3 O3 171.5(4) 1_665 5_445
La O3 O3 47.0(2) 2_455 5_445
La O3 O3 90.20(12) 2_554 5_445
O1 O3 O3 86.8(2) 2_454 5_445
O3 O3 O3 70.8(4) 3_556 5_445
O3 O3 O3 91.9(3) 4_556 5_445
O3 O3 O3 111.9(2) 3_554 5_445
O3 O3 O3 137.3(2) 4_554 5_445
O1 O3 O3 84.82(13) 2 5_445
La O3 O3 153.4(3) 2_564 5_445
O2 O3 O3 77.7(3) 6_556 5_445
La O3 O3 104.8(3) 4_455 5_445
Ga3 O3 O3 135.0(5) 4_445 5_455
Nb O3 O3 110.6(5) . 5_455
Ga1 O3 O3 110.6(5) . 5_455
La O3 O3 7.27(17) . 5_455
Ga3 O3 O3 100.6(2) 2_564 5_455
O3 O3 O3 62.4(2) 6 5_455
O3 O3 O3 156.2(2) 3 5_455
O3 O3 O3 113.2(5) 4 5_455
O2 O3 O3 61.2(3) 2_565 5_455
O3 O3 O3 106.4(3) 6_554 5_455
O2 O3 O3 123.5(5) 5_445 5_455
O2 O3 O3 99.3(4) 4_444 5_455
O1 O3 O3 52.2(2) 2_455 5_455
O3 O3 O3 105.8(5) 2 5_455
O2 O3 O3 62.8(3) 4_445 5_455
O3 O3 O3 149.4(7) 2_554 5_455
Ga2 O3 O3 69.3(2) . 5_455
Ga3 O3 O3 157.4(3) 1_655 5_455
La O3 O3 85.0(2) 4_445 5_455
O2 O3 O3 29.6(2) 6 5_455
O3 O3 O3 104.7(5) 5 5_455
Ga3 O3 O3 79.3(3) 4_446 5_455
Ga2 O3 O3 51.50(6) 2_564 5_455
O3 O3 O3 138.0(2) 5_554 5_455
Ga1 O3 O3 130.7(4) 1_554 5_455
Nb O3 O3 130.7(4) 1_554 5_455
O2 O3 O3 60.8(2) 1_554 5_455
La O3 O3 134.5(4) 2 5_455
O1 O3 O3 29.26(8) . 5_455
Ga3 O3 O3 69.2(2) 2_565 5_455
La O3 O3 85.3(2) 1_554 5_455
O2 O3 O3 99.7(3) 3_564 5_455
O2 O3 O3 25.48(18) . 5_455
Ga2 O3 O3 128.1(2) 2_554 5_455
La O3 O3 60.48(7) 2_565 5_455
O2 O3 O3 74.2(3) 3_565 5_455
Ga2 O3 O3 47.56(17) 1_556 5_455
O2 O3 O3 141.5(3) 6_655 5_455
O1 O3 O3 68.55(19) 1_554 5_455
O1 O3 O3 108.1(3) 1_545 5_455
La O3 O3 107.50(19) 4 5_455
Ga3 O3 O3 40.16(13) . 5_455
Ga3 O3 O3 105.4(3) 1_656 5_455
O3 O3 O3 66.6(3) 1_556 5_455
O3 O3 O3 113.4(3) 1_554 5_455
O2 O3 O3 78.0(3) 3_454 5_455
O2 O3 O3 171.2(3) 1_654 5_455
La O3 O3 108.7(3) 4_444 5_455
O2 O3 O3 137.7(3) 2 5_455
O2 O3 O3 45.76(12) 5_455 5_455
O1 O3 O3 88.69(13) 2_565 5_455
O1 O3 O3 131.6(2) 1_544 5_455
O2 O3 O3 55.0(3) 3_455 5_455
O2 O3 O3 124.6(4) 1_655 5_455
Ga2 O3 O3 34.12(13) 2_565 5_455
O3 O3 O3 82.1(2) 4_445 5_455
O3 O3 O3 31.3(3) 3_455 5_455
O2 O3 O3 52.1(2) 2_566 5_455
O2 O3 O3 85.2(3) 5_446 5_455
O2 O3 O3 110.8(3) 6_545 5_455
Ga2 O3 O3 96.11(12) 1_665 5_455
La O3 O3 42.40(14) 2_455 5_455
La O3 O3 153.0(3) 2_554 5_455
O1 O3 O3 90.8(3) 2_454 5_455
O3 O3 O3 94.6(3) 3_556 5_455
O3 O3 O3 80.5(2) 4_556 5_455
O3 O3 O3 141.4(3) 3_554 5_455
O3 O3 O3 122.4(4) 4_554 5_455
O1 O3 O3 153.0(4) 2 5_455
La O3 O3 87.12(17) 2_564 5_455
O2 O3 O3 28.10(18) 6_556 5_455
La O3 O3 22.60(5) 4_455 5_455
O3 O3 O3 82.3(3) 5_445 5_455
Ga3 O3 O2 70.5(5) 4_445 2_564
Nb O3 O2 123.6(5) . 2_564
Ga1 O3 O2 123.6(5) . 2_564
La O3 O2 103.4(4) . 2_564
Ga3 O3 O2 38.4(3) 2_564 2_564
O3 O3 O2 131.1(7) 6 2_564
O3 O3 O2 103.7(2) 3 2_564
O3 O3 O2 77.2(3) 4 2_564
O2 O3 O2 55.6(4) 2_565 2_564
O3 O3 O2 10.3(2) 6_554 2_564
O2 O3 O2 110.1(5) 5_445 2_564
O2 O3 O2 60.0(6) 4_444 2_564
O1 O3 O2 102.8(4) 2_455 2_564
O3 O3 O2 154.7(3) 2 2_564
O2 O3 O2 154.3(4) 4_445 2_564
O3 O3 O2 60.9(5) 2_554 2_564
Ga2 O3 O2 74.9(3) . 2_564
Ga3 O3 O2 76.2(3) 1_655 2_564
La O3 O2 130.6(3) 4_445 2_564
O2 O3 O2 66.8(3) 6 2_564
O3 O3 O2 119.3(4) 5 2_564
Ga3 O3 O2 170.8(3) 4_446 2_564
Ga2 O3 O2 47.9(2) 2_564 2_564
O3 O3 O2 50.1(3) 5_554 2_564
Ga1 O3 O2 34.84(16) 1_554 2_564
Nb O3 O2 34.84(16) 1_554 2_564
O2 O3 O2 56.3(2) 1_554 2_564
La O3 O2 128.7(2) 2 2_564
O1 O3 O2 93.1(4) . 2_564
Ga3 O3 O2 125.2(3) 2_565 2_564
La O3 O2 25.27(16) 1_554 2_564
O2 O3 O2 37.7(3) 3_564 2_564
O2 O3 O2 118.5(3) . 2_564
Ga2 O3 O2 102.1(3) 2_554 2_564
La O3 O2 78.1(2) 2_565 2_564
O2 O3 O2 102.7(3) 3_565 2_564
Ga2 O3 O2 138.9(2) 1_556 2_564
O2 O3 O2 86.8(3) 6_655 2_564
O1 O3 O2 28.0(2) 1_554 2_564
O1 O3 O2 142.5(3) 1_545 2_564
La O3 O2 90.8(3) 4 2_564
Ga3 O3 O2 64.4(2) . 2_564
Ga3 O3 O2 136.0(2) 1_656 2_564
O3 O3 O2 152.75(14) 1_556 2_564
O3 O3 O2 27.25(14) 1_554 2_564
O2 O3 O2 77.6(3) 3_454 2_564
O2 O3 O2 77.5(3) 1_654 2_564
La O3 O2 66.8(2) 4_444 2_564
O2 O3 O2 112.5(3) 2 2_564
O2 O3 O2 60.3(2) 5_455 2_564
O1 O3 O2 71.8(3) 2_565 2_564
O1 O3 O2 83.1(3) 1_544 2_564
O2 O3 O2 129.4(2) 3_455 2_564
O2 O3 O2 129.6(3) 1_655 2_564
Ga2 O3 O2 109.7(2) 2_565 2_564
O3 O3 O2 109.15(14) 4_445 2_564
O3 O3 O2 83.54(17) 3_455 2_564
O2 O3 O2 122.1(4) 2_566 2_564
O2 O3 O2 176.5(2) 5_446 2_564
O2 O3 O2 112.7(3) 6_545 2_564
Ga2 O3 O2 53.84(19) 1_665 2_564
La O3 O2 104.7(2) 2_455 2_564
La O3 O2 70.81(19) 2_554 2_564
O1 O3 O2 47.78(19) 2_454 2_564
O3 O3 O2 153.6(3) 3_556 2_564
O3 O3 O2 132.9(3) 4_556 2_564
O3 O3 O2 47.69(12) 3_554 2_564
O3 O3 O2 27.31(18) 4_554 2_564
O1 O3 O2 109.6(3) 2 2_564
La O3 O2 23.09(13) 2_564 2_564
O2 O3 O2 119.4(2) 6_556 2_564
La O3 O2 78.8(2) 4_455 2_564
O3 O3 O2 134.6(3) 5_445 2_564
O3 O3 O2 96.2(3) 5_455 2_564
Ga3 O3 La 75.0(5) 4_445 4_554
Nb O3 La 81.3(4) . 4_554
Ga1 O3 La 81.3(4) . 4_554
La O3 La 129.6(5) . 4_554
Ga3 O3 La 24.30(14) 2_564 4_554
O3 O3 La 111.3(6) 6 4_554
O3 O3 La 66.2(3) 3 4_554
O3 O3 La 38.99(11) 4 4_554
O2 O3 La 64.1(4) 2_565 4_554
O3 O3 La 37.7(2) 6_554 4_554
O2 O3 La 107.8(4) 5_445 4_554
O2 O3 La 89.8(5) 4_444 4_554
O1 O3 La 145.7(5) 2_455 4_554
O3 O3 La 111.8(2) 2 4_554
O2 O3 La 161.2(3) 4_445 4_554
O3 O3 La 53.18(17) 2_554 4_554
Ga2 O3 La 115.3(4) . 4_554
Ga3 O3 La 37.72(17) 1_655 4_554
La O3 La 147.7(2) 4_445 4_554
O2 O3 La 101.1(4) 6 4_554
O3 O3 La 79.1(3) 5 4_554
Ga3 O3 La 133.5(2) 4_446 4_554
Ga2 O3 La 75.0(2) 2_564 4_554
O3 O3 La 13.54(10) 5_554 4_554
Ga1 O3 La 33.00(11) 1_554 4_554
Nb O3 La 33.00(11) 1_554 4_554
O2 O3 La 99.7(3) 1_554 4_554
La O3 La 96.94(16) 2 4_554
O1 O3 La 103.7(3) . 4_554
Ga3 O3 La 101.37(19) 2_565 4_554
La O3 La 67.7(2) 1_554 4_554
O2 O3 La 25.1(3) 3_564 4_554
O2 O3 La 149.8(3) . 4_554
Ga2 O3 La 100.75(19) 2_554 4_554
La O3 La 73.04(19) 2_565 4_554
O2 O3 La 80.2(3) 3_565 4_554
Ga2 O3 La 166.7(2) 1_556 4_554
O2 O3 La 43.48(17) 6_655 4_554
O1 O3 La 63.5(2) 1_554 4_554
O1 O3 La 126.70(18) 1_545 4_554
La O3 La 53.28(13) 4 4_554
Ga3 O3 La 106.0(3) . 4_554
Ga3 O3 La 93.52(14) 1_656 4_554
O3 O3 La 128.97(11) 1_556 4_554
O3 O3 La 51.03(11) 1_554 4_554
O2 O3 La 114.5(3) 3_454 4_554
O2 O3 La 46.54(16) 1_654 4_554
La O3 La 89.8(2) 4_444 4_554
O2 O3 La 97.0(2) 2 4_554
O2 O3 La 79.0(2) 5_455 4_554
O1 O3 La 49.19(19) 2_565 4_554
O1 O3 La 87.0(2) 1_544 4_554
O2 O3 La 172.2(3) 3_455 4_554
O2 O3 La 86.53(17) 1_655 4_554
Ga2 O3 La 113.4(2) 2_565 4_554
O3 O3 La 137.65(14) 4_445 4_554
O3 O3 La 125.3(2) 3_455 4_554
O2 O3 La 110.9(3) 2_566 4_554
O2 O3 La 137.6(3) 5_446 4_554
O2 O3 La 118.7(2) 6_545 4_554
Ga2 O3 La 33.29(9) 1_665 4_554
La O3 La 148.2(3) 2_455 4_554
La O3 La 61.56(13) 2_554 4_554
O1 O3 La 84.1(2) 2_454 4_554
O3 O3 La 111.4(2) 3_556 4_554
O3 O3 La 100.9(2) 4_556 4_554
O3 O3 La 41.88(19) 3_554 4_554
O3 O3 La 22.97(13) 4_554 4_554
O1 O3 La 73.75(15) 2 4_554
La O3 La 40.01(11) 2_564 4_554
O2 O3 La 130.3(2) 6_556 4_554
La O3 La 102.2(2) 4_455 4_554
O3 O3 La 151.4(2) 5_445 4_554
O3 O3 La 124.7(2) 5_455 4_554
O2 O3 La 43.56(15) 2_564 4_554
Ga3 O3 O2 16.7(4) 4_445 5_444
Nb O3 O2 123.5(4) . 5_444
Ga1 O3 O2 123.5(4) . 5_444
La O3 O2 131.2(4) . 5_444
Ga3 O3 O2 82.8(3) 2_564 5_444
O3 O3 O2 171.2(4) 6 5_444
O3 O3 O2 77.2(3) 3 5_444
O3 O3 O2 103.7(2) 4 5_444
O2 O3 O2 110.1(5) 2_565 5_444
O3 O3 O2 47.5(4) 6_554 5_444
O2 O3 O2 55.6(3) 5_445 5_444
O2 O3 O2 28.2(2) 4_444 5_444
O1 O3 O2 87.6(4) 2_455 5_444
O3 O3 O2 117.3(4) 2 5_444
O2 O3 O2 124.4(4) 4_445 5_444
O3 O3 O2 24.6(4) 2_554 5_444
Ga2 O3 O2 60.0(2) . 5_444
Ga3 O3 O2 67.0(3) 1_655 5_444
La O3 O2 85.15(19) 4_445 5_444
O2 O3 O2 102.7(5) 6 5_444
O3 O3 O2 129.0(4) 5 5_444
Ga3 O3 O2 134.5(3) 4_446 5_444
Ga2 O3 O2 97.6(3) 2_564 5_444
O3 O3 O2 59.6(4) 5_554 5_444
Ga1 O3 O2 34.83(14) 1_554 5_444
Nb O3 O2 34.83(14) 1_554 5_444
O2 O3 O2 65.2(2) 1_554 5_444
La O3 O2 83.7(2) 2 5_444
O1 O3 O2 142.5(4) . 5_444
Ga3 O3 O2 164.5(3) 2_565 5_444
La O3 O2 47.94(17) 1_554 5_444
O2 O3 O2 82.8(4) 3_564 5_444
O2 O3 O2 127.1(2) . 5_444
Ga2 O3 O2 47.58(16) 2_554 5_444
La O3 O2 132.0(3) 2_565 5_444
O2 O3 O2 147.7(4) 3_565 5_444
Ga2 O3 O2 125.5(2) 1_556 5_444
O2 O3 O2 86.8(2) 6_655 5_444
O1 O3 O2 77.2(3) 1_554 5_444
O1 O3 O2 88.0(3) 1_545 5_444
La O3 O2 116.1(3) 4 5_444
Ga3 O3 O2 86.5(2) . 5_444
Ga3 O3 O2 127.6(2) 1_656 5_444
O3 O3 O2 152.73(17) 1_556 5_444
O3 O3 O2 27.27(17) 1_554 5_444
O2 O3 O2 53.67(18) 3_454 5_444
O2 O3 O2 55.4(4) 1_654 5_444
La O3 O2 23.05(14) 4_444 5_444
O2 O3 O2 60.38(16) 2 5_444
O2 O3 O2 112.0(4) 5_455 5_444
O1 O3 O2 116.0(3) 2_565 5_444
O1 O3 O2 28.6(2) 1_544 5_444
O2 O3 O2 105.9(2) 3_455 5_444
O2 O3 O2 107.5(3) 1_655 5_444
Ga2 O3 O2 158.0(3) 2_565 5_444
O3 O3 O2 70.1(2) 4_445 5_444
O3 O3 O2 95.5(2) 3_455 5_444
O2 O3 O2 176.5(4) 2_566 5_444
O2 O3 O2 122.1(3) 5_446 5_444
O2 O3 O2 59.76(19) 6_545 5_444
Ga2 O3 O2 97.8(3) 1_665 5_444
La O3 O2 96.8(2) 2_455 5_444
La O3 O2 27.69(18) 2_554 5_444
O1 O3 O2 35.08(18) 2_454 5_444
O3 O3 O2 132.8(3) 3_556 5_444
O3 O3 O2 153.6(3) 4_556 5_444
O3 O3 O2 27.28(19) 3_554 5_444
O3 O3 O2 47.69(12) 4_554 5_444
O1 O3 O2 77.5(3) 2 5_444
La O3 O2 76.7(2) 2_564 5_444
O2 O3 O2 151.7(2) 6_556 5_444
La O3 O2 122.6(3) 4_455 5_444
O3 O3 O2 89.8(2) 5_445 5_444
O3 O3 O2 125.8(3) 5_455 5_444
O2 O3 O2 54.5(2) 2_564 5_444
La O3 O2 67.5(2) 4_554 5_444
Ga3 O3 La 84.3(3) 4_445 1_655
Nb O3 La 29.4(2) . 1_655
Ga1 O3 La 29.4(2) . 1_655
La O3 La 134.4(4) . 1_655
Ga3 O3 La 80.1(2) 2_564 1_655
O3 O3 La 77.75(11) 6 1_655
O3 O3 La 19.5(3) 3 1_655
O3 O3 La 45.1(3) 4 1_655
O2 O3 La 106.1(3) 2_565 1_655
O3 O3 La 98.90(18) 6_554 1_655
O2 O3 La 78.8(4) 5_445 1_655
O2 O3 La 120.5(3) 4_444 1_655
O1 O3 La 144.6(4) 2_455 1_655
O3 O3 La 47.9(2) 2 1_655
O2 O3 La 98.8(4) 4_445 1_655
O3 O3 La 70.1(3) 2_554 1_655
Ga2 O3 La 147.8(2) . 1_655
Ga3 O3 La 32.80(12) 1_655 1_655
La O3 La 102.8(3) 4_445 1_655
O2 O3 La 151.3(3) 6 1_655
O3 O3 La 35.3(2) 5 1_655
Ga3 O3 La 72.72(17) 4_446 1_655
Ga2 O3 La 128.7(3) 2_564 1_655
O3 O3 La 57.1(2) 5_554 1_655
Ga1 O3 La 79.90(14) 1_554 1_655
Nb O3 La 79.90(14) 1_554 1_655
O2 O3 La 158.3(3) 1_554 1_655
La O3 La 41.71(8) 2 1_655
O1 O3 La 115.3(2) . 1_655
Ga3 O3 La 70.69(14) 2_565 1_655
La O3 La 127.7(3) 1_554 1_655
O2 O3 La 81.1(2) 3_564 1_655
O2 O3 La 130.6(4) . 1_655
Ga2 O3 La 78.94(14) 2_554 1_655
La O3 La 92.32(15) 2_565 1_655
O2 O3 La 69.0(2) 3_565 1_655
Ga2 O3 La 113.7(3) 1_556 1_655
O2 O3 La 20.85(14) 6_655 1_655
O1 O3 La 126.1(3) 1_554 1_655
O1 O3 La 71.85(15) 1_545 1_655
La O3 La 41.77(7) 4 1_655
Ga3 O3 La 168.6(3) . 1_655
Ga3 O3 La 36.70(6) 1_656 1_655
O3 O3 La 78.69(14) 1_556 1_655
O3 O3 La 101.32(14) 1_554 1_655
O2 O3 La 138.2(3) 3_454 1_655
O2 O3 La 39.6(2) 1_654 1_655
La O3 La 110.38(15) 4_444 1_655
O2 O3 La 60.99(16) 2 1_655
O2 O3 La 121.7(3) 5_455 1_655
O1 O3 La 68.93(11) 2_565 1_655
O1 O3 La 84.36(13) 1_544 1_655
O2 O3 La 121.8(3) 3_455 1_655
O2 O3 La 22.68(12) 1_655 1_655
Ga2 O3 La 106.03(18) 2_565 1_655
O3 O3 La 118.5(3) 4_445 1_655
O3 O3 La 168.65(15) 3_455 1_655
O2 O3 La 87.77(19) 2_566 1_655
O2 O3 La 73.7(2) 5_446 1_655
O2 O3 La 90.2(2) 6_545 1_655
Ga2 O3 La 73.48(11) 1_665 1_655
La O3 La 147.1(3) 2_455 1_655
La O3 La 67.10(9) 2_554 1_655
O1 O3 La 129.0(2) 2_454 1_655
O3 O3 La 51.93(16) 3_556 1_655
O3 O3 La 59.7(2) 4_556 1_655
O3 O3 La 74.3(2) 3_554 1_655
O3 O3 La 80.86(17) 4_554 1_655
O1 O3 La 24.17(7) 2 1_655
La O3 La 101.48(18) 2_564 1_655
O2 O3 La 113.1(2) 6_556 1_655
La O3 La 133.54(17) 4_455 1_655
O3 O3 La 102.3(2) 5_445 1_655
O3 O3 La 139.9(3) 5_455 1_655
O2 O3 La 106.9(2) 2_564 1_655
La O3 La 64.15(10) 4_554 1_655
O2 O3 La 94.2(2) 5_444 1_655
Ga3 O3 O3 38.19(19) 4_445 5_444
Nb O3 O3 130.5(4) . 5_444
Ga1 O3 O3 130.5(4) . 5_444
La O3 O3 102.4(4) . 5_444
Ga3 O3 O3 123.8(5) 2_564 5_444
O3 O3 O3 136.7(9) 6 5_444
O3 O3 O3 92.6(4) 3 5_444
O3 O3 O3 143.7(3) 4 5_444
O2 O3 O3 133.7(5) 2_565 5_444
O3 O3 O3 85.0(5) 6_554 5_444
O2 O3 O3 35.4(4) 5_445 5_444
O2 O3 O3 28.3(4) 4_444 5_444
O1 O3 O3 50.3(3) 2_455 5_444
O3 O3 O3 99.50(16) 2 5_444
O2 O3 O3 82.3(4) 4_445 5_444
O3 O3 O3 60.8(3) 2_554 5_444
Ga2 O3 O3 36.3(2) . 5_444
Ga3 O3 O3 99.8(2) 1_655 5_444
La O3 O3 44.08(12) 4_445 5_444
O2 O3 O3 96.3(3) 6 5_444
O3 O3 O3 139.33(16) 5 5_444
Ga3 O3 O3 100.7(3) 4_446 5_444
Ga2 O3 O3 110.7(3) 2_564 5_444
O3 O3 O3 101.5(5) 5_554 5_444
Ga1 O3 O3 77.9(3) 1_554 5_444
Nb O3 O3 77.9(3) 1_554 5_444
O2 O3 O3 58.3(3) 1_554 5_444
La O3 O3 76.78(8) 2 5_444
O1 O3 O3 130.2(3) . 5_444
Ga3 O3 O3 145.5(5) 2_565 5_444
La O3 O3 67.9(2) 1_554 5_444
O2 O3 O3 123.5(5) 3_564 5_444
O2 O3 O3 89.1(3) . 5_444
Ga2 O3 O3 33.16(6) 2_554 5_444
La O3 O3 154.9(2) 2_565 5_444
O2 O3 O3 168.7(5) 3_565 5_444
Ga2 O3 O3 82.5(3) 1_556 5_444
O2 O3 O3 117.4(3) 6_655 5_444
O1 O3 O3 97.6(3) 1_554 5_444
O1 O3 O3 60.13(17) 1_545 5_444
La O3 O3 151.3(2) 4 5_444
Ga3 O3 O3 76.3(2) . 5_444
Ga3 O3 O3 123.3(3) 1_656 5_444
O3 O3 O3 115.2(3) 1_556 5_444
O3 O3 O3 64.8(3) 1_554 5_444
O2 O3 O3 26.7(2) 3_454 5_444
O2 O3 O3 85.0(3) 1_654 5_444
La O3 O3 22.17(12) 4_444 5_444
O2 O3 O3 52.08(11) 2 5_444
O2 O3 O3 123.1(3) 5_455 5_444
O1 O3 O3 158.5(5) 2_565 5_444
O1 O3 O3 30.54(11) 1_544 5_444
O2 O3 O3 63.1(3) 3_455 5_444
O2 O3 O3 108.7(2) 1_655 5_444
Ga2 O3 O3 131.0(3) 2_565 5_444
O3 O3 O3 27.1(3) 4_445 5_444
O3 O3 O3 72.2(3) 3_455 5_444
O2 O3 O3 138.4(4) 2_566 5_444
O2 O3 O3 88.6(3) 5_446 5_444
O2 O3 O3 28.53(13) 6_545 5_444
Ga2 O3 O3 139.7(4) 1_665 5_444
La O3 O3 60.4(2) 2_455 5_444
La O3 O3 56.10(16) 2_554 5_444
O1 O3 O3 42.56(17) 2_454 5_444
O3 O3 O3 113.4(4) 3_556 5_444
O3 O3 O3 139.0(4) 4_556 5_444
O3 O3 O3 69.3(2) 3_554 5_444
O3 O3 O3 90.2(2) 4_554 5_444
O1 O3 O3 87.71(11) 2 5_444
La O3 O3 110.6(3) 2_564 5_444
O2 O3 O3 115.1(3) 6_556 5_444
La O3 O3 114.5(2) 4_455 5_444
O3 O3 O3 48.60(10) 5_445 5_444
O3 O3 O3 101.1(3) 5_455 5_444
O2 O3 O3 88.0(3) 2_564 5_444
La O3 O3 110.6(3) 4_554 5_444
O2 O3 O3 43.1(2) 5_444 5_444
La O3 O3 111.78(11) 1_655 5_444
Ga3 O3 O3 95.9(6) 4_445 5_454
Nb O3 O3 148.2(3) . 5_454
Ga1 O3 O3 148.2(3) . 5_454
La O3 O3 55.72(17) . 5_454
Ga3 O3 O3 76.1(3) 2_564 5_454
O3 O3 O3 107.42(19) 6 5_454
O3 O3 O3 154.4(3) 3 5_454
O3 O3 O3 112.9(5) 4 5_454
O2 O3 O3 54.8(2) 2_565 5_454
O3 O3 O3 61.0(3) 6_554 5_454
O2 O3 O3 116.3(5) 5_445 5_454
O2 O3 O3 61.8(5) 4_444 5_454
O1 O3 O3 59.1(3) 2_455 5_454
O3 O3 O3 153.1(5) 2 5_454
O2 O3 O3 103.1(3) 4_445 5_454
O3 O3 O3 101.8(7) 2_554 5_454
Ga2 O3 O3 46.3(3) . 5_454
Ga3 O3 O3 127.9(5) 1_655 5_454
La O3 O3 100.2(2) 4_445 5_454
O2 O3 O3 21.3(3) 6 5_454
O3 O3 O3 139.33(16) 5 5_454
Ga3 O3 O3 126.4(3) 4_446 5_454
Ga2 O3 O3 30.85(5) 2_564 5_454
O3 O3 O3 101.5(5) 5_554 5_454
Ga1 O3 O3 83.4(4) 1_554 5_454
Nb O3 O3 83.4(4) 1_554 5_454
O2 O3 O3 22.7(2) 1_554 5_454
La O3 O3 157.6(2) 2 5_454
O1 O3 O3 62.09(18) . 5_454
Ga3 O3 O3 110.80(18) 2_565 5_454
La O3 O3 36.7(2) 1_554 5_454
O2 O3 O3 75.0(3) 3_564 5_454
O2 O3 O3 67.2(2) . 5_454
Ga2 O3 O3 113.3(3) 2_554 5_454
La O3 O3 74.08(6) 2_565 5_454
O2 O3 O3 102.6(2) 3_565 5_454
Ga2 O3 O3 87.3(2) 1_556 5_454
O2 O3 O3 135.4(4) 6_655 5_454
O1 O3 O3 30.06(11) 1_554 5_454
O1 O3 O3 131.0(2) 1_545 5_454
La O3 O3 119.9(2) 4 5_454
Ga3 O3 O3 13.22(8) . 5_454
Ga3 O3 O3 150.3(3) 1_656 5_454
O3 O3 O3 115.2(3) 1_556 5_454
O3 O3 O3 64.8(3) 1_554 5_454
O2 O3 O3 55.2(3) 3_454 5_454
O2 O3 O3 127.4(5) 1_654 5_454
La O3 O3 73.5(3) 4_444 5_454
O2 O3 O3 132.5(3) 2 5_454
O2 O3 O3 42.2(2) 5_455 5_454
O1 O3 O3 91.76(16) 2_565 5_454
O1 O3 O3 101.3(3) 1_544 5_454
O2 O3 O3 81.8(2) 3_455 5_454
O2 O3 O3 169.9(3) 1_655 5_454
Ga2 O3 O3 76.53(14) 2_565 5_454
O3 O3 O3 82.2(2) 4_445 5_454
O3 O3 O3 32.6(2) 3_455 5_454
O2 O3 O3 95.6(2) 2_566 5_454
O2 O3 O3 128.4(4) 5_446 5_454
O2 O3 O3 107.4(2) 6_545 5_454
Ga2 O3 O3 83.8(2) 1_665 5_454
La O3 O3 56.61(15) 2_455 5_454
La O3 O3 108.5(4) 2_554 5_454
O1 O3 O3 48.2(3) 2_454 5_454
O3 O3 O3 143.1(3) 3_556 5_454
O3 O3 O3 124.0(2) 4_556 5_454
O3 O3 O3 92.8(3) 3_554 5_454
O3 O3 O3 78.9(4) 4_554 5_454
O1 O3 O3 158.1(4) 2 5_454
La O3 O3 54.63(18) 2_564 5_454
O2 O3 O3 76.4(2) 6_556 5_454
La O3 O3 41.62(11) 4_455 5_454
O3 O3 O3 101.1(3) 5_445 5_454
O3 O3 O3 48.60(10) 5_455 5_454
O2 O3 O3 51.7(3) 2_564 5_454
La O3 O3 92.7(3) 4_554 5_454
O2 O3 O3 81.4(3) 5_444 5_454
La O3 O3 156.1(3) 1_655 5_454
O3 O3 O3 80.9(3) 5_444 5_454
Ga2 O2 Ga3 119.7(8) 1_556 1_556
Ga2 O2 La 105.5(5) 1_556 .
Ga3 O2 La 120.0(6) 1_556 .
Ga2 O2 O2 39.9(3) 1_556 3_455
Ga3 O2 O2 129.5(8) 1_556 3_455
La O2 O2 110.4(3) . 3_455
Ga2 O2 O2 39.9(3) 1_556 4_445
Ga3 O2 O2 143.8(9) 1_556 4_445
La O2 O2 65.7(6) . 4_445
O2 O2 O2 60.0 3_455 4_445
Ga2 O2 O3 117.1(6) 1_556 2_455
Ga3 O2 O3 62.6(5) 1_556 2_455
La O2 O3 127.5(7) . 2_455
O2 O2 O3 86.9(8) 3_455 2_455
O2 O2 O3 146.2(8) 4_445 2_455
Ga2 O2 O2 101.6(8) 1_556 6_556
Ga3 O2 O2 39.7(6) 1_556 6_556
La O2 O2 97.4(5) . 6_556
O2 O2 O2 136.5(4) 3_455 6_556
O2 O2 O2 106.5(4) 4_445 6_556
O3 O2 O2 102.3(4) 2_455 6_556
Ga2 O2 O3 159.0(7) 1_556 5_455
Ga3 O2 O3 39.3(4) 1_556 5_455
La O2 O3 91.4(4) . 5_455
O2 O2 O3 144.2(10) 3_455 5_455
O2 O2 O3 154.2(9) 4_445 5_455
O3 O2 O3 57.4(5) 2_455 5_455
O2 O2 O3 63.2(5) 6_556 5_455
Ga2 O2 La 90.6(6) 1_556 2_455
Ga3 O2 La 112.6(7) 1_556 2_455
La O2 La 103.4(6) . 2_455
O2 O2 La 50.8(4) 3_455 2_455
O2 O2 La 98.9(4) 4_445 2_455
O3 O2 La 50.1(4) 2_455 2_455
O2 O2 La 152.1(2) 6_556 2_455
O3 O2 La 97.7(6) 5_455 2_455
Ga2 O2 O1 84.0(4) 1_556 2_455
Ga3 O2 O1 154.0(9) 1_556 2_455
La O2 O1 55.9(3) . 2_455
O2 O2 O1 61.4(3) 3_455 2_455
O2 O2 O1 61.4(3) 4_445 2_455
O3 O2 O1 98.3(6) 2_455 2_455
O2 O2 O1 153.0(5) 6_556 2_455
O3 O2 O1 116.3(6) 5_455 2_455
La O2 O1 52.3(3) 2_455 2_455
Ga2 O2 O3 89.0(5) 1_556 3_456
Ga3 O2 O3 35.6(3) 1_556 3_456
La O2 O3 154.0(7) . 3_456
O2 O2 O3 94.6(6) 3_455 3_456
O2 O2 O3 125.8(3) 4_445 3_456
O3 O2 O3 58.5(6) 2_455 3_456
O2 O2 O3 58.0(6) 6_556 3_456
O3 O2 O3 70.8(5) 5_455 3_456
La O2 O3 97.7(6) 2_455 3_456
O1 O2 O3 148.9(7) 2_455 3_456
Ga2 O2 O1 31.0(3) 1_556 2_456
Ga3 O2 O1 89.2(6) 1_556 2_456
La O2 O1 122.3(6) . 2_456
O2 O2 O1 63.1(2) 3_455 2_456
O2 O2 O1 63.1(2) 4_445 2_456
O3 O2 O1 109.9(4) 2_455 2_456
O2 O2 O1 73.8(6) 6_556 2_456
O3 O2 O1 128.4(6) 5_455 2_456
La O2 O1 109.0(4) 2_455 2_456
O1 O2 O1 115.0(3) 2_455 2_456
O3 O2 O1 62.7(4) 3_456 2_456
Ga2 O2 O3 133.2(8) 1_556 3_455
Ga3 O2 O3 94.4(6) 1_556 3_455
La O2 O3 79.3(5) . 3_455
O2 O2 O3 94.1(5) 3_455 3_455
O2 O2 O3 121.1(3) 4_445 3_455
O3 O2 O3 49.5(5) 2_455 3_455
O2 O2 O3 124.3(4) 6_556 3_455
O3 O2 O3 61.4(5) 5_455 3_455
La O2 O3 44.5(3) 2_455 3_455
O1 O2 O3 59.8(4) 2_455 3_455
O3 O2 O3 106.5(6) 3_456 3_455
O1 O2 O3 152.1(6) 2_456 3_455
Ga2 O2 O1 127.7(8) 1_556 .
Ga3 O2 O1 75.4(4) 1_556 .
La O2 O1 45.3(3) . .
O2 O2 O1 154.3(6) 3_455 .
O2 O2 O1 96.6(7) 4_445 .
O3 O2 O1 114.0(4) 2_455 .
O2 O2 O1 56.3(4) 6_556 .
O3 O2 O1 57.7(3) 5_455 .
La O2 O1 132.3(5) 2_455 .
O1 O2 O1 99.3(3) 2_455 .
O3 O2 O1 108.8(5) 3_456 .
O1 O2 O1 118.3(6) 2_456 .
O3 O2 O1 89.3(4) 3_455 .
Ga2 O2 Nb 149.6(8) 1_556 1_455
Ga3 O2 Nb 61.5(4) 1_556 1_455
La O2 Nb 97.4(4) . 1_455
O2 O2 Nb 113.1(8) 3_455 1_455
O2 O2 Nb 153.8(3) 4_445 1_455
O3 O2 Nb 33.3(3) 2_455 1_455
O2 O2 Nb 95.0(3) 6_556 1_455
O3 O2 Nb 33.3(3) 5_455 1_455
La O2 Nb 64.3(4) 2_455 1_455
O1 O2 Nb 92.7(5) 2_455 1_455
O3 O2 Nb 78.2(4) 3_456 1_455
O1 O2 Nb 139.5(4) 2_456 1_455
O3 O2 Nb 32.9(2) 3_455 1_455
O1 O2 Nb 82.8(2) . 1_455
Ga2 O2 Ga1 149.6(8) 1_556 1_455
Ga3 O2 Ga1 61.5(4) 1_556 1_455
La O2 Ga1 97.4(4) . 1_455
O2 O2 Ga1 113.1(8) 3_455 1_455
O2 O2 Ga1 153.8(3) 4_445 1_455
O3 O2 Ga1 33.3(3) 2_455 1_455
O2 O2 Ga1 95.0(3) 6_556 1_455
O3 O2 Ga1 33.3(3) 5_455 1_455
La O2 Ga1 64.3(4) 2_455 1_455
O1 O2 Ga1 92.7(5) 2_455 1_455
O3 O2 Ga1 78.2(4) 3_456 1_455
O1 O2 Ga1 139.5(4) 2_456 1_455
O3 O2 Ga1 32.9(2) 3_455 1_455
O1 O2 Ga1 82.8(2) . 1_455
Nb O2 Ga1 0.0 1_455 1_455
Ga2 O2 Ga2 111.6(8) 1_556 2_565
Ga3 O2 Ga2 59.8(5) 1_556 2_565
La O2 Ga2 68.5(4) . 2_565
O2 O2 Ga2 151.3(7) 3_455 2_565
O2 O2 Ga2 96.5(7) 4_445 2_565
O3 O2 Ga2 117.2(3) 2_455 2_565
O2 O2 Ga2 29.1(2) 6_556 2_565
O3 O2 Ga2 62.7(3) 5_455 2_565
La O2 Ga2 157.6(5) 2_455 2_565
O1 O2 Ga2 124.4(4) 2_455 2_565
O3 O2 Ga2 86.3(5) 3_456 2_565
O1 O2 Ga2 92.5(5) 2_456 2_565
O3 O2 Ga2 113.2(3) 3_455 2_565
O1 O2 Ga2 28.7(3) . 2_565
Nb O2 Ga2 95.2(2) 1_455 2_565
Ga1 O2 Ga2 95.2(2) 1_455 2_565
Ga2 O2 O2 141.0(5) 1_556 6
Ga3 O2 O2 97.3(4) 1_556 6
La O2 O2 39.0(4) . 6
O2 O2 O2 123.2(5) 3_455 6
O2 O2 O2 102.42(19) 4_445 6
O3 O2 O2 89.6(4) 2_455 6
O2 O2 O2 99.5(6) 6_556 6
O3 O2 O2 59.4(4) 5_455 6
La O2 O2 85.7(6) 2_455 6
O1 O2 O2 63.2(5) 2_455 6
O3 O2 O2 130.0(3) 3_456 6
O1 O2 O2 160.2(5) 2_456 6
O3 O2 O2 46.2(3) 3_455 6
O1 O2 O2 46.9(4) . 6
Nb O2 O2 58.40(17) 1_455 6
Ga1 O2 O2 58.40(17) 1_455 6
Ga2 O2 O2 75.1(4) 2_565 6
Ga2 O2 O3 80.6(5) 1_556 6
Ga3 O2 O3 114.0(8) 1_556 6
La O2 O3 36.5(4) . 6
O2 O2 O3 106.5(5) 3_455 6
O2 O2 O3 46.7(6) 4_445 6
O3 O2 O3 161.8(5) 2_455 6
O2 O2 O3 76.7(3) 6_556 6
O3 O2 O3 107.8(5) 5_455 6
La O2 O3 130.5(4) 2_455 6
O1 O2 O3 78.2(3) 2_455 6
O3 O2 O3 130.4(7) 3_456 6
O1 O2 O3 87.5(5) 2_456 6
O3 O2 O3 115.8(4) 3_455 6
O1 O2 O3 50.0(3) . 6
Nb O2 O3 128.5(4) 1_455 6
Ga1 O2 O3 128.5(4) 1_455 6
Ga2 O2 O3 54.5(3) 2_565 6
O2 O2 O3 72.8(3) 6 6
Ga2 O2 La 64.5(6) 1_556 1_556
Ga3 O2 La 68.4(6) 1_556 1_556
La O2 La 102.7(6) . 1_556
O2 O2 La 102.3(2) 3_455 1_556
O2 O2 La 75.4(3) 4_445 1_556
O3 O2 La 122.1(4) 2_455 1_556
O2 O2 La 37.2(3) 6_556 1_556
O3 O2 La 100.0(5) 5_455 1_556
La O2 La 147.9(3) 2_455 1_556
O1 O2 La 136.5(5) 2_455 1_556
O3 O2 La 63.8(5) 3_456 1_556
O1 O2 La 39.9(3) 2_456 1_556
O3 O2 La 161.4(4) 3_455 1_556
O1 O2 La 79.7(4) . 1_556
Nb O2 La 129.6(3) 1_455 1_556
Ga1 O2 La 129.6(3) 1_455 1_556
Ga2 O2 La 52.6(3) 2_565 1_556
O2 O2 La 126.4(6) 6 1_556
O3 O2 La 68.0(4) 6 1_556
Ga2 O2 Ga3 107.8(4) 1_556 4_346
Ga3 O2 Ga3 48.9(4) 1_556 4_346
La O2 Ga3 144.8(5) . 4_346
O2 O2 Ga3 88.8(7) 3_455 4_346
O2 O2 Ga3 146.2(6) 4_445 4_346
O3 O2 Ga3 20.7(3) 2_455 4_346
O2 O2 Ga3 86.8(3) 6_556 4_346
O3 O2 Ga3 59.4(3) 5_455 4_346
La O2 Ga3 65.5(3) 2_455 4_346
O1 O2 Ga3 116.9(6) 2_455 4_346
O3 O2 Ga3 37.7(4) 3_456 4_346
O1 O2 Ga3 92.5(3) 2_456 4_346
O3 O2 Ga3 69.8(3) 3_455 4_346
O1 O2 Ga3 116.2(2) . 4_346
Nb O2 Ga3 47.43(17) 1_455 4_346
Ga1 O2 Ga3 47.43(17) 1_455 4_346
Ga2 O2 Ga3 108.3(2) 2_565 4_346
O2 O2 Ga3 105.83(18) 6 4_346
O3 O2 Ga3 162.8(4) 6 4_346
La O2 Ga3 101.5(3) 1_556 4_346
Ga2 O2 Ga3 44.0(4) 1_556 4_446
Ga3 O2 Ga3 124.9(9) 1_556 4_446
La O2 Ga3 66.6(3) . 4_446
O2 O2 Ga3 75.1(4) 3_455 4_446
O2 O2 Ga3 19.7(3) 4_445 4_446
O3 O2 Ga3 160.9(4) 2_455 4_446
O2 O2 Ga3 86.8(3) 6_556 4_446
O3 O2 Ga3 140.7(6) 5_455 4_446
La O2 Ga3 118.4(3) 2_455 4_446
O1 O2 Ga3 79.0(3) 2_455 4_446
O3 O2 Ga3 115.7(6) 3_456 4_446
O1 O2 Ga3 56.2(3) 2_456 4_446
O3 O2 Ga3 136.9(4) 3_455 4_446
O1 O2 Ga3 85.0(3) . 4_446
Nb O2 Ga3 164.0(3) 1_455 4_446
Ga1 O2 Ga3 164.0(3) 1_455 4_446
Ga2 O2 Ga3 78.6(4) 2_565 4_446
O2 O2 Ga3 105.57(15) 6 4_446
O3 O2 Ga3 36.6(2) 6 4_446
La O2 Ga3 57.5(3) 1_556 4_446
Ga3 O2 Ga3 148.6(3) 4_346 4_446
Ga2 O2 O3 52.7(6) 1_556 1_556
Ga3 O2 O3 100.1(8) 1_556 1_556
La O2 O3 76.9(5) . 1_556
O2 O2 O3 91.3(4) 3_455 1_556
O2 O2 O3 44.2(3) 4_445 1_556
O3 O2 O3 154.4(5) 2_455 1_556
O2 O2 O3 62.5(3) 6_556 1_556
O3 O2 O3 122.0(6) 5_455 1_556
La O2 O3 140.4(3) 2_455 1_556
O1 O2 O3 103.3(3) 2_455 1_556
O3 O2 O3 96.3(7) 3_456 1_556
O1 O2 O3 47.9(4) 2_456 1_556
O3 O2 O3 156.0(4) 3_455 1_556
O1 O2 O3 76.1(4) . 1_556
Nb O2 O3 155.2(4) 1_455 1_556
Ga1 O2 O3 155.2(4) 1_455 1_556
Ga2 O2 O3 60.1(3) 2_565 1_556
O2 O2 O3 112.4(3) 6 1_556
O3 O2 O3 40.5(5) 6 1_556
La O2 O3 33.8(2) 1_556 1_556
Ga3 O2 O3 133.7(4) 4_346 1_556
Ga3 O2 O3 24.81(15) 4_446 1_556
Ga2 O2 La 56.8(3) 1_556 2_456
Ga3 O2 La 68.2(3) 1_556 2_456
La O2 La 158.8(6) . 2_456
O2 O2 La 64.9(4) 3_455 2_456
O2 O2 La 96.0(2) 4_445 2_456
O3 O2 La 73.6(4) 2_455 2_456
O2 O2 La 77.0(5) 6_556 2_456
O3 O2 La 103.8(4) 5_455 2_456
La O2 La 89.3(3) 2_455 2_456
O1 O2 La 126.0(4) 2_455 2_456
O3 O2 La 33.3(2) 3_456 2_456
O1 O2 La 36.57(15) 2_456 2_456
O3 O2 La 120.9(5) 3_455 2_456
O1 O2 La 133.4(5) . 2_456
Nb O2 La 103.4(3) 1_455 2_456
Ga1 O2 La 103.4(3) 1_455 2_456
Ga2 O2 La 105.2(4) 2_565 2_456
O2 O2 La 161.46(15) 6 2_456
O3 O2 La 123.0(5) 6 2_456
La O2 La 60.6(2) 1_556 2_456
Ga3 O2 La 56.07(14) 4_346 2_456
Ga3 O2 La 92.5(3) 4_446 2_456
O3 O2 La 82.5(4) 1_556 2_456
Ga2 O2 La 49.3(3) 1_556 4_445
Ga3 O2 La 168.5(5) 1_556 4_445
La O2 La 70.0(2) . 4_445
O2 O2 La 41.0(4) 3_455 4_445
O2 O2 La 31.9(2) 4_445 4_445
O3 O2 La 117.0(5) 2_455 4_445
O2 O2 La 138.4(4) 6_556 4_445
O3 O2 La 151.4(6) 5_455 4_445
La O2 La 67.5(2) 2_455 4_445
O1 O2 La 35.3(2) 2_455 4_445
O3 O2 La 133.3(3) 3_456 4_445
O1 O2 La 80.1(2) 2_456 4_445
O3 O2 La 93.1(4) 3_455 4_445
O1 O2 La 113.5(3) . 4_445
Nb O2 La 125.3(5) 1_455 4_445
Ga1 O2 La 125.3(5) 1_455 4_445
Ga2 O2 La 124.5(4) 2_565 4_445
O2 O2 La 94.2(5) 6 4_445
O3 O2 La 70.2(2) 6 4_445
La O2 La 105.0(3) 1_556 4_445
Ga3 O2 La 126.7(4) 4_346 4_445
Ga3 O2 La 51.63(12) 4_446 4_445
O3 O2 La 76.0(2) 1_556 4_445
La O2 La 100.4(2) 2_456 4_445
Ga2 O2 Ga3 138.0(6) 1_556 .
Ga3 O2 Ga3 100.7(5) 1_556 .
La O2 Ga3 57.5(3) . .
O2 O2 Ga3 105.5(3) 3_455 .
O2 O2 Ga3 109.83(18) 4_445 .
O3 O2 Ga3 70.3(4) 2_455 .
O2 O2 Ga3 117.7(5) 6_556 .
O3 O2 Ga3 62.0(4) 5_455 .
La O2 Ga3 61.7(3) 2_455 .
O1 O2 Ga3 54.2(3) 2_455 .
O3 O2 Ga3 123.4(5) 3_456 .
O1 O2 Ga3 168.4(5) 2_456 .
O3 O2 Ga3 22.4(2) 3_455 .
O1 O2 Ga3 70.6(3) . .
Nb O2 Ga3 45.2(2) 1_455 .
Ga1 O2 Ga3 45.2(2) 1_455 .
Ga2 O2 Ga3 97.7(2) 2_565 .
O2 O2 Ga3 24.6(2) 6 .
O3 O2 Ga3 93.8(3) 6 .
La O2 Ga3 150.2(4) 1_556 .
Ga3 O2 Ga3 89.6(3) 4_346 .
Ga3 O2 Ga3 120.4(2) 4_446 .
O3 O2 Ga3 134.3(3) 1_556 .
La O2 Ga3 143.2(5) 2_456 .
La O2 Ga3 89.4(3) 4_445 .
Ga2 O2 O3 120.3(6) 1_556 4_456
Ga3 O2 O3 1.5(3) 1_556 4_456
La O2 O3 118.6(4) . 4_456
O2 O2 O3 131.0(6) 3_455 4_456
O2 O2 O3 143.3(6) 4_445 4_456
O3 O2 O3 63.7(4) 2_455 4_456
O2 O2 O3 38.6(3) 6_556 4_456
O3 O2 O3 38.7(5) 5_455 4_456
La O2 O3 113.8(4) 2_455 4_456
O1 O2 O3 154.0(6) 2_455 4_456
O3 O2 O3 36.9(3) 3_456 4_456
O1 O2 O3 89.7(4) 2_456 4_456
O3 O2 O3 94.6(3) 3_455 4_456
O1 O2 O3 73.9(3) . 4_456
Nb O2 O3 61.75(19) 1_455 4_456
Ga1 O2 O3 61.75(19) 1_455 4_456
Ga2 O2 O3 58.4(2) 2_565 4_456
O2 O2 O3 96.4(4) 6 4_456
O3 O2 O3 112.6(5) 6 4_456
La O2 O3 68.1(3) 1_556 4_456
Ga3 O2 O3 50.25(17) 4_346 4_456
Ga3 O2 O3 124.2(5) 4_446 4_456
O3 O2 O3 99.4(5) 1_556 4_456
La O2 O3 69.4(2) 2_456 4_456
La O2 O3 169.5(4) 4_445 4_456
Ga3 O2 O3 100.4(3) . 4_456
Ga2 O2 Ga3 37.3(4) 1_556 2_455
Ga3 O2 Ga3 116.0(4) 1_556 2_455
La O2 Ga3 123.8(3) . 2_455
O2 O2 Ga3 14.3(4) 3_455 2_455
O2 O2 Ga3 67.2(4) 4_445 2_455
O3 O2 Ga3 82.2(4) 2_455 2_455
O2 O2 Ga3 124.3(6) 6_556 2_455
O3 O2 Ga3 138.5(5) 5_455 2_455
La O2 Ga3 56.4(2) 2_455 2_455
O1 O2 Ga3 75.5(3) 2_455 2_455
O3 O2 Ga3 80.7(3) 3_456 2_455
O1 O2 Ga3 53.44(18) 2_456 2_455
O3 O2 Ga3 100.9(5) 3_455 2_455
O1 O2 Ga3 163.7(4) . 2_455
Nb O2 Ga3 112.6(4) 1_455 2_455
Ga1 O2 Ga3 112.6(4) 1_455 2_455
Ga2 O2 Ga3 145.8(5) 2_565 2_455
O2 O2 Ga3 136.2(7) 6 2_455
O3 O2 Ga3 113.7(3) 6 2_455
La O2 Ga3 93.3(3) 1_556 2_455
Ga3 O2 Ga3 79.6(2) 4_346 2_455
Ga3 O2 Ga3 78.83(17) 4_446 2_455
O3 O2 Ga3 89.9(3) 1_556 2_455
La O2 Ga3 50.61(12) 2_456 2_455
La O2 Ga3 53.80(12) 4_445 2_455
Ga3 O2 Ga3 115.9(4) . 2_455
O3 O2 Ga3 117.4(3) 4_456 2_455
Ga2 O2 O3 87.3(4) 1_556 .
Ga3 O2 O3 139.0(6) 1_556 .
La O2 O3 20.0(2) . .
O2 O2 O3 91.2(4) 3_455 .
O2 O2 O3 47.8(5) 4_445 .
O3 O2 O3 134.8(5) 2_455 .
O2 O2 O3 109.5(3) 6_556 .
O3 O2 O3 110.9(4) 5_455 .
La O2 O3 96.0(4) 2_455 .
O1 O2 O3 43.9(2) 2_455 .
O3 O2 O3 165.9(8) 3_456 .
O1 O2 O3 109.2(4) 2_456 .
O3 O2 O3 85.8(4) 3_455 .
O1 O2 O3 63.6(3) . .
Nb O2 O3 111.1(4) 1_455 .
Ga1 O2 O3 111.1(4) 1_455 .
Ga2 O2 O3 82.4(3) 2_565 .
O2 O2 O3 54.7(4) 6 .
O3 O2 O3 35.5(3) 6 .
La O2 O3 102.4(4) 1_556 .
Ga3 O2 O3 155.5(5) 4_346 .
Ga3 O2 O3 53.7(2) 4_446 .
O3 O2 O3 70.7(2) 1_556 .
La O2 O3 143.8(4) 2_456 .
La O2 O3 50.41(19) 4_445 .
Ga3 O2 O3 66.8(3) . .
O3 O2 O3 137.5(4) 4_456 .
Ga3 O2 O3 104.2(3) 2_455 .
Ga2 O2 O2 51.4(3) 1_556 2_456
Ga3 O2 O2 92.5(5) 1_556 2_456
La O2 O2 147.5(5) . 2_456
O2 O2 O2 37.1(5) 3_455 2_456
O2 O2 O2 88.2(4) 4_445 2_456
O3 O2 O2 65.9(3) 2_455 2_456
O2 O2 O2 108.9(7) 6_556 2_456
O3 O2 O2 117.3(5) 5_455 2_456
La O2 O2 60.1(2) 2_455 2_456
O1 O2 O2 95.3(4) 2_455 2_456
O3 O2 O2 57.7(3) 3_456 2_456
O1 O2 O2 51.9(3) 2_456 2_456
O3 O2 O2 100.2(5) 3_455 2_456
O1 O2 O2 165.2(6) . 2_456
Nb O2 O2 99.1(4) 1_455 2_456
Ga1 O2 O2 99.1(4) 1_455 2_456
Ga2 O2 O2 136.9(6) 2_565 2_456
O2 O2 O2 145.5(8) 6 2_456
O3 O2 O2 132.0(5) 6 2_456
La O2 O2 88.0(4) 1_556 2_456
Ga3 O2 O2 58.1(2) 4_346 2_456
Ga3 O2 O2 95.4(3) 4_446 2_456
O3 O2 O2 98.2(5) 1_556 2_456
La O2 O2 31.9(2) 2_456 2_456
La O2 O2 77.6(2) 4_445 2_456
Ga3 O2 O2 120.9(6) . 2_456
O3 O2 O2 93.9(4) 4_456 2_456
Ga3 O2 O2 23.81(13) 2_455 2_456
O3 O2 O2 128.0(4) . 2_456
Ga2 O2 O2 89.5(9) 1_556 2_566
Ga3 O2 O2 75.2(7) 1_556 2_566
La O2 O2 67.6(3) . 2_566
O2 O2 O2 128.7(8) 3_455 2_566
O2 O2 O2 75.4(7) 4_445 2_566
O3 O2 O2 137.1(5) 2_455 2_566
O2 O2 O2 36.4(2) 6_556 2_566
O3 O2 O2 85.4(4) 5_455 2_566
La O2 O2 170.7(5) 2_455 2_566
O1 O2 O2 118.5(4) 2_455 2_566
O3 O2 O2 91.6(7) 3_456 2_566
O1 O2 O2 75.3(7) 2_456 2_566
O3 O2 O2 132.3(4) 3_455 2_566
O1 O2 O2 43.0(3) . 2_566
Nb O2 O2 118.1(3) 1_455 2_566
Ga1 O2 O2 118.1(3) 1_455 2_566
Ga2 O2 O2 22.83(9) 2_565 2_566
O2 O2 O2 88.3(3) 6 2_566
O3 O2 O2 40.5(2) 6 2_566
La O2 O2 38.5(4) 1_556 2_566
Ga3 O2 O2 123.2(4) 4_346 2_566
Ga3 O2 O2 56.6(4) 4_446 2_566
O3 O2 O2 37.3(4) 1_556 2_566
La O2 O2 98.5(6) 2_456 2_566
La O2 O2 105.9(4) 4_445 2_566
Ga3 O2 O2 112.9(3) . 2_566
O3 O2 O2 74.0(4) 4_456 2_566
Ga3 O2 O2 125.8(6) 2_455 2_566
O3 O2 O2 74.8(3) . 2_566
O2 O2 O2 126.2(8) 2_456 2_566
Ga2 O2 Ga2 96.7(5) 1_556 .
Ga3 O2 Ga2 142.0(7) 1_556 .
La O2 Ga2 51.8(3) . .
O2 O2 Ga2 72.01(11) 3_455 .
O2 O2 Ga2 72.01(11) 4_445 .
O3 O2 Ga2 92.5(5) 2_455 .
O2 O2 Ga2 147.7(5) 6_556 .
O3 O2 Ga2 103.7(5) 5_455 .
La O2 Ga2 52.2(3) 2_455 .
O1 O2 Ga2 12.7(2) 2_455 .
O3 O2 Ga2 149.2(7) 3_456 .
O1 O2 Ga2 127.7(3) 2_456 .
O3 O2 Ga2 49.2(3) 3_455 .
O1 O2 Ga2 91.5(3) . .
Nb O2 Ga2 81.8(4) 1_455 .
Ga1 O2 Ga2 81.8(4) 1_455 .
Ga2 O2 Ga2 118.9(3) 2_565 .
O2 O2 Ga2 51.6(5) 6 .
O3 O2 Ga2 80.4(3) 6 .
La O2 Ga2 145.0(3) 1_556 .
Ga3 O2 Ga2 112.6(5) 4_346 .
Ga3 O2 Ga2 88.18(18) 4_446 .
O3 O2 Ga2 111.3(3) 1_556 .
La O2 Ga2 135.0(4) 2_456 .
La O2 Ga2 47.81(14) 4_445 .
Ga3 O2 Ga2 41.62(15) . .
O3 O2 Ga2 141.8(4) 4_456 .
Ga3 O2 Ga2 85.7(3) 2_455 .
O3 O2 Ga2 44.87(19) . .
O2 O2 Ga2 103.3(4) 2_456 .
O2 O2 Ga2 118.6(3) 2_566 .
Ga2 O2 La 161.0(9) 1_556 4_455
Ga3 O2 La 59.6(3) 1_556 4_455
La O2 La 64.9(2) . 4_455
O2 O2 La 157.2(5) 3_455 4_455
O2 O2 La 127.9(7) 4_445 4_455
O3 O2 La 80.3(3) 2_455 4_455
O2 O2 La 65.4(4) 6_556 4_455
O3 O2 La 26.9(3) 5_455 4_455
La O2 La 107.3(4) 2_455 4_455
O1 O2 La 101.7(4) 2_455 4_455
O3 O2 La 94.6(3) 3_456 4_455
O1 O2 La 139.2(5) 2_456 4_455
O3 O2 La 63.3(3) 3_455 4_455
O1 O2 La 33.93(12) . 4_455
Nb O2 La 49.02(12) 1_455 4_455
Ga1 O2 La 49.02(12) 1_455 4_455
Ga2 O2 La 50.32(13) 2_565 4_455
O2 O2 La 38.7(3) 6 4_455
O3 O2 La 82.9(3) 6 4_455
La O2 La 100.5(3) 1_556 4_455
Ga3 O2 La 85.88(19) 4_346 4_455
Ga3 O2 La 118.8(3) 4_446 4_455
O3 O2 La 108.3(4) 1_556 4_455
La O2 La 127.8(2) 2_456 4_455
La O2 La 131.8(3) 4_445 4_455
Ga3 O2 La 52.34(14) . 4_455
O3 O2 La 58.53(18) 4_456 4_455
Ga3 O2 La 161.6(5) 2_455 4_455
O3 O2 La 84.7(3) . 4_455
O2 O2 La 143.9(4) 2_456 4_455
O2 O2 La 71.81(17) 2_566 4_455
Ga2 O2 La 89.6(2) . 4_455
Ga2 O2 O3 167.8(9) 1_556 4_455
Ga3 O2 O3 68.2(4) 1_556 4_455
La O2 O3 75.4(4) . 4_455
O2 O2 O3 128.1(6) 3_455 4_455
O2 O2 O3 139.0(4) 4_445 4_455
O3 O2 O3 56.5(4) 2_455 4_455
O2 O2 O3 90.3(4) 6_556 4_455
O3 O2 O3 29.6(5) 5_455 4_455
La O2 O3 77.5(4) 2_455 4_455
O1 O2 O3 86.7(5) 2_455 4_455
O3 O2 O3 94.9(3) 3_456 4_455
O1 O2 O3 157.0(4) 2_456 4_455
O3 O2 O3 34.6(3) 3_455 4_455
O1 O2 O3 61.7(2) . 4_455
Nb O2 O3 23.23(16) 1_455 4_455
Ga1 O2 O3 23.23(16) 1_455 4_455
Ga2 O2 O3 80.2(2) 2_565 4_455
O2 O2 O3 37.0(3) 6 4_455
O3 O2 O3 105.3(3) 6 4_455
La O2 O3 127.4(4) 1_556 4_455
Ga3 O2 O3 69.6(3) 4_346 4_455
Ga3 O2 O3 141.2(3) 4_446 4_455
O3 O2 O3 137.8(4) 1_556 4_455
La O2 O3 124.5(3) 2_456 4_455
La O2 O3 122.0(5) 4_445 4_455
Ga3 O2 O3 32.6(2) . 4_455
O3 O2 O3 67.8(2) 4_456 4_455
Ga3 O2 O3 132.1(5) 2_455 4_455
O3 O2 O3 91.5(5) . 4_455
O2 O2 O3 122.0(5) 2_456 4_455
O2 O2 O3 101.9(3) 2_566 4_455
Ga2 O2 O3 74.2(3) . 4_455
La O2 O3 30.06(12) 4_455 4_455
Ga2 O2 O2 84.7(3) 1_556 5_346
Ga3 O2 O2 62.3(4) 1_556 5_346
La O2 O2 163.7(10) . 5_346
O2 O2 O2 69.3(6) 3_455 5_346
O2 O2 O2 123.3(4) 4_445 5_346
O3 O2 O2 37.1(4) 2_455 5_346
O2 O2 O2 92.8(6) 6_556 5_346
O3 O2 O2 81.9(4) 5_455 5_346
La O2 O2 63.1(4) 2_455 5_346
O1 O2 O2 114.1(7) 2_455 5_346
O3 O2 O2 35.0(3) 3_456 5_346
O1 O2 O2 72.8(3) 2_456 5_346
O3 O2 O2 84.5(6) 3_455 5_346
O1 O2 O2 136.43(19) . 5_346
Nb O2 O2 69.0(4) 1_455 5_346
Ga1 O2 O2 69.0(4) 1_455 5_346
Ga2 O2 O2 120.1(4) 2_565 5_346
O2 O2 O2 126.7(5) 6 5_346
O3 O2 O2 159.7(7) 6 5_346
La O2 O2 93.1(5) 1_556 5_346
Ga3 O2 O2 23.19(19) 4_346 5_346
Ga3 O2 O2 126.9(4) 4_446 5_346
O3 O2 O2 119.2(6) 1_556 5_346
La O2 O2 36.8(2) 2_456 5_346
La O2 O2 109.9(3) 4_445 5_346
Ga3 O2 O2 106.5(6) . 5_346
O3 O2 O2 63.8(2) 4_456 5_346
Ga3 O2 O2 58.09(14) 2_455 5_346
O3 O2 O2 157.4(5) . 5_346
O2 O2 O2 35.4(2) 2_456 5_346
O2 O2 O2 126.1(7) 2_566 5_346
Ga2 O2 O2 115.3(6) . 5_346
La O2 O2 108.7(2) 4_455 5_346
O3 O2 O2 91.9(4) 4_455 5_346
Ga2 O2 Ga1 99.0(5) 1_556 1_456
Ga3 O2 Ga1 23.3(2) 1_556 1_456
La O2 Ga1 141.9(5) . 1_456
O2 O2 Ga1 107.2(5) 3_455 1_456
O2 O2 Ga1 132.48(17) 4_445 1_456
O3 O2 Ga1 60.2(3) 2_455 1_456
O2 O2 Ga1 48.6(3) 6_556 1_456
O3 O2 Ga1 60.2(4) 5_455 1_456
La O2 Ga1 105.1(3) 2_455 1_456
O1 O2 Ga1 157.4(6) 2_455 1_456
O3 O2 Ga1 12.5(2) 3_456 1_456
O1 O2 Ga1 70.4(3) 2_456 1_456
O3 O2 Ga1 104.5(3) 3_455 1_456
O1 O2 Ga1 96.5(3) . 1_456
Nb O2 Ga1 73.27(16) 1_455 1_456
Ga1 O2 Ga1 73.27(16) 1_455 1_456
Ga2 O2 Ga1 75.5(2) 2_565 1_456
O2 O2 Ga1 119.5(3) 6 1_456
O3 O2 Ga1 124.4(5) 6 1_456
La O2 Ga1 62.5(2) 1_556 1_456
Ga3 O2 Ga1 40.72(9) 4_346 1_456
Ga3 O2 Ga1 118.6(4) 4_446 1_456
O3 O2 Ga1 96.2(4) 1_556 1_456
La O2 Ga1 45.03(11) 2_456 1_456
La O2 Ga1 145.4(3) 4_445 1_456
Ga3 O2 Ga1 117.6(3) . 1_456
O3 O2 Ga1 24.53(17) 4_456 1_456
Ga3 O2 Ga1 93.23(19) 2_455 1_456
O3 O2 Ga1 157.9(5) . 1_456
O2 O2 Ga1 70.2(3) 2_456 1_456
O2 O2 Ga1 84.1(4) 2_566 1_456
Ga2 O2 Ga1 152.5(4) . 1_456
La O2 Ga1 82.75(15) 4_455 1_456
O3 O2 Ga1 86.6(3) 4_455 1_456
O2 O2 Ga1 44.6(2) 5_346 1_456
Ga2 O2 Nb 99.0(5) 1_556 1_456
Ga3 O2 Nb 23.3(2) 1_556 1_456
La O2 Nb 141.9(5) . 1_456
O2 O2 Nb 107.2(5) 3_455 1_456
O2 O2 Nb 132.48(17) 4_445 1_456
O3 O2 Nb 60.2(3) 2_455 1_456
O2 O2 Nb 48.6(3) 6_556 1_456
O3 O2 Nb 60.2(4) 5_455 1_456
La O2 Nb 105.1(3) 2_455 1_456
O1 O2 Nb 157.4(6) 2_455 1_456
O3 O2 Nb 12.5(2) 3_456 1_456
O1 O2 Nb 70.4(3) 2_456 1_456
O3 O2 Nb 104.5(3) 3_455 1_456
O1 O2 Nb 96.5(3) . 1_456
Nb O2 Nb 73.27(16) 1_455 1_456
Ga1 O2 Nb 73.27(16) 1_455 1_456
Ga2 O2 Nb 75.5(2) 2_565 1_456
O2 O2 Nb 119.5(3) 6 1_456
O3 O2 Nb 124.4(5) 6 1_456
La O2 Nb 62.5(2) 1_556 1_456
Ga3 O2 Nb 40.72(9) 4_346 1_456
Ga3 O2 Nb 118.6(4) 4_446 1_456
O3 O2 Nb 96.2(4) 1_556 1_456
La O2 Nb 45.03(11) 2_456 1_456
La O2 Nb 145.4(3) 4_445 1_456
Ga3 O2 Nb 117.6(3) . 1_456
O3 O2 Nb 24.53(17) 4_456 1_456
Ga3 O2 Nb 93.23(19) 2_455 1_456
O3 O2 Nb 157.9(5) . 1_456
O2 O2 Nb 70.2(3) 2_456 1_456
O2 O2 Nb 84.1(4) 2_566 1_456
Ga2 O2 Nb 152.5(4) . 1_456
La O2 Nb 82.75(15) 4_455 1_456
O3 O2 Nb 86.6(3) 4_455 1_456
O2 O2 Nb 44.6(2) 5_346 1_456
Ga1 O2 Nb 0.0 1_456 1_456
Ga2 O2 O1 82.8(5) 1_556 1_445
Ga3 O2 O1 95.4(6) 1_556 1_445
La O2 O1 129.2(6) . 1_445
O2 O2 O1 47.9(5) 3_455 1_445
O2 O2 O1 107.1(6) 4_445 1_445
O3 O2 O1 39.2(3) 2_455 1_445
O2 O2 O1 130.7(4) 6_556 1_445
O3 O2 O1 96.3(5) 5_455 1_445
La O2 O1 25.7(2) 2_455 1_445
O1 O2 O1 76.0(4) 2_455 1_445
O3 O2 O1 73.1(5) 3_456 1_445
O1 O2 O1 90.7(3) 2_456 1_445
O3 O2 O1 61.5(4) 3_455 1_445
O1 O2 O1 149.0(5) . 1_445
Nb O2 O1 67.1(3) 1_455 1_445
Ga1 O2 O1 67.1(3) 1_455 1_445
Ga2 O2 O1 154.9(3) 2_565 1_445
O2 O2 O1 107.2(5) 6 1_445
O3 O2 O1 150.6(3) 6 1_445
La O2 O1 124.9(3) 1_556 1_445
Ga3 O2 O1 46.6(2) 4_346 1_445
Ga3 O2 O1 122.9(2) 4_446 1_445
O3 O2 O1 134.9(3) 1_556 1_445
La O2 O1 64.6(3) 2_456 1_445
La O2 O1 80.5(3) 4_445 1_445
Ga3 O2 O1 82.6(4) . 1_445
O3 O2 O1 96.8(3) 4_456 1_445
Ga3 O2 O1 45.59(18) 2_455 1_445
O3 O2 O1 119.8(4) . 1_445
O2 O2 O1 38.7(3) 2_456 1_445
O2 O2 O1 162.9(6) 2_566 1_445
Ga2 O2 O1 77.6(3) . 1_445
La O2 O1 116.0(4) 4_455 1_445
O3 O2 O1 87.3(4) 4_455 1_445
O2 O2 O1 38.2(4) 5_346 1_445
Ga1 O2 O1 82.1(2) 1_456 1_445
Nb O2 O1 82.1(2) 1_456 1_445
Ga2 O2 O3 139.9(5) 1_556 6_455
Ga3 O2 O3 41.8(5) 1_556 6_455
La O2 O3 114.1(4) . 6_455
O2 O2 O3 115.8(8) 3_455 6_455
O2 O2 O3 174.1(6) 4_445 6_455
O3 O2 O3 28.9(3) 2_455 6_455
O2 O2 O3 79.4(2) 6_556 6_455
O3 O2 O3 29.0(3) 5_455 6_455
La O2 O3 75.3(3) 2_455 6_455
O1 O2 O3 113.3(6) 2_455 6_455
O3 O2 O3 57.1(5) 3_456 6_455
O1 O2 O3 119.5(4) 2_456 6_455
O3 O2 O3 53.8(4) 3_455 6_455
O1 O2 O3 86.6(2) . 6_455
Nb O2 O3 21.71(19) 1_455 6_455
Ga1 O2 O3 21.71(19) 1_455 6_455
Ga2 O2 O3 88.8(2) 2_565 6_455
O2 O2 O3 76.2(3) 6 6_455
O3 O2 O3 136.7(4) 6 6_455
La O2 O3 110.1(3) 1_556 6_455
Ga3 O2 O3 32.2(2) 4_346 6_455
Ga3 O2 O3 166.2(5) 4_446 6_455
O3 O2 O3 141.6(4) 1_556 6_455
La O2 O3 85.2(3) 2_456 6_455
La O2 O3 142.2(5) 4_445 6_455
Ga3 O2 O3 66.6(3) . 6_455
O3 O2 O3 42.4(3) 4_456 6_455
Ga3 O2 O3 109.7(4) 2_455 6_455
O3 O2 O3 130.8(3) . 6_455
O2 O2 O3 89.9(4) 2_456 6_455
O2 O2 O3 110.2(3) 2_566 6_455
Ga2 O2 O3 103.1(4) . 6_455
La O2 O3 54.2(2) 4_455 6_455
O3 O2 O3 39.3(4) 4_455 6_455
O2 O2 O3 55.4(3) 5_346 6_455
Ga1 O2 O3 51.6(2) 1_456 6_455
Nb O2 O3 51.6(2) 1_456 6_455
O1 O2 O3 68.2(3) 1_445 6_455
Ga2 O2 Ga2 72.9(4) 1_556 2_455
Ga3 O2 Ga2 84.1(4) 1_556 2_455
La O2 Ga2 149.5(6) . 2_455
O2 O2 Ga2 48.7(6) 3_455 2_455
O2 O2 Ga2 106.8(5) 4_445 2_455
O3 O2 Ga2 44.2(3) 2_455 2_455
O2 O2 Ga2 112.9(4) 6_556 2_455
O3 O2 Ga2 98.9(4) 5_455 2_455
La O2 Ga2 46.89(19) 2_455 2_455
O1 O2 Ga2 94.0(4) 2_455 2_455
O3 O2 Ga2 55.1(3) 3_456 2_455
O1 O2 Ga2 72.3(2) 2_456 2_455
O3 O2 Ga2 80.6(4) 3_455 2_455
O1 O2 Ga2 156.4(3) . 2_455
Nb O2 Ga2 77.2(3) 1_455 2_455
Ga1 O2 Ga2 77.2(3) 1_455 2_455
Ga2 O2 Ga2 141.4(3) 2_565 2_455
O2 O2 Ga2 126.8(5) 6 2_455
O3 O2 Ga2 153.0(3) 6 2_455
La O2 Ga2 103.7(2) 1_556 2_455
Ga3 O2 Ga2 40.28(13) 4_346 2_455
Ga3 O2 Ga2 116.8(2) 4_446 2_455
O3 O2 Ga2 119.7(4) 1_556 2_455
La O2 Ga2 43.16(12) 2_456 2_455
La O2 Ga2 88.5(2) 4_445 2_455
Ga3 O2 Ga2 102.6(4) . 2_455
O3 O2 Ga2 85.6(2) 4_456 2_455
Ga3 O2 Ga2 39.62(11) 2_455 2_455
O3 O2 Ga2 135.8(4) . 2_455
O2 O2 Ga2 22.02(16) 2_456 2_455
O2 O2 Ga2 141.5(6) 2_566 2_455
Ga2 O2 Ga2 97.7(4) . 2_455
La O2 Ga2 124.1(3) 4_455 2_455
O3 O2 Ga2 100.0(4) 4_455 2_455
O2 O2 Ga2 21.92(17) 5_346 2_455
Ga1 O2 Ga2 65.96(14) 1_456 2_455
Nb O2 Ga2 65.96(14) 1_456 2_455
O1 O2 Ga2 21.5(2) 1_445 2_455
O3 O2 Ga2 70.2(3) 6_455 2_455
Ga2 O2 Ga3 136.8(5) 1_556 2_465
Ga3 O2 Ga3 21.5(4) 1_556 2_465
La O2 Ga3 114.1(3) . 2_465
O2 O2 Ga3 129.8(7) 3_455 2_465
O2 O2 Ga3 164.3(6) 4_445 2_465
O3 O2 Ga3 47.4(3) 2_455 2_465
O2 O2 Ga3 57.8(2) 6_556 2_465
O3 O2 Ga3 23.2(3) 5_455 2_465
La O2 Ga3 96.3(4) 2_455 2_465
O1 O2 Ga3 132.6(6) 2_455 2_465
O3 O2 Ga3 47.8(2) 3_456 2_465
O1 O2 Ga3 108.3(3) 2_456 2_465
O3 O2 Ga3 72.9(3) 3_455 2_465
O1 O2 Ga3 75.45(17) . 2_465
Nb O2 Ga3 40.05(9) 1_455 2_465
Ga1 O2 Ga3 40.05(9) 1_455 2_465
Ga2 O2 Ga3 70.04(16) 2_565 2_465
O2 O2 Ga3 82.2(3) 6 2_465
O3 O2 Ga3 123.0(4) 6 2_465
La O2 Ga3 89.7(3) 1_556 2_465
Ga3 O2 Ga3 41.06(10) 4_346 2_465
Ga3 O2 Ga3 144.6(5) 4_446 2_465
O3 O2 Ga3 120.1(4) 1_556 2_465
La O2 Ga3 80.60(16) 2_456 2_465
La O2 Ga3 163.7(5) 4_445 2_465
Ga3 O2 Ga3 80.7(2) . 2_465
O3 O2 Ga3 21.70(15) 4_456 2_465
Ga3 O2 Ga3 119.6(3) 2_455 2_465
O3 O2 Ga3 133.9(3) . 2_465
O2 O2 Ga3 96.4(3) 2_456 2_465
O2 O2 Ga3 89.9(3) 2_566 2_465
Ga2 O2 Ga3 121.0(4) . 2_465
La O2 Ga3 49.21(9) 4_455 2_465
O3 O2 Ga3 48.7(2) 4_455 2_465
O2 O2 Ga3 61.48(15) 5_346 2_465
Ga1 O2 Ga3 38.08(7) 1_456 2_465
Nb O2 Ga3 38.08(7) 1_456 2_465
O1 O2 Ga3 85.4(2) 1_445 2_465
O3 O2 Ga3 21.56(13) 6_455 2_465
Ga2 O2 Ga3 81.19(19) 2_455 2_465
Ga2 O2 Ga3 81.4(6) 1_556 2_565
Ga3 O2 Ga3 96.8(7) 1_556 2_565
La O2 Ga3 51.7(4) . 2_565
O2 O2 Ga3 115.6(6) 3_455 2_565
O2 O2 Ga3 56.9(6) 4_445 2_565
O3 O2 Ga3 156.9(4) 2_455 2_565
O2 O2 Ga3 58.24(14) 6_556 2_565
O3 O2 Ga3 100.2(5) 5_455 2_565
La O2 Ga3 149.4(3) 2_455 2_565
O1 O2 Ga3 97.3(3) 2_455 2_565
O3 O2 Ga3 111.6(7) 3_456 2_565
O1 O2 Ga3 78.4(4) 2_456 2_565
O3 O2 Ga3 128.3(3) 3_455 2_565
O1 O2 Ga3 46.3(2) . 2_565
Nb O2 Ga3 128.9(3) 1_455 2_565
Ga1 O2 Ga3 128.9(3) 1_455 2_565
Ga2 O2 Ga3 39.76(19) 2_565 2_565
O2 O2 Ga3 82.3(2) 6 2_565
O3 O2 Ga3 19.1(2) 6 2_565
La O2 Ga3 51.0(2) 1_556 2_565
Ga3 O2 Ga3 145.0(4) 4_346 2_565
Ga3 O2 Ga3 40.50(16) 4_446 2_565
O3 O2 Ga3 31.1(2) 1_556 2_565
La O2 Ga3 110.1(4) 2_456 2_565
La O2 Ga3 85.3(2) 4_445 2_565
Ga3 O2 Ga3 106.0(2) . 2_565
O3 O2 Ga3 95.5(4) 4_456 2_565
Ga3 O2 Ga3 118.3(3) 2_455 2_565
O3 O2 Ga3 54.4(2) . 2_565
O2 O2 Ga3 129.3(5) 2_456 2_565
O2 O2 Ga3 21.86(14) 2_566 2_565
Ga2 O2 Ga3 99.2(2) . 2_565
La O2 Ga3 79.9(2) 4_455 2_565
O3 O2 Ga3 107.6(3) 4_455 2_565
O2 O2 Ga3 144.0(6) 5_346 2_565
Ga1 O2 Ga3 105.3(4) 1_456 2_565
Nb O2 Ga3 105.3(4) 1_456 2_565
O1 O2 Ga3 163.4(2) 1_445 2_565
O3 O2 Ga3 128.1(3) 6_455 2_565
Ga2 O2 Ga3 150.6(3) 2_455 2_565
Ga3 O2 Ga3 109.7(3) 2_465 2_565
Ga2 O2 O2 62.4(5) 1_556 1_556
Ga3 O2 O2 58.3(5) 1_556 1_556
La O2 O2 130.4(5) . 1_556
O2 O2 O2 90.001(1) 3_455 1_556
O2 O2 O2 90.000(1) 4_445 1_556
O3 O2 O2 97.2(4) 2_455 1_556
O2 O2 O2 46.9(4) 6_556 1_556
O3 O2 O2 97.1(4) 5_455 1_556
La O2 O2 123.4(2) 2_455 1_556
O1 O2 O2 146.4(3) 2_455 1_556
O3 O2 O2 39.4(5) 3_456 1_556
O1 O2 O2 31.4(3) 2_456 1_556
O3 O2 O2 145.9(2) 3_455 1_556
O1 O2 O2 101.3(4) . 1_556
Nb O2 O2 115.9(2) 1_455 1_556
Ga1 O2 O2 115.9(2) 1_455 1_556
Ga2 O2 O2 72.6(2) 2_565 1_556
O2 O2 O2 146.5(5) 6 1_556
O3 O2 O2 95.2(3) 6 1_556
La O2 O2 27.70(17) 1_556 1_556
Ga3 O2 O2 76.5(3) 4_346 1_556
Ga3 O2 O2 76.7(2) 4_446 1_556
O3 O2 O2 57.3(2) 1_556 1_556
La O2 O2 34.1(3) 2_456 1_556
La O2 O2 111.4(2) 4_445 1_556
Ga3 O2 O2 159.05(12) . 1_556
O3 O2 O2 58.7(3) 4_456 1_556
Ga3 O2 O2 77.3(2) 2_455 1_556
O3 O2 O2 128.0(3) . 1_556
O2 O2 O2 64.6(4) 2_456 1_556
O2 O2 O2 64.6(4) 2_566 1_556
Ga2 O2 O2 159.11(13) . 1_556
La O2 O2 110.2(2) 4_455 1_556
O3 O2 O2 126.5(3) 4_455 1_556
O2 O2 O2 65.5(5) 5_346 1_556
Ga1 O2 O2 42.6(2) 1_456 1_556
Nb O2 O2 42.6(2) 1_456 1_556
O1 O2 O2 98.4(3) 1_445 1_556
O3 O2 O2 94.2(2) 6_455 1_556
Ga2 O2 O2 76.9(2) 2_455 1_556
Ga3 O2 O2 78.6(2) 2_465 1_556
Ga3 O2 O2 78.71(17) 2_565 1_556
Ga2 O2 O2 117.6(5) 1_556 1_554
Ga3 O2 O2 121.7(5) 1_556 1_554
La O2 O2 49.6(5) . 1_554
O2 O2 O2 90.000(1) 3_455 1_554
O2 O2 O2 90.0 4_445 1_554
O3 O2 O2 82.8(4) 2_455 1_554
O2 O2 O2 133.1(4) 6_556 1_554
O3 O2 O2 82.9(4) 5_455 1_554
La O2 O2 56.6(2) 2_455 1_554
O1 O2 O2 33.6(3) 2_455 1_554
O3 O2 O2 140.6(5) 3_456 1_554
O1 O2 O2 148.6(3) 2_456 1_554
O3 O2 O2 34.1(2) 3_455 1_554
O1 O2 O2 78.7(4) . 1_554
Nb O2 O2 64.1(2) 1_455 1_554
Ga1 O2 O2 64.1(2) 1_455 1_554
Ga2 O2 O2 107.4(2) 2_565 1_554
O2 O2 O2 33.5(5) 6 1_554
O3 O2 O2 84.8(3) 6 1_554
La O2 O2 152.30(17) 1_556 1_554
Ga3 O2 O2 103.5(3) 4_346 1_554
Ga3 O2 O2 103.3(2) 4_446 1_554
O3 O2 O2 122.7(2) 1_556 1_554
La O2 O2 145.9(3) 2_456 1_554
La O2 O2 68.6(2) 4_445 1_554
Ga3 O2 O2 20.95(12) . 1_554
O3 O2 O2 121.3(3) 4_456 1_554
Ga3 O2 O2 102.7(2) 2_455 1_554
O3 O2 O2 52.0(3) . 1_554
O2 O2 O2 115.4(4) 2_456 1_554
O2 O2 O2 115.4(4) 2_566 1_554
Ga2 O2 O2 20.89(13) . 1_554
La O2 O2 69.8(2) 4_455 1_554
O3 O2 O2 53.5(3) 4_455 1_554
O2 O2 O2 114.5(5) 5_346 1_554
Ga1 O2 O2 137.4(2) 1_456 1_554
Nb O2 O2 137.4(2) 1_456 1_554
O1 O2 O2 81.6(3) 1_445 1_554
O3 O2 O2 85.8(2) 6_455 1_554
Ga2 O2 O2 103.1(2) 2_455 1_554
Ga3 O2 O2 101.4(2) 2_465 1_554
Ga3 O2 O2 101.29(17) 2_565 1_554
O2 O2 O2 179.999(4) 1_556 1_554
Ga2 O2 O2 84.8(4) 1_556 2_455
Ga3 O2 O2 123.8(7) 1_556 2_455
La O2 O2 95.8(7) . 2_455
O2 O2 O2 45.5(2) 3_455 2_455
O2 O2 O2 88.4(4) 4_445 2_455
O3 O2 O2 61.2(4) 2_455 2_455
O2 O2 O2 163.2(2) 6_556 2_455
O3 O2 O2 106.2(7) 5_455 2_455
La O2 O2 11.16(5) 2_455 2_455
O1 O2 O2 42.3(4) 2_455 2_455
O3 O2 O2 107.1(4) 3_456 2_455
O1 O2 O2 107.5(3) 2_456 2_455
O3 O2 O2 48.6(5) 3_455 2_455
O1 O2 O2 131.0(6) . 2_455
Nb O2 O2 73.0(5) 1_455 2_455
Ga1 O2 O2 73.0(5) 1_455 2_455
Ga2 O2 O2 159.5(5) 2_565 2_455
O2 O2 O2 84.4(8) 6 2_455
O3 O2 O2 119.9(4) 6 2_455
La O2 O2 147.3(4) 1_556 2_455
Ga3 O2 O2 76.5(2) 4_346 2_455
Ga3 O2 O2 108.0(3) 4_446 2_455
O3 O2 O2 131.2(3) 1_556 2_455
La O2 O2 94.05(16) 2_456 2_455
La O2 O2 56.7(2) 4_445 2_455
Ga3 O2 O2 62.0(5) . 2_455
O3 O2 O2 124.9(4) 4_456 2_455
Ga3 O2 O2 54.04(11) 2_455 2_455
O3 O2 O2 86.2(4) . 2_455
O2 O2 O2 62.95(8) 2_456 2_455
O2 O2 O2 160.3(4) 2_566 2_455
Ga2 O2 O2 44.0(4) . 2_455
La O2 O2 111.7(6) 4_455 2_455
O3 O2 O2 83.1(5) 4_455 2_455
O2 O2 O2 72.1(3) 5_346 2_455
Ga1 O2 O2 115.4(2) 1_456 2_455
Nb O2 O2 115.4(2) 1_456 2_455
O1 O2 O2 33.96(19) 1_445 2_455
O3 O2 O2 85.8(4) 6_455 2_455
Ga2 O2 O2 53.73(8) 2_455 2_455
Ga3 O2 O2 107.1(4) 2_465 2_455
Ga3 O2 O2 138.5(3) 2_565 2_455
O2 O2 O2 127.5(3) 1_556 2_455
O2 O2 O2 52.5(3) 1_554 2_455
Ga2 O2 O2 116.7(6) 1_556 2_565
Ga3 O2 O2 107.1(4) 1_556 2_565
La O2 O2 13.16(17) . 2_565
O2 O2 O2 123.3(5) 3_455 2_565
O2 O2 O2 77.2(7) 4_445 2_565
O3 O2 O2 121.4(6) 2_455 2_565
O2 O2 O2 88.1(3) 6_556 2_565
O3 O2 O2 78.9(3) 5_455 2_565
La O2 O2 108.9(5) 2_455 2_565
O1 O2 O2 66.2(3) 2_455 2_565
O3 O2 O2 141.9(4) 3_456 2_565
O1 O2 O2 128.2(6) 2_456 2_565
O3 O2 O2 77.0(4) 3_455 2_565
O1 O2 O2 33.3(2) . 2_565
Nb O2 O2 89.0(3) 1_455 2_565
Ga1 O2 O2 89.0(3) 1_455 2_565
Ga2 O2 O2 59.02(11) 2_565 2_565
O2 O2 O2 32.1(2) 6 2_565
O3 O2 O2 40.8(3) 6 2_565
La O2 O2 100.7(4) 1_556 2_565
Ga3 O2 O2 135.3(4) 4_346 2_565
Ga3 O2 O2 75.1(3) 4_446 2_565
O3 O2 O2 80.5(3) 1_556 2_565
La O2 O2 161.2(6) 2_456 2_565
La O2 O2 83.1(3) 4_445 2_565
Ga3 O2 O2 54.6(2) . 2_565
O3 O2 O2 105.7(2) 4_456 2_565
Ga3 O2 O2 136.9(3) 2_455 2_565
O3 O2 O2 33.1(3) . 2_565
O2 O2 O2 160.3(4) 2_456 2_565
O2 O2 O2 62.95(8) 2_566 2_565
Ga2 O2 O2 59.9(2) . 2_565
La O2 O2 52.09(15) 4_455 2_565
O3 O2 O2 66.1(3) 4_455 2_565
O2 O2 O2 158.0(6) 5_346 2_565
Ga1 O2 O2 129.4(3) 1_456 2_565
Nb O2 O2 129.4(3) 1_456 2_565
O1 O2 O2 134.1(5) 1_445 2_565
O3 O2 O2 103.4(4) 6_455 2_565
Ga2 O2 O2 155.5(5) 2_455 2_565
Ga3 O2 O2 101.2(2) 2_465 2_565
Ga3 O2 O2 51.53(19) 2_565 2_565
O2 O2 O2 127.5(3) 1_556 2_565
O2 O2 O2 52.5(3) 1_554 2_565
O2 O2 O2 103.1(5) 2_455 2_565
Ga2 O2 O3 18.6(3) 1_556 4_446
Ga3 O2 O3 114.1(5) 1_556 4_446
La O2 O3 120.1(3) . 4_446
O2 O2 O3 27.9(2) 3_455 4_446
O2 O2 O3 55.7(4) 4_445 4_446
O3 O2 O3 98.5(4) 2_455 4_446
O2 O2 O3 108.8(6) 6_556 4_446
O3 O2 O3 148.5(4) 5_455 4_446
La O2 O3 76.4(3) 2_455 4_446
O1 O2 O3 84.8(3) 2_455 4_446
O3 O2 O3 79.4(4) 3_456 4_446
O1 O2 O3 35.2(2) 2_456 4_446
O3 O2 O3 120.8(5) 3_455 4_446
O1 O2 O3 146.0(5) . 4_446
Nb O2 O3 131.0(4) 1_455 4_446
Ga1 O2 O3 131.0(4) 1_455 4_446
Ga2 O2 O3 126.0(5) 2_565 4_446
O2 O2 O3 147.9(6) 6 4_446
O3 O2 O3 99.0(4) 6 4_446
La O2 O3 74.6(3) 1_556 4_446
Ga3 O2 O3 90.8(3) 4_346 4_446
Ga3 O2 O3 62.5(2) 4_446 4_446
O3 O2 O3 70.1(3) 1_556 4_446
La O2 O3 46.1(2) 2_456 4_446
La O2 O3 54.5(2) 4_445 4_446
Ga3 O2 O3 133.4(4) . 4_446
O3 O2 O3 115.1(4) 4_456 4_446
Ga3 O2 O3 20.23(11) 2_455 4_446
O3 O2 O3 100.52(17) . 4_446
O2 O2 O3 33.2(2) 2_456 4_446
O2 O2 O3 105.5(6) 2_566 4_446
Ga2 O2 O3 96.9(3) . 4_446
La O2 O3 173.4(4) 4_455 4_446
O3 O2 O3 152.1(5) 4_455 4_446
O2 O2 O3 67.7(2) 5_346 4_446
Ga1 O2 O3 91.1(3) 1_456 4_446
Nb O2 O3 91.1(3) 1_456 4_446
O1 O2 O3 64.9(2) 1_445 4_446
O3 O2 O3 122.9(3) 6_455 4_446
Ga2 O2 O3 54.32(17) 2_455 4_446
Ga3 O2 O3 125.6(3) 2_465 4_446
Ga3 O2 O3 99.8(3) 2_565 4_446
O2 O2 O3 63.5(3) 1_556 4_446
O2 O2 O3 116.5(3) 1_554 4_446
O2 O2 O3 72.9(2) 2_455 4_446
O2 O2 O3 132.5(4) 2_565 4_446
Ga2 O2 O3 109.9(4) 1_556 1_456
Ga3 O2 O3 30.5(4) 1_556 1_456
La O2 O3 143.5(4) . 1_456
O2 O2 O3 102.3(7) 3_455 1_456
O2 O2 O3 149.1(3) 4_445 1_456
O3 O2 O3 37.6(4) 2_455 1_456
O2 O2 O3 67.5(3) 6_556 1_456
O3 O2 O3 52.1(5) 5_455 1_456
La O2 O3 84.8(3) 2_455 1_456
O1 O2 O3 135.7(6) 2_455 1_456
O3 O2 O3 24.5(2) 3_456 1_456
O1 O2 O3 86.6(3) 2_456 1_456
O3 O2 O3 82.8(3) 3_455 1_456
O1 O2 O3 103.3(3) . 1_456
Nb O2 O3 53.8(2) 1_455 1_456
Ga1 O2 O3 53.8(2) 1_455 1_456
Ga2 O2 O3 90.3(2) 2_565 1_456
O2 O2 O3 108.4(2) 6 1_456
O3 O2 O3 144.0(4) 6 1_456
La O2 O3 85.2(3) 1_556 1_456
Ga3 O2 O3 19.29(12) 4_346 1_456
Ga3 O2 O3 140.0(4) 4_446 1_456
O3 O2 O3 118.8(5) 1_556 1_456
La O2 O3 53.3(2) 2_456 1_456
La O2 O3 142.9(4) 4_445 1_456
Ga3 O2 O3 99.0(3) . 1_456
O3 O2 O3 31.97(18) 4_456 1_456
Ga3 O2 O3 90.6(3) 2_455 1_456
O3 O2 O3 162.8(5) . 1_456
O2 O2 O3 67.1(3) 2_456 1_456
O2 O2 O3 103.9(4) 2_566 1_456
Ga2 O2 O3 129.8(5) . 1_456
La O2 O3 78.7(2) 4_455 1_456
O3 O2 O3 71.78(16) 4_455 1_456
O2 O2 O3 33.10(19) 5_346 1_456
Ga1 O2 O3 22.79(15) 1_456 1_456
Nb O2 O3 22.79(15) 1_456 1_456
O1 O2 O3 65.0(2) 1_445 1_456
O3 O2 O3 32.9(4) 6_455 1_456
Ga2 O2 O3 54.45(19) 2_455 1_456
Ga3 O2 O3 29.56(18) 2_465 1_456
Ga3 O2 O3 125.7(4) 2_565 1_456
O2 O2 O3 63.4(3) 1_556 1_456
O2 O2 O3 116.6(3) 1_554 1_456
O2 O2 O3 95.8(3) 2_455 1_456
O2 O2 O3 130.8(3) 2_565 1_456
O3 O2 O3 96.4(4) 4_446 1_456
Ga2 O2 O2 25.1(2) 1_556 5_446
Ga3 O2 O2 124.5(9) 1_556 5_446
La O2 O2 83.6(4) . 5_446
O2 O2 O2 59.6(2) 3_455 5_446
O2 O2 O2 22.0(3) 4_445 5_446
O3 O2 O2 142.2(4) 2_455 5_446
O2 O2 O2 92.5(5) 6_556 5_446
O3 O2 O2 154.4(8) 5_455 5_446
La O2 O2 107.9(3) 2_455 5_446
O1 O2 O2 81.4(2) 2_455 5_446
O3 O2 O2 104.2(6) 3_456 5_446
O1 O2 O2 41.6(2) 2_456 5_446
O3 O2 O2 140.9(5) 3_455 5_446
O1 O2 O2 103.2(5) . 5_446
Nb O2 O2 172.3(6) 1_455 5_446
Ga1 O2 O2 172.3(6) 1_455 5_446
Ga2 O2 O2 92.3(5) 2_565 5_446
O2 O2 O2 122.2(3) 6 5_446
O3 O2 O2 55.5(3) 6 5_446
La O2 O2 57.2(4) 1_556 5_446
Ga3 O2 O2 131.3(3) 4_346 5_446
Ga3 O2 O2 18.88(16) 4_446 5_446
O3 O2 O2 32.5(3) 1_556 5_446
La O2 O2 76.3(3) 2_456 5_446
La O2 O2 47.89(10) 4_445 5_446
Ga3 O2 O2 131.8(3) . 5_446
O3 O2 O2 124.4(6) 4_456 5_446
Ga3 O2 O2 61.04(12) 2_455 5_446
O3 O2 O2 68.0(3) . 5_446
O2 O2 O2 76.5(3) 2_456 5_446
O2 O2 O2 69.5(6) 2_566 5_446
Ga2 O2 O2 92.9(2) . 5_446
La O2 O2 137.1(5) 4_455 5_446
O3 O2 O2 159.1(4) 4_455 5_446
O2 O2 O2 108.6(3) 5_346 5_446
Ga1 O2 O2 110.6(5) 1_456 5_446
Nb O2 O2 110.6(5) 1_456 5_446
O1 O2 O2 106.3(3) 1_445 5_446
O3 O2 O2 161.1(4) 6_455 5_446
Ga2 O2 O2 98.0(2) 2_455 5_446
Ga3 O2 O2 146.0(5) 2_465 5_446
Ga3 O2 O2 57.4(3) 2_565 5_446
O2 O2 O2 68.2(3) 1_556 5_446
O2 O2 O2 111.8(3) 1_554 5_446
O2 O2 O2 99.2(2) 2_455 5_446
O2 O2 O2 93.3(4) 2_565 5_446
O3 O2 O2 43.71(16) 4_446 5_446
O3 O2 O2 128.2(5) 1_456 5_446
Ga2 O2 O2 116.6(10) 1_556 5_456
Ga3 O2 O2 47.7(3) 1_556 5_456
La O2 O2 78.5(4) . 5_456
O2 O2 O2 155.7(6) 3_455 5_456
O2 O2 O2 107.5(9) 4_445 5_456
O3 O2 O2 105.8(3) 2_455 5_456
O2 O2 O2 21.6(2) 6_556 5_456
O3 O2 O2 53.8(2) 5_455 5_456
La O2 O2 151.5(5) 2_455 5_456
O1 O2 O2 134.1(4) 2_455 5_456
O3 O2 O2 75.7(4) 3_456 5_456
O1 O2 O2 92.8(6) 2_456 5_456
O3 O2 O2 110.0(3) 3_455 5_456
O1 O2 O2 35.1(3) . 5_456
Nb O2 O2 87.12(15) 1_455 5_456
Ga1 O2 O2 87.12(15) 1_455 5_456
Ga2 O2 O2 12.17(15) 2_565 5_456
O2 O2 O2 78.3(3) 6 5_456
O3 O2 O2 66.7(4) 6 5_456
La O2 O2 53.4(4) 1_556 5_456
Ga3 O2 O2 96.2(2) 4_346 5_456
Ga3 O2 O2 88.9(5) 4_446 5_456
O3 O2 O2 68.1(5) 1_556 5_456
La O2 O2 98.4(4) 2_456 5_456
La O2 O2 136.5(5) 4_445 5_456
Ga3 O2 O2 98.3(2) . 5_456
O3 O2 O2 46.21(16) 4_456 5_456
Ga3 O2 O2 145.3(6) 2_455 5_456
O3 O2 O2 93.8(4) . 5_456
O2 O2 O2 130.1(6) 2_456 5_456
O2 O2 O2 32.3(3) 2_566 5_456
Ga2 O2 O2 126.6(3) . 5_456
La O2 O2 47.14(11) 4_455 5_456
O3 O2 O2 75.54(19) 4_455 5_456
O2 O2 O2 108.6(3) 5_346 5_456
Ga1 O2 O2 64.4(2) 1_456 5_456
Nb O2 O2 64.4(2) 1_456 5_456
O1 O2 O2 142.8(3) 1_445 5_456
O3 O2 O2 78.01(19) 6_455 5_456
Ga2 O2 O2 130.3(3) 2_455 5_456
Ga3 O2 O2 58.43(11) 2_465 5_456
Ga3 O2 O2 51.4(3) 2_565 5_456
O2 O2 O2 68.2(3) 1_556 5_456
O2 O2 O2 111.8(3) 1_554 5_456
O2 O2 O2 158.6(7) 2_455 5_456
O2 O2 O2 67.83(15) 2_565 5_456
O3 O2 O2 127.9(6) 4_446 5_456
O3 O2 O2 78.2(2) 1_456 5_456
O2 O2 O2 100.6(7) 5_446 5_456
Ga2 O2 Ga2 134.3(4) 1_556 2_564
Ga3 O2 Ga2 98.9(3) 1_556 2_564
La O2 Ga2 29.02(18) . 2_564
O2 O2 Ga2 127.40(14) 3_455 2_564
O2 O2 Ga2 94.5(5) 4_445 2_564
O3 O2 Ga2 101.4(4) 2_455 2_564
O2 O2 Ga2 92.8(4) 6_556 2_564
O3 O2 Ga2 64.1(3) 5_455 2_564
La O2 Ga2 96.5(4) 2_455 2_564
O1 O2 Ga2 66.0(3) 2_455 2_564
O3 O2 Ga2 134.0(3) 3_456 2_564
O1 O2 Ga2 147.8(5) 2_456 2_564
O3 O2 Ga2 58.7(2) 3_455 2_564
O1 O2 Ga2 37.3(3) . 2_564
Nb O2 Ga2 69.21(19) 1_455 2_564
Ga1 O2 Ga2 69.21(19) 1_455 2_564
Ga2 O2 Ga2 66.02(16) 2_565 2_564
O2 O2 Ga2 12.50(13) 6 2_564
O3 O2 Ga2 60.7(3) 6 2_564
La O2 Ga2 115.3(4) 1_556 2_564
Ga3 O2 Ga2 116.2(3) 4_346 2_564
Ga3 O2 Ga2 94.8(2) 4_446 2_564
O3 O2 Ga2 99.9(3) 1_556 2_564
La O2 Ga2 167.1(2) 2_456 2_564
La O2 Ga2 92.4(2) 4_445 2_564
Ga3 O2 Ga2 36.72(9) . 2_564
O3 O2 Ga2 97.7(2) 4_456 2_564
Ga3 O2 Ga2 141.5(3) 2_455 2_564
O3 O2 Ga2 47.1(2) . 2_564
O2 O2 Ga2 156.5(6) 2_456 2_564
O2 O2 Ga2 76.9(2) 2_566 2_564
Ga2 O2 Ga2 55.94(14) . 2_564
La O2 Ga2 39.41(9) 4_455 2_564
O3 O2 Ga2 46.6(2) 4_455 2_564
O2 O2 Ga2 138.2(5) 5_346 2_564
Ga1 O2 Ga2 122.12(18) 1_456 2_564
Nb O2 Ga2 122.12(18) 1_456 2_564
O1 O2 Ga2 119.2(4) 1_445 2_564
O3 O2 Ga2 85.1(3) 6_455 2_564
Ga2 O2 Ga2 139.2(4) 2_455 2_564
Ga3 O2 Ga2 87.32(15) 2_465 2_564
Ga3 O2 Ga2 69.82(17) 2_565 2_564
O2 O2 Ga2 138.6(2) 1_556 2_564
O2 O2 Ga2 41.4(2) 1_554 2_564
O2 O2 Ga2 93.8(5) 2_455 2_564
O2 O2 Ga2 20.02(16) 2_565 2_564
O3 O2 Ga2 146.6(3) 4_446 2_564
O3 O2 Ga2 115.6(3) 1_456 2_564
O2 O2 Ga2 112.5(3) 5_446 2_564
O2 O2 Ga2 71.2(2) 5_456 2_564
Ga2 O2 La 14.5(4) 1_556 4_446
Ga3 O2 La 106.8(6) 1_556 4_446
La O2 La 110.0(4) . 4_446
O2 O2 La 52.45(17) 3_455 4_446
O2 O2 La 46.8(2) 4_445 4_446
O3 O2 La 119.0(4) 2_455 4_446
O2 O2 La 87.2(5) 6_556 4_446
O3 O2 La 145.8(5) 5_455 4_446
La O2 La 102.5(2) 2_455 4_446
O1 O2 La 97.9(3) 2_455 4_446
O3 O2 La 79.4(4) 3_456 4_446
O1 O2 La 17.63(17) 2_456 4_446
O3 O2 La 146.5(4) 3_455 4_446
O1 O2 La 120.6(5) . 4_446
Nb O2 La 152.0(3) 1_455 4_446
Ga1 O2 La 152.0(3) 1_455 4_446
Ga2 O2 La 99.9(4) 2_565 4_446
O2 O2 La 148.70(13) 6 4_446
O3 O2 La 79.2(3) 6 4_446
La O2 La 50.48(17) 1_556 4_446
Ga3 O2 La 105.0(2) 4_346 4_446
Ga3 O2 La 43.91(14) 4_446 4_446
O3 O2 La 44.6(3) 1_556 4_446
La O2 La 49.83(14) 2_456 4_446
La O2 La 62.75(14) 4_445 4_446
Ga3 O2 La 152.1(3) . 4_446
O3 O2 La 107.3(4) 4_456 4_446
Ga3 O2 La 46.68(11) 2_455 4_446
O3 O2 La 94.2(3) . 4_446
O2 O2 La 54.3(3) 2_456 4_446
O2 O2 La 79.1(5) 2_566 4_446
Ga2 O2 La 110.51(17) . 4_446
La O2 La 150.1(5) 4_455 4_446
O3 O2 La 174.2(3) 4_455 4_446
O2 O2 La 83.0(3) 5_346 4_446
Ga1 O2 La 87.8(2) 1_456 4_446
Nb O2 La 87.8(2) 1_456 4_446
O1 O2 La 90.4(2) 1_445 4_446
O3 O2 La 135.0(3) 6_455 4_446
Ga2 O2 La 76.27(14) 2_455 4_446
Ga3 O2 La 125.8(3) 2_465 4_446
Ga3 O2 La 75.4(2) 2_565 4_446
O2 O2 La 48.69(14) 1_556 4_446
O2 O2 La 131.31(14) 1_554 4_446
O2 O2 La 98.0(2) 2_455 4_446
O2 O2 La 119.0(4) 2_565 4_446
O3 O2 La 26.45(13) 4_446 4_446
O3 O2 La 102.4(3) 1_456 4_446
O2 O2 La 26.49(15) 5_446 4_446
O2 O2 La 103.4(5) 5_456 4_446
Ga2 O2 La 138.7(3) 2_564 4_446
Ga2 O2 Nb 76.9(4) 1_556 .
Ga3 O2 Nb 130.0(7) 1_556 .
La O2 Nb 30.4(2) . .
O2 O2 Nb 94.4(5) 3_455 .
O2 O2 Nb 38.1(5) 4_445 .
O3 O2 Nb 155.8(5) 2_455 .
O2 O2 Nb 93.3(2) 6_556 .
O3 O2 Nb 116.5(4) 5_455 .
La O2 Nb 114.0(3) 2_455 .
O1 O2 Nb 61.9(2) 2_455 .
O3 O2 Nb 145.1(7) 3_456 .
O1 O2 Nb 92.1(3) 2_456 .
O3 O2 Nb 106.3(3) 3_455 .
O1 O2 Nb 60.3(2) . .
Nb O2 Nb 127.8(3) 1_455 .
Ga1 O2 Nb 127.8(3) 1_455 .
Ga2 O2 Nb 70.2(2) 2_565 .
O2 O2 Nb 69.41(15) 6 .
O3 O2 Nb 16.60(16) 6 .
La O2 Nb 81.3(3) 1_556 .
Ga3 O2 Nb 175.2(3) 4_346 .
Ga3 O2 Nb 36.17(10) 4_446 .
O3 O2 Nb 49.9(2) 1_556 .
La O2 Nb 128.6(4) 2_456 .
La O2 Nb 55.44(12) 4_445 .
Ga3 O2 Nb 86.08(18) . .
O3 O2 Nb 128.6(4) 4_456 .
Ga3 O2 Nb 104.26(17) 2_455 .
O3 O2 Nb 21.11(18) . .
O2 O2 Nb 126.2(3) 2_456 .
O2 O2 Nb 57.1(2) 2_566 .
Ga2 O2 Nb 65.17(13) . .
La O2 Nb 89.8(2) 4_455 .
O3 O2 Nb 105.6(3) 4_455 .
O2 O2 Nb 161.4(2) 5_346 .
Ga1 O2 Nb 140.7(4) 1_456 .
Nb O2 Nb 140.7(4) 1_456 .
O1 O2 Nb 134.6(3) 1_445 .
O3 O2 Nb 143.2(3) 6_455 .
Ga2 O2 Nb 143.1(2) 2_455 .
Ga3 O2 Nb 135.7(3) 2_465 .
Ga3 O2 Nb 35.43(10) 2_565 .
O2 O2 Nb 107.0(2) 1_556 .
O2 O2 Nb 73.0(2) 1_554 .
O2 O2 Nb 103.3(3) 2_455 .
O2 O2 Nb 39.94(19) 2_565 .
O3 O2 Nb 93.7(2) 4_446 .
O3 O2 Nb 160.4(4) 1_456 .
O2 O2 Nb 53.5(2) 5_446 .
O2 O2 Nb 82.4(4) 5_456 .
Ga2 O2 Nb 58.98(12) 2_564 .
La O2 Nb 79.8(2) 4_446 .
Ga2 O2 Ga1 76.9(4) 1_556 .
Ga3 O2 Ga1 130.0(7) 1_556 .
La O2 Ga1 30.4(2) . .
O2 O2 Ga1 94.4(5) 3_455 .
O2 O2 Ga1 38.1(5) 4_445 .
O3 O2 Ga1 155.8(5) 2_455 .
O2 O2 Ga1 93.3(2) 6_556 .
O3 O2 Ga1 116.5(4) 5_455 .
La O2 Ga1 114.0(3) 2_455 .
O1 O2 Ga1 61.9(2) 2_455 .
O3 O2 Ga1 145.1(7) 3_456 .
O1 O2 Ga1 92.1(3) 2_456 .
O3 O2 Ga1 106.3(3) 3_455 .
O1 O2 Ga1 60.3(2) . .
Nb O2 Ga1 127.8(3) 1_455 .
Ga1 O2 Ga1 127.8(3) 1_455 .
Ga2 O2 Ga1 70.2(2) 2_565 .
O2 O2 Ga1 69.41(15) 6 .
O3 O2 Ga1 16.60(16) 6 .
La O2 Ga1 81.3(3) 1_556 .
Ga3 O2 Ga1 175.2(3) 4_346 .
Ga3 O2 Ga1 36.17(10) 4_446 .
O3 O2 Ga1 49.9(2) 1_556 .
La O2 Ga1 128.6(4) 2_456 .
La O2 Ga1 55.44(12) 4_445 .
Ga3 O2 Ga1 86.08(18) . .
O3 O2 Ga1 128.6(4) 4_456 .
Ga3 O2 Ga1 104.26(17) 2_455 .
O3 O2 Ga1 21.11(18) . .
O2 O2 Ga1 126.2(3) 2_456 .
O2 O2 Ga1 57.1(2) 2_566 .
Ga2 O2 Ga1 65.17(13) . .
La O2 Ga1 89.8(2) 4_455 .
O3 O2 Ga1 105.6(3) 4_455 .
O2 O2 Ga1 161.4(2) 5_346 .
Ga1 O2 Ga1 140.7(4) 1_456 .
Nb O2 Ga1 140.7(4) 1_456 .
O1 O2 Ga1 134.6(3) 1_445 .
O3 O2 Ga1 143.2(3) 6_455 .
Ga2 O2 Ga1 143.1(2) 2_455 .
Ga3 O2 Ga1 135.7(3) 2_465 .
Ga3 O2 Ga1 35.43(10) 2_565 .
O2 O2 Ga1 107.0(2) 1_556 .
O2 O2 Ga1 73.0(2) 1_554 .
O2 O2 Ga1 103.3(3) 2_455 .
O2 O2 Ga1 39.94(19) 2_565 .
O3 O2 Ga1 93.7(2) 4_446 .
O3 O2 Ga1 160.4(4) 1_456 .
O2 O2 Ga1 53.5(2) 5_446 .
O2 O2 Ga1 82.4(4) 5_456 .
Ga2 O2 Ga1 58.98(12) 2_564 .
La O2 Ga1 79.8(2) 4_446 .
Nb O2 Ga1 0.0 . .
Ga2 O2 O3 55.5(4) 1_556 2
Ga3 O2 O3 136.1(8) 1_556 2
La O2 O3 51.1(3) . 2
O2 O2 O3 77.6(5) 3_455 2
O2 O2 O3 18.0(5) 4_445 2
O3 O2 O3 161.1(6) 2_455 2
O2 O2 O3 96.5(2) 6_556 2
O3 O2 O3 136.3(4) 5_455 2
La O2 O3 111.0(3) 2_455 2
O1 O2 O3 64.7(3) 2_455 2
O3 O2 O3 133.0(6) 3_456 2
O1 O2 O3 72.8(3) 2_456 2
O3 O2 O3 120.2(3) 3_455 2
O1 O2 O3 78.7(3) . 2
Nb O2 O3 147.6(3) 1_455 2
Ga1 O2 O3 147.6(3) 1_455 2
Ga2 O2 O3 80.8(3) 2_565 2
O2 O2 O3 89.8(2) 6 2
O3 O2 O3 28.9(3) 6 2
La O2 O3 72.6(3) 1_556 2
Ga3 O2 O3 163.3(3) 4_346 2
Ga3 O2 O3 17.30(17) 4_446 2
O3 O2 O3 38.8(3) 1_556 2
La O2 O3 108.6(3) 2_456 2
La O2 O3 44.26(19) 4_445 2
Ga3 O2 O3 103.1(2) . 2
O3 O2 O3 135.1(5) 4_456 2
Ga3 O2 O3 85.20(19) 2_455 2
O3 O2 O3 36.5(4) . 2
O2 O2 O3 105.7(3) 2_456 2
O2 O2 O3 61.7(3) 2_566 2
Ga2 O2 O3 72.5(2) . 2
La O2 O3 110.3(3) 4_455 2
O3 O2 O3 126.5(3) 4_455 2
O2 O2 O3 140.2(3) 5_346 2
Ga1 O2 O3 134.9(4) 1_456 2
Nb O2 O3 134.9(4) 1_456 2
O1 O2 O3 123.7(2) 1_445 2
O3 O2 O3 164.4(3) 6_455 2
Ga2 O2 O3 124.8(2) 2_455 2
Ga3 O2 O3 150.9(4) 2_465 2
Ga3 O2 O3 41.20(15) 2_565 2
O2 O2 O3 93.8(2) 1_556 2
O2 O2 O3 86.2(2) 1_554 2
O2 O2 O3 99.9(3) 2_455 2
O2 O2 O3 61.3(3) 2_565 2
O3 O2 O3 72.7(3) 4_446 2
O3 O2 O3 157.1(4) 1_456 2
O2 O2 O3 32.5(2) 5_446 2
O2 O2 O3 92.6(5) 5_456 2
Ga2 O2 O3 80.0(2) 2_564 2
La O2 O3 59.0(2) 4_446 2
Nb O2 O3 21.35(13) . 2
Ga1 O2 O3 21.35(13) . 2
Ga2 O2 O2 111.3(6) 1_556 5_345
Ga3 O2 O2 95.3(6) 1_556 5_345
La O2 O2 103.1(6) . 5_345
O2 O2 O2 71.7(5) 3_455 5_345
O2 O2 O2 119.0(4) 4_445 5_345
O3 O2 O2 34.4(3) 2_455 5_345
O2 O2 O2 134.35(6) 6_556 5_345
O3 O2 O2 75.9(5) 5_455 5_345
La O2 O2 21.8(2) 2_455 5_345
O1 O2 O2 63.9(4) 2_455 5_345
O3 O2 O2 91.0(6) 3_456 5_345
O1 O2 O2 123.9(4) 2_456 5_345
O3 O2 O2 28.2(3) 3_455 5_345
O1 O2 O2 116.9(4) . 5_345
Nb O2 O2 42.6(3) 1_455 5_345
Ga1 O2 O2 42.6(3) 1_455 5_345
Ga2 O2 O2 137.0(3) 2_565 5_345
O2 O2 O2 74.2(5) 6 5_345
O3 O2 O2 138.0(5) 6 5_345
La O2 O2 153.9(4) 1_556 5_345
Ga3 O2 O2 53.9(2) 4_346 5_345
Ga3 O2 O2 138.8(3) 4_446 5_345
O3 O2 O2 162.1(2) 1_556 5_345
La O2 O2 95.0(3) 2_456 5_345
La O2 O2 87.1(3) 4_445 5_345
Ga3 O2 O2 49.8(3) . 5_345
O3 O2 O2 96.2(3) 4_456 5_345
Ga3 O2 O2 75.1(3) 2_455 5_345
O3 O2 O2 103.1(4) . 5_345
O2 O2 O2 72.0(3) 2_456 5_345
O2 O2 O2 159.1(4) 2_566 5_345
Ga2 O2 O2 58.8(3) . 5_345
La O2 O2 87.3(3) 4_455 5_345
O3 O2 O2 57.2(3) 4_455 5_345
O2 O2 O2 60.9(4) 5_346 5_345
Ga1 O2 O2 94.4(3) 1_456 5_345
Nb O2 O2 94.4(3) 1_456 5_345
O1 O2 O2 33.3(2) 1_445 5_345
O3 O2 O2 55.1(2) 6_455 5_345
Ga2 O2 O2 52.8(2) 2_455 5_345
Ga3 O2 O2 76.6(2) 2_465 5_345
Ga3 O2 O2 154.8(4) 2_565 5_345
O2 O2 O2 126.4(2) 1_556 5_345
O2 O2 O2 53.6(2) 1_554 5_345
O2 O2 O2 31.1(3) 2_455 5_345
O2 O2 O2 103.6(5) 2_565 5_345
O3 O2 O2 95.3(3) 4_446 5_345
O3 O2 O2 71.9(3) 1_456 5_345
O2 O2 O2 129.7(4) 5_446 5_345
O2 O2 O2 129.7(4) 5_456 5_345
Ga2 O2 O2 86.5(3) 2_564 5_345
La O2 O2 121.7(2) 4_446 5_345
Nb O2 O2 123.9(4) . 5_345
Ga1 O2 O2 123.9(4) . 5_345
O3 O2 O2 128.1(3) 2 5_345
Ga2 O2 O3 33.9(4) 1_556 5_445
Ga3 O2 O3 143.5(5) 1_556 5_445
La O2 O3 95.7(3) . 5_445
O2 O2 O3 16.9(4) 3_455 5_445
O2 O2 O3 43.6(4) 4_445 5_445
O3 O2 O3 102.8(4) 2_455 5_445
O2 O2 O3 135.4(5) 6_556 5_445
O3 O2 O3 158.4(7) 5_455 5_445
La O2 O3 60.9(2) 2_455 5_445
O1 O2 O3 53.8(3) 2_455 5_445
O3 O2 O3 107.9(3) 3_456 5_445
O1 O2 O3 63.2(3) 2_456 5_445
O3 O2 O3 99.9(4) 3_455 5_445
O1 O2 O3 137.7(3) . 5_445
Nb O2 O3 125.2(5) 1_455 5_445
Ga1 O2 O3 125.2(5) 1_455 5_445
Ga2 O2 O3 138.7(4) 2_565 5_445
O2 O2 O3 116.8(6) 6 5_445
O3 O2 O3 89.6(2) 6 5_445
La O2 O3 98.3(3) 1_556 5_445
Ga3 O2 O3 105.7(3) 4_346 5_445
Ga3 O2 O3 60.18(16) 4_446 5_445
O3 O2 O3 79.5(3) 1_556 5_445
La O2 O3 75.6(2) 2_456 5_445
La O2 O3 25.73(16) 4_445 5_445
Ga3 O2 O3 105.2(3) . 5_445
O3 O2 O3 144.8(3) 4_456 5_445
Ga3 O2 O3 28.26(16) 2_455 5_445
O3 O2 O3 75.9(3) . 5_445
O2 O2 O3 52.1(2) 2_456 5_445
O2 O2 O3 116.1(5) 2_566 5_445
Ga2 O2 O3 66.0(2) . 5_445
La O2 O3 155.4(3) 4_455 5_445
O3 O2 O3 134.3(5) 4_455 5_445
O2 O2 O3 85.8(2) 5_346 5_445
Ga1 O2 O3 120.2(3) 1_456 5_445
Nb O2 O3 120.2(3) 1_456 5_445
O1 O2 O3 63.6(2) 1_445 5_445
O3 O2 O3 131.8(4) 6_455 5_445
Ga2 O2 O3 65.6(2) 2_455 5_445
Ga3 O2 O3 146.7(4) 2_465 5_445
Ga3 O2 O3 100.1(2) 2_565 5_445
O2 O2 O3 93.7(2) 1_556 5_445
O2 O2 O3 86.3(2) 1_554 5_445
O2 O2 O3 52.82(18) 2_455 5_445
O2 O2 O3 108.8(3) 2_565 5_445
O3 O2 O3 31.1(4) 4_446 5_445
O3 O2 O3 118.7(3) 1_456 5_445
O2 O2 O3 47.06(17) 5_446 5_445
O2 O2 O3 147.7(6) 5_456 5_445
Ga2 O2 O3 117.3(3) 2_564 5_445
La O2 O3 48.35(17) 4_446 5_445
Nb O2 O3 77.53(18) . 5_445
Ga1 O2 O3 77.53(18) . 5_445
O3 O2 O3 60.9(2) 2 5_445
O2 O2 O3 82.7(2) 5_345 5_445
Ga2 O2 O3 62.1(5) 1_556 4_445
Ga3 O2 O3 152.4(7) 1_556 4_445
La O2 O3 82.4(4) . 4_445
O2 O2 O3 32.4(3) 3_455 4_445
O2 O2 O3 57.4(3) 4_445 4_445
O3 O2 O3 91.4(5) 2_455 4_445
O2 O2 O3 162.6(4) 6_556 4_445
O3 O2 O3 134.2(6) 5_455 4_445
La O2 O3 41.74(19) 2_455 4_445
O1 O2 O3 29.1(2) 2_455 4_445
O3 O2 O3 123.6(4) 3_456 4_445
O1 O2 O3 91.5(3) 2_456 4_445
O3 O2 O3 72.9(4) 3_455 4_445
O1 O2 O3 127.4(4) . 4_445
Nb O2 O3 102.4(5) 1_455 4_445
Ga1 O2 O3 102.4(5) 1_455 4_445
Ga2 O2 O3 147.6(3) 2_565 4_445
O2 O2 O3 91.2(6) 6 4_445
O3 O2 O3 93.6(3) 6 4_445
La O2 O3 125.6(3) 1_556 4_445
Ga3 O2 O3 103.6(4) 4_346 4_445
Ga3 O2 O3 77.03(18) 4_446 4_445
O3 O2 O3 100.74(18) 1_556 4_445
La O2 O3 96.9(3) 2_456 4_445
La O2 O3 25.75(15) 4_445 4_445
Ga3 O2 O3 76.9(3) . 4_445
O3 O2 O3 153.8(5) 4_456 4_445
Ga3 O2 O3 46.42(19) 2_455 4_445
O3 O2 O3 66.0(2) . 4_445
O2 O2 O3 66.8(3) 2_456 4_445
O2 O2 O3 131.5(4) 2_566 4_445
Ga2 O2 O3 39.7(2) . 4_445
La O2 O3 128.6(4) 4_455 4_445
O3 O2 O3 106.4(5) 4_455 4_445
O2 O2 O3 91.7(4) 5_346 4_445
Ga1 O2 O3 135.5(3) 1_456 4_445
Nb O2 O3 135.5(3) 1_456 4_445
O1 O2 O3 57.0(2) 1_445 4_445
O3 O2 O3 116.8(4) 6_455 4_445
Ga2 O2 O3 69.9(2) 2_455 4_445
Ga3 O2 O3 138.0(4) 2_465 4_445
Ga3 O2 O3 110.3(2) 2_565 4_445
O2 O2 O3 121.2(2) 1_556 4_445
O2 O2 O3 58.8(2) 1_554 4_445
O2 O2 O3 31.01(18) 2_455 4_445
O2 O2 O3 94.0(3) 2_565 4_445
O3 O2 O3 57.76(17) 4_446 4_445
O3 O2 O3 122.0(4) 1_456 4_445
O2 O2 O3 70.1(2) 5_446 4_445
O2 O2 O3 159.6(4) 5_456 4_445
Ga2 O2 O3 95.1(3) 2_564 4_445
La O2 O3 76.60(16) 4_446 4_445
Nb O2 O3 77.56(19) . 4_445
Ga1 O2 O3 77.56(19) . 4_445
O3 O2 O3 69.72(19) 2 4_445
O2 O2 O3 61.8(2) 5_345 4_445
O3 O2 O3 28.4(3) 5_445 4_445
Ga2 O2 O3 139.9(7) 1_556 1_455
Ga3 O2 O3 71.1(5) 1_556 1_455
La O2 O3 98.8(5) . 1_455
O2 O2 O3 101.8(6) 3_455 1_455
O2 O2 O3 145.1(4) 4_445 1_455
O3 O2 O3 28.9(4) 2_455 1_455
O2 O2 O3 106.4(3) 6_556 1_455
O3 O2 O3 45.2(4) 5_455 1_455
La O2 O3 52.5(3) 2_455 1_455
O1 O2 O3 83.9(5) 2_455 1_455
O3 O2 O3 82.2(4) 3_456 1_455
O1 O2 O3 138.8(4) 2_456 1_455
O3 O2 O3 25.0(2) 3_455 1_455
O1 O2 O3 92.0(3) . 1_455
Nb O2 O3 11.87(16) 1_455 1_455
Ga1 O2 O3 11.87(16) 1_455 1_455
Ga2 O2 O3 106.8(2) 2_565 1_455
O2 O2 O3 60.7(2) 6 1_455
O3 O2 O3 133.4(3) 6 1_455
La O2 O3 139.5(3) 1_556 1_455
Ga3 O2 O3 47.2(2) 4_346 1_455
Ga3 O2 O3 161.9(4) 4_446 1_455
O3 O2 O3 166.9(4) 1_556 1_455
La O2 O3 102.4(3) 2_456 1_455
La O2 O3 114.5(4) 4_445 1_455
Ga3 O2 O3 42.5(2) . 1_455
O3 O2 O3 71.50(18) 4_456 1_455
Ga3 O2 O3 102.6(4) 2_455 1_455
O3 O2 O3 109.2(5) . 1_455
O2 O2 O3 92.0(4) 2_456 1_455
O2 O2 O3 129.5(3) 2_566 1_455
Ga2 O2 O3 74.0(3) . 1_455
La O2 O3 59.0(2) 4_455 1_455
O3 O2 O3 30.4(2) 4_455 1_455
O2 O2 O3 66.0(4) 5_346 1_455
Ga1 O2 O3 79.5(2) 1_456 1_455
Nb O2 O3 79.5(2) 1_456 1_455
O1 O2 O3 57.2(3) 1_445 1_455
O3 O2 O3 29.4(3) 6_455 1_455
Ga2 O2 O3 70.0(3) 2_455 1_455
Ga3 O2 O3 49.98(16) 2_465 1_455
Ga3 O2 O3 138.0(3) 2_565 1_455
O2 O2 O3 121.4(2) 1_556 1_455
O2 O2 O3 58.6(2) 1_554 1_455
O2 O2 O3 61.2(4) 2_455 1_455
O2 O2 O3 92.6(4) 2_565 1_455
O3 O2 O3 122.0(4) 4_446 1_455
O3 O2 O3 58.00(17) 1_456 1_455
O2 O2 O3 160.4(5) 5_446 1_455
O2 O2 O3 99.0(3) 5_456 1_455
Ga2 O2 O3 72.6(3) 2_564 1_455
La O2 O3 146.3(3) 4_446 1_455
Nb O2 O3 128.5(3) . 1_455
Ga1 O2 O3 128.5(3) . 1_455
O3 O2 O3 144.9(3) 2 1_455
O2 O2 O3 30.74(19) 5_345 1_455
O3 O2 O3 113.4(4) 5_445 1_455
O3 O2 O3 90.8(4) 4_445 1_455
Ga2 O2 O3 78.8(4) 1_556 2_456
Ga3 O2 O3 43.8(3) 1_556 2_456
La O2 O3 155.7(6) . 2_456
O2 O2 O3 88.4(4) 3_455 2_456
O2 O2 O3 115.25(19) 4_445 2_456
O3 O2 O3 66.5(3) 2_455 2_456
O2 O2 O3 58.5(4) 6_556 2_456
O3 O2 O3 80.7(3) 5_455 2_456
La O2 O3 100.4(3) 2_455 2_456
O1 O2 O3 147.6(4) 2_455 2_456
O3 O2 O3 10.6(4) 3_456 2_456
O1 O2 O3 52.1(2) 2_456 2_456
O3 O2 O3 115.6(4) 3_455 2_456
O1 O2 O3 113.0(4) . 2_456
Nb O2 O3 88.6(3) 1_455 2_456
Ga1 O2 O3 88.6(3) 1_455 2_456
Ga2 O2 O3 87.6(3) 2_565 2_456
O2 O2 O3 140.1(4) 6 2_456
O3 O2 O3 124.8(5) 6 2_456
La O2 O3 56.9(2) 1_556 2_456
Ga3 O2 O3 45.9(2) 4_346 2_456
Ga3 O2 O3 105.8(4) 4_446 2_456
O3 O2 O3 87.9(3) 1_556 2_456
La O2 O3 24.45(11) 2_456 2_456
La O2 O3 124.8(2) 4_445 2_456
Ga3 O2 O3 133.7(3) . 2_456
O3 O2 O3 44.9(3) 4_456 2_456
Ga3 O2 O3 74.18(18) 2_455 2_456
O3 O2 O3 158.6(5) . 2_456
O2 O2 O3 52.6(3) 2_456 2_456
O2 O2 O3 88.8(5) 2_566 2_456
Ga2 O2 O3 152.4(4) . 2_456
La O2 O3 103.4(2) 4_455 2_456
O3 O2 O3 105.5(4) 4_455 2_456
O2 O2 O3 37.5(3) 5_346 2_456
Ga1 O2 O3 20.77(11) 1_456 2_456
Nb O2 O3 20.77(11) 1_456 2_456
O1 O2 O3 74.8(3) 1_445 2_456
O3 O2 O3 67.57(16) 6_455 2_456
Ga2 O2 O3 54.80(18) 2_455 2_456
Ga3 O2 O3 57.98(17) 2_465 2_456
Ga3 O2 O3 106.9(4) 2_565 2_456
O2 O2 O3 30.6(3) 1_556 2_456
O2 O2 O3 149.4(3) 1_554 2_456
O2 O2 O3 108.4(2) 2_455 2_456
O2 O2 O3 146.1(3) 2_565 2_456
O3 O2 O3 70.3(2) 4_446 2_456
O3 O2 O3 34.8(3) 1_456 2_456
O2 O2 O3 93.6(4) 5_446 2_456
O2 O2 O3 78.3(3) 5_456 2_456
Ga2 O2 O3 142.7(2) 2_564 2_456
La O2 O3 68.8(2) 4_446 2_456
Nb O2 O3 137.6(4) . 2_456
Ga1 O2 O3 137.6(4) . 2_456
O3 O2 O3 123.1(4) 2 2_456
O2 O2 O3 97.2(3) 5_345 2_456
O3 O2 O3 100.0(2) 5_445 2_456
O3 O2 O3 119.5(3) 4_445 2_456
O3 O2 O3 91.8(3) 1_455 2_456
Ga2 O2 O3 92.9(5) 1_556 5_456
Ga3 O2 O3 28.0(4) 1_556 5_456
La O2 O3 127.7(6) . 5_456
O2 O2 O3 114.6(3) 3_455 5_456
O2 O2 O3 117.5(3) 4_445 5_456
O3 O2 O3 80.7(4) 2_455 5_456
O2 O2 O3 30.4(4) 6_556 5_456
O3 O2 O3 66.5(4) 5_455 5_456
La O2 O3 125.3(3) 2_455 5_456
O1 O2 O3 176.0(4) 2_455 5_456
O3 O2 O3 27.9(4) 3_456 5_456
O1 O2 O3 62.0(3) 2_456 5_456
O3 O2 O3 121.3(4) 3_455 5_456
O1 O2 O3 84.7(4) . 5_456
Nb O2 O3 88.6(2) 1_455 5_456
Ga1 O2 O3 88.6(2) 1_455 5_456
Ga2 O2 O3 59.2(2) 2_565 5_456
O2 O2 O3 120.6(5) 6 5_456
O3 O2 O3 103.9(5) 6 5_456
La O2 O3 43.19(18) 1_556 5_456
Ga3 O2 O3 61.47(17) 4_346 5_456
Ga3 O2 O3 100.6(4) 4_446 5_456
O3 O2 O3 76.8(4) 1_556 5_456
La O2 O3 49.98(17) 2_456 5_456
La O2 O3 142.1(3) 4_445 5_456
Ga3 O2 O3 128.5(2) . 5_456
O3 O2 O3 28.2(3) 4_456 5_456
Ga3 O2 O3 100.5(2) 2_455 5_456
O3 O2 O3 138.8(5) . 5_456
O2 O2 O3 80.7(3) 2_456 5_456
O2 O2 O3 64.0(4) 2_566 5_456
Ga2 O2 O3 170.0(3) . 5_456
La O2 O3 82.0(2) 4_455 5_456
O3 O2 O3 95.9(3) 4_455 5_456
O2 O2 O3 62.9(3) 5_346 5_456
Ga1 O2 O3 20.76(12) 1_456 5_456
Nb O2 O3 20.76(12) 1_456 5_456
O1 O2 O3 101.1(3) 1_445 5_456
O3 O2 O3 67.56(19) 6_455 5_456
Ga2 O2 O3 82.56(19) 2_455 5_456
Ga3 O2 O3 49.08(15) 2_465 5_456
Ga3 O2 O3 84.8(3) 2_565 5_456
O2 O2 O3 30.63(16) 1_556 5_456
O2 O2 O3 149.37(16) 1_554 5_456
O2 O2 O3 135.0(3) 2_455 5_456
O2 O2 O3 117.6(3) 2_565 5_456
O3 O2 O3 91.4(3) 4_446 5_456
O3 O2 O3 43.1(2) 1_456 5_456
O2 O2 O3 96.9(5) 5_446 5_456
O2 O2 O3 49.8(3) 5_456 5_456
Ga2 O2 O3 118.0(2) 2_564 5_456
La O2 O3 79.3(2) 4_446 5_456
Nb O2 O3 120.0(4) . 5_456
Ga1 O2 O3 120.0(4) . 5_456
O3 O2 O3 115.6(4) 2 5_456
O2 O2 O3 115.0(3) 5_345 5_456
O3 O2 O3 122.5(3) 5_445 5_456
O3 O2 O3 146.9(3) 4_445 5_456
O3 O2 O3 96.8(2) 1_455 5_456
O3 O2 O3 28.54(19) 2_456 5_456
Ga2 O2 O3 51.4(5) 1_556 6_445
Ga3 O2 O3 122.2(5) 1_556 6_445
La O2 O3 116.3(4) . 6_445
O2 O2 O3 12.9(5) 3_455 6_445
O2 O2 O3 72.4(5) 4_445 6_445
O3 O2 O3 74.2(4) 2_455 6_445
O2 O2 O3 140.3(6) 6_556 6_445
O3 O2 O3 131.3(5) 5_455 6_445
La O2 O3 39.77(19) 2_455 6_445
O1 O2 O3 62.6(3) 2_455 6_445
O3 O2 O3 89.6(4) 3_456 6_445
O1 O2 O3 70.7(3) 2_456 6_445
O3 O2 O3 84.1(4) 3_455 6_445
O1 O2 O3 161.6(4) . 6_445
Nb O2 O3 100.4(4) 1_455 6_445
Ga1 O2 O3 100.4(4) 1_455 6_445
Ga2 O2 O3 162.7(4) 2_565 6_445
O2 O2 O3 119.7(7) 6 6_445
O3 O2 O3 118.4(3) 6 6_445
La O2 O3 110.7(3) 1_556 6_445
Ga3 O2 O3 77.6(3) 4_346 6_445
Ga3 O2 O3 88.04(18) 4_446 6_445
O3 O2 O3 103.7(2) 1_556 6_445
La O2 O3 63.9(2) 2_456 6_445
La O2 O3 50.00(17) 4_445 6_445
Ga3 O2 O3 98.6(4) . 6_445
O3 O2 O3 123.7(3) 4_456 6_445
Ga3 O2 O3 17.33(19) 2_455 6_445
O3 O2 O3 98.7(3) . 6_445
O2 O2 O3 32.8(3) 2_456 6_445
O2 O2 O3 140.9(5) 2_566 6_445
Ga2 O2 O3 71.2(3) . 6_445
La O2 O3 147.0(4) 4_455 6_445
O3 O2 O3 117.0(4) 4_455 6_445
O2 O2 O3 60.1(2) 5_346 6_445
Ga1 O2 O3 101.8(2) 1_456 6_445
Nb O2 O3 101.8(2) 1_456 6_445
O1 O2 O3 35.01(13) 1_445 6_445
O3 O2 O3 103.1(3) 6_455 6_445
Ga2 O2 O3 38.47(16) 2_455 6_445
Ga3 O2 O3 118.5(3) 2_465 6_445
Ga3 O2 O3 128.5(2) 2_565 6_445
O2 O2 O3 93.7(2) 1_556 6_445
O2 O2 O3 86.3(2) 1_554 6_445
O2 O2 O3 36.7(2) 2_455 6_445
O2 O2 O3 128.2(3) 2_565 6_445
O3 O2 O3 36.7(3) 4_446 6_445
O3 O2 O3 92.9(3) 1_456 6_445
O2 O2 O3 72.4(2) 5_446 6_445
O2 O2 O3 161.9(5) 5_456 6_445
Ga2 O2 O3 126.9(3) 2_564 6_445
La O2 O3 62.77(17) 4_446 6_445
Nb O2 O3 105.12(18) . 6_445
Ga1 O2 O3 105.12(18) . 6_445
O3 O2 O3 89.76(16) 2 6_445
O2 O2 O3 59.8(2) 5_345 6_445
O3 O2 O3 28.9(2) 5_445 6_445
O3 O2 O3 34.2(3) 4_445 6_445
O3 O2 O3 89.3(3) 1_455 6_445
O3 O2 O3 85.4(2) 2_456 6_445
O3 O2 O3 113.5(3) 5_456 6_445
Ga2 O2 La 110.6(7) 1_556 4_456
Ga3 O2 La 26.0(5) 1_556 4_456
La O2 La 104.3(4) . 4_456
O2 O2 La 139.31(18) 3_455 4_456
O2 O2 La 120.4(6) 4_445 4_456
O3 O2 La 88.6(3) 2_455 4_456
O2 O2 La 13.95(17) 6_556 4_456
O3 O2 La 51.7(4) 5_455 4_456
La O2 La 138.6(3) 2_455 4_456
O1 O2 La 158.9(4) 2_455 4_456
O3 O2 La 49.9(3) 3_456 4_456
O1 O2 La 80.7(4) 2_456 4_456
O3 O2 La 113.0(3) 3_455 4_456
O1 O2 La 59.8(3) . 4_456
Nb O2 La 82.07(17) 1_455 4_456
Ga1 O2 La 82.07(17) 1_455 4_456
Ga2 O2 La 36.87(13) 2_565 4_456
O2 O2 La 97.1(5) 6 4_456
O3 O2 La 89.0(4) 6 4_456
La O2 La 48.42(17) 1_556 4_456
Ga3 O2 La 74.10(16) 4_346 4_456
Ga3 O2 La 100.7(4) 4_446 4_456
O3 O2 La 76.2(3) 1_556 4_456
La O2 La 75.1(2) 2_456 4_456
La O2 La 152.2(5) 4_445 4_456
Ga3 O2 La 110.85(18) . 4_456
O3 O2 La 24.84(16) 4_456 4_456
Ga3 O2 La 125.4(3) 2_455 4_456
O3 O2 La 119.3(4) . 4_456
O2 O2 La 105.7(4) 2_456 4_456
O2 O2 La 49.3(3) 2_566 4_456
Ga2 O2 La 148.6(2) . 4_456
La O2 La 59.64(14) 4_455 4_456
O3 O2 La 80.5(2) 4_455 4_456
O2 O2 La 83.3(3) 5_346 4_456
Ga1 O2 La 38.71(11) 1_456 4_456
Nb O2 La 38.71(11) 1_456 4_456
O1 O2 La 119.7(2) 1_445 4_456
O3 O2 La 65.54(17) 6_455 4_456
Ga2 O2 La 104.66(18) 2_455 4_456
Ga3 O2 La 43.98(10) 2_465 4_456
Ga3 O2 La 71.1(2) 2_565 4_456
O2 O2 La 50.54(13) 1_556 4_456
O2 O2 La 129.45(13) 1_554 4_456
O2 O2 La 149.8(3) 2_455 4_456
O2 O2 La 93.1(2) 2_565 4_456
O3 O2 La 114.0(4) 4_446 4_456
O3 O2 La 55.00(16) 1_456 4_456
O2 O2 La 105.2(5) 5_446 4_456
O2 O2 La 25.81(14) 5_456 4_456
Ga2 O2 La 93.11(18) 2_564 4_456
La O2 La 96.1(3) 4_446 4_456
Nb O2 La 105.5(3) . 4_456
Ga1 O2 La 105.5(3) . 4_456
O3 O2 La 110.3(4) 2 4_456
O2 O2 La 120.4(2) 5_345 4_456
O3 O2 La 143.9(3) 5_445 4_456
O3 O2 La 171.6(3) 4_445 4_456
O3 O2 La 93.15(17) 1_455 4_456
O3 O2 La 53.11(16) 2_456 4_456
O3 O2 La 25.13(12) 5_456 4_456
O3 O2 La 138.5(3) 6_445 4_456
Ga2 O2 O1 88.3(7) 1_556 1_556
Ga3 O2 O1 50.4(6) 1_556 1_556
La O2 O1 98.0(5) . 1_556
O2 O2 O1 125.1(2) 3_455 1_556
O2 O2 O1 94.2(5) 4_445 1_556
O3 O2 O1 111.8(4) 2_455 1_556
O2 O2 O1 13.7(2) 6_556 1_556
O3 O2 O1 76.8(4) 5_455 1_556
La O2 O1 158.1(3) 2_455 1_556
O1 O2 O1 149.0(5) 2_455 1_556
O3 O2 O1 60.4(5) 3_456 1_556
O1 O2 O1 61.9(3) 2_456 1_556
O3 O2 O1 137.9(3) 3_455 1_556
O1 O2 O1 62.6(3) . 1_556
Nb O2 O1 108.4(2) 1_455 1_556
Ga1 O2 O1 108.4(2) 1_455 1_556
Ga2 O2 O1 33.9(2) 2_565 1_556
O2 O2 O1 108.6(5) 6 1_556
O3 O2 O1 70.9(3) 6 1_556
La O2 O1 23.77(12) 1_556 1_556
Ga3 O2 O1 94.0(2) 4_346 1_556
Ga3 O2 O1 74.7(3) 4_446 1_556
O3 O2 O1 50.0(3) 1_556 1_556
La O2 O1 71.8(3) 2_456 1_556
La O2 O1 125.8(4) 4_445 1_556
Ga3 O2 O1 129.3(3) . 1_556
O3 O2 O1 49.6(2) 4_456 1_556
Ga3 O2 O1 114.4(3) 2_455 1_556
O3 O2 O1 105.9(4) . 1_556
O2 O2 O1 103.1(4) 2_456 1_556
O2 O2 O1 31.3(3) 2_566 1_556
Ga2 O2 O1 149.6(3) . 1_556
La O2 O1 77.5(2) 4_455 1_556
O3 O2 O1 103.7(3) 4_455 1_556
O2 O2 O1 94.9(4) 5_346 1_556
Ga1 O2 O1 53.57(18) 1_456 1_556
Nb O2 O1 53.57(18) 1_456 1_556
O1 O2 O1 132.7(3) 1_445 1_556
O3 O2 O1 91.6(2) 6_455 1_556
Ga2 O2 O1 112.3(2) 2_455 1_556
Ga3 O2 O1 70.15(18) 2_465 1_556
Ga3 O2 O1 51.8(2) 2_565 1_556
O2 O2 O1 38.69(14) 1_556 1_556
O2 O2 O1 141.31(14) 1_554 1_556
O2 O2 O1 165.8(3) 2_455 1_556
O2 O2 O1 91.1(3) 2_565 1_556
O3 O2 O1 97.1(3) 4_446 1_556
O3 O2 O1 75.0(2) 1_456 1_556
O2 O2 O1 79.0(4) 5_446 1_556
O2 O2 O1 31.0(3) 5_456 1_556
Ga2 O2 O1 99.9(3) 2_564 1_556
La O2 O1 74.1(3) 4_446 1_556
Nb O2 O1 87.1(3) . 1_556
Ga1 O2 O1 87.1(3) . 1_556
O3 O2 O1 86.2(3) 2 1_556
O2 O2 O1 145.7(2) 5_345 1_556
O3 O2 O1 122.0(3) 5_445 1_556
O3 O2 O1 148.9(3) 4_445 1_556
O3 O2 O1 119.6(2) 1_455 1_556
O3 O2 O1 57.9(2) 2_456 1_556
O3 O2 O1 33.02(16) 5_456 1_556
O3 O2 O1 131.5(3) 6_445 1_556
La O2 O1 26.41(9) 4_456 1_556
Ga2 O2 O2 112.7(7) 1_556 4_345
Ga3 O2 O2 58.9(4) 1_556 4_345
La O2 O2 134.5(4) . 4_345
O2 O2 O2 85.9(9) 3_455 4_345
O2 O2 O2 145.9(9) 4_445 4_345
O3 O2 O2 7.2(4) 2_455 4_345
O2 O2 O2 98.18(19) 6_556 4_345
O3 O2 O2 59.2(2) 5_455 4_345
La O2 O2 53.9(3) 2_455 4_345
O1 O2 O2 104.0(5) 2_455 4_345
O3 O2 O2 51.5(5) 3_456 4_345
O1 O2 O2 103.1(4) 2_456 4_345
O3 O2 O2 56.7(2) 3_455 4_345
O1 O2 O2 116.8(2) . 4_345
Nb O2 O2 38.82(13) 1_455 4_345
Ga1 O2 O2 38.82(13) 1_455 4_345
Ga2 O2 O2 116.0(2) 2_565 4_345
O2 O2 O2 96.18(8) 6 4_345
O3 O2 O2 166.6(4) 6 4_345
La O2 O2 115.32(14) 1_556 4_345
Ga3 O2 O2 13.8(2) 4_346 4_345
Ga3 O2 O2 156.6(3) 4_446 4_345
O3 O2 O2 147.2(2) 1_556 4_345
La O2 O2 66.7(3) 2_456 4_345
La O2 O2 119.2(5) 4_445 4_345
Ga3 O2 O2 77.45(13) . 4_345
O3 O2 O2 60.10(16) 4_456 4_345
Ga3 O2 O2 79.5(4) 2_455 4_345
O3 O2 O2 141.9(3) . 4_345
O2 O2 O2 61.3(4) 2_456 4_345
O2 O2 O2 134.1(3) 2_566 4_345
Ga2 O2 O2 98.9(3) . 4_345
La O2 O2 83.68(13) 4_455 4_345
O3 O2 O2 62.01(19) 4_455 4_345
O2 O2 O2 30.5(5) 5_346 4_345
Ga1 O2 O2 54.10(16) 1_456 4_345
Nb O2 O2 54.10(16) 1_456 4_345
O1 O2 O2 39.3(3) 1_445 4_345
O3 O2 O2 30.25(19) 6_455 4_345
Ga2 O2 O2 40.4(3) 2_455 4_345
Ga3 O2 O2 46.06(7) 2_465 4_345
Ga3 O2 O2 155.4(3) 2_565 4_345
O2 O2 O2 90.0 1_556 4_345
O2 O2 O2 90.0 1_554 4_345
O2 O2 O2 65.1(3) 2_455 4_345
O2 O2 O2 127.7(3) 2_565 4_345
O3 O2 O2 94.4(4) 4_446 4_345
O3 O2 O2 31.77(19) 1_456 4_345
O2 O2 O2 137.7(4) 5_446 4_345
O2 O2 O2 104.18(12) 5_456 4_345
Ga2 O2 O2 107.69(12) 2_564 4_345
La O2 O2 113.2(3) 4_446 4_345
Nb O2 O2 162.9(2) . 4_345
Ga1 O2 O2 162.9(2) . 4_345
O3 O2 O2 163.0(4) 2 4_345
O2 O2 O2 40.3(2) 5_345 4_345
O3 O2 O2 102.4(5) 5_445 4_345
O3 O2 O2 94.2(4) 4_445 4_345
O3 O2 O2 35.7(2) 1_455 4_345
O3 O2 O2 59.4(2) 2_456 4_345
O3 O2 O2 74.77(15) 5_456 4_345
O3 O2 O2 73.5(4) 6_445 4_345
La O2 O2 84.80(11) 4_456 4_345
O1 O2 O2 106.70(12) 1_556 4_345
Ga2 O2 O2 152.1(4) 1_556 3_465
Ga3 O2 O2 32.5(4) 1_556 3_465
La O2 O2 95.3(3) . 3_465
O2 O2 O2 145.9(9) 3_455 3_465
O2 O2 O2 154.1(9) 4_445 3_465
O3 O2 O2 59.2(2) 2_455 3_465
O2 O2 O2 56.7(3) 6_556 3_465
O3 O2 O2 7.2(4) 5_455 3_465
La O2 O2 102.6(3) 2_455 3_465
O1 O2 O2 123.5(3) 2_455 3_465
O3 O2 O2 65.2(3) 3_456 3_465
O1 O2 O2 121.3(3) 2_456 3_465
O3 O2 O2 68.2(2) 3_455 3_465
O1 O2 O2 58.1(2) . 3_465
Nb O2 O2 38.82(13) 1_455 3_465
Ga1 O2 O2 38.82(13) 1_455 3_465
Ga2 O2 O2 59.0(2) 2_565 3_465
O2 O2 O2 65.4(5) 6 3_465
O3 O2 O2 107.5(4) 6 3_465
La O2 O2 93.2(2) 1_556 3_465
Ga3 O2 O2 58.14(16) 4_346 3_465
Ga3 O2 O2 137.7(5) 4_446 3_465
O3 O2 O2 116.9(4) 1_556 3_465
La O2 O2 98.42(17) 2_456 3_465
La O2 O2 158.5(2) 4_445 3_465
Ga3 O2 O2 69.23(12) . 3_465
O3 O2 O2 31.8(3) 4_456 3_465
Ga3 O2 O2 137.6(4) 2_455 3_465
O3 O2 O2 115.1(3) . 3_465
O2 O2 O2 115.0(4) 2_456 3_465
O2 O2 O2 81.3(3) 2_566 3_465
Ga2 O2 O2 110.83(14) . 3_465
La O2 O2 30.42(19) 4_455 3_465
O3 O2 O2 36.9(3) 4_455 3_465
O2 O2 O2 79.8(3) 5_346 3_465
Ga1 O2 O2 54.10(16) 1_456 3_465
Nb O2 O2 54.10(16) 1_456 3_465
O1 O2 O2 98.5(3) 1_445 3_465
O3 O2 O2 30.28(16) 6_455 3_465
Ga2 O2 O2 98.3(3) 2_455 3_465
Ga3 O2 O2 18.83(15) 2_465 3_465
Ga3 O2 O2 97.8(3) 2_565 3_465
O2 O2 O2 90.0 1_556 3_465
O2 O2 O2 90.0 1_554 3_465
O2 O2 O2 111.8(4) 2_455 3_465
O2 O2 O2 82.4(3) 2_565 3_465
O3 O2 O2 144.1(3) 4_446 3_465
O3 O2 O2 48.4(3) 1_456 3_465
O2 O2 O2 148.9(5) 5_446 3_465
O2 O2 O2 49.21(17) 5_456 3_465
Ga2 O2 O2 69.1(2) 2_564 3_465
La O2 O2 138.66(15) 4_446 3_465
Nb O2 O2 118.1(3) . 3_465
Ga1 O2 O2 118.1(3) . 3_465
O3 O2 O2 136.4(4) 2 3_465
O2 O2 O2 81.0(2) 5_345 3_465
O3 O2 O2 162.0(5) 5_445 3_465
O3 O2 O2 140.8(3) 4_445 3_465
O3 O2 O2 50.62(14) 1_455 3_465
O3 O2 O2 74.77(18) 2_456 3_465
O3 O2 O2 59.38(16) 5_456 3_465
O3 O2 O2 133.3(4) 6_445 3_465
La O2 O2 44.82(14) 4_456 3_465
O1 O2 O2 70.30(16) 1_556 3_465
O2 O2 O2 60.000(1) 4_345 3_465
Ga2 O2 O2 65.6(2) 1_556 5_445
Ga3 O2 O2 166.9(7) 1_556 5_445
La O2 O2 48.0(3) . 5_445
O2 O2 O2 62.7(3) 3_455 5_445
O2 O2 O2 32.9(3) 4_445 5_445
O3 O2 O2 127.3(7) 2_455 5_445
O2 O2 O2 129.7(4) 6_556 5_445
O3 O2 O2 135.0(5) 5_455 5_445
La O2 O2 78.2(4) 2_455 5_445
O1 O2 O2 30.07(17) 2_455 5_445
O3 O2 O2 154.1(4) 3_456 5_445
O1 O2 O2 94.1(3) 2_456 5_445
O3 O2 O2 88.6(5) 3_455 5_445
O1 O2 O2 92.0(3) . 5_445
Nb O2 O2 120.9(6) 1_455 5_445
Ga1 O2 O2 120.9(6) 1_455 5_445
Ga2 O2 O2 107.4(4) 2_565 5_445
O2 O2 O2 75.6(5) 6 5_445
O3 O2 O2 53.7(3) 6 5_445
La O2 O2 106.6(5) 1_556 5_445
Ga3 O2 O2 143.3(6) 4_346 5_445
Ga3 O2 O2 49.1(2) 4_446 5_445
O3 O2 O2 73.2(3) 1_556 5_445
La O2 O2 120.77(19) 2_456 5_445
La O2 O2 21.96(5) 4_445 5_445
Ga3 O2 O2 77.5(4) . 5_445
O3 O2 O2 165.4(5) 4_456 5_445
Ga3 O2 O2 75.76(11) 2_455 5_445
O3 O2 O2 28.5(2) . 5_445
O2 O2 O2 99.5(2) 2_456 5_445
O2 O2 O2 93.4(4) 2_566 5_445
Ga2 O2 O2 39.4(2) . 5_445
La O2 O2 111.1(3) 4_455 5_445
O3 O2 O2 108.9(5) 4_455 5_445
O2 O2 O2 130.8(4) 5_346 5_445
Ga1 O2 O2 164.4(4) 1_456 5_445
Nb O2 O2 164.4(4) 1_456 5_445
O1 O2 O2 97.2(4) 1_445 5_445
O3 O2 O2 142.4(6) 6_455 5_445
Ga2 O2 O2 108.9(3) 2_455 5_445
Ga3 O2 O2 157.5(4) 2_465 5_445
Ga3 O2 O2 71.5(3) 2_565 5_445
O2 O2 O2 122.8(3) 1_556 5_445
O2 O2 O2 57.2(3) 1_554 5_445
O2 O2 O2 67.1(4) 2_455 5_445
O2 O2 O2 61.2(3) 2_565 5_445
O3 O2 O2 74.8(2) 4_446 5_445
O3 O2 O2 162.3(5) 1_456 5_445
O2 O2 O2 54.54(15) 5_446 5_445
O2 O2 O2 119.4(5) 5_456 5_445
Ga2 O2 O2 71.8(2) 2_564 5_445
La O2 O2 76.6(2) 4_446 5_445
Nb O2 O2 37.3(2) . 5_445
Ga1 O2 O2 37.3(2) . 5_445
O3 O2 O2 34.8(3) 2 5_445
O2 O2 O2 93.3(5) 5_345 5_445
O3 O2 O2 47.64(15) 5_445 5_445
O3 O2 O2 40.3(2) 4_445 5_445
O3 O2 O2 113.3(5) 1_455 5_445
O3 O2 O2 144.3(3) 2_456 5_445
O3 O2 O2 149.7(6) 5_456 5_445
O3 O2 O2 70.7(2) 6_445 5_445
La O2 O2 142.6(5) 4_456 5_445
O1 O2 O2 120.8(5) 1_556 5_445
O2 O2 O2 132.1(6) 4_345 5_445
O2 O2 O2 140.8(2) 3_465 5_445
Ga2 O2 O2 144.3(7) 1_556 5_455
Ga3 O2 O2 81.4(2) 1_556 5_455
La O2 O2 41.5(3) . 5_455
O2 O2 O2 145.6(2) 3_455 5_455
O2 O2 O2 105.8(7) 4_445 5_455
O3 O2 O2 97.9(4) 2_455 5_455
O2 O2 O2 75.9(4) 6_556 5_455
O3 O2 O2 50.0(3) 5_455 5_455
La O2 O2 108.2(6) 2_455 5_455
O1 O2 O2 84.2(4) 2_455 5_455
O3 O2 O2 117.0(3) 3_456 5_455
O1 O2 O2 142.4(7) 2_456 5_455
O3 O2 O2 65.3(4) 3_455 5_455
O1 O2 O2 24.2(3) . 5_455
Nb O2 O2 64.6(2) 1_455 5_455
Ga1 O2 O2 64.6(2) 1_455 5_455
Ga2 O2 O2 51.5(2) 2_565 5_455
O2 O2 O2 23.8(2) 6 5_455
O3 O2 O2 64.0(4) 6 5_455
La O2 O2 103.7(5) 1_556 5_455
Ga3 O2 O2 107.6(3) 4_346 5_455
Ga3 O2 O2 100.6(4) 4_446 5_455
O3 O2 O2 97.9(5) 1_556 5_455
La O2 O2 149.1(3) 2_456 5_455
La O2 O2 109.7(3) 4_445 5_455
Ga3 O2 O2 46.5(2) . 5_455
O3 O2 O2 80.19(18) 4_456 5_455
Ga3 O2 O2 159.5(5) 2_455 5_455
O3 O2 O2 61.4(3) . 5_455
O2 O2 O2 163.6(7) 2_456 5_455
O2 O2 O2 67.12(16) 2_566 5_455
Ga2 O2 O2 73.7(3) . 5_455
La O2 O2 23.33(6) 4_455 5_455
O3 O2 O2 41.6(2) 4_455 5_455
O2 O2 O2 130.8(4) 5_346 5_455
Ga1 O2 O2 104.72(15) 1_456 5_455
Nb O2 O2 104.72(15) 1_456 5_455
O1 O2 O2 126.3(6) 1_445 5_455
O3 O2 O2 75.4(3) 6_455 5_455
Ga2 O2 O2 141.6(5) 2_455 5_455
Ga3 O2 O2 72.54(8) 2_465 5_455
Ga3 O2 O2 66.8(3) 2_565 5_455
O2 O2 O2 122.8(3) 1_556 5_455
O2 O2 O2 57.2(3) 1_554 5_455
O2 O2 O2 108.0(7) 2_455 5_455
O2 O2 O2 28.89(19) 2_565 5_455
O3 O2 O2 161.4(4) 4_446 5_455
O3 O2 O2 102.0(2) 1_456 5_455
O2 O2 O2 119.4(5) 5_446 5_455
O2 O2 O2 54.54(15) 5_456 5_455
Ga2 O2 O2 18.24(15) 2_564 5_455
La O2 O2 142.1(5) 4_446 5_455
Nb O2 O2 67.8(3) . 5_455
Ga1 O2 O2 67.8(3) . 5_455
O3 O2 O2 89.0(3) 2 5_455
O2 O2 O2 93.3(5) 5_345 5_455
O3 O2 O2 135.0(3) 5_445 5_455
O3 O2 O2 113.2(4) 4_445 5_455
O3 O2 O2 71.6(4) 1_455 5_455
O3 O2 O2 124.8(2) 2_456 5_455
O3 O2 O2 99.8(3) 5_456 5_455
O3 O2 O2 143.5(5) 6_445 5_455
La O2 O2 75.1(2) 4_456 5_455
O1 O2 O2 84.8(4) 1_556 5_455
O2 O2 O2 102.82(14) 4_345 5_455
O2 O2 O2 53.75(15) 3_465 5_455
O2 O2 O2 88.3(3) 5_445 5_455
Ga2 O2 Ga3 129.0(7) 1_556 4_345
Ga3 O2 Ga3 89.4(6) 1_556 4_345
La O2 Ga3 91.0(5) . 4_345
O2 O2 Ga3 89.1(5) 3_455 4_345
O2 O2 Ga3 126.8(3) 4_445 4_345
O3 O2 Ga3 38.4(4) 2_455 4_345
O2 O2 Ga3 124.1(3) 6_556 4_345
O3 O2 Ga3 61.5(4) 5_455 4_345
La O2 Ga3 38.4(2) 2_455 4_345
O1 O2 Ga3 65.9(4) 2_455 4_345
O3 O2 Ga3 96.4(5) 3_456 4_345
O1 O2 Ga3 141.6(4) 2_456 4_345
O3 O2 Ga3 11.8(2) 3_455 4_345
O1 O2 Ga3 98.4(3) . 4_345
Nb O2 Ga3 29.21(18) 1_455 4_345
Ga1 O2 Ga3 29.21(18) 1_455 4_345
Ga2 O2 Ga3 119.4(2) 2_565 4_345
O2 O2 Ga3 57.5(3) 6 4_345
O3 O2 Ga3 127.5(4) 6 4_345
La O2 Ga3 157.6(2) 1_556 4_345
Ga3 O2 Ga3 59.0(2) 4_346 4_345
Ga3 O2 Ga3 144.9(3) 4_446 4_345
O3 O2 Ga3 167.3(3) 1_556 4_345
La O2 Ga3 109.1(3) 2_456 4_345
La O2 Ga3 96.3(3) 4_445 4_345
Ga3 O2 Ga3 34.12(16) . 4_345
O3 O2 Ga3 89.8(3) 4_456 4_345
Ga3 O2 Ga3 93.6(3) 2_455 4_345
O3 O2 Ga3 96.5(3) . 4_345
O2 O2 Ga3 89.8(4) 2_456 4_345
O2 O2 Ga3 140.6(4) 2_566 4_345
Ga2 O2 Ga3 56.9(2) . 4_345
La O2 Ga3 69.1(2) 4_455 4_345
O3 O2 Ga3 39.2(2) 4_455 4_345
O2 O2 Ga3 72.7(5) 5_346 4_345
Ga1 O2 Ga3 95.9(2) 1_456 4_345
Nb O2 Ga3 95.9(2) 1_456 4_345
O1 O2 Ga3 51.4(2) 1_445 4_345
O3 O2 Ga3 47.6(2) 6_455 4_345
Ga2 O2 Ga3 69.4(2) 2_455 4_345
Ga3 O2 Ga3 68.3(2) 2_465 4_345
Ga3 O2 Ga3 139.8(2) 2_565 4_345
O2 O2 Ga3 135.47(10) 1_556 4_345
O2 O2 Ga3 44.53(10) 1_554 4_345
O2 O2 Ga3 45.1(3) 2_455 4_345
O2 O2 Ga3 88.6(4) 2_565 4_345
O3 O2 Ga3 113.8(4) 4_446 4_345
O3 O2 Ga3 73.4(3) 1_456 4_345
O2 O2 Ga3 143.4(4) 5_446 4_345
O2 O2 Ga3 113.8(3) 5_456 4_345
Ga2 O2 Ga3 69.9(2) 2_564 4_345
La O2 Ga3 140.3(3) 4_446 4_345
Nb O2 Ga3 117.4(3) . 4_345
Ga1 O2 Ga3 117.4(3) . 4_345
O3 O2 Ga3 129.3(3) 2 4_345
O2 O2 Ga3 18.63(14) 5_345 4_345
O3 O2 Ga3 97.9(3) 5_445 4_345
O3 O2 Ga3 73.3(3) 4_445 4_345
O3 O2 Ga3 18.36(13) 1_455 4_345
O3 O2 Ga3 104.9(3) 2_456 4_345
O3 O2 Ga3 114.5(2) 5_456 4_345
O3 O2 Ga3 77.8(3) 6_445 4_345
La O2 Ga3 111.26(18) 4_456 4_345
O1 O2 Ga3 137.58(17) 1_556 4_345
O2 O2 Ga3 45.54(10) 4_345 4_345
O2 O2 Ga3 67.62(11) 3_465 4_345
O2 O2 Ga3 95.8(5) 5_445 4_345
O2 O2 Ga3 75.0(4) 5_455 4_345
Ga2 O2 O2 39.1(4) 1_556 3_456
Ga3 O2 O2 81.2(3) 1_556 3_456
La O2 O2 137.4(7) . 3_456
O2 O2 O2 61.14(13) 3_455 3_456
O2 O2 O2 76.04(6) 4_445 3_456
O3 O2 O2 94.8(4) 2_455 3_456
O2 O2 O2 75.6(4) 6_556 3_456
O3 O2 O2 120.0(4) 5_455 3_456
La O2 O2 100.2(3) 2_455 3_456
O1 O2 O2 119.9(4) 2_455 3_456
O3 O2 O2 50.4(3) 3_456 3_456
O1 O2 O2 15.15(11) 2_456 3_456
O3 O2 O2 139.5(5) 3_455 3_456
O1 O2 O2 127.3(5) . 3_456
Nb O2 O2 124.9(4) 1_455 3_456
Ga1 O2 O2 124.9(4) 1_455 3_456
Ga2 O2 O2 99.3(3) 2_565 3_456
O2 O2 O2 174.1(6) 6 3_456
O3 O2 O2 102.5(5) 6 3_456
La O2 O2 47.72(9) 1_556 3_456
Ga3 O2 O2 77.6(2) 4_346 3_456
Ga3 O2 O2 71.0(3) 4_446 3_456
O3 O2 O2 62.5(4) 1_556 3_456
La O2 O2 21.51(13) 2_456 3_456
La O2 O2 87.5(3) 4_445 3_456
Ga3 O2 O2 161.3(5) . 3_456
O3 O2 O2 82.0(2) 4_456 3_456
Ga3 O2 O2 48.7(2) 2_455 3_456
O3 O2 O2 123.3(5) . 3_456
O2 O2 O2 40.4(3) 2_456 3_456
O2 O2 O2 85.7(5) 2_566 3_456
Ga2 O2 O2 132.0(2) . 3_456
La O2 O2 138.3(2) 4_455 3_456
O3 O2 O2 144.9(4) 4_455 3_456
O2 O2 O2 57.7(3) 5_346 3_456
Ga1 O2 O2 59.87(17) 1_456 3_456
Nb O2 O2 59.87(17) 1_456 3_456
O1 O2 O2 78.7(3) 1_445 3_456
O3 O2 O2 105.9(4) 6_455 3_456
Ga2 O2 O2 58.9(2) 2_455 3_456
Ga3 O2 O2 97.8(2) 2_465 3_456
Ga3 O2 O2 92.1(3) 2_565 3_456
O2 O2 O2 28.86(13) 1_556 3_456
O2 O2 O2 151.14(13) 1_554 3_456
O2 O2 O2 101.3(3) 2_455 3_456
O2 O2 O2 143.0(5) 2_565 3_456
O3 O2 O2 35.2(3) 4_446 3_456
O3 O2 O2 73.2(3) 1_456 3_456
O2 O2 O2 55.3(3) 5_446 3_456
O2 O2 O2 96.6(4) 5_456 3_456
Ga2 O2 O2 161.9(5) 2_564 3_456
La O2 O2 29.3(2) 4_446 3_456
Nb O2 O2 107.1(4) . 3_456
Ga1 O2 O2 107.1(4) . 3_456
O3 O2 O2 87.4(4) 2 3_456
O2 O2 O2 111.6(3) 5_345 3_456
O3 O2 O2 66.1(3) 5_445 3_456
O3 O2 O2 92.7(3) 4_445 3_456
O3 O2 O2 123.7(4) 1_455 3_456
O3 O2 O2 39.9(2) 2_456 3_456
O3 O2 O2 56.45(17) 5_456 3_456
O3 O2 O2 65.5(3) 6_445 3_456
La O2 O2 79.01(13) 4_456 3_456
O1 O2 O2 66.02(15) 1_556 3_456
O2 O2 O2 88.0(4) 4_345 3_456
O2 O2 O2 113.5(3) 3_465 3_456
O2 O2 O2 104.7(4) 5_445 3_456
O2 O2 O2 150.7(5) 5_455 3_456
Ga3 O2 O2 128.1(4) 4_345 3_456
Ga2 O2 O2 39.1(4) 1_556 4_446
Ga3 O2 O2 86.0(6) 1_556 4_446
La O2 O2 111.6(6) . 4_446
O2 O2 O2 76.04(6) 3_455 4_446
O2 O2 O2 61.14(13) 4_445 4_446
O3 O2 O2 120.7(4) 2_455 4_446
O2 O2 O2 62.6(4) 6_556 4_446
O3 O2 O2 122.9(6) 5_455 4_446
La O2 O2 123.9(3) 2_455 4_446
O1 O2 O2 119.9(4) 2_455 4_446
O3 O2 O2 66.8(4) 3_456 4_446
O1 O2 O2 15.15(11) 2_456 4_446
O3 O2 O2 167.2(5) 3_455 4_446
O1 O2 O2 103.1(6) . 4_446
Nb O2 O2 144.6(3) 1_455 4_446
Ga1 O2 O2 144.6(3) 1_455 4_446
Ga2 O2 O2 78.0(5) 2_565 4_446
O2 O2 O2 146.5(5) 6 4_446
O3 O2 O2 75.5(4) 6 4_446
La O2 O2 26.25(19) 1_556 4_446
Ga3 O2 O2 101.33(19) 4_346 4_446
Ga3 O2 O2 49.0(3) 4_446 4_446
O3 O2 O2 35.0(4) 1_556 4_446
La O2 O2 47.55(9) 2_456 4_446
La O2 O2 84.9(2) 4_445 4_446
Ga3 O2 O2 169.0(4) . 4_446
O3 O2 O2 86.1(3) 4_456 4_446
Ga3 O2 O2 67.73(17) 2_455 4_446
O3 O2 O2 102.4(4) . 4_446
O2 O2 O2 66.9(3) 2_456 4_446
O2 O2 O2 60.1(6) 2_566 4_446
Ga2 O2 O2 132.0(2) . 4_446
La O2 O2 126.8(5) 4_455 4_446
O3 O2 O2 152.2(5) 4_455 4_446
O2 O2 O2 84.3(3) 5_346 4_446
Ga1 O2 O2 71.43(19) 1_456 4_446
Nb O2 O2 71.43(19) 1_456 4_446
O1 O2 O2 105.7(3) 1_445 4_446
O3 O2 O2 123.0(3) 6_455 4_446
Ga2 O2 O2 86.68(18) 2_455 4_446
Ga3 O2 O2 106.9(3) 2_465 4_446
Ga3 O2 O2 64.2(4) 2_565 4_446
O2 O2 O2 28.86(13) 1_556 4_446
O2 O2 O2 151.14(13) 1_554 4_446
O2 O2 O2 121.3(3) 2_455 4_446
O2 O2 O2 115.2(5) 2_565 4_446
O3 O2 O2 48.43(19) 4_446 4_446
O3 O2 O2 91.2(3) 1_456 4_446
O2 O2 O2 39.4(3) 5_446 4_446
O2 O2 O2 79.6(6) 5_456 4_446
Ga2 O2 O2 134.0(5) 2_564 4_446
La O2 O2 24.66(12) 4_446 4_446
Nb O2 O2 82.9(3) . 4_446
Ga1 O2 O2 82.9(3) . 4_446
O3 O2 O2 66.3(3) 2 4_446
O2 O2 O2 138.9(4) 5_345 4_446
O3 O2 O2 73.0(2) 5_445 4_446
O3 O2 O2 101.2(2) 4_445 4_446
O3 O2 O2 148.4(3) 1_455 4_446
O3 O2 O2 56.78(18) 2_456 4_446
O3 O2 O2 58.0(2) 5_456 4_446
O3 O2 O2 84.9(3) 6_445 4_446
La O2 O2 71.8(3) 4_456 4_446
O1 O2 O2 49.6(3) 1_556 4_446
O2 O2 O2 113.5(3) 4_345 4_446
O2 O2 O2 115.7(2) 3_465 4_446
O2 O2 O2 94.0(4) 5_445 4_446
O2 O2 O2 127.3(7) 5_455 4_446
Ga3 O2 O2 156.0(3) 4_345 4_446
O2 O2 O2 27.93(12) 3_456 4_446
Ga2 O2 O2 92.0(5) 1_556 3_454
Ga3 O2 O2 140.1(9) 1_556 3_454
La O2 O2 66.5(3) . 3_454
O2 O2 O2 61.14(13) 3_455 3_454
O2 O2 O2 76.04(6) 4_445 3_454
O3 O2 O2 82.2(6) 2_455 3_454
O2 O2 O2 161.4(5) 6_556 3_454
O3 O2 O2 106.4(6) 5_455 3_454
La O2 O2 38.0(3) 2_455 3_454
O1 O2 O2 16.08(15) 2_455 3_454
O3 O2 O2 135.7(7) 3_456 3_454
O1 O2 O2 122.0(3) 2_456 3_454
O3 O2 O2 46.3(3) 3_455 3_454
O1 O2 O2 105.3(3) . 3_454
Nb O2 O2 78.9(4) 1_455 3_454
Ga1 O2 O2 78.9(4) 1_455 3_454
Ga2 O2 O2 133.2(3) 2_565 3_454
O2 O2 O2 62.3(5) 6 3_454
O3 O2 O2 93.3(3) 6 3_454
La O2 O2 151.4(4) 1_556 3_454
Ga3 O2 O2 101.2(5) 4_346 3_454
Ga3 O2 O2 94.4(2) 4_446 3_454
O3 O2 O2 119.0(3) 1_556 3_454
La O2 O2 121.3(4) 2_456 3_454
La O2 O2 46.80(16) 4_445 3_454
Ga3 O2 O2 46.5(2) . 3_454
O3 O2 O2 140.5(5) 4_456 3_454
Ga3 O2 O2 74.0(3) 2_455 3_454
O3 O2 O2 58.09(18) . 3_454
O2 O2 O2 89.5(5) 2_456 3_454
O2 O2 O2 132.7(3) 2_566 3_454
Ga2 O2 O2 14.70(7) . 3_454
La O2 O2 98.2(3) 4_455 3_454
O3 O2 O2 77.1(4) 4_455 3_454
O2 O2 O2 101.1(7) 5_346 3_454
Ga1 O2 O2 141.9(5) 1_456 3_454
Nb O2 O2 141.9(5) 1_456 3_454
O1 O2 O2 63.1(4) 1_445 3_454
O3 O2 O2 98.4(5) 6_455 3_454
Ga2 O2 O2 83.0(4) 2_455 3_454
Ga3 O2 O2 118.9(5) 2_465 3_454
Ga3 O2 O2 112.3(2) 2_565 3_454
O2 O2 O2 151.14(13) 1_556 3_454
O2 O2 O2 28.86(13) 1_554 3_454
O2 O2 O2 29.4(4) 2_455 3_454
O2 O2 O2 74.4(2) 2_565 3_454
O3 O2 O2 88.0(3) 4_446 3_454
O3 O2 O2 119.7(5) 1_456 3_454
O2 O2 O2 94.6(3) 5_446 3_454
O2 O2 O2 139.9(3) 5_456 3_454
Ga2 O2 O2 68.65(14) 2_564 3_454
La O2 O2 106.5(2) 4_446 3_454
Nb O2 O2 77.33(16) . 3_454
Ga1 O2 O2 77.33(16) . 3_454
O3 O2 O2 80.7(3) 2 3_454
O2 O2 O2 47.9(3) 5_345 3_454
O3 O2 O2 58.7(2) 5_445 3_454
O3 O2 O2 30.5(2) 4_445 3_454
O3 O2 O2 69.1(4) 1_455 3_454
O3 O2 O2 137.8(4) 2_456 3_454
O3 O2 O2 162.7(5) 5_456 3_454
O3 O2 O2 58.2(3) 6_445 3_454
La O2 O2 157.3(3) 4_456 3_454
O1 O2 O2 163.9(4) 1_556 3_454
O2 O2 O2 88.0(4) 4_345 3_454
O2 O2 O2 113.5(3) 3_465 3_454
O2 O2 O2 45.9(2) 5_445 3_454
O2 O2 O2 85.6(3) 5_455 3_454
Ga3 O2 O2 50.8(3) 4_345 3_454
O2 O2 O2 122.3(3) 3_456 3_454
O2 O2 O2 130.6(2) 4_446 3_454
Ga2 O2 Ga3 83.2(3) 1_556 4_445
Ga3 O2 Ga3 151.1(4) 1_556 4_445
La O2 Ga3 31.24(19) . 4_445
O2 O2 Ga3 79.2(3) 3_455 4_445
O2 O2 Ga3 46.8(3) 4_445 4_445
O3 O2 Ga3 125.3(5) 2_455 4_445
O2 O2 Ga3 123.8(3) 6_556 4_445
O3 O2 Ga3 117.0(4) 5_455 4_445
La O2 Ga3 82.2(3) 2_455 4_445
O1 O2 Ga3 29.89(16) 2_455 4_445
O3 O2 Ga3 172.2(4) 3_456 4_445
O1 O2 Ga3 109.9(3) 2_456 4_445
O3 O2 Ga3 78.9(3) 3_455 4_445
O1 O2 Ga3 76.5(2) . 4_445
Nb O2 Ga3 108.5(3) 1_455 4_445
Ga1 O2 Ga3 108.5(3) 1_455 4_445
Ga2 O2 Ga3 96.8(2) 2_565 4_445
O2 O2 Ga3 57.8(3) 6 4_445
O3 O2 Ga3 48.5(2) 6 4_445
La O2 Ga3 112.5(3) 1_556 4_445
Ga3 O2 Ga3 145.5(5) 4_346 4_445
Ga3 O2 Ga3 58.27(12) 4_446 4_445
O3 O2 Ga3 79.2(2) 1_556 4_445
La O2 Ga3 139.1(2) 2_456 4_445
La O2 Ga3 39.60(9) 4_445 4_445
Ga3 O2 Ga3 63.37(15) . 4_445
O3 O2 Ga3 149.7(3) 4_456 4_445
Ga3 O2 Ga3 92.92(18) 2_455 4_445
O3 O2 Ga3 14.41(14) . 4_445
O2 O2 Ga3 116.3(3) 2_456 4_445
O2 O2 Ga3 88.6(2) 2_566 4_445
Ga2 O2 Ga3 32.90(7) . 4_445
La O2 Ga3 92.81(18) 4_455 4_445
O3 O2 Ga3 92.7(3) 4_455 4_445
O2 O2 Ga3 143.0(5) 5_346 4_445
Ga1 O2 Ga3 172.3(4) 1_456 4_445
Nb O2 Ga3 172.3(4) 1_456 4_445
O1 O2 Ga3 105.5(3) 1_445 4_445
O3 O2 Ga3 129.9(4) 6_455 4_445
Ga2 O2 Ga3 121.7(3) 2_455 4_445
Ga3 O2 Ga3 140.0(2) 2_465 4_445
Ga3 O2 Ga3 67.57(14) 2_565 4_445
O2 O2 Ga3 134.98(18) 1_556 4_445
O2 O2 Ga3 45.02(18) 1_554 4_445
O2 O2 Ga3 72.1(3) 2_455 4_445
O2 O2 Ga3 44.05(19) 2_565 4_445
O3 O2 Ga3 93.1(2) 4_446 4_445
O3 O2 Ga3 161.6(4) 1_456 4_445
O2 O2 Ga3 68.66(19) 5_446 4_445
O2 O2 Ga3 108.0(3) 5_456 4_445
Ga2 O2 Ga3 53.49(10) 2_564 4_445
La O2 Ga3 93.06(15) 4_446 4_445
Nb O2 Ga3 32.54(6) . 4_445
Ga1 O2 Ga3 32.54(6) . 4_445
O3 O2 Ga3 41.29(18) 2 4_445
O2 O2 Ga3 91.6(3) 5_345 4_445
O3 O2 Ga3 65.26(18) 5_445 4_445
O3 O2 Ga3 51.96(19) 4_445 4_445
O3 O2 Ga3 103.7(3) 1_455 4_445
O3 O2 Ga3 161.8(3) 2_456 4_445
O3 O2 Ga3 152.4(4) 5_456 4_445
O3 O2 Ga3 85.4(2) 6_445 4_445
La O2 Ga3 133.6(3) 4_456 4_445
O1 O2 Ga3 119.4(3) 1_556 4_445
O2 O2 Ga3 131.8(3) 4_345 4_445
O2 O2 Ga3 122.51(19) 3_465 4_445
O2 O2 Ga3 18.34(14) 5_445 4_445
O2 O2 Ga3 70.1(2) 5_455 4_445
Ga3 O2 Ga3 88.4(2) 4_345 4_445
O2 O2 Ga3 121.9(3) 3_456 4_445
O2 O2 Ga3 106.8(3) 4_446 4_445
O2 O2 Ga3 44.84(12) 3_454 4_445
Ga2 O2 O2 92.0(5) 1_556 4_444
Ga3 O2 O2 148.2(4) 1_556 4_444
La O2 O2 40.0(2) . 4_444
O2 O2 O2 76.03(6) 3_455 4_444
O2 O2 O2 61.14(13) 4_445 4_444
O3 O2 O2 107.0(5) 2_455 4_444
O2 O2 O2 137.3(4) 6_556 4_444
O3 O2 O2 109.0(4) 5_455 4_444
La O2 O2 66.0(3) 2_455 4_444
O1 O2 O2 16.08(15) 2_455 4_444
O3 O2 O2 163.6(7) 3_456 4_444
O1 O2 O2 122.0(3) 2_456 4_444
O3 O2 O2 61.6(2) 3_455 4_444
O1 O2 O2 83.4(3) . 4_444
Nb O2 O2 92.9(2) 1_455 4_444
Ga1 O2 O2 92.9(2) 1_455 4_444
Ga2 O2 O2 108.4(3) 2_565 4_444
O2 O2 O2 51.2(2) 6 4_444
O3 O2 O2 65.8(3) 6 4_444
La O2 O2 130.8(3) 1_556 4_444
Ga3 O2 O2 127.3(4) 4_346 4_444
Ga3 O2 O2 75.3(2) 4_446 4_444
O3 O2 O2 97.3(3) 1_556 4_444
La O2 O2 140.9(4) 2_456 4_444
La O2 O2 43.1(3) 4_445 4_444
Ga3 O2 O2 49.14(11) . 4_444
O3 O2 O2 147.4(3) 4_456 4_444
Ga3 O2 O2 90.3(4) 2_455 4_444
O3 O2 O2 30.3(2) . 4_444
O2 O2 O2 111.1(5) 2_456 4_444
O2 O2 O2 104.7(3) 2_566 4_444
Ga2 O2 O2 14.70(7) . 4_444
La O2 O2 89.7(2) 4_455 4_444
O3 O2 O2 81.0(3) 4_455 4_444
O2 O2 O2 128.9(7) 5_346 4_444
Ga1 O2 O2 166.0(3) 1_456 4_444
Nb O2 O2 166.0(3) 1_456 4_444
O1 O2 O2 90.8(4) 1_445 4_444
O3 O2 O2 114.6(3) 6_455 4_444
Ga2 O2 O2 109.7(4) 2_455 4_444
Ga3 O2 O2 129.7(2) 2_465 4_444
Ga3 O2 O2 84.7(2) 2_565 4_444
O2 O2 O2 151.14(13) 1_556 4_444
O2 O2 O2 28.86(13) 1_554 4_444
O2 O2 O2 56.8(4) 2_455 4_444
O2 O2 O2 50.2(3) 2_565 4_444
O3 O2 O2 96.8(4) 4_446 4_444
O3 O2 O2 143.8(4) 1_456 4_444
O2 O2 O2 82.9(3) 5_446 4_444
O2 O2 O2 118.0(4) 5_456 4_444
Ga2 O2 O2 51.71(18) 2_564 4_444
La O2 O2 104.3(2) 4_446 4_444
Nb O2 O2 50.48(17) . 4_444
Ga1 O2 O2 50.48(17) . 4_444
O3 O2 O2 58.9(2) 2 4_444
O2 O2 O2 73.4(3) 5_345 4_444
O3 O2 O2 66.0(3) 5_445 4_444
O3 O2 O2 44.4(3) 4_445 4_444
O3 O2 O2 86.6(2) 1_455 4_444
O3 O2 O2 163.7(4) 2_456 4_444
O3 O2 O2 167.6(5) 5_456 4_444
O3 O2 O2 78.4(4) 6_445 4_444
La O2 O2 143.2(4) 4_456 4_444
O1 O2 O2 136.0(4) 1_556 4_444
O2 O2 O2 113.5(3) 4_345 4_444
O2 O2 O2 115.7(2) 3_465 4_444
O2 O2 O2 28.4(4) 5_445 4_444
O2 O2 O2 69.9(3) 5_455 4_444
Ga3 O2 O2 70.42(15) 4_345 4_444
O2 O2 O2 130.6(2) 3_456 4_444
O2 O2 O2 122.3(3) 4_446 4_444
O2 O2 O2 27.93(12) 3_454 4_444
Ga3 O2 O2 18.32(13) 4_445 4_444
Ga2 O2 La 118.4(6) 1_556 2_565
Ga3 O2 La 87.5(4) 1_556 2_565
La O2 La 34.4(3) . 2_565
O2 O2 La 141.6(6) 3_455 2_565
O2 O2 La 84.6(6) 4_445 2_565
O3 O2 La 124.4(3) 2_455 2_565
O2 O2 La 64.0(3) 6_556 2_565
O3 O2 La 69.6(3) 5_455 2_565
La O2 La 130.9(4) 2_455 2_565
O1 O2 La 90.0(3) 2_455 2_565
O3 O2 La 119.7(5) 3_456 2_565
O1 O2 La 115.7(5) 2_456 2_565
O3 O2 La 92.1(3) 3_455 2_565
O1 O2 La 12.69(12) . 2_565
Nb O2 La 91.75(19) 1_455 2_565
Ga1 O2 La 91.75(19) 1_455 2_565
Ga2 O2 La 34.97(11) 2_565 2_565
O2 O2 La 46.4(3) 6 2_565
O3 O2 La 38.6(2) 6 2_565
La O2 La 80.6(3) 1_556 2_565
Ga3 O2 La 128.62(19) 4_346 2_565
Ga3 O2 La 74.7(2) 4_446 2_565
O3 O2 La 69.7(3) 1_556 2_565
La O2 La 139.3(4) 2_456 2_565
La O2 La 101.0(2) 4_445 2_565
Ga3 O2 La 71.05(14) . 2_565
O3 O2 La 86.0(2) 4_456 2_565
Ga3 O2 La 151.8(3) 2_455 2_565
O3 O2 La 51.52(19) . 2_565
O2 O2 La 167.7(6) 2_456 2_565
O2 O2 La 42.1(2) 2_566 2_565
Ga2 O2 La 83.93(16) . 2_565
La O2 La 44.36(11) 4_455 2_565
O3 O2 La 69.33(18) 4_455 2_565
O2 O2 La 149.09(14) 5_346 2_565
Ga1 O2 La 107.8(3) 1_456 2_565
Nb O2 La 107.8(3) 1_456 2_565
O1 O2 La 153.5(4) 1_445 2_565
O3 O2 La 98.2(2) 6_455 2_565
Ga2 O2 La 168.4(2) 2_455 2_565
Ga3 O2 La 88.10(16) 2_465 2_565
Ga3 O2 La 38.68(11) 2_565 2_565
O2 O2 La 105.39(18) 1_556 2_565
O2 O2 La 74.61(18) 1_554 2_565
O2 O2 La 126.6(5) 2_455 2_565
O2 O2 La 24.05(10) 2_565 2_565
O3 O2 La 137.1(3) 4_446 2_565
O3 O2 La 116.0(2) 1_456 2_565
O2 O2 La 93.3(4) 5_446 2_565
O2 O2 La 44.19(19) 5_456 2_565
Ga2 O2 La 34.75(8) 2_564 2_565
La O2 La 114.0(3) 4_446 2_565
Nb O2 La 47.71(11) . 2_565
Ga1 O2 La 47.71(11) . 2_565
O3 O2 La 66.67(18) 2 2_565
O2 O2 La 120.3(3) 5_345 2_565
O3 O2 La 125.0(2) 5_445 2_565
O3 O2 La 116.7(2) 4_445 2_565
O3 O2 La 99.6(2) 1_455 2_565
O3 O2 La 122.4(3) 2_456 2_565
O3 O2 La 93.8(3) 5_456 2_565
O3 O2 La 150.2(2) 6_445 2_565
La O2 La 69.87(18) 4_456 2_565
O1 O2 La 67.6(2) 1_556 2_565
O2 O2 La 128.0(2) 4_345 2_565
O2 O2 La 70.5(3) 3_465 2_565
O2 O2 La 79.6(2) 5_445 2_565
O2 O2 La 28.1(2) 5_455 2_565
Ga3 O2 La 102.49(19) 4_345 2_565
O2 O2 La 127.7(4) 3_456 2_565
O2 O2 La 100.8(4) 4_446 2_565
O2 O2 La 98.40(16) 3_454 2_565
Ga3 O2 La 64.91(12) 4_445 2_565
O2 O2 La 73.9(2) 4_444 2_565
Ga2 O2 O2 96.0(7) 1_556 3_565
Ga3 O2 O2 94.1(4) 1_556 3_565
La O2 O2 41.3(5) . 3_565
O2 O2 O2 126.8(8) 3_455 3_565
O2 O2 O2 66.8(8) 4_445 3_565
O3 O2 O2 145.7(4) 2_455 3_565
O2 O2 O2 59.6(3) 6_556 3_565
O3 O2 O2 88.4(3) 5_455 3_565
La O2 O2 144.6(2) 2_455 3_565
O1 O2 O2 93.7(4) 2_455 3_565
O3 O2 O2 117.1(5) 3_456 3_565
O1 O2 O2 93.5(4) 2_456 3_565
O3 O2 O2 113.7(2) 3_455 3_565
O1 O2 O2 31.87(12) . 3_565
Nb O2 O2 114.43(19) 1_455 3_565
Ga1 O2 O2 114.43(19) 1_455 3_565
Ga2 O2 O2 34.27(10) 2_565 3_565
O2 O2 O2 67.5(3) 6 3_565
O3 O2 O2 20.9(3) 6 3_565
La O2 O2 62.71(19) 1_556 3_565
Ga3 O2 O2 142.3(2) 4_346 3_565
Ga3 O2 O2 53.3(3) 4_446 3_565
O3 O2 O2 46.6(3) 1_556 3_565
La O2 O2 123.2(3) 2_456 3_565
La O2 O2 90.9(4) 4_445 3_565
Ga3 O2 O2 91.71(17) . 3_565
O3 O2 O2 92.62(19) 4_456 3_565
Ga3 O2 O2 132.1(4) 2_455 3_565
O3 O2 O2 49.9(3) . 3_565
O2 O2 O2 144.8(5) 2_456 3_565
O2 O2 O2 26.3(4) 2_566 3_565
Ga2 O2 O2 92.4(3) . 3_565
La O2 O2 65.80(11) 4_455 3_565
O3 O2 O2 92.47(17) 4_455 3_565
O2 O2 O2 152.0(4) 5_346 3_565
Ga1 O2 O2 108.14(16) 1_456 3_565
Nb O2 O2 108.14(16) 1_456 3_565
O1 O2 O2 169.7(2) 1_445 3_565
O3 O2 O2 117.3(2) 6_455 3_565
Ga2 O2 O2 165.7(3) 2_455 3_565
Ga3 O2 O2 102.19(15) 2_465 3_565
Ga3 O2 O2 15.46(13) 2_565 3_565
O2 O2 O2 90.000(1) 1_556 3_565
O2 O2 O2 90.0 1_554 3_565
O2 O2 O2 135.8(2) 2_455 3_565
O2 O2 O2 38.1(3) 2_565 3_565
O3 O2 O2 114.6(4) 4_446 3_565
O3 O2 O2 124.6(2) 1_456 3_565
O2 O2 O2 71.3(4) 5_446 3_565
O2 O2 O2 46.41(16) 5_456 3_565
Ga2 O2 O2 55.08(16) 2_564 3_565
La O2 O2 90.8(3) 4_446 3_565
Nb O2 O2 35.9(3) . 3_565
Ga1 O2 O2 35.9(3) . 3_565
O3 O2 O2 49.3(3) 2 3_565
O2 O2 O2 141.4(2) 5_345 3_565
O3 O2 O2 110.2(4) 5_445 3_565
O3 O2 O2 113.4(3) 4_445 3_565
O3 O2 O2 122.8(2) 1_455 3_565
O3 O2 O2 115.1(2) 2_456 3_565
O3 O2 O2 89.19(15) 5_456 3_565
O3 O2 O2 139.0(3) 6_445 3_565
La O2 O2 70.30(9) 4_456 3_565
O1 O2 O2 57.23(12) 1_556 3_565
O2 O2 O2 147.4(2) 4_345 3_565
O2 O2 O2 87.4(2) 3_465 3_565
O2 O2 O2 73.1(5) 5_445 3_565
O2 O2 O2 51.4(3) 5_455 3_565
Ga3 O2 O2 124.81(12) 4_345 3_565
O2 O2 O2 106.8(3) 3_456 3_565
O2 O2 O2 79.0(4) 4_446 3_565
O2 O2 O2 106.8(3) 3_454 3_565
Ga3 O2 O2 64.2(3) 4_445 3_565
O2 O2 O2 79.0(4) 4_444 3_565
La O2 O2 23.26(9) 2_565 3_565
Ga2 O2 O2 144.5(7) 1_556 4_455
Ga3 O2 O2 45.7(3) 1_556 4_455
La O2 O2 74.6(3) . 4_455
O2 O2 O2 173.2(8) 3_455 4_455
O2 O2 O2 126.8(8) 4_445 4_455
O3 O2 O2 86.3(3) 2_455 4_455
O2 O2 O2 44.8(4) 6_556 4_455
O3 O2 O2 29.2(3) 5_455 4_455
La O2 O2 124.3(3) 2_455 4_455
O1 O2 O2 120.5(3) 2_455 4_455
O3 O2 O2 81.1(3) 3_456 4_455
O1 O2 O2 118.6(3) 2_456 4_455
O3 O2 O2 82.2(3) 3_455 4_455
O1 O2 O2 31.87(12) . 4_455
Nb O2 O2 61.0(2) 1_455 4_455
Ga1 O2 O2 61.0(2) 1_455 4_455
Ga2 O2 O2 34.26(10) 2_565 4_455
O2 O2 O2 57.6(5) 6 4_455
O3 O2 O2 80.3(3) 6 4_455
La O2 O2 80.65(15) 1_556 4_455
Ga3 O2 O2 84.6(2) 4_346 4_455
Ga3 O2 O2 111.5(3) 4_446 4_455
O3 O2 O2 94.4(3) 1_556 4_455
La O2 O2 112.26(17) 2_456 4_455
La O2 O2 144.5(3) 4_445 4_455
Ga3 O2 O2 72.92(17) . 4_455
O3 O2 O2 44.3(2) 4_456 4_455
Ga3 O2 O2 161.6(2) 2_455 4_455
O3 O2 O2 94.1(3) . 4_455
O2 O2 O2 137.9(3) 2_456 4_455
O2 O2 O2 57.08(15) 2_566 4_455
Ga2 O2 O2 109.13(12) . 4_455
La O2 O2 20.6(2) 4_455 4_455
O3 O2 O2 47.6(2) 4_455 4_455
O2 O2 O2 104.65(15) 5_346 4_455
Ga1 O2 O2 68.58(16) 1_456 4_455
Nb O2 O2 68.58(16) 1_456 4_455
O1 O2 O2 125.5(3) 1_445 4_455
O3 O2 O2 57.5(2) 6_455 4_455
Ga2 O2 O2 124.9(3) 2_455 4_455
Ga3 O2 O2 43.67(15) 2_465 4_455
Ga3 O2 O2 71.02(17) 2_565 4_455
O2 O2 O2 90.0 1_556 4_455
O2 O2 O2 90.0 1_554 4_455
O2 O2 O2 130.7(4) 2_455 4_455
O2 O2 O2 61.48(14) 2_565 4_455
O3 O2 O2 153.4(3) 4_446 4_455
O3 O2 O2 71.7(2) 1_456 4_455
O2 O2 O2 126.5(5) 5_446 4_455
O2 O2 O2 27.9(3) 5_456 4_455
Ga2 O2 O2 55.08(17) 2_564 4_455
La O2 O2 131.1(3) 4_446 4_455
Nb O2 O2 92.0(2) . 4_455
Ga1 O2 O2 92.0(2) . 4_455
O3 O2 O2 109.1(3) 2 4_455
O2 O2 O2 102.93(16) 5_345 4_455
O3 O2 O2 169.5(4) 5_445 4_455
O3 O2 O2 148.70(19) 4_445 4_455
O3 O2 O2 72.5(2) 1_455 4_455
O3 O2 O2 88.13(18) 2_456 4_455
O3 O2 O2 63.38(15) 5_456 4_455
O3 O2 O2 160.5(3) 6_445 4_455
La O2 O2 39.63(13) 4_456 4_455
O1 O2 O2 57.23(12) 1_556 4_455
O2 O2 O2 87.4(2) 4_345 4_455
O2 O2 O2 27.4(2) 3_465 4_455
O2 O2 O2 122.6(3) 5_445 4_455
O2 O2 O2 36.9(3) 5_455 4_455
Ga3 O2 O2 86.14(17) 4_345 4_455
O2 O2 O2 118.64(15) 3_456 4_455
O2 O2 O2 106.8(3) 4_446 4_455
O2 O2 O2 118.64(15) 3_454 4_455
Ga3 O2 O2 105.42(18) 4_445 4_455
O2 O2 O2 106.8(3) 4_444 4_455
La O2 O2 44.56(13) 2_565 4_455
O2 O2 O2 60.000(1) 3_565 4_455
Ga2 O2 O3 60.7(6) 1_556 6_556
Ga3 O2 O3 79.6(7) 1_556 6_556
La O2 O3 91.7(6) . 6_556
O2 O2 O3 100.3(3) 3_455 6_556
O2 O2 O3 64.3(3) 4_445 6_556
O3 O2 O3 134.9(5) 2_455 6_556
O2 O2 O3 44.4(3) 6_556 6_556
O3 O2 O3 107.3(5) 5_455 6_556
La O2 O3 150.5(3) 2_455 6_556
O1 O2 O3 124.4(4) 2_455 6_556
O3 O2 O3 76.5(5) 3_456 6_556
O1 O2 O3 42.4(3) 2_456 6_556
O3 O2 O3 165.0(4) 3_455 6_556
O1 O2 O3 75.9(4) . 6_556
Nb O2 O3 139.3(3) 1_455 6_556
Ga1 O2 O3 139.3(3) 1_455 6_556
Ga2 O2 O3 51.9(3) 2_565 6_556
O2 O2 O3 120.4(5) 6 6_556
O3 O2 O3 56.1(3) 6 6_556
La O2 O3 12.84(14) 1_556 6_556
Ga3 O2 O3 114.3(3) 4_346 6_556
Ga3 O2 O3 45.5(2) 4_446 6_556
O3 O2 O3 21.2(2) 1_556 6_556
La O2 O3 69.8(3) 2_456 6_556
La O2 O3 95.1(3) 4_445 6_556
Ga3 O2 O3 145.1(3) . 6_556
O3 O2 O3 79.1(3) 4_456 6_556
Ga3 O2 O3 94.1(3) 2_455 6_556
O3 O2 O3 89.8(4) . 6_556
O2 O2 O3 93.8(4) 2_456 6_556
O2 O2 O3 32.9(4) 2_566 6_556
Ga2 O2 O3 132.2(3) . 6_556
La O2 O3 102.1(4) 4_455 6_556
O3 O2 O3 131.4(4) 4_455 6_556
O2 O2 O3 104.4(5) 5_346 6_556
Ga1 O2 O3 75.2(3) 1_456 6_556
Nb O2 O3 75.2(3) 1_456 6_556
O1 O2 O3 132.4(3) 1_445 6_556
O3 O2 O3 121.5(3) 6_455 6_556
Ga2 O2 O3 112.1(3) 2_455 6_556
Ga3 O2 O3 100.4(3) 2_465 6_556
Ga3 O2 O3 40.3(2) 2_565 6_556
O2 O2 O3 39.15(17) 1_556 6_556
O2 O2 O3 140.85(17) 1_554 6_556
O2 O2 O3 145.4(3) 2_455 6_556
O2 O2 O3 91.6(4) 2_565 6_556
O3 O2 O3 74.1(3) 4_446 6_556
O3 O2 O3 98.0(3) 1_456 6_556
O2 O2 O3 48.1(3) 5_446 6_556
O2 O2 O3 56.0(4) 5_456 6_556
Ga2 O2 O3 108.4(3) 2_564 6_556
La O2 O3 48.06(19) 4_446 6_556
Nb O2 O3 68.7(3) . 6_556
Ga1 O2 O3 68.7(3) . 6_556
O3 O2 O3 60.0(2) 2 6_556
O2 O2 O3 164.8(3) 5_345 6_556
O3 O2 O3 92.9(2) 5_445 6_556
O3 O2 O3 118.2(3) 4_445 6_556
O3 O2 O3 150.3(2) 1_455 6_556
O3 O2 O3 69.2(3) 2_456 6_556
O3 O2 O3 55.6(3) 5_456 6_556
O3 O2 O3 110.8(3) 6_445 6_556
La O2 O3 57.3(2) 4_456 6_556
O1 O2 O3 30.94(15) 1_556 6_556
O2 O2 O3 128.07(14) 4_345 6_556
O2 O2 O3 101.0(2) 3_465 6_556
O2 O2 O3 94.3(4) 5_445 6_556
O2 O2 O3 100.0(5) 5_455 6_556
Ga3 O2 O3 168.5(2) 4_345 6_556
O2 O2 O3 53.7(2) 3_456 6_556
O2 O2 O3 27.3(3) 4_446 6_556
O2 O2 O3 140.0(3) 3_454 6_556
Ga3 O2 O3 99.7(3) 4_445 6_556
O2 O2 O3 118.0(3) 4_444 6_556
La O2 O3 74.1(3) 2_565 6_556
O2 O2 O3 53.7(2) 3_565 6_556
O2 O2 O3 83.9(2) 4_455 6_556
Ga2 O2 O3 126.5(7) 1_556 2_454
Ga3 O2 O3 103.0(6) 1_556 2_454
La O2 O3 75.1(4) . 2_454
O2 O2 O3 88.6(4) 3_455 2_454
O2 O2 O3 112.56(17) 4_445 2_454
O3 O2 O3 55.6(4) 2_455 2_454
O2 O2 O3 131.8(4) 6_556 2_454
O3 O2 O3 69.4(5) 5_455 2_454
La O2 O3 41.0(2) 2_455 2_454
O1 O2 O3 51.2(4) 2_455 2_454
O3 O2 O3 113.7(6) 3_456 2_454
O1 O2 O3 150.1(5) 2_456 2_454
O3 O2 O3 8.6(2) 3_455 2_454
O1 O2 O3 91.4(4) . 2_454
Nb O2 O3 41.5(2) 1_455 2_454
Ga1 O2 O3 41.5(2) 1_455 2_454
Ga2 O2 O3 117.4(3) 2_565 2_454
O2 O2 O3 45.9(3) 6 2_454
O3 O2 O3 111.3(3) 6 2_454
La O2 O3 168.9(2) 1_556 2_454
Ga3 O2 O3 76.3(3) 4_346 2_454
Ga3 O2 O3 128.9(3) 4_446 2_454
O3 O2 O3 150.0(3) 1_556 2_454
La O2 O3 124.0(4) 2_456 2_454
La O2 O3 84.6(3) 4_445 2_454
Ga3 O2 O3 21.24(16) . 2_454
O3 O2 O3 103.2(3) 4_456 2_454
Ga3 O2 O3 96.9(3) 2_455 2_454
O3 O2 O3 79.3(3) . 2_454
O2 O2 O3 99.7(4) 2_456 2_454
O2 O2 O3 134.1(4) 2_566 2_454
Ga2 O2 O3 40.83(18) . 2_454
La O2 O3 68.6(2) 4_455 2_454
O3 O2 O3 41.5(3) 4_455 2_454
O2 O2 O3 88.7(5) 5_346 2_454
Ga1 O2 O3 112.5(3) 1_456 2_454
Nb O2 O3 112.5(3) 1_456 2_454
O1 O2 O3 61.4(3) 1_445 2_454
O3 O2 O3 62.3(3) 6_455 2_454
Ga2 O2 O3 81.8(3) 2_455 2_454
Ga3 O2 O3 81.5(3) 2_465 2_454
Ga3 O2 O3 126.0(2) 2_565 2_454
O2 O2 O3 152.75(14) 1_556 2_454
O2 O2 O3 27.25(14) 1_554 2_454
O2 O2 O3 43.2(4) 2_455 2_454
O2 O2 O3 74.6(3) 2_565 2_454
O3 O2 O3 116.1(4) 4_446 2_454
O3 O2 O3 90.4(3) 1_456 2_454
O2 O2 O3 132.3(4) 5_446 2_454
O2 O2 O3 115.7(3) 5_456 2_454
Ga2 O2 O3 57.80(19) 2_564 2_454
La O2 O3 140.6(3) 4_446 2_454
Nb O2 O3 100.2(2) . 2_454
Ga1 O2 O3 100.2(2) . 2_454
O3 O2 O3 112.5(3) 2 2_454
O2 O2 O3 29.1(2) 5_345 2_454
O3 O2 O3 92.8(3) 5_445 2_454
O3 O2 O3 65.2(2) 4_445 2_454
O3 O2 O3 33.2(2) 1_455 2_454
O3 O2 O3 122.1(4) 2_456 2_454
O3 O2 O3 129.9(3) 5_456 2_454
O3 O2 O3 79.7(3) 6_445 2_454
La O2 O3 121.1(2) 4_456 2_454
O1 O2 O3 145.2(2) 1_556 2_454
O2 O2 O3 62.75(14) 4_345 2_454
O2 O2 O3 76.34(13) 3_465 2_454
O2 O2 O3 80.2(4) 5_445 2_454
O2 O2 O3 67.3(4) 5_455 2_454
Ga3 O2 O3 17.31(11) 4_345 2_454
O2 O2 O3 140.1(4) 3_456 2_454
O2 O2 O3 164.5(4) 4_446 2_454
O2 O2 O3 37.8(2) 3_454 2_454
Ga3 O2 O3 71.3(2) 4_445 2_454
O2 O2 O3 53.60(13) 4_444 2_454
La O2 O3 92.3(2) 2_565 2_454
O2 O2 O3 112.40(14) 3_565 2_454
O2 O2 O3 88.31(16) 4_455 2_454
O3 O2 O3 166.1(3) 6_556 2_454
Ga2 O2 O3 144.7(6) 1_556 5_454
Ga3 O2 O3 94.6(5) 1_556 5_454
La O2 O3 58.2(3) . 5_454
O2 O2 O3 112.0(3) 3_455 5_454
O2 O2 O3 114.6(2) 4_445 5_454
O3 O2 O3 69.4(4) 2_455 5_454
O2 O2 O3 111.0(5) 6_556 5_454
O3 O2 O3 55.6(3) 5_455 5_454
La O2 O3 66.6(3) 2_455 5_454
O1 O2 O3 60.8(3) 2_455 5_454
O3 O2 O3 119.4(6) 3_456 5_454
O1 O2 O3 175.1(5) 2_456 5_454
O3 O2 O3 24.5(2) 3_455 5_454
O1 O2 O3 65.8(3) . 5_454
Nb O2 O3 41.5(2) 1_455 5_454
Ga1 O2 O3 41.5(2) 1_455 5_454
Ga2 O2 O3 92.1(2) 2_565 5_454
O2 O2 O3 21.8(2) 6 5_454
O3 O2 O3 93.7(4) 6 5_454
La O2 O3 144.7(3) 1_556 5_454
Ga3 O2 O3 87.7(3) 4_346 5_454
Ga3 O2 O3 123.3(2) 4_446 5_454
O3 O2 O3 134.0(3) 1_556 5_454
La O2 O3 143.0(4) 2_456 5_454
La O2 O3 95.8(3) 4_445 5_454
Ga3 O2 O3 6.82(15) . 5_454
O3 O2 O3 94.1(3) 4_456 5_454
Ga3 O2 O3 121.9(4) 2_455 5_454
O3 O2 O3 69.7(2) . 5_454
O2 O2 O3 124.7(5) 2_456 5_454
O2 O2 O3 108.7(3) 2_566 5_454
Ga2 O2 O3 48.1(2) . 5_454
La O2 O3 45.68(19) 4_455 5_454
O3 O2 O3 26.4(4) 4_455 5_454
O2 O2 O3 106.3(6) 5_346 5_454
Ga1 O2 O3 112.5(3) 1_456 5_454
Nb O2 O3 112.5(3) 1_456 5_454
O1 O2 O3 85.9(4) 1_445 5_454
O3 O2 O3 62.3(2) 6_455 5_454
Ga2 O2 O3 105.0(4) 2_455 5_454
Ga3 O2 O3 75.0(2) 2_465 5_454
Ga3 O2 O3 104.2(2) 2_565 5_454
O2 O2 O3 152.73(17) 1_556 5_454
O2 O2 O3 27.27(17) 1_554 5_454
O2 O2 O3 67.8(5) 2_455 5_454
O2 O2 O3 53.4(3) 2_565 5_454
O3 O2 O3 139.9(4) 4_446 5_454
O3 O2 O3 95.1(4) 1_456 5_454
O2 O2 O3 136.4(3) 5_446 5_454
O2 O2 O3 92.0(3) 5_456 5_454
Ga2 O2 O3 34.35(12) 2_564 5_454
La O2 O3 158.6(3) 4_446 5_454
Nb O2 O3 87.83(19) . 5_454
Ga1 O2 O3 87.83(19) . 5_454
O3 O2 O3 106.2(3) 2 5_454
O2 O2 O3 52.7(3) 5_345 5_454
O3 O2 O3 112.0(4) 5_445 5_454
O3 O2 O3 83.7(3) 4_445 5_454
O3 O2 O3 40.7(3) 1_455 5_454
O3 O2 O3 129.9(3) 2_456 5_454
O3 O2 O3 122.1(3) 5_456 5_454
O3 O2 O3 104.6(4) 6_445 5_454
La O2 O3 104.0(2) 4_456 5_454
O1 O2 O3 122.9(2) 1_556 5_454
O2 O2 O3 76.33(13) 4_345 5_454
O2 O2 O3 62.73(17) 3_465 5_454
O2 O2 O3 82.9(4) 5_445 5_454
O2 O2 O3 41.6(3) 5_455 5_454
Ga3 O2 O3 35.61(15) 4_345 5_454
O2 O2 O3 163.6(4) 3_456 5_454
O2 O2 O3 168.3(5) 4_446 5_454
O2 O2 O3 53.3(2) 3_454 5_454
Ga3 O2 O3 67.78(19) 4_445 5_454
O2 O2 O3 54.71(19) 4_444 5_454
La O2 O3 67.58(14) 2_565 5_454
O2 O2 O3 89.27(14) 3_565 5_454
O2 O2 O3 66.23(17) 4_455 5_454
O3 O2 O3 141.4(3) 6_556 5_454
O3 O2 O3 25.62(18) 2_454 5_454
loop_
_geom_bond_atom_site_label_1
_geom_bond_atom_site_label_2
_geom_bond_distance
_geom_bond_site_symmetry_2
La O3 2.382(9) 6
La O3 2.382(9) .
La O2 2.404(11) .
La O2 2.405(11) 6
La O1 2.528(6) .
La O1 2.528(6) 2_455
La O2 2.83(2) 4_445
La O2 2.83(2) 2_565
La Ga2 3.3755(17) 1_556
La Ga2 3.3755(17) 2_564
La Ga1 3.4626(9) .
La Nb 3.4626(9) .
Ga1 O3 1.969(11) 2
Ga1 O3 1.969(11) .
Ga1 O3 1.969(11) 3
Ga1 O3 1.969(11) 5
Ga1 O3 1.969(11) 6
Ga1 O3 1.969(11) 4
Ga1 La 3.4626(9) 2
Ga1 La 3.4626(9) 4
Ga1 O2 3.568(15) 1_655
Ga1 O2 3.568(15) 5_445
Ga1 O2 3.568(15) 4_445
Ga2 O1 1.787(17) 2_455
Ga2 O2 1.812(11) 3_454
Ga2 O2 1.812(11) 4_444
Ga2 O2 1.812(11) 1_554
Ga2 O1 3.259(17) 2_454
Ga2 La 3.3755(17) 4_444
Ga2 La 3.3755(17) 2_454
Ga2 La 3.3755(17) 1_554
Ga2 O3 3.434(10) 4_445
Ga2 O3 3.434(10) .
Ga2 O3 3.434(10) 3_455
Ga2 La 3.5589(18) 4_445
Ga3 O3 1.807(10) 3_455
Ga3 O3 1.807(10) 5_454
Ga3 O2 1.837(10) 1_554
Ga3 O2 1.837(10) 6
Ga3 O3 2.547(16) 2_454
Ga3 O3 2.547(16) 4_455
Ga3 Nb 3.1380(11) 1_455
Ga3 Nb 3.1380(11) 1_454
Ga3 O1 3.563(8) 1_554
Ga3 O1 3.563(8) 2_455
Ga3 O3 3.621(9) 1_455
Ga3 O3 3.621(9) 6_454
Nb O3 1.969(11) 2
Nb O3 1.969(11) .
Nb O3 1.969(11) 3
Nb O3 1.969(11) 5
Nb O3 1.969(11) 6
Nb O3 1.969(11) 4
Nb Ga3 3.1380(11) 1_656
Nb Ga3 3.1380(11) 4_446
Nb Ga3 3.1380(11) 4_445
Nb Ga3 3.1380(11) 1_655
Nb Ga3 3.1380(11) 2_565
Nb Ga3 3.1380(11) 2_564
O1 Ga2 1.787(17) 2_565
O1 La 2.528(6) 2_565
O1 La 2.528(6) 4_455
O1 O2 2.90(2) 2_565
O1 O2 2.90(2) 6
O1 O2 2.90(2) 5_455
O1 O2 3.08(2) 2_566
O1 O2 3.08(2) 6_556
O1 O2 3.08(2) 5_456
O1 O3 3.137(10) 6
O1 O3 3.137(10) 5_455
O1 O3 3.137(10) 2_565
O1 Ga2 3.259(17) 2_564
O1 O2 3.552(13) 3_565
O1 O2 3.552(13) .
O1 O2 3.552(13) 4_455
O1 Ga3 3.563(8) 2_565
O1 Ga3 3.563(8) 1_556
O1 Ga3 3.563(8) 4_456
O1 O3 4.316(12) .
O1 O3 4.316(12) 4_455
O1 O3 4.316(12) 3_565
O1 Ga3 4.625(12) 2_564
O1 Ga3 4.625(12) 4_455
O1 Nb 4.706(3) 1_455
O1 Ga1 4.706(3) 1_455
O1 Ga1 4.706(3) 1_565
O1 Nb 4.706(3) 1_565
O1 O2 4.758(18) 4_445
O1 O2 4.758(18) 1_665
O1 O2 4.758(18) 3_465
O1 O3 4.82(2) 1_556
O1 O3 4.82(2) 3_566
O1 O3 4.82(2) 4_456
O1 La 4.812(14) 1_556
O1 La 4.812(14) 2_566
O1 La 4.812(14) 4_456
O1 O3 4.847(18) 4
O1 O3 4.847(18) 3_455
O1 O3 4.847(18) 1_565
O1 Ga2 4.875(5) 1_566
O1 Ga2 4.875(5) 1_556
O1 Ga2 4.875(5) 1_666
O1 O1 4.938(12) 2_465
O1 O1 4.938(12) 2_455
O1 O1 4.938(12) 2_565
O1 O1 5.0460 1_554
O1 O1 5.0460 1_556
O1 Ga3 5.258(5) 4_446
O1 Ga3 5.258(5) 1_666
O1 Ga3 5.258(5) 2_465
O1 O3 5.344(12) 5
O1 O3 5.344(12) 2_455
O1 O3 5.344(12) 6_565
O1 O3 5.297(13) 4_556
O1 O3 5.297(13) 3_456
O1 O3 5.297(13) 1_566
O1 O2 5.57(2) 1_554
O1 O2 5.57(2) 3_564
O1 O2 5.57(2) 4_454
O1 O3 5.639(18) 6_554
O1 O3 5.639(18) 5_454
O1 O3 5.639(18) 2_564
O1 O1 5.696(19) 2_466
O1 O1 5.696(19) 2_456
O1 O1 5.696(19) 2_566
O1 O3 5.782(10) 2
O1 O3 5.782(10) 6_455
O1 O3 5.782(10) 5_565
O1 La 5.843(2) 2_455
O1 La 5.843(2) 4
O1 La 5.843(2) 1_565
O1 O2 6.177(9) 3_455
O1 O2 6.177(9) 4
O1 O2 6.177(9) 1_565
O1 O3 6.23(2) 6_556
O3 Ga3 1.807(10) 4_445
O3 Ga3 2.547(16) 2_564
O3 O3 2.62(3) 6
O3 O3 2.691(15) 3
O3 O3 2.691(15) 4
O3 O2 2.80(2) 2_565
O3 O3 2.81(3) 6_554
O3 O2 2.803(15) 5_445
O3 O2 2.949(16) 4_444
O3 O1 3.137(10) 2_455
O3 O3 3.17(3) 2
O3 O2 3.34(3) 4_445
O3 O3 3.33(2) 2_554
O3 Ga3 3.621(9) 1_655
O3 La 3.737(15) 4_445
O3 O2 3.840(18) 6
O3 O3 3.89(2) 5
O3 Ga3 3.933(17) 4_446
O3 Ga2 3.968(14) 2_564
O3 O3 4.02(3) 5_554
O3 Ga1 4.139(15) 1_554
O3 Nb 4.139(15) 1_554
O3 O2 4.21(2) 1_554
O3 La 4.239(13) 2
O3 Ga3 4.323(12) 2_565
O3 La 4.351(15) 1_554
O3 O2 4.38(2) 3_564
O3 O2 4.496(15) .
O3 Ga2 4.541(11) 2_554
O3 La 4.672(11) 2_565
O3 O2 4.655(16) 3_565
O3 Ga2 4.767(15) 1_556
O3 O2 4.776(14) 6_655
O3 O1 4.82(2) 1_554
O3 O1 4.847(18) 1_545
O3 La 4.894(10) 4
O3 Ga3 5.032(13) 1_656
O3 O3 5.0460 1_556
O3 O3 5.0460 1_554
O3 O2 5.102(13) 3_454
O3 O2 5.081(13) 1_654
O3 La 5.217(11) 4_444
O3 O2 5.313(18) 2
O3 O2 5.341(16) 5_455
O3 O1 5.344(12) 2_565
O3 O1 5.297(13) 1_544
O3 O2 5.34(2) 3_455
O3 O2 5.32(2) 1_655
O3 Ga2 5.406(10) 2_565
O3 O3 5.400(17) 4_445
O3 O3 5.400(17) 3_455
O3 O2 5.458(16) 2_566
O3 O2 5.46(2) 5_446
O3 O2 5.443(19) 6_545
O3 Ga2 5.524(14) 1_665
O3 La 5.555(10) 2_455
O3 La 5.588(10) 2_554
O3 O1 5.639(18) 2_454
O3 O3 5.719(7) 3_556
O3 O3 5.719(7) 4_556
O3 O3 5.719(7) 3_554
O3 O3 5.719(7) 4_554
O3 O1 5.782(10) 2
O3 La 5.923(17) 2_564
O3 O2 6.06(2) 6_556
O3 La 6.070(10) 4_455
O3 O3 6.088(19) 5_445
O3 O3 6.088(18) 5_455
O3 O2 6.07(2) 2_564
O3 La 6.100(14) 4_554
O3 O2 6.069(18) 5_444
O3 La 6.163(9) 1_655
O3 O3 6.174(16) 5_444
O3 O3 6.174(16) 5_454
O2 Ga2 1.812(11) 1_556
O2 Ga3 1.837(10) 1_556
O2 O2 2.781(15) 3_455
O2 O2 2.781(15) 4_445
O2 O3 2.80(2) 2_455
O2 O2 2.83(4) 6_556
O2 O3 2.803(15) 5_455
O2 La 2.83(2) 2_455
O2 O1 2.90(2) 2_455
O2 O3 2.948(16) 3_456
O2 O1 3.08(2) 2_456
O2 O3 3.34(3) 3_455
O2 Nb 3.568(15) 1_455
O2 Ga1 3.568(15) 1_455
O2 Ga2 3.650(17) 2_565
O2 O2 3.74(2) 6
O2 O3 3.840(18) 6
O2 La 3.94(2) 1_556
O2 Ga3 4.129(13) 4_346
O2 Ga3 4.197(15) 4_446
O2 O3 4.21(2) 1_556
O2 La 4.212(11) 2_456
O2 La 4.263(10) 4_445
O2 O3 4.38(2) 4_456
O2 Ga3 4.399(11) 2_455
O2 O2 4.494(16) 2_456
O2 O2 4.494(15) 2_566
O2 La 4.515(9) 4_455
O2 O3 4.655(16) 4_455
O2 O2 4.65(2) 5_346
O2 Ga1 4.740(11) 1_456
O2 Nb 4.740(11) 1_456
O2 O1 4.758(18) 1_445
O2 O3 4.776(14) 6_455
O2 Ga2 4.831(14) 2_455
O2 Ga3 4.870(9) 2_465
O2 Ga3 4.928(18) 2_565
O2 O2 5.0460 1_556
O2 O2 5.0460 1_554
O2 O2 5.117(19) 2_455
O2 O2 5.117(19) 2_565
O2 O3 5.102(13) 4_446
O2 O3 5.081(13) 1_456
O2 O2 5.21(3) 5_446
O2 O2 5.21(3) 5_456
O2 Ga2 5.270(11) 2_564
O2 La 5.284(13) 4_446
O2 O3 5.313(18) 2
O2 O2 5.25(4) 5_345
O2 O3 5.341(16) 5_445
O2 O3 5.34(2) 4_445
O2 O3 5.32(2) 1_455
O2 O3 5.458(16) 2_456
O2 O3 5.46(2) 5_456
O2 O3 5.443(19) 6_445
O2 La 5.489(15) 4_456
O2 O1 5.57(2) 1_556
O2 O2 5.56(2) 4_345
O2 O2 5.56(2) 3_465
O2 O2 5.754(15) 5_445
O2 O2 5.754(15) 5_455
O2 Ga3 5.72(2) 4_345
O2 O2 5.762(7) 3_456
O2 O2 5.762(7) 4_446
O2 O2 5.762(7) 3_454
O2 Ga3 5.774(10) 4_445
O2 O2 5.762(7) 4_444
O2 La 5.870(13) 2_565
O2 O2 6.03(3) 3_565
O2 O2 6.03(3) 4_455
O2 O3 6.06(2) 6_556
O2 O3 6.07(2) 2_454
O2 O3 6.069(18) 5_454
