#------------------------------------------------------------------------------
#$Date: 2017-02-07 17:13:06 +0200 (Tue, 07 Feb 2017) $
#$Revision: 191892 $
#$URL: file:///home/coder/svn-repositories/cod/cif/2/10/35/2103506.cif $
#------------------------------------------------------------------------------
#
# This file is available in the Crystallography Open Database (COD),
# http://www.crystallography.net/. The original data for this entry
# were provided by IUCr Journals, http://journals.iucr.org/.
#
# The file may be used within the scientific community so long as
# proper attribution is given to the journal article from which the
# data were obtained.
#
data_2103506
loop_
_publ_author_name
'Pavlovska, A.'
'Werner, S.'
'Maximov, B.'
'Mill, B.'
_publ_section_title
;
 Pressure-induced phase transitions of piezoelectric single crystals
 from the langasite family: La~3~Nb~0.5~Ga~5.5~O~14~ and
 La~3~Ta~0.5~Ga~5.5~O~14~
;
_journal_issue                   6
_journal_name_full               'Acta Crystallographica Section B'
_journal_page_first              939
_journal_page_last               947
_journal_paper_doi               10.1107/S0108768102010273
_journal_volume                  58
_journal_year                    2002
_chemical_formula_sum            'Ga5.5 La3 Nb0.5 O14'
_chemical_formula_weight         1070.65
_chemical_name_systematic        ?
_space_group_IT_number           150
_symmetry_space_group_name_Hall  'P 3 2"'
_symmetry_space_group_name_H-M   'P 3 2 1'
_atom_sites_solution_hydrogens   geom
_atom_sites_solution_primary     direct
_atom_sites_solution_secondary   difmap
_audit_creation_method           SHELXL-97
_cell_angle_alpha                90.00
_cell_angle_beta                 90.00
_cell_angle_gamma                120.00
_cell_formula_units_Z            1
_cell_length_a                   7.991
_cell_length_b                   7.991
_cell_length_c                   5.037
_cell_measurement_temperature    293(2)
_cell_volume                     278.5
_computing_structure_refinement  'SHELXL-97 (Sheldrick, 1997)'
_computing_structure_solution    'SHELXS-97 (Sheldrick, 1990)'
_diffrn_ambient_pressure         11.7E+6
_diffrn_ambient_temperature      293(2)
_diffrn_measured_fraction_theta_full 0.938
_diffrn_measured_fraction_theta_max 0.938
_diffrn_radiation_source         synchrotron
_diffrn_radiation_wavelength     0.56000
_diffrn_reflns_av_R_equivalents  0.0000
_diffrn_reflns_av_sigmaI/netI    0.0537
_diffrn_reflns_limit_h_max       9
_diffrn_reflns_limit_h_min       -9
_diffrn_reflns_limit_k_max       5
_diffrn_reflns_limit_k_min       -5
_diffrn_reflns_limit_l_max       6
_diffrn_reflns_limit_l_min       -7
_diffrn_reflns_number            506
_diffrn_reflns_theta_full        22.99
_diffrn_reflns_theta_max         22.99
_diffrn_reflns_theta_min         3.19
_exptl_absorpt_coefficient_mu    14.491
_exptl_crystal_density_diffrn    6.383
_exptl_crystal_density_method    'not measured'
_exptl_crystal_F_000             474
_refine_diff_density_max         1.579
_refine_diff_density_min         -1.865
_refine_diff_density_rms         0.448
_refine_ls_abs_structure_details 'Flack H D (1983), Acta Cryst. A39, 876-881'
_refine_ls_abs_structure_Flack   0.10(9)
_refine_ls_extinction_coef       0.025(6)
_refine_ls_extinction_expression Fc^*^=kFc[1+0.001xFc^2^\l^3^/sin(2\q)]^-1/4^
_refine_ls_extinction_method     SHELXL
_refine_ls_goodness_of_fit_ref   0.991
_refine_ls_hydrogen_treatment    mixed
_refine_ls_matrix_type           full
_refine_ls_number_parameters     39
_refine_ls_number_reflns         506
_refine_ls_number_restraints     0
_refine_ls_restrained_S_all      0.991
_refine_ls_R_factor_all          0.0383
_refine_ls_R_factor_gt           0.0383
_refine_ls_shift/su_max          0.000
_refine_ls_shift/su_mean         0.000
_refine_ls_structure_factor_coef Fsqd
_refine_ls_weighting_details
'calc w=1/[\s^2^(Fo^2^)+(0.1000P)^2^+0.0000P] where P=(Fo^2^+2Fc^2^)/3'
_refine_ls_weighting_scheme      calc
_refine_ls_wR_factor_gt          0.1157
_refine_ls_wR_factor_ref         0.1157
_reflns_number_gt                506
_reflns_number_total             506
_reflns_threshold_expression     >2sigma(I)
_cod_data_source_file            sn0021-11.7d3.cif
_cod_data_source_block           11.7d3
_cod_depositor_comments
;
The _diffrn_ambient_pressure was taken from the original data block
header, after comparison with the paper text and supplementary
material.

Changing (with the help of Perl) all _diffrn_radiation_source values in
the files that were reportedly colected on the HASYLAB D3 beamline
(Hamburg) from 'fine-focus sealed tube' to synchrotron.

The command was:

perl -i -ne \
    "s/'fine-focus sealed tube'/synchrotron/; \
    print unless /_diffrn_radiation_type|_diffrn_radiation_monochromator/" \
    *d3*.cif \
    11.57split.cif \
    21.85split.cif \
    22.85split.cif

Saulius Gra\<zulis
;
_cod_original_formula_sum        'Ga5.50 La3 Nb0.50 O14'
_cod_database_code               2103506
loop_
_symmetry_equiv_pos_as_xyz
'x, y, z'
'y, x, -z'
'-y, x-y, z'
'-x+y, -x, z'
'-x, -x+y, -z'
'x-y, -y, -z'
loop_
_atom_site_label
_atom_site_type_symbol
_atom_site_fract_x
_atom_site_fract_y
_atom_site_fract_z
_atom_site_U_iso_or_equiv
_atom_site_adp_type
_atom_site_occupancy
_atom_site_symmetry_multiplicity
_atom_site_calc_flag
_atom_site_refinement_flags
La La -0.43306(11) 0.0000 0.0000 0.0133(3) Uani 1 2 d S
Ga1 Ga 0.0000 0.0000 0.0000 0.0163(6) Uani 0.50 6 d SP
Ga2 Ga -0.6667 -0.3333 0.4769(4) 0.0127(5) Uani 1 3 d S
Ga3 Ga -0.7679(2) 0.0000 -0.5000 0.0134(4) Uani 1 2 d S
Nb Nb 0.0000 0.0000 0.0000 0.0163(6) Uani 0.50 6 d SP
O1 O -0.3333 0.3333 0.169(3) 0.015(2) Uani 1 3 d S
O3 O -0.1493(17) 0.0698(19) 0.239(2) 0.046(4) Uani 1 1 d .
O2 O -0.5470(16) 0.1485(18) -0.310(2) 0.052(4) Uani 1 1 d .
loop_
_atom_site_aniso_label
_atom_site_aniso_U_11
_atom_site_aniso_U_22
_atom_site_aniso_U_33
_atom_site_aniso_U_23
_atom_site_aniso_U_13
_atom_site_aniso_U_12
La 0.0152(4) 0.0095(4) 0.0134(5) -0.0017(3) -0.00087(14) 0.0047(2)
Ga1 0.0169(8) 0.0169(8) 0.0150(12) 0.000 0.000 0.0084(4)
Ga2 0.0143(6) 0.0143(6) 0.0096(9) 0.000 0.000 0.0071(3)
Ga3 0.0124(5) 0.0147(7) 0.0137(7) 0.0075(6) 0.0037(3) 0.0073(4)
Nb 0.0169(8) 0.0169(8) 0.0150(12) 0.000 0.000 0.0084(4)
O1 0.012(3) 0.012(3) 0.022(7) 0.000 0.000 0.0058(16)
O3 0.044(7) 0.074(11) 0.047(6) -0.042(7) -0.030(6) 0.051(9)
O2 0.021(5) 0.061(8) 0.035(6) 0.037(6) -0.013(4) -0.008(6)
loop_
_atom_type_symbol
_atom_type_description
_atom_type_scat_dispersion_real
_atom_type_scat_dispersion_imag
_atom_type_scat_source
La La -0.9400 1.6100 'International Tables Vol C Tables 4.2.6.8 and 6.1.1.4'
Nb Nb -0.9600 2.8600 'International Tables Vol C Tables 4.2.6.8 and 6.1.1.4'
Ga Ga 0.2400 1.0600 'International Tables Vol C Tables 4.2.6.8 and 6.1.1.4'
O O 0.0000 0.0000 'International Tables Vol C Tables 4.2.6.8 and 6.1.1.4'
loop_
_geom_angle_atom_site_label_1
_geom_angle_atom_site_label_2
_geom_angle_atom_site_label_3
_geom_angle
_geom_angle_site_symmetry_1
_geom_angle_site_symmetry_3
O3 La O3 66.3(5) 6 .
O3 La O2 140.2(4) 6 6
O3 La O2 106.3(5) . 6
O3 La O2 106.3(5) 6 .
O3 La O2 140.2(4) . .
O2 La O2 102.4(6) 6 .
O3 La O1 79.6(3) 6 2_455
O3 La O1 122.4(3) . 2_455
O2 La O1 72.2(4) 6 2_455
O2 La O1 92.3(4) . 2_455
O3 La O1 122.4(3) 6 .
O3 La O1 79.6(3) . .
O2 La O1 92.3(4) 6 .
O2 La O1 72.2(4) . .
O1 La O1 155.45(6) 2_455 .
O3 La O2 79.4(4) 6 5_445
O3 La O2 63.8(4) . 5_445
O2 La O2 63.6(5) 6 5_445
O2 La O2 155.9(2) . 5_445
O1 La O2 65.3(4) 2_455 5_445
O1 La O2 125.2(4) . 5_445
O3 La O2 63.8(4) 6 3_565
O3 La O2 79.4(4) . 3_565
O2 La O2 155.9(2) 6 3_565
O2 La O2 63.6(5) . 3_565
O1 La O2 125.2(4) 2_455 3_565
O1 La O2 65.3(4) . 3_565
O2 La O2 136.1(4) 5_445 3_565
O3 La Ga2 110.8(4) 6 .
O3 La Ga2 84.8(4) . .
O2 La Ga2 31.1(3) 6 .
O2 La Ga2 131.1(3) . .
O1 La Ga2 65.2(3) 2_455 .
O1 La Ga2 110.6(3) . .
O2 La Ga2 32.5(2) 5_445 .
O2 La Ga2 164.2(2) 3_565 .
O3 La Ga2 84.8(4) 6 2_565
O3 La Ga2 110.8(4) . 2_565
O2 La Ga2 131.1(3) 6 2_565
O2 La Ga2 31.1(3) . 2_565
O1 La Ga2 110.6(3) 2_455 2_565
O1 La Ga2 65.2(3) . 2_565
O2 La Ga2 164.2(2) 5_445 2_565
O2 La Ga2 32.5(2) 3_565 2_565
Ga2 La Ga2 161.75(3) . 2_565
O3 La Nb 33.2(2) 6 .
O3 La Nb 33.2(2) . .
O2 La Nb 128.8(3) 6 .
O2 La Nb 128.8(3) . .
O1 La Nb 102.27(3) 2_455 .
O1 La Nb 102.27(3) . .
O2 La Nb 68.0(2) 5_445 .
O2 La Nb 68.0(2) 3_565 .
Ga2 La Nb 99.124(15) . .
Ga2 La Nb 99.125(15) 2_565 .
O3 La Ga1 33.2(2) 6 .
O3 La Ga1 33.2(2) . .
O2 La Ga1 128.8(3) 6 .
O2 La Ga1 128.8(3) . .
O1 La Ga1 102.27(3) 2_455 .
O1 La Ga1 102.27(3) . .
O2 La Ga1 68.0(2) 5_445 .
O2 La Ga1 68.0(2) 3_565 .
Ga2 La Ga1 99.124(15) . .
Ga2 La Ga1 99.125(15) 2_565 .
Nb La Ga1 0.0 . .
O3 Ga1 O3 86.2(5) 4 .
O3 Ga1 O3 86.2(5) 4 3
O3 Ga1 O3 86.2(5) . 3
O3 Ga1 O3 108.0(8) 4 2
O3 Ga1 O3 161.4(8) . 2
O3 Ga1 O3 82.9(6) 3 2
O3 Ga1 O3 82.9(6) 4 5
O3 Ga1 O3 108.0(8) . 5
O3 Ga1 O3 161.4(8) 3 5
O3 Ga1 O3 86.2(5) 2 5
O3 Ga1 O3 161.4(8) 4 6
O3 Ga1 O3 82.9(6) . 6
O3 Ga1 O3 108.0(8) 3 6
O3 Ga1 O3 86.2(5) 2 6
O3 Ga1 O3 86.2(5) 5 6
O3 Ga1 La 126.0(4) 4 .
O3 Ga1 La 41.4(3) . .
O3 Ga1 La 99.3(4) 3 .
O3 Ga1 La 126.0(4) 2 .
O3 Ga1 La 99.3(4) 5 .
O3 Ga1 La 41.4(3) 6 .
O3 Ga1 La 99.3(4) 4 2
O3 Ga1 La 126.0(4) . 2
O3 Ga1 La 41.4(3) 3 2
O3 Ga1 La 41.4(3) 2 2
O3 Ga1 La 126.0(4) 5 2
O3 Ga1 La 99.3(4) 6 2
La Ga1 La 120.0 . 2
O3 Ga1 La 41.4(3) 4 4
O3 Ga1 La 99.3(4) . 4
O3 Ga1 La 126.0(4) 3 4
O3 Ga1 La 99.3(4) 2 4
O3 Ga1 La 41.4(3) 5 4
O3 Ga1 La 126.0(4) 6 4
La Ga1 La 120.0 . 4
La Ga1 La 120.0 2 4
O3 Ga1 O2 67.5(4) 4 1_655
O3 Ga1 O2 146.8(4) . 1_655
O3 Ga1 O2 110.8(4) 3 1_655
O3 Ga1 O2 51.9(5) 2 1_655
O3 Ga1 O2 50.9(5) 5 1_655
O3 Ga1 O2 116.1(4) 6 1_655
La Ga1 O2 148.32(18) . 1_655
La Ga1 O2 79.9(2) 2 1_655
La Ga1 O2 47.5(2) 4 1_655
O3 Ga1 O2 146.8(4) 4 4_445
O3 Ga1 O2 110.8(4) . 4_445
O3 Ga1 O2 67.5(4) 3 4_445
O3 Ga1 O2 50.9(5) 2 4_445
O3 Ga1 O2 116.1(4) 5 4_445
O3 Ga1 O2 51.9(5) 6 4_445
La Ga1 O2 79.9(2) . 4_445
La Ga1 O2 47.5(2) 2 4_445
La Ga1 O2 148.32(18) 4 4_445
O2 Ga1 O2 102.2(2) 1_655 4_445
O3 Ga1 O2 50.9(5) 4 2_565
O3 Ga1 O2 51.9(5) . 2_565
O3 Ga1 O2 116.1(4) 3 2_565
O3 Ga1 O2 146.8(4) 2 2_565
O3 Ga1 O2 67.5(4) 5 2_565
O3 Ga1 O2 110.8(4) 6 2_565
La Ga1 O2 79.9(2) . 2_565
La Ga1 O2 148.32(18) 2 2_565
La Ga1 O2 47.5(2) 4 2_565
O2 Ga1 O2 95.0(5) 1_655 2_565
O2 Ga1 O2 159.8(5) 4_445 2_565
O1 Ga2 O2 117.7(4) 2_456 6
O1 Ga2 O2 117.7(4) 2_456 2_455
O2 Ga2 O2 100.1(5) 6 2_455
O1 Ga2 O2 117.7(4) 2_456 5_445
O2 Ga2 O2 100.1(5) 6 5_445
O2 Ga2 O2 100.1(5) 2_455 5_445
O1 Ga2 O1 180.0 2_456 2_455
O2 Ga2 O1 62.3(4) 6 2_455
O2 Ga2 O1 62.3(4) 2_455 2_455
O2 Ga2 O1 62.3(4) 5_445 2_455
O1 Ga2 La 135.42(2) 2_456 4_445
O2 Ga2 La 106.3(4) 6 4_445
O2 Ga2 La 56.9(5) 2_455 4_445
O2 Ga2 La 43.2(4) 5_445 4_445
O1 Ga2 La 44.58(2) 2_455 4_445
O1 Ga2 La 135.42(2) 2_456 2_455
O2 Ga2 La 56.9(5) 6 2_455
O2 Ga2 La 43.2(4) 2_455 2_455
O2 Ga2 La 106.3(4) 5_445 2_455
O1 Ga2 La 44.58(2) 2_455 2_455
La Ga2 La 74.88(4) 4_445 2_455
O1 Ga2 La 135.42(2) 2_456 .
O2 Ga2 La 43.2(4) 6 .
O2 Ga2 La 106.3(4) 2_455 .
O2 Ga2 La 56.9(5) 5_445 .
O1 Ga2 La 44.58(2) 2_455 .
La Ga2 La 74.88(4) 4_445 .
La Ga2 La 74.88(4) 2_455 .
O1 Ga2 O3 65.3(2) 2_456 6_556
O2 Ga2 O3 102.2(6) 6 6_556
O2 Ga2 O3 151.8(5) 2_455 6_556
O2 Ga2 O3 59.2(4) 5_445 6_556
O1 Ga2 O3 114.7(2) 2_455 6_556
La Ga2 O3 100.05(17) 4_445 6_556
La Ga2 O3 154.2(2) 2_455 6_556
La Ga2 O3 79.4(2) . 6_556
O1 Ga2 O3 65.3(2) 2_456 5_446
O2 Ga2 O3 151.8(5) 6 5_446
O2 Ga2 O3 59.2(4) 2_455 5_446
O2 Ga2 O3 102.2(6) 5_445 5_446
O1 Ga2 O3 114.7(2) 2_455 5_446
La Ga2 O3 79.4(2) 4_445 5_446
La Ga2 O3 100.04(17) 2_455 5_446
La Ga2 O3 154.2(2) . 5_446
O3 Ga2 O3 103.8(2) 6_556 5_446
O1 Ga2 O3 65.3(2) 2_456 2_456
O2 Ga2 O3 59.2(4) 6 2_456
O2 Ga2 O3 102.2(6) 2_455 2_456
O2 Ga2 O3 151.8(5) 5_445 2_456
O1 Ga2 O3 114.7(2) 2_455 2_456
La Ga2 O3 154.2(2) 4_445 2_456
La Ga2 O3 79.4(2) 2_455 2_456
La Ga2 O3 100.04(17) . 2_456
O3 Ga2 O3 103.8(2) 6_556 2_456
O3 Ga2 O3 103.8(2) 5_446 2_456
O1 Ga2 La 41.94(2) 2_456 4_446
O2 Ga2 La 158.3(4) 6 4_446
O2 Ga2 La 98.1(4) 2_455 4_446
O2 Ga2 La 88.1(5) 5_445 4_446
O1 Ga2 La 138.06(2) 2_455 4_446
La Ga2 La 93.472(5) 4_445 4_446
La Ga2 La 139.849(4) 2_455 4_446
La Ga2 La 139.848(4) . 4_446
O3 Ga2 La 64.7(2) 6_556 4_446
O3 Ga2 La 39.81(17) 5_446 4_446
O3 Ga2 La 105.3(2) 2_456 4_446
O3 Ga3 O3 134.5(7) 2_455 4_454
O3 Ga3 O2 100.9(5) 2_455 .
O3 Ga3 O2 107.9(5) 4_454 .
O3 Ga3 O2 107.9(5) 2_455 6_554
O3 Ga3 O2 100.9(5) 4_454 6_554
O2 Ga3 O2 100.3(11) . 6_554
O3 Ga3 O3 78.4(6) 2_455 3_454
O3 Ga3 O3 74.4(5) 4_454 3_454
O2 Ga3 O3 177.1(5) . 3_454
O2 Ga3 O3 77.3(6) 6_554 3_454
O3 Ga3 O3 74.4(5) 2_455 5_455
O3 Ga3 O3 78.4(6) 4_454 5_455
O2 Ga3 O3 77.3(6) . 5_455
O2 Ga3 O3 177.1(5) 6_554 5_455
O3 Ga3 O3 105.1(5) 3_454 5_455
O3 Ga3 Nb 110.7(4) 2_455 1_454
O3 Ga3 Nb 35.6(3) 4_454 1_454
O2 Ga3 Nb 143.3(3) . 1_454
O2 Ga3 Nb 87.6(5) 6_554 1_454
O3 Ga3 Nb 38.8(2) 3_454 1_454
O3 Ga3 Nb 93.3(2) 5_455 1_454
O3 Ga3 Nb 35.6(3) 2_455 1_455
O3 Ga3 Nb 110.7(4) 4_454 1_455
O2 Ga3 Nb 87.6(5) . 1_455
O2 Ga3 Nb 143.3(3) 6_554 1_455
O3 Ga3 Nb 93.3(2) 3_454 1_455
O3 Ga3 Nb 38.8(2) 5_455 1_455
Nb Ga3 Nb 107.26(5) 1_454 1_455
O3 Ga3 O1 160.3(5) 2_455 1_554
O3 Ga3 O1 61.6(4) 4_454 1_554
O2 Ga3 O1 59.8(4) . 1_554
O2 Ga3 O1 74.5(4) 6_554 1_554
O3 Ga3 O1 120.7(3) 3_454 1_554
O3 Ga3 O1 102.7(3) 5_455 1_554
Nb Ga3 O1 88.8(2) 1_454 1_554
Nb Ga3 O1 137.17(17) 1_455 1_554
O3 Ga3 O1 61.6(4) 2_455 2_455
O3 Ga3 O1 160.3(5) 4_454 2_455
O2 Ga3 O1 74.5(4) . 2_455
O2 Ga3 O1 59.8(4) 6_554 2_455
O3 Ga3 O1 102.7(3) 3_454 2_455
O3 Ga3 O1 120.7(3) 5_455 2_455
Nb Ga3 O1 137.17(17) 1_454 2_455
Nb Ga3 O1 88.8(2) 1_455 2_455
O1 Ga3 O1 106.12(18) 1_554 2_455
O3 Ga3 O3 45.9(3) 2_455 6_455
O3 Ga3 O3 89.0(6) 4_454 6_455
O2 Ga3 O3 118.4(6) . 6_455
O2 Ga3 O3 134.9(5) 6_554 6_455
O3 Ga3 O3 63.1(4) 3_454 6_455
O3 Ga3 O3 48.0(2) 5_455 6_455
Nb Ga3 O3 75.3(2) 1_454 6_455
Nb Ga3 O3 32.91(17) 1_455 6_455
O1 Ga3 O3 144.2(2) 1_554 6_455
O1 Ga3 O3 107.3(3) 2_455 6_455
O3 Ga3 O3 89.0(6) 2_455 1_454
O3 Ga3 O3 45.9(3) 4_454 1_454
O2 Ga3 O3 134.9(5) . 1_454
O2 Ga3 O3 118.4(6) 6_554 1_454
O3 Ga3 O3 48.0(2) 3_454 1_454
O3 Ga3 O3 63.1(4) 5_455 1_454
Nb Ga3 O3 32.91(17) 1_454 1_454
Nb Ga3 O3 75.3(2) 1_455 1_454
O1 Ga3 O3 107.3(3) 1_554 1_454
O1 Ga3 O3 144.2(2) 2_455 1_454
O3 Ga3 O3 45.6(4) 6_455 1_454
O3 Nb O3 86.2(5) 4 .
O3 Nb O3 86.2(5) 4 3
O3 Nb O3 86.2(5) . 3
O3 Nb O3 108.0(8) 4 2
O3 Nb O3 161.4(8) . 2
O3 Nb O3 82.9(6) 3 2
O3 Nb O3 82.9(6) 4 5
O3 Nb O3 108.0(8) . 5
O3 Nb O3 161.4(8) 3 5
O3 Nb O3 86.2(5) 2 5
O3 Nb O3 161.4(8) 4 6
O3 Nb O3 82.9(6) . 6
O3 Nb O3 108.0(8) 3 6
O3 Nb O3 86.2(5) 2 6
O3 Nb O3 86.2(5) 5 6
O3 Nb Ga3 159.9(4) 4 4_445
O3 Nb Ga3 113.5(3) . 4_445
O3 Nb Ga3 98.4(4) 3 4_445
O3 Nb Ga3 53.8(4) 2 4_445
O3 Nb Ga3 87.1(3) 5 4_445
O3 Nb Ga3 32.5(3) 6 4_445
O3 Nb Ga3 87.1(3) 4 4_446
O3 Nb Ga3 53.8(4) . 4_446
O3 Nb Ga3 32.5(3) 3 4_446
O3 Nb Ga3 113.5(3) 2 4_446
O3 Nb Ga3 159.9(4) 5 4_446
O3 Nb Ga3 98.4(4) 6 4_446
Ga3 Nb Ga3 107.26(5) 4_445 4_446
O3 Nb Ga3 53.8(4) 4 2_565
O3 Nb Ga3 32.5(3) . 2_565
O3 Nb Ga3 87.1(3) 3 2_565
O3 Nb Ga3 159.9(4) 2 2_565
O3 Nb Ga3 98.4(4) 5 2_565
O3 Nb Ga3 113.5(3) 6 2_565
Ga3 Nb Ga3 145.51(2) 4_445 2_565
Ga3 Nb Ga3 61.80(4) 4_446 2_565
O3 Nb Ga3 113.5(3) 4 2_564
O3 Nb Ga3 98.4(4) . 2_564
O3 Nb Ga3 159.9(4) 3 2_564
O3 Nb Ga3 87.1(3) 2 2_564
O3 Nb Ga3 32.5(3) 5 2_564
O3 Nb Ga3 53.8(4) 6 2_564
Ga3 Nb Ga3 61.80(4) 4_445 2_564
Ga3 Nb Ga3 145.51(2) 4_446 2_564
Ga3 Nb Ga3 107.26(5) 2_565 2_564
O3 Nb Ga3 32.5(3) 4 1_656
O3 Nb Ga3 87.1(3) . 1_656
O3 Nb Ga3 53.8(4) 3 1_656
O3 Nb Ga3 98.4(4) 2 1_656
O3 Nb Ga3 113.5(3) 5 1_656
O3 Nb Ga3 159.9(4) 6 1_656
Ga3 Nb Ga3 145.51(2) 4_445 1_656
Ga3 Nb Ga3 61.80(4) 4_446 1_656
Ga3 Nb Ga3 61.80(4) 2_565 1_656
Ga3 Nb Ga3 145.50(2) 2_564 1_656
O3 Nb Ga3 98.4(4) 4 1_655
O3 Nb Ga3 159.9(4) . 1_655
O3 Nb Ga3 113.5(3) 3 1_655
O3 Nb Ga3 32.5(3) 2 1_655
O3 Nb Ga3 53.8(4) 5 1_655
O3 Nb Ga3 87.1(3) 6 1_655
Ga3 Nb Ga3 61.80(4) 4_445 1_655
Ga3 Nb Ga3 145.51(2) 4_446 1_655
Ga3 Nb Ga3 145.50(2) 2_565 1_655
Ga3 Nb Ga3 61.80(4) 2_564 1_655
Ga3 Nb Ga3 107.26(5) 1_656 1_655
Ga2 O1 La 109.8(3) 2_566 .
Ga2 O1 La 109.8(3) 2_566 2_565
La O1 La 109.2(3) . 2_565
Ga2 O1 La 109.8(3) 2_566 4_455
La O1 La 109.2(3) . 4_455
La O1 La 109.2(3) 2_565 4_455
Ga2 O1 O2 146.4(3) 2_566 3_565
La O1 O2 62.5(4) . 3_565
La O1 O2 52.0(3) 2_565 3_565
La O1 O2 103.4(5) 4_455 3_565
Ga2 O1 O2 146.4(3) 2_566 .
La O1 O2 52.0(3) . .
La O1 O2 103.4(5) 2_565 .
La O1 O2 62.5(4) 4_455 .
O2 O1 O2 57.3(4) 3_565 .
Ga2 O1 O2 146.4(3) 2_566 4_455
La O1 O2 103.4(5) . 4_455
La O1 O2 62.5(4) 2_565 4_455
La O1 O2 52.0(3) 4_455 4_455
O2 O1 O2 57.3(4) 3_565 4_455
O2 O1 O2 57.3(4) . 4_455
Ga2 O1 O2 31.4(3) 2_566 3_566
La O1 O2 96.9(3) . 3_566
La O1 O2 88.5(4) 2_565 3_566
La O1 O2 140.5(5) 4_455 3_566
O2 O1 O2 114.9(3) 3_565 3_566
O2 O1 O2 148.74(14) . 3_566
O2 O1 O2 148.74(14) 4_455 3_566
Ga2 O1 O2 31.4(3) 2_566 1_556
La O1 O2 88.5(4) . 1_556
La O1 O2 140.5(5) 2_565 1_556
La O1 O2 96.9(3) 4_455 1_556
O2 O1 O2 148.75(14) 3_565 1_556
O2 O1 O2 114.9(3) . 1_556
O2 O1 O2 148.74(14) 4_455 1_556
O2 O1 O2 53.7(4) 3_566 1_556
Ga2 O1 O2 31.4(3) 2_566 4_456
La O1 O2 140.5(5) . 4_456
La O1 O2 96.9(3) 2_565 4_456
La O1 O2 88.5(4) 4_455 4_456
O2 O1 O2 148.74(14) 3_565 4_456
O2 O1 O2 148.74(14) . 4_456
O2 O1 O2 114.9(3) 4_455 4_456
O2 O1 O2 53.7(4) 3_566 4_456
O2 O1 O2 53.7(4) 1_556 4_456
Ga2 O1 O3 83.5(3) 2_566 .
La O1 O3 48.2(2) . .
La O1 O3 81.9(3) 2_565 .
La O1 O3 157.3(4) 4_455 .
O2 O1 O3 67.2(4) 3_565 .
O2 O1 O3 96.1(4) . .
O2 O1 O3 124.4(5) 4_455 .
O2 O1 O3 56.6(3) 3_566 .
O2 O1 O3 85.1(5) 1_556 .
O2 O1 O3 110.3(5) 4_456 .
Ga2 O1 O3 83.5(3) 2_566 3_565
La O1 O3 157.3(4) . 3_565
La O1 O3 48.2(2) 2_565 3_565
La O1 O3 81.9(3) 4_455 3_565
O2 O1 O3 96.1(4) 3_565 3_565
O2 O1 O3 124.4(5) . 3_565
O2 O1 O3 67.2(4) 4_455 3_565
O2 O1 O3 85.1(5) 3_566 3_565
O2 O1 O3 110.2(5) 1_556 3_565
O2 O1 O3 56.6(3) 4_456 3_565
O3 O1 O3 118.73(13) . 3_565
Ga2 O1 O3 83.5(3) 2_566 4_455
La O1 O3 81.9(3) . 4_455
La O1 O3 157.3(4) 2_565 4_455
La O1 O3 48.2(2) 4_455 4_455
O2 O1 O3 124.4(5) 3_565 4_455
O2 O1 O3 67.2(4) . 4_455
O2 O1 O3 96.1(4) 4_455 4_455
O2 O1 O3 110.3(5) 3_566 4_455
O2 O1 O3 56.6(3) 1_556 4_455
O2 O1 O3 85.1(5) 4_456 4_455
O3 O1 O3 118.74(13) . 4_455
O3 O1 O3 118.73(13) 3_565 4_455
Ga2 O1 Ga2 180.0 2_566 2_565
La O1 Ga2 70.2(3) . 2_565
La O1 Ga2 70.2(3) 2_565 2_565
La O1 Ga2 70.2(3) 4_455 2_565
O2 O1 Ga2 33.6(3) 3_565 2_565
O2 O1 Ga2 33.6(3) . 2_565
O2 O1 Ga2 33.6(3) 4_455 2_565
O2 O1 Ga2 148.6(3) 3_566 2_565
O2 O1 Ga2 148.6(3) 1_556 2_565
O2 O1 Ga2 148.6(3) 4_456 2_565
O3 O1 Ga2 96.5(3) . 2_565
O3 O1 Ga2 96.5(3) 3_565 2_565
O3 O1 Ga2 96.5(3) 4_455 2_565
Ga2 O1 Ga3 62.1(2) 2_566 1_556
La O1 Ga3 72.08(9) . 1_556
La O1 Ga3 171.0(5) 2_565 1_556
La O1 Ga3 78.17(9) 4_455 1_556
O2 O1 Ga3 132.5(4) 3_565 1_556
O2 O1 Ga3 84.4(2) . 1_556
O2 O1 Ga3 126.2(4) 4_455 1_556
O2 O1 Ga3 82.5(4) 3_566 1_556
O2 O1 Ga3 30.9(2) 1_556 1_556
O2 O1 Ga3 77.9(4) 4_456 1_556
O3 O1 Ga3 93.1(3) . 1_556
O3 O1 Ga3 130.4(4) 3_565 1_556
O3 O1 Ga3 30.6(2) 4_455 1_556
Ga2 O1 Ga3 117.9(2) 2_565 1_556
Ga2 O1 Ga3 62.1(2) 2_566 2_565
La O1 Ga3 78.17(9) . 2_565
La O1 Ga3 72.08(9) 2_565 2_565
La O1 Ga3 171.0(5) 4_455 2_565
O2 O1 Ga3 84.4(2) 3_565 2_565
O2 O1 Ga3 126.2(4) . 2_565
O2 O1 Ga3 132.5(4) 4_455 2_565
O2 O1 Ga3 30.9(2) 3_566 2_565
O2 O1 Ga3 77.9(4) 1_556 2_565
O2 O1 Ga3 82.5(4) 4_456 2_565
O3 O1 Ga3 30.6(2) . 2_565
O3 O1 Ga3 93.1(3) 3_565 2_565
O3 O1 Ga3 130.4(4) 4_455 2_565
Ga2 O1 Ga3 117.9(2) 2_565 2_565
Ga3 O1 Ga3 99.9(3) 1_556 2_565
Ga2 O1 Ga3 62.1(2) 2_566 4_456
La O1 Ga3 171.0(5) . 4_456
La O1 Ga3 78.17(9) 2_565 4_456
La O1 Ga3 72.08(9) 4_455 4_456
O2 O1 Ga3 126.2(4) 3_565 4_456
O2 O1 Ga3 132.5(4) . 4_456
O2 O1 Ga3 84.4(2) 4_455 4_456
O2 O1 Ga3 77.9(4) 3_566 4_456
O2 O1 Ga3 82.5(4) 1_556 4_456
O2 O1 Ga3 30.9(2) 4_456 4_456
O3 O1 Ga3 130.4(4) . 4_456
O3 O1 Ga3 30.6(2) 3_565 4_456
O3 O1 Ga3 93.1(3) 4_455 4_456
Ga2 O1 Ga3 117.9(2) 2_565 4_456
Ga3 O1 Ga3 99.9(3) 1_556 4_456
Ga3 O1 Ga3 99.9(3) 2_565 4_456
Ga2 O1 O2 78.5(3) 2_566 6
La O1 O2 42.54(18) . 6
La O1 O2 149.3(2) 2_565 6
La O1 O2 94.6(2) 4_455 6
O2 O1 O2 104.6(4) 3_565 6
O2 O1 O2 70.1(3) . 6
O2 O1 O2 126.0(3) 4_455 6
O2 O1 O2 84.8(3) 3_566 6
O2 O1 O2 49.6(4) 1_556 6
O2 O1 O2 103.1(4) 4_456 6
O3 O1 O2 69.5(3) . 6
O3 O1 O2 159.2(5) 3_565 6
O3 O1 O2 49.3(3) 4_455 6
Ga2 O1 O2 101.5(3) 2_565 6
Ga3 O1 O2 29.85(17) 1_556 6
Ga3 O1 O2 87.5(3) 2_565 6
Ga3 O1 O2 129.0(4) 4_456 6
Ga2 O1 O2 78.5(3) 2_566 5_455
La O1 O2 149.3(2) . 5_455
La O1 O2 94.6(2) 2_565 5_455
La O1 O2 42.54(18) 4_455 5_455
O2 O1 O2 126.0(3) 3_565 5_455
O2 O1 O2 104.6(4) . 5_455
O2 O1 O2 70.1(3) 4_455 5_455
O2 O1 O2 103.1(4) 3_566 5_455
O2 O1 O2 84.8(3) 1_556 5_455
O2 O1 O2 49.6(4) 4_456 5_455
O3 O1 O2 159.2(5) . 5_455
O3 O1 O2 49.3(3) 3_565 5_455
O3 O1 O2 69.5(3) 4_455 5_455
Ga2 O1 O2 101.5(3) 2_565 5_455
Ga3 O1 O2 87.5(3) 1_556 5_455
Ga3 O1 O2 129.0(4) 2_565 5_455
Ga3 O1 O2 29.85(17) 4_456 5_455
O2 O1 O2 116.1(2) 6 5_455
Ga2 O1 O2 78.5(3) 2_566 2_565
La O1 O2 94.6(2) . 2_565
La O1 O2 42.54(18) 2_565 2_565
La O1 O2 149.3(2) 4_455 2_565
O2 O1 O2 70.1(3) 3_565 2_565
O2 O1 O2 126.0(3) . 2_565
O2 O1 O2 104.6(4) 4_455 2_565
O2 O1 O2 49.6(4) 3_566 2_565
O2 O1 O2 103.1(4) 1_556 2_565
O2 O1 O2 84.8(3) 4_456 2_565
O3 O1 O2 49.3(3) . 2_565
O3 O1 O2 69.5(3) 3_565 2_565
O3 O1 O2 159.2(5) 4_455 2_565
Ga2 O1 O2 101.5(3) 2_565 2_565
Ga3 O1 O2 129.0(4) 1_556 2_565
Ga3 O1 O2 29.85(17) 2_565 2_565
Ga3 O1 O2 87.5(3) 4_456 2_565
O2 O1 O2 116.1(2) 6 2_565
O2 O1 O2 116.1(2) 5_455 2_565
Ga2 O1 O3 118.7(3) 2_566 6
La O1 O3 27.88(17) . 6
La O1 O3 81.4(3) 2_565 6
La O1 O3 123.1(5) 4_455 6
O2 O1 O3 39.9(4) 3_565 6
O2 O1 O3 60.7(4) . 6
O2 O1 O3 93.4(4) 4_455 6
O2 O1 O3 93.6(3) 3_566 6
O2 O1 O3 108.9(4) 1_556 6
O2 O1 O3 147.3(4) 4_456 6
O3 O1 O3 37.0(3) . 6
O3 O1 O3 129.6(4) 3_565 6
O3 O1 O3 108.9(3) 4_455 6
Ga2 O1 O3 61.3(3) 2_565 6
Ga3 O1 O3 99.03(17) 1_556 6
Ga3 O1 O3 65.78(15) 2_565 6
Ga3 O1 O3 158.03(14) 4_456 6
O2 O1 O3 69.2(3) 6 6
O2 O1 O3 162.8(5) 5_455 6
O2 O1 O3 71.8(3) 2_565 6
Ga2 O1 O3 118.7(3) 2_566 2_565
La O1 O3 123.1(5) . 2_565
La O1 O3 27.88(17) 2_565 2_565
La O1 O3 81.4(3) 4_455 2_565
O2 O1 O3 60.7(4) 3_565 2_565
O2 O1 O3 93.4(4) . 2_565
O2 O1 O3 39.8(4) 4_455 2_565
O2 O1 O3 108.9(4) 3_566 2_565
O2 O1 O3 147.3(4) 1_556 2_565
O2 O1 O3 93.6(3) 4_456 2_565
O3 O1 O3 108.9(3) . 2_565
O3 O1 O3 37.0(3) 3_565 2_565
O3 O1 O3 129.6(4) 4_455 2_565
Ga2 O1 O3 61.3(3) 2_565 2_565
Ga3 O1 O3 158.03(14) 1_556 2_565
Ga3 O1 O3 99.03(17) 2_565 2_565
Ga3 O1 O3 65.78(15) 4_456 2_565
O2 O1 O3 162.8(5) 6 2_565
O2 O1 O3 71.8(3) 5_455 2_565
O2 O1 O3 69.2(3) 2_565 2_565
O3 O1 O3 98.9(4) 6 2_565
Ga2 O1 O3 118.7(3) 2_566 5_455
La O1 O3 81.4(3) . 5_455
La O1 O3 123.1(5) 2_565 5_455
La O1 O3 27.88(17) 4_455 5_455
O2 O1 O3 93.4(4) 3_565 5_455
O2 O1 O3 39.9(4) . 5_455
O2 O1 O3 60.7(4) 4_455 5_455
O2 O1 O3 147.3(4) 3_566 5_455
O2 O1 O3 93.6(3) 1_556 5_455
O2 O1 O3 108.9(4) 4_456 5_455
O3 O1 O3 129.6(4) . 5_455
O3 O1 O3 108.9(3) 3_565 5_455
O3 O1 O3 37.0(3) 4_455 5_455
Ga2 O1 O3 61.3(3) 2_565 5_455
Ga3 O1 O3 65.78(15) 1_556 5_455
Ga3 O1 O3 158.03(14) 2_565 5_455
Ga3 O1 O3 99.03(16) 4_456 5_455
O2 O1 O3 71.8(3) 6 5_455
O2 O1 O3 69.2(3) 5_455 5_455
O2 O1 O3 162.8(5) 2_565 5_455
O3 O1 O3 98.9(4) 6 5_455
O3 O1 O3 98.9(4) 2_565 5_455
Ga2 O1 Ga3 136.96(13) 2_566 .
La O1 Ga3 52.6(2) . .
La O1 Ga3 113.2(5) 2_565 .
La O1 Ga3 58.1(2) 4_455 .
O2 O1 Ga3 67.2(3) 3_565 .
O2 O1 Ga3 10.0(3) . .
O2 O1 Ga3 63.1(4) 4_455 .
O2 O1 Ga3 146.3(3) 3_566 .
O2 O1 Ga3 105.6(2) 1_556 .
O2 O1 Ga3 140.4(3) 4_456 .
O3 O1 Ga3 99.5(3) . .
O3 O1 Ga3 128.6(4) 3_565 .
O3 O1 Ga3 57.2(3) 4_455 .
Ga2 O1 Ga3 43.04(13) 2_565 .
Ga3 O1 Ga3 74.88(9) 1_556 .
Ga3 O1 Ga3 130.07(14) 2_565 .
Ga3 O1 Ga3 130.07(14) 4_456 .
O2 O1 Ga3 63.2(3) 6 .
O2 O1 Ga3 100.7(2) 5_455 .
O2 O1 Ga3 134.8(4) 2_565 .
O3 O1 Ga3 66.2(2) 6 .
O3 O1 Ga3 101.1(4) 2_565 .
O3 O1 Ga3 32.7(2) 5_455 .
Ga2 O1 Ga3 136.96(13) 2_566 2_564
La O1 Ga3 58.1(2) . 2_564
La O1 Ga3 52.6(2) 2_565 2_564
La O1 Ga3 113.2(5) 4_455 2_564
O2 O1 Ga3 10.0(3) 3_565 2_564
O2 O1 Ga3 63.1(4) . 2_564
O2 O1 Ga3 67.2(3) 4_455 2_564
O2 O1 Ga3 105.6(2) 3_566 2_564
O2 O1 Ga3 140.4(3) 1_556 2_564
O2 O1 Ga3 146.3(3) 4_456 2_564
O3 O1 Ga3 57.2(3) . 2_564
O3 O1 Ga3 99.5(3) 3_565 2_564
O3 O1 Ga3 128.6(4) 4_455 2_564
Ga2 O1 Ga3 43.04(13) 2_565 2_564
Ga3 O1 Ga3 130.07(14) 1_556 2_564
Ga3 O1 Ga3 74.88(9) 2_565 2_564
Ga3 O1 Ga3 130.07(14) 4_456 2_564
O2 O1 Ga3 100.7(2) 6 2_564
O2 O1 Ga3 134.8(4) 5_455 2_564
O2 O1 Ga3 63.2(3) 2_565 2_564
O3 O1 Ga3 32.7(2) 6 2_564
O3 O1 Ga3 66.2(2) 2_565 2_564
O3 O1 Ga3 101.1(4) 5_455 2_564
Ga3 O1 Ga3 72.5(2) . 2_564
Ga2 O1 Ga3 136.96(13) 2_566 4_455
La O1 Ga3 113.2(5) . 4_455
La O1 Ga3 58.1(2) 2_565 4_455
La O1 Ga3 52.6(2) 4_455 4_455
O2 O1 Ga3 63.1(4) 3_565 4_455
O2 O1 Ga3 67.2(3) . 4_455
O2 O1 Ga3 10.0(3) 4_455 4_455
O2 O1 Ga3 140.3(3) 3_566 4_455
O2 O1 Ga3 146.3(3) 1_556 4_455
O2 O1 Ga3 105.6(2) 4_456 4_455
O3 O1 Ga3 128.6(4) . 4_455
O3 O1 Ga3 57.2(3) 3_565 4_455
O3 O1 Ga3 99.5(3) 4_455 4_455
Ga2 O1 Ga3 43.04(13) 2_565 4_455
Ga3 O1 Ga3 130.07(14) 1_556 4_455
Ga3 O1 Ga3 130.07(14) 2_565 4_455
Ga3 O1 Ga3 74.88(9) 4_456 4_455
O2 O1 Ga3 134.8(4) 6 4_455
O2 O1 Ga3 63.2(3) 5_455 4_455
O2 O1 Ga3 100.7(2) 2_565 4_455
O3 O1 Ga3 101.1(4) 6 4_455
O3 O1 Ga3 32.7(2) 2_565 4_455
O3 O1 Ga3 66.2(2) 5_455 4_455
Ga3 O1 Ga3 72.5(2) . 4_455
Ga3 O1 Ga3 72.5(2) 2_564 4_455
Ga2 O1 Ga1 100.45(18) 2_566 1_455
La O1 Ga1 70.66(8) . 1_455
La O1 Ga1 147.2(5) 2_565 1_455
La O1 Ga1 46.12(4) 4_455 1_455
O2 O1 Ga1 106.5(4) 3_565 1_455
O2 O1 Ga1 49.2(3) . 1_455
O2 O1 Ga1 85.2(4) 4_455 1_455
O2 O1 Ga1 124.3(4) 3_566 1_455
O2 O1 Ga1 71.5(2) 1_556 1_455
O2 O1 Ga1 102.6(4) 4_456 1_455
O3 O1 Ga1 114.8(2) . 1_455
O3 O1 Ga1 126.4(2) 3_565 1_455
O3 O1 Ga1 17.9(2) 4_455 1_455
Ga2 O1 Ga1 79.54(18) 2_565 1_455
Ga3 O1 Ga1 41.81(3) 1_556 1_455
Ga3 O1 Ga1 136.21(15) 2_565 1_455
Ga3 O1 Ga1 106.16(7) 4_456 1_455
O2 O1 Ga1 48.8(2) 6 1_455
O2 O1 Ga1 78.84(19) 5_455 1_455
O2 O1 Ga1 164.1(2) 2_565 1_455
O3 O1 Ga1 95.40(19) 6 1_455
O3 O1 Ga1 123.6(3) 2_565 1_455
O3 O1 Ga1 24.74(13) 5_455 1_455
Ga3 O1 Ga1 39.29(6) . 1_455
Ga3 O1 Ga1 111.1(3) 2_564 1_455
Ga3 O1 Ga1 90.96(18) 4_455 1_455
Ga2 O1 Nb 100.45(18) 2_566 1_455
La O1 Nb 70.66(8) . 1_455
La O1 Nb 147.2(5) 2_565 1_455
La O1 Nb 46.12(4) 4_455 1_455
O2 O1 Nb 106.5(4) 3_565 1_455
O2 O1 Nb 49.2(3) . 1_455
O2 O1 Nb 85.2(4) 4_455 1_455
O2 O1 Nb 124.3(4) 3_566 1_455
O2 O1 Nb 71.5(2) 1_556 1_455
O2 O1 Nb 102.6(4) 4_456 1_455
O3 O1 Nb 114.8(2) . 1_455
O3 O1 Nb 126.4(2) 3_565 1_455
O3 O1 Nb 17.9(2) 4_455 1_455
Ga2 O1 Nb 79.54(18) 2_565 1_455
Ga3 O1 Nb 41.81(3) 1_556 1_455
Ga3 O1 Nb 136.21(15) 2_565 1_455
Ga3 O1 Nb 106.16(7) 4_456 1_455
O2 O1 Nb 48.8(2) 6 1_455
O2 O1 Nb 78.84(19) 5_455 1_455
O2 O1 Nb 164.1(2) 2_565 1_455
O3 O1 Nb 95.40(19) 6 1_455
O3 O1 Nb 123.6(3) 2_565 1_455
O3 O1 Nb 24.74(13) 5_455 1_455
Ga3 O1 Nb 39.29(6) . 1_455
Ga3 O1 Nb 111.1(3) 2_564 1_455
Ga3 O1 Nb 90.96(18) 4_455 1_455
Ga1 O1 Nb 0.0 1_455 1_455
Ga2 O1 Nb 100.46(18) 2_566 .
La O1 Nb 46.12(4) . .
La O1 Nb 70.66(8) 2_565 .
La O1 Nb 147.2(5) 4_455 .
O2 O1 Nb 49.2(3) 3_565 .
O2 O1 Nb 85.2(4) . .
O2 O1 Nb 106.5(4) 4_455 .
O2 O1 Nb 71.5(2) 3_566 .
O2 O1 Nb 102.6(4) 1_556 .
O2 O1 Nb 124.3(4) 4_456 .
O3 O1 Nb 17.9(2) . .
O3 O1 Nb 114.8(2) 3_565 .
O3 O1 Nb 126.4(2) 4_455 .
Ga2 O1 Nb 79.55(18) 2_565 .
Ga3 O1 Nb 106.16(7) 1_556 .
Ga3 O1 Nb 41.81(3) 2_565 .
Ga3 O1 Nb 136.21(15) 4_456 .
O2 O1 Nb 78.84(19) 6 .
O2 O1 Nb 164.1(2) 5_455 .
O2 O1 Nb 48.8(2) 2_565 .
O3 O1 Nb 24.74(13) 6 .
O3 O1 Nb 95.40(19) 2_565 .
O3 O1 Nb 123.6(3) 5_455 .
Ga3 O1 Nb 90.96(18) . .
Ga3 O1 Nb 39.29(6) 2_564 .
Ga3 O1 Nb 111.1(3) 4_455 .
Ga1 O1 Nb 116.78(11) 1_455 .
Nb O1 Nb 116.78(11) 1_455 .
Ga2 O1 Ga1 100.46(18) 2_566 .
La O1 Ga1 46.12(4) . .
La O1 Ga1 70.66(8) 2_565 .
La O1 Ga1 147.2(5) 4_455 .
O2 O1 Ga1 49.2(3) 3_565 .
O2 O1 Ga1 85.2(4) . .
O2 O1 Ga1 106.5(4) 4_455 .
O2 O1 Ga1 71.5(2) 3_566 .
O2 O1 Ga1 102.6(4) 1_556 .
O2 O1 Ga1 124.3(4) 4_456 .
O3 O1 Ga1 17.9(2) . .
O3 O1 Ga1 114.8(2) 3_565 .
O3 O1 Ga1 126.4(2) 4_455 .
Ga2 O1 Ga1 79.55(18) 2_565 .
Ga3 O1 Ga1 106.16(7) 1_556 .
Ga3 O1 Ga1 41.81(3) 2_565 .
Ga3 O1 Ga1 136.21(15) 4_456 .
O2 O1 Ga1 78.84(19) 6 .
O2 O1 Ga1 164.1(2) 5_455 .
O2 O1 Ga1 48.8(2) 2_565 .
O3 O1 Ga1 24.74(13) 6 .
O3 O1 Ga1 95.40(19) 2_565 .
O3 O1 Ga1 123.6(3) 5_455 .
Ga3 O1 Ga1 90.96(18) . .
Ga3 O1 Ga1 39.29(6) 2_564 .
Ga3 O1 Ga1 111.1(3) 4_455 .
Ga1 O1 Ga1 116.78(11) 1_455 .
Nb O1 Ga1 116.78(11) 1_455 .
Nb O1 Ga1 0.0 . .
Ga2 O1 Ga1 100.45(18) 2_566 1_565
La O1 Ga1 147.2(5) . 1_565
La O1 Ga1 46.12(4) 2_565 1_565
La O1 Ga1 70.66(8) 4_455 1_565
O2 O1 Ga1 85.2(4) 3_565 1_565
O2 O1 Ga1 106.5(4) . 1_565
O2 O1 Ga1 49.2(3) 4_455 1_565
O2 O1 Ga1 102.6(4) 3_566 1_565
O2 O1 Ga1 124.3(4) 1_556 1_565
O2 O1 Ga1 71.5(2) 4_456 1_565
O3 O1 Ga1 126.4(2) . 1_565
O3 O1 Ga1 17.9(2) 3_565 1_565
O3 O1 Ga1 114.8(2) 4_455 1_565
Ga2 O1 Ga1 79.54(18) 2_565 1_565
Ga3 O1 Ga1 136.21(15) 1_556 1_565
Ga3 O1 Ga1 106.16(7) 2_565 1_565
Ga3 O1 Ga1 41.81(3) 4_456 1_565
O2 O1 Ga1 164.1(2) 6 1_565
O2 O1 Ga1 48.8(2) 5_455 1_565
O2 O1 Ga1 78.84(19) 2_565 1_565
O3 O1 Ga1 123.6(3) 6 1_565
O3 O1 Ga1 24.74(13) 2_565 1_565
O3 O1 Ga1 95.40(19) 5_455 1_565
Ga3 O1 Ga1 111.1(3) . 1_565
Ga3 O1 Ga1 90.96(18) 2_564 1_565
Ga3 O1 Ga1 39.29(6) 4_455 1_565
Ga1 O1 Ga1 116.78(11) 1_455 1_565
Nb O1 Ga1 116.78(11) 1_455 1_565
Nb O1 Ga1 116.78(11) . 1_565
Ga1 O1 Ga1 116.78(11) . 1_565
Ga2 O1 Nb 100.45(18) 2_566 1_565
La O1 Nb 147.2(5) . 1_565
La O1 Nb 46.12(4) 2_565 1_565
La O1 Nb 70.66(8) 4_455 1_565
O2 O1 Nb 85.2(4) 3_565 1_565
O2 O1 Nb 106.5(4) . 1_565
O2 O1 Nb 49.2(3) 4_455 1_565
O2 O1 Nb 102.6(4) 3_566 1_565
O2 O1 Nb 124.3(4) 1_556 1_565
O2 O1 Nb 71.5(2) 4_456 1_565
O3 O1 Nb 126.4(2) . 1_565
O3 O1 Nb 17.9(2) 3_565 1_565
O3 O1 Nb 114.8(2) 4_455 1_565
Ga2 O1 Nb 79.54(18) 2_565 1_565
Ga3 O1 Nb 136.21(15) 1_556 1_565
Ga3 O1 Nb 106.16(7) 2_565 1_565
Ga3 O1 Nb 41.81(3) 4_456 1_565
O2 O1 Nb 164.1(2) 6 1_565
O2 O1 Nb 48.8(2) 5_455 1_565
O2 O1 Nb 78.84(19) 2_565 1_565
O3 O1 Nb 123.6(3) 6 1_565
O3 O1 Nb 24.74(13) 2_565 1_565
O3 O1 Nb 95.40(19) 5_455 1_565
Ga3 O1 Nb 111.1(3) . 1_565
Ga3 O1 Nb 90.96(18) 2_564 1_565
Ga3 O1 Nb 39.29(6) 4_455 1_565
Ga1 O1 Nb 116.78(11) 1_455 1_565
Nb O1 Nb 116.78(11) 1_455 1_565
Nb O1 Nb 116.78(11) . 1_565
Ga1 O1 Nb 116.78(11) . 1_565
Ga1 O1 Nb 0.0 1_565 1_565
Ga2 O1 O2 81.4(2) 2_566 2_465
La O1 O2 114.67(14) . 2_465
La O1 O2 127.42(14) 2_565 2_465
La O1 O2 29.1(2) 4_455 2_465
O2 O1 O2 132.2(4) 3_565 2_465
O2 O1 O2 82.9(4) . 2_465
O2 O1 O2 80.0(3) 4_455 2_465
O2 O1 O2 112.8(4) 3_566 2_465
O2 O1 O2 68.8(3) 1_556 2_465
O2 O1 O2 65.9(4) 4_456 2_465
O3 O1 O2 150.3(3) . 2_465
O3 O1 O2 84.8(3) 3_565 2_465
O3 O1 O2 34.1(3) 4_455 2_465
Ga2 O1 O2 98.6(2) 2_565 2_465
Ga3 O1 O2 57.19(13) 1_556 2_465
Ga3 O1 O2 143.4(4) 2_565 2_465
Ga3 O1 O2 61.91(15) 4_456 2_465
O2 O1 O2 82.4(3) 6 2_465
O2 O1 O2 35.6(3) 5_455 2_465
O2 O1 O2 148.8(5) 2_565 2_465
O3 O1 O2 139.3(3) 6 2_465
O3 O1 O2 100.84(18) 2_565 2_465
O3 O1 O2 43.0(2) 5_455 2_465
Ga3 O1 O2 75.21(16) . 2_465
Ga3 O1 O2 141.6(3) 2_564 2_465
Ga3 O1 O2 78.44(15) 4_455 2_465
Ga1 O1 O2 44.28(13) 1_455 2_465
Nb O1 O2 44.28(13) 1_455 2_465
Nb O1 O2 160.36(13) . 2_465
Ga1 O1 O2 160.36(13) . 2_465
Ga1 O1 O2 81.69(12) 1_565 2_465
Nb O1 O2 81.69(12) 1_565 2_465
Ga2 O1 O2 81.4(2) 2_566 5_445
La O1 O2 29.14(19) . 5_445
La O1 O2 114.67(14) 2_565 5_445
La O1 O2 127.42(14) 4_455 5_445
O2 O1 O2 82.9(4) 3_565 5_445
O2 O1 O2 80.0(3) . 5_445
O2 O1 O2 132.2(4) 4_455 5_445
O2 O1 O2 68.8(3) 3_566 5_445
O2 O1 O2 65.9(4) 1_556 5_445
O2 O1 O2 112.8(4) 4_456 5_445
O3 O1 O2 34.1(3) . 5_445
O3 O1 O2 150.3(3) 3_565 5_445
O3 O1 O2 84.8(3) 4_455 5_445
Ga2 O1 O2 98.6(2) 2_565 5_445
Ga3 O1 O2 61.91(15) 1_556 5_445
Ga3 O1 O2 57.19(13) 2_565 5_445
Ga3 O1 O2 143.4(4) 4_456 5_445
O2 O1 O2 35.6(3) 6 5_445
O2 O1 O2 148.8(5) 5_455 5_445
O2 O1 O2 82.4(3) 2_565 5_445
O3 O1 O2 43.0(2) 6 5_445
O3 O1 O2 139.3(3) 2_565 5_445
O3 O1 O2 100.84(18) 5_455 5_445
Ga3 O1 O2 78.44(15) . 5_445
Ga3 O1 O2 75.21(16) 2_564 5_445
Ga3 O1 O2 141.6(3) 4_455 5_445
Ga1 O1 O2 81.69(12) 1_455 5_445
Nb O1 O2 81.69(12) 1_455 5_445
Nb O1 O2 44.28(13) . 5_445
Ga1 O1 O2 44.28(13) . 5_445
Ga1 O1 O2 160.36(13) 1_565 5_445
Nb O1 O2 160.36(13) 1_565 5_445
O2 O1 O2 117.81(11) 2_465 5_445
Ga2 O1 O2 81.4(2) 2_566 6_665
La O1 O2 127.42(14) . 6_665
La O1 O2 29.14(19) 2_565 6_665
La O1 O2 114.67(14) 4_455 6_665
O2 O1 O2 80.0(3) 3_565 6_665
O2 O1 O2 132.2(4) . 6_665
O2 O1 O2 82.9(4) 4_455 6_665
O2 O1 O2 65.9(4) 3_566 6_665
O2 O1 O2 112.8(4) 1_556 6_665
O2 O1 O2 68.8(3) 4_456 6_665
O3 O1 O2 84.8(3) . 6_665
O3 O1 O2 34.1(3) 3_565 6_665
O3 O1 O2 150.3(3) 4_455 6_665
Ga2 O1 O2 98.6(2) 2_565 6_665
Ga3 O1 O2 143.4(4) 1_556 6_665
Ga3 O1 O2 61.91(15) 2_565 6_665
Ga3 O1 O2 57.19(13) 4_456 6_665
O2 O1 O2 148.8(5) 6 6_665
O2 O1 O2 82.4(3) 5_455 6_665
O2 O1 O2 35.6(3) 2_565 6_665
O3 O1 O2 100.83(18) 6 6_665
O3 O1 O2 43.0(2) 2_565 6_665
O3 O1 O2 139.3(3) 5_455 6_665
Ga3 O1 O2 141.6(3) . 6_665
Ga3 O1 O2 78.44(15) 2_564 6_665
Ga3 O1 O2 75.21(16) 4_455 6_665
Ga1 O1 O2 160.36(13) 1_455 6_665
Nb O1 O2 160.36(13) 1_455 6_665
Nb O1 O2 81.69(12) . 6_665
Ga1 O1 O2 81.69(12) . 6_665
Ga1 O1 O2 44.28(13) 1_565 6_665
Nb O1 O2 44.28(13) 1_565 6_665
O2 O1 O2 117.81(11) 2_465 6_665
O2 O1 O2 117.81(11) 5_445 6_665
Ga2 O1 O3 51.6(2) 2_566 6_556
La O1 O3 64.2(2) . 6_556
La O1 O3 102.8(2) 2_565 6_556
La O1 O3 147.4(3) 4_455 6_556
O2 O1 O3 100.8(3) 3_565 6_556
O2 O1 O3 115.9(3) . 6_556
O2 O1 O3 158.0(4) 4_455 6_556
O2 O1 O3 32.9(3) 3_566 6_556
O2 O1 O3 52.7(4) 1_556 6_556
O2 O1 O3 81.7(4) 4_456 6_556
O3 O1 O3 33.7(3) . 6_556
O3 O1 O3 116.8(4) 3_565 6_556
O3 O1 O3 99.8(3) 4_455 6_556
Ga2 O1 O3 128.4(2) 2_565 6_556
Ga3 O1 O3 69.4(2) 1_556 6_556
Ga3 O1 O3 30.91(14) 2_565 6_556
Ga3 O1 O3 109.7(4) 4_456 6_556
O2 O1 O3 58.2(3) 6 6_556
O2 O1 O3 130.0(5) 5_455 6_556
O2 O1 O3 60.8(2) 2_565 6_556
O3 O1 O3 67.07(19) 6 6_556
O3 O1 O3 129.93(11) 2_565 6_556
O3 O1 O3 129.93(11) 5_455 6_556
Ga3 O1 O3 114.02(13) . 6_556
Ga3 O1 O3 90.90(12) 2_564 6_556
Ga3 O1 O3 159.84(17) 4_455 6_556
Ga1 O1 O3 105.94(17) 1_455 6_556
Nb O1 O3 105.94(17) 1_455 6_556
Nb O1 O3 51.62(12) . 6_556
Ga1 O1 O3 51.62(12) . 6_556
Ga1 O1 O3 133.2(2) 1_565 6_556
Nb O1 O3 133.2(2) 1_565 6_556
O2 O1 O3 121.4(3) 2_465 6_556
O2 O1 O3 35.92(18) 5_445 6_556
O2 O1 O3 90.6(2) 6_665 6_556
Ga2 O1 O3 51.6(2) 2_566 2_566
La O1 O3 147.4(3) . 2_566
La O1 O3 64.2(2) 2_565 2_566
La O1 O3 102.8(2) 4_455 2_566
O2 O1 O3 115.9(3) 3_565 2_566
O2 O1 O3 158.0(4) . 2_566
O2 O1 O3 100.8(3) 4_455 2_566
O2 O1 O3 52.7(4) 3_566 2_566
O2 O1 O3 81.7(4) 1_556 2_566
O2 O1 O3 32.9(3) 4_456 2_566
O3 O1 O3 99.8(3) . 2_566
O3 O1 O3 33.7(3) 3_565 2_566
O3 O1 O3 116.8(4) 4_455 2_566
Ga2 O1 O3 128.4(2) 2_565 2_566
Ga3 O1 O3 109.7(4) 1_556 2_566
Ga3 O1 O3 69.4(2) 2_565 2_566
Ga3 O1 O3 30.91(14) 4_456 2_566
O2 O1 O3 130.0(5) 6 2_566
O2 O1 O3 60.8(2) 5_455 2_566
O2 O1 O3 58.2(3) 2_565 2_566
O3 O1 O3 129.93(11) 6 2_566
O3 O1 O3 67.07(19) 2_565 2_566
O3 O1 O3 129.93(11) 5_455 2_566
Ga3 O1 O3 159.84(17) . 2_566
Ga3 O1 O3 114.02(13) 2_564 2_566
Ga3 O1 O3 90.90(13) 4_455 2_566
Ga1 O1 O3 133.2(2) 1_455 2_566
Nb O1 O3 133.2(2) 1_455 2_566
Nb O1 O3 105.94(17) . 2_566
Ga1 O1 O3 105.94(17) . 2_566
Ga1 O1 O3 51.62(12) 1_565 2_566
Nb O1 O3 51.62(12) 1_565 2_566
O2 O1 O3 90.6(2) 2_465 2_566
O2 O1 O3 121.4(3) 5_445 2_566
O2 O1 O3 35.92(18) 6_665 2_566
O3 O1 O3 85.5(3) 6_556 2_566
Ga2 O1 O3 51.6(2) 2_566 5_456
La O1 O3 102.83(19) . 5_456
La O1 O3 147.4(3) 2_565 5_456
La O1 O3 64.2(2) 4_455 5_456
O2 O1 O3 158.0(4) 3_565 5_456
O2 O1 O3 100.8(3) . 5_456
O2 O1 O3 115.9(3) 4_455 5_456
O2 O1 O3 81.7(4) 3_566 5_456
O2 O1 O3 32.9(3) 1_556 5_456
O2 O1 O3 52.7(4) 4_456 5_456
O3 O1 O3 116.8(4) . 5_456
O3 O1 O3 99.8(3) 3_565 5_456
O3 O1 O3 33.7(3) 4_455 5_456
Ga2 O1 O3 128.4(2) 2_565 5_456
Ga3 O1 O3 30.91(14) 1_556 5_456
Ga3 O1 O3 109.7(4) 2_565 5_456
Ga3 O1 O3 69.4(2) 4_456 5_456
O2 O1 O3 60.8(2) 6 5_456
O2 O1 O3 58.2(3) 5_455 5_456
O2 O1 O3 130.0(5) 2_565 5_456
O3 O1 O3 129.93(11) 6 5_456
O3 O1 O3 129.93(11) 2_565 5_456
O3 O1 O3 67.07(19) 5_455 5_456
Ga3 O1 O3 90.90(13) . 5_456
Ga3 O1 O3 159.84(17) 2_564 5_456
Ga3 O1 O3 114.02(13) 4_455 5_456
Ga1 O1 O3 51.62(13) 1_455 5_456
Nb O1 O3 51.62(13) 1_455 5_456
Nb O1 O3 133.2(2) . 5_456
Ga1 O1 O3 133.2(2) . 5_456
Ga1 O1 O3 105.94(17) 1_565 5_456
Nb O1 O3 105.94(17) 1_565 5_456
O2 O1 O3 35.92(18) 2_465 5_456
O2 O1 O3 90.6(2) 5_445 5_456
O2 O1 O3 121.4(3) 6_665 5_456
O3 O1 O3 85.5(3) 6_556 5_456
O3 O1 O3 85.5(3) 2_566 5_456
Ga2 O1 La 29.50(9) 2_566 1_556
La O1 La 80.3(2) . 1_556
La O1 La 121.7(3) 2_565 1_556
La O1 La 121.7(3) 4_455 1_556
O2 O1 La 129.1(3) 3_565 1_556
O2 O1 La 123.4(2) . 1_556
O2 O1 La 173.4(3) 4_455 1_556
O2 O1 La 33.8(3) 3_566 1_556
O2 O1 La 24.9(3) 1_556 1_556
O2 O1 La 60.7(3) 4_456 1_556
O3 O1 La 62.1(3) . 1_556
O3 O1 La 111.4(4) 3_565 1_556
O3 O1 La 78.9(3) 4_455 1_556
Ga2 O1 La 150.51(9) 2_565 1_556
Ga3 O1 La 49.36(16) 1_556 1_556
Ga3 O1 La 53.30(17) 2_565 1_556
Ga3 O1 La 91.5(3) 4_456 1_556
O2 O1 La 53.5(3) 6 1_556
O2 O1 La 103.9(4) 5_455 1_556
O2 O1 La 80.3(3) 2_565 1_556
O3 O1 La 92.3(2) 6 1_556
O3 O1 La 142.0(3) 2_565 1_556
O3 O1 La 115.1(2) 5_455 1_556
Ga3 O1 La 116.61(5) . 1_556
Ga3 O1 La 119.30(5) 2_564 1_556
Ga3 O1 La 166.2(2) 4_455 1_556
Ga1 O1 La 90.96(13) 1_455 1_556
Nb O1 La 90.96(13) 1_455 1_556
Nb O1 La 80.06(11) . 1_556
Ga1 O1 La 80.06(11) . 1_556
Ga1 O1 La 129.0(3) 1_565 1_556
Nb O1 La 129.0(3) 1_565 1_556
O2 O1 La 93.5(2) 2_465 1_556
O2 O1 La 52.16(16) 5_445 1_556
O2 O1 La 99.3(3) 6_665 1_556
O3 O1 La 28.62(14) 6_556 1_556
O3 O1 La 77.9(3) 2_566 1_556
O3 O1 La 57.7(2) 5_456 1_556
Ga2 O1 La 29.50(9) 2_566 2_566
La O1 La 121.7(3) . 2_566
La O1 La 80.3(2) 2_565 2_566
La O1 La 121.7(3) 4_455 2_566
O2 O1 La 123.4(2) 3_565 2_566
O2 O1 La 173.4(3) . 2_566
O2 O1 La 129.1(3) 4_455 2_566
O2 O1 La 24.9(3) 3_566 2_566
O2 O1 La 60.7(3) 1_556 2_566
O2 O1 La 33.8(3) 4_456 2_566
O3 O1 La 78.9(3) . 2_566
O3 O1 La 62.1(3) 3_565 2_566
O3 O1 La 111.4(4) 4_455 2_566
Ga2 O1 La 150.51(9) 2_565 2_566
Ga3 O1 La 91.5(3) 1_556 2_566
Ga3 O1 La 49.36(16) 2_565 2_566
Ga3 O1 La 53.30(17) 4_456 2_566
O2 O1 La 103.9(4) 6 2_566
O2 O1 La 80.3(3) 5_455 2_566
O2 O1 La 53.5(3) 2_565 2_566
O3 O1 La 115.1(2) 6 2_566
O3 O1 La 92.3(2) 2_565 2_566
O3 O1 La 142.0(3) 5_455 2_566
Ga3 O1 La 166.2(2) . 2_566
Ga3 O1 La 116.61(5) 2_564 2_566
Ga3 O1 La 119.30(5) 4_455 2_566
Ga1 O1 La 129.0(3) 1_455 2_566
Nb O1 La 129.0(3) 1_455 2_566
Nb O1 La 90.96(13) . 2_566
Ga1 O1 La 90.96(13) . 2_566
Ga1 O1 La 80.06(11) 1_565 2_566
Nb O1 La 80.06(11) 1_565 2_566
O2 O1 La 99.3(3) 2_465 2_566
O2 O1 La 93.6(2) 5_445 2_566
O2 O1 La 52.16(16) 6_665 2_566
O3 O1 La 57.7(2) 6_556 2_566
O3 O1 La 28.62(14) 2_566 2_566
O3 O1 La 77.9(3) 5_456 2_566
La O1 La 50.48(15) 1_556 2_566
Ga2 O1 La 29.49(9) 2_566 4_456
La O1 La 121.7(3) . 4_456
La O1 La 121.7(3) 2_565 4_456
La O1 La 80.3(2) 4_455 4_456
O2 O1 La 173.4(3) 3_565 4_456
O2 O1 La 129.1(3) . 4_456
O2 O1 La 123.4(2) 4_455 4_456
O2 O1 La 60.7(3) 3_566 4_456
O2 O1 La 33.8(3) 1_556 4_456
O2 O1 La 24.9(3) 4_456 4_456
O3 O1 La 111.4(4) . 4_456
O3 O1 La 78.9(3) 3_565 4_456
O3 O1 La 62.1(3) 4_455 4_456
Ga2 O1 La 150.50(9) 2_565 4_456
Ga3 O1 La 53.30(17) 1_556 4_456
Ga3 O1 La 91.5(3) 2_565 4_456
Ga3 O1 La 49.36(16) 4_456 4_456
O2 O1 La 80.3(3) 6 4_456
O2 O1 La 53.5(3) 5_455 4_456
O2 O1 La 103.9(4) 2_565 4_456
O3 O1 La 142.0(3) 6 4_456
O3 O1 La 115.1(2) 2_565 4_456
O3 O1 La 92.3(2) 5_455 4_456
Ga3 O1 La 119.30(5) . 4_456
Ga3 O1 La 166.2(2) 2_564 4_456
Ga3 O1 La 116.61(5) 4_455 4_456
Ga1 O1 La 80.06(11) 1_455 4_456
Nb O1 La 80.06(11) 1_455 4_456
Nb O1 La 129.0(3) . 4_456
Ga1 O1 La 129.0(3) . 4_456
Ga1 O1 La 90.96(13) 1_565 4_456
Nb O1 La 90.96(13) 1_565 4_456
O2 O1 La 52.16(16) 2_465 4_456
O2 O1 La 99.3(3) 5_445 4_456
O2 O1 La 93.6(2) 6_665 4_456
O3 O1 La 77.9(3) 6_556 4_456
O3 O1 La 57.7(2) 2_566 4_456
O3 O1 La 28.62(14) 5_456 4_456
La O1 La 50.48(15) 1_556 4_456
La O1 La 50.48(15) 2_566 4_456
Ga2 O1 O3 115.1(2) 2_566 5
La O1 O3 61.15(18) . 5
La O1 O3 49.37(16) 2_565 5
La O1 O3 134.6(5) 4_455 5
O2 O1 O3 31.3(2) 3_565 5
O2 O1 O3 82.6(4) . 5
O2 O1 O3 85.5(4) 4_455 5
O2 O1 O3 83.8(2) 3_566 5
O2 O1 O3 125.1(4) 1_556 5
O2 O1 O3 128.4(4) 4_456 5
O3 O1 O3 40.2(3) . 5
O3 O1 O3 96.8(3) 3_565 5
O3 O1 O3 142.1(3) 4_455 5
Ga2 O1 O3 64.9(2) 2_565 5
Ga3 O1 O3 128.93(11) 1_556 5
Ga3 O1 O3 53.11(13) 2_565 5
Ga3 O1 O3 124.65(11) 4_456 5
O2 O1 O3 100.1(2) 6 5
O2 O1 O3 143.5(3) 5_455 5
O2 O1 O3 43.6(3) 2_565 5
O3 O1 O3 33.5(2) 6 5
O3 O1 O3 72.1(3) 2_565 5
O3 O1 O3 122.0(4) 5_455 5
Ga3 O1 O3 91.2(3) . 5
Ga3 O1 O3 21.91(13) 2_564 5
Ga3 O1 O3 88.6(2) 4_455 5
Ga1 O1 O3 126.9(3) 1_455 5
Nb O1 O3 126.9(3) 1_455 5
Nb O1 O3 23.70(11) . 5
Ga1 O1 O3 23.70(11) . 5
Ga1 O1 O3 94.78(17) 1_565 5
Nb O1 O3 94.78(17) 1_565 5
O2 O1 O3 163.5(4) 2_465 5
O2 O1 O3 67.23(18) 5_445 5
O2 O1 O3 67.59(18) 6_665 5
O3 O1 O3 72.59(14) 6_556 5
O3 O1 O3 99.86(19) 2_566 5
O3 O1 O3 156.8(3) 5_456 5
La O1 O3 101.10(16) 1_556 5
La O1 O3 95.98(16) 2_566 5
La O1 O3 144.3(3) 4_456 5
Ga2 O1 O3 115.1(2) 2_566 2_455
La O1 O3 49.37(16) . 2_455
La O1 O3 134.6(5) 2_565 2_455
La O1 O3 61.15(18) 4_455 2_455
O2 O1 O3 85.5(4) 3_565 2_455
O2 O1 O3 31.3(2) . 2_455
O2 O1 O3 82.6(4) 4_455 2_455
O2 O1 O3 128.4(4) 3_566 2_455
O2 O1 O3 83.8(2) 1_556 2_455
O2 O1 O3 125.1(4) 4_456 2_455
O3 O1 O3 96.8(3) . 2_455
O3 O1 O3 142.1(3) 3_565 2_455
O3 O1 O3 40.2(3) 4_455 2_455
Ga2 O1 O3 64.9(2) 2_565 2_455
Ga3 O1 O3 53.11(13) 1_556 2_455
Ga3 O1 O3 124.65(11) 2_565 2_455
Ga3 O1 O3 128.93(11) 4_456 2_455
O2 O1 O3 43.6(3) 6 2_455
O2 O1 O3 100.1(2) 5_455 2_455
O2 O1 O3 143.5(3) 2_565 2_455
O3 O1 O3 72.1(3) 6 2_455
O3 O1 O3 122.0(4) 2_565 2_455
O3 O1 O3 33.5(2) 5_455 2_455
Ga3 O1 O3 21.91(13) . 2_455
Ga3 O1 O3 88.6(2) 2_564 2_455
Ga3 O1 O3 91.2(3) 4_455 2_455
Ga1 O1 O3 23.70(11) 1_455 2_455
Nb O1 O3 23.70(11) 1_455 2_455
Nb O1 O3 94.78(17) . 2_455
Ga1 O1 O3 94.78(17) . 2_455
Ga1 O1 O3 126.9(3) 1_565 2_455
Nb O1 O3 126.9(3) 1_565 2_455
O2 O1 O3 67.23(18) 2_465 2_455
O2 O1 O3 67.59(18) 5_445 2_455
O2 O1 O3 163.5(4) 6_665 2_455
O3 O1 O3 99.86(19) 6_556 2_455
O3 O1 O3 156.8(3) 2_566 2_455
O3 O1 O3 72.59(14) 5_456 2_455
La O1 O3 95.98(16) 1_556 2_455
La O1 O3 144.3(3) 2_566 2_455
La O1 O3 101.10(16) 4_456 2_455
O3 O1 O3 103.3(3) 5 2_455
Ga2 O1 O3 115.1(2) 2_566 6_565
La O1 O3 134.6(5) . 6_565
La O1 O3 61.15(18) 2_565 6_565
La O1 O3 49.37(16) 4_455 6_565
O2 O1 O3 82.6(4) 3_565 6_565
O2 O1 O3 85.5(4) . 6_565
O2 O1 O3 31.3(2) 4_455 6_565
O2 O1 O3 125.1(4) 3_566 6_565
O2 O1 O3 128.4(4) 1_556 6_565
O2 O1 O3 83.8(2) 4_456 6_565
O3 O1 O3 142.1(3) . 6_565
O3 O1 O3 40.2(3) 3_565 6_565
O3 O1 O3 96.8(3) 4_455 6_565
Ga2 O1 O3 64.9(2) 2_565 6_565
Ga3 O1 O3 124.65(11) 1_556 6_565
Ga3 O1 O3 128.93(11) 2_565 6_565
Ga3 O1 O3 53.11(13) 4_456 6_565
O2 O1 O3 143.5(3) 6 6_565
O2 O1 O3 43.6(3) 5_455 6_565
O2 O1 O3 100.1(2) 2_565 6_565
O3 O1 O3 122.0(4) 6 6_565
O3 O1 O3 33.5(2) 2_565 6_565
O3 O1 O3 72.1(3) 5_455 6_565
Ga3 O1 O3 88.6(2) . 6_565
Ga3 O1 O3 91.2(3) 2_564 6_565
Ga3 O1 O3 21.91(13) 4_455 6_565
Ga1 O1 O3 94.78(17) 1_455 6_565
Nb O1 O3 94.78(17) 1_455 6_565
Nb O1 O3 126.9(3) . 6_565
Ga1 O1 O3 126.9(3) . 6_565
Ga1 O1 O3 23.70(11) 1_565 6_565
Nb O1 O3 23.70(11) 1_565 6_565
O2 O1 O3 67.59(18) 2_465 6_565
O2 O1 O3 163.5(4) 5_445 6_565
O2 O1 O3 67.23(18) 6_665 6_565
O3 O1 O3 156.8(3) 6_556 6_565
O3 O1 O3 72.59(14) 2_566 6_565
O3 O1 O3 99.86(19) 5_456 6_565
La O1 O3 144.3(3) 1_556 6_565
La O1 O3 101.09(16) 2_566 6_565
La O1 O3 95.98(16) 4_456 6_565
O3 O1 O3 103.3(3) 5 6_565
O3 O1 O3 103.3(3) 2_455 6_565
Ga2 O1 Ga2 71.42(17) 2_566 1_665
La O1 Ga2 111.58(3) . 1_665
La O1 Ga2 40.44(15) 2_565 1_665
La O1 Ga2 135.79(2) 4_455 1_665
O2 O1 Ga2 81.2(2) 3_565 1_665
O2 O1 Ga2 138.5(4) . 1_665
O2 O1 Ga2 101.5(4) 4_455 1_665
O2 O1 Ga2 48.2(3) 3_566 1_665
O2 O1 Ga2 100.6(4) 1_556 1_665
O2 O1 Ga2 70.5(3) 4_456 1_665
O3 O1 Ga2 65.1(2) . 1_665
O3 O1 Ga2 54.0(3) 3_565 1_665
O3 O1 Ga2 154.3(5) 4_455 1_665
Ga2 O1 Ga2 108.59(17) 2_565 1_665
Ga3 O1 Ga2 130.6(4) 1_556 1_665
Ga3 O1 Ga2 40.26(5) 2_565 1_665
Ga3 O1 Ga2 70.39(11) 4_456 1_665
O2 O1 Ga2 127.3(3) 6 1_665
O2 O1 Ga2 99.1(2) 5_455 1_665
O2 O1 Ga2 17.1(2) 2_565 1_665
O3 O1 Ga2 88.75(13) 6 1_665
O3 O1 Ga2 62.37(18) 2_565 1_665
O3 O1 Ga2 160.8(2) 5_455 1_665
Ga3 O1 Ga2 148.3(3) . 1_665
Ga3 O1 Ga2 76.04(6) 2_564 1_665
Ga3 O1 Ga2 95.10(8) 4_455 1_665
Ga1 O1 Ga2 171.9(4) 1_455 1_665
Nb O1 Ga2 171.9(4) 1_455 1_665
Nb O1 Ga2 65.91(2) . 1_665
Ga1 O1 Ga2 65.91(2) . 1_665
Ga1 O1 Ga2 65.91(2) 1_565 1_665
Nb O1 Ga2 65.91(2) 1_565 1_665
O2 O1 Ga2 132.0(2) 2_465 1_665
O2 O1 Ga2 96.77(15) 5_445 1_665
O2 O1 Ga2 21.68(13) 6_665 1_665
O3 O1 Ga2 69.27(17) 6_556 1_665
O3 O1 Ga2 41.50(14) 2_566 1_665
O3 O1 Ga2 120.6(3) 5_456 1_665
La O1 Ga2 81.87(19) 1_556 1_665
La O1 Ga2 42.94(9) 2_566 1_665
La O1 Ga2 92.4(2) 4_456 1_665
O3 O1 Ga2 58.78(12) 5 1_665
O3 O1 Ga2 160.68(16) 2_455 1_665
O3 O1 Ga2 88.90(11) 6_565 1_665
Ga2 O1 Ga2 71.42(17) 2_566 .
La O1 Ga2 40.44(15) . .
La O1 Ga2 135.79(2) 2_565 .
La O1 Ga2 111.58(3) 4_455 .
O2 O1 Ga2 101.5(4) 3_565 .
O2 O1 Ga2 81.2(2) . .
O2 O1 Ga2 138.5(4) 4_455 .
O2 O1 Ga2 70.5(3) 3_566 .
O2 O1 Ga2 48.2(3) 1_556 .
O2 O1 Ga2 100.6(4) 4_456 .
O3 O1 Ga2 54.0(3) . .
O3 O1 Ga2 154.3(5) 3_565 .
O3 O1 Ga2 65.1(2) 4_455 .
Ga2 O1 Ga2 108.59(17) 2_565 .
Ga3 O1 Ga2 40.26(5) 1_556 .
Ga3 O1 Ga2 70.39(11) 2_565 .
Ga3 O1 Ga2 130.6(4) 4_456 .
O2 O1 Ga2 17.1(2) 6 .
O2 O1 Ga2 127.3(3) 5_455 .
O2 O1 Ga2 99.1(2) 2_565 .
O3 O1 Ga2 62.37(18) 6 .
O3 O1 Ga2 160.8(2) 2_565 .
O3 O1 Ga2 88.75(13) 5_455 .
Ga3 O1 Ga2 76.04(6) . .
Ga3 O1 Ga2 95.11(8) 2_564 .
Ga3 O1 Ga2 148.3(3) 4_455 .
Ga1 O1 Ga2 65.91(2) 1_455 .
Nb O1 Ga2 65.91(2) 1_455 .
Nb O1 Ga2 65.91(2) . .
Ga1 O1 Ga2 65.91(2) . .
Ga1 O1 Ga2 171.9(4) 1_565 .
Nb O1 Ga2 171.9(4) 1_565 .
O2 O1 Ga2 96.77(15) 2_465 .
O2 O1 Ga2 21.68(13) 5_445 .
O2 O1 Ga2 132.0(2) 6_665 .
O3 O1 Ga2 41.50(14) 6_556 .
O3 O1 Ga2 120.6(3) 2_566 .
O3 O1 Ga2 69.27(17) 5_456 .
La O1 Ga2 42.94(9) 1_556 .
La O1 Ga2 92.4(2) 2_566 .
La O1 Ga2 81.87(19) 4_456 .
O3 O1 Ga2 88.90(11) 5 .
O3 O1 Ga2 58.78(12) 2_455 .
O3 O1 Ga2 160.68(16) 6_565 .
Ga2 O1 Ga2 110.34(17) 1_665 .
Ga2 O1 Ga2 71.41(17) 2_566 1_565
La O1 Ga2 135.79(2) . 1_565
La O1 Ga2 111.58(3) 2_565 1_565
La O1 Ga2 40.44(15) 4_455 1_565
O2 O1 Ga2 138.5(4) 3_565 1_565
O2 O1 Ga2 101.5(4) . 1_565
O2 O1 Ga2 81.2(2) 4_455 1_565
O2 O1 Ga2 100.6(4) 3_566 1_565
O2 O1 Ga2 70.5(3) 1_556 1_565
O2 O1 Ga2 48.2(3) 4_456 1_565
O3 O1 Ga2 154.3(5) . 1_565
O3 O1 Ga2 65.1(2) 3_565 1_565
O3 O1 Ga2 54.0(3) 4_455 1_565
Ga2 O1 Ga2 108.58(17) 2_565 1_565
Ga3 O1 Ga2 70.39(11) 1_556 1_565
Ga3 O1 Ga2 130.6(4) 2_565 1_565
Ga3 O1 Ga2 40.26(5) 4_456 1_565
O2 O1 Ga2 99.1(2) 6 1_565
O2 O1 Ga2 17.1(2) 5_455 1_565
O2 O1 Ga2 127.3(3) 2_565 1_565
O3 O1 Ga2 160.8(2) 6 1_565
O3 O1 Ga2 88.75(13) 2_565 1_565
O3 O1 Ga2 62.37(18) 5_455 1_565
Ga3 O1 Ga2 95.11(8) . 1_565
Ga3 O1 Ga2 148.3(3) 2_564 1_565
Ga3 O1 Ga2 76.04(6) 4_455 1_565
Ga1 O1 Ga2 65.91(2) 1_455 1_565
Nb O1 Ga2 65.91(2) 1_455 1_565
Nb O1 Ga2 171.9(4) . 1_565
Ga1 O1 Ga2 171.9(4) . 1_565
Ga1 O1 Ga2 65.91(2) 1_565 1_565
Nb O1 Ga2 65.91(2) 1_565 1_565
O2 O1 Ga2 21.68(13) 2_465 1_565
O2 O1 Ga2 132.0(2) 5_445 1_565
O2 O1 Ga2 96.77(15) 6_665 1_565
O3 O1 Ga2 120.6(3) 6_556 1_565
O3 O1 Ga2 69.27(17) 2_566 1_565
O3 O1 Ga2 41.50(14) 5_456 1_565
La O1 Ga2 92.4(2) 1_556 1_565
La O1 Ga2 81.87(19) 2_566 1_565
La O1 Ga2 42.94(9) 4_456 1_565
O3 O1 Ga2 160.68(16) 5 1_565
O3 O1 Ga2 88.90(11) 2_455 1_565
O3 O1 Ga2 58.78(12) 6_565 1_565
Ga2 O1 Ga2 110.34(17) 1_665 1_565
Ga2 O1 Ga2 110.34(17) . 1_565
Ga2 O1 O1 110.3(3) 2_566 2_565
La O1 O1 98.1(3) . 2_565
La O1 O1 12.27(3) 2_565 2_565
La O1 O1 119.1(4) 4_455 2_565
O2 O1 O1 45.4(3) 3_565 2_565
O2 O1 O1 101.0(5) . 2_565
O2 O1 O1 69.3(5) 4_455 2_565
O2 O1 O1 84.6(3) 3_566 2_565
O2 O1 O1 138.3(5) 1_556 2_565
O2 O1 O1 103.6(4) 4_456 2_565
O3 O1 O1 70.0(3) . 2_565
O3 O1 O1 59.5(2) 3_565 2_565
O3 O1 O1 165.1(6) 4_455 2_565
Ga2 O1 O1 69.7(3) 2_565 2_565
Ga3 O1 O1 162.6(3) 1_556 2_565
Ga3 O1 O1 63.54(10) 2_565 2_565
Ga3 O1 O1 88.72(9) 4_456 2_565
O2 O1 O1 137.1(2) 6 2_565
O2 O1 O1 106.8(2) 5_455 2_565
O2 O1 O1 35.6(2) 2_565 2_565
O3 O1 O1 70.2(2) 6 2_565
O3 O1 O1 39.05(17) 2_565 2_565
O3 O1 O1 128.1(5) 5_455 2_565
Ga3 O1 O1 111.0(5) . 2_565
Ga3 O1 O1 43.7(2) 2_564 2_565
Ga3 O1 O1 66.7(2) 4_455 2_565
Ga1 O1 O1 149.3(5) 1_455 2_565
Nb O1 O1 149.3(5) 1_455 2_565
Nb O1 O1 58.39(6) . 2_565
Ga1 O1 O1 58.39(6) . 2_565
Ga1 O1 O1 58.39(6) 1_565 2_565
Nb O1 O1 58.39(6) 1_565 2_565
O2 O1 O1 139.51(17) 2_465 2_565
O2 O1 O1 102.44(13) 5_445 2_565
O2 O1 O1 34.83(18) 6_665 2_565
O3 O1 O1 93.47(19) 6_556 2_565
O3 O1 O1 70.7(2) 2_566 2_565
O3 O1 O1 156.2(4) 5_456 2_565
La O1 O1 115.8(3) 1_556 2_565
La O1 O1 81.5(2) 2_566 2_565
La O1 O1 128.1(3) 4_456 2_565
O3 O1 O1 37.44(14) 5 2_565
O3 O1 O1 130.8(5) 2_455 2_565
O3 O1 O1 72.5(2) 6_565 2_565
Ga2 O1 O1 38.84(17) 1_665 2_565
Ga2 O1 O1 123.708(18) . 2_565
Ga2 O1 O1 123.708(19) 1_565 2_565
Ga2 O1 O1 110.3(3) 2_566 2_455
La O1 O1 12.27(3) . 2_455
La O1 O1 119.1(4) 2_565 2_455
La O1 O1 98.1(3) 4_455 2_455
O2 O1 O1 69.3(5) 3_565 2_455
O2 O1 O1 45.4(3) . 2_455
O2 O1 O1 101.0(5) 4_455 2_455
O2 O1 O1 103.6(4) 3_566 2_455
O2 O1 O1 84.6(3) 1_556 2_455
O2 O1 O1 138.3(5) 4_456 2_455
O3 O1 O1 59.5(2) . 2_455
O3 O1 O1 165.1(6) 3_565 2_455
O3 O1 O1 70.0(3) 4_455 2_455
Ga2 O1 O1 69.7(3) 2_565 2_455
Ga3 O1 O1 63.54(10) 1_556 2_455
Ga3 O1 O1 88.72(9) 2_565 2_455
Ga3 O1 O1 162.6(3) 4_456 2_455
O2 O1 O1 35.6(2) 6 2_455
O2 O1 O1 137.1(2) 5_455 2_455
O2 O1 O1 106.8(2) 2_565 2_455
O3 O1 O1 39.05(17) 6 2_455
O3 O1 O1 128.1(5) 2_565 2_455
O3 O1 O1 70.2(2) 5_455 2_455
Ga3 O1 O1 43.7(2) . 2_455
Ga3 O1 O1 66.7(2) 2_564 2_455
Ga3 O1 O1 111.0(5) 4_455 2_455
Ga1 O1 O1 58.39(6) 1_455 2_455
Nb O1 O1 58.39(6) 1_455 2_455
Nb O1 O1 58.39(6) . 2_455
Ga1 O1 O1 58.39(6) . 2_455
Ga1 O1 O1 149.3(5) 1_565 2_455
Nb O1 O1 149.3(5) 1_565 2_455
O2 O1 O1 102.44(13) 2_465 2_455
O2 O1 O1 34.83(18) 5_445 2_455
O2 O1 O1 139.51(17) 6_665 2_455
O3 O1 O1 70.7(2) 6_556 2_455
O3 O1 O1 156.2(4) 2_566 2_455
O3 O1 O1 93.47(19) 5_456 2_455
La O1 O1 81.5(2) 1_556 2_455
La O1 O1 128.1(3) 2_566 2_455
La O1 O1 115.8(3) 4_456 2_455
O3 O1 O1 72.5(2) 5 2_455
O3 O1 O1 37.44(14) 2_455 2_455
O3 O1 O1 130.8(5) 6_565 2_455
Ga2 O1 O1 123.708(18) 1_665 2_455
Ga2 O1 O1 38.84(17) . 2_455
Ga2 O1 O1 123.708(19) 1_565 2_455
O1 O1 O1 108.7(3) 2_565 2_455
Ga2 O1 O1 110.3(3) 2_566 2_465
La O1 O1 119.1(4) . 2_465
La O1 O1 98.1(3) 2_565 2_465
La O1 O1 12.27(3) 4_455 2_465
O2 O1 O1 101.0(5) 3_565 2_465
O2 O1 O1 69.3(5) . 2_465
O2 O1 O1 45.4(3) 4_455 2_465
O2 O1 O1 138.3(5) 3_566 2_465
O2 O1 O1 103.6(4) 1_556 2_465
O2 O1 O1 84.6(3) 4_456 2_465
O3 O1 O1 165.1(6) . 2_465
O3 O1 O1 70.0(3) 3_565 2_465
O3 O1 O1 59.5(2) 4_455 2_465
Ga2 O1 O1 69.7(3) 2_565 2_465
Ga3 O1 O1 88.72(9) 1_556 2_465
Ga3 O1 O1 162.6(3) 2_565 2_465
Ga3 O1 O1 63.54(10) 4_456 2_465
O2 O1 O1 106.8(2) 6 2_465
O2 O1 O1 35.6(2) 5_455 2_465
O2 O1 O1 137.1(2) 2_565 2_465
O3 O1 O1 128.1(5) 6 2_465
O3 O1 O1 70.2(2) 2_565 2_465
O3 O1 O1 39.05(17) 5_455 2_465
Ga3 O1 O1 66.7(2) . 2_465
Ga3 O1 O1 111.0(5) 2_564 2_465
Ga3 O1 O1 43.7(2) 4_455 2_465
Ga1 O1 O1 58.39(6) 1_455 2_465
Nb O1 O1 58.39(6) 1_455 2_465
Nb O1 O1 149.3(5) . 2_465
Ga1 O1 O1 149.3(5) . 2_465
Ga1 O1 O1 58.39(6) 1_565 2_465
Nb O1 O1 58.39(6) 1_565 2_465
O2 O1 O1 34.83(18) 2_465 2_465
O2 O1 O1 139.51(17) 5_445 2_465
O2 O1 O1 102.44(13) 6_665 2_465
O3 O1 O1 156.2(4) 6_556 2_465
O3 O1 O1 93.47(19) 2_566 2_465
O3 O1 O1 70.7(2) 5_456 2_465
La O1 O1 128.1(3) 1_556 2_465
La O1 O1 115.8(3) 2_566 2_465
La O1 O1 81.5(2) 4_456 2_465
O3 O1 O1 130.8(5) 5 2_465
O3 O1 O1 72.5(2) 2_455 2_465
O3 O1 O1 37.44(14) 6_565 2_465
Ga2 O1 O1 123.708(19) 1_665 2_465
Ga2 O1 O1 123.708(19) . 2_465
Ga2 O1 O1 38.84(17) 1_565 2_465
O1 O1 O1 108.7(3) 2_565 2_465
O1 O1 O1 108.7(3) 2_455 2_465
Ga2 O1 O1 0.0 2_566 1_556
La O1 O1 109.8(3) . 1_556
La O1 O1 109.8(3) 2_565 1_556
La O1 O1 109.8(3) 4_455 1_556
O2 O1 O1 146.4(3) 3_565 1_556
O2 O1 O1 146.4(3) . 1_556
O2 O1 O1 146.4(3) 4_455 1_556
O2 O1 O1 31.4(3) 3_566 1_556
O2 O1 O1 31.4(3) 1_556 1_556
O2 O1 O1 31.4(3) 4_456 1_556
O3 O1 O1 83.5(3) . 1_556
O3 O1 O1 83.5(3) 3_565 1_556
O3 O1 O1 83.5(3) 4_455 1_556
Ga2 O1 O1 179.997(1) 2_565 1_556
Ga3 O1 O1 62.1(2) 1_556 1_556
Ga3 O1 O1 62.1(2) 2_565 1_556
Ga3 O1 O1 62.1(2) 4_456 1_556
O2 O1 O1 78.5(3) 6 1_556
O2 O1 O1 78.5(3) 5_455 1_556
O2 O1 O1 78.5(3) 2_565 1_556
O3 O1 O1 118.7(3) 6 1_556
O3 O1 O1 118.7(3) 2_565 1_556
O3 O1 O1 118.7(3) 5_455 1_556
Ga3 O1 O1 136.96(13) . 1_556
Ga3 O1 O1 136.96(13) 2_564 1_556
Ga3 O1 O1 136.96(13) 4_455 1_556
Ga1 O1 O1 100.45(19) 1_455 1_556
Nb O1 O1 100.45(19) 1_455 1_556
Nb O1 O1 100.46(18) . 1_556
Ga1 O1 O1 100.46(18) . 1_556
Ga1 O1 O1 100.45(18) 1_565 1_556
Nb O1 O1 100.45(18) 1_565 1_556
O2 O1 O1 81.4(2) 2_465 1_556
O2 O1 O1 81.4(2) 5_445 1_556
O2 O1 O1 81.4(2) 6_665 1_556
O3 O1 O1 51.6(2) 6_556 1_556
O3 O1 O1 51.6(2) 2_566 1_556
O3 O1 O1 51.6(2) 5_456 1_556
La O1 O1 29.49(9) 1_556 1_556
La O1 O1 29.50(9) 2_566 1_556
La O1 O1 29.49(9) 4_456 1_556
O3 O1 O1 115.1(2) 5 1_556
O3 O1 O1 115.1(2) 2_455 1_556
O3 O1 O1 115.1(2) 6_565 1_556
Ga2 O1 O1 71.42(17) 1_665 1_556
Ga2 O1 O1 71.42(17) . 1_556
Ga2 O1 O1 71.41(17) 1_565 1_556
O1 O1 O1 110.3(3) 2_565 1_556
O1 O1 O1 110.3(3) 2_455 1_556
O1 O1 O1 110.3(3) 2_465 1_556
Ga2 O1 O1 179.996(1) 2_566 1_554
La O1 O1 70.2(3) . 1_554
La O1 O1 70.2(3) 2_565 1_554
La O1 O1 70.2(3) 4_455 1_554
O2 O1 O1 33.6(3) 3_565 1_554
O2 O1 O1 33.6(3) . 1_554
O2 O1 O1 33.6(3) 4_455 1_554
O2 O1 O1 148.6(3) 3_566 1_554
O2 O1 O1 148.6(3) 1_556 1_554
O2 O1 O1 148.6(3) 4_456 1_554
O3 O1 O1 96.5(3) . 1_554
O3 O1 O1 96.5(3) 3_565 1_554
O3 O1 O1 96.5(3) 4_455 1_554
Ga2 O1 O1 0.0 2_565 1_554
Ga3 O1 O1 117.9(2) 1_556 1_554
Ga3 O1 O1 117.9(2) 2_565 1_554
Ga3 O1 O1 117.9(2) 4_456 1_554
O2 O1 O1 101.5(3) 6 1_554
O2 O1 O1 101.5(3) 5_455 1_554
O2 O1 O1 101.5(3) 2_565 1_554
O3 O1 O1 61.3(3) 6 1_554
O3 O1 O1 61.3(3) 2_565 1_554
O3 O1 O1 61.3(3) 5_455 1_554
Ga3 O1 O1 43.04(13) . 1_554
Ga3 O1 O1 43.04(13) 2_564 1_554
Ga3 O1 O1 43.04(13) 4_455 1_554
Ga1 O1 O1 79.54(18) 1_455 1_554
Nb O1 O1 79.54(18) 1_455 1_554
Nb O1 O1 79.55(19) . 1_554
Ga1 O1 O1 79.55(19) . 1_554
Ga1 O1 O1 79.55(18) 1_565 1_554
Nb O1 O1 79.55(18) 1_565 1_554
O2 O1 O1 98.6(2) 2_465 1_554
O2 O1 O1 98.6(2) 5_445 1_554
O2 O1 O1 98.6(2) 6_665 1_554
O3 O1 O1 128.4(2) 6_556 1_554
O3 O1 O1 128.4(2) 2_566 1_554
O3 O1 O1 128.4(2) 5_456 1_554
La O1 O1 150.51(9) 1_556 1_554
La O1 O1 150.51(9) 2_566 1_554
La O1 O1 150.50(9) 4_456 1_554
O3 O1 O1 64.9(2) 5 1_554
O3 O1 O1 64.9(2) 2_455 1_554
O3 O1 O1 64.9(2) 6_565 1_554
Ga2 O1 O1 108.59(17) 1_665 1_554
Ga2 O1 O1 108.59(17) . 1_554
Ga2 O1 O1 108.58(17) 1_565 1_554
O1 O1 O1 69.7(3) 2_565 1_554
O1 O1 O1 69.7(3) 2_455 1_554
O1 O1 O1 69.7(3) 2_465 1_554
O1 O1 O1 180.0 1_556 1_554
Ga2 O1 Ga3 71.46(16) 2_566 2_465
La O1 Ga3 100.64(5) . 2_465
La O1 Ga3 147.01(3) 2_565 2_465
La O1 Ga3 45.51(14) 4_455 2_465
O2 O1 Ga3 140.5(4) 3_565 2_465
O2 O1 Ga3 83.8(3) . 2_465
O2 O1 Ga3 97.5(3) 4_455 2_465
O2 O1 Ga3 101.9(4) 3_566 2_465
O2 O1 Ga3 51.5(3) 1_556 2_465
O2 O1 Ga3 66.6(3) 4_456 2_465
O3 O1 Ga3 129.9(3) . 2_465
O3 O1 Ga3 101.0(3) 3_565 2_465
O3 O1 Ga3 19.7(3) 4_455 2_465
Ga2 O1 Ga3 108.54(16) 2_565 2_465
Ga3 O1 Ga3 36.92(5) 1_556 2_465
Ga3 O1 Ga3 129.3(3) 2_565 2_465
Ga3 O1 Ga3 73.71(12) 4_456 2_465
O2 O1 Ga3 63.53(19) 6 2_465
O2 O1 Ga3 52.7(2) 5_455 2_465
O2 O1 Ga3 149.4(5) 2_565 2_465
O3 O1 Ga3 128.18(15) 6 2_465
O3 O1 Ga3 121.12(14) 2_565 2_465
O3 O1 Ga3 47.38(19) 5_455 2_465
Ga3 O1 Ga3 74.33(5) . 2_465
Ga3 O1 Ga3 146.8(2) 2_564 2_465
Ga3 O1 Ga3 97.51(8) 4_455 2_465
Ga1 O1 Ga3 36.16(2) 1_455 2_465
Nb O1 Ga3 36.16(2) 1_455 2_465
Nb O1 Ga3 142.32(8) . 2_465
Ga1 O1 Ga3 142.32(8) . 2_465
Ga1 O1 Ga3 100.89(4) 1_565 2_465
Nb O1 Ga3 100.89(4) 1_565 2_465
O2 O1 Ga3 20.33(13) 2_465 2_465
O2 O1 Ga3 98.23(17) 5_445 2_465
O2 O1 Ga3 130.7(2) 6_665 2_465
O3 O1 Ga3 102.6(2) 6_556 2_465
O3 O1 Ga3 97.4(2) 2_566 2_465
O3 O1 Ga3 20.16(12) 5_456 2_465
La O1 Ga3 76.33(16) 1_556 2_465
La O1 Ga3 96.1(2) 2_566 2_465
La O1 Ga3 45.60(8) 4_456 2_465
O3 O1 Ga3 161.65(16) 5 2_465
O3 O1 Ga3 59.50(11) 2_455 2_465
O3 O1 Ga3 87.91(11) 6_565 2_465
Ga2 O1 Ga3 137.1(3) 1_665 2_465
Ga2 O1 Ga3 76.83(9) . 2_465
Ga2 O1 Ga3 36.04(4) 1_565 2_465
O1 O1 Ga3 159.28(4) 2_565 2_465
O1 O1 Ga3 89.13(6) 2_455 2_465
O1 O1 Ga3 53.85(12) 2_465 2_465
O1 O1 Ga3 71.46(16) 1_556 2_465
O1 O1 Ga3 108.54(16) 1_554 2_465
Ga2 O1 Ga3 71.46(16) 2_566 4_446
La O1 Ga3 45.51(14) . 4_446
La O1 Ga3 100.64(5) 2_565 4_446
La O1 Ga3 147.01(3) 4_455 4_446
O2 O1 Ga3 83.8(3) 3_565 4_446
O2 O1 Ga3 97.5(3) . 4_446
O2 O1 Ga3 140.5(4) 4_455 4_446
O2 O1 Ga3 51.5(3) 3_566 4_446
O2 O1 Ga3 66.6(3) 1_556 4_446
O2 O1 Ga3 101.9(4) 4_456 4_446
O3 O1 Ga3 19.7(3) . 4_446
O3 O1 Ga3 129.9(3) 3_565 4_446
O3 O1 Ga3 101.0(3) 4_455 4_446
Ga2 O1 Ga3 108.54(16) 2_565 4_446
Ga3 O1 Ga3 73.71(12) 1_556 4_446
Ga3 O1 Ga3 36.92(5) 2_565 4_446
Ga3 O1 Ga3 129.3(3) 4_456 4_446
O2 O1 Ga3 52.7(2) 6 4_446
O2 O1 Ga3 149.4(5) 5_455 4_446
O2 O1 Ga3 63.53(19) 2_565 4_446
O3 O1 Ga3 47.38(19) 6 4_446
O3 O1 Ga3 128.18(15) 2_565 4_446
O3 O1 Ga3 121.12(14) 5_455 4_446
Ga3 O1 Ga3 97.51(8) . 4_446
Ga3 O1 Ga3 74.33(5) 2_564 4_446
Ga3 O1 Ga3 146.8(2) 4_455 4_446
Ga1 O1 Ga3 100.90(4) 1_455 4_446
Nb O1 Ga3 100.90(4) 1_455 4_446
Nb O1 Ga3 36.16(3) . 4_446
Ga1 O1 Ga3 36.16(3) . 4_446
Ga1 O1 Ga3 142.32(8) 1_565 4_446
Nb O1 Ga3 142.32(8) 1_565 4_446
O2 O1 Ga3 130.7(2) 2_465 4_446
O2 O1 Ga3 20.33(13) 5_445 4_446
O2 O1 Ga3 98.23(17) 6_665 4_446
O3 O1 Ga3 20.16(12) 6_556 4_446
O3 O1 Ga3 102.6(2) 2_566 4_446
O3 O1 Ga3 97.4(2) 5_456 4_446
La O1 Ga3 45.60(8) 1_556 4_446
La O1 Ga3 76.33(16) 2_566 4_446
La O1 Ga3 96.1(2) 4_456 4_446
O3 O1 Ga3 59.50(11) 5 4_446
O3 O1 Ga3 87.92(11) 2_455 4_446
O3 O1 Ga3 161.65(16) 6_565 4_446
Ga2 O1 Ga3 76.83(9) 1_665 4_446
Ga2 O1 Ga3 36.04(4) . 4_446
Ga2 O1 Ga3 137.1(3) 1_565 4_446
O1 O1 Ga3 89.13(6) 2_565 4_446
O1 O1 Ga3 53.85(12) 2_455 4_446
O1 O1 Ga3 159.28(4) 2_465 4_446
O1 O1 Ga3 71.46(16) 1_556 4_446
O1 O1 Ga3 108.54(16) 1_554 4_446
Ga3 O1 Ga3 110.39(15) 2_465 4_446
Ga2 O1 Ga3 71.46(16) 2_566 1_666
La O1 Ga3 147.01(3) . 1_666
La O1 Ga3 45.51(14) 2_565 1_666
La O1 Ga3 100.64(5) 4_455 1_666
O2 O1 Ga3 97.5(3) 3_565 1_666
O2 O1 Ga3 140.5(4) . 1_666
O2 O1 Ga3 83.8(3) 4_455 1_666
O2 O1 Ga3 66.6(3) 3_566 1_666
O2 O1 Ga3 101.9(4) 1_556 1_666
O2 O1 Ga3 51.5(3) 4_456 1_666
O3 O1 Ga3 101.0(3) . 1_666
O3 O1 Ga3 19.7(3) 3_565 1_666
O3 O1 Ga3 129.9(3) 4_455 1_666
Ga2 O1 Ga3 108.54(16) 2_565 1_666
Ga3 O1 Ga3 129.3(3) 1_556 1_666
Ga3 O1 Ga3 73.71(12) 2_565 1_666
Ga3 O1 Ga3 36.92(5) 4_456 1_666
O2 O1 Ga3 149.4(5) 6 1_666
O2 O1 Ga3 63.53(19) 5_455 1_666
O2 O1 Ga3 52.7(2) 2_565 1_666
O3 O1 Ga3 121.12(14) 6 1_666
O3 O1 Ga3 47.38(19) 2_565 1_666
O3 O1 Ga3 128.18(15) 5_455 1_666
Ga3 O1 Ga3 146.8(2) . 1_666
Ga3 O1 Ga3 97.51(8) 2_564 1_666
Ga3 O1 Ga3 74.33(5) 4_455 1_666
Ga1 O1 Ga3 142.32(8) 1_455 1_666
Nb O1 Ga3 142.32(8) 1_455 1_666
Nb O1 Ga3 100.89(4) . 1_666
Ga1 O1 Ga3 100.89(4) . 1_666
Ga1 O1 Ga3 36.16(3) 1_565 1_666
Nb O1 Ga3 36.16(3) 1_565 1_666
O2 O1 Ga3 98.23(17) 2_465 1_666
O2 O1 Ga3 130.7(2) 5_445 1_666
O2 O1 Ga3 20.33(13) 6_665 1_666
O3 O1 Ga3 97.4(2) 6_556 1_666
O3 O1 Ga3 20.16(12) 2_566 1_666
O3 O1 Ga3 102.6(2) 5_456 1_666
La O1 Ga3 96.1(2) 1_556 1_666
La O1 Ga3 45.60(8) 2_566 1_666
La O1 Ga3 76.33(16) 4_456 1_666
O3 O1 Ga3 87.91(11) 5 1_666
O3 O1 Ga3 161.65(16) 2_455 1_666
O3 O1 Ga3 59.50(11) 6_565 1_666
Ga2 O1 Ga3 36.04(4) 1_665 1_666
Ga2 O1 Ga3 137.1(3) . 1_666
Ga2 O1 Ga3 76.83(9) 1_565 1_666
O1 O1 Ga3 53.85(12) 2_565 1_666
O1 O1 Ga3 159.28(4) 2_455 1_666
O1 O1 Ga3 89.13(6) 2_465 1_666
O1 O1 Ga3 71.46(16) 1_556 1_666
O1 O1 Ga3 108.54(16) 1_554 1_666
Ga3 O1 Ga3 110.39(15) 2_465 1_666
Ga3 O1 Ga3 110.39(15) 4_446 1_666
Ga2 O1 O3 55.8(2) 2_566 5_556
La O1 O3 83.14(18) . 5_556
La O1 O3 74.13(18) 2_565 5_556
La O1 O3 164.4(5) 4_455 5_556
O2 O1 O3 90.6(3) 3_565 5_556
O2 O1 O3 132.4(4) . 5_556
O2 O1 O3 136.0(4) 4_455 5_556
O2 O1 O3 24.5(2) 3_566 5_556
O2 O1 O3 73.4(4) 1_556 5_556
O2 O1 O3 75.9(4) 4_456 5_556
O3 O1 O3 36.3(3) . 5_556
O3 O1 O3 90.1(3) 3_565 5_556
O3 O1 O3 127.8(4) 4_455 5_556
Ga2 O1 O3 124.2(2) 2_565 5_556
Ga3 O1 O3 97.4(3) 1_556 5_556
Ga3 O1 O3 6.63(16) 2_565 5_556
Ga3 O1 O3 94.3(3) 4_456 5_556
O2 O1 O3 88.3(3) 6 5_556
O2 O1 O3 123.0(4) 5_455 5_556
O2 O1 O3 31.6(2) 2_565 5_556
O3 O1 O3 72.18(15) 6 5_556
O3 O1 O3 100.1(2) 2_565 5_556
O3 O1 O3 160.1(2) 5_455 5_556
Ga3 O1 O3 135.55(15) . 5_556
Ga3 O1 O3 81.19(15) 2_564 5_556
Ga3 O1 O3 132.20(14) 4_455 5_556
Ga1 O1 O3 136.2(2) 1_455 5_556
Nb O1 O3 136.2(2) 1_455 5_556
Nb O1 O3 48.38(15) . 5_556
Ga1 O1 O3 48.38(15) . 5_556
Ga1 O1 O3 104.39(13) 1_565 5_556
Nb O1 O3 104.39(13) 1_565 5_556
O2 O1 O3 137.2(4) 2_465 5_556
O2 O1 O3 60.30(19) 5_445 5_556
O2 O1 O3 60.64(19) 6_665 5_556
O3 O1 O3 30.3(2) 6_556 5_556
O3 O1 O3 64.3(3) 2_566 5_556
O3 O1 O3 104.5(4) 5_456 5_556
La O1 O3 49.37(18) 1_556 5_556
La O1 O3 42.96(18) 2_566 5_556
La O1 O3 85.1(3) 4_456 5_556
O3 O1 O3 59.34(14) 5 5_556
O3 O1 O3 127.82(7) 2_455 5_556
O3 O1 O3 127.82(7) 6_565 5_556
Ga2 O1 O3 39.08(12) 1_665 5_556
Ga2 O1 O3 71.31(15) . 5_556
Ga2 O1 O3 124.0(3) 1_565 5_556
O1 O1 O3 66.6(2) 2_565 5_556
O1 O1 O3 93.14(18) 2_455 5_556
O1 O1 O3 157.7(3) 2_465 5_556
O1 O1 O3 55.8(2) 1_556 5_556
O1 O1 O3 124.2(2) 1_554 5_556
Ga3 O1 O3 124.4(3) 2_465 5_556
Ga3 O1 O3 40.02(12) 4_446 5_556
Ga3 O1 O3 70.41(15) 1_666 5_556
Ga2 O1 O3 55.8(2) 2_566 2_456
La O1 O3 74.13(18) . 2_456
La O1 O3 164.4(5) 2_565 2_456
La O1 O3 83.14(18) 4_455 2_456
O2 O1 O3 136.0(4) 3_565 2_456
O2 O1 O3 90.6(3) . 2_456
O2 O1 O3 132.4(4) 4_455 2_456
O2 O1 O3 75.9(4) 3_566 2_456
O2 O1 O3 24.5(2) 1_556 2_456
O2 O1 O3 73.4(4) 4_456 2_456
O3 O1 O3 90.1(3) . 2_456
O3 O1 O3 127.8(4) 3_565 2_456
O3 O1 O3 36.3(3) 4_455 2_456
Ga2 O1 O3 124.2(2) 2_565 2_456
Ga3 O1 O3 6.63(16) 1_556 2_456
Ga3 O1 O3 94.3(3) 2_565 2_456
Ga3 O1 O3 97.4(3) 4_456 2_456
O2 O1 O3 31.6(2) 6 2_456
O2 O1 O3 88.3(3) 5_455 2_456
O2 O1 O3 123.0(4) 2_565 2_456
O3 O1 O3 100.1(2) 6 2_456
O3 O1 O3 160.1(2) 2_565 2_456
O3 O1 O3 72.18(15) 5_455 2_456
Ga3 O1 O3 81.19(16) . 2_456
Ga3 O1 O3 132.20(14) 2_564 2_456
Ga3 O1 O3 135.55(15) 4_455 2_456
Ga1 O1 O3 48.38(15) 1_455 2_456
Nb O1 O3 48.38(15) 1_455 2_456
Nb O1 O3 104.39(13) . 2_456
Ga1 O1 O3 104.39(13) . 2_456
Ga1 O1 O3 136.2(2) 1_565 2_456
Nb O1 O3 136.2(2) 1_565 2_456
O2 O1 O3 60.30(19) 2_465 2_456
O2 O1 O3 60.64(19) 5_445 2_456
O2 O1 O3 137.2(4) 6_665 2_456
O3 O1 O3 64.3(3) 6_556 2_456
O3 O1 O3 104.5(4) 2_566 2_456
O3 O1 O3 30.3(2) 5_456 2_456
La O1 O3 42.96(18) 1_556 2_456
La O1 O3 85.1(3) 2_566 2_456
La O1 O3 49.37(18) 4_456 2_456
O3 O1 O3 127.82(7) 5 2_456
O3 O1 O3 59.34(15) 2_455 2_456
O3 O1 O3 127.82(7) 6_565 2_456
Ga2 O1 O3 124.0(3) 1_665 2_456
Ga2 O1 O3 39.08(12) . 2_456
Ga2 O1 O3 71.31(15) 1_565 2_456
O1 O1 O3 157.7(3) 2_565 2_456
O1 O1 O3 66.6(2) 2_455 2_456
O1 O1 O3 93.14(18) 2_465 2_456
O1 O1 O3 55.8(2) 1_556 2_456
O1 O1 O3 124.2(2) 1_554 2_456
Ga3 O1 O3 40.02(12) 2_465 2_456
Ga3 O1 O3 70.41(15) 4_446 2_456
Ga3 O1 O3 124.4(3) 1_666 2_456
O3 O1 O3 91.5(3) 5_556 2_456
Ga2 O1 O3 55.8(2) 2_566 6_566
La O1 O3 164.4(5) . 6_566
La O1 O3 83.14(18) 2_565 6_566
La O1 O3 74.13(18) 4_455 6_566
O2 O1 O3 132.4(4) 3_565 6_566
O2 O1 O3 136.0(4) . 6_566
O2 O1 O3 90.6(3) 4_455 6_566
O2 O1 O3 73.4(4) 3_566 6_566
O2 O1 O3 75.9(4) 1_556 6_566
O2 O1 O3 24.5(2) 4_456 6_566
O3 O1 O3 127.8(4) . 6_566
O3 O1 O3 36.3(3) 3_565 6_566
O3 O1 O3 90.1(3) 4_455 6_566
Ga2 O1 O3 124.2(2) 2_565 6_566
Ga3 O1 O3 94.3(3) 1_556 6_566
Ga3 O1 O3 97.4(3) 2_565 6_566
Ga3 O1 O3 6.63(16) 4_456 6_566
O2 O1 O3 123.0(4) 6 6_566
O2 O1 O3 31.6(2) 5_455 6_566
O2 O1 O3 88.3(3) 2_565 6_566
O3 O1 O3 160.1(2) 6 6_566
O3 O1 O3 72.18(15) 2_565 6_566
O3 O1 O3 100.1(2) 5_455 6_566
Ga3 O1 O3 132.20(14) . 6_566
Ga3 O1 O3 135.55(15) 2_564 6_566
Ga3 O1 O3 81.19(15) 4_455 6_566
Ga1 O1 O3 104.39(13) 1_455 6_566
Nb O1 O3 104.39(13) 1_455 6_566
Nb O1 O3 136.2(2) . 6_566
Ga1 O1 O3 136.2(2) . 6_566
Ga1 O1 O3 48.38(15) 1_565 6_566
Nb O1 O3 48.38(15) 1_565 6_566
O2 O1 O3 60.64(19) 2_465 6_566
O2 O1 O3 137.2(4) 5_445 6_566
O2 O1 O3 60.30(19) 6_665 6_566
O3 O1 O3 104.5(4) 6_556 6_566
O3 O1 O3 30.3(2) 2_566 6_566
O3 O1 O3 64.3(3) 5_456 6_566
La O1 O3 85.1(3) 1_556 6_566
La O1 O3 49.37(18) 2_566 6_566
La O1 O3 42.96(18) 4_456 6_566
O3 O1 O3 127.82(7) 5 6_566
O3 O1 O3 127.82(7) 2_455 6_566
O3 O1 O3 59.34(14) 6_565 6_566
Ga2 O1 O3 71.31(15) 1_665 6_566
Ga2 O1 O3 124.0(3) . 6_566
Ga2 O1 O3 39.08(12) 1_565 6_566
O1 O1 O3 93.14(18) 2_565 6_566
O1 O1 O3 157.7(3) 2_455 6_566
O1 O1 O3 66.6(2) 2_465 6_566
O1 O1 O3 55.8(2) 1_556 6_566
O1 O1 O3 124.2(2) 1_554 6_566
Ga3 O1 O3 70.41(15) 2_465 6_566
Ga3 O1 O3 124.4(3) 4_446 6_566
Ga3 O1 O3 40.02(12) 1_666 6_566
O3 O1 O3 91.5(3) 5_556 6_566
O3 O1 O3 91.5(3) 2_456 6_566
Ga2 O1 O3 86.2(2) 2_566 4
La O1 O3 66.24(13) . 4
La O1 O3 60.69(11) 2_565 4
La O1 O3 163.8(5) 4_455 4
O2 O1 O3 60.4(2) 3_565 4
O2 O1 O3 105.9(4) . 4
O2 O1 O3 112.7(4) 4_455 4
O2 O1 O3 55.0(2) 3_566 4
O2 O1 O3 98.5(4) 1_556 4
O2 O1 O3 104.7(4) 4_456 4
O3 O1 O3 22.0(3) . 4
O3 O1 O3 97.5(3) 3_565 4
O3 O1 O3 140.7(3) 4_455 4
Ga2 O1 O3 93.83(19) 2_565 4
Ga3 O1 O3 113.31(19) 1_556 4
Ga3 O1 O3 24.11(15) 2_565 4
Ga3 O1 O3 115.0(2) 4_456 4
O2 O1 O3 91.5(2) 6 4
O2 O1 O3 144.4(3) 5_455 4
O2 O1 O3 28.5(3) 2_565 4
O3 O1 O3 46.1(3) 6 4
O3 O1 O3 88.3(2) 2_565 4
O3 O1 O3 145.0(3) 5_455 4
Ga3 O1 O3 112.2(2) . 4
Ga3 O1 O3 50.80(13) 2_564 4
Ga3 O1 O3 113.6(2) 4_455 4
Ga1 O1 O3 135.99(12) 1_455 4
Nb O1 O3 135.99(12) 1_455 4
Nb O1 O3 21.48(14) . 4
Ga1 O1 O3 21.48(14) . 4
Ga1 O1 O3 104.34(11) 1_565 4
Nb O1 O3 104.34(11) 1_565 4
O2 O1 O3 167.0(4) 2_465 4
O2 O1 O3 56.11(17) 5_445 4
O2 O1 O3 63.46(18) 6_665 4
O3 O1 O3 46.4(2) 6_556 4
O3 O1 O3 84.5(2) 2_566 4
O3 O1 O3 131.4(3) 5_456 4
La O1 O3 73.70(15) 1_556 4
La O1 O3 70.97(16) 2_566 4
La O1 O3 115.6(3) 4_456 4
O3 O1 O3 29.2(2) 5 4
O3 O1 O3 115.55(14) 2_455 4
O3 O1 O3 121.80(13) 6_565 4
Ga2 O1 O3 45.34(12) 1_665 4
Ga2 O1 O3 75.63(12) . 4
Ga2 O1 O3 152.5(3) 1_565 4
O1 O1 O3 49.34(12) 2_565 4
O1 O1 O3 78.37(12) 2_455 4
O1 O1 O3 157.3(4) 2_465 4
O1 O1 O3 86.17(19) 1_556 4
O1 O1 O3 93.8(2) 1_554 4
Ga3 O1 O3 148.9(2) 2_465 4
Ga3 O1 O3 39.96(11) 4_446 4
Ga3 O1 O3 81.19(13) 1_666 4
O3 O1 O3 30.5(3) 5_556 4
O3 O1 O3 109.31(17) 2_456 4
O3 O1 O3 114.71(17) 6_566 4
Ga2 O1 O3 86.2(2) 2_566 3_455
La O1 O3 60.69(11) . 3_455
La O1 O3 163.8(5) 2_565 3_455
La O1 O3 66.24(13) 4_455 3_455
O2 O1 O3 112.7(4) 3_565 3_455
O2 O1 O3 60.4(2) . 3_455
O2 O1 O3 105.9(4) 4_455 3_455
O2 O1 O3 104.7(4) 3_566 3_455
O2 O1 O3 55.0(2) 1_556 3_455
O2 O1 O3 98.5(4) 4_456 3_455
O3 O1 O3 97.5(3) . 3_455
O3 O1 O3 140.7(3) 3_565 3_455
O3 O1 O3 22.0(3) 4_455 3_455
Ga2 O1 O3 93.83(19) 2_565 3_455
Ga3 O1 O3 24.11(15) 1_556 3_455
Ga3 O1 O3 115.0(2) 2_565 3_455
Ga3 O1 O3 113.32(19) 4_456 3_455
O2 O1 O3 28.5(3) 6 3_455
O2 O1 O3 91.5(3) 5_455 3_455
O2 O1 O3 144.4(3) 2_565 3_455
O3 O1 O3 88.3(2) 6 3_455
O3 O1 O3 145.0(3) 2_565 3_455
O3 O1 O3 46.1(3) 5_455 3_455
Ga3 O1 O3 50.80(13) . 3_455
Ga3 O1 O3 113.6(2) 2_564 3_455
Ga3 O1 O3 112.2(2) 4_455 3_455
Ga1 O1 O3 21.48(14) 1_455 3_455
Nb O1 O3 21.48(14) 1_455 3_455
Nb O1 O3 104.34(11) . 3_455
Ga1 O1 O3 104.34(11) . 3_455
Ga1 O1 O3 135.99(12) 1_565 3_455
Nb O1 O3 135.99(12) 1_565 3_455
O2 O1 O3 56.11(17) 2_465 3_455
O2 O1 O3 63.46(18) 5_445 3_455
O2 O1 O3 167.0(4) 6_665 3_455
O3 O1 O3 84.5(2) 6_556 3_455
O3 O1 O3 131.4(3) 2_566 3_455
O3 O1 O3 46.4(2) 5_456 3_455
La O1 O3 70.97(16) 1_556 3_455
La O1 O3 115.6(3) 2_566 3_455
La O1 O3 73.70(15) 4_456 3_455
O3 O1 O3 121.80(13) 5 3_455
O3 O1 O3 29.2(2) 2_455 3_455
O3 O1 O3 115.55(14) 6_565 3_455
Ga2 O1 O3 152.5(3) 1_665 3_455
Ga2 O1 O3 45.34(12) . 3_455
Ga2 O1 O3 75.63(12) 1_565 3_455
O1 O1 O3 157.3(4) 2_565 3_455
O1 O1 O3 49.34(12) 2_455 3_455
O1 O1 O3 78.37(12) 2_465 3_455
O1 O1 O3 86.2(2) 1_556 3_455
O1 O1 O3 93.83(19) 1_554 3_455
Ga3 O1 O3 39.96(11) 2_465 3_455
Ga3 O1 O3 81.19(13) 4_446 3_455
Ga3 O1 O3 148.9(2) 1_666 3_455
O3 O1 O3 114.71(17) 5_556 3_455
O3 O1 O3 30.5(3) 2_456 3_455
O3 O1 O3 109.31(17) 6_566 3_455
O3 O1 O3 119.56(5) 4 3_455
Ga2 O1 O3 86.17(19) 2_566 1_565
La O1 O3 163.8(5) . 1_565
La O1 O3 66.24(13) 2_565 1_565
La O1 O3 60.69(11) 4_455 1_565
O2 O1 O3 105.9(4) 3_565 1_565
O2 O1 O3 112.7(4) . 1_565
O2 O1 O3 60.4(2) 4_455 1_565
O2 O1 O3 98.5(4) 3_566 1_565
O2 O1 O3 104.7(4) 1_556 1_565
O2 O1 O3 55.0(2) 4_456 1_565
O3 O1 O3 140.7(3) . 1_565
O3 O1 O3 22.0(3) 3_565 1_565
O3 O1 O3 97.5(3) 4_455 1_565
Ga2 O1 O3 93.83(19) 2_565 1_565
Ga3 O1 O3 115.0(2) 1_556 1_565
Ga3 O1 O3 113.31(19) 2_565 1_565
Ga3 O1 O3 24.11(15) 4_456 1_565
O2 O1 O3 144.4(3) 6 1_565
O2 O1 O3 28.5(3) 5_455 1_565
O2 O1 O3 91.5(2) 2_565 1_565
O3 O1 O3 145.0(3) 6 1_565
O3 O1 O3 46.1(2) 2_565 1_565
O3 O1 O3 88.3(2) 5_455 1_565
Ga3 O1 O3 113.6(2) . 1_565
Ga3 O1 O3 112.2(2) 2_564 1_565
Ga3 O1 O3 50.80(13) 4_455 1_565
Ga1 O1 O3 104.34(11) 1_455 1_565
Nb O1 O3 104.34(11) 1_455 1_565
Nb O1 O3 135.99(12) . 1_565
Ga1 O1 O3 135.99(12) . 1_565
Ga1 O1 O3 21.48(14) 1_565 1_565
Nb O1 O3 21.48(14) 1_565 1_565
O2 O1 O3 63.46(18) 2_465 1_565
O2 O1 O3 167.0(4) 5_445 1_565
O2 O1 O3 56.11(17) 6_665 1_565
O3 O1 O3 131.4(3) 6_556 1_565
O3 O1 O3 46.4(2) 2_566 1_565
O3 O1 O3 84.5(2) 5_456 1_565
La O1 O3 115.6(3) 1_556 1_565
La O1 O3 73.70(15) 2_566 1_565
La O1 O3 70.97(16) 4_456 1_565
O3 O1 O3 115.55(14) 5 1_565
O3 O1 O3 121.80(13) 2_455 1_565
O3 O1 O3 29.2(2) 6_565 1_565
Ga2 O1 O3 75.63(12) 1_665 1_565
Ga2 O1 O3 152.5(3) . 1_565
Ga2 O1 O3 45.34(12) 1_565 1_565
O1 O1 O3 78.37(12) 2_565 1_565
O1 O1 O3 157.3(4) 2_455 1_565
O1 O1 O3 49.34(12) 2_465 1_565
O1 O1 O3 86.17(19) 1_556 1_565
O1 O1 O3 93.83(19) 1_554 1_565
Ga3 O1 O3 81.19(13) 2_465 1_565
Ga3 O1 O3 148.9(2) 4_446 1_565
Ga3 O1 O3 39.96(11) 1_666 1_565
O3 O1 O3 109.31(17) 5_556 1_565
O3 O1 O3 114.71(17) 2_456 1_565
O3 O1 O3 30.5(3) 6_566 1_565
O3 O1 O3 119.56(5) 4 1_565
O3 O1 O3 119.56(5) 3_455 1_565
Ga2 O1 O2 141.27(14) 2_566 6_554
La O1 O2 39.0(2) . 6_554
La O1 O2 104.0(4) 2_565 6_554
La O1 O2 75.2(3) 4_455 6_554
O2 O1 O2 53.5(2) 3_565 6_554
O2 O1 O2 13.3(3) . 6_554
O2 O1 O2 67.6(3) 4_455 6_554
O2 O1 O2 135.8(2) 3_566 6_554
O2 O1 O2 111.2(2) 1_556 6_554
O2 O1 O2 156.8(2) 4_456 6_554
O3 O1 O2 83.1(3) . 6_554
O3 O1 O2 134.4(4) 3_565 6_554
O3 O1 O2 71.7(3) 4_455 6_554
Ga2 O1 O2 38.73(14) 2_565 6_554
Ga3 O1 O2 82.60(18) 1_556 6_554
Ga3 O1 O2 113.42(17) 2_565 6_554
Ga3 O1 O2 145.8(3) 4_456 6_554
O2 O1 O2 62.8(3) 6 6_554
O2 O1 O2 117.6(3) 5_455 6_554
O2 O1 O2 117.6(3) 2_565 6_554
O3 O1 O2 48.5(2) 6 6_554
O3 O1 O2 100.0(4) 2_565 6_554
O3 O1 O2 50.6(3) 5_455 6_554
Ga3 O1 O2 17.87(15) . 6_554
Ga3 O1 O2 56.96(19) 2_564 6_554
Ga3 O1 O2 77.7(2) 4_455 6_554
Ga1 O1 O2 54.15(18) 1_455 6_554
Nb O1 O2 54.15(18) 1_455 6_554
Nb O1 O2 73.24(18) . 6_554
Ga1 O1 O2 73.24(18) . 6_554
Ga1 O1 O2 116.7(3) 1_565 6_554
Nb O1 O2 116.7(3) 1_565 6_554
O2 O1 O2 93.0(3) 2_465 6_554
O2 O1 O2 67.43(17) 5_445 6_554
O2 O1 O2 133.0(3) 6_665 6_554
O3 O1 O2 103.11(17) 6_556 6_554
O3 O1 O2 167.1(3) 2_566 6_554
O3 O1 O2 104.6(2) 5_456 6_554
La O1 O2 114.22(10) 1_556 6_554
La O1 O2 160.68(14) 2_566 6_554
La O1 O2 133.08(14) 4_456 6_554
O3 O1 O2 74.1(2) 5 6_554
O3 O1 O2 32.0(2) 2_455 6_554
O3 O1 O2 97.4(3) 6_565 6_554
Ga2 O1 O2 132.6(2) 1_665 6_554
Ga2 O1 O2 71.28(13) . 6_554
Ga2 O1 O2 112.96(19) 1_565 6_554
O1 O1 O2 98.8(4) 2_565 6_554
O1 O1 O2 33.5(3) 2_455 6_554
O1 O1 O2 82.5(3) 2_465 6_554
O1 O1 O2 141.27(15) 1_556 6_554
O1 O1 O2 38.73(14) 1_554 6_554
Ga3 O1 O2 90.23(17) 2_465 6_554
Ga3 O1 O2 84.36(12) 4_446 6_554
Ga3 O1 O2 147.0(3) 1_666 6_554
O3 O1 O2 119.40(17) 5_556 6_554
O3 O1 O2 88.1(2) 2_456 6_554
O3 O1 O2 149.1(2) 6_566 6_554
O3 O1 O2 94.4(2) 4 6_554
O3 O1 O2 60.0(2) 3_455 6_554
O3 O1 O2 125.4(3) 1_565 6_554
Ga2 O1 O2 141.26(14) 2_566 5_454
La O1 O2 104.0(4) . 5_454
La O1 O2 75.2(3) 2_565 5_454
La O1 O2 39.0(2) 4_455 5_454
O2 O1 O2 67.6(3) 3_565 5_454
O2 O1 O2 53.5(2) . 5_454
O2 O1 O2 13.3(3) 4_455 5_454
O2 O1 O2 156.8(2) 3_566 5_454
O2 O1 O2 135.8(2) 1_556 5_454
O2 O1 O2 111.2(2) 4_456 5_454
O3 O1 O2 134.4(4) . 5_454
O3 O1 O2 71.7(3) 3_565 5_454
O3 O1 O2 83.1(3) 4_455 5_454
Ga2 O1 O2 38.73(14) 2_565 5_454
Ga3 O1 O2 113.42(17) 1_556 5_454
Ga3 O1 O2 145.8(3) 2_565 5_454
Ga3 O1 O2 82.60(18) 4_456 5_454
O2 O1 O2 117.6(3) 6 5_454
O2 O1 O2 62.8(3) 5_455 5_454
O2 O1 O2 117.6(3) 2_565 5_454
O3 O1 O2 100.0(4) 6 5_454
O3 O1 O2 50.6(3) 2_565 5_454
O3 O1 O2 48.5(2) 5_455 5_454
Ga3 O1 O2 56.96(19) . 5_454
Ga3 O1 O2 77.7(2) 2_564 5_454
Ga3 O1 O2 17.87(15) 4_455 5_454
Ga1 O1 O2 73.24(18) 1_455 5_454
Nb O1 O2 73.24(18) 1_455 5_454
Nb O1 O2 116.7(3) . 5_454
Ga1 O1 O2 116.7(3) . 5_454
Ga1 O1 O2 54.15(18) 1_565 5_454
Nb O1 O2 54.15(18) 1_565 5_454
O2 O1 O2 67.43(17) 2_465 5_454
O2 O1 O2 133.0(3) 5_445 5_454
O2 O1 O2 93.0(3) 6_665 5_454
O3 O1 O2 167.1(3) 6_556 5_454
O3 O1 O2 104.6(2) 2_566 5_454
O3 O1 O2 103.11(17) 5_456 5_454
La O1 O2 160.68(14) 1_556 5_454
La O1 O2 133.08(14) 2_566 5_454
La O1 O2 114.22(10) 4_456 5_454
O3 O1 O2 97.4(3) 5 5_454
O3 O1 O2 74.1(2) 2_455 5_454
O3 O1 O2 32.00(19) 6_565 5_454
Ga2 O1 O2 113.0(2) 1_665 5_454
Ga2 O1 O2 132.6(2) . 5_454
Ga2 O1 O2 71.28(13) 1_565 5_454
O1 O1 O2 82.5(3) 2_565 5_454
O1 O1 O2 98.8(4) 2_455 5_454
O1 O1 O2 33.5(3) 2_465 5_454
O1 O1 O2 141.26(14) 1_556 5_454
O1 O1 O2 38.73(14) 1_554 5_454
Ga3 O1 O2 84.36(13) 2_465 5_454
Ga3 O1 O2 147.0(3) 4_446 5_454
Ga3 O1 O2 90.23(17) 1_666 5_454
O3 O1 O2 149.1(2) 5_556 5_454
O3 O1 O2 119.40(17) 2_456 5_454
O3 O1 O2 88.1(2) 6_566 5_454
O3 O1 O2 125.4(3) 4 5_454
O3 O1 O2 94.4(2) 3_455 5_454
O3 O1 O2 60.0(2) 1_565 5_454
O2 O1 O2 65.6(2) 6_554 5_454
Ga2 O1 O2 141.27(15) 2_566 2_564
La O1 O2 75.2(3) . 2_564
La O1 O2 39.0(2) 2_565 2_564
La O1 O2 104.0(4) 4_455 2_564
O2 O1 O2 13.3(3) 3_565 2_564
O2 O1 O2 67.6(3) . 2_564
O2 O1 O2 53.5(2) 4_455 2_564
O2 O1 O2 111.2(2) 3_566 2_564
O2 O1 O2 156.8(2) 1_556 2_564
O2 O1 O2 135.8(2) 4_456 2_564
O3 O1 O2 71.7(3) . 2_564
O3 O1 O2 83.1(3) 3_565 2_564
O3 O1 O2 134.4(4) 4_455 2_564
Ga2 O1 O2 38.74(14) 2_565 2_564
Ga3 O1 O2 145.8(3) 1_556 2_564
Ga3 O1 O2 82.60(18) 2_565 2_564
Ga3 O1 O2 113.42(17) 4_456 2_564
O2 O1 O2 117.6(3) 6 2_564
O2 O1 O2 117.6(3) 5_455 2_564
O2 O1 O2 62.8(3) 2_565 2_564
O3 O1 O2 50.6(3) 6 2_564
O3 O1 O2 48.5(2) 2_565 2_564
O3 O1 O2 100.0(4) 5_455 2_564
Ga3 O1 O2 77.7(2) . 2_564
Ga3 O1 O2 17.87(15) 2_564 2_564
Ga3 O1 O2 56.96(19) 4_455 2_564
Ga1 O1 O2 116.7(3) 1_455 2_564
Nb O1 O2 116.7(3) 1_455 2_564
Nb O1 O2 54.15(18) . 2_564
Ga1 O1 O2 54.15(18) . 2_564
Ga1 O1 O2 73.24(18) 1_565 2_564
Nb O1 O2 73.24(18) 1_565 2_564
O2 O1 O2 133.0(3) 2_465 2_564
O2 O1 O2 93.0(3) 5_445 2_564
O2 O1 O2 67.43(17) 6_665 2_564
O3 O1 O2 104.58(19) 6_556 2_564
O3 O1 O2 103.11(17) 2_566 2_564
O3 O1 O2 167.1(3) 5_456 2_564
La O1 O2 133.08(14) 1_556 2_564
La O1 O2 114.22(10) 2_566 2_564
La O1 O2 160.68(14) 4_456 2_564
O3 O1 O2 32.00(19) 5 2_564
O3 O1 O2 97.4(3) 2_455 2_564
O3 O1 O2 74.1(2) 6_565 2_564
Ga2 O1 O2 71.28(13) 1_665 2_564
Ga2 O1 O2 113.0(2) . 2_564
Ga2 O1 O2 132.6(2) 1_565 2_564
O1 O1 O2 33.5(3) 2_565 2_564
O1 O1 O2 82.5(3) 2_455 2_564
O1 O1 O2 98.8(4) 2_465 2_564
O1 O1 O2 141.27(14) 1_556 2_564
O1 O1 O2 38.74(14) 1_554 2_564
Ga3 O1 O2 147.0(3) 2_465 2_564
Ga3 O1 O2 90.23(17) 4_446 2_564
Ga3 O1 O2 84.36(13) 1_666 2_564
O3 O1 O2 88.1(2) 5_556 2_564
O3 O1 O2 149.1(2) 2_456 2_564
O3 O1 O2 119.40(18) 6_566 2_564
O3 O1 O2 60.0(2) 4 2_564
O3 O1 O2 125.4(3) 3_455 2_564
O3 O1 O2 94.4(2) 1_565 2_564
O2 O1 O2 65.6(2) 6_554 2_564
O2 O1 O2 65.6(2) 5_454 2_564
Ga2 O1 O3 146.38(14) 2_566 1_554
La O1 O3 47.6(3) . 1_554
La O1 O3 67.5(3) 2_565 1_554
La O1 O3 102.2(4) 4_455 1_554
O2 O1 O3 15.8(3) 3_565 1_554
O2 O1 O3 46.6(3) . 1_554
O2 O1 O3 64.5(3) 4_455 1_554
O2 O1 O3 117.2(2) 3_566 1_554
O2 O1 O3 135.8(3) 1_556 1_554
O2 O1 O3 163.2(3) 4_456 1_554
O3 O1 O3 62.9(2) . 1_554
O3 O1 O3 111.7(3) 3_565 1_554
O3 O1 O3 111.7(3) 4_455 1_554
Ga2 O1 O3 33.62(14) 2_565 1_554
Ga3 O1 O3 116.7(2) 1_556 1_554
Ga3 O1 O3 86.54(17) 2_565 1_554
Ga3 O1 O3 141.3(3) 4_456 1_554
O2 O1 O3 89.1(3) 6 1_554
O2 O1 O3 134.4(4) 5_455 1_554
O2 O1 O3 79.4(3) 2_565 1_554
O3 O1 O3 29.0(3) 6 1_554
O3 O1 O3 75.5(2) 2_565 1_554
O3 O1 O3 85.7(3) 5_455 1_554
Ga3 O1 O3 55.76(19) . 1_554
Ga3 O1 O3 16.97(12) 2_564 1_554
Ga3 O1 O3 72.1(2) 4_455 1_554
Ga1 O1 O3 94.1(2) 1_455 1_554
Nb O1 O3 94.1(2) 1_455 1_554
Nb O1 O3 46.15(15) . 1_554
Ga1 O1 O3 46.15(15) . 1_554
Ga1 O1 O3 99.7(2) 1_565 1_554
Nb O1 O3 99.7(2) 1_565 1_554
O2 O1 O3 128.2(3) 2_465 1_554
O2 O1 O3 70.9(2) 5_445 1_554
O2 O1 O3 94.8(2) 6_665 1_554
O3 O1 O3 95.3(2) 6_556 1_554
O3 O1 O3 130.6(2) 2_566 1_554
O3 O1 O3 143.9(2) 5_456 1_554
La O1 O3 121.29(13) 1_556 1_554
La O1 O3 132.25(10) 2_566 1_554
La O1 O3 169.32(15) 4_456 1_554
O3 O1 O3 36.3(2) 5 1_554
O3 O1 O3 71.7(2) 2_455 1_554
O3 O1 O3 93.4(3) 6_565 1_554
Ga2 O1 O3 92.91(15) 1_665 1_554
Ga2 O1 O3 87.59(18) . 1_554
Ga2 O1 O3 141.9(3) 1_565 1_554
O1 O1 O3 60.0(3) 2_565 1_554
O1 O1 O3 53.7(3) 2_455 1_554
O1 O1 O3 103.2(4) 2_465 1_554
O1 O1 O3 146.38(14) 1_556 1_554
O1 O1 O3 33.62(14) 1_554 1_554
Ga3 O1 O3 130.0(2) 2_465 1_554
Ga3 O1 O3 76.13(16) 4_446 1_554
Ga3 O1 O3 113.04(18) 1_666 1_554
O3 O1 O3 93.1(2) 5_556 1_554
O3 O1 O3 120.3(3) 2_456 1_554
O3 O1 O3 147.71(18) 6_566 1_554
O3 O1 O3 62.83(15) 4 1_554
O3 O1 O3 97.6(2) 3_455 1_554
O3 O1 O3 119.4(3) 1_565 1_554
O2 O1 O3 39.99(19) 6_554 1_554
O2 O1 O3 72.0(2) 5_454 1_554
O2 O1 O3 29.09(18) 2_564 1_554
Ga2 O1 O3 146.38(14) 2_566 4_454
La O1 O3 67.5(3) . 4_454
La O1 O3 102.2(4) 2_565 4_454
La O1 O3 47.6(3) 4_455 4_454
O2 O1 O3 64.5(3) 3_565 4_454
O2 O1 O3 15.8(3) . 4_454
O2 O1 O3 46.6(3) 4_455 4_454
O2 O1 O3 163.2(3) 3_566 4_454
O2 O1 O3 117.2(2) 1_556 4_454
O2 O1 O3 135.8(3) 4_456 4_454
O3 O1 O3 111.7(3) . 4_454
O3 O1 O3 111.7(3) 3_565 4_454
O3 O1 O3 62.9(2) 4_455 4_454
Ga2 O1 O3 33.62(14) 2_565 4_454
Ga3 O1 O3 86.54(17) 1_556 4_454
Ga3 O1 O3 141.3(3) 2_565 4_454
Ga3 O1 O3 116.7(2) 4_456 4_454
O2 O1 O3 79.4(3) 6 4_454
O2 O1 O3 89.1(3) 5_455 4_454
O2 O1 O3 134.4(4) 2_565 4_454
O3 O1 O3 75.5(2) 6 4_454
O3 O1 O3 85.7(3) 2_565 4_454
O3 O1 O3 29.0(3) 5_455 4_454
Ga3 O1 O3 16.97(12) . 4_454
Ga3 O1 O3 72.1(2) 2_564 4_454
Ga3 O1 O3 55.76(19) 4_455 4_454
Ga1 O1 O3 46.15(15) 1_455 4_454
Nb O1 O3 46.15(15) 1_455 4_454
Nb O1 O3 99.7(2) . 4_454
Ga1 O1 O3 99.7(2) . 4_454
Ga1 O1 O3 94.1(2) 1_565 4_454
Nb O1 O3 94.1(2) 1_565 4_454
O2 O1 O3 70.9(2) 2_465 4_454
O2 O1 O3 94.8(2) 5_445 4_454
O2 O1 O3 128.2(3) 6_665 4_454
O3 O1 O3 130.6(2) 6_556 4_454
O3 O1 O3 143.9(2) 2_566 4_454
O3 O1 O3 95.3(2) 5_456 4_454
La O1 O3 132.25(10) 1_556 4_454
La O1 O3 169.32(15) 2_566 4_454
La O1 O3 121.29(13) 4_456 4_454
O3 O1 O3 93.4(3) 5 4_454
O3 O1 O3 36.3(2) 2_455 4_454
O3 O1 O3 71.7(2) 6_565 4_454
Ga2 O1 O3 141.9(3) 1_665 4_454
Ga2 O1 O3 92.91(15) . 4_454
Ga2 O1 O3 87.59(19) 1_565 4_454
O1 O1 O3 103.2(4) 2_565 4_454
O1 O1 O3 60.0(3) 2_455 4_454
O1 O1 O3 53.7(3) 2_465 4_454
O1 O1 O3 146.38(14) 1_556 4_454
O1 O1 O3 33.62(14) 1_554 4_454
Ga3 O1 O3 76.13(16) 2_465 4_454
Ga3 O1 O3 113.04(18) 4_446 4_454
Ga3 O1 O3 130.0(2) 1_666 4_454
O3 O1 O3 147.71(18) 5_556 4_454
O3 O1 O3 93.1(2) 2_456 4_454
O3 O1 O3 120.3(3) 6_566 4_454
O3 O1 O3 119.4(3) 4 4_454
O3 O1 O3 62.83(15) 3_455 4_454
O3 O1 O3 97.6(2) 1_565 4_454
O2 O1 O3 29.10(18) 6_554 4_454
O2 O1 O3 39.99(19) 5_454 4_454
O2 O1 O3 72.0(2) 2_564 4_454
O3 O1 O3 57.3(2) 1_554 4_454
Ga2 O1 O3 146.38(14) 2_566 3_564
La O1 O3 102.2(4) . 3_564
La O1 O3 47.6(3) 2_565 3_564
La O1 O3 67.5(3) 4_455 3_564
O2 O1 O3 46.6(3) 3_565 3_564
O2 O1 O3 64.5(3) . 3_564
O2 O1 O3 15.8(3) 4_455 3_564
O2 O1 O3 135.8(3) 3_566 3_564
O2 O1 O3 163.2(3) 1_556 3_564
O2 O1 O3 117.2(2) 4_456 3_564
O3 O1 O3 111.7(3) . 3_564
O3 O1 O3 62.9(2) 3_565 3_564
O3 O1 O3 111.7(3) 4_455 3_564
Ga2 O1 O3 33.62(14) 2_565 3_564
Ga3 O1 O3 141.3(3) 1_556 3_564
Ga3 O1 O3 116.7(2) 2_565 3_564
Ga3 O1 O3 86.54(17) 4_456 3_564
O2 O1 O3 134.4(4) 6 3_564
O2 O1 O3 79.4(3) 5_455 3_564
O2 O1 O3 89.1(3) 2_565 3_564
O3 O1 O3 85.7(3) 6 3_564
O3 O1 O3 29.0(3) 2_565 3_564
O3 O1 O3 75.5(2) 5_455 3_564
Ga3 O1 O3 72.1(2) . 3_564
Ga3 O1 O3 55.76(19) 2_564 3_564
Ga3 O1 O3 16.97(12) 4_455 3_564
Ga1 O1 O3 99.7(2) 1_455 3_564
Nb O1 O3 99.7(2) 1_455 3_564
Nb O1 O3 94.1(2) . 3_564
Ga1 O1 O3 94.1(2) . 3_564
Ga1 O1 O3 46.15(15) 1_565 3_564
Nb O1 O3 46.15(15) 1_565 3_564
O2 O1 O3 94.8(2) 2_465 3_564
O2 O1 O3 128.2(3) 5_445 3_564
O2 O1 O3 70.9(2) 6_665 3_564
O3 O1 O3 143.9(2) 6_556 3_564
O3 O1 O3 95.3(2) 2_566 3_564
O3 O1 O3 130.6(2) 5_456 3_564
La O1 O3 169.32(15) 1_556 3_564
La O1 O3 121.29(13) 2_566 3_564
La O1 O3 132.25(10) 4_456 3_564
O3 O1 O3 71.7(2) 5 3_564
O3 O1 O3 93.4(3) 2_455 3_564
O3 O1 O3 36.3(2) 6_565 3_564
Ga2 O1 O3 87.59(18) 1_665 3_564
Ga2 O1 O3 141.9(3) . 3_564
Ga2 O1 O3 92.91(15) 1_565 3_564
O1 O1 O3 53.7(3) 2_565 3_564
O1 O1 O3 103.2(4) 2_455 3_564
O1 O1 O3 60.0(3) 2_465 3_564
O1 O1 O3 146.38(14) 1_556 3_564
O1 O1 O3 33.62(14) 1_554 3_564
Ga3 O1 O3 113.04(18) 2_465 3_564
Ga3 O1 O3 130.0(2) 4_446 3_564
Ga3 O1 O3 76.13(16) 1_666 3_564
O3 O1 O3 120.3(3) 5_556 3_564
O3 O1 O3 147.71(18) 2_456 3_564
O3 O1 O3 93.1(2) 6_566 3_564
O3 O1 O3 97.6(2) 4 3_564
O3 O1 O3 119.4(3) 3_455 3_564
O3 O1 O3 62.83(15) 1_565 3_564
O2 O1 O3 72.0(2) 6_554 3_564
O2 O1 O3 29.09(18) 5_454 3_564
O2 O1 O3 39.99(19) 2_564 3_564
O3 O1 O3 57.3(2) 1_554 3_564
O3 O1 O3 57.3(2) 4_454 3_564
Ga2 O1 O1 54.1(3) 2_566 2_566
La O1 O1 114.86(14) . 2_566
La O1 O1 56.99(8) 2_565 2_566
La O1 O1 136.0(2) 4_455 2_566
O2 O1 O1 97.5(2) 3_565 2_566
O2 O1 O1 154.3(4) . 2_566
O2 O1 O1 115.6(4) 4_455 2_566
O2 O1 O1 33.2(3) 3_566 2_566
O2 O1 O1 83.7(5) 1_556 2_566
O2 O1 O1 56.5(4) 4_456 2_566
O3 O1 O1 66.7(2) . 2_566
O3 O1 O1 57.4(3) 3_565 2_566
O3 O1 O1 137.3(5) 4_455 2_566
Ga2 O1 O1 125.9(3) 2_565 2_566
Ga3 O1 O1 114.2(5) 1_556 2_566
Ga3 O1 O1 36.94(9) 2_565 2_566
Ga3 O1 O1 64.30(18) 4_456 2_566
O2 O1 O1 117.1(4) 6 2_566
O2 O1 O1 94.1(3) 5_455 2_566
O2 O1 O1 28.4(2) 2_565 2_566
O3 O1 O1 97.57(13) 6 2_566
O3 O1 O1 75.75(19) 2_565 2_566
O3 O1 O1 163.3(3) 5_455 2_566
Ga3 O1 O1 163.1(3) . 2_566
Ga3 O1 O1 91.30(11) 2_564 2_566
Ga3 O1 O1 107.76(11) 4_455 2_566
Ga1 O1 O1 154.6(4) 1_455 2_566
Nb O1 O1 154.6(4) 1_455 2_566
Nb O1 O1 73.011(11) . 2_566
Ga1 O1 O1 73.011(11) . 2_566
Ga1 O1 O1 73.011(11) 1_565 2_566
Nb O1 O1 73.011(11) 1_565 2_566
O2 O1 O1 121.7(3) 2_465 2_566
O2 O1 O1 93.1(2) 5_445 2_566
O2 O1 O1 32.72(14) 6_665 2_566
O3 O1 O1 60.2(2) 6_556 2_566
O3 O1 O1 33.39(16) 2_566 2_566
O3 O1 O1 103.9(4) 5_456 2_566
La O1 O1 66.8(3) 1_556 2_566
La O1 O1 26.02(16) 2_566 2_566
La O1 O1 76.3(3) 4_456 2_566
O3 O1 O1 71.94(13) 5 2_566
O3 O1 O1 160.0(2) 2_455 2_566
O3 O1 O1 96.70(11) 6_565 2_566
Ga2 O1 O1 17.28(8) 1_665 2_566
Ga2 O1 O1 101.4(3) . 2_566
Ga2 O1 O1 101.4(3) 1_565 2_566
O1 O1 O1 56.12(9) 2_565 2_566
O1 O1 O1 125.66(17) 2_455 2_566
O1 O1 O1 125.66(17) 2_465 2_566
O1 O1 O1 54.1(3) 1_556 2_566
O1 O1 O1 125.9(3) 1_554 2_566
Ga3 O1 O1 121.8(4) 2_465 2_566
Ga3 O1 O1 72.87(14) 4_446 2_566
Ga3 O1 O1 37.73(2) 1_666 2_566
O3 O1 O1 32.87(13) 5_556 2_566
O3 O1 O1 107.6(4) 2_456 2_566
O3 O1 O1 63.3(2) 6_566 2_566
O3 O1 O1 51.55(14) 4 2_566
O3 O1 O1 137.5(4) 3_455 2_566
O3 O1 O1 76.52(13) 1_565 2_566
O2 O1 O1 145.4(2) 6_554 2_566
O2 O1 O1 125.3(2) 5_454 2_566
O2 O1 O1 88.28(19) 2_564 2_566
O3 O1 O1 107.72(19) 1_554 2_566
O3 O1 O1 159.1(3) 4_454 2_566
O3 O1 O1 103.0(2) 3_564 2_566
Ga2 O1 O1 54.1(3) 2_566 2_456
La O1 O1 56.99(8) . 2_456
La O1 O1 136.0(2) 2_565 2_456
La O1 O1 114.86(14) 4_455 2_456
O2 O1 O1 115.6(4) 3_565 2_456
O2 O1 O1 97.5(2) . 2_456
O2 O1 O1 154.3(4) 4_455 2_456
O2 O1 O1 56.5(4) 3_566 2_456
O2 O1 O1 33.2(3) 1_556 2_456
O2 O1 O1 83.7(5) 4_456 2_456
O3 O1 O1 57.4(3) . 2_456
O3 O1 O1 137.3(5) 3_565 2_456
O3 O1 O1 66.7(2) 4_455 2_456
Ga2 O1 O1 125.9(3) 2_565 2_456
Ga3 O1 O1 36.94(9) 1_556 2_456
Ga3 O1 O1 64.30(18) 2_565 2_456
Ga3 O1 O1 114.2(5) 4_456 2_456
O2 O1 O1 28.4(2) 6 2_456
O2 O1 O1 117.1(4) 5_455 2_456
O2 O1 O1 94.1(3) 2_565 2_456
O3 O1 O1 75.75(19) 6 2_456
O3 O1 O1 163.3(3) 2_565 2_456
O3 O1 O1 97.57(13) 5_455 2_456
Ga3 O1 O1 91.30(11) . 2_456
Ga3 O1 O1 107.76(11) 2_564 2_456
Ga3 O1 O1 163.1(3) 4_455 2_456
Ga1 O1 O1 73.011(11) 1_455 2_456
Nb O1 O1 73.011(11) 1_455 2_456
Nb O1 O1 73.011(11) . 2_456
Ga1 O1 O1 73.011(11) . 2_456
Ga1 O1 O1 154.6(4) 1_565 2_456
Nb O1 O1 154.6(4) 1_565 2_456
O2 O1 O1 93.1(2) 2_465 2_456
O2 O1 O1 32.72(14) 5_445 2_456
O2 O1 O1 121.7(3) 6_665 2_456
O3 O1 O1 33.39(16) 6_556 2_456
O3 O1 O1 103.9(4) 2_566 2_456
O3 O1 O1 60.2(2) 5_456 2_456
La O1 O1 26.02(16) 1_556 2_456
La O1 O1 76.3(3) 2_566 2_456
La O1 O1 66.8(3) 4_456 2_456
O3 O1 O1 96.70(11) 5 2_456
O3 O1 O1 71.94(13) 2_455 2_456
O3 O1 O1 160.0(3) 6_565 2_456
Ga2 O1 O1 101.4(3) 1_665 2_456
Ga2 O1 O1 17.28(8) . 2_456
Ga2 O1 O1 101.4(3) 1_565 2_456
O1 O1 O1 125.66(17) 2_565 2_456
O1 O1 O1 56.12(8) 2_455 2_456
O1 O1 O1 125.66(17) 2_465 2_456
O1 O1 O1 54.1(3) 1_556 2_456
O1 O1 O1 125.9(3) 1_554 2_456
Ga3 O1 O1 72.87(14) 2_465 2_456
Ga3 O1 O1 37.73(2) 4_446 2_456
Ga3 O1 O1 121.8(4) 1_666 2_456
O3 O1 O1 63.3(2) 5_556 2_456
O3 O1 O1 32.87(13) 2_456 2_456
O3 O1 O1 107.6(4) 6_566 2_456
O3 O1 O1 76.52(13) 4 2_456
O3 O1 O1 51.55(13) 3_455 2_456
O3 O1 O1 137.5(4) 1_565 2_456
O2 O1 O1 88.28(19) 6_554 2_456
O2 O1 O1 145.4(2) 5_454 2_456
O2 O1 O1 125.3(2) 2_564 2_456
O3 O1 O1 103.0(2) 1_554 2_456
O3 O1 O1 107.72(19) 4_454 2_456
O3 O1 O1 159.1(3) 3_564 2_456
O1 O1 O1 89.2(4) 2_566 2_456
Ga2 O1 O1 54.1(3) 2_566 2_466
La O1 O1 136.0(2) . 2_466
La O1 O1 114.86(14) 2_565 2_466
La O1 O1 56.99(8) 4_455 2_466
O2 O1 O1 154.3(4) 3_565 2_466
O2 O1 O1 115.6(4) . 2_466
O2 O1 O1 97.5(2) 4_455 2_466
O2 O1 O1 83.6(5) 3_566 2_466
O2 O1 O1 56.5(4) 1_556 2_466
O2 O1 O1 33.2(3) 4_456 2_466
O3 O1 O1 137.3(5) . 2_466
O3 O1 O1 66.7(2) 3_565 2_466
O3 O1 O1 57.4(3) 4_455 2_466
Ga2 O1 O1 125.9(3) 2_565 2_466
Ga3 O1 O1 64.30(18) 1_556 2_466
Ga3 O1 O1 114.2(5) 2_565 2_466
Ga3 O1 O1 36.94(9) 4_456 2_466
O2 O1 O1 94.1(3) 6 2_466
O2 O1 O1 28.4(2) 5_455 2_466
O2 O1 O1 117.1(4) 2_565 2_466
O3 O1 O1 163.3(3) 6 2_466
O3 O1 O1 97.57(13) 2_565 2_466
O3 O1 O1 75.75(19) 5_455 2_466
Ga3 O1 O1 107.76(11) . 2_466
Ga3 O1 O1 163.1(3) 2_564 2_466
Ga3 O1 O1 91.30(11) 4_455 2_466
Ga1 O1 O1 73.011(11) 1_455 2_466
Nb O1 O1 73.011(11) 1_455 2_466
Nb O1 O1 154.6(4) . 2_466
Ga1 O1 O1 154.6(4) . 2_466
Ga1 O1 O1 73.011(11) 1_565 2_466
Nb O1 O1 73.011(11) 1_565 2_466
O2 O1 O1 32.72(14) 2_465 2_466
O2 O1 O1 121.7(3) 5_445 2_466
O2 O1 O1 93.1(2) 6_665 2_466
O3 O1 O1 103.9(4) 6_556 2_466
O3 O1 O1 60.2(2) 2_566 2_466
O3 O1 O1 33.39(16) 5_456 2_466
La O1 O1 76.3(3) 1_556 2_466
La O1 O1 66.8(3) 2_566 2_466
La O1 O1 26.02(16) 4_456 2_466
O3 O1 O1 160.0(3) 5 2_466
O3 O1 O1 96.70(11) 2_455 2_466
O3 O1 O1 71.94(13) 6_565 2_466
Ga2 O1 O1 101.4(3) 1_665 2_466
Ga2 O1 O1 101.4(3) . 2_466
Ga2 O1 O1 17.28(8) 1_565 2_466
O1 O1 O1 125.66(17) 2_565 2_466
O1 O1 O1 125.66(17) 2_455 2_466
O1 O1 O1 56.12(8) 2_465 2_466
O1 O1 O1 54.1(3) 1_556 2_466
O1 O1 O1 125.9(3) 1_554 2_466
Ga3 O1 O1 37.72(2) 2_465 2_466
Ga3 O1 O1 121.8(4) 4_446 2_466
Ga3 O1 O1 72.87(14) 1_666 2_466
O3 O1 O1 107.6(4) 5_556 2_466
O3 O1 O1 63.3(2) 2_456 2_466
O3 O1 O1 32.87(13) 6_566 2_466
O3 O1 O1 137.5(4) 4 2_466
O3 O1 O1 76.52(13) 3_455 2_466
O3 O1 O1 51.55(13) 1_565 2_466
O2 O1 O1 125.3(2) 6_554 2_466
O2 O1 O1 88.28(19) 5_454 2_466
O2 O1 O1 145.4(2) 2_564 2_466
O3 O1 O1 159.1(3) 1_554 2_466
O3 O1 O1 103.0(2) 4_454 2_466
O3 O1 O1 107.72(19) 3_564 2_466
O1 O1 O1 89.2(4) 2_566 2_466
O1 O1 O1 89.2(4) 2_456 2_466
Ga2 O1 O3 86.48(18) 2_566 3
La O1 O3 41.85(16) . 3
La O1 O3 86.13(11) 2_565 3
La O1 O3 151.0(3) 4_455 3
O2 O1 O3 66.1(3) 3_565 3
O2 O1 O3 90.5(4) . 3
O2 O1 O3 123.4(4) 4_455 3
O2 O1 O3 61.2(3) 3_566 3
O2 O1 O3 84.7(4) 1_556 3
O2 O1 O3 114.6(4) 4_456 3
O3 O1 O3 6.4(3) . 3
O3 O1 O3 124.9(4) 3_565 3
O3 O1 O3 113.7(3) 4_455 3
Ga2 O1 O3 93.53(18) 2_565 3
Ga3 O1 O3 89.50(14) 1_556 3
Ga3 O1 O3 36.64(14) 2_565 3
Ga3 O1 O3 136.4(3) 4_456 3
O2 O1 O3 64.5(3) 6 3
O2 O1 O3 164.2(4) 5_455 3
O2 O1 O3 55.4(3) 2_565 3
O3 O1 O3 32.8(3) 6 3
O3 O1 O3 112.41(13) 2_565 3
O3 O1 O3 123.24(14) 5_455 3
Ga3 O1 O3 93.46(16) . 3
Ga3 O1 O3 56.45(11) 2_564 3
Ga3 O1 O3 128.8(2) 4_455 3
Ga1 O1 O3 108.77(13) 1_455 3
Nb O1 O3 108.77(13) 1_455 3
Nb O1 O3 18.10(10) . 3
Ga1 O1 O3 18.10(10) . 3
Ga1 O1 O3 131.47(13) 1_565 3
Nb O1 O3 131.47(13) 1_565 3
O2 O1 O3 146.44(19) 2_465 3
O2 O1 O3 28.89(15) 5_445 3
O2 O1 O3 90.84(17) 6_665 3
O3 O1 O3 35.3(2) 6_556 3
O3 O1 O3 106.02(16) 2_566 3
O3 O1 O3 115.16(18) 5_456 3
La O1 O3 62.99(12) 1_556 3
La O1 O3 84.28(17) 2_566 3
La O1 O3 113.2(2) 4_456 3
O3 O1 O3 41.7(2) 5 3
O3 O1 O3 90.4(2) 2_455 3
O3 O1 O3 144.9(2) 6_565 3
Ga2 O1 O3 71.40(13) 1_665 3
Ga2 O1 O3 49.67(11) . 3
Ga2 O1 O3 155.1(3) 1_565 3
O1 O1 O3 74.04(11) 2_565 3
O1 O1 O3 53.14(15) 2_455 3
O1 O1 O3 159.8(4) 2_465 3
O1 O1 O3 86.48(18) 1_556 3
O1 O1 O3 93.52(18) 1_554 3
Ga3 O1 O3 126.38(16) 2_465 3
Ga3 O1 O3 18.11(10) 4_446 3
Ga3 O1 O3 107.38(15) 1_666 3
O3 O1 O3 42.2(3) 5_556 3
O3 O1 O3 87.05(19) 2_456 3
O3 O1 O3 133.5(3) 6_566 3
O3 O1 O3 27.61(14) 4 3
O3 O1 O3 92.09(14) 3_455 3
O3 O1 O3 146.86(17) 1_565 3
O2 O1 O3 77.3(2) 6_554 3
O2 O1 O3 132.1(3) 5_454 3
O2 O1 O3 72.1(2) 2_564 3
O3 O1 O3 60.09(11) 1_554 3
O3 O1 O3 106.2(3) 4_454 3
O3 O1 O3 111.9(2) 3_564 3
O1 O1 O3 73.02(14) 2_566 3
O1 O1 O3 55.07(10) 2_456 3
O1 O1 O3 139.2(4) 2_466 3
Ga2 O1 O3 86.48(18) 2_566 4_565
La O1 O3 151.0(3) . 4_565
La O1 O3 41.85(16) 2_565 4_565
La O1 O3 86.13(11) 4_455 4_565
O2 O1 O3 90.5(4) 3_565 4_565
O2 O1 O3 123.4(4) . 4_565
O2 O1 O3 66.1(3) 4_455 4_565
O2 O1 O3 84.7(4) 3_566 4_565
O2 O1 O3 114.6(4) 1_556 4_565
O2 O1 O3 61.2(3) 4_456 4_565
O3 O1 O3 113.7(3) . 4_565
O3 O1 O3 6.4(3) 3_565 4_565
O3 O1 O3 124.9(4) 4_455 4_565
Ga2 O1 O3 93.52(18) 2_565 4_565
Ga3 O1 O3 136.4(3) 1_556 4_565
Ga3 O1 O3 89.50(14) 2_565 4_565
Ga3 O1 O3 36.64(14) 4_456 4_565
O2 O1 O3 164.2(4) 6 4_565
O2 O1 O3 55.4(3) 5_455 4_565
O2 O1 O3 64.5(3) 2_565 4_565
O3 O1 O3 123.24(14) 6 4_565
O3 O1 O3 32.8(3) 2_565 4_565
O3 O1 O3 112.41(13) 5_455 4_565
Ga3 O1 O3 128.8(2) . 4_565
Ga3 O1 O3 93.46(16) 2_564 4_565
Ga3 O1 O3 56.45(11) 4_455 4_565
Ga1 O1 O3 131.47(13) 1_455 4_565
Nb O1 O3 131.47(13) 1_455 4_565
Nb O1 O3 108.77(13) . 4_565
Ga1 O1 O3 108.77(13) . 4_565
Ga1 O1 O3 18.10(10) 1_565 4_565
Nb O1 O3 18.10(10) 1_565 4_565
O2 O1 O3 90.84(17) 2_465 4_565
O2 O1 O3 146.44(19) 5_445 4_565
O2 O1 O3 28.89(15) 6_665 4_565
O3 O1 O3 115.16(18) 6_556 4_565
O3 O1 O3 35.3(2) 2_566 4_565
O3 O1 O3 106.02(16) 5_456 4_565
La O1 O3 113.2(2) 1_556 4_565
La O1 O3 62.99(12) 2_566 4_565
La O1 O3 84.28(17) 4_456 4_565
O3 O1 O3 90.4(2) 5 4_565
O3 O1 O3 144.9(2) 2_455 4_565
O3 O1 O3 41.7(2) 6_565 4_565
Ga2 O1 O3 49.67(11) 1_665 4_565
Ga2 O1 O3 155.1(3) . 4_565
Ga2 O1 O3 71.40(13) 1_565 4_565
O1 O1 O3 53.14(15) 2_565 4_565
O1 O1 O3 159.8(4) 2_455 4_565
O1 O1 O3 74.04(11) 2_465 4_565
O1 O1 O3 86.48(18) 1_556 4_565
O1 O1 O3 93.52(18) 1_554 4_565
Ga3 O1 O3 107.38(15) 2_465 4_565
Ga3 O1 O3 126.38(16) 4_446 4_565
Ga3 O1 O3 18.11(10) 1_666 4_565
O3 O1 O3 87.05(19) 5_556 4_565
O3 O1 O3 133.5(3) 2_456 4_565
O3 O1 O3 42.2(3) 6_566 4_565
O3 O1 O3 92.09(14) 4 4_565
O3 O1 O3 146.86(16) 3_455 4_565
O3 O1 O3 27.61(14) 1_565 4_565
O2 O1 O3 132.1(3) 6_554 4_565
O2 O1 O3 72.1(2) 5_454 4_565
O2 O1 O3 77.3(2) 2_564 4_565
O3 O1 O3 106.2(3) 1_554 4_565
O3 O1 O3 111.9(2) 4_454 4_565
O3 O1 O3 60.09(11) 3_564 4_565
O1 O1 O3 55.07(10) 2_566 4_565
O1 O1 O3 139.2(4) 2_456 4_565
O1 O1 O3 73.02(14) 2_466 4_565
O3 O1 O3 119.63(4) 3 4_565
Ga2 O1 O3 86.47(18) 2_566 1_455
La O1 O3 86.13(11) . 1_455
La O1 O3 151.0(3) 2_565 1_455
La O1 O3 41.85(16) 4_455 1_455
O2 O1 O3 123.4(4) 3_565 1_455
O2 O1 O3 66.1(3) . 1_455
O2 O1 O3 90.5(4) 4_455 1_455
O2 O1 O3 114.6(4) 3_566 1_455
O2 O1 O3 61.2(3) 1_556 1_455
O2 O1 O3 84.7(4) 4_456 1_455
O3 O1 O3 124.9(4) . 1_455
O3 O1 O3 113.7(3) 3_565 1_455
O3 O1 O3 6.4(3) 4_455 1_455
Ga2 O1 O3 93.52(18) 2_565 1_455
Ga3 O1 O3 36.64(14) 1_556 1_455
Ga3 O1 O3 136.4(3) 2_565 1_455
Ga3 O1 O3 89.50(14) 4_456 1_455
O2 O1 O3 55.4(3) 6 1_455
O2 O1 O3 64.5(3) 5_455 1_455
O2 O1 O3 164.2(4) 2_565 1_455
O3 O1 O3 112.41(13) 6 1_455
O3 O1 O3 123.24(14) 2_565 1_455
O3 O1 O3 32.8(3) 5_455 1_455
Ga3 O1 O3 56.45(11) . 1_455
Ga3 O1 O3 128.8(2) 2_564 1_455
Ga3 O1 O3 93.47(16) 4_455 1_455
Ga1 O1 O3 18.10(10) 1_455 1_455
Nb O1 O3 18.10(10) 1_455 1_455
Nb O1 O3 131.47(13) . 1_455
Ga1 O1 O3 131.47(13) . 1_455
Ga1 O1 O3 108.77(13) 1_565 1_455
Nb O1 O3 108.77(13) 1_565 1_455
O2 O1 O3 28.89(15) 2_465 1_455
O2 O1 O3 90.84(17) 5_445 1_455
O2 O1 O3 146.44(19) 6_665 1_455
O3 O1 O3 106.02(16) 6_556 1_455
O3 O1 O3 115.16(18) 2_566 1_455
O3 O1 O3 35.3(2) 5_456 1_455
La O1 O3 84.28(17) 1_556 1_455
La O1 O3 113.2(2) 2_566 1_455
La O1 O3 62.99(12) 4_456 1_455
O3 O1 O3 144.9(2) 5 1_455
O3 O1 O3 41.7(2) 2_455 1_455
O3 O1 O3 90.4(2) 6_565 1_455
Ga2 O1 O3 155.1(3) 1_665 1_455
Ga2 O1 O3 71.40(13) . 1_455
Ga2 O1 O3 49.67(11) 1_565 1_455
O1 O1 O3 159.8(4) 2_565 1_455
O1 O1 O3 74.04(11) 2_455 1_455
O1 O1 O3 53.14(15) 2_465 1_455
O1 O1 O3 86.48(18) 1_556 1_455
O1 O1 O3 93.52(18) 1_554 1_455
Ga3 O1 O3 18.11(10) 2_465 1_455
Ga3 O1 O3 107.38(15) 4_446 1_455
Ga3 O1 O3 126.38(16) 1_666 1_455
O3 O1 O3 133.5(3) 5_556 1_455
O3 O1 O3 42.2(3) 2_456 1_455
O3 O1 O3 87.05(19) 6_566 1_455
O3 O1 O3 146.86(16) 4 1_455
O3 O1 O3 27.61(14) 3_455 1_455
O3 O1 O3 92.09(14) 1_565 1_455
O2 O1 O3 72.1(2) 6_554 1_455
O2 O1 O3 77.3(2) 5_454 1_455
O2 O1 O3 132.1(3) 2_564 1_455
O3 O1 O3 111.9(2) 1_554 1_455
O3 O1 O3 60.09(11) 4_454 1_455
O3 O1 O3 106.2(3) 3_564 1_455
O1 O1 O3 139.2(4) 2_566 1_455
O1 O1 O3 73.03(14) 2_456 1_455
O1 O1 O3 55.07(10) 2_466 1_455
O3 O1 O3 119.63(4) 3 1_455
O3 O1 O3 119.63(4) 4_565 1_455
Ga2 O1 La 98.40(15) 2_566 4
La O1 La 81.39(9) . 4
La O1 La 36.79(3) 2_565 4
La O1 La 143.3(4) 4_455 4
O2 O1 La 49.21(19) 3_565 4
O2 O1 La 105.0(4) . 4
O2 O1 La 91.7(4) 4_455 4
O2 O1 La 67.9(2) 3_566 4
O2 O1 La 118.9(4) 1_556 4
O2 O1 La 105.5(3) 4_456 4
O3 O1 La 45.1(3) . 4
O3 O1 La 78.5(2) 3_565 4
O3 O1 La 162.8(2) 4_455 4
Ga2 O1 La 81.60(15) 2_565 4
Ga3 O1 La 137.34(15) 1_556 4
Ga3 O1 La 41.02(6) 2_565 4
Ga3 O1 La 102.96(6) 4_456 4
O2 O1 La 114.1(2) 6 4
O2 O1 La 127.7(2) 5_455 4
O2 O1 La 21.1(3) 2_565 4
O3 O1 La 55.18(14) 6 4
O3 O1 La 64.32(15) 2_565 4
O3 O1 La 142.6(4) 5_455 4
Ga3 O1 La 114.1(2) . 4
Ga3 O1 La 42.08(3) 2_564 4
Ga3 O1 La 90.78(14) 4_455 4
Ga1 O1 La 150.2(2) 1_455 4
Nb O1 La 150.2(2) 1_455 4
Nb O1 La 36.414(18) . 4
Ga1 O1 La 36.414(18) . 4
Ga1 O1 La 81.78(5) 1_565 4
Nb O1 La 81.78(5) 1_565 4
O2 O1 La 163.15(13) 2_465 4
O2 O1 La 78.61(13) 5_445 4
O2 O1 La 46.05(12) 6_665 4
O3 O1 La 69.09(12) 6_556 4
O3 O1 La 76.47(13) 2_566 4
O3 O1 La 149.6(3) 5_456 4
La O1 La 94.28(12) 1_556 4
La O1 La 74.57(7) 2_566 4
La O1 La 124.9(2) 4_456 4
O3 O1 La 23.46(12) 5 4
O3 O1 La 126.6(2) 2_455 4
O3 O1 La 97.79(15) 6_565 4
Ga2 O1 La 35.33(2) 1_665 4
Ga2 O1 La 99.13(3) . 4
Ga2 O1 La 142.81(8) 1_565 4
O1 O1 La 25.30(7) 2_565 4
O1 O1 La 93.47(11) 2_455 4
O1 O1 La 133.8(3) 2_465 4
O1 O1 La 98.40(15) 1_556 4
O1 O1 La 81.60(15) 1_554 4
Ga3 O1 La 169.8(3) 2_465 4
Ga3 O1 La 63.91(2) 4_446 4
Ga3 O1 La 66.10(2) 1_666 4
O3 O1 La 45.63(14) 5_556 4
O3 O1 La 133.08(19) 2_456 4
O3 O1 La 105.22(13) 6_566 4
O3 O1 La 24.04(11) 4 4
O3 O1 La 140.74(12) 3_455 4
O3 O1 La 99.69(12) 1_565 4
O2 O1 La 97.4(2) 6_554 4
O2 O1 La 105.0(2) 5_454 4
O2 O1 La 43.25(13) 2_564 4
O3 O1 La 58.40(13) 1_554 4
O3 O1 La 113.7(3) 4_454 4
O3 O1 La 75.98(19) 3_564 4
O1 O1 La 49.33(8) 2_566 4
O1 O1 La 100.46(7) 2_456 4
O1 O1 La 136.6(2) 2_466 4
O3 O1 La 49.74(11) 3 4
O3 O1 La 72.35(13) 4_565 4
O3 O1 La 167.50(16) 1_455 4
Ga2 O1 La 98.40(15) 2_566 2_455
La O1 La 36.79(3) . 2_455
La O1 La 143.3(4) 2_565 2_455
La O1 La 81.39(9) 4_455 2_455
O2 O1 La 91.7(4) 3_565 2_455
O2 O1 La 49.21(19) . 2_455
O2 O1 La 105.0(4) 4_455 2_455
O2 O1 La 105.5(3) 3_566 2_455
O2 O1 La 67.9(2) 1_556 2_455
O2 O1 La 118.9(4) 4_456 2_455
O3 O1 La 78.5(2) . 2_455
O3 O1 La 162.8(2) 3_565 2_455
O3 O1 La 45.1(3) 4_455 2_455
Ga2 O1 La 81.60(15) 2_565 2_455
Ga3 O1 La 41.02(6) 1_556 2_455
Ga3 O1 La 102.96(6) 2_565 2_455
Ga3 O1 La 137.34(15) 4_456 2_455
O2 O1 La 21.1(3) 6 2_455
O2 O1 La 114.1(2) 5_455 2_455
O2 O1 La 127.7(2) 2_565 2_455
O3 O1 La 64.32(15) 6 2_455
O3 O1 La 142.6(4) 2_565 2_455
O3 O1 La 55.18(13) 5_455 2_455
Ga3 O1 La 42.08(3) . 2_455
Ga3 O1 La 90.78(14) 2_564 2_455
Ga3 O1 La 114.1(2) 4_455 2_455
Ga1 O1 La 36.414(19) 1_455 2_455
Nb O1 La 36.414(19) 1_455 2_455
Nb O1 La 81.78(5) . 2_455
Ga1 O1 La 81.78(5) . 2_455
Ga1 O1 La 150.2(2) 1_565 2_455
Nb O1 La 150.2(2) 1_565 2_455
O2 O1 La 78.61(13) 2_465 2_455
O2 O1 La 46.05(12) 5_445 2_455
O2 O1 La 163.15(13) 6_665 2_455
O3 O1 La 76.47(13) 6_556 2_455
O3 O1 La 149.6(3) 2_566 2_455
O3 O1 La 69.09(12) 5_456 2_455
La O1 La 74.57(7) 1_556 2_455
La O1 La 124.9(2) 2_566 2_455
La O1 La 94.28(11) 4_456 2_455
O3 O1 La 97.79(15) 5 2_455
O3 O1 La 23.46(12) 2_455 2_455
O3 O1 La 126.6(2) 6_565 2_455
Ga2 O1 La 142.81(8) 1_665 2_455
Ga2 O1 La 35.33(2) . 2_455
Ga2 O1 La 99.13(3) 1_565 2_455
O1 O1 La 133.8(3) 2_565 2_455
O1 O1 La 25.30(7) 2_455 2_455
O1 O1 La 93.47(12) 2_465 2_455
O1 O1 La 98.40(15) 1_556 2_455
O1 O1 La 81.60(15) 1_554 2_455
Ga3 O1 La 63.91(2) 2_465 2_455
Ga3 O1 La 66.10(2) 4_446 2_455
Ga3 O1 La 169.8(3) 1_666 2_455
O3 O1 La 105.22(13) 5_556 2_455
O3 O1 La 45.63(14) 2_456 2_455
O3 O1 La 133.08(19) 6_566 2_455
O3 O1 La 99.69(12) 4 2_455
O3 O1 La 24.04(11) 3_455 2_455
O3 O1 La 140.74(12) 1_565 2_455
O2 O1 La 43.25(13) 6_554 2_455
O2 O1 La 97.4(2) 5_454 2_455
O2 O1 La 105.0(2) 2_564 2_455
O3 O1 La 75.98(19) 1_554 2_455
O3 O1 La 58.40(13) 4_454 2_455
O3 O1 La 113.7(3) 3_564 2_455
O1 O1 La 136.6(2) 2_566 2_455
O1 O1 La 49.33(8) 2_456 2_455
O1 O1 La 100.46(7) 2_466 2_455
O3 O1 La 72.35(13) 3 2_455
O3 O1 La 167.50(16) 4_565 2_455
O3 O1 La 49.74(11) 1_455 2_455
La O1 La 117.91(7) 4 2_455
Ga2 O1 La 98.39(15) 2_566 1_565
La O1 La 143.3(4) . 1_565
La O1 La 81.39(9) 2_565 1_565
La O1 La 36.79(3) 4_455 1_565
O2 O1 La 105.0(4) 3_565 1_565
O2 O1 La 91.7(4) . 1_565
O2 O1 La 49.21(19) 4_455 1_565
O2 O1 La 118.9(4) 3_566 1_565
O2 O1 La 105.5(3) 1_556 1_565
O2 O1 La 67.9(2) 4_456 1_565
O3 O1 La 162.8(2) . 1_565
O3 O1 La 45.1(3) 3_565 1_565
O3 O1 La 78.5(2) 4_455 1_565
Ga2 O1 La 81.60(15) 2_565 1_565
Ga3 O1 La 102.96(6) 1_556 1_565
Ga3 O1 La 137.34(15) 2_565 1_565
Ga3 O1 La 41.02(6) 4_456 1_565
O2 O1 La 127.7(2) 6 1_565
O2 O1 La 21.1(3) 5_455 1_565
O2 O1 La 114.1(2) 2_565 1_565
O3 O1 La 142.6(4) 6 1_565
O3 O1 La 55.18(13) 2_565 1_565
O3 O1 La 64.32(15) 5_455 1_565
Ga3 O1 La 90.78(14) . 1_565
Ga3 O1 La 114.1(2) 2_564 1_565
Ga3 O1 La 42.08(3) 4_455 1_565
Ga1 O1 La 81.78(5) 1_455 1_565
Nb O1 La 81.78(5) 1_455 1_565
Nb O1 La 150.2(2) . 1_565
Ga1 O1 La 150.2(2) . 1_565
Ga1 O1 La 36.414(19) 1_565 1_565
Nb O1 La 36.414(19) 1_565 1_565
O2 O1 La 46.05(12) 2_465 1_565
O2 O1 La 163.15(13) 5_445 1_565
O2 O1 La 78.61(13) 6_665 1_565
O3 O1 La 149.6(3) 6_556 1_565
O3 O1 La 69.09(12) 2_566 1_565
O3 O1 La 76.47(13) 5_456 1_565
La O1 La 124.9(2) 1_556 1_565
La O1 La 94.28(11) 2_566 1_565
La O1 La 74.57(7) 4_456 1_565
O3 O1 La 126.6(2) 5 1_565
O3 O1 La 97.79(15) 2_455 1_565
O3 O1 La 23.46(12) 6_565 1_565
Ga2 O1 La 99.13(3) 1_665 1_565
Ga2 O1 La 142.81(8) . 1_565
Ga2 O1 La 35.33(2) 1_565 1_565
O1 O1 La 93.47(12) 2_565 1_565
O1 O1 La 133.8(3) 2_455 1_565
O1 O1 La 25.30(7) 2_465 1_565
O1 O1 La 98.40(15) 1_556 1_565
O1 O1 La 81.60(15) 1_554 1_565
Ga3 O1 La 66.10(2) 2_465 1_565
Ga3 O1 La 169.8(3) 4_446 1_565
Ga3 O1 La 63.91(2) 1_666 1_565
O3 O1 La 133.08(19) 5_556 1_565
O3 O1 La 105.22(13) 2_456 1_565
O3 O1 La 45.63(14) 6_566 1_565
O3 O1 La 140.74(12) 4 1_565
O3 O1 La 99.69(12) 3_455 1_565
O3 O1 La 24.04(11) 1_565 1_565
O2 O1 La 105.0(2) 6_554 1_565
O2 O1 La 43.25(13) 5_454 1_565
O2 O1 La 97.4(2) 2_564 1_565
O3 O1 La 113.7(3) 1_554 1_565
O3 O1 La 75.98(19) 4_454 1_565
O3 O1 La 58.40(13) 3_564 1_565
O1 O1 La 100.46(7) 2_566 1_565
O1 O1 La 136.6(2) 2_456 1_565
O1 O1 La 49.33(8) 2_466 1_565
O3 O1 La 167.50(16) 3 1_565
O3 O1 La 49.74(11) 4_565 1_565
O3 O1 La 72.35(13) 1_455 1_565
La O1 La 117.91(7) 4 1_565
La O1 La 117.91(7) 2_455 1_565
Ga2 O1 O2 83.39(18) 2_566 6_565
La O1 O2 138.0(2) . 6_565
La O1 O2 102.64(13) 2_565 6_565
La O1 O2 32.3(2) 4_455 6_565
O2 O1 O2 125.3(4) 3_565 6_565
O2 O1 O2 94.8(5) . 6_565
O2 O1 O2 68.0(3) 4_455 6_565
O2 O1 O2 110.9(4) 3_566 6_565
O2 O1 O2 83.7(4) 1_556 6_565
O2 O1 O2 57.3(4) 4_456 6_565
O3 O1 O2 166.9(5) . 6_565
O3 O1 O2 59.6(3) 3_565 6_565
O3 O1 O2 59.6(3) 4_455 6_565
Ga2 O1 O2 96.60(18) 2_565 6_565
Ga3 O1 O2 80.73(14) 1_556 6_565
Ga3 O1 O2 139.0(3) 2_565 6_565
Ga3 O1 O2 41.00(16) 4_456 6_565
O2 O1 O2 107.7(3) 6 6_565
O2 O1 O2 11.3(3) 5_455 6_565
O2 O1 O2 127.4(4) 2_565 6_565
O3 O1 O2 155.2(4) 6 6_565
O3 O1 O2 77.66(16) 2_565 6_565
O3 O1 O2 58.1(2) 5_455 6_565
Ga3 O1 O2 90.07(18) . 6_565
Ga3 O1 O2 135.1(3) 2_564 6_565
Ga3 O1 O2 62.79(10) 4_455 6_565
Ga1 O1 O2 67.74(16) 1_455 6_565
Nb O1 O2 67.74(16) 1_455 6_565
Nb O1 O2 173.1(2) . 6_565
Ga1 O1 O2 173.1(2) . 6_565
Ga1 O1 O2 56.55(13) 1_565 6_565
Nb O1 O2 56.55(13) 1_565 6_565
O2 O1 O2 25.52(17) 2_465 6_565
O2 O1 O2 142.6(2) 5_445 6_565
O2 O1 O2 93.26(19) 6_665 6_565
O3 O1 O2 133.6(3) 6_556 6_565
O3 O1 O2 71.8(2) 2_566 6_565
O3 O1 O2 53.65(15) 5_456 6_565
La O1 O2 105.6(2) 1_556 6_565
La O1 O2 89.7(2) 2_566 6_565
La O1 O2 55.75(11) 4_456 6_565
O3 O1 O2 149.4(2) 5 6_565
O3 O1 O2 88.7(2) 2_455 6_565
O3 O1 O2 46.22(15) 6_565 6_565
Ga2 O1 O2 110.4(2) 1_665 6_565
Ga2 O1 O2 120.98(16) . 6_565
Ga2 O1 O2 13.26(10) 1_565 6_565
O1 O1 O2 114.91(14) 2_565 6_565
O1 O1 O2 125.84(19) 2_455 6_565
O1 O1 O2 27.5(2) 2_465 6_565
O1 O1 O2 83.39(18) 1_556 6_565
O1 O1 O2 96.60(18) 1_554 6_565
Ga3 O1 O2 44.38(13) 2_465 6_565
Ga3 O1 O2 150.3(3) 4_446 6_565
Ga3 O1 O2 74.72(17) 1_666 6_565
O3 O1 O2 132.6(3) 5_556 6_565
O3 O1 O2 82.55(17) 2_456 6_565
O3 O1 O2 42.15(19) 6_566 6_565
O3 O1 O2 155.7(2) 4 6_565
O3 O1 O2 81.58(17) 3_455 6_565
O3 O1 O2 37.98(18) 1_565 6_565
O2 O1 O2 107.4(3) 6_554 6_565
O2 O1 O2 58.55(11) 5_454 6_565
O2 O1 O2 119.5(3) 2_564 6_565
O3 O1 O2 130.2(3) 1_554 6_565
O3 O1 O2 79.7(2) 4_454 6_565
O3 O1 O2 79.68(16) 3_564 6_565
O1 O1 O2 105.2(2) 2_566 6_565
O1 O1 O2 113.8(2) 2_456 6_565
O1 O1 O2 29.74(15) 2_466 6_565
O3 O1 O2 168.4(3) 3 6_565
O3 O1 O2 65.48(18) 4_565 6_565
O3 O1 O2 54.14(18) 1_455 6_565
La O1 O2 137.63(14) 4 6_565
La O1 O2 103.48(16) 2_455 6_565
La O1 O2 22.85(11) 1_565 6_565
Ga2 O1 O2 83.40(18) 2_566 5
La O1 O2 102.64(13) . 5
La O1 O2 32.3(2) 2_565 5
La O1 O2 138.0(2) 4_455 5
O2 O1 O2 68.0(3) 3_565 5
O2 O1 O2 125.3(4) . 5
O2 O1 O2 94.8(5) 4_455 5
O2 O1 O2 57.3(4) 3_566 5
O2 O1 O2 110.9(4) 1_556 5
O2 O1 O2 83.7(4) 4_456 5
O3 O1 O2 59.6(3) . 5
O3 O1 O2 59.6(3) 3_565 5
O3 O1 O2 166.9(5) 4_455 5
Ga2 O1 O2 96.61(18) 2_565 5
Ga3 O1 O2 139.0(3) 1_556 5
Ga3 O1 O2 41.00(16) 2_565 5
Ga3 O1 O2 80.73(14) 4_456 5
O2 O1 O2 127.4(4) 6 5
O2 O1 O2 107.7(3) 5_455 5
O2 O1 O2 11.3(3) 2_565 5
O3 O1 O2 77.66(16) 6 5
O3 O1 O2 58.1(2) 2_565 5
O3 O1 O2 155.2(4) 5_455 5
Ga3 O1 O2 135.1(3) . 5
Ga3 O1 O2 62.79(10) 2_564 5
Ga3 O1 O2 90.07(18) 4_455 5
Ga1 O1 O2 173.1(2) 1_455 5
Nb O1 O2 173.1(2) 1_455 5
Nb O1 O2 56.55(13) . 5
Ga1 O1 O2 56.55(13) . 5
Ga1 O1 O2 67.74(16) 1_565 5
Nb O1 O2 67.74(16) 1_565 5
O2 O1 O2 142.6(2) 2_465 5
O2 O1 O2 93.26(19) 5_445 5
O2 O1 O2 25.52(17) 6_665 5
O3 O1 O2 71.8(2) 6_556 5
O3 O1 O2 53.65(15) 2_566 5
O3 O1 O2 133.6(3) 5_456 5
La O1 O2 89.7(2) 1_556 5
La O1 O2 55.75(11) 2_566 5
La O1 O2 105.6(2) 4_456 5
O3 O1 O2 46.22(15) 5 5
O3 O1 O2 149.4(2) 2_455 5
O3 O1 O2 88.7(2) 6_565 5
Ga2 O1 O2 13.26(10) 1_665 5
Ga2 O1 O2 110.4(2) . 5
Ga2 O1 O2 120.98(16) 1_565 5
O1 O1 O2 27.5(2) 2_565 5
O1 O1 O2 114.91(14) 2_455 5
O1 O1 O2 125.84(19) 2_465 5
O1 O1 O2 83.40(18) 1_556 5
O1 O1 O2 96.61(18) 1_554 5
Ga3 O1 O2 150.3(3) 2_465 5
Ga3 O1 O2 74.72(17) 4_446 5
Ga3 O1 O2 44.38(13) 1_666 5
O3 O1 O2 42.15(19) 5_556 5
O3 O1 O2 132.6(3) 2_456 5
O3 O1 O2 82.55(17) 6_566 5
O3 O1 O2 37.98(18) 4 5
O3 O1 O2 155.7(2) 3_455 5
O3 O1 O2 81.58(17) 1_565 5
O2 O1 O2 119.5(3) 6_554 5
O2 O1 O2 107.4(3) 5_454 5
O2 O1 O2 58.55(11) 2_564 5
O3 O1 O2 79.68(16) 1_554 5
O3 O1 O2 130.2(3) 4_454 5
O3 O1 O2 79.7(2) 3_564 5
O1 O1 O2 29.74(15) 2_566 5
O1 O1 O2 105.2(2) 2_456 5
O1 O1 O2 113.8(2) 2_466 5
O3 O1 O2 65.48(18) 3 5
O3 O1 O2 54.14(18) 4_565 5
O3 O1 O2 168.4(3) 1_455 5
La O1 O2 22.85(10) 4 5
La O1 O2 137.63(14) 2_455 5
La O1 O2 103.48(16) 1_565 5
O2 O1 O2 118.70(7) 6_565 5
Ga2 O1 O2 83.40(18) 2_566 2_455
La O1 O2 32.3(2) . 2_455
La O1 O2 138.0(2) 2_565 2_455
La O1 O2 102.64(13) 4_455 2_455
O2 O1 O2 94.8(5) 3_565 2_455
O2 O1 O2 68.0(3) . 2_455
O2 O1 O2 125.3(4) 4_455 2_455
O2 O1 O2 83.7(4) 3_566 2_455
O2 O1 O2 57.3(4) 1_556 2_455
O2 O1 O2 110.9(4) 4_456 2_455
O3 O1 O2 59.6(3) . 2_455
O3 O1 O2 166.9(5) 3_565 2_455
O3 O1 O2 59.6(3) 4_455 2_455
Ga2 O1 O2 96.61(18) 2_565 2_455
Ga3 O1 O2 41.00(16) 1_556 2_455
Ga3 O1 O2 80.73(14) 2_565 2_455
Ga3 O1 O2 139.0(3) 4_456 2_455
O2 O1 O2 11.3(3) 6 2_455
O2 O1 O2 127.4(4) 5_455 2_455
O2 O1 O2 107.7(3) 2_565 2_455
O3 O1 O2 58.1(2) 6 2_455
O3 O1 O2 155.2(4) 2_565 2_455
O3 O1 O2 77.66(16) 5_455 2_455
Ga3 O1 O2 62.79(10) . 2_455
Ga3 O1 O2 90.07(18) 2_564 2_455
Ga3 O1 O2 135.1(3) 4_455 2_455
Ga1 O1 O2 56.55(13) 1_455 2_455
Nb O1 O2 56.55(13) 1_455 2_455
Nb O1 O2 67.74(16) . 2_455
Ga1 O1 O2 67.74(16) . 2_455
Ga1 O1 O2 173.1(2) 1_565 2_455
Nb O1 O2 173.1(2) 1_565 2_455
O2 O1 O2 93.26(19) 2_465 2_455
O2 O1 O2 25.52(17) 5_445 2_455
O2 O1 O2 142.6(2) 6_665 2_455
O3 O1 O2 53.65(15) 6_556 2_455
O3 O1 O2 133.6(3) 2_566 2_455
O3 O1 O2 71.8(2) 5_456 2_455
La O1 O2 55.75(11) 1_556 2_455
La O1 O2 105.6(2) 2_566 2_455
La O1 O2 89.7(2) 4_456 2_455
O3 O1 O2 88.7(2) 5 2_455
O3 O1 O2 46.22(15) 2_455 2_455
O3 O1 O2 149.4(2) 6_565 2_455
Ga2 O1 O2 120.98(16) 1_665 2_455
Ga2 O1 O2 13.26(10) . 2_455
Ga2 O1 O2 110.4(2) 1_565 2_455
O1 O1 O2 125.84(19) 2_565 2_455
O1 O1 O2 27.5(2) 2_455 2_455
O1 O1 O2 114.91(14) 2_465 2_455
O1 O1 O2 83.40(18) 1_556 2_455
O1 O1 O2 96.60(18) 1_554 2_455
Ga3 O1 O2 74.72(17) 2_465 2_455
Ga3 O1 O2 44.38(13) 4_446 2_455
Ga3 O1 O2 150.3(3) 1_666 2_455
O3 O1 O2 82.55(17) 5_556 2_455
O3 O1 O2 42.15(19) 2_456 2_455
O3 O1 O2 132.6(3) 6_566 2_455
O3 O1 O2 81.58(17) 4 2_455
O3 O1 O2 37.98(18) 3_455 2_455
O3 O1 O2 155.7(2) 1_565 2_455
O2 O1 O2 58.55(11) 6_554 2_455
O2 O1 O2 119.5(3) 5_454 2_455
O2 O1 O2 107.4(3) 2_564 2_455
O3 O1 O2 79.7(2) 1_554 2_455
O3 O1 O2 79.68(16) 4_454 2_455
O3 O1 O2 130.2(3) 3_564 2_455
O1 O1 O2 113.8(2) 2_566 2_455
O1 O1 O2 29.74(15) 2_456 2_455
O1 O1 O2 105.2(2) 2_466 2_455
O3 O1 O2 54.14(18) 3 2_455
O3 O1 O2 168.4(3) 4_565 2_455
O3 O1 O2 65.49(18) 1_455 2_455
La O1 O2 103.48(16) 4 2_455
La O1 O2 22.85(11) 2_455 2_455
La O1 O2 137.63(14) 1_565 2_455
O2 O1 O2 118.70(7) 6_565 2_455
O2 O1 O2 118.70(7) 5 2_455
Ga2 O1 O3 30.00(11) 2_566 1_556
La O1 O3 86.5(3) . 1_556
La O1 O3 101.7(3) 2_565 1_556
La O1 O3 137.6(4) 4_455 1_556
O2 O1 O3 118.6(3) 3_565 1_556
O2 O1 O3 136.6(3) . 1_556
O2 O1 O3 163.3(3) 4_455 1_556
O2 O1 O3 14.6(3) 3_566 1_556
O2 O1 O3 42.8(3) 1_556 1_556
O2 O1 O3 58.9(3) 4_456 1_556
O3 O1 O3 53.5(3) . 1_556
O3 O1 O3 98.6(3) 3_565 1_556
O3 O1 O3 98.6(3) 4_455 1_556
Ga2 O1 O3 150.00(11) 2_565 1_556
Ga3 O1 O3 69.4(2) 1_556 1_556
Ga3 O1 O3 35.69(19) 2_565 1_556
Ga3 O1 O3 87.0(3) 4_456 1_556
O2 O1 O3 70.2(3) 6 1_556
O2 O1 O3 108.0(4) 5_455 1_556
O2 O1 O3 60.6(3) 2_565 1_556
O3 O1 O3 89.2(3) 6 1_556
O3 O1 O3 123.4(3) 2_565 1_556
O3 O1 O3 135.2(2) 5_455 1_556
Ga3 O1 O3 132.42(13) . 1_556
Ga3 O1 O3 108.59(11) 2_564 1_556
Ga3 O1 O3 154.89(17) 4_455 1_556
Ga1 O1 O3 111.0(2) 1_455 1_556
Nb O1 O3 111.0(2) 1_455 1_556
Nb O1 O3 70.61(15) . 1_556
Ga1 O1 O3 70.61(15) . 1_556
Ga1 O1 O3 116.4(2) 1_565 1_556
Nb O1 O3 116.4(2) 1_565 1_556
O2 O1 O3 108.4(3) 2_465 1_556
O2 O1 O3 57.5(2) 5_445 1_556
O2 O1 O3 80.4(3) 6_665 1_556
O3 O1 O3 22.9(2) 6_556 1_556
O3 O1 O3 65.4(2) 2_566 1_556
O3 O1 O3 74.0(2) 5_456 1_556
La O1 O3 20.06(12) 1_556 1_556
La O1 O3 36.76(15) 2_566 1_556
La O1 O3 58.61(17) 4_456 1_556
O3 O1 O3 87.7(2) 5 1_556
O3 O1 O3 113.8(2) 2_455 1_556
O3 O1 O3 137.8(2) 6_565 1_556
Ga2 O1 O3 61.98(19) 1_665 1_556
Ga2 O1 O3 56.38(17) . 1_556
Ga2 O1 O3 101.3(3) 1_565 1_556
O1 O1 O3 96.2(3) 2_565 1_556
O1 O1 O3 91.4(3) 2_455 1_556
O1 O1 O3 140.0(4) 2_465 1_556
O1 O1 O3 30.00(11) 1_556 1_556
O1 O1 O3 150.00(11) 1_554 1_556
Ga3 O1 O3 93.8(2) 2_465 1_556
Ga3 O1 O3 43.04(13) 4_446 1_556
Ga3 O1 O3 80.7(2) 1_666 1_556
O3 O1 O3 30.7(3) 5_556 1_556
O3 O1 O3 62.99(19) 2_456 1_556
O3 O1 O3 81.6(3) 6_566 1_556
O3 O1 O3 58.64(15) 4 1_556
O3 O1 O3 90.7(3) 3_455 1_556
O3 O1 O3 109.6(3) 1_565 1_556
O2 O1 O3 124.77(15) 6_554 1_556
O2 O1 O3 169.5(2) 5_454 1_556
O2 O1 O3 118.23(16) 2_564 1_556
O3 O1 O3 116.38(16) 1_554 1_556
O3 O1 O3 149.27(8) 4_454 1_556
O3 O1 O3 149.27(8) 3_564 1_556
O1 O1 O3 47.7(2) 2_566 1_556
O1 O1 O3 41.9(2) 2_456 1_556
O1 O1 O3 84.0(3) 2_466 1_556
O3 O1 O3 56.65(14) 3 1_556
O3 O1 O3 98.8(2) 4_565 1_556
O3 O1 O3 103.8(3) 1_455 1_556
La O1 O3 76.30(14) 4 1_556
La O1 O3 91.00(16) 2_455 1_556
La O1 O3 126.8(2) 1_565 1_556
O2 O1 O3 113.4(3) 6_565 1_556
O2 O1 O3 69.6(2) 5 1_556
O2 O1 O3 69.63(17) 2_455 1_556
Ga3 O3 Nb 111.8(5) 2_565 .
Ga3 O3 Ga1 111.8(5) 2_565 .
Nb O3 Ga1 0.0 . .
Ga3 O3 La 138.2(5) 2_565 .
Nb O3 La 105.4(4) . .
Ga1 O3 La 105.4(4) . .
Ga3 O3 Ga3 94.1(5) 2_565 4_446
Nb O3 Ga3 87.4(4) . 4_446
Ga1 O3 Ga3 87.4(4) . 4_446
La O3 Ga3 106.0(5) . 4_446
Ga3 O3 O3 154.6(8) 2_565 6
Nb O3 O3 48.6(3) . 6
Ga1 O3 O3 48.6(3) . 6
La O3 O3 56.8(2) . 6
Ga3 O3 O3 100.1(7) 4_446 6
Ga3 O3 O3 65.1(5) 2_565 4
Nb O3 O3 46.9(2) . 4
Ga1 O3 O3 46.9(2) . 4
La O3 O3 149.4(3) . 4
Ga3 O3 O3 87.6(3) 4_446 4
O3 O3 O3 94.37(8) 6 4
Ga3 O3 O3 105.2(3) 2_565 3
Nb O3 O3 46.9(2) . 3
Ga1 O3 O3 46.9(2) . 3
La O3 O3 114.0(7) . 3
Ga3 O3 O3 40.5(3) 4_446 3
O3 O3 O3 73.9(6) 6 3
O3 O3 O3 60.0 4 3
Ga3 O3 O2 126.0(7) 2_565 5_445
Nb O3 O2 95.8(5) . 5_445
Ga1 O3 O2 95.8(5) . 5_445
La O3 O2 66.1(4) . 5_445
Ga3 O3 O2 40.0(3) 4_446 5_445
O3 O3 O2 76.8(6) 6 5_445
O3 O3 O2 121.3(6) 4 5_445
O3 O3 O2 61.9(6) 3 5_445
Ga3 O3 O3 62.2(4) 2_565 6_556
Nb O3 O3 119.4(5) . 6_556
Ga1 O3 O3 119.4(5) . 6_556
La O3 O3 114.0(5) . 6_556
Ga3 O3 O3 39.4(4) 4_446 6_556
O3 O3 O3 138.0(11) 6 6_556
O3 O3 O3 94.06(9) 4 6_556
O3 O3 O3 75.1(5) 3 6_556
O2 O3 O3 63.8(5) 5_445 6_556
Ga3 O3 O2 39.8(4) 2_565 2_565
Nb O3 O2 94.8(6) . 2_565
Ga1 O3 O2 94.8(6) . 2_565
La O3 O2 120.6(5) . 2_565
Ga3 O3 O2 130.6(5) 4_446 2_565
O3 O3 O2 117.9(8) 6 2_565
O3 O3 O2 60.7(7) 4 2_565
O3 O3 O2 120.1(7) 3 2_565
O2 O3 O2 165.3(7) 5_445 2_565
O3 O3 O2 102.0(5) 6_556 2_565
Ga3 O3 O2 36.3(3) 2_565 3_566
Nb O3 O2 147.9(5) . 3_566
Ga1 O3 O2 147.9(5) . 3_566
La O3 O2 103.8(3) . 3_566
Ga3 O3 O2 97.1(5) 4_446 3_566
O3 O3 O2 157.1(5) 6 3_566
O3 O3 O2 101.3(5) 4 3_566
O3 O3 O2 128.5(3) 3 3_566
O2 O3 O2 108.1(6) 5_445 3_566
O3 O3 O2 57.8(5) 6_556 3_566
O2 O3 O2 58.5(6) 2_565 3_566
Ga3 O3 O1 87.9(4) 2_565 .
Nb O3 O1 132.6(6) . .
Ga1 O3 O1 132.6(6) . .
La O3 O1 52.2(2) . .
Ga3 O3 O1 135.5(5) 4_446 .
O3 O3 O1 96.4(5) 6 .
O3 O3 O1 132.0(7) 4 .
O3 O3 O1 166.1(6) 3 .
O2 O3 O1 106.7(4) 5_445 .
O3 O3 O1 107.9(4) 6_556 .
O2 O3 O1 73.0(4) 2_565 .
O2 O3 O1 60.8(4) 3_566 .
Ga3 O3 O3 100.3(6) 2_565 5
Nb O3 O3 36.0(4) . 5
Ga1 O3 O3 36.0(4) . 5
La O3 O3 98.8(5) . 5
Ga3 O3 O3 122.8(2) 4_446 5
O3 O3 O3 54.3(5) 6 5
O3 O3 O3 51.8(4) 4 5
O3 O3 O3 82.3(4) 3 5
O2 O3 O3 126.1(4) 5_445 5
O3 O3 O3 145.6(3) 6_556 5
O2 O3 O3 67.5(5) 2_565 5
O2 O3 O3 125.8(5) 3_566 5
O1 O3 O3 100.3(3) . 5
Ga3 O3 O2 112.5(6) 2_565 3_565
Nb O3 O2 79.6(5) . 3_565
Ga1 O3 O2 79.6(5) . 3_565
La O3 O2 56.3(3) . 3_565
Ga3 O3 O2 153.2(4) 4_446 3_565
O3 O3 O2 54.0(6) 6 3_565
O3 O3 O2 100.0(5) 4 3_565
O3 O3 O2 123.2(2) 3 3_565
O2 O3 O2 117.8(5) 5_445 3_565
O3 O3 O2 160.9(4) 6_556 3_565
O2 O3 O2 74.3(5) 2_565 3_565
O2 O3 O2 106.4(5) 3_566 3_565
O1 O3 O2 53.0(4) . 3_565
O3 O3 O2 50.9(3) 5 3_565
Ga3 O3 O3 22.7(4) 2_565 5_556
Nb O3 O3 99.0(5) . 5_556
Ga1 O3 O3 99.0(5) . 5_556
La O3 O3 155.6(6) . 5_556
Ga3 O3 O3 74.5(3) 4_446 5_556
O3 O3 O3 147.6(4) 6 5_556
O3 O3 O3 54.0(5) 4 5_556
O3 O3 O3 82.7(4) 3 5_556
O2 O3 O3 111.6(5) 5_445 5_556
O3 O3 O3 50.9(4) 6_556 5_556
O2 O3 O3 56.4(3) 2_565 5_556
O2 O3 O3 52.6(3) 3_566 5_556
O1 O3 O3 109.9(3) . 5_556
O3 O3 O3 101.2(6) 5 5_556
O2 O3 O3 130.5(5) 3_565 5_556
Ga3 O3 Ga2 65.7(3) 2_565 2_566
Nb O3 Ga2 160.0(7) . 2_566
Ga1 O3 Ga2 160.0(7) . 2_566
La O3 Ga2 72.8(2) . 2_566
Ga3 O3 Ga2 112.5(4) 4_446 2_566
O3 O3 Ga2 125.8(4) 6 2_566
O3 O3 Ga2 127.7(6) 4 2_566
O3 O3 Ga2 152.6(4) 3 2_566
O2 O3 Ga2 101.3(4) 5_445 2_566
O3 O3 Ga2 78.0(3) 6_556 2_566
O2 O3 Ga2 70.6(4) 2_565 2_566
O2 O3 Ga2 31.9(2) 3_566 2_566
O1 O3 Ga2 31.2(3) . 2_566
O3 O3 Ga2 124.0(2) 5 2_566
O2 O3 Ga2 83.2(3) 3_565 2_566
O3 O3 Ga2 84.4(3) 5_556 2_566
Ga3 O3 Ga3 62.8(3) 2_565 1_656
Nb O3 Ga3 60.0(2) . 1_656
Ga1 O3 Ga3 60.0(2) . 1_656
La O3 Ga3 158.3(4) . 1_656
Ga3 O3 Ga3 60.1(2) 4_446 1_656
O3 O3 Ga3 106.7(2) 6 1_656
O3 O3 Ga3 28.98(18) 4 1_656
O3 O3 Ga3 44.4(3) 3 1_656
O2 O3 Ga3 97.9(4) 5_445 1_656
O3 O3 Ga3 67.2(2) 6_556 1_656
O2 O3 Ga3 78.6(4) 2_565 1_656
O2 O3 Ga3 94.9(3) 3_566 1_656
O1 O3 Ga3 149.5(4) . 1_656
O3 O3 Ga3 78.5(3) 5 1_656
O2 O3 Ga3 128.5(4) 3_565 1_656
O3 O3 Ga3 42.4(2) 5_556 1_656
Ga2 O3 Ga3 126.8(3) 2_566 1_656
Ga3 O3 La 74.1(4) 2_565 2_565
Nb O3 La 100.8(5) . 2_565
Ga1 O3 La 100.8(5) . 2_565
La O3 La 81.1(3) . 2_565
Ga3 O3 La 167.5(4) 4_446 2_565
O3 O3 La 92.4(7) 6 2_565
O3 O3 La 91.1(6) 4 2_565
O3 O3 La 146.0(5) 3 2_565
O2 O3 La 146.2(4) 5_445 2_565
O3 O3 La 128.4(5) 6_556 2_565
O2 O3 La 40.0(3) 2_565 2_565
O2 O3 La 70.9(4) 3_566 2_565
O1 O3 La 41.89(18) . 2_565
O3 O3 La 64.80(17) 5 2_565
O2 O3 La 39.2(3) 3_565 2_565
O3 O3 La 94.7(2) 5_556 2_565
Ga2 O3 La 59.16(18) 2_566 2_565
Ga3 O3 La 115.9(3) 1_656 2_565
Ga3 O3 O2 116.9(5) 2_565 6
Nb O3 O2 130.2(5) . 6
Ga1 O3 O2 130.2(5) . 6
La O3 O2 37.0(2) . 6
Ga3 O3 O2 79.7(4) 4_446 6
O3 O3 O2 86.5(3) 6 6
O3 O3 O2 167.3(6) 4 6
O3 O3 O2 108.4(7) 3 6
O2 O3 O2 46.6(4) 5_445 6
O3 O3 O2 77.1(3) 6_556 6
O2 O3 O2 129.7(5) 2_565 6
O2 O3 O2 81.8(3) 3_566 6
O1 O3 O2 60.3(2) . 6
O3 O3 O2 135.6(5) 5 6
O2 O3 O2 90.8(3) 3_565 6
O3 O3 O2 122.6(6) 5_556 6
Ga2 O3 O2 59.9(3) 2_566 6
Ga3 O3 O2 139.1(5) 1_656 6
La O3 O2 101.6(3) 2_565 6
Ga3 O3 O3 119.3(4) 2_565 2
Nb O3 O3 9.3(4) . 2
Ga1 O3 O3 9.3(4) . 2
La O3 O3 99.9(4) . 2
Ga3 O3 O3 81.6(3) 4_446 2
O3 O3 O3 43.7(2) 6 2
O3 O3 O3 54.3(4) 4 2
O3 O3 O3 42.0(3) 3 2
O2 O3 O3 86.7(3) 5_445 2
O3 O3 O3 116.7(5) 6_556 2
O2 O3 O3 104.1(4) 2_565 2
O2 O3 O3 155.6(4) 3_566 2
O1 O3 O3 134.7(6) . 2
O3 O3 O3 43.3(2) 5 2
O2 O3 O3 82.2(4) 3_565 2
O3 O3 O3 104.3(3) 5_556 2
Ga2 O3 O3 165.3(5) 2_566 2
Ga3 O3 O3 63.2(3) 1_656 2
La O3 O3 107.7(3) 2_565 2
O2 O3 O3 121.5(3) 6 2
Ga3 O3 Ga3 117.9(6) 2_565 2_564
Nb O3 Ga3 52.0(3) . 2_564
Ga1 O3 Ga3 52.0(3) . 2_564
La O3 Ga3 72.1(3) . 2_564
Ga3 O3 Ga3 134.4(3) 4_446 2_564
O3 O3 Ga3 39.3(5) 6 2_564
O3 O3 Ga3 78.8(2) 4 2_564
O3 O3 Ga3 96.92(13) 3 2_564
O2 O3 Ga3 115.7(4) 5_445 2_564
O3 O3 Ga3 171.3(3) 6_556 2_564
O2 O3 Ga3 78.9(4) 2_565 2_564
O2 O3 Ga3 128.1(5) 3_566 2_564
O1 O3 Ga3 80.7(4) . 2_564
O3 O3 Ga3 27.0(2) 5 2_564
O2 O3 Ga3 27.7(2) 3_565 2_564
O3 O3 Ga3 125.6(6) 5_556 2_564
Ga2 O3 Ga3 110.2(3) 2_566 2_564
Ga3 O3 Ga3 104.8(3) 1_656 2_564
La O3 Ga3 57.3(2) 2_565 2_564
O2 O3 Ga3 109.1(3) 6 2_564
O3 O3 Ga3 55.1(3) 2 2_564
Ga3 O3 Ga2 114.3(5) 2_565 .
Nb O3 Ga2 119.4(5) . .
Ga1 O3 Ga2 119.4(5) . .
La O3 Ga2 58.3(3) . .
Ga3 O3 Ga2 52.8(2) 4_446 .
O3 O3 Ga2 91.1(5) 6 .
O3 O3 Ga2 140.4(5) 4 .
O3 O3 Ga2 84.3(6) 3 .
O2 O3 Ga2 24.1(2) 5_445 .
O3 O3 Ga2 58.1(3) 6_556 .
O2 O3 Ga2 145.4(5) 2_565 .
O2 O3 Ga2 87.4(4) 3_566 .
O1 O3 Ga2 86.0(2) . .
O3 O3 Ga2 145.1(4) 5 .
O2 O3 Ga2 114.6(3) 3_565 .
O3 O3 Ga2 108.8(5) 5_556 .
Ga2 O3 Ga2 77.2(2) 2_566 .
Ga3 O3 Ga2 112.6(3) 1_656 .
La O3 Ga2 127.9(2) 2_565 .
O2 O3 Ga2 26.92(17) 6 .
O3 O3 Ga2 110.20(15) 2 .
Ga3 O3 Ga2 125.3(3) 2_564 .
Ga3 O3 O3 64.1(4) 2_565 2_556
Nb O3 O3 79.5(4) . 2_556
Ga1 O3 O3 79.5(4) . 2_556
La O3 O3 143.5(4) . 2_556
Ga3 O3 O3 37.5(2) 4_446 2_556
O3 O3 O3 117.8(4) 6 2_556
O3 O3 O3 55.7(3) 4 2_556
O3 O3 O3 44.1(3) 3 2_556
O2 O3 O3 77.5(3) 5_445 2_556
O3 O3 O3 41.9(2) 6_556 2_556
O2 O3 O3 94.4(3) 2_565 2_556
O2 O3 O3 84.9(4) 3_566 2_556
O1 O3 O3 145.2(5) . 2_556
O3 O3 O3 104.5(3) 5 2_556
O2 O3 O3 155.3(4) 3_565 2_556
O3 O3 O3 41.6(2) 5_556 2_556
Ga2 O3 O3 114.2(4) 2_566 2_556
Ga3 O3 O3 26.84(19) 1_656 2_556
La O3 O3 134.37(18) 2_565 2_556
O2 O3 O3 112.8(3) 6 2_556
O3 O3 O3 79.4(4) 2 2_556
Ga3 O3 O3 129.6(3) 2_564 2_556
Ga2 O3 O3 87.3(2) . 2_556
Ga3 O3 Ga1 45.1(3) 2_565 1_556
Nb O3 Ga1 105.9(4) . 1_556
Ga1 O3 Ga1 105.9(4) . 1_556
La O3 Ga1 138.2(5) . 1_556
Ga3 O3 Ga1 49.1(2) 4_446 1_556
O3 O3 Ga1 144.8(6) 6 1_556
O3 O3 Ga1 71.05(11) 4 1_556
O3 O3 Ga1 71.05(11) 3 1_556
O2 O3 Ga1 83.8(4) 5_445 1_556
O3 O3 Ga1 24.44(18) 6_556 1_556
O2 O3 Ga1 83.4(3) 2_565 1_556
O2 O3 Ga1 57.4(3) 3_566 1_556
O1 O3 Ga1 117.4(4) . 1_556
O3 O3 Ga1 122.8(4) 5 1_556
O2 O3 Ga1 157.5(4) 3_565 1_556
O3 O3 Ga1 28.0(2) 5_556 1_556
Ga2 O3 Ga1 86.4(2) 2_566 1_556
Ga3 O3 Ga1 47.06(13) 1_656 1_556
La O3 Ga1 118.9(3) 2_565 1_556
O2 O3 Ga1 101.2(4) 6 1_556
O3 O3 Ga1 106.9(4) 2 1_556
Ga3 O3 Ga1 149.7(3) 2_564 1_556
Ga2 O3 Ga1 82.2(3) . 1_556
O3 O3 Ga1 27.9(2) 2_556 1_556
Ga3 O3 Nb 45.1(3) 2_565 1_556
Nb O3 Nb 105.9(4) . 1_556
Ga1 O3 Nb 105.9(4) . 1_556
La O3 Nb 138.2(5) . 1_556
Ga3 O3 Nb 49.1(2) 4_446 1_556
O3 O3 Nb 144.8(6) 6 1_556
O3 O3 Nb 71.05(11) 4 1_556
O3 O3 Nb 71.05(11) 3 1_556
O2 O3 Nb 83.8(4) 5_445 1_556
O3 O3 Nb 24.44(18) 6_556 1_556
O2 O3 Nb 83.4(3) 2_565 1_556
O2 O3 Nb 57.4(3) 3_566 1_556
O1 O3 Nb 117.4(4) . 1_556
O3 O3 Nb 122.8(4) 5 1_556
O2 O3 Nb 157.5(4) 3_565 1_556
O3 O3 Nb 28.0(2) 5_556 1_556
Ga2 O3 Nb 86.4(2) 2_566 1_556
Ga3 O3 Nb 47.06(13) 1_656 1_556
La O3 Nb 118.9(3) 2_565 1_556
O2 O3 Nb 101.2(4) 6 1_556
O3 O3 Nb 106.9(4) 2 1_556
Ga3 O3 Nb 149.7(3) 2_564 1_556
Ga2 O3 Nb 82.2(3) . 1_556
O3 O3 Nb 27.9(2) 2_556 1_556
Ga1 O3 Nb 0.0 1_556 1_556
Ga3 O3 O2 77.2(3) 2_565 1_556
Nb O3 O2 170.8(5) . 1_556
Ga1 O3 O2 170.8(5) . 1_556
La O3 O2 66.7(3) . 1_556
Ga3 O3 O2 90.3(4) 4_446 1_556
O3 O3 O2 123.4(2) 6 1_556
O3 O3 O2 141.9(4) 4 1_556
O3 O3 O2 130.6(6) 3 1_556
O2 O3 O2 76.9(3) 5_445 1_556
O3 O3 O2 62.4(2) 6_556 1_556
O2 O3 O2 93.5(3) 2_565 1_556
O2 O3 O2 41.3(4) 3_566 1_556
O1 O3 O2 46.9(3) . 1_556
O3 O3 O2 146.8(3) 5 1_556
O2 O3 O2 98.8(3) 3_565 1_556
O3 O3 O2 88.9(4) 5_556 1_556
Ga2 O3 O2 24.94(18) 2_566 1_556
Ga3 O3 O2 125.9(3) 1_656 1_556
La O3 O2 83.0(2) 2_565 1_556
O2 O3 O2 40.7(4) 6 1_556
O3 O3 O2 161.9(2) 2 1_556
Ga3 O3 O2 126.2(3) 2_564 1_556
Ga2 O3 O2 52.9(2) . 1_556
O3 O3 O2 103.9(4) 2_556 1_556
Ga1 O3 O2 79.1(2) 1_556 1_556
Nb O3 O2 79.1(2) 1_556 1_556
Ga3 O3 La 67.2(4) 2_565 4
Nb O3 La 53.5(3) . 4
Ga1 O3 La 53.5(3) . 4
La O3 La 127.4(5) . 4
Ga3 O3 La 118.3(3) 4_446 4
O3 O3 La 87.5(5) 6 4
O3 O3 La 30.7(3) 4 4
O3 O3 La 86.4(4) 3 4
O2 O3 La 147.3(4) 5_445 4
O3 O3 La 118.1(3) 6_556 4
O2 O3 La 41.3(4) 2_565 4
O2 O3 La 97.5(4) 3_566 4
O1 O3 La 103.3(4) . 4
O3 O3 La 33.6(3) 5 4
O2 O3 La 71.8(3) 3_565 4
O3 O3 La 68.7(4) 5_556 4
Ga2 O3 La 111.0(3) 2_566 4
Ga3 O3 La 59.15(16) 1_656 4
La O3 La 61.5(2) 2_565 4
O2 O3 La 161.7(4) 6 4
O3 O3 La 62.85(14) 2 4
Ga3 O3 La 57.10(19) 2_564 4
Ga2 O3 La 170.6(3) . 4
O3 O3 La 85.17(17) 2_556 4
Ga1 O3 La 93.7(2) 1_556 4
Nb O3 La 93.7(2) 1_556 4
O2 O3 La 134.7(3) 1_556 4
Ga3 O3 O1 158.2(6) 2_565 2_455
Nb O3 O1 89.2(4) . 2_455
Ga1 O3 O1 89.2(4) . 2_455
La O3 O1 29.70(17) . 2_455
Ga3 O3 O1 80.7(3) 4_446 2_455
O3 O3 O1 46.6(3) 6 2_455
O3 O3 O1 135.2(4) 4 2_455
O3 O3 O1 84.7(5) 3 2_455
O2 O3 O1 42.0(3) 5_445 2_455
O3 O3 O1 103.0(5) 6_556 2_455
O2 O3 O1 148.6(5) 2_565 2_455
O2 O3 O1 122.9(4) 3_566 2_455
O1 O3 O1 81.4(2) . 2_455
O3 O3 O1 100.3(5) 5 2_455
O2 O3 O1 75.8(3) 3_565 2_455
O3 O3 O1 153.3(6) 5_556 2_455
Ga2 O3 O1 96.5(2) 2_566 2_455
Ga3 O3 O1 129.0(3) 1_656 2_455
La O3 O1 108.7(3) 2_565 2_455
O2 O3 O1 41.4(3) 6 2_455
O3 O3 O1 81.1(3) 2 2_455
Ga3 O3 O1 79.2(3) 2_564 2_455
Ga2 O3 O1 46.3(2) . 2_455
O3 O3 O1 117.0(2) 2_556 2_455
Ga1 O3 O1 125.3(4) 1_556 2_455
Nb O3 O1 125.3(4) 1_556 2_455
O2 O3 O1 81.6(3) 1_556 2_455
La O3 O1 133.8(4) 4 2_455
Ga3 O3 Ga3 152.8(5) 2_565 4_445
Nb O3 Ga3 41.8(2) . 4_445
Ga1 O3 Ga3 41.8(2) . 4_445
La O3 Ga3 64.4(2) . 4_445
Ga3 O3 Ga3 91.2(3) 4_446 4_445
O3 O3 Ga3 10.4(3) 6 4_445
O3 O3 Ga3 88.61(19) 4 4_445
O3 O3 Ga3 63.5(2) 3 4_445
O2 O3 Ga3 72.5(3) 5_445 4_445
O3 O3 Ga3 130.1(6) 6_556 4_445
O2 O3 Ga3 122.0(5) 2_565 4_445
O2 O3 Ga3 167.3(4) 3_566 4_445
O1 O3 Ga3 106.6(4) . 4_445
O3 O3 Ga3 55.2(3) 5 4_445
O2 O3 Ga3 63.6(3) 3_565 4_445
O3 O3 Ga3 139.6(4) 5_556 4_445
Ga2 O3 Ga3 135.4(3) 2_566 4_445
Ga3 O3 Ga3 97.6(2) 1_656 4_445
La O3 Ga3 101.2(3) 2_565 4_445
O2 O3 Ga3 90.2(3) 6 4_445
O3 O3 Ga3 35.5(2) 2 4_445
Ga3 O3 Ga3 45.65(13) 2_564 4_445
Ga2 O3 Ga3 90.0(2) . 4_445
O3 O3 Ga3 107.5(3) 2_556 4_445
Ga1 O3 Ga3 134.4(3) 1_556 4_445
Nb O3 Ga3 134.4(3) 1_556 4_445
O2 O3 Ga3 129.5(3) 1_556 4_445
La O3 Ga3 86.9(2) 4 4_445
O1 O3 Ga3 49.0(2) 2_455 4_445
Ga3 O3 La 64.4(4) 2_565 1_556
Nb O3 La 149.1(5) . 1_556
Ga1 O3 La 149.1(5) . 1_556
La O3 La 92.4(3) . 1_556
Ga3 O3 La 63.2(3) 4_446 1_556
O3 O3 La 141.0(5) 6 1_556
O3 O3 La 118.09(12) 4 1_556
O3 O3 La 102.9(3) 3 1_556
O2 O3 La 68.3(3) 5_445 1_556
O3 O3 La 29.98(18) 6_556 1_556
O2 O3 La 97.6(4) 2_565 1_556
O2 O3 La 40.2(4) 3_566 1_556
O1 O3 La 78.2(3) . 1_556
O3 O3 La 164.6(4) 5 1_556
O2 O3 La 131.1(3) 3_565 1_556
O3 O3 La 65.6(4) 5_556 1_556
Ga2 O3 La 49.77(15) 2_566 1_556
Ga3 O3 La 95.0(3) 1_656 1_556
La O3 La 106.9(2) 2_565 1_556
O2 O3 La 57.0(3) 6 1_556
O3 O3 La 144.7(4) 2 1_556
Ga3 O3 La 158.7(3) 2_564 1_556
Ga2 O3 La 50.32(16) . 1_556
O3 O3 La 71.4(3) 2_556 1_556
Ga1 O3 La 48.11(14) 1_556 1_556
Nb O3 La 48.11(14) 1_556 1_556
O2 O3 La 32.54(16) 1_556 1_556
La O3 La 131.4(3) 4 1_556
O1 O3 La 94.7(3) 2_455 1_556
Ga3 O3 La 140.1(3) 4_445 1_556
Ga3 O3 O2 94.5(5) 2_565 4_446
Nb O3 O2 88.3(4) . 4_446
Ga1 O3 O2 88.3(4) . 4_446
La O3 O2 105.0(5) . 4_446
Ga3 O3 O2 1.2(2) 4_446 4_446
O3 O3 O2 100.1(7) 6 4_446
O3 O3 O2 88.8(4) 4 4_446
O3 O3 O2 41.5(3) 3 4_446
O2 O3 O2 39.1(5) 5_445 4_446
O3 O3 O2 39.1(4) 6_556 4_446
O2 O3 O2 131.3(5) 2_565 4_446
O2 O3 O2 96.8(5) 3_566 4_446
O1 O3 O2 134.4(4) . 4_446
O3 O3 O2 123.8(2) 5 4_446
O2 O3 O2 152.9(4) 3_565 4_446
O3 O3 O2 75.1(3) 5_556 4_446
Ga2 O3 O2 111.6(4) 2_566 4_446
Ga3 O3 O2 61.3(3) 1_656 4_446
La O3 O2 167.4(3) 2_565 4_446
O2 O3 O2 78.5(4) 6 4_446
O3 O3 O2 82.4(3) 2 4_446
Ga3 O3 O2 134.8(3) 2_564 4_446
Ga2 O3 O2 51.6(3) . 4_446
O3 O3 O2 38.5(3) 2_556 4_446
Ga1 O3 O2 49.5(2) 1_556 4_446
Nb O3 O2 49.5(2) 1_556 4_446
O2 O3 O2 89.3(4) 1_556 4_446
La O3 O2 119.5(3) 4 4_446
O1 O3 O2 79.9(4) 2_455 4_446
Ga3 O3 O2 91.3(3) 4_445 4_446
La O3 O2 62.4(2) 1_556 4_446
Ga3 O3 O2 127.3(5) 2_565 .
Nb O3 O2 103.6(4) . .
Ga1 O3 O2 103.6(4) . .
La O3 O2 20.0(2) . .
Ga3 O3 O2 126.0(4) 4_446 .
O3 O3 O2 58.2(3) 6 .
O3 O3 O2 137.4(4) 4 .
O3 O3 O2 127.5(5) 3 .
O2 O3 O2 86.0(3) 5_445 .
O3 O3 O2 128.3(2) 6_556 .
O2 O3 O2 101.4(4) 2_565 .
O2 O3 O2 99.4(3) 3_566 .
O1 O3 O2 39.9(3) . .
O3 O3 O2 86.0(4) 5 .
O2 O3 O2 38.2(3) 3_565 .
O3 O3 O2 149.7(3) 5_556 .
Ga2 O3 O2 67.6(3) 2_566 .
Ga3 O3 O2 163.3(4) 1_656 .
La O3 O2 61.5(2) 2_565 .
O2 O3 O2 52.7(3) 6 .
O3 O3 O2 101.0(4) 2 .
Ga3 O3 O2 59.3(2) 2_564 .
Ga2 O3 O2 77.0(2) . .
O3 O3 O2 163.5(2) 2_556 .
Ga1 O3 O2 149.6(3) 1_556 .
Nb O3 O2 149.6(3) 1_556 .
O2 O3 O2 70.8(3) 1_556 .
La O3 O2 109.9(3) 4 .
O1 O3 O2 47.6(2) 2_455 .
Ga3 O3 O2 67.9(3) 4_445 .
La O3 O2 101.6(3) 1_556 .
O2 O3 O2 125.0(4) 4_446 .
Ga3 O3 Ga2 31.6(3) 2_565 1_665
Nb O3 Ga2 98.2(4) . 1_665
Ga1 O3 Ga2 98.2(4) . 1_665
La O3 Ga2 126.1(4) . 1_665
Ga3 O3 Ga2 123.0(3) 4_446 1_665
O3 O3 Ga2 125.6(7) 6 1_665
O3 O3 Ga2 59.8(5) 4 1_665
O3 O3 Ga2 117.5(5) 3 1_665
O2 O3 Ga2 157.4(5) 5_445 1_665
O3 O3 Ga2 93.8(4) 6_556 1_665
O2 O3 Ga2 8.2(2) 2_565 1_665
O2 O3 Ga2 53.0(3) 3_566 1_665
O1 O3 Ga2 76.2(3) . 1_665
O3 O3 Ga2 73.8(3) 5 1_665
O2 O3 Ga2 82.3(3) 3_565 1_665
O3 O3 Ga2 48.59(19) 5_556 1_665
Ga2 O3 Ga2 69.20(19) 2_566 1_665
Ga3 O3 Ga2 74.17(19) 1_656 1_665
La O3 Ga2 46.84(15) 2_565 1_665
O2 O3 Ga2 129.1(3) 6 1_665
O3 O3 Ga2 107.45(12) 2 1_665
Ga3 O3 Ga2 86.8(3) 2_564 1_665
Ga2 O3 Ga2 140.3(3) . 1_665
O3 O3 Ga2 87.66(19) 2_556 1_665
Ga1 O3 Ga2 75.33(17) 1_556 1_665
Nb O3 Ga2 75.33(17) 1_556 1_665
O2 O3 Ga2 90.5(2) 1_556 1_665
La O3 Ga2 44.97(13) 4 1_665
O1 O3 Ga2 155.3(3) 2_455 1_665
Ga3 O3 Ga2 128.9(3) 4_445 1_665
La O3 Ga2 90.98(19) 1_556 1_665
O2 O3 Ga2 123.7(3) 4_446 1_665
O2 O3 Ga2 107.7(3) . 1_665
Ga3 O3 La 146.0(6) 2_565 4_445
Nb O3 La 74.6(3) . 4_445
Ga1 O3 La 74.6(3) . 4_445
La O3 La 62.1(3) . 4_445
Ga3 O3 La 52.1(2) 4_446 4_445
O3 O3 La 53.5(5) 6 4_445
O3 O3 La 111.2(5) 4 4_445
O3 O3 La 53.6(5) 3 4_445
O2 O3 La 24.3(2) 5_445 4_445
O3 O3 La 85.2(5) 6_556 4_445
O2 O3 La 169.2(5) 2_565 4_445
O2 O3 La 132.2(5) 3_566 4_445
O1 O3 La 112.7(3) . 4_445
O3 O3 La 102.0(3) 5 4_445
O2 O3 La 101.5(3) 3_565 4_445
O3 O3 La 126.2(3) 5_556 4_445
Ga2 O3 La 119.2(3) 2_566 4_445
Ga3 O3 La 97.2(2) 1_656 4_445
La O3 La 139.1(3) 2_565 4_445
O2 O3 La 59.5(2) 6 4_445
O3 O3 La 65.30(13) 2 4_445
Ga3 O3 La 92.8(2) 2_564 4_445
Ga2 O3 La 45.40(14) . 4_445
O3 O3 La 85.58(16) 2_556 4_445
Ga1 O3 La 101.0(3) 1_556 4_445
Nb O3 La 101.0(3) 1_556 4_445
O2 O3 La 97.0(3) 1_556 4_445
La O3 La 128.1(2) 4 4_445
O1 O3 La 32.45(11) 2_455 4_445
Ga3 O3 La 48.35(12) 4_445 4_445
La O3 La 92.6(3) 1_556 4_445
O2 O3 La 51.6(3) 4_446 4_445
O2 O3 La 79.7(3) . 4_445
Ga2 O3 La 170.9(2) 1_665 4_445
Ga3 O3 O2 149.5(5) 2_565 4_445
Nb O3 O2 45.9(3) . 4_445
Ga1 O3 O2 45.9(3) . 4_445
La O3 O2 72.0(3) . 4_445
Ga3 O3 O2 68.0(3) 4_446 4_445
O3 O3 O2 32.4(5) 6 4_445
O3 O3 O2 88.9(4) 4 4_445
O3 O3 O2 45.3(4) 3 4_445
O2 O3 O2 53.8(4) 5_445 4_445
O3 O3 O2 106.9(6) 6_556 4_445
O2 O3 O2 139.3(6) 2_565 4_445
O2 O3 O2 161.8(5) 3_566 4_445
O1 O3 O2 122.3(4) . 4_445
O3 O3 O2 72.4(3) 5 4_445
O2 O3 O2 86.4(3) 3_565 4_445
O3 O3 O2 127.8(3) 5_556 4_445
Ga2 O3 O2 143.1(4) 2_566 4_445
Ga3 O3 O2 86.8(3) 1_656 4_445
La O3 O2 124.5(3) 2_565 4_445
O2 O3 O2 85.1(3) 6 4_445
O3 O3 O2 36.7(3) 2 4_445
Ga3 O3 O2 68.4(2) 2_564 4_445
Ga2 O3 O2 75.3(3) . 4_445
O3 O3 O2 88.6(3) 2_556 4_445
Ga1 O3 O2 113.4(3) 1_556 4_445
Nb O3 O2 113.4(3) 1_556 4_445
O2 O3 O2 125.2(4) 1_556 4_445
La O3 O2 98.9(3) 4 4_445
O1 O3 O2 46.6(3) 2_455 4_445
Ga3 O3 O2 23.25(15) 4_445 4_445
La O3 O2 121.6(4) 1_556 4_445
O2 O3 O2 68.1(2) 4_446 4_445
O2 O3 O2 82.5(5) . 4_445
Ga2 O3 O2 143.9(3) 1_665 4_445
La O3 O2 29.99(19) 4_445 4_445
Ga3 O3 Ga2 118.1(5) 2_565 2_565
Nb O3 Ga2 91.5(4) . 2_565
Ga1 O3 Ga2 91.5(4) . 2_565
La O3 Ga2 41.4(2) . 2_565
Ga3 O3 Ga2 145.5(4) 4_446 2_565
O3 O3 Ga2 55.9(5) 6 2_565
O3 O3 Ga2 116.1(4) 4 2_565
O3 O3 Ga2 129.66(18) 3 2_565
O2 O3 Ga2 106.0(3) 5_445 2_565
O3 O3 Ga2 147.43(15) 6_556 2_565
O2 O3 Ga2 83.9(4) 2_565 2_565
O2 O3 Ga2 101.9(3) 3_566 2_565
O1 O3 Ga2 42.7(3) . 2_565
O3 O3 Ga2 66.3(3) 5 2_565
O2 O3 Ga2 16.1(2) 3_565 2_565
O3 O3 Ga2 139.5(3) 5_556 2_565
Ga2 O3 Ga2 73.87(19) 2_566 2_565
Ga3 O3 Ga2 144.5(4) 1_656 2_565
La O3 Ga2 44.75(13) 2_565 2_565
O2 O3 Ga2 74.8(2) 6 2_565
O3 O3 Ga2 92.1(4) 2 2_565
Ga3 O3 Ga2 41.07(12) 2_564 2_565
Ga2 O3 Ga2 99.3(2) . 2_565
O3 O3 Ga2 170.7(4) 2_556 2_565
Ga1 O3 Ga2 159.3(3) 1_556 2_565
Nb O3 Ga2 159.3(3) 1_556 2_565
O2 O3 Ga2 85.4(2) 1_556 2_565
La O3 Ga2 87.6(3) 4 2_565
O1 O3 Ga2 64.8(2) 2_455 2_565
Ga3 O3 Ga2 66.27(16) 4_445 2_565
La O3 Ga2 117.9(2) 1_556 2_565
O2 O3 Ga2 144.7(4) 4_446 2_565
O2 O3 Ga2 22.32(13) . 2_565
Ga2 O3 Ga2 91.3(2) 1_665 2_565
La O3 Ga2 94.37(18) 4_445 2_565
O2 O3 Ga2 86.8(3) 4_445 2_565
Ga3 O3 O2 81.9(3) 2_565 6_655
Nb O3 O2 42.2(3) . 6_655
Ga1 O3 O2 42.2(3) . 6_655
La O3 O2 139.9(4) . 6_655
Ga3 O3 O2 59.7(2) 4_446 6_655
O3 O3 O2 87.2(3) 6 6_655
O3 O3 O2 30.7(4) 4 6_655
O3 O3 O2 29.9(4) 3 6_655
O2 O3 O2 90.7(3) 5_445 6_655
O3 O3 O2 79.7(3) 6_556 6_655
O2 O3 O2 90.3(3) 2_565 6_655
O2 O3 O2 114.6(3) 3_566 6_655
O1 O3 O2 162.6(4) . 6_655
O3 O3 O2 68.1(3) 5 6_655
O2 O3 O2 118.7(4) 3_565 6_655
O3 O3 O2 62.2(3) 5_556 6_655
Ga2 O3 O2 146.5(3) 2_566 6_655
Ga3 O3 O2 19.77(18) 1_656 6_655
La O3 O2 121.2(3) 2_565 6_655
O2 O3 O2 137.0(4) 6 6_655
O3 O3 O2 44.1(3) 2 6_655
Ga3 O3 O2 91.7(2) 2_564 6_655
Ga2 O3 O2 110.9(3) . 6_655
O3 O3 O2 38.0(2) 2_556 6_655
Ga1 O3 O2 63.71(19) 1_556 6_655
Nb O3 O2 63.71(19) 1_556 6_655
O2 O3 O2 141.9(3) 1_556 6_655
La O3 O2 59.74(19) 4 6_655
O1 O3 O2 112.7(3) 2_455 6_655
Ga3 O3 O2 77.9(2) 4_445 6_655
La O3 O2 109.4(3) 1_556 6_655
O2 O3 O2 60.9(3) 4_446 6_655
O2 O3 O2 145.1(3) . 6_655
Ga2 O3 O2 87.9(2) 1_665 6_655
La O3 O2 83.1(2) 4_445 6_655
O2 O3 O2 67.9(4) 4_445 6_655
Ga2 O3 O2 132.7(3) 2_565 6_655
Ga3 O3 O1 93.9(5) 2_565 2_456
Nb O3 O1 129.2(5) . 2_456
Ga1 O3 O1 129.2(5) . 2_456
La O3 O1 75.9(3) . 2_456
Ga3 O3 O1 46.4(2) 4_446 2_456
O3 O3 O1 111.1(6) 6 2_456
O3 O3 O1 129.3(4) 4 2_456
O3 O3 O1 85.3(5) 3 2_456
O2 O3 O1 37.0(3) 5_445 2_456
O3 O3 O1 38.4(3) 6_556 2_456
O2 O3 O1 129.0(5) 2_565 2_456
O2 O3 O1 71.1(4) 3_566 2_456
O1 O3 O1 89.2(3) . 2_456
O3 O3 O1 163.1(3) 5 2_456
O2 O3 O1 130.6(3) 3_565 2_456
O3 O3 O1 88.5(5) 5_556 2_456
Ga2 O3 O1 70.3(2) 2_566 2_456
Ga3 O3 O1 100.4(3) 1_656 2_456
La O3 O1 128.7(2) 2_565 2_456
O2 O3 O1 39.8(2) 6 2_456
O3 O3 O1 121.0(2) 2 2_456
Ga3 O3 O1 145.9(3) 2_564 2_456
Ga2 O3 O1 20.74(15) . 2_456
O3 O3 O1 73.6(2) 2_556 2_456
Ga1 O3 O1 62.9(2) 1_556 2_456
Nb O3 O1 62.9(2) 1_556 2_456
O2 O3 O1 45.8(2) 1_556 2_456
La O3 O1 156.5(3) 4 2_456
O1 O3 O1 67.07(19) 2_455 2_456
Ga3 O3 O1 108.8(3) 4_445 2_456
La O3 O1 31.45(17) 1_556 2_456
O2 O3 O1 45.2(2) 4_446 2_456
O2 O3 O1 92.5(3) . 2_456
Ga2 O3 O1 122.4(3) 1_665 2_456
La O3 O1 61.3(2) 4_445 2_456
O2 O3 O1 90.8(3) 4_445 2_456
Ga2 O3 O1 114.5(2) 2_565 2_456
O2 O3 O1 105.4(3) 6_655 2_456
Ga3 O3 Ga3 98.9(4) 2_565 1_556
Nb O3 Ga3 149.2(4) . 1_556
Ga1 O3 Ga3 149.2(4) . 1_556
La O3 Ga3 46.8(2) . 1_556
Ga3 O3 Ga3 89.1(3) 4_446 1_556
O3 O3 Ga3 102.32(17) 6 1_556
O3 O3 Ga3 163.3(2) 4 1_556
O3 O3 Ga3 124.4(6) 3 1_556
O2 O3 Ga3 63.4(3) 5_445 1_556
O3 O3 Ga3 73.31(15) 6_556 1_556
O2 O3 Ga3 110.4(4) 2_565 1_556
O2 O3 Ga3 62.9(3) 3_566 1_556
O1 O3 Ga3 46.92(19) . 1_556
O3 O3 Ga3 141.0(4) 5 1_556
O2 O3 Ga3 90.3(2) 3_565 1_556
O3 O3 Ga3 109.4(5) 5_556 1_556
Ga2 O3 Ga3 40.08(12) 2_566 1_556
Ga3 O3 Ga3 140.5(3) 1_656 1_556
La O3 Ga3 88.57(18) 2_565 1_556
O2 O3 Ga3 20.03(19) 6 1_556
O3 O3 Ga3 141.1(2) 2 1_556
Ga3 O3 Ga3 114.6(2) 2_564 1_556
Ga2 O3 Ga3 40.17(10) . 1_556
O3 O3 Ga3 114.4(3) 2_556 1_556
Ga1 O3 Ga3 94.6(2) 1_556 1_556
Nb O3 Ga3 94.6(2) 1_556 1_556
O2 O3 Ga3 21.71(16) 1_556 1_556
La O3 Ga3 149.1(3) 4 1_556
O1 O3 Ga3 60.07(19) 2_455 1_556
Ga3 O3 Ga3 107.8(2) 4_445 1_556
La O3 Ga3 46.58(11) 1_556 1_556
O2 O3 Ga3 87.9(3) 4_446 1_556
O2 O3 Ga3 55.5(2) . 1_556
Ga2 O3 Ga3 109.23(19) 1_665 1_556
La O3 Ga3 79.17(19) 4_445 1_556
O2 O3 Ga3 105.0(3) 4_445 1_556
Ga2 O3 Ga3 74.63(14) 2_565 1_556
O2 O3 Ga3 148.6(4) 6_655 1_556
O1 O3 Ga3 43.22(11) 2_456 1_556
Ga3 O3 O1 71.8(4) 2_565 2_565
Nb O3 O1 73.8(4) . 2_565
Ga1 O3 O1 73.8(4) . 2_565
La O3 O1 102.2(4) . 2_565
Ga3 O3 O1 149.3(3) 4_446 2_565
O3 O3 O1 85.6(7) 6 2_565
O3 O3 O1 61.8(4) 4 2_565
O3 O3 O1 115.6(4) 3 2_565
O2 O3 O1 162.2(5) 5_445 2_565
O3 O3 O1 133.9(5) 6_556 2_565
O2 O3 O1 32.4(3) 2_565 2_565
O2 O3 O1 87.3(4) 3_566 2_565
O1 O3 O1 72.6(3) . 2_565
O3 O3 O1 39.53(19) 5 2_565
O2 O3 O1 47.0(3) 3_565 2_565
O3 O3 O1 84.7(4) 5_556 2_565
Ga2 O3 O1 87.0(3) 2_566 2_565
Ga3 O3 O1 89.3(2) 1_656 2_565
La O3 O1 30.79(11) 2_565 2_565
O2 O3 O1 130.9(3) 6 2_565
O3 O3 O1 82.1(2) 2 2_565
Ga3 O3 O1 46.5(2) 2_564 2_565
Ga2 O3 O1 157.8(3) . 2_565
O3 O3 O1 113.66(16) 2_556 2_565
Ga1 O3 O1 112.7(3) 1_556 2_565
Nb O3 O1 112.7(3) 1_556 2_565
O2 O3 O1 111.8(3) 1_556 2_565
La O3 O1 31.27(10) 4 2_565
O1 O3 O1 122.0(4) 2_455 2_565
Ga3 O3 O1 90.5(3) 4_445 2_565
La O3 O1 127.5(3) 1_556 2_565
O2 O3 O1 150.5(3) 4_446 2_565
O2 O3 O1 82.6(3) . 2_565
Ga2 O3 O1 40.40(19) 1_665 2_565
La O3 O1 138.8(3) 4_445 2_565
O2 O3 O1 110.9(3) 4_445 2_565
Ga2 O3 O1 60.9(2) 2_565 2_565
O2 O3 O1 90.9(2) 6_655 2_565
O1 O3 O1 156.8(3) 2_456 2_565
Ga3 O3 O1 119.4(2) 1_556 2_565
Ga3 O3 La 115.1(4) 2_565 2
Nb O3 La 35.0(3) . 2
Ga1 O3 La 35.0(3) . 2
La O3 La 106.2(3) . 2
Ga3 O3 La 52.94(17) 4_446 2
O3 O3 La 60.4(4) 6 2
O3 O3 La 60.3(4) 4 2
O3 O3 La 14.33(14) 3 2
O2 O3 La 65.6(3) 5_445 2
O3 O3 La 89.2(4) 6_556 2
O2 O3 La 120.4(5) 2_565 2
O2 O3 La 142.4(4) 3_566 2
O1 O3 La 156.3(4) . 2
O3 O3 La 71.01(17) 5 2
O2 O3 La 109.0(3) 3_565 2
O3 O3 La 93.62(18) 5_556 2
Ga2 O3 La 165.0(4) 2_566 2
Ga3 O3 La 52.38(12) 1_656 2
La O3 La 135.8(3) 2_565 2
O2 O3 La 109.9(3) 6 2
O3 O3 La 28.65(17) 2 2
Ga3 O3 La 83.03(18) 2_564 2
Ga2 O3 La 89.5(2) . 2
O3 O3 La 57.5(2) 2_556 2
Ga1 O3 La 84.95(19) 1_556 2
Nb O3 La 84.95(19) 1_556 2
O2 O3 La 140.5(4) 1_556 2
La O3 La 81.78(16) 4 2
O1 O3 La 78.68(18) 2_455 2
Ga3 O3 La 50.00(10) 4_445 2
La O3 La 116.0(3) 1_556 2
O2 O3 La 53.75(18) 4_446 2
O2 O3 La 116.4(3) . 2
Ga2 O3 La 120.0(2) 1_665 2
La O3 La 50.98(12) 4_445 2
O2 O3 La 34.5(2) 4_445 2
Ga2 O3 La 115.7(2) 2_565 2
O2 O3 La 34.1(2) 6_655 2
O1 O3 La 94.8(2) 2_456 2
Ga3 O3 La 128.6(3) 1_556 2
O1 O3 La 107.7(2) 2_565 2
Ga3 O3 Ga3 113.5(4) 2_565 1_655
Nb O3 Ga3 12.4(2) . 1_655
Ga1 O3 Ga3 12.4(2) . 1_655
La O3 Ga3 99.1(3) . 1_655
Ga3 O3 Ga3 99.4(3) 4_446 1_655
O3 O3 Ga3 43.54(18) 6 1_655
O3 O3 Ga3 51.01(14) 4 1_655
O3 O3 Ga3 59.07(16) 3 1_655
O2 O3 Ga3 103.1(3) 5_445 1_655
O3 O3 Ga3 131.6(3) 6_556 1_655
O2 O3 Ga3 89.1(5) 2_565 1_655
O2 O3 Ga3 146.7(4) 3_566 1_655
O1 O3 Ga3 120.4(4) . 1_655
O3 O3 Ga3 25.04(16) 5 1_655
O2 O3 Ga3 67.5(3) 3_565 1_655
O3 O3 Ga3 104.9(4) 5_556 1_655
Ga2 O3 Ga3 148.1(4) 2_566 1_655
Ga3 O3 Ga3 69.26(16) 1_656 1_655
La O3 Ga3 89.4(3) 2_565 1_655
O2 O3 Ga3 129.5(3) 6 1_655
O3 O3 Ga3 18.34(15) 2 1_655
Ga3 O3 Ga3 39.80(11) 2_564 1_655
Ga2 O3 Ga3 125.5(3) . 1_655
O3 O3 Ga3 90.9(3) 2_556 1_655
Ga1 O3 Ga3 116.2(2) 1_556 1_655
Nb O3 Ga3 116.2(2) 1_556 1_655
O2 O3 Ga3 164.8(3) 1_556 1_655
La O3 Ga3 49.16(12) 4 1_655
O1 O3 Ga3 88.4(2) 2_455 1_655
Ga3 O3 Ga3 39.39(10) 4_445 1_655
La O3 Ga3 161.4(3) 1_556 1_655
O2 O3 Ga3 100.2(2) 4_446 1_655
O2 O3 Ga3 94.0(3) . 1_655
Ga2 O3 Ga3 93.9(2) 1_665 1_655
La O3 Ga3 80.14(15) 4_445 1_655
O2 O3 Ga3 50.22(18) 4_445 1_655
Ga2 O3 Ga3 79.97(19) 2_565 1_655
O2 O3 Ga3 52.97(17) 6_655 1_655
O1 O3 Ga3 138.9(3) 2_456 1_655
Ga3 O3 Ga3 145.7(2) 1_556 1_655
O1 O3 Ga3 64.2(2) 2_565 1_655
La O3 Ga3 46.59(9) 2 1_655
Ga3 O3 O3 136.4(5) 2_565 1_554
Nb O3 O3 52.1(3) . 1_554
Ga1 O3 O3 52.1(3) . 1_554
La O3 O3 59.5(3) . 1_554
Ga3 O3 O3 121.3(2) 4_446 1_554
O3 O3 O3 21.8(6) 6 1_554
O3 O3 O3 90.001(1) 4 1_554
O3 O3 O3 90.001(1) 3 1_554
O2 O3 O3 97.3(3) 5_445 1_554
O3 O3 O3 159.8(5) 6_556 1_554
O2 O3 O3 97.2(4) 2_565 1_554
O2 O3 O3 140.5(4) 3_566 1_554
O1 O3 O3 83.5(3) . 1_554
O3 O3 O3 40.6(4) 5 1_554
O2 O3 O3 34.1(2) 3_565 1_554
O3 O3 O3 141.8(4) 5_556 1_554
Ga2 O3 O3 114.7(2) 2_566 1_554
Ga3 O3 O3 111.33(19) 1_656 1_554
La O3 O3 71.14(16) 2_565 1_554
O2 O3 O3 95.3(3) 6 1_554
O3 O3 O3 51.5(3) 2 1_554
Ga3 O3 O3 18.53(18) 2_564 1_554
Ga2 O3 O3 107.64(16) . 1_554
O3 O3 O3 130.9(3) 2_556 1_554
Ga1 O3 O3 157.98(13) 1_556 1_554
Nb O3 O3 157.98(13) 1_556 1_554
O2 O3 O3 122.7(2) 1_556 1_554
La O3 O3 73.50(15) 4 1_554
O1 O3 O3 61.3(3) 2_455 1_554
Ga3 O3 O3 30.10(18) 4_445 1_554
La O3 O3 151.90(13) 1_556 1_554
O2 O3 O3 121.4(2) 4_446 1_554
O2 O3 O3 51.9(2) . 1_554
Ga2 O3 O3 105.26(16) 1_665 1_554
La O3 O3 74.92(16) 4_445 1_554
O2 O3 O3 53.3(2) 4_445 1_554
Ga2 O3 O3 40.78(12) 2_565 1_554
O2 O3 O3 94.3(2) 6_655 1_554
O1 O3 O3 128.4(2) 2_456 1_554
Ga3 O3 O3 105.64(13) 1_556 1_554
O1 O3 O3 64.9(2) 2_565 1_554
La O3 O3 75.69(14) 2 1_554
Ga3 O3 O3 42.07(12) 1_655 1_554
Ga3 O3 O3 43.6(5) 2_565 1_556
Nb O3 O3 127.9(3) . 1_556
Ga1 O3 O3 127.9(3) . 1_556
La O3 O3 120.5(3) . 1_556
Ga3 O3 O3 58.7(2) 4_446 1_556
O3 O3 O3 158.2(6) 6 1_556
O3 O3 O3 90.000(1) 4 1_556
O3 O3 O3 90.000(1) 3 1_556
O2 O3 O3 82.7(3) 5_445 1_556
O3 O3 O3 20.2(5) 6_556 1_556
O2 O3 O3 82.8(4) 2_565 1_556
O2 O3 O3 39.5(4) 3_566 1_556
O1 O3 O3 96.5(3) . 1_556
O3 O3 O3 139.4(4) 5 1_556
O2 O3 O3 145.9(2) 3_565 1_556
O3 O3 O3 38.2(4) 5_556 1_556
Ga2 O3 O3 65.3(2) 2_566 1_556
Ga3 O3 O3 68.67(18) 1_656 1_556
La O3 O3 108.86(16) 2_565 1_556
O2 O3 O3 84.7(3) 6 1_556
O3 O3 O3 128.5(3) 2 1_556
Ga3 O3 O3 161.47(18) 2_564 1_556
Ga2 O3 O3 72.36(16) . 1_556
O3 O3 O3 49.1(3) 2_556 1_556
Ga1 O3 O3 22.02(13) 1_556 1_556
Nb O3 O3 22.02(13) 1_556 1_556
O2 O3 O3 57.3(2) 1_556 1_556
La O3 O3 106.50(15) 4 1_556
O1 O3 O3 118.7(3) 2_455 1_556
Ga3 O3 O3 149.90(18) 4_445 1_556
La O3 O3 28.10(13) 1_556 1_556
O2 O3 O3 58.6(2) 4_446 1_556
O2 O3 O3 128.1(2) . 1_556
Ga2 O3 O3 74.74(16) 1_665 1_556
La O3 O3 105.08(16) 4_445 1_556
O2 O3 O3 126.7(2) 4_445 1_556
Ga2 O3 O3 139.21(12) 2_565 1_556
O2 O3 O3 85.7(2) 6_655 1_556
O1 O3 O3 51.6(2) 2_456 1_556
Ga3 O3 O3 74.36(13) 1_556 1_556
O1 O3 O3 115.1(2) 2_565 1_556
La O3 O3 104.31(14) 2 1_556
Ga3 O3 O3 137.93(12) 1_655 1_556
O3 O3 O3 179.999(2) 1_554 1_556
Ga3 O3 O2 57.4(3) 2_565 4_456
Nb O3 O2 153.7(6) . 4_456
Ga1 O3 O2 153.7(6) . 4_456
La O3 O2 80.9(3) . 4_456
Ga3 O3 O2 115.9(4) 4_446 4_456
O3 O3 O2 130.9(5) 6 4_456
O3 O3 O2 118.1(6) 4 4_456
O3 O3 O2 153.5(2) 3 4_456
O2 O3 O2 109.9(4) 5_445 4_456
O3 O3 O2 78.8(4) 6_556 4_456
O2 O3 O2 61.2(3) 2_565 4_456
O2 O3 O2 26.24(19) 3_566 4_456
O1 O3 O2 34.5(3) . 4_456
O3 O3 O2 118.4(2) 5 4_456
O2 O3 O2 83.2(2) 3_565 4_456
O3 O3 O2 77.3(3) 5_556 4_456
Ga2 O3 O2 9.66(19) 2_566 4_456
Ga3 O3 O2 119.6(3) 1_656 4_456
La O3 O2 54.22(19) 2_565 4_456
O2 O3 O2 69.5(3) 6 4_456
O3 O3 O2 161.7(4) 2 4_456
Ga3 O3 O2 108.8(3) 2_564 4_456
Ga2 O3 O2 85.9(2) . 4_456
O3 O3 O2 111.0(4) 2_556 4_456
Ga1 O3 O2 83.3(2) 1_556 4_456
Nb O3 O2 83.3(2) 1_556 4_456
O2 O3 O2 33.04(18) 1_556 4_456
La O3 O2 102.0(3) 4 4_456
O1 O3 O2 105.8(3) 2_455 4_456
Ga3 O3 O2 141.1(3) 4_445 4_456
La O3 O2 52.86(15) 1_556 4_456
O2 O3 O2 115.2(3) 4_446 4_456
O2 O3 O2 73.48(14) . 4_456
Ga2 O3 O2 59.6(2) 1_665 4_456
La O3 O2 128.8(3) 4_445 4_456
O2 O3 O2 152.3(5) 4_445 4_456
Ga2 O3 O2 76.3(2) 2_565 4_456
O2 O3 O2 139.1(2) 6_655 4_456
O1 O3 O2 77.0(2) 2_456 4_456
Ga3 O3 O2 49.65(19) 1_556 4_456
O1 O3 O2 79.9(3) 2_565 4_456
La O3 O2 167.8(3) 2 4_456
Ga3 O3 O2 143.4(3) 1_655 4_456
O3 O3 O2 116.5(2) 1_554 4_456
O3 O3 O2 63.5(2) 1_556 4_456
Ga3 O3 O2 48.8(3) 2_565 1_656
Nb O3 O2 68.7(3) . 1_656
Ga1 O3 O2 68.7(3) . 1_656
La O3 O2 172.9(4) . 1_656
Ga3 O3 O2 70.4(2) 4_446 1_656
O3 O3 O2 117.1(2) 6 1_656
O3 O3 O2 27.04(18) 4 1_656
O3 O3 O2 59.2(3) 3 1_656
O2 O3 O2 109.9(5) 5_445 1_656
O3 O3 O2 67.5(2) 6_556 1_656
O2 O3 O2 64.8(5) 2_565 1_656
O2 O3 O2 82.9(3) 3_566 1_656
O1 O3 O2 134.7(4) . 1_656
O3 O3 O2 78.8(4) 5 1_656
O2 O3 O2 124.5(4) 3_565 1_656
O3 O3 O2 30.6(3) 5_556 1_656
Ga2 O3 O2 114.2(3) 2_566 1_656
Ga3 O3 O2 14.82(17) 1_656 1_656
La O3 O2 103.6(3) 2_565 1_656
O2 O3 O2 144.3(4) 6 1_656
O3 O3 O2 73.7(3) 2 1_656
Ga3 O3 O2 105.7(3) 2_564 1_656
Ga2 O3 O2 120.5(3) . 1_656
O3 O3 O2 33.51(19) 2_556 1_656
Ga1 O3 O2 44.03(17) 1_556 1_656
Nb O3 O2 44.03(17) 1_556 1_656
O2 O3 O2 118.8(4) 1_556 1_656
La O3 O2 52.72(16) 4 1_656
O1 O3 O2 143.8(3) 2_455 1_656
Ga3 O3 O2 109.1(3) 4_445 1_656
La O3 O2 91.3(2) 1_556 1_656
O2 O3 O2 71.5(2) 4_446 1_656
O2 O3 O2 162.5(4) . 1_656
Ga2 O3 O2 59.8(2) 1_665 1_656
La O3 O2 111.7(3) 4_445 1_656
O2 O3 O2 100.89(17) 4_445 1_656
Ga2 O3 O2 140.2(3) 2_565 1_656
O2 O3 O2 33.0(4) 6_655 1_656
O1 O3 O2 104.5(3) 2_456 1_656
Ga3 O3 O2 137.7(3) 1_556 1_656
O1 O3 O2 80.1(2) 2_565 1_656
La O3 O2 66.7(2) 2 1_656
Ga3 O3 O2 75.8(2) 1_655 1_656
O3 O3 O2 116.6(2) 1_554 1_656
O3 O3 O2 63.4(2) 1_556 1_656
O2 O3 O2 106.2(5) 4_456 1_656
Ga3 O3 La 26.3(2) 2_565 2_566
Nb O3 La 136.7(4) . 2_566
Ga1 O3 La 136.7(4) . 2_566
La O3 La 112.4(3) . 2_566
Ga3 O3 La 101.4(3) 4_446 2_566
O3 O3 La 158.1(7) 6 2_566
O3 O3 La 90.8(4) 4 2_566
O3 O3 La 126.40(18) 3 2_566
O2 O3 La 118.1(4) 5_445 2_566
O3 O3 La 62.5(4) 6_556 2_566
O2 O3 La 47.9(3) 2_565 2_566
O2 O3 La 11.5(3) 3_566 2_566
O1 O3 La 64.9(3) . 2_566
O3 O3 La 115.4(3) 5 2_566
O2 O3 La 104.2(3) 3_565 2_566
O3 O3 La 45.5(2) 5_556 2_566
Ga2 O3 La 39.61(11) 2_566 2_566
Ga3 O3 La 87.78(19) 1_656 2_566
La O3 La 66.20(16) 2_565 2_566
O2 O3 La 93.1(3) 6 2_566
O3 O3 La 145.0(2) 2 2_566
Ga3 O3 La 122.0(3) 2_564 2_566
Ga2 O3 La 98.4(2) . 2_566
O3 O3 La 82.4(3) 2_556 2_566
Ga1 O3 La 56.61(12) 1_556 2_566
Nb O3 La 56.61(12) 1_556 2_566
O2 O3 La 52.43(19) 1_556 2_566
La O3 La 86.1(2) 4 2_566
O1 O3 La 133.9(3) 2_455 2_566
Ga3 O3 La 167.4(3) 4_445 2_566
La O3 La 49.84(11) 1_556 2_566
O2 O3 La 101.2(3) 4_446 2_566
O2 O3 La 104.8(3) . 2_566
Ga2 O3 La 41.90(9) 1_665 2_566
La O3 La 142.4(3) 4_445 2_566
O2 O3 La 169.3(4) 4_445 2_566
Ga2 O3 La 102.9(2) 2_565 2_566
O2 O3 La 107.4(2) 6_655 2_566
O1 O3 La 81.2(2) 2_456 2_566
Ga3 O3 La 73.83(13) 1_556 2_566
O1 O3 La 78.2(2) 2_565 2_566
La O3 La 138.8(2) 2 2_566
Ga3 O3 La 135.3(3) 1_655 2_566
O3 O3 La 137.34(15) 1_554 2_566
O3 O3 La 42.66(15) 1_556 2_566
O2 O3 La 31.8(2) 4_456 2_566
O2 O3 La 74.6(3) 1_656 2_566
Ga3 O3 O2 128.9(6) 2_565 2_455
Nb O3 O2 106.7(4) . 2_455
Ga1 O3 O2 106.7(4) . 2_455
La O3 O2 51.3(3) . 2_455
Ga3 O3 O2 55.2(3) 4_446 2_455
O3 O3 O2 76.3(5) 6 2_455
O3 O3 O2 138.1(5) 4 2_455
O3 O3 O2 78.3(5) 3 2_455
O2 O3 O2 16.9(4) 5_445 2_455
O3 O3 O2 70.1(4) 6_556 2_455
O2 O3 O2 158.3(6) 2_565 2_455
O2 O3 O2 101.8(4) 3_566 2_455
O1 O3 O2 89.9(3) . 2_455
O3 O3 O2 130.2(4) 5 2_455
O2 O3 O2 106.3(3) 3_565 2_455
O3 O3 O2 120.9(5) 5_556 2_455
Ga2 O3 O2 87.9(3) 2_566 2_455
Ga3 O3 O2 114.5(3) 1_656 2_455
La O3 O2 129.5(3) 2_565 2_455
O2 O3 O2 30.1(2) 6 2_455
O3 O3 O2 97.4(2) 2 2_455
Ga3 O3 O2 112.0(2) 2_564 2_455
Ga2 O3 O2 14.92(17) . 2_455
O3 O3 O2 92.32(18) 2_556 2_455
Ga1 O3 O2 93.2(3) 1_556 2_455
Nb O3 O2 93.2(3) 1_556 2_455
O2 O3 O2 64.9(4) 1_556 2_455
La O3 O2 160.2(3) 4 2_455
O1 O3 O2 33.0(2) 2_455 2_455
Ga3 O3 O2 75.1(2) 4_445 2_455
La O3 O2 65.2(2) 1_556 2_455
O2 O3 O2 54.1(2) 4_446 2_455
O2 O3 O2 71.2(3) . 2_455
Ga2 O3 O2 154.7(3) 1_665 2_455
La O3 O2 32.10(19) 4_445 2_455
O2 O3 O2 61.4(2) 4_445 2_455
Ga2 O3 O2 92.5(2) 2_565 2_455
O2 O3 O2 107.5(4) 6_655 2_455
O1 O3 O2 35.0(2) 2_456 2_455
Ga3 O3 O2 48.3(2) 1_556 2_455
O1 O3 O2 153.3(3) 2_565 2_455
La O3 O2 80.4(2) 2 2_455
Ga3 O3 O2 111.4(2) 1_655 2_455
O3 O3 O2 93.82(18) 1_554 2_455
O3 O3 O2 86.18(18) 1_556 2_455
O2 O3 O2 97.2(4) 4_456 2_455
O2 O3 O2 125.6(3) 1_656 2_455
La O3 O2 113.0(3) 2_566 2_455
Ga3 O3 O2 99.7(5) 2_565 4_455
Nb O3 O2 106.0(5) . 4_455
Ga1 O3 O2 106.0(5) . 4_455
La O3 O2 50.9(3) . 4_455
Ga3 O3 O2 155.3(4) 4_446 4_455
O3 O3 O2 75.4(5) 6 4_455
O3 O3 O2 116.8(6) 4 4_455
O3 O3 O2 148.72(16) 3 4_455
O2 O3 O2 116.5(3) 5_445 4_455
O3 O3 O2 134.5(3) 6_556 4_455
O2 O3 O2 70.1(3) 2_565 4_455
O2 O3 O2 82.6(3) 3_566 4_455
O1 O3 O2 26.6(3) . 4_455
O3 O3 O2 74.8(2) 5 4_455
O2 O3 O2 26.51(18) 3_565 4_455
O3 O3 O2 122.1(2) 5_556 4_455
Ga2 O3 O2 56.8(2) 2_566 4_455
Ga3 O3 O2 144.6(4) 1_656 4_455
La O3 O2 30.3(2) 2_565 4_455
O2 O3 O2 75.7(3) 6 4_455
O3 O3 O2 108.6(4) 2 4_455
Ga3 O3 O2 54.06(19) 2_564 4_455
Ga2 O3 O2 102.6(2) . 4_455
O3 O3 O2 163.7(3) 2_556 4_455
Ga1 O3 O2 139.7(3) 1_556 4_455
Nb O3 O2 139.7(3) 1_556 4_455
O2 O3 O2 73.13(15) 1_556 4_455
La O3 O2 86.0(3) 4 4_455
O1 O3 O2 78.9(2) 2_455 4_455
Ga3 O3 O2 85.8(2) 4_445 4_455
La O3 O2 104.8(2) 1_556 4_455
O2 O3 O2 154.1(5) 4_446 4_455
O2 O3 O2 31.38(18) . 4_455
Ga2 O3 O2 76.4(3) 1_665 4_455
La O3 O2 110.6(3) 4_445 4_455
O2 O3 O2 106.4(3) 4_445 4_455
Ga2 O3 O2 19.65(13) 2_565 4_455
O2 O3 O2 142.4(3) 6_655 4_455
O1 O3 O2 111.8(2) 2_456 4_455
Ga3 O3 O2 68.67(18) 1_556 4_455
O1 O3 O2 55.3(3) 2_565 4_455
La O3 O2 134.4(3) 2 4_455
Ga3 O3 O2 93.8(2) 1_655 4_455
O3 O3 O2 58.76(15) 1_554 4_455
O3 O3 O2 121.24(15) 1_556 4_455
O2 O3 O2 57.71(17) 4_456 4_455
O2 O3 O2 133.6(4) 1_656 4_455
La O3 O2 83.3(2) 2_566 4_455
O2 O3 O2 100.5(3) 2_455 4_455
Ga3 O3 O1 13.1(3) 2_565 2_566
Nb O3 O1 109.2(4) . 2_566
Ga1 O3 O1 109.2(4) . 2_566
La O3 O1 132.6(3) . 2_566
Ga3 O3 O1 107.0(3) 4_446 2_566
O3 O3 O1 144.2(7) 6 2_566
O3 O3 O1 64.4(4) 4 2_566
O3 O3 O1 113.3(4) 3 2_566
O2 O3 O1 138.5(5) 5_445 2_566
O3 O3 O1 75.0(4) 6_556 2_566
O2 O3 O1 27.0(3) 2_565 2_566
O2 O3 O1 39.1(3) 3_566 2_566
O1 O3 O1 80.4(3) . 2_566
O3 O3 O1 91.0(4) 5 2_566
O2 O3 O1 99.4(4) 3_565 2_566
O3 O3 O1 33.76(15) 5_556 2_566
Ga2 O3 O1 63.60(17) 2_566 2_566
Ga3 O3 O1 69.14(17) 1_656 2_566
La O3 O1 61.5(2) 2_565 2_566
O2 O3 O1 120.6(3) 6 2_566
O3 O3 O1 117.81(17) 2 2_566
Ga3 O3 O1 105.8(3) 2_564 2_566
Ga2 O3 O1 123.9(3) . 2_566
O3 O3 O1 75.2(2) 2_556 2_566
Ga1 O3 O1 58.06(18) 1_556 2_566
Nb O3 O1 58.06(18) 1_556 2_566
O2 O3 O1 80.0(2) 1_556 2_566
La O3 O1 59.27(19) 4 2_566
O1 O3 O1 160.1(2) 2_455 2_566
Ga3 O3 O1 146.0(3) 4_445 2_566
La O3 O1 73.6(2) 1_556 2_566
O2 O3 O1 107.5(3) 4_446 2_566
O2 O3 O1 117.9(3) . 2_566
Ga2 O3 O1 18.94(14) 1_665 2_566
La O3 O1 159.1(3) 4_445 2_566
O2 O3 O1 153.3(3) 4_445 2_566
Ga2 O3 O1 105.9(3) 2_565 2_566
O2 O3 O1 86.7(2) 6_655 2_566
O1 O3 O1 104.5(4) 2_456 2_566
Ga3 O3 O1 101.05(19) 1_556 2_566
O1 O3 O1 59.34(14) 2_565 2_566
La O3 O1 120.81(19) 2 2_566
Ga3 O3 O1 107.9(3) 1_655 2_566
O3 O3 O1 124.2(2) 1_554 2_566
O3 O3 O1 55.8(2) 1_556 2_566
O2 O3 O1 54.3(2) 4_456 2_566
O2 O3 O1 54.4(2) 1_656 2_566
La O3 O1 27.68(10) 2_566 2_566
O2 O3 O1 138.8(3) 2_455 2_566
O2 O3 O1 88.5(3) 4_455 2_566
Ga3 O3 O2 93.4(4) 2_565 1_655
Nb O3 O2 21.5(3) . 1_655
Ga1 O3 O2 21.5(3) . 1_655
La O3 O2 117.7(4) . 1_655
Ga3 O3 O2 99.9(3) 4_446 1_655
O3 O3 O2 63.5(3) 6 1_655
O3 O3 O2 31.75(17) 4 1_655
O3 O3 O2 60.7(3) 3 1_655
O2 O3 O2 116.5(4) 5_445 1_655
O3 O3 O2 121.63(19) 6_556 1_655
O2 O3 O2 73.3(6) 2_565 1_655
O2 O3 O2 127.8(3) 3_566 1_655
O1 O3 O2 124.3(4) . 1_655
O3 O3 O2 25.0(3) 5 1_655
O2 O3 O2 75.8(3) 3_565 1_655
O3 O3 O2 85.6(4) 5_556 1_655
Ga2 O3 O2 141.9(4) 2_566 1_655
Ga3 O3 O2 54.69(18) 1_656 1_655
La O3 O2 85.2(3) 2_565 1_655
O2 O3 O2 149.7(3) 6 1_655
O3 O3 O2 30.8(2) 2 1_655
Ga3 O3 O2 50.14(17) 2_564 1_655
Ga2 O3 O2 140.5(3) . 1_655
O3 O3 O2 79.9(3) 2_556 1_655
Ga1 O3 O2 101.1(2) 1_556 1_655
Nb O3 O2 101.1(2) 1_556 1_655
O2 O3 O2 166.6(5) 1_556 1_655
La O3 O2 32.03(17) 4 1_655
O1 O3 O2 108.4(3) 2_455 1_655
Ga3 O3 O2 59.46(18) 4_445 1_655
La O3 O2 149.2(3) 1_556 1_655
O2 O3 O2 101.06(18) 4_446 1_655
O2 O3 O2 109.0(3) . 1_655
Ga2 O3 O2 76.7(2) 1_665 1_655
La O3 O2 96.1(2) 4_445 1_655
O2 O3 O2 67.28(19) 4_445 1_655
Ga2 O3 O2 90.9(2) 2_565 1_655
O2 O3 O2 43.1(3) 6_655 1_655
O1 O3 O2 146.0(3) 2_456 1_655
Ga3 O3 O2 164.2(3) 1_556 1_655
O1 O3 O2 55.5(2) 2_565 1_655
La O3 O2 52.29(17) 2 1_655
Ga3 O3 O2 20.15(13) 1_655 1_655
O3 O3 O2 58.60(16) 1_554 1_655
O3 O3 O2 121.40(16) 1_556 1_655
O2 O3 O2 133.6(4) 4_456 1_655
O2 O3 O2 58.02(19) 1_656 1_655
La O3 O2 116.4(3) 2_566 1_655
O2 O3 O2 128.2(2) 2_455 1_655
O2 O3 O2 99.6(4) 4_455 1_655
O1 O3 O2 88.7(3) 2_566 1_655
Ga3 O3 O1 124.0(5) 2_565 1_545
Nb O3 O1 61.0(4) . 1_545
Ga1 O3 O1 61.0(4) . 1_545
La O3 O1 90.2(3) . 1_545
Ga3 O3 O1 35.2(2) 4_446 1_545
O3 O3 O1 65.3(6) 6 1_545
O3 O3 O1 85.7(4) 4 1_545
O3 O3 O1 26.0(4) 3 1_545
O2 O3 O1 37.5(3) 5_445 1_545
O3 O3 O1 74.4(5) 6_556 1_545
O2 O3 O1 146.1(4) 2_565 1_545
O2 O3 O1 131.9(5) 3_566 1_545
O1 O3 O1 140.7(3) . 1_545
O3 O3 O1 96.04(19) 5 1_545
O2 O3 O1 119.2(3) 3_565 1_545
O3 O3 O1 101.57(18) 5_556 1_545
Ga2 O3 O1 137.9(4) 2_566 1_545
Ga3 O3 O1 68.95(19) 1_656 1_545
La O3 O1 157.1(3) 2_565 1_545
O2 O3 O1 83.1(3) 6 1_545
O3 O3 O1 52.82(19) 2 1_545
Ga3 O3 O1 99.9(2) 2_564 1_545
Ga2 O3 O1 61.30(18) . 1_545
O3 O3 O1 60.0(2) 2_556 1_545
Ga1 O3 O1 81.4(2) 1_556 1_545
Nb O3 O1 81.4(2) 1_556 1_545
O2 O3 O1 113.0(3) 1_556 1_545
La O3 O1 109.86(19) 4 1_545
O1 O3 O1 60.5(2) 2_455 1_545
Ga3 O3 O1 56.1(2) 4_445 1_545
La O3 O1 94.5(3) 1_556 1_545
O2 O3 O1 35.4(2) 4_446 1_545
O2 O3 O1 106.9(3) . 1_545
Ga2 O3 O1 143.0(2) 1_665 1_545
La O3 O1 28.24(10) 4_445 1_545
O2 O3 O1 32.9(2) 4_445 1_545
Ga2 O3 O1 117.6(2) 2_565 1_545
O2 O3 O1 55.9(2) 6_655 1_545
O1 O3 O1 68.3(2) 2_456 1_545
Ga3 O3 O1 100.8(2) 1_556 1_545
O1 O3 O1 134.8(2) 2_565 1_545
La O3 O1 28.16(10) 2 1_545
Ga3 O3 O1 71.01(17) 1_655 1_545
O3 O3 O1 86.17(19) 1_554 1_545
O3 O3 O1 93.83(19) 1_556 1_545
O2 O3 O1 145.3(3) 4_456 1_545
O2 O3 O1 83.5(2) 1_656 1_545
La O3 O1 136.4(3) 2_566 1_545
O2 O3 O1 53.0(2) 2_455 1_545
O2 O3 O1 136.2(3) 4_455 1_545
O1 O3 O1 135.0(2) 2_566 1_545
O2 O3 O1 80.1(2) 1_655 1_545
Ga3 O3 O2 43.4(4) 2_565 5
Nb O3 O2 79.0(4) . 5
Ga1 O3 O2 79.0(4) . 5
La O3 O2 133.0(5) . 5
Ga3 O3 O2 121.0(3) 4_446 5
O3 O3 O2 111.4(6) 6 5
O3 O3 O2 43.0(5) 4 5
O3 O3 O2 102.8(5) 3 5
O2 O3 O2 160.9(5) 5_445 5
O3 O3 O2 102.6(4) 6_556 5
O2 O3 O2 17.8(5) 2_565 5
O2 O3 O2 71.4(3) 3_566 5
O1 O3 O2 89.9(3) . 5
O3 O3 O2 57.4(3) 5 5
O2 O3 O2 79.6(3) 3_565 5
O3 O3 O2 52.2(3) 5_556 5
Ga2 O3 O2 87.9(3) 2_566 5
Ga3 O3 O2 63.5(2) 1_656 5
La O3 O2 52.6(2) 2_565 5
O2 O3 O2 147.4(3) 6 5
O3 O3 O2 88.25(15) 2 5
Ga3 O3 O2 75.5(3) 2_564 5
Ga2 O3 O2 157.5(3) . 5
O3 O3 O2 83.5(2) 2_556 5
Ga1 O3 O2 80.1(2) 1_556 5
Nb O3 O2 80.1(2) 1_556 5
O2 O3 O2 109.7(3) 1_556 5
La O3 O2 26.11(13) 4 5
O1 O3 O2 154.3(4) 2_455 5
Ga3 O3 O2 112.3(3) 4_445 5
La O3 O2 107.2(2) 1_556 5
O2 O3 O2 122.0(2) 4_446 5
O2 O3 O2 113.0(4) . 5
Ga2 O3 O2 19.21(13) 1_665 5
La O3 O2 152.9(2) 4_445 5
O2 O3 O2 124.8(3) 4_445 5
Ga2 O3 O2 92.5(3) 2_565 5
O2 O3 O2 73.1(3) 6_655 5
O1 O3 O2 137.3(3) 2_456 5
Ga3 O3 O2 127.9(2) 1_556 5
O1 O3 O2 32.7(2) 2_565 5
La O3 O2 102.6(2) 2 5
Ga3 O3 O2 75.3(2) 1_655 5
O3 O3 O2 93.82(19) 1_554 5
O3 O3 O2 86.18(19) 1_556 5
O2 O3 O2 78.4(3) 4_456 5
O2 O3 O2 51.03(14) 1_656 5
La O3 O2 60.06(17) 2_566 5
O2 O3 O2 172.3(4) 2_455 5
O2 O3 O2 82.6(4) 4_455 5
O1 O3 O2 33.69(18) 2_566 5
O2 O3 O2 57.5(2) 1_655 5
O1 O3 O2 128.7(2) 1_545 5
Ga3 O3 O3 63.7(5) 2_565 3_565
Nb O3 O3 122.1(6) . 3_565
Ga1 O3 O3 122.1(6) . 3_565
La O3 O3 80.98(18) . 3_565
Ga3 O3 O3 147.4(2) 4_446 3_565
O3 O3 O3 109.8(5) 6 3_565
O3 O3 O3 102.3(7) 4 3_565
O3 O3 O3 162.3(7) 3 3_565
O2 O3 O3 135.6(4) 5_445 3_565
O3 O3 O3 108.4(4) 6_556 3_565
O2 O3 O3 42.4(4) 2_565 3_565
O2 O3 O3 50.7(4) 3_566 3_565
O1 O3 O3 30.63(6) . 3_565
O3 O3 O3 86.19(17) 5 3_565
O2 O3 O3 56.1(2) 3_565 3_565
O3 O3 O3 86.38(18) 5_556 3_565
Ga2 O3 O3 38.08(12) 2_566 3_565
Ga3 O3 O3 119.9(4) 1_656 3_565
La O3 O3 21.81(16) 2_565 3_565
O2 O3 O3 89.3(2) 6 3_565
O3 O3 O3 129.4(3) 2 3_565
Ga3 O3 O3 78.2(2) 2_564 3_565
Ga2 O3 O3 112.6(2) . 3_565
O3 O3 O3 127.8(2) 2_556 3_565
Ga1 O3 O3 104.6(2) 1_556 3_565
Nb O3 O3 104.6(2) 1_556 3_565
O2 O3 O3 62.73(17) 1_556 3_565
La O3 O3 76.6(3) 4 3_565
O1 O3 O3 110.68(18) 2_455 3_565
Ga3 O3 O3 119.64(16) 4_445 3_565
La O3 O3 85.08(11) 1_556 3_565
O2 O3 O3 146.9(2) 4_446 3_565
O2 O3 O3 64.6(2) . 3_565
Ga2 O3 O3 45.8(3) 1_665 3_565
La O3 O3 142.9(3) 4_445 3_565
O2 O3 O3 142.0(2) 4_445 3_565
Ga2 O3 O3 55.55(9) 2_565 3_565
O2 O3 O3 132.6(4) 6_655 3_565
O1 O3 O3 108.39(17) 2_456 3_565
Ga3 O3 O3 72.47(12) 1_556 3_565
O1 O3 O3 49.2(2) 2_565 3_565
La O3 O3 156.8(3) 2 3_565
Ga3 O3 O3 111.0(3) 1_655 3_565
O3 O3 O3 90.0 1_554 3_565
O3 O3 O3 90.0 1_556 3_565
O2 O3 O3 32.44(15) 4_456 3_565
O2 O3 O3 105.4(4) 1_656 3_565
La O3 O3 48.33(17) 2_566 3_565
O2 O3 O3 119.4(3) 2_455 3_565
O2 O3 O3 36.28(17) 4_455 3_565
O1 O3 O3 53.3(3) 2_566 3_565
O2 O3 O3 104.7(4) 1_655 3_565
O1 O3 O3 171.1(3) 1_545 3_565
O2 O3 O3 59.5(3) 5 3_565
Ga3 O3 O3 103.6(3) 2_565 4_455
Nb O3 O3 140.4(3) . 4_455
Ga1 O3 O3 140.4(3) . 4_455
La O3 O3 35.7(3) . 4_455
Ga3 O3 O3 107.4(4) 4_446 4_455
O3 O3 O3 92.17(5) 6 4_455
O3 O3 O3 162.3(7) 4 4_455
O3 O3 O3 137.7(7) 3 4_455
O2 O3 O3 76.2(4) 5_445 4_455
O3 O3 O3 92.02(5) 6_556 4_455
O2 O3 O3 101.8(4) 2_565 4_455
O2 O3 O3 68.2(2) 3_566 4_455
O1 O3 O3 30.63(6) . 4_455
O3 O3 O3 121.8(2) 5 4_455
O2 O3 O3 70.9(2) 3_565 4_455
O3 O3 O3 120.1(3) 5_556 4_455
Ga2 O3 O3 38.08(12) 2_566 4_455
Ga3 O3 O3 158.5(2) 1_656 4_455
La O3 O3 72.21(14) 2_565 4_455
O2 O3 O3 29.7(2) 6 4_455
O3 O3 O3 135.6(3) 2 4_455
Ga3 O3 O3 96.24(13) 2_564 4_455
Ga2 O3 O3 55.7(2) . 4_455
O3 O3 O3 133.6(3) 2_556 4_455
Ga1 O3 O3 111.49(15) 1_556 4_455
Nb O3 O3 111.49(15) 1_556 4_455
O2 O3 O3 32.8(2) 1_556 4_455
La O3 O3 133.6(3) 4 4_455
O1 O3 O3 58.7(2) 2_455 4_455
Ga3 O3 O3 100.1(2) 4_445 4_455
La O3 O3 63.64(14) 1_556 4_455
O2 O3 O3 106.2(4) 4_446 4_455
O2 O3 O3 38.2(2) . 4_455
Ga2 O3 O3 103.3(2) 1_665 4_455
La O3 O3 85.8(3) 4_445 4_455
O2 O3 O3 105.2(4) 4_445 4_455
Ga2 O3 O3 55.55(9) 2_565 4_455
O2 O3 O3 166.6(4) 6_655 4_455
O1 O3 O3 62.4(2) 2_456 4_455
Ga3 O3 O3 19.49(13) 1_556 4_455
O1 O3 O3 102.4(2) 2_565 4_455
La O3 O3 136.5(4) 2 4_455
Ga3 O3 O3 132.02(12) 1_655 4_455
O3 O3 O3 90.0 1_554 4_455
O3 O3 O3 90.0 1_556 4_455
O2 O3 O3 47.1(2) 4_456 4_455
O2 O3 O3 150.7(2) 1_656 4_455
La O3 O3 77.36(13) 2_566 4_455
O2 O3 O3 59.5(3) 2_455 4_455
O2 O3 O3 49.46(16) 4_455 4_455
O1 O3 O3 101.34(19) 2_566 4_455
O2 O3 O3 146.4(2) 1_655 4_455
O1 O3 O3 111.9(3) 1_545 4_455
O2 O3 O3 119.4(3) 5 4_455
O3 O3 O3 60.0 3_565 4_455
Ga3 O3 Ga2 168.7(4) 2_565 1_554
Nb O3 Ga2 77.6(3) . 1_554
Ga1 O3 Ga2 77.6(3) . 1_554
La O3 Ga2 30.55(16) . 1_554
Ga3 O3 Ga2 92.5(3) 4_446 1_554
O3 O3 Ga2 31.1(2) 6 1_554
O3 O3 Ga2 124.5(2) 4 1_554
O3 O3 Ga2 85.8(4) 3 1_554
O2 O3 Ga2 56.6(3) 5_445 1_554
O3 O3 Ga2 119.4(5) 6_556 1_554
O2 O3 Ga2 136.2(4) 2_565 1_554
O2 O3 Ga2 133.6(3) 3_566 1_554
O1 O3 Ga2 81.0(3) . 1_554
O3 O3 Ga2 83.7(4) 5 1_554
O2 O3 Ga2 62.0(3) 3_565 1_554
O3 O3 Ga2 166.7(3) 5_556 1_554
Ga2 O3 Ga2 103.2(2) 2_566 1_554
Ga3 O3 Ga2 128.5(2) 1_656 1_554
La O3 Ga2 98.5(2) 2_565 1_554
O2 O3 Ga2 55.4(2) 6 1_554
O3 O3 Ga2 70.7(3) 2 1_554
Ga3 O3 Ga2 62.36(14) 2_564 1_554
Ga2 O3 Ga2 63.24(15) . 1_554
O3 O3 Ga2 125.4(2) 2_556 1_554
Ga1 O3 Ga2 140.3(3) 1_556 1_554
Nb O3 Ga2 140.3(3) 1_556 1_554
O2 O3 Ga2 93.6(2) 1_556 1_554
La O3 Ga2 117.3(2) 4 1_554
O1 O3 Ga2 16.92(19) 2_455 1_554
Ga3 O3 Ga2 35.85(8) 4_445 1_554
La O3 Ga2 111.0(2) 1_556 1_554
O2 O3 Ga2 91.9(3) 4_446 1_554
O2 O3 Ga2 42.0(2) . 1_554
Ga2 O3 Ga2 144.3(3) 1_665 1_554
La O3 Ga2 40.60(9) 4_445 1_554
O2 O3 Ga2 41.8(2) 4_445 1_554
Ga2 O3 Ga2 53.78(11) 2_565 1_554
O2 O3 Ga2 109.4(2) 6_655 1_554
O1 O3 Ga2 84.0(2) 2_456 1_554
Ga3 O3 Ga2 72.04(14) 1_556 1_554
O1 O3 Ga2 106.4(3) 2_565 1_554
La O3 Ga2 76.20(14) 2 1_554
Ga3 O3 Ga2 74.39(14) 1_655 1_554
O3 O3 Ga2 44.40(15) 1_554 1_554
O3 O3 Ga2 135.60(15) 1_556 1_554
O2 O3 Ga2 111.4(3) 4_456 1_554
O2 O3 Ga2 142.4(3) 1_656 1_554
La O3 Ga2 142.81(19) 2_566 1_554
O2 O3 Ga2 49.68(15) 2_455 1_554
O2 O3 Ga2 71.0(2) 4_455 1_554
O1 O3 Ga2 159.4(3) 2_566 1_554
O2 O3 Ga2 94.5(2) 1_655 1_554
O1 O3 Ga2 65.47(18) 1_545 1_554
O2 O3 Ga2 137.8(3) 5 1_554
O3 O3 Ga2 106.36(13) 3_565 1_554
O3 O3 Ga2 65.55(19) 4_455 1_554
Ga3 O3 O2 46.3(4) 2_565 6_665
Nb O3 O2 102.4(5) . 6_665
Ga1 O3 O2 102.4(5) . 6_665
La O3 O2 108.2(4) . 6_665
Ga3 O3 O2 140.2(3) 4_446 6_665
O3 O3 O2 115.4(7) 6 6_665
O3 O3 O2 72.9(5) 4 6_665
O3 O3 O2 132.7(5) 3 6_665
O2 O3 O2 161.8(4) 5_445 6_665
O3 O3 O2 106.4(5) 6_556 6_665
O2 O3 O2 12.9(4) 2_565 6_665
O2 O3 O2 55.3(4) 3_566 6_665
O1 O3 O2 60.2(3) . 6_665
O3 O3 O2 71.0(2) 5 6_665
O2 O3 O2 66.2(3) 3_565 6_665
O3 O3 O2 65.9(2) 5_556 6_665
Ga2 O3 O2 60.8(2) 2_566 6_665
Ga3 O3 O2 91.4(3) 1_656 6_665
La O3 O2 28.89(19) 2_565 6_665
O2 O3 O2 118.1(3) 6 6_665
O3 O3 O2 111.5(2) 2 6_665
Ga3 O3 O2 76.4(3) 2_564 6_665
Ga2 O3 O2 137.9(3) . 6_665
O3 O3 O2 105.8(2) 2_556 6_665
Ga1 O3 O2 91.3(2) 1_556 6_665
Nb O3 O2 91.3(2) 1_556 6_665
O2 O3 O2 85.0(3) 1_556 6_665
La O3 O2 50.24(18) 4 6_665
O1 O3 O2 137.1(3) 2_455 6_665
Ga3 O3 O2 121.8(3) 4_445 6_665
La O3 O2 95.5(2) 1_556 6_665
O2 O3 O2 140.7(3) 4_446 6_665
O2 O3 O2 89.5(3) . 6_665
Ga2 O3 O2 18.19(16) 1_665 6_665
La O3 O2 167.7(3) 4_445 6_665
O2 O3 O2 142.9(3) 4_445 6_665
Ga2 O3 O2 73.6(3) 2_565 6_665
O2 O3 O2 102.9(3) 6_655 6_665
O1 O3 O2 125.9(3) 2_456 6_665
Ga3 O3 O2 99.8(2) 1_556 6_665
O1 O3 O2 32.0(2) 2_565 6_665
La O3 O2 131.6(3) 2 6_665
Ga3 O3 O2 94.7(2) 1_655 6_665
O3 O3 O2 93.73(18) 1_554 6_665
O3 O3 O2 86.27(18) 1_556 6_665
O2 O3 O2 52.0(3) 4_456 6_665
O2 O3 O2 77.4(2) 1_656 6_665
La O3 O2 46.38(15) 2_566 6_665
O2 O3 O2 148.0(2) 2_455 6_665
O2 O3 O2 58.2(4) 4_455 6_665
O1 O3 O2 33.25(19) 2_566 6_665
O2 O3 O2 81.6(3) 1_655 6_665
O1 O3 O2 158.6(3) 1_545 6_665
O2 O3 O2 29.90(16) 5 6_665
O3 O3 O2 29.7(3) 3_565 6_665
O3 O3 O2 89.5(3) 4_455 6_665
Ga2 O3 O2 127.3(3) 1_554 6_665
Ga3 O3 O2 166.4(6) 2_565 5_444
Nb O3 O2 58.8(3) . 5_444
Ga1 O3 O2 58.8(3) . 5_444
La O3 O2 47.3(2) . 5_444
Ga3 O3 O2 95.2(4) 4_446 5_444
O3 O3 O2 12.2(3) 6 5_444
O3 O3 O2 105.4(2) 4 5_444
O3 O3 O2 76.1(4) 3 5_444
O2 O3 O2 66.9(3) 5_445 5_444
O3 O3 O2 130.1(6) 6_556 5_444
O2 O3 O2 127.7(5) 2_565 5_444
O2 O3 O2 150.9(4) 3_566 5_444
O1 O3 O2 92.4(3) . 5_444
O3 O3 O2 66.2(4) 5 5_444
O2 O3 O2 58.0(4) 3_565 5_444
O3 O3 O2 156.4(3) 5_556 5_444
Ga2 O3 O2 119.2(2) 2_566 5_444
Ga3 O3 O2 114.1(2) 1_656 5_444
La O3 O2 97.2(3) 2_565 5_444
O2 O3 O2 74.6(2) 6 5_444
O3 O3 O2 52.6(3) 2 5_444
Ga3 O3 O2 48.9(2) 2_564 5_444
Ga2 O3 O2 79.3(2) . 5_444
O3 O3 O2 119.7(3) 2_556 5_444
Ga1 O3 O2 143.6(4) 1_556 5_444
Nb O3 O2 143.6(4) 1_556 5_444
O2 O3 O2 112.7(2) 1_556 5_444
La O3 O2 99.6(3) 4 5_444
O1 O3 O2 34.4(2) 2_455 5_444
Ga3 O3 O2 17.14(12) 4_445 5_444
La O3 O2 129.0(3) 1_556 5_444
O2 O3 O2 95.0(4) 4_446 5_444
O2 O3 O2 52.63(16) . 5_444
Ga2 O3 O2 135.7(4) 1_665 5_444
La O3 O2 45.0(2) 4_445 5_444
O2 O3 O2 31.2(4) 4_445 5_444
Ga2 O3 O2 55.9(2) 2_565 5_444
O2 O3 O2 94.3(2) 6_655 5_444
O1 O3 O2 99.7(3) 2_456 5_444
Ga3 O3 O2 91.20(19) 1_556 5_444
O1 O3 O2 95.3(4) 2_565 5_444
La O3 O2 63.9(2) 2 5_444
Ga3 O3 O2 55.09(15) 1_655 5_444
O3 O3 O2 30.4(2) 1_554 5_444
O3 O3 O2 149.6(2) 1_556 5_444
O2 O3 O2 126.0(2) 4_456 5_444
O2 O3 O2 126.1(3) 1_656 5_444
La O3 O2 157.3(3) 2_566 5_444
O2 O3 O2 64.72(17) 2_455 5_444
O2 O3 O2 75.34(19) 4_455 5_444
O1 O3 O2 154.6(4) 2_566 5_444
O2 O3 O2 75.2(2) 1_655 5_444
O1 O3 O2 62.1(3) 1_545 5_444
O2 O3 O2 123.0(4) 5 5_444
O3 O3 O2 111.4(2) 3_565 5_444
O3 O3 O2 83.0(2) 4_455 5_444
Ga2 O3 O2 19.29(11) 1_554 5_444
O2 O3 O2 123.1(4) 6_665 5_444
Ga3 O3 O2 105.9(5) 2_565 2_564
Nb O3 O2 58.3(4) . 2_564
Ga1 O3 O2 58.3(4) . 2_564
La O3 O2 78.0(4) . 2_564
Ga3 O3 O2 144.6(3) 4_446 2_564
O3 O3 O2 51.9(6) 6 2_564
O3 O3 O2 75.4(3) 4 2_564
O3 O3 O2 105.0(3) 3 2_564
O2 O3 O2 128.0(4) 5_445 2_564
O3 O3 O2 167.1(5) 6_556 2_564
O2 O3 O2 66.5(3) 2_565 2_564
O2 O3 O2 116.3(6) 3_566 2_564
O1 O3 O2 75.2(4) . 2_564
O3 O3 O2 26.0(2) 5 2_564
O2 O3 O2 25.2(3) 3_565 2_564
O3 O3 O2 116.2(5) 5_556 2_564
Ga2 O3 O2 102.4(3) 2_566 2_564
Ga3 O3 O2 103.5(3) 1_656 2_564
La O3 O2 46.1(2) 2_565 2_564
O2 O3 O2 114.5(3) 6 2_564
O3 O3 O2 63.2(3) 2 2_564
Ga3 O3 O2 12.64(15) 2_564 2_564
Ga2 O3 O2 134.8(3) . 2_564
O3 O3 O2 130.1(3) 2_556 2_564
Ga1 O3 O2 143.0(3) 1_556 2_564
Nb O3 O2 143.0(3) 1_556 2_564
O2 O3 O2 122.1(3) 1_556 2_564
La O3 O2 49.47(19) 4 2_564
O1 O3 O2 89.8(3) 2_455 2_564
Ga3 O3 O2 58.2(2) 4_445 2_564
La O3 O2 152.1(3) 1_556 2_564
O2 O3 O2 145.3(3) 4_446 2_564
O2 O3 O2 62.1(3) . 2_564
Ga2 O3 O2 74.5(2) 1_665 2_564
La O3 O2 105.4(2) 4_445 2_564
O2 O3 O2 80.7(3) 4_445 2_564
Ga2 O3 O2 41.01(19) 2_565 2_564
O2 O3 O2 94.1(3) 6_655 2_564
O1 O3 O2 154.0(3) 2_456 2_564
Ga3 O3 O2 115.4(3) 1_556 2_564
O1 O3 O2 34.2(2) 2_565 2_564
La O3 O2 91.9(2) 2 2_564
Ga3 O3 O2 46.0(2) 1_655 2_564
O3 O3 O2 30.74(15) 1_554 2_564
O3 O3 O2 149.26(15) 1_556 2_564
O2 O3 O2 99.4(3) 4_456 2_564
O2 O3 O2 101.2(3) 1_656 2_564
La O3 O2 109.5(3) 2_566 2_564
O2 O3 O2 122.7(3) 2_455 2_564
O2 O3 O2 49.07(16) 4_455 2_564
O1 O3 O2 93.5(3) 2_566 2_564
O2 O3 O2 51.0(3) 1_655 2_564
O1 O3 O2 111.5(3) 1_545 2_564
O2 O3 O2 64.6(2) 5 2_564
O3 O3 O2 67.6(2) 3_565 2_564
O3 O3 O2 96.04(19) 4_455 2_564
Ga2 O3 O2 73.24(19) 1_554 2_564
O2 O3 O2 63.76(19) 6_665 2_564
O2 O3 O2 61.2(3) 5_444 2_564
Ga3 O3 Ga2 107.8(5) 2_565 2_556
Nb O3 Ga2 74.4(4) . 2_556
Ga1 O3 Ga2 74.4(4) . 2_556
La O3 Ga2 99.7(4) . 2_556
Ga3 O3 Ga2 16.28(13) 4_446 2_556
O3 O3 Ga2 84.1(6) 6 2_556
O3 O3 Ga2 85.9(4) 4 2_556
O3 O3 Ga2 29.6(4) 3 2_556
O2 O3 Ga2 36.0(3) 5_445 2_556
O3 O3 Ga2 55.6(4) 6_556 2_556
O2 O3 Ga2 139.7(4) 2_565 2_556
O2 O3 Ga2 113.3(5) 3_566 2_556
O1 O3 Ga2 141.7(4) . 2_556
O3 O3 Ga2 110.38(12) 5 2_556
O2 O3 Ga2 137.8(3) 3_565 2_556
O3 O3 Ga2 86.51(19) 5_556 2_556
Ga2 O3 Ga2 125.6(3) 2_566 2_556
Ga3 O3 Ga2 62.24(18) 1_656 2_556
La O3 Ga2 175.2(3) 2_565 2_556
O2 O3 Ga2 81.6(3) 6 2_556
O3 O3 Ga2 67.5(2) 2 2_556
Ga3 O3 Ga2 118.3(2) 2_564 2_556
Ga2 O3 Ga2 55.72(17) . 2_556
O3 O3 Ga2 45.86(12) 2_556 2_556
Ga1 O3 Ga2 63.58(18) 1_556 2_556
Nb O3 Ga2 63.58(18) 1_556 2_556
O2 O3 Ga2 101.7(3) 1_556 2_556
La O3 Ga2 114.90(19) 4 2_556
O1 O3 Ga2 71.3(2) 2_455 2_556
Ga3 O3 Ga2 74.98(17) 4_445 2_556
La O3 Ga2 77.9(2) 1_556 2_556
O2 O3 Ga2 16.57(15) 4_446 2_556
O2 O3 Ga2 118.8(3) . 2_556
Ga2 O3 Ga2 133.5(2) 1_665 2_556
La O3 Ga2 39.82(11) 4_445 2_556
O2 O3 Ga2 51.81(19) 4_445 2_556
Ga2 O3 Ga2 133.9(2) 2_565 2_556
O2 O3 Ga2 55.5(2) 6_655 2_556
O1 O3 Ga2 55.95(15) 2_456 2_556
Ga3 O3 Ga2 95.4(2) 1_556 2_556
O1 O3 Ga2 145.1(2) 2_565 2_556
La O3 Ga2 39.38(9) 2 2_556
Ga3 O3 Ga2 85.76(15) 1_655 2_556
O3 O3 Ga2 105.07(12) 1_554 2_556
O3 O3 Ga2 74.93(12) 1_556 2_556
O2 O3 Ga2 130.6(3) 4_456 2_556
O2 O3 Ga2 75.2(2) 1_656 2_556
La O3 Ga2 117.5(2) 2_566 2_556
O2 O3 Ga2 52.87(19) 2_455 2_556
O2 O3 Ga2 150.1(3) 4_455 2_556
O1 O3 Ga2 120.1(2) 2_566 2_556
O2 O3 Ga2 90.2(2) 1_655 2_556
O1 O3 Ga2 18.90(17) 1_545 2_556
O2 O3 Ga2 125.7(2) 5 2_556
O3 O3 Ga2 163.0(2) 3_565 2_556
O3 O3 Ga2 111.2(3) 4_455 2_556
Ga2 O3 Ga2 80.22(17) 1_554 2_556
O2 O3 Ga2 151.6(3) 6_665 2_556
O2 O3 Ga2 80.1(3) 5_444 2_556
O2 O3 Ga2 129.3(2) 2_564 2_556
Ga3 O3 La 97.8(4) 2_565 4_455
Nb O3 La 128.7(5) . 4_455
Ga1 O3 La 128.7(5) . 4_455
La O3 La 42.12(19) . 4_455
Ga3 O3 La 132.4(4) 4_446 4_455
O3 O3 La 88.1(3) 6 4_455
O3 O3 La 138.8(6) 4 4_455
O3 O3 La 156.1(5) 3 4_455
O2 O3 La 99.3(3) 5_445 4_455
O3 O3 La 111.2(2) 6_556 4_455
O2 O3 La 82.0(4) 2_565 4_455
O2 O3 La 69.2(3) 3_566 4_455
O1 O3 La 10.08(19) . 4_455
O3 O3 La 100.0(2) 5 4_455
O2 O3 La 50.1(2) 3_565 4_455
O3 O3 La 119.58(18) 5_556 4_455
Ga2 O3 La 38.07(11) 2_566 4_455
Ga3 O3 La 159.5(3) 1_656 4_455
La O3 La 47.75(11) 2_565 4_455
O2 O3 La 53.8(2) 6 4_455
O3 O3 La 128.9(4) 2 4_455
Ga3 O3 La 77.51(19) 2_564 4_455
Ga2 O3 La 80.46(16) . 4_455
O3 O3 La 151.6(4) 2_556 4_455
Ga1 O3 La 124.2(2) 1_556 4_455
Nb O3 La 124.2(2) 1_556 4_455
O2 O3 La 48.74(18) 1_556 4_455
La O3 La 108.7(3) 4 4_455
O1 O3 La 71.47(14) 2_455 4_455
Ga3 O3 La 98.12(19) 4_445 4_455
La O3 La 81.19(14) 1_556 4_455
O2 O3 La 131.2(3) 4_446 4_455
O2 O3 La 30.5(2) . 4_455
Ga2 O3 La 85.69(18) 1_665 4_455
La O3 La 103.11(18) 4_445 4_455
O2 O3 La 112.5(3) 4_445 4_455
Ga2 O3 La 37.26(8) 2_565 4_455
O2 O3 La 167.7(3) 6_655 4_455
O1 O3 La 86.82(16) 2_456 4_455
Ga3 O3 La 43.61(8) 1_556 4_455
O1 O3 La 77.48(18) 2_565 4_455
La O3 La 146.8(2) 2 4_455
Ga3 O3 La 117.1(2) 1_655 4_455
O3 O3 La 77.43(12) 1_554 4_455
O3 O3 La 102.57(12) 1_556 4_455
O2 O3 La 43.06(19) 4_456 4_455
O2 O3 La 144.7(3) 1_656 4_455
La O3 La 74.27(13) 2_566 4_455
O2 O3 La 82.4(2) 2_455 4_455
O2 O3 La 25.38(14) 4_455 4_455
O1 O3 La 90.51(17) 2_566 4_455
O2 O3 La 124.9(3) 1_655 4_455
O1 O3 La 131.3(2) 1_545 4_455
O2 O3 La 98.2(3) 5 4_455
O3 O3 La 39.88(11) 3_565 4_455
O3 O3 La 25.05(9) 4_455 4_455
Ga2 O3 La 70.99(12) 1_554 4_455
O2 O3 La 69.1(2) 6_665 4_455
O2 O3 La 83.14(18) 5_444 4_455
O2 O3 La 74.1(2) 2_564 4_455
Ga2 O3 La 135.2(2) 2_556 4_455
Ga3 O3 La 18.6(2) 2_565 4_556
Nb O3 La 95.9(3) . 4_556
Ga1 O3 La 95.9(3) . 4_556
La O3 La 156.8(3) . 4_556
Ga3 O3 La 83.8(2) 4_446 4_556
O3 O3 La 143.5(2) 6 4_556
O3 O3 La 49.2(3) 4 4_556
O3 O3 La 87.3(3) 3 4_556
O2 O3 La 121.6(4) 5_445 4_556
O3 O3 La 60.8(3) 6_556 4_556
O2 O3 La 46.8(3) 2_565 4_556
O2 O3 La 53.4(2) 3_566 4_556
O1 O3 La 106.1(3) . 4_556
O3 O3 La 92.9(4) 5 4_556
O2 O3 La 120.6(4) 3_565 4_556
O3 O3 La 10.1(2) 5_556 4_556
Ga2 O3 La 84.07(19) 2_566 4_556
Ga3 O3 La 44.18(11) 1_656 4_556
La O3 La 85.9(2) 2_565 4_556
O2 O3 La 129.6(3) 6 4_556
O3 O3 La 102.4(3) 2 4_556
Ga3 O3 La 116.2(3) 2_564 4_556
Ga2 O3 La 118.4(3) . 4_556
O3 O3 La 49.19(19) 2_556 4_556
Ga1 O3 La 38.11(9) 1_556 4_556
Nb O3 La 38.11(9) 1_556 4_556
O2 O3 La 92.7(2) 1_556 4_556
La O3 La 59.76(13) 4 4_556
O1 O3 La 163.5(4) 2_455 4_556
Ga3 O3 La 137.6(2) 4_445 4_556
La O3 La 73.00(15) 1_556 4_556
O2 O3 La 84.5(3) 4_446 4_556
O2 O3 La 144.4(3) . 4_556
Ga2 O3 La 39.23(9) 1_665 4_556
La O3 La 134.7(3) 4_445 4_556
O2 O3 La 131.0(3) 4_445 4_556
Ga2 O3 La 130.5(3) 2_565 4_556
O2 O3 La 63.3(2) 6_655 4_556
O1 O3 La 97.9(3) 2_456 4_556
Ga3 O3 La 114.11(19) 1_556 4_556
O1 O3 La 74.5(2) 2_565 4_556
La O3 La 96.55(16) 2 4_556
Ga3 O3 La 99.92(18) 1_655 4_556
O3 O3 La 133.26(14) 1_554 4_556
O3 O3 La 46.74(14) 1_556 4_556
O2 O3 La 75.9(3) 4_456 4_556
O2 O3 La 30.3(2) 1_656 4_556
La O3 La 44.46(8) 2_566 4_556
O2 O3 La 130.9(3) 2_455 4_556
O2 O3 La 114.5(3) 4_455 4_556
O1 O3 La 26.54(9) 2_566 4_556
O2 O3 La 80.0(2) 1_655 4_556
O1 O3 La 108.6(2) 1_545 4_556
O2 O3 La 42.09(16) 5 4_556
O3 O3 La 79.9(3) 3_565 4_556
O3 O3 La 121.60(16) 4_455 4_556
Ga2 O3 La 172.67(19) 1_554 4_556
O2 O3 La 57.02(18) 6_665 4_556
O2 O3 La 154.6(2) 5_444 4_556
O2 O3 La 106.3(2) 2_564 4_556
Ga2 O3 La 94.90(17) 2_556 4_556
La O3 La 116.12(19) 4_455 4_556
Ga3 O3 O1 48.0(3) 2_565 1_556
Nb O3 O1 158.1(4) . 1_556
Ga1 O3 O1 158.1(4) . 1_556
La O3 O1 96.5(3) . 1_556
Ga3 O3 O1 86.1(3) 4_446 1_556
O3 O3 O1 153.33(12) 6 1_556
O3 O3 O1 111.9(3) 4 1_556
O3 O3 O1 122.75(19) 3 1_556
O2 O3 O1 92.6(4) 5_445 1_556
O3 O3 O1 48.0(3) 6_556 1_556
O2 O3 O1 74.0(4) 2_565 1_556
O2 O3 O1 15.5(3) 3_566 1_556
O1 O3 O1 62.9(2) . 1_556
O3 O3 O1 141.2(3) 5 1_556
O2 O3 O1 114.0(3) 3_565 1_556
O3 O3 O1 59.1(3) 5_556 1_556
Ga2 O3 O1 31.73(16) 2_566 1_556
Ga3 O3 O1 98.9(2) 1_656 1_556
La O3 O1 82.81(19) 2_565 1_556
O2 O3 O1 69.0(3) 6 1_556
O3 O3 O1 161.7(4) 2 1_556
Ga3 O3 O1 139.4(3) 2_564 1_556
Ga2 O3 O1 71.94(17) . 1_556
O3 O3 O1 82.6(3) 2_556 1_556
Ga1 O3 O1 54.95(14) 1_556 1_556
Nb O3 O1 54.95(14) 1_556 1_556
O2 O3 O1 30.09(18) 1_556 1_556
La O3 O1 112.5(2) 4 1_556
O1 O3 O1 110.3(3) 2_455 1_556
Ga3 O3 O1 159.2(3) 4_445 1_556
La O3 O1 25.32(7) 1_556 1_556
O2 O3 O1 85.6(2) 4_446 1_556
O2 O3 O1 97.2(3) . 1_556
Ga2 O3 O1 68.37(13) 1_665 1_556
La O3 O1 116.6(3) 4_445 1_556
O2 O3 O1 146.4(4) 4_445 1_556
Ga2 O3 O1 105.60(19) 2_565 1_556
O2 O3 O1 117.7(3) 6_655 1_556
O1 O3 O1 55.63(15) 2_456 1_556
Ga3 O3 O1 51.53(12) 1_556 1_556
O1 O3 O1 102.3(3) 2_565 1_556
La O3 O1 137.0(3) 2 1_556
Ga3 O3 O1 161.2(3) 1_655 1_556
O3 O3 O1 146.38(14) 1_554 1_556
O3 O3 O1 33.62(14) 1_556 1_556
O2 O3 O1 30.86(17) 4_456 1_556
O2 O3 O1 89.4(3) 1_656 1_556
La O3 O1 26.51(5) 2_566 1_556
O2 O3 O1 86.5(3) 2_455 1_556
O2 O3 O1 88.1(2) 4_455 1_556
O1 O3 O1 53.41(14) 2_566 1_556
O2 O3 O1 141.3(3) 1_655 1_556
O1 O3 O1 119.4(3) 1_545 1_556
O2 O3 O1 86.50(19) 5 1_556
O3 O3 O1 61.35(11) 3_565 1_556
O3 O3 O1 61.35(11) 4_455 1_556
Ga2 O3 O1 123.6(2) 1_554 1_556
O2 O3 O1 70.43(17) 6_665 1_556
O2 O3 O1 142.7(2) 5_444 1_556
O2 O3 O1 128.9(3) 2_564 1_556
Ga2 O3 O1 101.8(2) 2_556 1_556
La O3 O1 69.29(14) 4_455 1_556
La O3 O1 62.65(12) 4_556 1_556
Ga3 O3 O3 116.2(6) 2_565 4_554
Nb O3 O3 30.3(3) . 4_554
Ga1 O3 O3 30.3(3) . 4_554
La O3 O3 87.5(3) . 4_554
Ga3 O3 O3 116.0(3) 4_446 4_554
O3 O3 O3 38.4(4) 6 4_554
O3 O3 O3 61.95(14) 4 4_554
O3 O3 O3 76.40(6) 3 4_554
O2 O3 O3 110.9(3) 5_445 4_554
O3 O3 O3 149.5(4) 6_556 4_554
O2 O3 O3 83.2(5) 2_565 4_554
O2 O3 O3 140.6(6) 3_566 4_554
O1 O3 O3 102.4(4) . 4_554
O3 O3 O3 16.1(2) 5 4_554
O2 O3 O3 49.5(3) 3_565 4_554
O3 O3 O3 114.6(5) 5_556 4_554
Ga2 O3 O3 131.0(4) 2_566 4_554
Ga3 O3 O3 84.8(2) 1_656 4_554
La O3 O3 73.9(3) 2_565 4_554
O2 O3 O3 122.7(3) 6 4_554
O3 O3 O3 34.6(3) 2 4_554
Ga3 O3 O3 21.84(13) 2_564 4_554
Ga2 O3 O3 129.0(3) . 4_554
O3 O3 O3 108.2(4) 2_556 4_554
Ga1 O3 O3 131.7(3) 1_556 4_554
Nb O3 O3 131.7(3) 1_556 4_554
O2 O3 O3 147.9(4) 1_556 4_554
La O3 O3 49.1(2) 4 4_554
O1 O3 O3 84.8(2) 2_455 4_554
Ga3 O3 O3 39.20(8) 4_445 4_554
La O3 O3 179.1(4) 1_556 4_554
O2 O3 O3 116.8(3) 4_446 4_554
O2 O3 O3 78.6(3) . 4_554
Ga2 O3 O3 89.7(3) 1_665 4_554
La O3 O3 86.60(17) 4_445 4_554
O2 O3 O3 57.59(17) 4_445 4_554
Ga2 O3 O3 62.5(2) 2_565 4_554
O2 O3 O3 70.2(2) 6_655 4_554
O1 O3 O3 147.8(3) 2_456 4_554
Ga3 O3 O3 133.5(2) 1_556 4_554
O1 O3 O3 53.3(3) 2_565 4_554
La O3 O3 63.17(16) 2 4_554
Ga3 O3 O3 18.01(12) 1_655 4_554
O3 O3 O3 28.05(14) 1_554 4_554
O3 O3 O3 151.95(14) 1_556 4_554
O2 O3 O3 128.0(4) 4_456 4_554
O2 O3 O3 88.7(3) 1_656 4_554
La O3 O3 130.9(4) 2_566 4_554
O2 O3 O3 114.1(2) 2_455 4_554
O2 O3 O3 75.8(3) 4_455 4_554
O1 O3 O3 107.0(4) 2_566 4_554
O2 O3 O3 30.72(17) 1_655 4_554
O1 O3 O3 84.6(2) 1_545 4_554
O2 O3 O3 73.4(3) 5 4_554
O3 O3 O3 95.7(3) 3_565 4_554
O3 O3 O3 116.61(17) 4_455 4_554
Ga2 O3 O3 68.62(11) 1_554 4_554
O2 O3 O3 85.4(3) 6_665 4_554
O2 O3 O3 50.51(16) 5_444 4_554
O2 O3 O3 28.7(3) 2_564 4_554
Ga2 O3 O3 101.3(2) 2_556 4_554
La O3 O3 99.3(3) 4_455 4_554
La O3 O3 107.3(3) 4_556 4_554
O1 O3 O3 155.5(4) 1_556 4_554
Ga3 O3 O3 139.7(6) 2_565 3_554
Nb O3 O3 30.3(3) . 3_554
Ga1 O3 O3 30.3(3) . 3_554
La O3 O3 75.1(3) . 3_554
Ga3 O3 O3 95.8(3) 4_446 3_554
O3 O3 O3 18.3(2) 6 3_554
O3 O3 O3 76.40(6) 4 3_554
O3 O3 O3 61.95(14) 3 3_554
O2 O3 O3 83.7(4) 5_445 3_554
O3 O3 O3 135.0(5) 6_556 3_554
O2 O3 O3 110.3(5) 2_565 3_554
O2 O3 O3 166.8(5) 3_566 3_554
O1 O3 O3 110.9(4) . 3_554
O3 O3 O3 42.9(3) 5 3_554
O2 O3 O3 61.8(2) 3_565 3_554
O3 O3 O3 129.3(5) 5_556 3_554
Ga2 O3 O3 141.8(3) 2_566 3_554
Ga3 O3 O3 89.1(3) 1_656 3_554
La O3 O3 96.0(2) 2_565 3_554
O2 O3 O3 103.3(3) 6 3_554
O3 O3 O3 26.0(4) 2 3_554
Ga3 O3 O3 38.73(7) 2_564 3_554
Ga2 O3 O3 102.7(3) . 3_554
O3 O3 O3 103.9(4) 2_556 3_554
Ga1 O3 O3 131.7(3) 1_556 3_554
Nb O3 O3 131.7(3) 1_556 3_554
O2 O3 O3 141.6(4) 1_556 3_554
La O3 O3 73.7(2) 4 3_554
O1 O3 O3 62.2(3) 2_455 3_554
Ga3 O3 O3 13.29(12) 4_445 3_554
La O3 O3 152.0(4) 1_556 3_554
O2 O3 O3 96.2(3) 4_446 3_554
O2 O3 O3 75.1(3) . 3_554
Ga2 O3 O3 116.7(3) 1_665 3_554
La O3 O3 59.4(2) 4_445 3_554
O2 O3 O3 30.90(18) 4_445 3_554
Ga2 O3 O3 68.40(12) 2_565 3_554
O2 O3 O3 70.0(3) 6_655 3_554
O1 O3 O3 120.6(3) 2_456 3_554
Ga3 O3 O3 120.2(3) 1_556 3_554
O1 O3 O3 80.1(3) 2_565 3_554
La O3 O3 47.65(18) 2 3_554
Ga3 O3 O3 26.25(15) 1_655 3_554
O3 O3 O3 28.05(14) 1_554 3_554
O3 O3 O3 151.95(14) 1_556 3_554
O2 O3 O3 144.5(3) 4_456 3_554
O2 O3 O3 98.9(3) 1_656 3_554
La O3 O3 158.1(4) 2_566 3_554
O2 O3 O3 87.9(3) 2_455 3_554
O2 O3 O3 86.80(17) 4_455 3_554
O1 O3 O3 133.0(4) 2_566 3_554
O2 O3 O3 46.4(2) 1_655 3_554
O1 O3 O3 61.2(2) 1_545 3_554
O2 O3 O3 99.4(3) 5 3_554
O3 O3 O3 116.61(17) 3_565 3_554
O3 O3 O3 110.4(3) 4_455 3_554
Ga2 O3 O3 48.31(18) 1_554 3_554
O2 O3 O3 112.1(3) 6_665 3_554
O2 O3 O3 29.05(17) 5_444 3_554
O2 O3 O3 50.44(19) 2_564 3_554
Ga2 O3 O3 79.7(2) 2_556 3_554
La O3 O3 103.76(18) 4_455 3_554
La O3 O3 125.6(3) 4_556 3_554
O1 O3 O3 171.6(3) 1_556 3_554
O3 O3 O3 27.19(13) 4_554 3_554
Ga3 O3 O3 33.1(3) 2_565 4_556
Nb O3 O3 102.8(4) . 4_556
Ga1 O3 O3 102.8(4) . 4_556
La O3 O3 148.5(4) . 4_556
Ga3 O3 O3 61.5(2) 4_446 4_556
O3 O3 O3 148.8(5) 6 4_556
O3 O3 O3 61.95(14) 4 4_556
O3 O3 O3 76.40(6) 3 4_556
O2 O3 O3 97.6(4) 5_445 4_556
O3 O3 O3 37.3(3) 6_556 4_556
O2 O3 O3 70.0(3) 2_565 4_556
O2 O3 O3 53.9(3) 3_566 4_556
O1 O3 O3 114.5(4) . 4_556
O3 O3 O3 112.3(5) 5 4_556
O2 O3 O3 144.3(4) 3_565 4_556
O3 O3 O3 14.1(2) 5_556 4_556
Ga2 O3 O3 85.4(2) 2_566 4_556
Ga3 O3 O3 42.9(2) 1_656 4_556
La O3 O3 107.1(3) 2_565 4_556
O2 O3 O3 112.1(3) 6 4_556
O3 O3 O3 106.0(5) 2 4_556
Ga3 O3 O3 138.2(3) 2_564 4_556
Ga2 O3 O3 95.4(2) . 4_556
O3 O3 O3 32.6(3) 2_556 4_556
Ga1 O3 O3 13.87(7) 1_556 4_556
Nb O3 O3 13.87(7) 1_556 4_556
O2 O3 O3 83.8(2) 1_556 4_556
La O3 O3 81.2(2) 4 4_556
O1 O3 O3 139.2(4) 2_455 4_556
Ga3 O3 O3 138.8(3) 4_445 4_556
La O3 O3 56.14(10) 1_556 4_556
O2 O3 O3 62.0(3) 4_446 4_556
O2 O3 O3 152.9(4) . 4_556
Ga2 O3 O3 62.0(2) 1_665 4_556
La O3 O3 113.6(3) 4_445 4_556
O2 O3 O3 121.2(4) 4_445 4_556
Ga2 O3 O3 151.0(4) 2_565 4_556
O2 O3 O3 62.0(3) 6_655 4_556
O1 O3 O3 75.5(2) 2_456 4_556
Ga3 O3 O3 102.26(17) 1_556 4_556
O1 O3 O3 98.8(3) 2_565 4_556
La O3 O3 89.1(3) 2 4_556
Ga3 O3 O3 111.1(2) 1_655 4_556
O3 O3 O3 151.95(14) 1_554 4_556
O3 O3 O3 28.05(14) 1_556 4_556
O2 O3 O3 80.1(3) 4_456 4_556
O2 O3 O3 35.5(2) 1_656 4_556
La O3 O3 50.01(17) 2_566 4_556
O2 O3 O3 106.9(3) 2_455 4_556
O2 O3 O3 132.0(4) 4_455 4_556
O1 O3 O3 45.7(2) 2_566 4_556
O2 O3 O3 93.4(3) 1_655 4_556
O1 O3 O3 91.4(3) 1_545 4_556
O2 O3 O3 66.3(2) 5 4_556
O3 O3 O3 95.7(3) 3_565 4_556
O3 O3 O3 116.61(17) 4_455 4_556
Ga2 O3 O3 153.7(4) 1_554 4_556
O2 O3 O3 78.7(3) 6_665 4_556
O2 O3 O3 152.3(4) 5_444 4_556
O2 O3 O3 129.8(3) 2_564 4_556
Ga2 O3 O3 74.7(2) 2_556 4_556
La O3 O3 123.1(2) 4_455 4_556
La O3 O3 24.24(13) 4_556 4_556
O1 O3 O3 55.96(16) 1_556 4_556
O3 O3 O3 123.9(3) 4_554 4_556
O3 O3 O3 131.9(2) 3_554 4_556
Ga3 O3 O3 58.9(3) 2_565 3_556
Nb O3 O3 102.8(4) . 3_556
Ga1 O3 O3 102.8(4) . 3_556
La O3 O3 129.8(6) . 3_556
Ga3 O3 O3 35.3(2) 4_446 3_556
O3 O3 O3 133.6(7) 6 3_556
O3 O3 O3 76.40(6) 4 3_556
O3 O3 O3 61.95(14) 3 3_556
O2 O3 O3 70.5(4) 5_445 3_556
O3 O3 O3 18.3(2) 6_556 3_556
O2 O3 O3 97.2(3) 2_565 3_556
O2 O3 O3 67.1(3) 3_566 3_556
O1 O3 O3 123.8(4) . 3_556
O3 O3 O3 127.4(5) 5 3_556
O2 O3 O3 171.4(4) 3_565 3_556
O3 O3 O3 41.1(2) 5_556 3_556
Ga2 O3 O3 92.8(2) 2_566 3_556
Ga3 O3 O3 48.93(16) 1_656 3_556
La O3 O3 132.5(3) 2_565 3_556
O2 O3 O3 93.8(4) 6 3_556
O3 O3 O3 101.5(4) 2 3_556
Ga3 O3 O3 153.3(3) 2_564 3_556
Ga2 O3 O3 71.7(3) . 3_556
O3 O3 O3 23.7(3) 2_556 3_556
Ga1 O3 O3 13.87(7) 1_556 3_556
Nb O3 O3 13.87(7) 1_556 3_556
O2 O3 O3 80.2(3) 1_556 3_556
La O3 O3 102.8(2) 4 3_556
O1 O3 O3 112.3(4) 2_455 3_556
Ga3 O3 O3 123.6(3) 4_445 3_556
La O3 O3 47.63(18) 1_556 3_556
O2 O3 O3 35.7(3) 4_446 3_556
O2 O3 O3 146.2(4) . 3_556
Ga2 O3 O3 89.11(17) 1_665 3_556
La O3 O3 87.2(3) 4_445 3_556
O2 O3 O3 101.3(3) 4_445 3_556
Ga2 O3 O3 165.5(3) 2_565 3_556
O2 O3 O3 61.7(2) 6_655 3_556
O1 O3 O3 54.1(3) 2_456 3_556
Ga3 O3 O3 91.6(3) 1_556 3_556
O1 O3 O3 125.3(3) 2_565 3_556
La O3 O3 76.3(2) 2 3_556
Ga3 O3 O3 114.4(2) 1_655 3_556
O3 O3 O3 151.95(14) 1_554 3_556
O3 O3 O3 28.05(14) 1_556 3_556
O2 O3 O3 91.6(2) 4_456 3_556
O2 O3 O3 50.50(18) 1_656 3_556
La O3 O3 68.29(11) 2_566 3_556
O2 O3 O3 81.1(3) 2_455 3_556
O2 O3 O3 149.3(2) 4_455 3_556
O1 O3 O3 71.93(18) 2_566 3_556
O2 O3 O3 103.3(2) 1_655 3_556
O1 O3 O3 68.7(3) 1_545 3_556
O2 O3 O3 92.6(2) 5 3_556
O3 O3 O3 116.61(17) 3_565 3_556
O3 O3 O3 110.3(3) 4_455 3_556
Ga2 O3 O3 126.6(4) 1_554 3_556
O2 O3 O3 105.2(2) 6_665 3_556
O2 O3 O3 130.4(4) 5_444 3_556
O2 O3 O3 151.7(3) 2_564 3_556
Ga2 O3 O3 50.3(2) 2_556 3_556
La O3 O3 128.5(2) 4_455 3_556
La O3 O3 51.17(11) 4_556 3_556
O1 O3 O3 61.28(15) 1_556 3_556
O3 O3 O3 131.9(2) 4_554 3_556
O3 O3 O3 123.9(3) 3_554 3_556
O3 O3 O3 27.19(13) 4_556 3_556
Ga3 O3 O1 64.1(3) 2_565 1_655
Nb O3 O1 47.9(3) . 1_655
Ga1 O3 O1 47.9(3) . 1_655
La O3 O1 145.6(4) . 1_655
Ga3 O3 O1 95.1(2) 4_446 1_655
O3 O3 O1 93.5(3) 6 1_655
O3 O3 O1 7.5(3) 4 1_655
O3 O3 O1 66.7(4) 3 1_655
O2 O3 O1 128.3(3) 5_445 1_655
O3 O3 O1 99.6(2) 6_556 1_655
O2 O3 O1 54.8(4) 2_565 1_655
O2 O3 O1 99.9(3) 3_566 1_655
O1 O3 O1 124.9(4) . 1_655
O3 O3 O1 46.9(3) 5 1_655
O2 O3 O1 93.4(3) 3_565 1_655
O3 O3 O1 56.2(4) 5_556 1_655
Ga2 O3 O1 123.7(3) 2_566 1_655
Ga3 O3 O1 36.08(17) 1_656 1_655
La O3 O1 83.7(2) 2_565 1_655
O2 O3 O1 174.8(4) 6 1_655
O3 O3 O1 56.2(2) 2 1_655
Ga3 O3 O1 73.7(2) 2_564 1_655
Ga2 O3 O1 147.9(3) . 1_655
O3 O3 O1 62.6(2) 2_556 1_655
Ga1 O3 O1 75.9(2) 1_556 1_655
Nb O3 O1 75.9(2) 1_556 1_655
O2 O3 O1 141.2(3) 1_556 1_655
La O3 O1 23.29(10) 4 1_655
O1 O3 O1 137.2(2) 2_455 1_655
Ga3 O3 O1 88.9(2) 4_445 1_655
La O3 O1 121.5(2) 1_556 1_655
O2 O3 O1 96.3(3) 4_446 1_655
O2 O3 O1 131.3(3) . 1_655
Ga2 O3 O1 54.72(14) 1_665 1_655
La O3 O1 116.49(18) 4_445 1_655
O2 O3 O1 92.1(3) 4_445 1_655
Ga2 O3 O1 109.5(3) 2_565 1_655
O2 O3 O1 37.79(18) 6_655 1_655
O1 O3 O1 136.0(2) 2_456 1_655
Ga3 O3 O1 162.7(2) 1_556 1_655
O1 O3 O1 54.32(16) 2_565 1_655
La O3 O1 65.71(12) 2 1_655
Ga3 O3 O1 49.98(16) 1_655 1_655
O3 O3 O1 86.48(18) 1_554 1_655
O3 O3 O1 93.52(18) 1_556 1_655
O2 O3 O1 114.0(3) 4_456 1_655
O2 O3 O1 32.1(2) 1_656 1_655
La O3 O1 88.9(2) 2_566 1_655
O2 O3 O1 144.9(3) 2_455 1_655
O2 O3 O1 109.3(3) 4_455 1_655
O1 O3 O1 61.7(2) 2_566 1_655
O2 O3 O1 29.9(2) 1_655 1_655
O1 O3 O1 92.09(14) 1_545 1_655
O2 O3 O1 36.98(15) 5 1_655
O3 O3 O1 95.7(3) 3_565 1_655
O3 O3 O1 155.5(3) 4_455 1_655
Ga2 O3 O1 124.4(2) 1_554 1_655
O2 O3 O1 66.58(19) 6_665 1_655
O2 O3 O1 105.1(2) 5_444 1_655
O2 O3 O1 69.3(2) 2_564 1_655
Ga2 O3 O1 93.17(14) 2_556 1_655
La O3 O1 131.4(3) 4_455 1_655
La O3 O1 50.04(17) 4_556 1_655
O1 O3 O1 111.9(2) 1_556 1_655
O3 O3 O1 58.6(2) 4_554 1_655
O3 O3 O1 76.1(3) 3_554 1_655
O3 O3 O1 65.7(2) 4_556 1_655
O3 O3 O1 82.4(2) 3_556 1_655
Ga3 O3 La 91.9(5) 2_565 4_446
Nb O3 La 108.4(4) . 4_446
Ga1 O3 La 108.4(4) . 4_446
La O3 La 93.8(4) . 4_446
Ga3 O3 La 22.03(16) 4_446 4_446
O3 O3 La 109.0(7) 6 4_446
O3 O3 La 106.6(3) 4 4_446
O3 O3 La 62.1(4) 3 4_446
O2 O3 La 34.3(3) 5_445 4_446
O3 O3 La 29.7(4) 6_556 4_446
O2 O3 La 131.7(4) 2_565 4_446
O2 O3 La 82.4(4) 3_566 4_446
O1 O3 La 113.6(3) . 4_446
O3 O3 La 144.37(10) 5 4_446
O2 O3 La 149.8(3) 3_565 4_446
O3 O3 La 78.0(4) 5_556 4_446
Ga2 O3 La 91.6(3) 2_566 4_446
Ga3 O3 La 77.7(2) 1_656 4_446
La O3 La 150.6(2) 2_565 4_446
O2 O3 La 61.4(3) 6 4_446
O3 O3 La 101.7(3) 2 4_446
Ga3 O3 La 148.1(3) 2_564 4_446
Ga2 O3 La 35.75(12) . 4_446
O3 O3 La 51.68(14) 2_556 4_446
Ga1 O3 La 50.04(15) 1_556 4_446
Nb O3 La 50.04(15) 1_556 4_446
O2 O3 La 68.5(2) 1_556 4_446
La O3 La 136.8(2) 4 4_446
O1 O3 La 75.3(3) 2_455 4_446
Ga3 O3 La 102.5(2) 4_445 4_446
La O3 La 44.09(13) 1_556 4_446
O2 O3 La 20.93(18) 4_446 4_446
O2 O3 La 112.8(3) . 4_446
Ga2 O3 La 123.5(2) 1_665 4_446
La O3 La 55.63(15) 4_445 4_446
O2 O3 La 80.2(2) 4_445 4_446
Ga2 O3 La 135.0(2) 2_565 4_446
O2 O3 La 80.9(2) 6_655 4_446
O1 O3 La 24.61(9) 2_456 4_446
Ga3 O3 La 67.77(17) 1_556 4_446
O1 O3 La 162.7(3) 2_565 4_446
La O3 La 73.49(18) 2 4_446
Ga3 O3 La 120.0(2) 1_655 4_446
O3 O3 La 130.56(10) 1_554 4_446
O3 O3 La 49.44(10) 1_556 4_446
O2 O3 La 96.4(2) 4_456 4_446
O2 O3 La 84.7(2) 1_656 4_446
La O3 La 89.72(18) 2_566 4_446
O2 O3 La 43.65(16) 2_455 4_446
O2 O3 La 136.1(3) 4_455 4_446
O1 O3 La 104.7(3) 2_566 4_446
O2 O3 La 122.0(2) 1_655 4_446
O1 O3 La 50.50(18) 1_545 4_446
O2 O3 La 130.0(2) 5 4_446
O3 O3 La 128.85(15) 3_565 4_446
O3 O3 La 86.7(2) 4_455 4_446
Ga2 O3 La 90.77(19) 1_554 4_446
O2 O3 La 135.5(2) 6_665 4_446
O2 O3 La 100.4(3) 5_444 4_446
O2 O3 La 160.7(2) 2_564 4_446
Ga2 O3 La 34.24(9) 2_556 4_446
La O3 La 111.38(19) 4_455 4_446
La O3 La 88.15(17) 4_556 4_446
O1 O3 La 68.94(15) 1_556 4_446
O3 O3 La 135.1(3) 4_554 4_446
O3 O3 La 110.7(3) 3_554 4_446
O3 O3 La 63.91(15) 4_556 4_446
O3 O3 La 37.5(2) 3_556 4_446
O1 O3 La 113.8(2) 1_655 4_446
Ga3 O3 O2 70.5(4) 2_565 5_446
Nb O3 O2 123.9(5) . 5_446
Ga1 O3 O2 123.9(5) . 5_446
La O3 O2 103.7(4) . 5_446
Ga3 O3 O2 38.4(2) 4_446 5_446
O3 O3 O2 131.9(7) 6 5_446
O3 O3 O2 103.79(19) 4 5_446
O3 O3 O2 77.5(3) 3 5_446
O2 O3 O2 55.6(3) 5_445 5_446
O3 O3 O2 10.4(2) 6_556 5_446
O2 O3 O2 109.8(4) 2_565 5_446
O2 O3 O2 60.0(5) 3_566 5_446
O1 O3 O2 103.1(4) . 5_446
O3 O3 O2 154.5(3) 5 5_446
O2 O3 O2 154.5(3) 3_565 5_446
O3 O3 O2 61.0(4) 5_556 5_446
Ga2 O3 O2 75.1(3) 2_566 5_446
Ga3 O3 O2 76.2(2) 1_656 5_446
La O3 O2 130.5(3) 2_565 5_446
O2 O3 O2 66.9(3) 6 5_446
O3 O3 O2 119.4(4) 2 5_446
Ga3 O3 O2 171.2(3) 2_564 5_446
Ga2 O3 O2 47.88(19) . 5_446
O3 O3 O2 49.9(2) 2_556 5_446
Ga1 O3 O2 34.83(15) 1_556 5_446
Nb O3 O2 34.83(15) 1_556 5_446
O2 O3 O2 56.37(19) 1_556 5_446
La O3 O2 128.5(2) 4 5_446
O1 O3 O2 93.3(3) 2_455 5_446
Ga3 O3 O2 125.6(3) 4_445 5_446
La O3 O2 25.36(15) 1_556 5_446
O2 O3 O2 37.8(2) 4_446 5_446
O2 O3 O2 118.8(3) . 5_446
Ga2 O3 O2 101.8(2) 1_665 5_446
La O3 O2 78.4(3) 4_445 5_446
O2 O3 O2 103.0(3) 4_445 5_446
Ga2 O3 O2 139.2(2) 2_565 5_446
O2 O3 O2 86.8(2) 6_655 5_446
O1 O3 O2 28.0(2) 2_456 5_446
Ga3 O3 O2 64.54(18) 1_556 5_446
O1 O3 O2 142.2(3) 2_565 5_446
La O3 O2 90.9(2) 2 5_446
Ga3 O3 O2 136.2(2) 1_655 5_446
O3 O3 O2 152.95(18) 1_554 5_446
O3 O3 O2 27.05(18) 1_556 5_446
O2 O3 O2 77.6(2) 4_456 5_446
O2 O3 O2 77.5(2) 1_656 5_446
La O3 O2 66.69(19) 2_566 5_446
O2 O3 O2 60.4(2) 2_455 5_446
O2 O3 O2 129.50(19) 4_455 5_446
O1 O3 O2 82.8(2) 2_566 5_446
O2 O3 O2 129.7(3) 1_655 5_446
O1 O3 O2 72.1(3) 1_545 5_446
O2 O3 O2 112.2(2) 5 5_446
O3 O3 O2 109.12(16) 3_565 5_446
O3 O3 O2 83.72(18) 4_455 5_446
Ga2 O3 O2 110.0(3) 1_554 5_446
O2 O3 O2 112.4(3) 6_665 5_446
O2 O3 O2 122.5(4) 5_444 5_446
O2 O3 O2 176.2(3) 2_564 5_446
Ga2 O3 O2 54.03(19) 2_556 5_446
La O3 O2 104.8(2) 4_455 5_446
La O3 O2 70.74(17) 4_556 5_446
O1 O3 O2 47.79(18) 1_556 5_446
O3 O3 O2 153.9(3) 4_554 5_446
O3 O3 O2 133.2(3) 3_554 5_446
O3 O3 O2 47.62(14) 4_556 5_446
O3 O3 O2 27.41(19) 3_556 5_446
O1 O3 O2 109.6(2) 1_655 5_446
La O3 O2 23.11(14) 4_446 5_446
Ga3 O3 La 137.8(4) 2_565 2_455
Nb O3 La 109.3(4) . 2_455
Ga1 O3 La 109.3(4) . 2_455
La O3 La 28.1(2) . 2_455
Ga3 O3 La 78.4(3) 4_446 2_455
O3 O3 La 66.5(3) 6 2_455
O3 O3 La 153.4(5) 4 2_455
O3 O3 La 95.7(6) 3 2_455
O2 O3 La 38.9(3) 5_445 2_455
O3 O3 La 89.3(4) 6_556 2_455
O2 O3 La 144.0(4) 2_565 2_455
O2 O3 La 102.8(3) 3_566 2_455
O1 O3 La 71.0(2) . 2_455
O3 O3 La 118.8(4) 5 2_455
O2 O3 La 83.9(3) 3_565 2_455
O3 O3 La 139.4(5) 5_556 2_455
Ga2 O3 La 78.82(19) 2_566 2_455
Ga3 O3 La 136.6(3) 1_656 2_455
La O3 La 107.3(2) 2_565 2_455
O2 O3 La 21.0(2) 6 2_455
O3 O3 La 100.81(18) 2 2_455
Ga3 O3 La 94.90(18) 2_564 2_455
Ga2 O3 La 31.43(9) . 2_455
O3 O3 La 115.59(14) 2_556 2_455
Ga1 O3 La 113.6(3) 1_556 2_455
Nb O3 La 113.6(3) 1_556 2_455
O2 O3 La 61.6(2) 1_556 2_455
La O3 La 151.9(3) 4 2_455
O1 O3 La 20.43(17) 2_455 2_455
Ga3 O3 La 69.39(15) 4_445 2_455
La O3 La 75.48(18) 1_556 2_455
O2 O3 La 77.3(3) 4_446 2_455
O2 O3 La 47.94(17) . 2_455
Ga2 O3 La 146.4(2) 1_665 2_455
La O3 La 42.70(10) 4_445 2_455
O2 O3 La 64.9(3) 4_445 2_455
Ga2 O3 La 69.49(12) 2_565 2_455
O2 O3 La 125.5(3) 6_655 2_455
O1 O3 La 51.12(17) 2_456 2_455
Ga3 O3 La 40.31(9) 1_556 2_455
O1 O3 La 130.3(3) 2_565 2_455
La O3 La 93.44(19) 2 2_455
Ga3 O3 La 108.78(18) 1_655 2_455
O3 O3 La 78.48(12) 1_554 2_455
O3 O3 La 101.52(12) 1_556 2_455
O2 O3 La 88.4(2) 4_456 2_455
O2 O3 La 148.7(3) 1_656 2_455
La O3 La 113.99(18) 2_566 2_455
O2 O3 La 23.27(14) 2_455 2_455
O2 O3 La 77.6(2) 4_455 2_455
O1 O3 La 141.4(2) 2_566 2_455
O2 O3 La 128.8(2) 1_655 2_455
O1 O3 La 69.76(15) 1_545 2_455
O2 O3 La 159.9(3) 5 2_455
O3 O3 La 101.63(19) 3_565 2_455
O3 O3 La 43.1(2) 4_455 2_455
Ga2 O3 La 35.55(7) 1_554 2_455
O2 O3 La 131.2(3) 6_665 2_455
O2 O3 La 54.36(16) 5_444 2_455
O2 O3 La 103.4(2) 2_564 2_455
Ga2 O3 La 74.33(16) 2_556 2_455
La O3 La 62.15(10) 4_455 2_455
La O3 La 148.2(2) 4_556 2_455
O1 O3 La 89.85(16) 1_556 2_455
O3 O3 La 104.13(16) 4_554 2_455
O3 O3 La 82.6(2) 3_554 2_455
O3 O3 La 126.6(2) 4_556 2_455
O3 O3 La 102.9(3) 3_556 2_455
O1 O3 La 157.0(2) 1_655 2_455
La O3 La 65.95(14) 4_446 2_455
O2 O3 La 79.0(2) 5_446 2_455
Ga3 O3 O3 135.1(4) 2_565 2_455
Nb O3 O3 110.9(4) . 2_455
Ga1 O3 O3 110.9(4) . 2_455
La O3 O3 7.37(18) . 2_455
Ga3 O3 O3 101.0(2) 4_446 2_455
O3 O3 O3 62.51(19) 6 2_455
O3 O3 O3 156.3(2) 4 2_455
O3 O3 O3 113.8(5) 3 2_455
O2 O3 O3 61.4(3) 5_445 2_455
O3 O3 O3 106.6(3) 6_556 2_455
O2 O3 O3 123.6(4) 2_565 2_455
O2 O3 O3 99.5(3) 3_566 2_455
O1 O3 O3 52.4(3) . 2_455
O3 O3 O3 106.1(5) 5 2_455
O2 O3 O3 63.0(3) 3_565 2_455
O3 O3 O3 149.6(6) 5_556 2_455
Ga2 O3 O3 69.4(2) 2_566 2_455
Ga3 O3 O3 157.7(3) 1_656 2_455
La O3 O3 85.1(2) 2_565 2_455
O2 O3 O3 29.66(19) 6 2_455
O3 O3 O3 104.7(4) 2 2_455
Ga3 O3 O3 79.5(2) 2_564 2_455
Ga2 O3 O3 51.64(6) . 2_455
O3 O3 O3 138.06(18) 2_556 2_455
Ga1 O3 O3 130.8(3) 1_556 2_455
Nb O3 O3 130.8(3) 1_556 2_455
O2 O3 O3 60.9(2) 1_556 2_455
La O3 O3 134.5(3) 4 2_455
O1 O3 O3 29.22(7) 2_455 2_455
Ga3 O3 O3 69.33(18) 4_445 2_455
La O3 O3 85.3(2) 1_556 2_455
O2 O3 O3 99.9(3) 4_446 2_455
O2 O3 O3 25.6(2) . 2_455
Ga2 O3 O3 128.1(2) 1_665 2_455
La O3 O3 60.55(7) 4_445 2_455
O2 O3 O3 74.3(3) 4_445 2_455
Ga2 O3 O3 47.72(18) 2_565 2_455
O2 O3 O3 141.7(3) 6_655 2_455
O1 O3 O3 68.73(16) 2_456 2_455
Ga3 O3 O3 40.22(12) 1_556 2_455
O1 O3 O3 108.2(3) 2_565 2_455
La O3 O3 107.66(19) 2 2_455
Ga3 O3 O3 105.5(3) 1_655 2_455
O3 O3 O3 66.6(2) 1_554 2_455
O3 O3 O3 113.4(2) 1_556 2_455
O2 O3 O3 78.1(3) 4_456 2_455
O2 O3 O3 171.3(3) 1_656 2_455
La O3 O3 108.8(2) 2_566 2_455
O2 O3 O3 45.82(13) 2_455 2_455
O2 O3 O3 55.1(3) 4_455 2_455
O1 O3 O3 131.5(2) 2_566 2_455
O2 O3 O3 124.5(3) 1_655 2_455
O1 O3 O3 88.78(14) 1_545 2_455
O2 O3 O3 137.6(3) 5 2_455
O3 O3 O3 82.3(2) 3_565 2_455
O3 O3 O3 31.5(3) 4_455 2_455
Ga2 O3 O3 34.13(11) 1_554 2_455
O2 O3 O3 110.8(3) 6_665 2_455
O2 O3 O3 52.21(17) 5_444 2_455
O2 O3 O3 85.3(3) 2_564 2_455
Ga2 O3 O3 96.22(13) 2_556 2_455
La O3 O3 42.58(16) 4_455 2_455
La O3 O3 152.9(3) 4_556 2_455
O1 O3 O3 90.9(2) 1_556 2_455
O3 O3 O3 94.6(2) 4_554 2_455
O3 O3 O3 80.7(2) 3_554 2_455
O3 O3 O3 141.4(3) 4_556 2_455
O3 O3 O3 122.7(3) 3_556 2_455
O1 O3 O3 153.0(3) 1_655 2_455
La O3 O3 87.29(15) 4_446 2_455
O2 O3 O3 96.4(2) 5_446 2_455
La O3 O3 22.61(6) 2_455 2_455
Ga3 O3 O3 78.7(3) 2_565 2_565
Nb O3 O3 98.3(5) . 2_565
Ga1 O3 O3 98.3(5) . 2_565
La O3 O3 77.9(4) . 2_565
Ga3 O3 O3 172.1(4) 4_446 2_565
O3 O3 O3 87.8(7) 6 2_565
O3 O3 O3 92.2(4) 4 2_565
O3 O3 O3 144.4(4) 3 2_565
O2 O3 O3 143.7(4) 5_445 2_565
O3 O3 O3 132.8(5) 6_556 2_565
O2 O3 O3 43.8(2) 2_565 2_565
O2 O3 O3 75.2(4) 3_566 2_565
O1 O3 O3 41.9(3) . 2_565
O3 O3 O3 62.35(19) 5 2_565
O2 O3 O3 34.5(3) 3_565 2_565
O3 O3 O3 99.07(15) 5_556 2_565
Ga2 O3 O3 61.7(2) 2_566 2_565
Ga3 O3 O3 118.1(2) 1_656 2_565
La O3 O3 4.68(9) 2_565 2_565
O2 O3 O3 100.5(3) 6 2_565
O3 O3 O3 104.7(4) 2 2_565
Ga3 O3 O3 53.1(2) 2_564 2_565
Ga2 O3 O3 127.2(3) . 2_565
O3 O3 O3 138.06(18) 2_556 2_565
Ga1 O3 O3 123.5(2) 1_556 2_565
Nb O3 O3 123.5(2) 1_556 2_565
O2 O3 O3 85.0(3) 1_556 2_565
La O3 O3 61.99(10) 4 2_565
O1 O3 O3 104.8(4) 2_455 2_565
Ga3 O3 O3 96.7(3) 4_445 2_565
La O3 O3 110.2(3) 1_556 2_565
O2 O3 O3 171.9(4) 4_446 2_565
O2 O3 O3 58.1(3) . 2_565
Ga2 O3 O3 50.88(5) 1_665 2_565
La O3 O3 134.7(3) 4_445 2_565
O2 O3 O3 119.9(4) 4_445 2_565
Ga2 O3 O3 40.5(2) 2_565 2_565
O2 O3 O3 121.7(2) 6_655 2_565
O1 O3 O3 130.2(3) 2_456 2_565
Ga3 O3 O3 88.8(2) 1_556 2_565
O1 O3 O3 30.81(6) 2_565 2_565
La O3 O3 133.2(3) 2 2_565
Ga3 O3 O3 86.6(3) 1_655 2_565
O3 O3 O3 66.6(2) 1_554 2_565
O3 O3 O3 113.4(2) 1_556 2_565
O2 O3 O3 57.4(2) 4_456 2_565
O2 O3 O3 106.40(19) 1_656 2_565
La O3 O3 70.75(15) 2_566 2_565
O2 O3 O3 127.4(3) 2_455 2_565
O2 O3 O3 27.2(3) 4_455 2_565
O1 O3 O3 65.97(14) 2_566 2_565
O2 O3 O3 83.8(2) 1_655 2_565
O1 O3 O3 152.7(3) 1_545 2_565
O2 O3 O3 55.37(17) 5 2_565
O3 O3 O3 25.3(2) 3_565 2_565
O3 O3 O3 71.6(3) 4_455 2_565
Ga2 O3 O3 94.1(3) 1_554 2_565
O2 O3 O3 33.15(16) 6_665 2_565
O2 O3 O3 92.5(4) 5_444 2_565
O2 O3 O3 42.3(2) 2_564 2_565
Ga2 O3 O3 171.5(3) 2_556 2_565
La O3 O3 46.8(2) 4_455 2_565
La O3 O3 90.07(12) 4_556 2_565
O1 O3 O3 86.6(2) 1_556 2_565
O3 O3 O3 70.6(3) 4_554 2_565
O3 O3 O3 91.8(2) 3_554 2_565
O3 O3 O3 111.6(2) 4_556 2_565
O3 O3 O3 137.1(2) 3_556 2_565
O1 O3 O3 84.72(12) 1_655 2_565
La O3 O3 153.3(3) 4_446 2_565
O2 O3 O3 134.4(3) 5_446 2_565
La O3 O3 104.7(2) 2_455 2_565
O3 O3 O3 82.3(3) 2_455 2_565
Ga3 O3 O2 153.1(5) 2_565 6_554
Nb O3 O2 84.0(3) . 6_554
Ga1 O3 O2 84.0(3) . 6_554
La O3 O2 21.6(2) . 6_554
Ga3 O3 O2 108.7(3) 4_446 6_554
O3 O3 O2 35.55(16) 6 6_554
O3 O3 O2 128.15(15) 4 6_554
O3 O3 O2 101.5(4) 3 6_554
O2 O3 O2 70.8(3) 5_445 6_554
O3 O3 O2 129.9(4) 6_556 6_554
O2 O3 O2 120.6(4) 2_565 6_554
O2 O3 O2 123.6(3) 3_566 6_554
O1 O3 O2 65.9(3) . 6_554
O3 O3 O2 79.5(4) 5 6_554
O2 O3 O2 46.97(17) 3_565 6_554
O3 O3 O2 175.78(15) 5_556 6_554
Ga2 O3 O2 91.8(2) 2_566 6_554
Ga3 O3 O2 141.5(3) 1_656 6_554
La O3 O2 81.8(2) 2_565 6_554
O2 O3 O2 56.2(2) 6 6_554
O3 O3 O2 79.1(3) 2 6_554
Ga3 O3 O2 54.26(17) 2_564 6_554
Ga2 O3 O2 71.85(18) . 6_554
O3 O3 O2 142.4(2) 2_556 6_554
Ga1 O3 O2 153.7(3) 1_556 6_554
Nb O3 O2 153.7(3) 1_556 6_554
O2 O3 O2 88.3(3) 1_556 6_554
La O3 O2 111.4(3) 4 6_554
O1 O3 O2 28.8(2) 2_455 6_554
Ga3 O3 O2 43.96(13) 4_445 6_554
La O3 O2 113.1(2) 1_556 6_554
O2 O3 O2 108.0(3) 4_446 6_554
O2 O3 O2 26.1(3) . 6_554
Ga2 O3 O2 128.3(3) 1_665 6_554
La O3 O2 57.40(14) 4_445 6_554
O2 O3 O2 56.4(2) 4_445 6_554
Ga2 O3 O2 37.04(14) 2_565 6_554
O2 O3 O2 121.7(3) 6_655 6_554
O1 O3 O2 91.8(2) 2_456 6_554
Ga3 O3 O2 68.29(16) 1_556 6_554
O1 O3 O2 93.4(3) 2_565 6_554
La O3 O2 90.54(18) 2 6_554
Ga3 O3 O2 77.49(18) 1_655 6_554
O3 O3 O2 39.09(16) 1_554 6_554
O3 O3 O2 140.91(16) 1_556 6_554
O2 O3 O2 98.7(3) 4_456 6_554
O2 O3 O2 152.7(3) 1_656 6_554
La O3 O2 130.4(2) 2_566 6_554
O2 O3 O2 60.53(14) 2_455 6_554
O2 O3 O2 53.9(2) 4_455 6_554
O1 O3 O2 142.4(3) 2_566 6_554
O2 O3 O2 96.4(2) 1_655 6_554
O1 O3 O2 82.4(2) 1_545 6_554
O2 O3 O2 126.1(3) 5 6_554
O3 O3 O2 89.53(15) 3_565 6_554
O3 O3 O2 56.63(18) 4_455 6_554
Ga2 O3 O2 17.05(10) 1_554 6_554
O2 O3 O2 110.7(3) 6_665 6_554
O2 O3 O2 27.41(19) 5_444 6_554
O2 O3 O2 62.9(3) 2_564 6_554
Ga2 O3 O2 97.16(19) 2_556 6_554
La O3 O2 56.26(15) 4_455 6_554
La O3 O2 167.4(3) 4_556 6_554
O1 O3 O2 117.9(2) 1_556 6_554
O3 O3 O2 66.76(16) 4_554 6_554
O3 O3 O2 53.8(2) 3_554 6_554
O3 O3 O2 167.3(3) 4_556 6_554
O3 O3 O2 141.2(4) 3_556 6_554
O1 O3 O2 125.4(3) 1_655 6_554
La O3 O2 103.9(2) 4_446 6_554
O2 O3 O2 119.7(2) 5_446 6_554
La O3 O2 40.72(13) 2_455 6_554
O3 O3 O2 28.14(16) 2_455 6_554
O3 O3 O2 77.5(3) 2_565 6_554
Ga3 O3 O2 16.9(3) 2_565 2_566
Nb O3 O2 123.3(4) . 2_566
Ga1 O3 O2 123.3(4) . 2_566
La O3 O2 131.1(3) . 2_566
Ga3 O3 O2 82.5(3) 4_446 2_566
O3 O3 O2 170.9(4) 6 2_566
O3 O3 O2 76.9(3) 4 2_566
O3 O3 O2 103.4(2) 3 2_566
O2 O3 O2 110.0(4) 5_445 2_566
O3 O3 O2 46.9(4) 6_556 2_566
O2 O3 O2 55.4(3) 2_565 2_566
O2 O3 O2 28.1(2) 3_566 2_566
O1 O3 O2 87.6(3) . 2_566
O3 O3 O2 117.0(4) 5 2_566
O2 O3 O2 124.2(4) 3_565 2_566
O3 O3 O2 24.7(3) 5_556 2_566
Ga2 O3 O2 60.0(2) 2_566 2_566
Ga3 O3 O2 66.8(2) 1_656 2_566
La O3 O2 85.1(2) 2_565 2_566
O2 O3 O2 102.6(4) 6 2_566
O3 O3 O2 129.0(4) 2 2_566
Ga3 O3 O2 134.3(3) 2_564 2_566
Ga2 O3 O2 97.4(2) . 2_566
O3 O3 O2 59.5(3) 2_556 2_566
Ga1 O3 O2 34.67(15) 1_556 2_566
Nb O3 O2 34.67(15) 1_556 2_566
O2 O3 O2 65.1(2) 1_556 2_566
La O3 O2 83.6(2) 4 2_566
O1 O3 O2 142.5(4) 2_455 2_566
Ga3 O3 O2 164.4(3) 4_445 2_566
La O3 O2 47.85(15) 1_556 2_566
O2 O3 O2 82.7(3) 4_446 2_566
O2 O3 O2 127.1(2) . 2_566
Ga2 O3 O2 47.44(14) 1_665 2_566
La O3 O2 132.1(3) 4_445 2_566
O2 O3 O2 147.8(3) 4_445 2_566
Ga2 O3 O2 125.4(2) 2_565 2_566
O2 O3 O2 86.6(2) 6_655 2_566
O1 O3 O2 77.0(3) 2_456 2_566
Ga3 O3 O2 86.4(2) 1_556 2_566
O1 O3 O2 87.8(3) 2_565 2_566
La O3 O2 116.1(2) 2 2_566
Ga3 O3 O2 127.5(3) 1_655 2_566
O3 O3 O2 152.68(17) 1_554 2_566
O3 O3 O2 27.32(17) 1_556 2_566
O2 O3 O2 53.64(14) 4_456 2_566
O2 O3 O2 55.3(4) 1_656 2_566
La O3 O2 22.97(14) 2_566 2_566
O2 O3 O2 112.0(3) 2_455 2_566
O2 O3 O2 105.8(2) 4_455 2_566
O1 O3 O2 28.51(19) 2_566 2_566
O2 O3 O2 107.4(3) 1_655 2_566
O1 O3 O2 116.1(3) 1_545 2_566
O2 O3 O2 60.28(17) 5 2_566
O3 O3 O2 70.0(2) 3_565 2_566
O3 O3 O2 95.42(18) 4_455 2_566
Ga2 O3 O2 158.0(3) 1_554 2_566
O2 O3 O2 59.67(17) 6_665 2_566
O2 O3 O2 176.7(4) 5_444 2_566
O2 O3 O2 121.9(3) 2_564 2_566
Ga2 O3 O2 97.9(2) 2_556 2_566
La O3 O2 96.66(19) 4_455 2_566
La O3 O2 27.68(16) 4_556 2_566
O1 O3 O2 35.03(16) 1_556 2_566
O3 O3 O2 132.7(3) 4_554 2_566
O3 O3 O2 153.3(4) 3_554 2_566
O3 O3 O2 27.0(2) 4_556 2_566
O3 O3 O2 47.55(15) 3_556 2_566
O1 O3 O2 77.5(3) 1_655 2_566
La O3 O2 76.58(17) 4_446 2_566
O2 O3 O2 54.4(2) 5_446 2_566
La O3 O2 122.7(2) 2_455 2_566
O3 O3 O2 125.8(3) 2_455 2_566
O3 O3 O2 89.75(19) 2_565 2_566
O2 O3 O2 151.6(2) 6_554 2_566
Ga3 O3 La 74.9(4) 2_565 2_556
Nb O3 La 81.5(3) . 2_556
Ga1 O3 La 81.5(3) . 2_556
La O3 La 130.1(4) . 2_556
Ga3 O3 La 24.05(14) 4_446 2_556
O3 O3 La 111.8(5) 6 2_556
O3 O3 La 66.6(3) 4 2_556
O3 O3 La 39.02(9) 3 2_556
O2 O3 La 64.1(3) 5_445 2_556
O3 O3 La 38.0(3) 6_556 2_556
O2 O3 La 107.6(3) 2_565 2_556
O2 O3 La 89.8(4) 3_566 2_556
O1 O3 La 145.9(4) . 2_556
O3 O3 La 111.6(3) 5 2_556
O2 O3 La 161.1(3) 3_565 2_556
O3 O3 La 53.16(14) 5_556 2_556
Ga2 O3 La 115.4(3) 2_566 2_556
Ga3 O3 La 37.77(14) 1_656 2_556
La O3 La 147.4(3) 2_565 2_556
O2 O3 La 101.3(3) 6 2_556
O3 O3 La 79.1(3) 2 2_556
Ga3 O3 La 133.4(2) 2_564 2_556
Ga2 O3 La 75.0(2) . 2_556
O3 O3 La 13.43(12) 2_556 2_556
Ga1 O3 La 33.09(10) 1_556 2_556
Nb O3 La 33.09(10) 1_556 2_556
O2 O3 La 99.9(3) 1_556 2_556
La O3 La 96.92(16) 4 2_556
O1 O3 La 103.9(3) 2_455 2_556
Ga3 O3 La 101.6(2) 4_445 2_556
La O3 La 67.79(17) 1_556 2_556
O2 O3 La 25.1(2) 4_446 2_556
O2 O3 La 150.1(3) . 2_556
Ga2 O3 La 100.57(17) 1_665 2_556
La O3 La 73.17(17) 4_445 2_556
O2 O3 La 80.4(2) 4_445 2_556
Ga2 O3 La 166.9(2) 2_565 2_556
O2 O3 La 43.47(16) 6_655 2_556
O1 O3 La 63.47(18) 2_456 2_556
Ga3 O3 La 106.1(2) 1_556 2_556
O1 O3 La 126.5(2) 2_565 2_556
La O3 La 53.32(11) 2 2_556
Ga3 O3 La 93.63(15) 1_655 2_556
O3 O3 La 129.01(9) 1_554 2_556
O3 O3 La 50.99(9) 1_556 2_556
O2 O3 La 114.5(3) 4_456 2_556
O2 O3 La 46.56(14) 1_656 2_556
La O3 La 89.70(16) 2_566 2_556
O2 O3 La 79.1(2) 2_455 2_556
O2 O3 La 172.2(2) 4_455 2_556
O1 O3 La 86.88(19) 2_566 2_556
O2 O3 La 86.60(18) 1_655 2_556
O1 O3 La 49.33(17) 1_545 2_556
O2 O3 La 96.9(2) 5 2_556
O3 O3 La 137.47(16) 3_565 2_556
O3 O3 La 125.6(3) 4_455 2_556
Ga2 O3 La 113.6(2) 1_554 2_556
O2 O3 La 118.6(2) 6_665 2_556
O2 O3 La 111.1(3) 5_444 2_556
O2 O3 La 137.5(3) 2_564 2_556
Ga2 O3 La 33.37(8) 2_556 2_556
La O3 La 148.3(2) 4_455 2_556
La O3 La 61.59(11) 4_556 2_556
O1 O3 La 84.11(17) 1_556 2_556
O3 O3 La 111.6(2) 4_554 2_556
O3 O3 La 101.0(2) 3_554 2_556
O3 O3 La 42.05(17) 4_556 2_556
O3 O3 La 22.95(13) 3_556 2_556
O1 O3 La 73.80(15) 1_655 2_556
La O3 La 40.00(9) 4_446 2_556
O2 O3 La 43.58(14) 5_446 2_556
La O3 La 102.3(2) 2_455 2_556
O3 O3 La 124.9(2) 2_455 2_556
O3 O3 La 151.31(19) 2_565 2_556
O2 O3 La 130.5(2) 6_554 2_556
O2 O3 La 67.48(17) 2_566 2_556
Ga3 O3 O3 96.1(5) 2_565 2_456
Nb O3 O3 148.6(4) . 2_456
Ga1 O3 O3 148.6(4) . 2_456
La O3 O3 55.77(18) . 2_456
Ga3 O3 O3 76.3(3) 4_446 2_456
O3 O3 O3 107.7(2) 6 2_456
O3 O3 O3 154.5(3) 4 2_456
O3 O3 O3 113.4(5) 3 2_456
O2 O3 O3 54.8(2) 5_445 2_456
O3 O3 O3 61.0(2) 6_556 2_456
O2 O3 O3 116.2(5) 2_565 2_456
O2 O3 O3 62.1(4) 3_566 2_456
O1 O3 O3 59.4(3) . 2_456
O3 O3 O3 153.4(5) 5 2_456
O2 O3 O3 103.3(3) 3_565 2_456
O3 O3 O3 102.0(6) 5_556 2_456
Ga2 O3 O3 46.5(3) 2_566 2_456
Ga3 O3 O3 127.9(4) 1_656 2_456
La O3 O3 100.4(3) 2_565 2_456
O2 O3 O3 21.2(2) 6 2_456
O3 O3 O3 139.37(13) 2 2_456
Ga3 O3 O3 126.5(3) 2_564 2_456
Ga2 O3 O3 30.73(6) . 2_456
O3 O3 O3 101.4(4) 2_556 2_456
Ga1 O3 O3 83.5(3) 1_556 2_456
Nb O3 O3 83.5(3) 1_556 2_456
O2 O3 O3 22.8(3) 1_556 2_456
La O3 O3 157.4(2) 4 2_456
O1 O3 O3 62.09(17) 2_455 2_456
Ga3 O3 O3 111.06(18) 4_445 2_456
La O3 O3 36.71(19) 1_556 2_456
O2 O3 O3 75.1(3) 4_446 2_456
O2 O3 O3 67.4(2) . 2_456
Ga2 O3 O3 113.2(2) 1_665 2_456
La O3 O3 74.22(7) 4_445 2_456
O2 O3 O3 102.8(2) 4_445 2_456
Ga2 O3 O3 87.5(2) 2_565 2_456
O2 O3 O3 135.5(4) 6_655 2_456
O1 O3 O3 30.07(9) 2_456 2_456
Ga3 O3 O3 13.31(9) 1_556 2_456
O1 O3 O3 131.0(2) 2_565 2_456
La O3 O3 120.1(2) 2 2_456
Ga3 O3 O3 150.4(2) 1_655 2_456
O3 O3 O3 115.2(2) 1_554 2_456
O3 O3 O3 64.8(2) 1_556 2_456
O2 O3 O3 55.4(3) 4_456 2_456
O2 O3 O3 127.5(4) 1_656 2_456
La O3 O3 73.5(2) 2_566 2_456
O2 O3 O3 42.14(18) 2_455 2_456
O2 O3 O3 81.9(2) 4_455 2_456
O1 O3 O3 101.2(3) 2_566 2_456
O2 O3 O3 170.0(3) 1_655 2_456
O1 O3 O3 91.92(15) 1_545 2_456
O2 O3 O3 132.4(3) 5 2_456
O3 O3 O3 82.4(2) 3_565 2_456
O3 O3 O3 32.8(2) 4_455 2_456
Ga2 O3 O3 76.59(13) 1_554 2_456
O2 O3 O3 107.3(3) 6_665 2_456
O2 O3 O3 95.78(18) 5_444 2_456
O2 O3 O3 128.4(3) 2_564 2_456
Ga2 O3 O3 83.93(17) 2_556 2_456
La O3 O3 56.78(16) 4_455 2_456
La O3 O3 108.5(3) 4_556 2_456
O1 O3 O3 48.3(2) 1_556 2_456
O3 O3 O3 143.2(3) 4_554 2_456
O3 O3 O3 124.3(2) 3_554 2_456
O3 O3 O3 92.8(2) 4_556 2_456
O3 O3 O3 79.1(3) 3_556 2_456
O1 O3 O3 158.2(3) 1_655 2_456
La O3 O3 54.68(15) 4_446 2_456
O2 O3 O3 51.8(2) 5_446 2_456
La O3 O3 41.69(8) 2_455 2_456
O3 O3 O3 48.62(10) 2_455 2_456
O3 O3 O3 101.1(3) 2_565 2_456
O2 O3 O3 76.4(2) 6_554 2_456
O2 O3 O3 81.4(3) 2_566 2_456
La O3 O3 92.8(3) 2_556 2_456
Ga3 O3 O3 38.21(19) 2_565 2_566
Nb O3 O3 130.1(4) . 2_566
Ga1 O3 O3 130.1(4) . 2_566
La O3 O3 102.0(4) . 2_566
Ga3 O3 O3 123.5(4) 4_446 2_566
O3 O3 O3 136.2(8) 6 2_566
O3 O3 O3 92.1(4) 4 2_566
O3 O3 O3 143.3(3) 3 2_566
O2 O3 O3 133.6(4) 5_445 2_566
O3 O3 O3 84.4(5) 6_556 2_566
O2 O3 O3 35.4(4) 2_565 2_566
O2 O3 O3 28.0(4) 3_566 2_566
O1 O3 O3 50.1(3) . 2_566
O3 O3 O3 99.40(17) 5 2_566
O2 O3 O3 82.2(3) 3_565 2_566
O3 O3 O3 60.9(2) 5_556 2_566
Ga2 O3 O3 36.1(2) 2_566 2_566
Ga3 O3 O3 99.6(2) 1_656 2_566
La O3 O3 44.10(11) 2_565 2_566
O2 O3 O3 96.0(3) 6 2_566
O3 O3 O3 139.37(13) 2 2_566
Ga3 O3 O3 100.6(3) 2_564 2_566
Ga2 O3 O3 110.4(3) . 2_566
O3 O3 O3 101.4(4) 2_556 2_566
Ga1 O3 O3 77.7(2) 1_556 2_566
Nb O3 O3 77.7(2) 1_556 2_566
O2 O3 O3 58.1(3) 1_556 2_566
La O3 O3 76.66(8) 4 2_566
O1 O3 O3 130.1(3) 2_455 2_566
Ga3 O3 O3 145.3(4) 4_445 2_566
La O3 O3 67.7(2) 1_556 2_566
O2 O3 O3 123.3(3) 4_446 2_566
O2 O3 O3 89.0(3) . 2_566
Ga2 O3 O3 33.16(6) 1_665 2_566
La O3 O3 155.0(2) 4_445 2_566
O2 O3 O3 168.5(4) 4_445 2_566
Ga2 O3 O3 82.5(3) 2_565 2_566
O2 O3 O3 117.2(3) 6_655 2_566
O1 O3 O3 97.4(3) 2_456 2_566
Ga3 O3 O3 76.1(2) 1_556 2_566
O1 O3 O3 60.04(15) 2_565 2_566
La O3 O3 151.2(2) 2 2_566
Ga3 O3 O3 123.2(2) 1_655 2_566
O3 O3 O3 115.2(2) 1_554 2_566
O3 O3 O3 64.8(2) 1_556 2_566
O2 O3 O3 26.4(3) 4_456 2_566
O2 O3 O3 85.0(3) 1_656 2_566
La O3 O3 22.14(11) 2_566 2_566
O2 O3 O3 123.0(3) 2_455 2_566
O2 O3 O3 63.1(3) 4_455 2_566
O1 O3 O3 30.57(9) 2_566 2_566
O2 O3 O3 108.7(2) 1_655 2_566
O1 O3 O3 158.5(4) 1_545 2_566
O2 O3 O3 52.08(12) 5 2_566
O3 O3 O3 27.0(3) 3_565 2_566
O3 O3 O3 71.9(3) 4_455 2_566
Ga2 O3 O3 130.9(3) 1_554 2_566
O2 O3 O3 28.53(12) 6_665 2_566
O2 O3 O3 138.4(4) 5_444 2_566
O2 O3 O3 88.5(2) 2_564 2_566
Ga2 O3 O3 139.7(3) 2_556 2_566
La O3 O3 60.2(2) 4_455 2_566
La O3 O3 56.01(13) 4_556 2_566
O1 O3 O3 42.36(17) 1_556 2_566
O3 O3 O3 113.2(3) 4_554 2_566
O3 O3 O3 138.8(3) 3_554 2_566
O3 O3 O3 69.0(2) 4_556 2_566
O3 O3 O3 90.05(19) 3_556 2_566
O1 O3 O3 87.68(11) 1_655 2_566
La O3 O3 110.4(3) 4_446 2_566
O2 O3 O3 87.8(3) 5_446 2_566
La O3 O3 114.5(2) 2_455 2_566
O3 O3 O3 101.1(3) 2_455 2_566
O3 O3 O3 48.62(10) 2_565 2_566
O2 O3 O3 114.9(3) 6_554 2_566
O2 O3 O3 43.05(19) 2_566 2_566
La O3 O3 110.5(3) 2_556 2_566
O3 O3 O3 80.8(2) 2_456 2_566
Ga3 O3 La 84.1(3) 2_565 1_655
Nb O3 La 29.2(2) . 1_655
Ga1 O3 La 29.2(2) . 1_655
La O3 La 134.6(3) . 1_655
Ga3 O3 La 80.0(2) 4_446 1_655
O3 O3 La 77.79(10) 6 1_655
O3 O3 La 19.9(3) 4 1_655
O3 O3 La 44.7(4) 3 1_655
O2 O3 La 106.2(3) 5_445 1_655
O3 O3 La 99.04(16) 6_556 1_655
O2 O3 La 78.7(4) 2_565 1_655
O2 O3 La 120.3(3) 3_566 1_655
O1 O3 La 144.1(4) . 1_655
O3 O3 La 47.6(2) 5 1_655
O2 O3 La 98.5(3) 3_565 1_655
O3 O3 La 69.8(3) 5_556 1_655
Ga2 O3 La 147.5(3) 2_566 1_655
Ga3 O3 La 32.85(10) 1_656 1_655
La O3 La 102.5(3) 2_565 1_655
O2 O3 La 151.7(3) 6 1_655
O3 O3 La 35.4(2) 2 1_655
Ga3 O3 La 72.59(16) 2_564 1_655
Ga2 O3 La 129.0(3) . 1_655
O3 O3 La 57.2(2) 2_556 1_655
Ga1 O3 La 79.90(14) 1_556 1_655
Nb O3 La 79.90(14) 1_556 1_655
O2 O3 La 158.2(3) 1_556 1_655
La O3 La 41.72(8) 4 1_655
O1 O3 La 115.5(2) 2_455 1_655
Ga3 O3 La 70.63(13) 4_445 1_655
La O3 La 127.7(2) 1_556 1_655
O2 O3 La 81.2(2) 4_446 1_655
O2 O3 La 130.5(3) . 1_655
Ga2 O3 La 78.85(16) 1_665 1_655
La O3 La 92.37(15) 4_445 1_655
O2 O3 La 69.0(2) 4_445 1_655
Ga2 O3 La 113.5(2) 2_565 1_655
O2 O3 La 20.88(14) 6_655 1_655
O1 O3 La 126.2(2) 2_456 1_655
Ga3 O3 La 168.9(3) 1_556 1_655
O1 O3 La 71.73(15) 2_565 1_655
La O3 La 41.76(7) 2 1_655
Ga3 O3 La 36.73(7) 1_655 1_655
O3 O3 La 78.67(11) 1_554 1_655
O3 O3 La 101.33(11) 1_556 1_655
O2 O3 La 137.9(3) 4_456 1_655
O2 O3 La 39.55(19) 1_656 1_655
La O3 La 110.19(18) 2_566 1_655
O2 O3 La 121.9(2) 2_455 1_655
O2 O3 La 121.6(3) 4_455 1_655
O1 O3 La 84.28(15) 2_566 1_655
O2 O3 La 22.71(13) 1_655 1_655
O1 O3 La 68.95(11) 1_545 1_655
O2 O3 La 60.91(16) 5 1_655
O3 O3 La 118.1(4) 3_565 1_655
O3 O3 La 168.60(12) 4_455 1_655
Ga2 O3 La 106.12(16) 1_554 1_655
O2 O3 La 90.0(2) 6_665 1_655
O2 O3 La 87.75(17) 5_444 1_655
O2 O3 La 73.6(2) 2_564 1_655
Ga2 O3 La 73.51(12) 2_556 1_655
La O3 La 146.9(3) 4_455 1_655
La O3 La 67.05(11) 4_556 1_655
O1 O3 La 128.87(18) 1_556 1_655
O3 O3 La 52.01(15) 4_554 1_655
O3 O3 La 59.5(2) 3_554 1_655
O3 O3 La 74.4(2) 4_556 1_655
O3 O3 La 80.75(18) 3_556 1_655
O1 O3 La 24.13(6) 1_655 1_655
La O3 La 101.56(17) 4_446 1_655
O2 O3 La 106.95(18) 5_446 1_655
La O3 La 133.65(18) 2_455 1_655
O3 O3 La 140.0(3) 2_455 1_655
O3 O3 La 102.25(18) 2_565 1_655
O2 O3 La 113.2(2) 6_554 1_655
O2 O3 La 94.1(2) 2_566 1_655
La O3 La 64.18(10) 2_556 1_655
O3 O3 La 156.2(3) 2_456 1_655
O3 O3 La 111.70(13) 2_566 1_655
Ga2 O2 Ga3 119.7(6) 2_565 .
Ga2 O2 La 105.7(6) 2_565 .
Ga3 O2 La 120.1(6) . .
Ga2 O2 O3 117.2(7) 2_565 5_455
Ga3 O2 O3 62.7(5) . 5_455
La O2 O3 127.2(5) . 5_455
Ga2 O2 O2 39.9(2) 2_565 3_565
Ga3 O2 O2 143.9(7) . 3_565
La O2 O2 65.7(6) . 3_565
O3 O2 O2 146.2(8) 5_455 3_565
Ga2 O2 O2 39.9(2) 2_565 4_455
Ga3 O2 O2 129.5(8) . 4_455
La O2 O2 110.3(4) . 4_455
O3 O2 O2 86.9(8) 5_455 4_455
O2 O2 O2 60.000(1) 3_565 4_455
Ga2 O2 La 90.6(5) 2_565 4_455
Ga3 O2 La 112.7(7) . 4_455
La O2 La 103.1(4) . 4_455
O3 O2 La 50.2(4) 5_455 4_455
O2 O2 La 98.7(4) 3_565 4_455
O2 O2 La 50.6(4) 4_455 4_455
Ga2 O2 O3 159.0(6) 2_565 2_455
Ga3 O2 O3 39.3(3) . 2_455
La O2 O3 91.2(4) . 2_455
O3 O2 O3 57.5(4) 5_455 2_455
O2 O2 O3 154.2(9) 3_565 2_455
O2 O2 O3 144.2(9) 4_455 2_455
La O2 O3 97.8(5) 4_455 2_455
Ga2 O2 O1 84.1(4) 2_565 .
Ga3 O2 O1 153.9(7) . .
La O2 O1 55.8(2) . .
O3 O2 O1 98.2(5) 5_455 .
O2 O2 O1 61.3(2) 3_565 .
O2 O2 O1 61.3(2) 4_455 .
La O2 O1 52.1(3) 4_455 .
O3 O2 O1 116.2(5) 2_455 .
Ga2 O2 O2 101.5(6) 2_565 6_554
Ga3 O2 O2 39.8(6) . 6_554
La O2 O2 97.5(5) . 6_554
O3 O2 O2 102.5(3) 5_455 6_554
O2 O2 O2 106.5(4) 3_565 6_554
O2 O2 O2 136.5(4) 4_455 6_554
La O2 O2 152.3(2) 4_455 6_554
O3 O2 O2 63.2(5) 2_455 6_554
O1 O2 O2 153.0(5) . 6_554
Ga2 O2 O3 88.8(4) 2_565 4_454
Ga3 O2 O3 35.9(3) . 4_454
La O2 O3 154.4(6) . 4_454
O3 O2 O3 58.5(5) 5_455 4_454
O2 O2 O3 125.8(3) 3_565 4_454
O2 O2 O3 94.4(6) 4_455 4_454
La O2 O3 97.6(5) 4_455 4_454
O3 O2 O3 71.0(4) 2_455 4_454
O1 O2 O3 148.7(6) . 4_454
O2 O2 O3 58.3(4) 6_554 4_454
Ga2 O2 O1 30.9(3) 2_565 1_554
Ga3 O2 O1 89.3(4) . 1_554
La O2 O1 122.4(6) . 1_554
O3 O2 O1 110.0(5) 5_455 1_554
O2 O2 O1 63.2(2) 3_565 1_554
O2 O2 O1 63.2(2) 4_455 1_554
La O2 O1 109.0(4) 4_455 1_554
O3 O2 O1 128.5(5) 2_455 1_554
O1 O2 O1 114.9(3) . 1_554
O2 O2 O1 73.9(4) 6_554 1_554
O3 O2 O1 62.7(3) 4_454 1_554
Ga2 O2 O3 133.1(7) 2_565 4_455
Ga3 O2 O3 94.3(5) . 4_455
La O2 O3 79.2(4) . 4_455
O3 O2 O3 49.2(4) 5_455 4_455
O2 O2 O3 121.0(2) 3_565 4_455
O2 O2 O3 93.9(5) 4_455 4_455
La O2 O3 44.3(3) 4_455 4_455
O3 O2 O3 61.5(5) 2_455 4_455
O1 O2 O3 59.8(3) . 4_455
O2 O2 O3 124.5(4) 6_554 4_455
O3 O2 O3 106.4(5) 4_454 4_455
O1 O2 O3 151.9(5) 1_554 4_455
Ga2 O2 Nb 149.6(8) 2_565 1_455
Ga3 O2 Nb 61.5(4) . 1_455
La O2 Nb 97.1(3) . 1_455
O3 O2 Nb 33.3(2) 5_455 1_455
O2 O2 Nb 153.7(2) 3_565 1_455
O2 O2 Nb 113.1(7) 4_455 1_455
La O2 Nb 64.5(3) 4_455 1_455
O3 O2 Nb 33.4(3) 2_455 1_455
O1 O2 Nb 92.7(4) . 1_455
O2 O2 Nb 95.0(3) 6_554 1_455
O3 O2 Nb 78.3(3) 4_454 1_455
O1 O2 Nb 139.7(4) 1_554 1_455
O3 O2 Nb 32.9(2) 4_455 1_455
Ga2 O2 Ga1 149.6(8) 2_565 1_455
Ga3 O2 Ga1 61.5(4) . 1_455
La O2 Ga1 97.1(3) . 1_455
O3 O2 Ga1 33.3(2) 5_455 1_455
O2 O2 Ga1 153.7(2) 3_565 1_455
O2 O2 Ga1 113.1(7) 4_455 1_455
La O2 Ga1 64.5(3) 4_455 1_455
O3 O2 Ga1 33.4(3) 2_455 1_455
O1 O2 Ga1 92.7(4) . 1_455
O2 O2 Ga1 95.0(3) 6_554 1_455
O3 O2 Ga1 78.3(3) 4_454 1_455
O1 O2 Ga1 139.7(4) 1_554 1_455
O3 O2 Ga1 32.9(2) 4_455 1_455
Nb O2 Ga1 0.0 1_455 1_455
Ga2 O2 O1 127.7(8) 2_565 2_455
Ga3 O2 O1 75.6(4) . 2_455
La O2 O1 45.2(3) . 2_455
O3 O2 O1 114.0(3) 5_455 2_455
O2 O2 O1 96.5(7) 3_565 2_455
O2 O2 O1 154.1(6) 4_455 2_455
La O2 O1 132.1(4) 4_455 2_455
O3 O2 O1 57.7(3) 2_455 2_455
O1 O2 O1 99.1(3) . 2_455
O2 O2 O1 56.5(4) 6_554 2_455
O3 O2 O1 109.3(4) 4_454 2_455
O1 O2 O1 118.4(5) 1_554 2_455
O3 O2 O1 89.4(4) 4_455 2_455
Nb O2 O1 82.7(2) 1_455 2_455
Ga1 O2 O1 82.7(2) 1_455 2_455
Ga2 O2 Ga2 111.6(7) 2_565 1_554
Ga3 O2 Ga2 60.0(4) . 1_554
La O2 Ga2 68.4(4) . 1_554
O3 O2 Ga2 117.3(3) 5_455 1_554
O2 O2 Ga2 96.4(7) 3_565 1_554
O2 O2 Ga2 151.3(6) 4_455 1_554
La O2 Ga2 157.6(4) 4_455 1_554
O3 O2 Ga2 62.7(3) 2_455 1_554
O1 O2 Ga2 124.2(4) . 1_554
O2 O2 Ga2 29.2(2) 6_554 1_554
O3 O2 Ga2 86.7(4) 4_454 1_554
O1 O2 Ga2 92.6(4) 1_554 1_554
O3 O2 Ga2 113.3(3) 4_455 1_554
Nb O2 Ga2 95.2(2) 1_455 1_554
Ga1 O2 Ga2 95.2(2) 1_455 1_554
O1 O2 Ga2 28.7(3) 2_455 1_554
Ga2 O2 O2 140.9(4) 2_565 6
Ga3 O2 O2 97.4(5) . 6
La O2 O2 38.8(3) . 6
O3 O2 O2 89.4(3) 5_455 6
O2 O2 O2 102.3(2) 3_565 6
O2 O2 O2 123.1(4) 4_455 6
La O2 O2 85.5(4) 4_455 6
O3 O2 O2 59.4(4) 2_455 6
O1 O2 O2 63.1(4) . 6
O2 O2 O2 99.6(6) 6_554 6
O3 O2 O2 130.2(3) 4_454 6
O1 O2 O2 160.3(4) 1_554 6
O3 O2 O2 46.3(3) 4_455 6
Nb O2 O2 58.32(18) 1_455 6
Ga1 O2 O2 58.32(18) 1_455 6
O1 O2 O2 46.8(3) 2_455 6
Ga2 O2 O2 75.1(4) 1_554 6
Ga2 O2 O3 80.4(6) 2_565 6
Ga3 O2 O3 114.3(7) . 6
La O2 O3 36.6(3) . 6
O3 O2 O3 161.8(5) 5_455 6
O2 O2 O3 46.5(6) 3_565 6
O2 O2 O3 106.2(6) 4_455 6
La O2 O3 130.0(4) 4_455 6
O3 O2 O3 107.9(5) 2_455 6
O1 O2 O3 78.0(3) . 6
O2 O2 O3 76.9(3) 6_554 6
O3 O2 O3 130.8(5) 4_454 6
O1 O2 O3 87.5(4) 1_554 6
O3 O2 O3 115.9(4) 4_455 6
Nb O2 O3 128.5(4) 1_455 6
Ga1 O2 O3 128.5(4) 1_455 6
O1 O2 O3 50.2(3) 2_455 6
Ga2 O2 O3 54.6(3) 1_554 6
O2 O2 O3 72.9(3) 6 6
Ga2 O2 La 64.4(4) 2_565 1_554
Ga3 O2 La 68.5(4) . 1_554
La O2 La 103.0(5) . 1_554
O3 O2 La 122.2(4) 5_455 1_554
O2 O2 La 75.5(3) 3_565 1_554
O2 O2 La 102.3(2) 4_455 1_554
La O2 La 147.9(3) 4_455 1_554
O3 O2 La 100.1(4) 2_455 1_554
O1 O2 La 136.5(4) . 1_554
O2 O2 La 37.3(3) 6_554 1_554
O3 O2 La 63.9(4) 4_454 1_554
O1 O2 La 39.9(2) 1_554 1_554
O3 O2 La 161.6(3) 4_455 1_554
Nb O2 La 129.7(3) 1_455 1_554
Ga1 O2 La 129.7(3) 1_455 1_554
O1 O2 La 80.0(4) 2_455 1_554
Ga2 O2 La 52.8(2) 1_554 1_554
O2 O2 La 126.6(5) 6 1_554
O3 O2 La 68.2(3) 6 1_554
Ga2 O2 Ga3 107.8(5) 2_565 2_464
Ga3 O2 Ga3 48.8(4) . 2_464
La O2 Ga3 144.6(4) . 2_464
O3 O2 Ga3 20.9(3) 5_455 2_464
O2 O2 Ga3 146.3(6) 3_565 2_464
O2 O2 Ga3 88.8(7) 4_455 2_464
La O2 Ga3 65.8(3) 4_455 2_464
O3 O2 Ga3 59.4(3) 2_455 2_464
O1 O2 Ga3 117.0(5) . 2_464
O2 O2 Ga3 86.8(2) 6_554 2_464
O3 O2 Ga3 37.6(3) 4_454 2_464
O1 O2 Ga3 92.6(3) 1_554 2_464
O3 O2 Ga3 69.7(3) 4_455 2_464
Nb O2 Ga3 47.48(18) 1_455 2_464
Ga1 O2 Ga3 47.48(18) 1_455 2_464
O1 O2 Ga3 116.2(3) 2_455 2_464
Ga2 O2 Ga3 108.5(3) 1_554 2_464
O2 O2 Ga3 105.80(14) 6 2_464
O3 O2 Ga3 163.1(4) 6 2_464
La O2 Ga3 101.5(2) 1_554 2_464
Ga2 O2 La 56.6(3) 2_565 4_454
Ga3 O2 La 68.4(3) . 4_454
La O2 La 158.9(5) . 4_454
O3 O2 La 73.8(4) 5_455 4_454
O2 O2 La 95.9(2) 3_565 4_454
O2 O2 La 64.7(4) 4_455 4_454
La O2 La 89.4(3) 4_455 4_454
O3 O2 La 104.0(4) 2_455 4_454
O1 O2 La 125.8(4) . 4_454
O2 O2 La 77.2(4) 6_554 4_454
O3 O2 La 33.3(2) 4_454 4_454
O1 O2 La 36.49(14) 1_554 4_454
O3 O2 La 120.8(4) 4_455 4_454
Nb O2 La 103.6(3) 1_455 4_454
Ga1 O2 La 103.6(3) 1_455 4_454
O1 O2 La 133.7(4) 2_455 4_454
Ga2 O2 La 105.5(3) 1_554 4_454
O2 O2 La 161.63(17) 6 4_454
O3 O2 La 123.0(4) 6 4_454
La O2 La 60.51(16) 1_554 4_454
Ga3 O2 La 56.22(16) 2_464 4_454
Ga2 O2 Ga3 44.0(4) 2_565 2_564
Ga3 O2 Ga3 125.1(7) . 2_564
La O2 Ga3 66.7(3) . 2_564
O3 O2 Ga3 161.0(4) 5_455 2_564
O2 O2 Ga3 19.7(3) 3_565 2_564
O2 O2 Ga3 75.1(4) 4_455 2_564
La O2 Ga3 118.2(3) 4_455 2_564
O3 O2 Ga3 140.6(6) 2_455 2_564
O1 O2 Ga3 78.9(3) . 2_564
O2 O2 Ga3 86.8(2) 6_554 2_564
O3 O2 Ga3 115.9(4) 4_454 2_564
O1 O2 Ga3 56.2(2) 1_554 2_564
O3 O2 Ga3 136.8(3) 4_455 2_564
Nb O2 Ga3 163.8(3) 1_455 2_564
Ga1 O2 Ga3 163.8(3) 1_455 2_564
O1 O2 Ga3 85.0(3) 2_455 2_564
Ga2 O2 Ga3 78.6(3) 1_554 2_564
O2 O2 Ga3 105.49(14) 6 2_564
O3 O2 Ga3 36.4(3) 6 2_564
La O2 Ga3 57.6(2) 1_554 2_564
Ga3 O2 Ga3 148.7(3) 2_464 2_564
La O2 Ga3 92.5(2) 4_454 2_564
Ga2 O2 O3 52.8(5) 2_565 1_554
Ga3 O2 O3 100.2(6) . 1_554
La O2 O3 77.0(5) . 1_554
O3 O2 O3 154.6(4) 5_455 1_554
O2 O2 O3 44.3(4) 3_565 1_554
O2 O2 O3 91.5(4) 4_455 1_554
La O2 O3 140.3(4) 4_455 1_554
O3 O2 O3 121.8(6) 2_455 1_554
O1 O2 O3 103.3(4) . 1_554
O2 O2 O3 62.4(2) 6_554 1_554
O3 O2 O3 96.4(5) 4_454 1_554
O1 O2 O3 48.0(3) 1_554 1_554
O3 O2 O3 156.0(4) 4_455 1_554
Nb O2 O3 155.1(4) 1_455 1_554
Ga1 O2 O3 155.1(4) 1_455 1_554
O1 O2 O3 76.1(4) 2_455 1_554
Ga2 O2 O3 60.0(3) 1_554 1_554
O2 O2 O3 112.3(3) 6 1_554
O3 O2 O3 40.5(4) 6 1_554
La O2 O3 33.8(2) 1_554 1_554
Ga3 O2 O3 133.8(3) 2_464 1_554
La O2 O3 82.5(3) 4_454 1_554
Ga3 O2 O3 24.94(16) 2_564 1_554
Ga2 O2 La 49.5(3) 2_565 2_565
Ga3 O2 La 168.7(4) . 2_565
La O2 La 69.8(2) . 2_565
O3 O2 La 116.9(5) 5_455 2_565
O2 O2 La 31.9(2) 3_565 2_565
O2 O2 La 41.1(3) 4_455 2_565
La O2 La 67.3(2) 4_455 2_565
O3 O2 La 151.2(5) 2_455 2_565
O1 O2 La 35.1(2) . 2_565
O2 O2 La 138.4(3) 6_554 2_565
O3 O2 La 133.2(3) 4_454 2_565
O1 O2 La 80.2(3) 1_554 2_565
O3 O2 La 92.9(3) 4_455 2_565
Nb O2 La 125.1(4) 1_455 2_565
Ga1 O2 La 125.1(4) 1_455 2_565
O1 O2 La 113.2(3) 2_455 2_565
Ga2 O2 La 124.3(4) 1_554 2_565
O2 O2 La 93.9(4) 6 2_565
O3 O2 La 69.8(3) 6 2_565
La O2 La 105.1(3) 1_554 2_565
Ga3 O2 La 126.9(4) 2_464 2_565
La O2 La 100.4(2) 4_454 2_565
Ga3 O2 La 51.59(13) 2_564 2_565
O3 O2 La 76.1(2) 1_554 2_565
Ga2 O2 Ga3 138.1(5) 2_565 1_556
Ga3 O2 Ga3 100.7(4) . 1_556
La O2 Ga3 57.3(2) . 1_556
O3 O2 Ga3 70.1(4) 5_455 1_556
O2 O2 Ga3 109.8(2) 3_565 1_556
O2 O2 Ga3 105.5(3) 4_455 1_556
La O2 Ga3 61.7(2) 4_455 1_556
O3 O2 Ga3 62.0(3) 2_455 1_556
O1 O2 Ga3 54.3(3) . 1_556
O2 O2 Ga3 117.7(5) 6_554 1_556
O3 O2 Ga3 123.4(4) 4_454 1_556
O1 O2 Ga3 168.3(4) 1_554 1_556
O3 O2 Ga3 22.5(2) 4_455 1_556
Nb O2 Ga3 45.08(14) 1_455 1_556
Ga1 O2 Ga3 45.08(14) 1_455 1_556
O1 O2 Ga3 70.4(3) 2_455 1_556
Ga2 O2 Ga3 97.6(2) 1_554 1_556
O2 O2 Ga3 24.55(19) 6 1_556
O3 O2 Ga3 93.8(3) 6 1_556
La O2 Ga3 150.3(4) 1_554 1_556
Ga3 O2 Ga3 89.6(3) 2_464 1_556
La O2 Ga3 143.2(4) 4_454 1_556
Ga3 O2 Ga3 120.3(3) 2_564 1_556
O3 O2 Ga3 134.2(4) 1_554 1_556
La O2 Ga3 89.3(2) 2_565 1_556
Ga2 O2 Ga3 37.3(4) 2_565 4_455
Ga3 O2 Ga3 116.1(5) . 4_455
La O2 Ga3 123.7(3) . 4_455
O3 O2 Ga3 82.2(4) 5_455 4_455
O2 O2 Ga3 67.2(4) 3_565 4_455
O2 O2 Ga3 14.2(3) 4_455 4_455
La O2 Ga3 56.3(2) 4_455 4_455
O3 O2 Ga3 138.6(5) 2_455 4_455
O1 O2 Ga3 75.4(3) . 4_455
O2 O2 Ga3 124.4(5) 6_554 4_455
O3 O2 Ga3 80.5(3) 4_454 4_455
O1 O2 Ga3 53.50(19) 1_554 4_455
O3 O2 Ga3 100.6(4) 4_455 4_455
Nb O2 Ga3 112.7(4) 1_455 4_455
Ga1 O2 Ga3 112.7(4) 1_455 4_455
O1 O2 Ga3 163.6(4) 2_455 4_455
Ga2 O2 Ga3 145.9(4) 1_554 4_455
O2 O2 Ga3 136.0(6) 6 4_455
O3 O2 Ga3 113.4(3) 6 4_455
La O2 Ga3 93.4(2) 1_554 4_455
Ga3 O2 Ga3 79.7(2) 2_464 4_455
La O2 Ga3 50.57(12) 4_454 4_455
Ga3 O2 Ga3 78.83(17) 2_564 4_455
O3 O2 Ga3 90.0(3) 1_554 4_455
La O2 Ga3 53.84(13) 2_565 4_455
Ga3 O2 Ga3 115.8(4) 1_556 4_455
Ga2 O2 O3 120.2(5) 2_565 3_454
Ga3 O2 O3 1.7(3) . 3_454
La O2 O3 118.6(4) . 3_454
O3 O2 O3 64.0(3) 5_455 3_454
O2 O2 O3 143.1(5) 3_565 3_454
O2 O2 O3 131.1(6) 4_455 3_454
La O2 O3 114.2(4) 4_455 3_454
O3 O2 O3 38.9(4) 2_455 3_454
O1 O2 O3 154.2(5) . 3_454
O2 O2 O3 38.5(3) 6_554 3_454
O3 O2 O3 37.2(3) 4_454 3_454
O1 O2 O3 89.6(3) 1_554 3_454
O3 O2 O3 94.8(3) 4_455 3_454
Nb O2 O3 62.0(2) 1_455 3_454
Ga1 O2 O3 62.0(2) 1_455 3_454
O1 O2 O3 74.0(3) 2_455 3_454
Ga2 O2 O3 58.4(2) 1_554 3_454
O2 O2 O3 96.6(4) 6 3_454
O3 O2 O3 112.7(4) 6 3_454
La O2 O3 67.9(2) 1_554 3_454
Ga3 O2 O3 50.37(19) 2_464 3_454
La O2 O3 69.5(2) 4_454 3_454
Ga3 O2 O3 124.1(4) 2_564 3_454
O3 O2 O3 99.2(4) 1_554 3_454
La O2 O3 169.5(3) 2_565 3_454
Ga3 O2 O3 100.5(3) 1_556 3_454
Ga3 O2 O3 117.5(3) 4_455 3_454
Ga2 O2 Ga2 96.8(4) 2_565 2_566
Ga3 O2 Ga2 141.9(5) . 2_566
La O2 Ga2 51.6(2) . 2_566
O3 O2 Ga2 92.4(4) 5_455 2_566
O2 O2 Ga2 71.98(11) 3_565 2_566
O2 O2 Ga2 71.98(11) 4_455 2_566
La O2 Ga2 52.05(19) 4_455 2_566
O3 O2 Ga2 103.6(4) 2_455 2_566
O1 O2 Ga2 12.71(19) . 2_566
O2 O2 Ga2 147.7(5) 6_554 2_566
O3 O2 Ga2 149.0(6) 4_454 2_566
O1 O2 Ga2 127.6(3) 1_554 2_566
O3 O2 Ga2 49.2(2) 4_455 2_566
Nb O2 Ga2 81.7(3) 1_455 2_566
Ga1 O2 Ga2 81.7(3) 1_455 2_566
O1 O2 Ga2 91.3(3) 2_455 2_566
Ga2 O2 Ga2 118.7(3) 1_554 2_566
O2 O2 Ga2 51.4(4) 6 2_566
O3 O2 Ga2 80.2(3) 6 2_566
La O2 Ga2 145.0(4) 1_554 2_566
Ga3 O2 Ga2 112.7(4) 2_464 2_566
La O2 Ga2 134.9(3) 4_454 2_566
Ga3 O2 Ga2 88.1(2) 2_564 2_566
O3 O2 Ga2 111.3(3) 1_554 2_566
La O2 Ga2 47.69(12) 2_565 2_566
Ga3 O2 Ga2 41.62(11) 1_556 2_566
Ga3 O2 Ga2 85.6(2) 4_455 2_566
O3 O2 Ga2 142.0(3) 3_454 2_566
Ga2 O2 O3 87.5(4) 2_565 .
Ga3 O2 O3 138.9(6) . .
La O2 O3 19.8(2) . .
O3 O2 O3 134.6(4) 5_455 .
O2 O2 O3 48.0(4) 3_565 .
O2 O2 O3 91.4(4) 4_455 .
La O2 O3 95.8(3) 4_455 .
O3 O2 O3 110.6(4) 2_455 .
O1 O2 O3 43.97(19) . .
O2 O2 O3 109.4(4) 6_554 .
O3 O2 O3 166.1(6) 4_454 .
O1 O2 O3 109.4(4) 1_554 .
O3 O2 O3 85.7(3) 4_455 .
Nb O2 O3 110.9(3) 1_455 .
Ga1 O2 O3 110.9(3) 1_455 .
O1 O2 O3 63.2(3) 2_455 .
Ga2 O2 O3 82.2(3) 1_554 .
O2 O2 O3 54.4(3) 6 .
O3 O2 O3 35.3(3) 6 .
La O2 O3 102.5(4) 1_554 .
Ga3 O2 O3 155.4(4) 2_464 .
La O2 O3 143.8(3) 4_454 .
Ga3 O2 O3 53.7(2) 2_564 .
O3 O2 O3 70.8(3) 1_554 .
La O2 O3 50.4(2) 2_565 .
Ga3 O2 O3 66.7(2) 1_556 .
Ga3 O2 O3 104.2(3) 4_455 .
O3 O2 O3 137.3(4) 3_454 .
Ga2 O2 O3 44.85(15) 2_566 .
Ga2 O2 O2 89.4(8) 2_565 5_444
Ga3 O2 O2 75.5(5) . 5_444
La O2 O2 67.7(3) . 5_444
O3 O2 O2 137.4(5) 5_455 5_444
O2 O2 O2 75.2(7) 3_565 5_444
O2 O2 O2 128.6(7) 4_455 5_444
La O2 O2 170.4(5) 4_455 5_444
O3 O2 O2 85.5(4) 2_455 5_444
O1 O2 O2 118.3(4) . 5_444
O2 O2 O2 36.5(3) 6_554 5_444
O3 O2 O2 92.0(5) 4_454 5_444
O1 O2 O2 75.3(5) 1_554 5_444
O3 O2 O2 132.5(4) 4_455 5_444
Nb O2 O2 118.2(3) 1_455 5_444
Ga1 O2 O2 118.2(3) 1_455 5_444
O1 O2 O2 43.2(2) 2_455 5_444
Ga2 O2 O2 22.92(10) 1_554 5_444
O2 O2 O2 88.4(3) 6 5_444
O3 O2 O2 40.6(2) 6 5_444
La O2 O2 38.6(4) 1_554 5_444
Ga3 O2 O2 123.3(4) 2_464 5_444
La O2 O2 98.6(5) 4_454 5_444
Ga3 O2 O2 56.5(4) 2_564 5_444
O3 O2 O2 37.1(4) 1_554 5_444
La O2 O2 105.7(4) 2_565 5_444
Ga3 O2 O2 112.9(2) 1_556 5_444
Ga3 O2 O2 125.8(5) 4_455 5_444
O3 O2 O2 74.0(3) 3_454 5_444
Ga2 O2 O2 118.4(3) 2_566 5_444
O3 O2 O2 74.6(3) . 5_444
Ga2 O2 O2 51.4(4) 2_565 5_454
Ga3 O2 O2 92.6(5) . 5_454
La O2 O2 147.3(5) . 5_454
O3 O2 O2 66.0(4) 5_455 5_454
O2 O2 O2 88.1(4) 3_565 5_454
O2 O2 O2 37.0(4) 4_455 5_454
La O2 O2 60.0(2) 4_455 5_454
O3 O2 O2 117.4(5) 2_455 5_454
O1 O2 O2 95.2(4) . 5_454
O2 O2 O2 109.0(6) 6_554 5_454
O3 O2 O2 57.6(4) 4_454 5_454
O1 O2 O2 52.0(3) 1_554 5_454
O3 O2 O2 100.0(4) 4_455 5_454
Nb O2 O2 99.2(4) 1_455 5_454
Ga1 O2 O2 99.2(4) 1_455 5_454
O1 O2 O2 165.5(5) 2_455 5_454
Ga2 O2 O2 137.2(4) 1_554 5_454
O2 O2 O2 145.3(6) 6 5_454
O3 O2 O2 131.8(5) 6 5_454
La O2 O2 88.0(3) 1_554 5_454
Ga3 O2 O2 58.2(3) 2_464 5_454
La O2 O2 31.9(2) 4_454 5_454
Ga3 O2 O2 95.4(3) 2_564 5_454
O3 O2 O2 98.3(4) 1_554 5_454
La O2 O2 77.6(3) 2_565 5_454
Ga3 O2 O2 120.8(4) 1_556 5_454
Ga3 O2 O2 23.78(14) 4_455 5_454
O3 O2 O2 94.1(4) 3_454 5_454
Ga2 O2 O2 103.2(3) 2_566 5_454
O3 O2 O2 128.0(4) . 5_454
O2 O2 O2 126.3(6) 5_444 5_454
Ga2 O2 La 160.9(8) 2_565 2_455
Ga3 O2 La 59.7(3) . 2_455
La O2 La 64.7(2) . 2_455
O3 O2 La 80.3(3) 5_455 2_455
O2 O2 La 127.7(7) 3_565 2_455
O2 O2 La 157.2(4) 4_455 2_455
La O2 La 107.4(3) 4_455 2_455
O3 O2 La 27.0(2) 2_455 2_455
O1 O2 La 101.7(3) . 2_455
O2 O2 La 65.4(4) 6_554 2_455
O3 O2 La 94.9(3) 4_454 2_455
O1 O2 La 139.2(4) 1_554 2_455
O3 O2 La 63.5(3) 4_455 2_455
Nb O2 La 49.11(12) 1_455 2_455
Ga1 O2 La 49.11(12) 1_455 2_455
O1 O2 La 33.82(12) 2_455 2_455
Ga2 O2 La 50.20(14) 1_554 2_455
O2 O2 La 38.7(3) 6 2_455
O3 O2 La 83.0(3) 6 2_455
La O2 La 100.6(3) 1_554 2_455
Ga3 O2 La 86.0(2) 2_464 2_455
La O2 La 128.0(2) 4_454 2_455
Ga3 O2 La 118.7(4) 2_564 2_455
O3 O2 La 108.1(4) 1_554 2_455
La O2 La 131.5(2) 2_565 2_455
Ga3 O2 La 52.36(11) 1_556 2_455
Ga3 O2 La 161.7(4) 4_455 2_455
O3 O2 La 58.67(19) 3_454 2_455
Ga2 O2 La 89.60(18) 2_566 2_455
O3 O2 La 84.4(3) . 2_455
O2 O2 La 71.80(18) 5_444 2_455
O2 O2 La 144.2(4) 5_454 2_455
Ga2 O2 O2 84.7(4) 2_565 2_464
Ga3 O2 O2 62.2(4) . 2_464
La O2 O2 163.5(7) . 2_464
O3 O2 O2 37.2(4) 5_455 2_464
O2 O2 O2 123.3(4) 3_565 2_464
O2 O2 O2 69.3(6) 4_455 2_464
La O2 O2 63.2(4) 4_455 2_464
O3 O2 O2 82.0(4) 2_455 2_464
O1 O2 O2 114.0(6) . 2_464
O2 O2 O2 92.9(4) 6_554 2_464
O3 O2 O2 34.7(3) 4_454 2_464
O1 O2 O2 72.9(3) 1_554 2_464
O3 O2 O2 84.3(5) 4_455 2_464
Nb O2 O2 69.0(4) 1_455 2_464
Ga1 O2 O2 69.0(4) 1_455 2_464
O1 O2 O2 136.59(19) 2_455 2_464
Ga2 O2 O2 120.3(3) 1_554 2_464
O2 O2 O2 126.6(4) 6 2_464
O3 O2 O2 159.8(5) 6 2_464
La O2 O2 93.1(3) 1_554 2_464
Ga3 O2 O2 23.20(18) 2_464 2_464
La O2 O2 36.94(18) 4_454 2_464
Ga3 O2 O2 127.0(3) 2_564 2_464
O3 O2 O2 119.4(4) 1_554 2_464
La O2 O2 110.0(3) 2_565 2_464
Ga3 O2 O2 106.4(5) 1_556 2_464
Ga3 O2 O2 58.19(16) 4_455 2_464
O3 O2 O2 63.9(2) 3_454 2_464
Ga2 O2 O2 115.3(5) 2_566 2_464
O3 O2 O2 157.5(5) . 2_464
O2 O2 O2 126.3(5) 5_444 2_464
O2 O2 O2 35.5(3) 5_454 2_464
La O2 O2 108.8(2) 2_455 2_464
Ga2 O2 O3 167.9(7) 2_565 3_455
Ga3 O2 O3 68.3(4) . 3_455
La O2 O3 75.1(3) . 3_455
O3 O2 O3 56.6(4) 5_455 3_455
O2 O2 O3 138.8(4) 3_565 3_455
O2 O2 O3 128.1(6) 4_455 3_455
La O2 O3 77.6(3) 4_455 3_455
O3 O2 O3 29.7(4) 2_455 3_455
O1 O2 O3 86.6(4) . 3_455
O2 O2 O3 90.3(4) 6_554 3_455
O3 O2 O3 95.2(3) 4_454 3_455
O1 O2 O3 157.2(4) 1_554 3_455
O3 O2 O3 34.8(3) 4_455 3_455
Nb O2 O3 23.34(16) 1_455 3_455
Ga1 O2 O3 23.34(16) 1_455 3_455
O1 O2 O3 61.6(2) 2_455 3_455
Ga2 O2 O3 80.1(2) 1_554 3_455
O2 O2 O3 36.8(3) 6 3_455
O3 O2 O3 105.2(3) 6 3_455
La O2 O3 127.5(3) 1_554 3_455
Ga3 O2 O3 69.8(3) 2_464 3_455
La O2 O3 124.8(4) 4_454 3_455
Ga3 O2 O3 140.9(3) 2_564 3_455
O3 O2 O3 137.5(5) 1_554 3_455
La O2 O3 121.7(3) 2_565 3_455
Ga3 O2 O3 32.44(18) 1_556 3_455
Ga3 O2 O3 132.2(4) 4_455 3_455
O3 O2 O3 68.1(2) 3_454 3_455
Ga2 O2 O3 74.0(2) 2_566 3_455
O3 O2 O3 91.2(4) . 3_455
O2 O2 O3 101.9(3) 5_444 3_455
O2 O2 O3 122.2(5) 5_454 3_455
La O2 O3 30.08(14) 2_455 3_455
O2 O2 O3 92.1(4) 2_464 3_455
Ga2 O2 O1 82.9(5) 2_565 2_465
Ga3 O2 O1 95.4(6) . 2_465
La O2 O1 128.8(5) . 2_465
O3 O2 O1 39.2(3) 5_455 2_465
O2 O2 O1 107.1(6) 3_565 2_465
O2 O2 O1 47.9(5) 4_455 2_465
La O2 O1 25.7(2) 4_455 2_465
O3 O2 O1 96.3(4) 2_455 2_465
O1 O2 O1 75.8(4) . 2_465
O2 O2 O1 130.9(3) 6_554 2_465
O3 O2 O1 73.0(4) 4_454 2_465
O1 O2 O1 90.8(3) 1_554 2_465
O3 O2 O1 61.1(4) 4_455 2_465
Nb O2 O1 67.0(3) 1_455 2_465
Ga1 O2 O1 67.0(3) 1_455 2_465
O1 O2 O1 148.8(5) 2_455 2_465
Ga2 O2 O1 155.1(3) 1_554 2_465
O2 O2 O1 106.9(4) 6 2_465
O3 O2 O1 150.2(3) 6 2_465
La O2 O1 125.1(3) 1_554 2_465
Ga3 O2 O1 46.74(19) 2_464 2_465
La O2 O1 64.7(3) 4_454 2_465
Ga3 O2 O1 123.0(2) 2_564 2_465
O3 O2 O1 135.1(3) 1_554 2_465
La O2 O1 80.5(2) 2_565 2_465
Ga3 O2 O1 82.4(3) 1_556 2_465
Ga3 O2 O1 45.67(17) 4_455 2_465
O3 O2 O1 97.0(3) 3_454 2_465
Ga2 O2 O1 77.5(3) 2_566 2_465
O3 O2 O1 119.7(4) . 2_465
O2 O2 O1 163.2(4) 5_444 2_465
O2 O2 O1 38.8(2) 5_454 2_465
La O2 O1 116.1(3) 2_455 2_465
O2 O2 O1 38.3(3) 2_464 2_465
O3 O2 O1 87.3(3) 3_455 2_465
Ga2 O2 Nb 98.9(4) 2_565 1_454
Ga3 O2 Nb 23.3(2) . 1_454
La O2 Nb 142.0(4) . 1_454
O3 O2 Nb 60.4(3) 5_455 1_454
O2 O2 Nb 132.46(13) 3_565 1_454
O2 O2 Nb 107.2(5) 4_455 1_454
La O2 Nb 105.3(4) 4_455 1_454
O3 O2 Nb 60.4(3) 2_455 1_454
O1 O2 Nb 157.4(5) . 1_454
O2 O2 Nb 48.6(2) 6_554 1_454
O3 O2 Nb 12.8(2) 4_454 1_454
O1 O2 Nb 70.4(2) 1_554 1_454
O3 O2 Nb 104.5(3) 4_455 1_454
Nb O2 Nb 73.43(19) 1_455 1_454
Ga1 O2 Nb 73.43(19) 1_455 1_454
O1 O2 Nb 96.8(3) 2_455 1_454
Ga2 O2 Nb 75.7(2) 1_554 1_454
O2 O2 Nb 119.7(3) 6 1_454
O3 O2 Nb 124.6(4) 6 1_454
La O2 Nb 62.37(16) 1_554 1_454
Ga3 O2 Nb 40.74(10) 2_464 1_454
La O2 Nb 45.16(10) 4_454 1_454
Ga3 O2 Nb 118.6(3) 2_564 1_454
O3 O2 Nb 96.1(3) 1_554 1_454
La O2 Nb 145.5(2) 2_565 1_454
Ga3 O2 Nb 117.7(3) 1_556 1_454
Ga3 O2 Nb 93.3(2) 4_455 1_454
O3 O2 Nb 24.55(14) 3_454 1_454
Ga2 O2 Nb 152.6(4) 2_566 1_454
O3 O2 Nb 157.8(4) . 1_454
O2 O2 Nb 84.2(4) 5_444 1_454
O2 O2 Nb 70.3(3) 5_454 1_454
La O2 Nb 82.89(17) 2_455 1_454
O2 O2 Nb 44.69(15) 2_464 1_454
O3 O2 Nb 86.9(3) 3_455 1_454
O1 O2 Nb 82.3(2) 2_465 1_454
Ga2 O2 Ga1 98.9(4) 2_565 1_454
Ga3 O2 Ga1 23.3(2) . 1_454
La O2 Ga1 142.0(4) . 1_454
O3 O2 Ga1 60.4(3) 5_455 1_454
O2 O2 Ga1 132.46(13) 3_565 1_454
O2 O2 Ga1 107.2(5) 4_455 1_454
La O2 Ga1 105.3(4) 4_455 1_454
O3 O2 Ga1 60.4(3) 2_455 1_454
O1 O2 Ga1 157.4(5) . 1_454
O2 O2 Ga1 48.6(2) 6_554 1_454
O3 O2 Ga1 12.8(2) 4_454 1_454
O1 O2 Ga1 70.4(2) 1_554 1_454
O3 O2 Ga1 104.5(3) 4_455 1_454
Nb O2 Ga1 73.43(19) 1_455 1_454
Ga1 O2 Ga1 73.43(19) 1_455 1_454
O1 O2 Ga1 96.8(3) 2_455 1_454
Ga2 O2 Ga1 75.7(2) 1_554 1_454
O2 O2 Ga1 119.7(3) 6 1_454
O3 O2 Ga1 124.6(4) 6 1_454
La O2 Ga1 62.37(16) 1_554 1_454
Ga3 O2 Ga1 40.74(10) 2_464 1_454
La O2 Ga1 45.16(10) 4_454 1_454
Ga3 O2 Ga1 118.6(3) 2_564 1_454
O3 O2 Ga1 96.1(3) 1_554 1_454
La O2 Ga1 145.5(2) 2_565 1_454
Ga3 O2 Ga1 117.7(3) 1_556 1_454
Ga3 O2 Ga1 93.3(2) 4_455 1_454
O3 O2 Ga1 24.55(14) 3_454 1_454
Ga2 O2 Ga1 152.6(4) 2_566 1_454
O3 O2 Ga1 157.8(4) . 1_454
O2 O2 Ga1 84.2(4) 5_444 1_454
O2 O2 Ga1 70.3(3) 5_454 1_454
La O2 Ga1 82.89(17) 2_455 1_454
O2 O2 Ga1 44.69(15) 2_464 1_454
O3 O2 Ga1 86.9(3) 3_455 1_454
O1 O2 Ga1 82.3(2) 2_465 1_454
Nb O2 Ga1 0.0 1_454 1_454
Ga2 O2 O3 139.8(6) 2_565 6_455
Ga3 O2 O3 41.9(4) . 6_455
La O2 O3 114.1(4) . 6_455
O3 O2 O3 28.8(3) 5_455 6_455
O2 O2 O3 173.9(6) 3_565 6_455
O2 O2 O3 115.6(7) 4_455 6_455
La O2 O3 75.3(3) 4_455 6_455
O3 O2 O3 29.2(3) 2_455 6_455
O1 O2 O3 113.2(4) . 6_455
O2 O2 O3 79.6(2) 6_554 6_455
O3 O2 O3 57.1(4) 4_454 6_455
O1 O2 O3 119.5(4) 1_554 6_455
O3 O2 O3 53.8(3) 4_455 6_455
Nb O2 O3 21.75(16) 1_455 6_455
Ga1 O2 O3 21.75(16) 1_455 6_455
O1 O2 O3 86.8(3) 2_455 6_455
Ga2 O2 O3 89.0(2) 1_554 6_455
O2 O2 O3 76.3(2) 6 6_455
O3 O2 O3 137.0(4) 6 6_455
La O2 O3 110.2(3) 1_554 6_455
Ga3 O2 O3 32.05(19) 2_464 6_455
La O2 O3 85.3(3) 4_454 6_455
Ga3 O2 O3 166.4(4) 2_564 6_455
O3 O2 O3 141.7(3) 1_554 6_455
La O2 O3 142.0(4) 2_565 6_455
Ga3 O2 O3 66.6(2) 1_556 6_455
Ga3 O2 O3 109.6(3) 4_455 6_455
O3 O2 O3 42.7(3) 3_454 6_455
Ga2 O2 O3 103.0(3) 2_566 6_455
O3 O2 O3 130.6(2) . 6_455
O2 O2 O3 110.5(3) 5_444 6_455
O2 O2 O3 89.8(4) 5_454 6_455
La O2 O3 54.5(2) 2_455 6_455
O2 O2 O3 55.2(3) 2_464 6_455
O3 O2 O3 39.5(4) 3_455 6_455
O1 O2 O3 68.0(2) 2_465 6_455
Nb O2 O3 51.67(18) 1_454 6_455
Ga1 O2 O3 51.67(18) 1_454 6_455
Ga2 O2 Ga2 72.9(4) 2_565 1_564
Ga3 O2 Ga2 84.2(5) . 1_564
La O2 Ga2 149.2(5) . 1_564
O3 O2 Ga2 44.2(3) 5_455 1_564
O2 O2 Ga2 106.8(5) 3_565 1_564
O2 O2 Ga2 48.6(6) 4_455 1_564
La O2 Ga2 46.8(2) 4_455 1_564
O3 O2 Ga2 99.0(4) 2_455 1_564
O1 O2 Ga2 93.8(4) . 1_564
O2 O2 Ga2 113.1(3) 6_554 1_564
O3 O2 Ga2 55.0(3) 4_454 1_564
O1 O2 Ga2 72.4(2) 1_554 1_564
O3 O2 Ga2 80.3(4) 4_455 1_564
Nb O2 Ga2 77.2(3) 1_455 1_564
Ga1 O2 Ga2 77.2(3) 1_455 1_564
O1 O2 Ga2 156.5(3) 2_455 1_564
Ga2 O2 Ga2 141.7(3) 1_554 1_564
O2 O2 Ga2 126.6(4) 6 1_564
O3 O2 Ga2 152.8(3) 6 1_564
La O2 Ga2 103.8(2) 1_554 1_564
Ga3 O2 Ga2 40.36(14) 2_464 1_564
La O2 Ga2 43.28(13) 4_454 1_564
Ga3 O2 Ga2 116.9(2) 2_564 1_564
O3 O2 Ga2 119.9(3) 1_554 1_564
La O2 Ga2 88.5(2) 2_565 1_564
Ga3 O2 Ga2 102.4(3) 1_556 1_564
Ga3 O2 Ga2 39.67(12) 4_455 1_564
O3 O2 Ga2 85.8(3) 3_454 1_564
Ga2 O2 Ga2 97.6(3) 2_566 1_564
O3 O2 Ga2 135.8(3) . 1_564
O2 O2 Ga2 141.7(4) 5_444 1_564
O2 O2 Ga2 22.11(15) 5_454 1_564
La O2 Ga2 124.2(3) 2_455 1_564
O2 O2 Ga2 22.01(16) 2_464 1_564
O3 O2 Ga2 100.1(3) 3_455 1_564
O1 O2 Ga2 21.49(19) 2_465 1_564
Nb O2 Ga2 66.09(16) 1_454 1_564
Ga1 O2 Ga2 66.09(16) 1_454 1_564
O3 O2 Ga2 70.0(3) 6_455 1_564
Ga2 O2 Ga3 136.7(4) 2_565 4_345
Ga3 O2 Ga3 21.4(3) . 4_345
La O2 Ga3 114.0(3) . 4_345
O3 O2 Ga3 47.5(2) 5_455 4_345
O2 O2 Ga3 164.3(6) 3_565 4_345
O2 O2 Ga3 129.8(7) 4_455 4_345
La O2 Ga3 96.5(4) 4_455 4_345
O3 O2 Ga3 23.3(3) 2_455 4_345
O1 O2 Ga3 132.6(4) . 4_345
O2 O2 Ga3 57.8(2) 6_554 4_345
O3 O2 Ga3 47.9(2) 4_454 4_345
O1 O2 Ga3 108.3(3) 1_554 4_345
O3 O2 Ga3 73.0(3) 4_455 4_345
Nb O2 Ga3 40.14(11) 1_455 4_345
Ga1 O2 Ga3 40.14(11) 1_455 4_345
O1 O2 Ga3 75.59(19) 2_455 4_345
Ga2 O2 Ga3 70.15(17) 1_554 4_345
O2 O2 Ga3 82.3(3) 6 4_345
O3 O2 Ga3 123.3(4) 6 4_345
La O2 Ga3 89.7(2) 1_554 4_345
Ga3 O2 Ga3 41.01(11) 2_464 4_345
La O2 Ga3 80.75(18) 4_454 4_345
Ga3 O2 Ga3 144.7(4) 2_564 4_345
O3 O2 Ga3 120.1(4) 1_554 4_345
La O2 Ga3 163.7(4) 2_565 4_345
Ga3 O2 Ga3 80.67(19) 1_556 4_345
Ga3 O2 Ga3 119.7(3) 4_455 4_345
O3 O2 Ga3 21.88(15) 3_454 4_345
Ga2 O2 Ga3 121.0(3) 2_566 4_345
O3 O2 Ga3 133.7(3) . 4_345
O2 O2 Ga3 90.1(3) 5_444 4_345
O2 O2 Ga3 96.5(3) 5_454 4_345
La O2 Ga3 49.34(10) 2_455 4_345
O2 O2 Ga3 61.47(16) 2_464 4_345
O3 O2 Ga3 48.9(2) 3_455 4_345
O1 O2 Ga3 85.4(2) 2_465 4_345
Nb O2 Ga3 38.13(8) 1_454 4_345
Ga1 O2 Ga3 38.13(8) 1_454 4_345
O3 O2 Ga3 21.72(14) 6_455 4_345
Ga2 O2 Ga3 81.2(2) 1_564 4_345
Ga2 O2 Ga3 81.3(5) 2_565 4_445
Ga3 O2 Ga3 97.1(6) . 4_445
La O2 Ga3 51.9(3) . 4_445
O3 O2 Ga3 157.1(4) 5_455 4_445
O2 O2 Ga3 56.7(6) 3_565 4_445
O2 O2 Ga3 115.5(6) 4_455 4_445
La O2 Ga3 149.1(3) 4_455 4_445
O3 O2 Ga3 100.3(4) 2_455 4_445
O1 O2 Ga3 97.2(3) . 4_445
O2 O2 Ga3 58.33(15) 6_554 4_445
O3 O2 Ga3 111.9(5) 4_454 4_445
O1 O2 Ga3 78.3(3) 1_554 4_445
O3 O2 Ga3 128.5(3) 4_455 4_445
Nb O2 Ga3 129.0(3) 1_455 4_445
Ga1 O2 Ga3 129.0(3) 1_455 4_445
O1 O2 Ga3 46.4(2) 2_455 4_445
Ga2 O2 Ga3 39.80(18) 1_554 4_445
O2 O2 Ga3 82.4(2) 6 4_445
O3 O2 Ga3 19.19(17) 6 4_445
La O2 Ga3 51.1(2) 1_554 4_445
Ga3 O2 Ga3 145.1(3) 2_464 4_445
La O2 Ga3 110.1(3) 4_454 4_445
Ga3 O2 Ga3 40.36(15) 2_564 4_445
O3 O2 Ga3 30.9(2) 1_554 4_445
La O2 Ga3 85.1(2) 2_565 4_445
Ga3 O2 Ga3 106.1(2) 1_556 4_445
Ga3 O2 Ga3 118.2(3) 4_455 4_445
O3 O2 Ga3 95.5(3) 3_454 4_445
Ga2 O2 Ga3 99.1(2) 2_566 4_445
O3 O2 Ga3 54.3(2) . 4_445
O2 O2 Ga3 21.84(16) 5_444 4_445
O2 O2 Ga3 129.2(4) 5_454 4_445
La O2 Ga3 79.9(2) 2_455 4_445
O2 O2 Ga3 144.2(5) 2_464 4_445
O3 O2 Ga3 107.6(3) 3_455 4_445
O1 O2 Ga3 163.3(2) 2_465 4_445
Nb O2 Ga3 105.4(3) 1_454 4_445
Ga1 O2 Ga3 105.4(3) 1_454 4_445
O3 O2 Ga3 128.4(3) 6_455 4_445
Ga2 O2 Ga3 150.7(3) 1_564 4_445
Ga3 O2 Ga3 109.9(3) 4_345 4_445
Ga2 O2 O2 62.3(4) 2_565 1_554
Ga3 O2 O2 58.4(4) . 1_554
La O2 O2 130.6(4) . 1_554
O3 O2 O2 97.3(3) 5_455 1_554
O2 O2 O2 90.001(1) 3_565 1_554
O2 O2 O2 90.000(2) 4_455 1_554
La O2 O2 123.5(2) 4_455 1_554
O3 O2 O2 97.2(4) 2_455 1_554
O1 O2 O2 146.4(3) . 1_554
O2 O2 O2 47.0(4) 6_554 1_554
O3 O2 O2 39.5(4) 4_454 1_554
O1 O2 O2 31.4(3) 1_554 1_554
O3 O2 O2 145.9(2) 4_455 1_554
Nb O2 O2 116.02(17) 1_455 1_554
Ga1 O2 O2 116.02(17) 1_455 1_554
O1 O2 O2 101.5(3) 2_455 1_554
Ga2 O2 O2 72.80(16) 1_554 1_554
O2 O2 O2 146.6(4) 6 1_554
O3 O2 O2 95.3(3) 6 1_554
La O2 O2 27.6(2) 1_554 1_554
Ga3 O2 O2 76.51(18) 2_464 1_554
La O2 O2 34.1(2) 4_454 1_554
Ga3 O2 O2 76.77(15) 2_564 1_554
O3 O2 O2 57.3(2) 1_554 1_554
La O2 O2 111.51(16) 2_565 1_554
Ga3 O2 O2 159.09(14) 1_556 1_554
Ga3 O2 O2 77.40(17) 4_455 1_554
O3 O2 O2 58.6(2) 3_454 1_554
Ga2 O2 O2 159.07(13) 2_566 1_554
O3 O2 O2 128.1(2) . 1_554
O2 O2 O2 64.7(3) 5_444 1_554
O2 O2 O2 64.7(3) 5_454 1_554
La O2 O2 110.26(16) 2_455 1_554
O2 O2 O2 65.5(4) 2_464 1_554
O3 O2 O2 126.7(2) 3_455 1_554
O1 O2 O2 98.6(2) 2_465 1_554
Nb O2 O2 42.59(17) 1_454 1_554
Ga1 O2 O2 42.59(17) 1_454 1_554
O3 O2 O2 94.3(2) 6_455 1_554
Ga2 O2 O2 77.10(16) 1_564 1_554
Ga3 O2 O2 78.59(14) 4_345 1_554
Ga3 O2 O2 78.75(12) 4_445 1_554
Ga2 O2 O2 117.7(4) 2_565 1_556
Ga3 O2 O2 121.6(4) . 1_556
La O2 O2 49.4(4) . 1_556
O3 O2 O2 82.7(3) 5_455 1_556
O2 O2 O2 90.000(1) 3_565 1_556
O2 O2 O2 89.999(2) 4_455 1_556
La O2 O2 56.5(2) 4_455 1_556
O3 O2 O2 82.8(4) 2_455 1_556
O1 O2 O2 33.6(3) . 1_556
O2 O2 O2 133.0(4) 6_554 1_556
O3 O2 O2 140.5(4) 4_454 1_556
O1 O2 O2 148.6(3) 1_554 1_556
O3 O2 O2 34.1(2) 4_455 1_556
Nb O2 O2 63.98(17) 1_455 1_556
Ga1 O2 O2 63.98(17) 1_455 1_556
O1 O2 O2 78.5(3) 2_455 1_556
Ga2 O2 O2 107.20(16) 1_554 1_556
O2 O2 O2 33.4(4) 6 1_556
O3 O2 O2 84.7(3) 6 1_556
La O2 O2 152.4(2) 1_554 1_556
Ga3 O2 O2 103.49(18) 2_464 1_556
La O2 O2 145.9(2) 4_454 1_556
Ga3 O2 O2 103.23(15) 2_564 1_556
O3 O2 O2 122.7(2) 1_554 1_556
La O2 O2 68.49(16) 2_565 1_556
Ga3 O2 O2 20.91(14) 1_556 1_556
Ga3 O2 O2 102.60(17) 4_455 1_556
O3 O2 O2 121.4(2) 3_454 1_556
Ga2 O2 O2 20.93(13) 2_566 1_556
O3 O2 O2 51.9(2) . 1_556
O2 O2 O2 115.3(3) 5_444 1_556
O2 O2 O2 115.3(3) 5_454 1_556
La O2 O2 69.74(16) 2_455 1_556
O2 O2 O2 114.5(4) 2_464 1_556
O3 O2 O2 53.3(2) 3_455 1_556
O1 O2 O2 81.4(2) 2_465 1_556
Nb O2 O2 137.41(17) 1_454 1_556
Ga1 O2 O2 137.41(17) 1_454 1_556
O3 O2 O2 85.7(2) 6_455 1_556
Ga2 O2 O2 102.90(16) 1_564 1_556
Ga3 O2 O2 101.40(14) 4_345 1_556
Ga3 O2 O2 101.25(12) 4_445 1_556
O2 O2 O2 179.998(3) 1_554 1_556
Ga2 O2 O3 18.5(3) 2_565 3_564
Ga3 O2 O3 114.2(4) . 3_564
La O2 O3 120.0(4) . 3_564
O3 O2 O3 98.7(4) 5_455 3_564
O2 O2 O3 55.5(4) 3_565 3_564
O2 O2 O3 27.93(17) 4_455 3_564
La O2 O3 76.3(3) 4_455 3_564
O3 O2 O3 148.8(4) 2_455 3_564
O1 O2 O3 84.7(3) . 3_564
O2 O2 O3 108.9(4) 6_554 3_564
O3 O2 O3 79.3(3) 4_454 3_564
O1 O2 O3 35.2(2) 1_554 3_564
O3 O2 O3 120.6(4) 4_455 3_564
Nb O2 O3 131.2(4) 1_455 3_564
Ga1 O2 O3 131.2(4) 1_455 3_564
O1 O2 O3 145.9(5) 2_455 3_564
Ga2 O2 O3 126.1(4) 1_554 3_564
O2 O2 O3 147.6(5) 6 3_564
O3 O2 O3 98.6(4) 6 3_564
La O2 O3 74.5(2) 1_554 3_564
Ga3 O2 O3 91.0(3) 2_464 3_564
La O2 O3 46.09(19) 4_454 3_564
Ga3 O2 O3 62.4(2) 2_564 3_564
O3 O2 O3 70.2(2) 1_554 3_564
La O2 O3 54.5(2) 2_565 3_564
Ga3 O2 O3 133.3(4) 1_556 3_564
Ga3 O2 O3 20.33(12) 4_455 3_564
O3 O2 O3 115.2(3) 3_454 3_564
Ga2 O2 O3 96.7(3) 2_566 3_564
O3 O2 O3 100.52(19) . 3_564
O2 O2 O3 105.4(5) 5_444 3_564
O2 O2 O3 33.3(2) 5_454 3_564
La O2 O3 173.6(3) 2_455 3_564
O2 O2 O3 67.9(2) 2_464 3_564
O3 O2 O3 152.3(5) 3_455 3_564
O1 O2 O3 65.1(2) 2_465 3_564
Nb O2 O3 91.2(2) 1_454 3_564
Ga1 O2 O3 91.2(2) 1_454 3_564
O3 O2 O3 123.0(3) 6_455 3_564
Ga2 O2 O3 54.5(2) 1_564 3_564
Ga3 O2 O3 125.8(3) 4_345 3_564
Ga3 O2 O3 99.6(3) 4_445 3_564
O2 O2 O3 63.5(2) 1_554 3_564
O2 O2 O3 116.5(2) 1_556 3_564
Ga2 O2 O2 116.7(6) 2_565 5_445
Ga3 O2 O2 107.2(4) . 5_445
La O2 O2 13.05(18) . 5_445
O3 O2 O2 121.3(5) 5_455 5_445
O2 O2 O2 77.1(7) 3_565 5_445
O2 O2 O2 123.1(5) 4_455 5_445
La O2 O2 108.7(4) 4_455 5_445
O3 O2 O2 78.9(3) 2_455 5_445
O1 O2 O2 66.1(4) . 5_445
O2 O2 O2 88.2(3) 6_554 5_445
O3 O2 O2 142.3(4) 4_454 5_445
O1 O2 O2 128.2(5) 1_554 5_445
O3 O2 O2 77.1(3) 4_455 5_445
Nb O2 O2 88.9(3) 1_455 5_445
Ga1 O2 O2 88.9(3) 1_455 5_445
O1 O2 O2 33.3(2) 2_455 5_445
Ga2 O2 O2 58.96(10) 1_554 5_445
O2 O2 O2 32.1(2) 6 5_445
O3 O2 O2 40.8(2) 6 5_445
La O2 O2 100.9(3) 1_554 5_445
Ga3 O2 O2 135.3(4) 2_464 5_445
La O2 O2 161.3(4) 4_454 5_445
Ga3 O2 O2 75.0(3) 2_564 5_445
O3 O2 O2 80.5(4) 1_554 5_445
La O2 O2 82.9(3) 2_565 5_445
Ga3 O2 O2 54.5(2) 1_556 5_445
Ga3 O2 O2 136.6(3) 4_455 5_445
O3 O2 O2 105.8(3) 3_454 5_445
Ga2 O2 O2 59.8(2) 2_566 5_445
O3 O2 O2 32.8(3) . 5_445
O2 O2 O2 62.97(7) 5_444 5_445
O2 O2 O2 160.1(5) 5_454 5_445
La O2 O2 52.05(15) 2_455 5_445
O2 O2 O2 158.0(5) 2_464 5_445
O3 O2 O2 65.9(3) 3_455 5_445
O1 O2 O2 133.8(4) 2_465 5_445
Nb O2 O2 129.6(3) 1_454 5_445
Ga1 O2 O2 129.6(3) 1_454 5_445
O3 O2 O2 103.5(3) 6_455 5_445
Ga2 O2 O2 155.3(4) 1_564 5_445
Ga3 O2 O2 101.3(2) 4_345 5_445
Ga3 O2 O2 51.60(16) 4_445 5_445
O2 O2 O2 127.6(2) 1_554 5_445
O2 O2 O2 52.4(2) 1_556 5_445
O3 O2 O2 132.3(4) 3_564 5_445
Ga2 O2 O2 84.9(4) 2_565 5_455
Ga3 O2 O2 123.8(7) . 5_455
La O2 O2 95.5(5) . 5_455
O3 O2 O2 61.2(4) 5_455 5_455
O2 O2 O2 88.3(4) 3_565 5_455
O2 O2 O2 45.6(2) 4_455 5_455
La O2 O2 11.04(5) 4_455 5_455
O3 O2 O2 106.2(6) 2_455 5_455
O1 O2 O2 42.1(4) . 5_455
O2 O2 O2 163.3(2) 6_554 5_455
O3 O2 O2 106.9(4) 4_454 5_455
O1 O2 O2 107.5(3) 1_554 5_455
O3 O2 O2 48.4(4) 4_455 5_455
Nb O2 O2 73.0(4) 1_455 5_455
Ga1 O2 O2 73.0(4) 1_455 5_455
O1 O2 O2 130.6(5) 2_455 5_455
Ga2 O2 O2 159.2(4) 1_554 5_455
O2 O2 O2 84.1(6) 6 5_455
O3 O2 O2 119.5(4) 6 5_455
La O2 O2 147.4(3) 1_554 5_455
Ga3 O2 O2 76.6(3) 2_464 5_455
La O2 O2 94.10(16) 4_454 5_455
Ga3 O2 O2 107.9(3) 2_564 5_455
O3 O2 O2 131.3(4) 1_554 5_455
La O2 O2 56.6(2) 2_565 5_455
Ga3 O2 O2 61.9(4) 1_556 5_455
Ga3 O2 O2 54.07(11) 4_455 5_455
O3 O2 O2 125.2(4) 3_454 5_455
Ga2 O2 O2 43.9(3) 2_566 5_455
O3 O2 O2 86.1(4) . 5_455
O2 O2 O2 160.1(5) 5_444 5_455
O2 O2 O2 62.97(7) 5_454 5_455
La O2 O2 111.7(4) 2_455 5_455
O2 O2 O2 72.2(3) 2_464 5_455
O3 O2 O2 83.0(4) 3_455 5_455
O1 O2 O2 33.92(18) 2_465 5_455
Nb O2 O2 115.5(3) 1_454 5_455
Ga1 O2 O2 115.5(3) 1_454 5_455
O3 O2 O2 85.7(4) 6_455 5_455
Ga2 O2 O2 53.71(8) 1_564 5_455
Ga3 O2 O2 107.1(4) 4_345 5_455
Ga3 O2 O2 138.3(3) 4_445 5_455
O2 O2 O2 127.6(2) 1_554 5_455
O2 O2 O2 52.4(2) 1_556 5_455
O3 O2 O2 73.0(2) 3_564 5_455
O2 O2 O2 102.8(4) 5_445 5_455
Ga2 O2 O3 110.0(4) 2_565 1_454
Ga3 O2 O3 30.3(4) . 1_454
La O2 O3 143.3(4) . 1_454
O3 O2 O3 37.8(3) 5_455 1_454
O2 O2 O3 149.3(3) 3_565 1_454
O2 O2 O3 102.5(7) 4_455 1_454
La O2 O3 85.1(4) 4_455 1_454
O3 O2 O3 52.1(4) 2_455 1_454
O1 O2 O3 135.8(5) . 1_454
O2 O2 O3 67.4(2) 6_554 1_454
O3 O2 O3 24.5(2) 4_454 1_454
O1 O2 O3 86.7(3) 1_554 1_454
O3 O2 O3 82.7(3) 4_455 1_454
Nb O2 O3 53.9(2) 1_455 1_454
Ga1 O2 O3 53.9(2) 1_455 1_454
O1 O2 O3 103.4(3) 2_455 1_454
Ga2 O2 O3 90.3(2) 1_554 1_454
O2 O2 O3 108.4(2) 6 1_454
O3 O2 O3 144.1(4) 6 1_454
La O2 O3 85.1(2) 1_554 1_454
Ga3 O2 O3 19.38(13) 2_464 1_454
La O2 O3 53.5(2) 4_454 1_454
Ga3 O2 O3 140.1(3) 2_564 1_454
O3 O2 O3 118.8(4) 1_554 1_454
La O2 O3 143.2(4) 2_565 1_454
Ga3 O2 O3 98.9(3) 1_556 1_454
Ga3 O2 O3 90.9(3) 4_455 1_454
O3 O2 O3 31.96(17) 3_454 1_454
Ga2 O2 O3 129.8(4) 2_566 1_454
O3 O2 O3 162.5(4) . 1_454
O2 O2 O3 103.9(4) 5_444 1_454
O2 O2 O3 67.3(3) 5_454 1_454
La O2 O3 78.7(2) 2_455 1_454
O2 O2 O3 33.25(19) 2_464 1_454
O3 O2 O3 71.91(17) 3_455 1_454
O1 O2 O3 65.3(3) 2_465 1_454
Nb O2 O3 22.78(13) 1_454 1_454
Ga1 O2 O3 22.78(13) 1_454 1_454
O3 O2 O3 32.9(3) 6_455 1_454
Ga2 O2 O3 54.7(2) 1_564 1_454
Ga3 O2 O3 29.42(17) 4_345 1_454
Ga3 O2 O3 125.7(3) 4_445 1_454
O2 O2 O3 63.4(2) 1_554 1_454
O2 O2 O3 116.6(2) 1_556 1_454
O3 O2 O3 96.7(4) 3_564 1_454
O2 O2 O3 130.7(3) 5_445 1_454
O2 O2 O3 96.0(3) 5_455 1_454
Ga2 O2 O2 111.4(6) 2_565 2_465
Ga3 O2 O2 95.3(6) . 2_465
La O2 O2 102.8(4) . 2_465
O3 O2 O2 34.3(3) 5_455 2_465
O2 O2 O2 119.0(4) 3_565 2_465
O2 O2 O2 71.8(5) 4_455 2_465
La O2 O2 22.0(2) 4_455 2_465
O3 O2 O2 75.9(4) 2_455 2_465
O1 O2 O2 63.9(3) . 2_465
O2 O2 O2 134.41(7) 6_554 2_465
O3 O2 O2 90.9(5) 4_454 2_465
O1 O2 O2 124.0(4) 1_554 2_465
O3 O2 O2 27.9(3) 4_455 2_465
Nb O2 O2 42.5(2) 1_455 2_465
Ga1 O2 O2 42.5(2) 1_455 2_465
O1 O2 O2 116.7(3) 2_455 2_465
Ga2 O2 O2 136.9(2) 1_554 2_465
O2 O2 O2 74.0(4) 6 2_465
O3 O2 O2 137.7(4) 6 2_465
La O2 O2 154.0(4) 1_554 2_465
Ga3 O2 O2 54.0(3) 2_464 2_465
La O2 O2 95.1(4) 4_454 2_465
Ga3 O2 O2 138.7(2) 2_564 2_465
O3 O2 O2 162.2(2) 1_554 2_465
La O2 O2 87.1(2) 2_565 2_465
Ga3 O2 O2 49.6(2) 1_556 2_465
Ga3 O2 O2 75.2(3) 4_455 2_465
O3 O2 O2 96.4(3) 3_454 2_465
Ga2 O2 O2 58.7(2) 2_566 2_465
O3 O2 O2 102.9(3) . 2_465
O2 O2 O2 159.0(3) 5_444 2_465
O2 O2 O2 72.1(3) 5_454 2_465
La O2 O2 87.3(2) 2_455 2_465
O2 O2 O2 61.0(4) 2_464 2_465
O3 O2 O2 57.2(2) 3_455 2_465
O1 O2 O2 33.2(2) 2_465 2_465
Nb O2 O2 94.6(3) 1_454 2_465
Ga1 O2 O2 94.6(3) 1_454 2_465
O3 O2 O2 54.9(2) 6_455 2_465
Ga2 O2 O2 52.8(2) 1_564 2_465
Ga3 O2 O2 76.6(2) 4_345 2_465
Ga3 O2 O2 154.6(3) 4_445 2_465
O2 O2 O2 126.5(2) 1_554 2_465
O2 O2 O2 53.5(2) 1_556 2_465
O3 O2 O2 95.5(3) 3_564 2_465
O2 O2 O2 103.4(4) 5_445 2_465
O2 O2 O2 31.1(2) 5_455 2_465
O3 O2 O2 72.1(3) 1_454 2_465
Ga2 O2 O2 116.6(8) 2_565 2_454
Ga3 O2 O2 47.8(3) . 2_454
La O2 O2 78.5(4) . 2_454
O3 O2 O2 106.0(3) 5_455 2_454
O2 O2 O2 107.4(8) 3_565 2_454
O2 O2 O2 155.7(5) 4_455 2_454
La O2 O2 151.6(4) 4_455 2_454
O3 O2 O2 53.9(2) 2_455 2_454
O1 O2 O2 134.0(5) . 2_454
O2 O2 O2 21.6(3) 6_554 2_454
O3 O2 O2 76.1(4) 4_454 2_454
O1 O2 O2 92.8(5) 1_554 2_454
O3 O2 O2 110.2(3) 4_455 2_454
Nb O2 O2 87.18(15) 1_455 2_454
Ga1 O2 O2 87.18(15) 1_455 2_454
O1 O2 O2 35.3(3) 2_455 2_454
Ga2 O2 O2 12.25(16) 1_554 2_454
O2 O2 O2 78.4(4) 6 2_454
O3 O2 O2 66.9(4) 6 2_454
La O2 O2 53.5(3) 1_554 2_454
Ga3 O2 O2 96.2(2) 2_464 2_454
La O2 O2 98.6(3) 4_454 2_454
Ga3 O2 O2 88.8(5) 2_564 2_454
O3 O2 O2 68.0(5) 1_554 2_454
La O2 O2 136.4(5) 2_565 2_454
Ga3 O2 O2 98.3(2) 1_556 2_454
Ga3 O2 O2 145.4(4) 4_455 2_454
O3 O2 O2 46.16(18) 3_454 2_454
Ga2 O2 O2 126.5(3) 2_566 2_454
O3 O2 O2 93.6(4) . 2_454
O2 O2 O2 32.3(3) 5_444 2_454
O2 O2 O2 130.3(5) 5_454 2_454
La O2 O2 47.09(8) 2_455 2_454
O2 O2 O2 108.7(3) 2_464 2_454
O3 O2 O2 75.54(19) 3_455 2_454
O1 O2 O2 142.9(4) 2_465 2_454
Nb O2 O2 64.47(19) 1_454 2_454
Ga1 O2 O2 64.47(19) 1_454 2_454
O3 O2 O2 78.2(2) 6_455 2_454
Ga2 O2 O2 130.5(3) 1_564 2_454
Ga3 O2 O2 58.50(12) 4_345 2_454
Ga3 O2 O2 51.4(3) 4_445 2_454
O2 O2 O2 68.3(2) 1_554 2_454
O2 O2 O2 111.7(2) 1_556 2_454
O3 O2 O2 127.9(4) 3_564 2_454
O2 O2 O2 67.89(15) 5_445 2_454
O2 O2 O2 158.5(5) 5_455 2_454
O3 O2 O2 78.1(2) 1_454 2_454
O2 O2 O2 129.7(3) 2_465 2_454
Ga2 O2 O2 25.2(2) 2_565 2_564
Ga3 O2 O2 124.8(7) . 2_564
La O2 O2 83.7(4) . 2_564
O3 O2 O2 142.3(5) 5_455 2_564
O2 O2 O2 21.9(2) 3_565 2_564
O2 O2 O2 59.6(2) 4_455 2_564
La O2 O2 107.7(3) 4_455 2_564
O3 O2 O2 154.5(7) 2_455 2_564
O1 O2 O2 81.3(2) . 2_564
O2 O2 O2 92.6(4) 6_554 2_564
O3 O2 O2 104.2(4) 4_454 2_564
O1 O2 O2 41.7(2) 1_554 2_564
O3 O2 O2 140.7(4) 4_455 2_564
Nb O2 O2 172.1(5) 1_455 2_564
Ga1 O2 O2 172.1(5) 1_455 2_564
O1 O2 O2 103.1(5) 2_455 2_564
Ga2 O2 O2 92.3(5) 1_554 2_564
O2 O2 O2 122.1(2) 6 2_564
O3 O2 O2 55.3(4) 6 2_564
La O2 O2 57.2(3) 1_554 2_564
Ga3 O2 O2 131.4(3) 2_464 2_564
La O2 O2 76.2(2) 4_454 2_564
Ga3 O2 O2 18.89(17) 2_564 2_564
O3 O2 O2 32.7(3) 1_554 2_564
La O2 O2 47.84(9) 2_565 2_564
Ga3 O2 O2 131.7(3) 1_556 2_564
Ga3 O2 O2 61.02(13) 4_455 2_564
O3 O2 O2 124.4(4) 3_454 2_564
Ga2 O2 O2 92.8(2) 2_566 2_564
O3 O2 O2 68.1(3) . 2_564
O2 O2 O2 69.4(5) 5_444 2_564
O2 O2 O2 76.5(3) 5_454 2_564
La O2 O2 137.0(5) 2_455 2_564
O2 O2 O2 108.7(3) 2_464 2_564
O3 O2 O2 158.8(4) 3_455 2_564
O1 O2 O2 106.4(3) 2_465 2_564
Nb O2 O2 110.6(3) 1_454 2_564
Ga1 O2 O2 110.6(3) 1_454 2_564
O3 O2 O2 161.2(4) 6_455 2_564
Ga2 O2 O2 98.1(2) 1_564 2_564
Ga3 O2 O2 146.1(4) 4_345 2_564
Ga3 O2 O2 57.2(3) 4_445 2_564
O2 O2 O2 68.3(2) 1_554 2_564
O2 O2 O2 111.7(2) 1_556 2_564
O3 O2 O2 43.59(17) 3_564 2_564
O2 O2 O2 93.2(5) 5_445 2_564
O2 O2 O2 99.2(2) 5_455 2_564
O3 O2 O2 128.3(3) 1_454 2_564
O2 O2 O2 129.7(3) 2_465 2_564
O2 O2 O2 100.6(6) 2_454 2_564
Ga2 O2 La 14.4(3) 2_565 2_564
Ga3 O2 La 106.9(4) . 2_564
La O2 La 110.1(4) . 2_564
O3 O2 La 119.2(4) 5_455 2_564
O2 O2 La 46.72(19) 3_565 2_564
O2 O2 La 52.5(2) 4_455 2_564
La O2 La 102.5(3) 4_455 2_564
O3 O2 La 145.9(4) 2_455 2_564
O1 O2 La 97.8(3) . 2_564
O2 O2 La 87.2(4) 6_554 2_564
O3 O2 La 79.4(3) 4_454 2_564
O1 O2 La 17.67(18) 1_554 2_564
O3 O2 La 146.4(4) 4_455 2_564
Nb O2 La 152.1(3) 1_455 2_564
Ga1 O2 La 152.1(3) 1_455 2_564
O1 O2 La 120.6(4) 2_455 2_564
Ga2 O2 La 99.9(3) 1_554 2_564
O2 O2 La 148.59(14) 6 2_564
O3 O2 La 79.1(3) 6 2_564
La O2 La 50.44(13) 1_554 2_564
Ga3 O2 La 105.2(2) 2_464 2_564
La O2 La 49.78(11) 4_454 2_564
Ga3 O2 La 43.90(11) 2_564 2_564
O3 O2 La 44.7(2) 1_554 2_564
La O2 La 62.81(13) 2_565 2_564
Ga3 O2 La 152.0(3) 1_556 2_564
Ga3 O2 La 46.75(10) 4_455 2_564
O3 O2 La 107.2(3) 3_454 2_564
Ga2 O2 La 110.5(2) 2_566 2_564
O3 O2 La 94.3(3) . 2_564
O2 O2 La 79.0(4) 5_444 2_564
O2 O2 La 54.3(2) 5_454 2_564
La O2 La 150.1(4) 2_455 2_564
O2 O2 La 83.1(2) 2_464 2_564
O3 O2 La 174.5(3) 3_455 2_564
O1 O2 La 90.6(2) 2_465 2_564
Nb O2 La 87.82(17) 1_454 2_564
Ga1 O2 La 87.82(17) 1_454 2_564
O3 O2 La 135.1(3) 6_455 2_564
Ga2 O2 La 76.43(14) 1_564 2_564
Ga3 O2 La 125.9(2) 4_345 2_564
Ga3 O2 La 75.2(2) 4_445 2_564
O2 O2 La 48.70(12) 1_554 2_564
O2 O2 La 131.30(12) 1_556 2_564
O3 O2 La 26.43(12) 3_564 2_564
O2 O2 La 118.9(4) 5_445 2_564
O2 O2 La 98.0(2) 5_455 2_564
O3 O2 La 102.6(2) 1_454 2_564
O2 O2 La 121.9(2) 2_465 2_564
O2 O2 La 103.4(4) 2_454 2_564
O2 O2 La 26.49(13) 2_564 2_564
Ga2 O2 O3 34.1(4) 2_565 2_565
Ga3 O2 O3 143.5(5) . 2_565
La O2 O3 95.6(3) . 2_565
O3 O2 O3 102.7(4) 5_455 2_565
O2 O2 O3 43.7(4) 3_565 2_565
O2 O2 O3 16.9(4) 4_455 2_565
La O2 O3 60.6(2) 4_455 2_565
O3 O2 O3 158.3(6) 2_455 2_565
O1 O2 O3 53.6(3) . 2_565
O2 O2 O3 135.6(4) 6_554 2_565
O3 O2 O3 107.7(3) 4_454 2_565
O1 O2 O3 63.3(3) 1_554 2_565
O3 O2 O3 99.6(3) 4_455 2_565
Nb O2 O3 125.1(4) 1_455 2_565
Ga1 O2 O3 125.1(4) 1_455 2_565
O1 O2 O3 137.5(3) 2_455 2_565
Ga2 O2 O3 138.8(4) 1_554 2_565
O2 O2 O3 116.6(5) 6 2_565
O3 O2 O3 89.4(2) 6 2_565
La O2 O3 98.4(2) 1_554 2_565
Ga3 O2 O3 105.7(3) 2_464 2_565
La O2 O3 75.5(2) 4_454 2_565
Ga3 O2 O3 60.26(15) 2_564 2_565
O3 O2 O3 79.8(3) 1_554 2_565
La O2 O3 25.83(13) 2_565 2_565
Ga3 O2 O3 105.1(3) 1_556 2_565
Ga3 O2 O3 28.18(15) 4_455 2_565
O3 O2 O3 144.8(3) 3_454 2_565
Ga2 O2 O3 65.87(19) 2_566 2_565
O3 O2 O3 76.1(3) . 2_565
O2 O2 O3 116.1(4) 5_444 2_565
O2 O2 O3 52.0(3) 5_454 2_565
La O2 O3 155.3(3) 2_455 2_565
O2 O2 O3 85.8(2) 2_464 2_565
O3 O2 O3 134.1(3) 3_455 2_565
O1 O2 O3 63.51(19) 2_465 2_565
Nb O2 O3 120.3(3) 1_454 2_565
Ga1 O2 O3 120.3(3) 1_454 2_565
O3 O2 O3 131.5(4) 6_455 2_565
Ga2 O2 O3 65.5(2) 1_564 2_565
Ga3 O2 O3 146.7(3) 4_345 2_565
Ga3 O2 O3 100.1(2) 4_445 2_565
O2 O2 O3 93.82(18) 1_554 2_565
O2 O2 O3 86.18(18) 1_556 2_565
O3 O2 O3 31.1(3) 3_564 2_565
O2 O2 O3 108.7(3) 5_445 2_565
O2 O2 O3 52.7(2) 5_455 2_565
O3 O2 O3 118.9(3) 1_454 2_565
O2 O2 O3 82.6(2) 2_465 2_565
O2 O2 O3 147.7(5) 2_454 2_565
O2 O2 O3 47.12(16) 2_564 2_565
La O2 O3 48.46(15) 2_564 2_565
Ga2 O2 Ga2 134.3(5) 2_565 .
Ga3 O2 Ga2 99.0(3) . .
La O2 Ga2 28.86(16) . .
O3 O2 Ga2 101.2(3) 5_455 .
O2 O2 Ga2 94.4(5) 3_565 .
O2 O2 Ga2 127.24(17) 4_455 .
La O2 Ga2 96.3(3) 4_455 .
O3 O2 Ga2 64.1(3) 2_455 .
O1 O2 Ga2 65.9(2) . .
O2 O2 Ga2 92.9(4) 6_554 .
O3 O2 Ga2 134.3(3) 4_454 .
O1 O2 Ga2 147.9(5) 1_554 .
O3 O2 Ga2 58.8(2) 4_455 .
Nb O2 Ga2 69.13(16) 1_455 .
Ga1 O2 Ga2 69.13(16) 1_455 .
O1 O2 Ga2 37.2(3) 2_455 .
Ga2 O2 Ga2 65.97(17) 1_554 .
O2 O2 Ga2 12.52(14) 6 .
O3 O2 Ga2 60.8(3) 6 .
La O2 Ga2 115.5(3) 1_554 .
Ga3 O2 Ga2 116.2(2) 2_464 .
La O2 Ga2 167.4(3) 4_454 .
Ga3 O2 Ga2 94.7(2) 2_564 .
O3 O2 Ga2 99.9(4) 1_554 .
La O2 Ga2 92.20(18) 2_565 .
Ga3 O2 Ga2 36.66(8) 1_556 .
Ga3 O2 Ga2 141.3(3) 4_455 .
O3 O2 Ga2 97.9(2) 3_454 .
Ga2 O2 Ga2 55.81(11) 2_566 .
O3 O2 Ga2 46.9(2) . .
O2 O2 Ga2 76.93(18) 5_444 .
O2 O2 Ga2 156.3(4) 5_454 .
La O2 Ga2 39.41(8) 2_455 .
O2 O2 Ga2 138.1(4) 2_464 .
O3 O2 Ga2 46.44(19) 3_455 .
O1 O2 Ga2 118.9(3) 2_465 .
Nb O2 Ga2 122.3(2) 1_454 .
Ga1 O2 Ga2 122.3(2) 1_454 .
O3 O2 Ga2 85.2(2) 6_455 .
Ga2 O2 Ga2 139.0(3) 1_564 .
Ga3 O2 Ga2 87.41(15) 4_345 .
Ga3 O2 Ga2 69.91(18) 4_445 .
O2 O2 Ga2 138.78(17) 1_554 .
O2 O2 Ga2 41.22(17) 1_556 .
O3 O2 Ga2 146.3(3) 3_564 .
O2 O2 Ga2 20.03(14) 5_445 .
O2 O2 Ga2 93.5(4) 5_455 .
O3 O2 Ga2 115.6(2) 1_454 .
O2 O2 Ga2 86.3(2) 2_465 .
O2 O2 Ga2 71.3(2) 2_454 .
O2 O2 Ga2 112.4(4) 2_564 .
La O2 Ga2 138.6(3) 2_564 .
O3 O2 Ga2 117.1(2) 2_565 .
Ga2 O2 O3 62.2(4) 2_565 3_565
Ga3 O2 O3 152.5(7) . 3_565
La O2 O3 82.1(3) . 3_565
O3 O2 O3 91.4(4) 5_455 3_565
O2 O2 O3 57.2(3) 3_565 3_565
O2 O2 O3 32.44(19) 4_455 3_565
La O2 O3 41.7(2) 4_455 3_565
O3 O2 O3 134.2(5) 2_455 3_565
O1 O2 O3 29.0(2) . 3_565
O2 O2 O3 162.5(3) 6_554 3_565
O3 O2 O3 123.5(4) 4_454 3_565
O1 O2 O3 91.5(3) 1_554 3_565
O3 O2 O3 72.8(3) 4_455 3_565
Nb O2 O3 102.4(4) 1_455 3_565
Ga1 O2 O3 102.4(4) 1_455 3_565
O1 O2 O3 127.0(3) 2_455 3_565
Ga2 O2 O3 147.3(4) 1_554 3_565
O2 O2 O3 91.0(5) 6 3_565
O3 O2 O3 93.2(3) 6 3_565
La O2 O3 125.6(3) 1_554 3_565
Ga3 O2 O3 103.7(4) 2_464 3_565
La O2 O3 96.8(3) 4_454 3_565
Ga3 O2 O3 76.9(2) 2_564 3_565
O3 O2 O3 100.7(2) 1_554 3_565
La O2 O3 25.65(14) 2_565 3_565
Ga3 O2 O3 76.9(2) 1_556 3_565
Ga3 O2 O3 46.40(17) 4_455 3_565
O3 O2 O3 154.1(5) 3_454 3_565
Ga2 O2 O3 39.65(15) 2_566 3_565
O3 O2 O3 65.94(19) . 3_565
O2 O2 O3 131.2(4) 5_444 3_565
O2 O2 O3 66.8(3) 5_454 3_565
La O2 O3 128.5(3) 2_455 3_565
O2 O2 O3 91.8(3) 2_464 3_565
O3 O2 O3 106.4(3) 3_455 3_565
O1 O2 O3 57.1(3) 2_465 3_565
Nb O2 O3 135.6(3) 1_454 3_565
Ga1 O2 O3 135.6(3) 1_454 3_565
O3 O2 O3 116.7(3) 6_455 3_565
Ga2 O2 O3 69.9(2) 1_564 3_565
Ga3 O2 O3 138.2(4) 4_345 3_565
Ga3 O2 O3 110.0(3) 4_445 3_565
O2 O2 O3 121.24(15) 1_554 3_565
O2 O2 O3 58.76(15) 1_556 3_565
O3 O2 O3 57.71(17) 3_564 3_565
O2 O2 O3 93.8(3) 5_445 3_565
O2 O2 O3 31.1(2) 5_455 3_565
O3 O2 O3 122.3(4) 1_454 3_565
O2 O2 O3 61.9(2) 2_465 3_565
O2 O2 O3 159.4(5) 2_454 3_565
O2 O2 O3 69.93(18) 2_564 3_565
La O2 O3 76.58(17) 2_564 3_565
O3 O2 O3 28.2(2) 2_565 3_565
Ga2 O2 O3 94.9(2) . 3_565
Ga2 O2 O3 140.1(7) 2_565 1_455
Ga3 O2 O3 70.9(4) . 1_455
La O2 O3 98.5(3) . 1_455
O3 O2 O3 28.9(3) 5_455 1_455
O2 O2 O3 145.1(3) 3_565 1_455
O2 O2 O3 101.9(7) 4_455 1_455
La O2 O3 52.8(3) 4_455 1_455
O3 O2 O3 45.1(3) 2_455 1_455
O1 O2 O3 84.0(4) . 1_455
O2 O2 O3 106.3(3) 6_554 1_455
O3 O2 O3 82.1(3) 4_454 1_455
O1 O2 O3 138.9(4) 1_554 1_455
O3 O2 O3 25.01(18) 4_455 1_455
Nb O2 O3 11.69(15) 1_455 1_455
Ga1 O2 O3 11.69(15) 1_455 1_455
O1 O2 O3 91.8(3) 2_455 1_455
Ga2 O2 O3 106.6(2) 1_554 1_455
O2 O2 O3 60.56(19) 6 1_455
O3 O2 O3 133.3(2) 6 1_455
La O2 O3 139.4(3) 1_554 1_455
Ga3 O2 O3 47.2(2) 2_464 1_455
La O2 O3 102.6(3) 4_454 1_455
Ga3 O2 O3 161.8(3) 2_564 1_455
O3 O2 O3 166.6(5) 1_554 1_455
La O2 O3 114.6(4) 2_565 1_455
Ga3 O2 O3 42.42(18) 1_556 1_455
Ga3 O2 O3 102.8(4) 4_455 1_455
O3 O2 O3 71.62(18) 3_454 1_455
Ga2 O2 O3 74.1(2) 2_566 1_455
O3 O2 O3 109.0(3) . 1_455
O2 O2 O3 129.5(3) 5_444 1_455
O2 O2 O3 92.2(4) 5_454 1_455
La O2 O3 58.95(18) 2_455 1_455
O2 O2 O3 66.1(4) 2_464 1_455
O3 O2 O3 30.35(18) 3_455 1_455
O1 O2 O3 57.3(3) 2_465 1_455
Nb O2 O3 79.5(2) 1_454 1_455
Ga1 O2 O3 79.5(2) 1_454 1_455
O3 O2 O3 29.3(2) 6_455 1_455
Ga2 O2 O3 70.1(3) 1_564 1_455
Ga3 O2 O3 49.91(16) 4_345 1_455
Ga3 O2 O3 138.0(3) 4_445 1_455
O2 O2 O3 121.40(16) 1_554 1_455
O2 O2 O3 58.60(16) 1_556 1_455
O3 O2 O3 122.3(4) 3_564 1_455
O2 O2 O3 92.5(3) 5_445 1_455
O2 O2 O3 61.3(4) 5_455 1_455
O3 O2 O3 58.02(19) 1_454 1_455
O2 O2 O3 30.8(2) 2_465 1_455
O2 O2 O3 98.8(2) 2_454 1_455
O2 O2 O3 160.5(4) 2_564 1_455
La O2 O3 146.5(3) 2_564 1_455
O3 O2 O3 113.4(3) 2_565 1_455
Ga2 O2 O3 72.48(19) . 1_455
O3 O2 O3 91.0(4) 3_565 1_455
Ga2 O2 Nb 76.9(4) 2_565 .
Ga3 O2 Nb 130.1(7) . .
La O2 Nb 30.6(2) . .
O3 O2 Nb 155.5(4) 5_455 .
O2 O2 Nb 38.1(5) 3_565 .
O2 O2 Nb 94.4(5) 4_455 .
La O2 Nb 113.7(3) 4_455 .
O3 O2 Nb 116.4(4) 2_455 .
O1 O2 Nb 61.8(2) . .
O2 O2 Nb 93.4(2) 6_554 .
O3 O2 Nb 145.4(5) 4_454 .
O1 O2 Nb 92.1(3) 1_554 .
O3 O2 Nb 106.3(3) 4_455 .
Nb O2 Nb 127.7(2) 1_455 .
Ga1 O2 Nb 127.7(2) 1_455 .
O1 O2 Nb 60.2(2) 2_455 .
Ga2 O2 Nb 70.1(2) 1_554 .
O2 O2 Nb 69.37(11) 6 .
O3 O2 Nb 16.44(17) 6 .
La O2 Nb 81.5(3) 1_554 .
Ga3 O2 Nb 175.1(2) 2_464 .
La O2 Nb 128.5(3) 4_454 .
Ga3 O2 Nb 36.12(11) 2_564 .
O3 O2 Nb 49.9(2) 1_554 .
La O2 Nb 55.27(14) 2_565 .
Ga3 O2 Nb 86.03(18) 1_556 .
Ga3 O2 Nb 104.2(2) 4_455 .
O3 O2 Nb 128.5(4) 3_454 .
Ga2 O2 Nb 65.08(14) 2_566 .
O3 O2 Nb 21.09(16) . .
O2 O2 Nb 57.0(2) 5_444 .
O2 O2 Nb 126.1(3) 5_454 .
La O2 Nb 89.7(2) 2_455 .
O2 O2 Nb 161.40(17) 2_464 .
O3 O2 Nb 105.4(3) 3_455 .
O1 O2 Nb 134.4(3) 2_465 .
Nb O2 Nb 140.7(4) 1_454 .
Ga1 O2 Nb 140.7(4) 1_454 .
O3 O2 Nb 143.3(3) 6_455 .
Ga2 O2 Nb 143.0(2) 1_564 .
Ga3 O2 Nb 135.8(3) 4_345 .
Ga3 O2 Nb 35.39(10) 4_445 .
O2 O2 Nb 107.11(15) 1_554 .
O2 O2 Nb 72.89(15) 1_556 .
O3 O2 Nb 93.5(3) 3_564 .
O2 O2 Nb 39.9(2) 5_445 .
O2 O2 Nb 103.1(3) 5_455 .
O3 O2 Nb 160.3(4) 1_454 .
O2 O2 Nb 123.7(3) 2_465 .
O2 O2 Nb 82.3(4) 2_454 .
O2 O2 Nb 53.5(3) 2_564 .
La O2 Nb 79.70(19) 2_564 .
O3 O2 Nb 77.51(17) 2_565 .
Ga2 O2 Nb 58.94(13) . .
O3 O2 Nb 77.33(19) 3_565 .
O3 O2 Nb 128.3(2) 1_455 .
Ga2 O2 Ga1 76.9(4) 2_565 .
Ga3 O2 Ga1 130.1(7) . .
La O2 Ga1 30.6(2) . .
O3 O2 Ga1 155.5(4) 5_455 .
O2 O2 Ga1 38.1(5) 3_565 .
O2 O2 Ga1 94.4(5) 4_455 .
La O2 Ga1 113.7(3) 4_455 .
O3 O2 Ga1 116.4(4) 2_455 .
O1 O2 Ga1 61.8(2) . .
O2 O2 Ga1 93.4(2) 6_554 .
O3 O2 Ga1 145.4(5) 4_454 .
O1 O2 Ga1 92.1(3) 1_554 .
O3 O2 Ga1 106.3(3) 4_455 .
Nb O2 Ga1 127.7(2) 1_455 .
Ga1 O2 Ga1 127.7(2) 1_455 .
O1 O2 Ga1 60.2(2) 2_455 .
Ga2 O2 Ga1 70.1(2) 1_554 .
O2 O2 Ga1 69.37(11) 6 .
O3 O2 Ga1 16.44(17) 6 .
La O2 Ga1 81.5(3) 1_554 .
Ga3 O2 Ga1 175.1(2) 2_464 .
La O2 Ga1 128.5(3) 4_454 .
Ga3 O2 Ga1 36.12(11) 2_564 .
O3 O2 Ga1 49.9(2) 1_554 .
La O2 Ga1 55.27(14) 2_565 .
Ga3 O2 Ga1 86.03(18) 1_556 .
Ga3 O2 Ga1 104.2(2) 4_455 .
O3 O2 Ga1 128.5(4) 3_454 .
Ga2 O2 Ga1 65.08(14) 2_566 .
O3 O2 Ga1 21.09(16) . .
O2 O2 Ga1 57.0(2) 5_444 .
O2 O2 Ga1 126.1(3) 5_454 .
La O2 Ga1 89.7(2) 2_455 .
O2 O2 Ga1 161.40(17) 2_464 .
O3 O2 Ga1 105.4(3) 3_455 .
O1 O2 Ga1 134.4(3) 2_465 .
Nb O2 Ga1 140.7(4) 1_454 .
Ga1 O2 Ga1 140.7(4) 1_454 .
O3 O2 Ga1 143.3(3) 6_455 .
Ga2 O2 Ga1 143.0(2) 1_564 .
Ga3 O2 Ga1 135.8(3) 4_345 .
Ga3 O2 Ga1 35.39(10) 4_445 .
O2 O2 Ga1 107.11(15) 1_554 .
O2 O2 Ga1 72.89(15) 1_556 .
O3 O2 Ga1 93.5(3) 3_564 .
O2 O2 Ga1 39.9(2) 5_445 .
O2 O2 Ga1 103.1(3) 5_455 .
O3 O2 Ga1 160.3(4) 1_454 .
O2 O2 Ga1 123.7(3) 2_465 .
O2 O2 Ga1 82.3(4) 2_454 .
O2 O2 Ga1 53.5(3) 2_564 .
La O2 Ga1 79.70(19) 2_564 .
O3 O2 Ga1 77.51(17) 2_565 .
Ga2 O2 Ga1 58.94(13) . .
O3 O2 Ga1 77.33(19) 3_565 .
O3 O2 Ga1 128.3(2) 1_455 .
Nb O2 Ga1 0.0 . .
Ga2 O2 O3 55.6(4) 2_565 5
Ga3 O2 O3 136.3(7) . 5
La O2 O3 51.2(3) . 5
O3 O2 O3 160.9(5) 5_455 5
O2 O2 O3 18.0(5) 3_565 5
O2 O2 O3 77.6(5) 4_455 5
La O2 O3 110.8(3) 4_455 5
O3 O2 O3 136.2(4) 2_455 5
O1 O2 O3 64.6(3) . 5
O2 O2 O3 96.5(2) 6_554 5
O3 O2 O3 133.1(4) 4_454 5
O1 O2 O3 72.9(3) 1_554 5
O3 O2 O3 120.1(3) 4_455 5
Nb O2 O3 147.4(3) 1_455 5
Ga1 O2 O3 147.4(3) 1_455 5
O1 O2 O3 78.6(3) 2_455 5
Ga2 O2 O3 80.8(3) 1_554 5
O2 O2 O3 89.71(17) 6 5
O3 O2 O3 28.6(3) 6 5
La O2 O3 72.7(3) 1_554 5
Ga3 O2 O3 163.4(3) 2_464 5
La O2 O3 108.6(3) 4_454 5
Ga3 O2 O3 17.28(14) 2_564 5
O3 O2 O3 38.9(3) 1_554 5
La O2 O3 44.18(16) 2_565 5
Ga3 O2 O3 103.1(2) 1_556 5
Ga3 O2 O3 85.15(18) 4_455 5
O3 O2 O3 134.9(4) 3_454 5
Ga2 O2 O3 72.4(2) 2_566 5
O3 O2 O3 36.6(3) . 5
O2 O2 O3 61.6(3) 5_444 5
O2 O2 O3 105.6(3) 5_454 5
La O2 O3 110.2(3) 2_455 5
O2 O2 O3 140.3(2) 2_464 5
O3 O2 O3 126.3(3) 3_455 5
O1 O2 O3 123.7(2) 2_465 5
Nb O2 O3 134.9(4) 1_454 5
Ga1 O2 O3 134.9(4) 1_454 5
O3 O2 O3 164.5(3) 6_455 5
Ga2 O2 O3 124.8(2) 1_564 5
Ga3 O2 O3 150.9(4) 4_345 5
Ga3 O2 O3 41.08(18) 4_445 5
O2 O2 O3 93.82(19) 1_554 5
O2 O2 O3 86.18(19) 1_556 5
O3 O2 O3 72.5(2) 3_564 5
O2 O2 O3 61.2(3) 5_445 5
O2 O2 O3 99.8(3) 5_455 5
O3 O2 O3 157.2(3) 1_454 5
O2 O2 O3 127.9(3) 2_465 5
O2 O2 O3 92.5(5) 2_454 5
O2 O2 O3 32.5(2) 2_564 5
La O2 O3 58.97(17) 2_564 5
O3 O2 O3 61.0(2) 2_565 5
Ga2 O2 O3 79.9(2) . 5
O3 O2 O3 69.54(19) 3_565 5
O3 O2 O3 144.7(2) 1_455 5
Nb O2 O3 21.31(12) . 5
Ga1 O2 O3 21.31(12) . 5
Ga2 O2 O3 51.6(4) 2_565 6_565
Ga3 O2 O3 122.2(5) . 6_565
La O2 O3 116.2(4) . 6_565
O3 O2 O3 74.1(4) 5_455 6_565
O2 O2 O3 72.5(5) 3_565 6_565
O2 O2 O3 13.0(5) 4_455 6_565
La O2 O3 39.61(18) 4_455 6_565
O3 O2 O3 131.3(5) 2_455 6_565
O1 O2 O3 62.5(3) . 6_565
O2 O2 O3 140.4(5) 6_554 6_565
O3 O2 O3 89.4(4) 4_454 6_565
O1 O2 O3 70.8(3) 1_554 6_565
O3 O2 O3 83.8(4) 4_455 6_565
Nb O2 O3 100.4(4) 1_455 6_565
Ga1 O2 O3 100.4(4) 1_455 6_565
O1 O2 O3 161.3(4) 2_455 6_565
Ga2 O2 O3 162.8(4) 1_554 6_565
O2 O2 O3 119.5(5) 6 6_565
O3 O2 O3 118.1(3) 6 6_565
La O2 O3 110.7(2) 1_554 6_565
Ga3 O2 O3 77.7(3) 2_464 6_565
La O2 O3 63.9(2) 4_454 6_565
Ga3 O2 O3 88.1(2) 2_564 6_565
O3 O2 O3 103.9(3) 1_554 6_565
La O2 O3 50.10(18) 2_565 6_565
Ga3 O2 O3 98.5(3) 1_556 6_565
Ga3 O2 O3 17.34(14) 4_455 6_565
O3 O2 O3 123.8(3) 3_454 6_565
Ga2 O2 O3 71.1(2) 2_566 6_565
O3 O2 O3 98.8(3) . 6_565
O2 O2 O3 140.9(5) 5_444 6_565
O2 O2 O3 32.7(2) 5_454 6_565
La O2 O3 146.9(4) 2_455 6_565
O2 O2 O3 60.1(2) 2_464 6_565
O3 O2 O3 116.9(3) 3_455 6_565
O1 O2 O3 34.97(13) 2_465 6_565
Nb O2 O3 101.8(3) 1_454 6_565
Ga1 O2 O3 101.8(3) 1_454 6_565
O3 O2 O3 102.9(3) 6_455 6_565
Ga2 O2 O3 38.39(15) 1_564 6_565
Ga3 O2 O3 118.5(3) 4_345 6_565
Ga3 O2 O3 128.4(3) 4_445 6_565
O2 O2 O3 93.73(18) 1_554 6_565
O2 O2 O3 86.27(18) 1_556 6_565
O3 O2 O3 36.8(2) 3_564 6_565
O2 O2 O3 128.0(3) 5_445 6_565
O2 O2 O3 36.73(16) 5_455 6_565
O3 O2 O3 93.1(3) 1_454 6_565
O2 O2 O3 59.8(2) 2_465 6_565
O2 O2 O3 162.0(4) 2_454 6_565
O2 O2 O3 72.4(2) 2_564 6_565
La O2 O3 62.89(17) 2_564 6_565
O3 O2 O3 28.9(2) 2_565 6_565
Ga2 O2 O3 126.6(3) . 6_565
O3 O2 O3 34.3(3) 3_565 6_565
O3 O2 O3 89.4(3) 1_455 6_565
Nb O2 O3 105.1(2) . 6_565
Ga1 O2 O3 105.1(2) . 6_565
O3 O2 O3 89.78(17) 5 6_565
Ga2 O2 O3 78.6(4) 2_565 5_454
Ga3 O2 O3 43.9(3) . 5_454
La O2 O3 155.8(6) . 5_454
O3 O2 O3 66.9(3) 5_455 5_454
O2 O2 O3 115.12(19) 3_565 5_454
O2 O2 O3 88.4(4) 4_455 5_454
La O2 O3 100.6(4) 4_455 5_454
O3 O2 O3 80.9(3) 2_455 5_454
O1 O2 O3 147.6(4) . 5_454
O2 O2 O3 58.5(3) 6_554 5_454
O3 O2 O3 10.7(3) 4_454 5_454
O1 O2 O3 52.0(2) 1_554 5_454
O3 O2 O3 115.7(4) 4_455 5_454
Nb O2 O3 88.8(3) 1_455 5_454
Ga1 O2 O3 88.8(3) 1_455 5_454
O1 O2 O3 113.2(4) 2_455 5_454
Ga2 O2 O3 87.7(2) 1_554 5_454
O2 O2 O3 140.3(3) 6 5_454
O3 O2 O3 124.8(5) 6 5_454
La O2 O3 56.7(2) 1_554 5_454
Ga3 O2 O3 46.09(19) 2_464 5_454
La O2 O3 24.55(12) 4_454 5_454
Ga3 O2 O3 105.7(3) 2_564 5_454
O3 O2 O3 87.7(3) 1_554 5_454
La O2 O3 124.8(2) 2_565 5_454
Ga3 O2 O3 133.8(3) 1_556 5_454
Ga3 O2 O3 74.26(18) 4_455 5_454
O3 O2 O3 45.0(2) 3_454 5_454
Ga2 O2 O3 152.5(4) 2_566 5_454
O3 O2 O3 158.5(4) . 5_454
O2 O2 O3 88.8(4) 5_444 5_454
O2 O2 O3 52.8(3) 5_454 5_454
La O2 O3 103.6(2) 2_455 5_454
O2 O2 O3 37.7(2) 2_464 5_454
O3 O2 O3 105.8(4) 3_455 5_454
O1 O2 O3 75.1(3) 2_465 5_454
Nb O2 O3 20.82(11) 1_454 5_454
Ga1 O2 O3 20.82(11) 1_454 5_454
O3 O2 O3 67.74(17) 6_455 5_454
Ga2 O2 O3 55.04(19) 1_564 5_454
Ga3 O2 O3 58.10(16) 4_345 5_454
Ga3 O2 O3 106.8(3) 4_445 5_454
O2 O2 O3 30.4(2) 1_554 5_454
O2 O2 O3 149.6(2) 1_556 5_454
O3 O2 O3 70.4(2) 3_564 5_454
O2 O2 O3 146.2(3) 5_445 5_454
O2 O2 O3 108.6(3) 5_455 5_454
O3 O2 O3 35.0(3) 1_454 5_454
O2 O2 O3 97.5(4) 2_465 5_454
O2 O2 O3 78.4(3) 2_454 5_454
O2 O2 O3 93.6(3) 2_564 5_454
La O2 O3 68.72(18) 2_564 5_454
O3 O2 O3 100.0(2) 2_565 5_454
Ga2 O2 O3 142.8(2) . 5_454
O3 O2 O3 119.6(3) 3_565 5_454
O3 O2 O3 92.1(3) 1_455 5_454
Nb O2 O3 137.5(4) . 5_454
Ga1 O2 O3 137.5(4) . 5_454
O3 O2 O3 123.0(4) 5 5_454
O3 O2 O3 85.4(2) 6_565 5_454
Ga2 O2 O3 92.9(4) 2_565 2_454
Ga3 O2 O3 28.0(3) . 2_454
La O2 O3 127.8(5) . 2_454
O3 O2 O3 80.8(3) 5_455 2_454
O2 O2 O3 117.6(3) 3_565 2_454
O2 O2 O3 114.7(3) 4_455 2_454
La O2 O3 125.5(4) 4_455 2_454
O3 O2 O3 66.5(3) 2_455 2_454
O1 O2 O3 176.0(4) . 2_454
O2 O2 O3 30.4(3) 6_554 2_454
O3 O2 O3 28.2(3) 4_454 2_454
O1 O2 O3 62.1(3) 1_554 2_454
O3 O2 O3 121.3(3) 4_455 2_454
Nb O2 O3 88.6(2) 1_455 2_454
Ga1 O2 O3 88.6(2) 1_455 2_454
O1 O2 O3 84.8(4) 2_455 2_454
Ga2 O2 O3 59.4(2) 1_554 2_454
O2 O2 O3 120.7(5) 6 2_454
O3 O2 O3 104.1(4) 6 2_454
La O2 O3 43.21(16) 1_554 2_454
Ga3 O2 O3 61.46(16) 2_464 2_454
La O2 O3 50.20(15) 4_454 2_454
Ga3 O2 O3 100.8(3) 2_564 2_454
O3 O2 O3 76.8(3) 1_554 2_454
La O2 O3 142.2(3) 2_565 2_454
Ga3 O2 O3 128.4(2) 1_556 2_454
Ga3 O2 O3 100.6(2) 4_455 2_454
O3 O2 O3 28.0(3) 3_454 2_454
Ga2 O2 O3 170.0(3) 2_566 2_454
O3 O2 O3 138.7(4) . 2_454
O2 O2 O3 64.1(3) 5_444 2_454
O2 O2 O3 80.9(3) 5_454 2_454
La O2 O3 82.0(2) 2_455 2_454
O2 O2 O3 63.0(2) 2_464 2_454
O3 O2 O3 96.0(3) 3_455 2_454
O1 O2 O3 101.2(3) 2_465 2_454
Nb O2 O3 20.72(11) 1_454 2_454
Ga1 O2 O3 20.72(11) 1_454 2_454
O3 O2 O3 67.60(17) 6_455 2_454
Ga2 O2 O3 82.75(18) 1_564 2_454
Ga3 O2 O3 49.01(15) 4_345 2_454
Ga3 O2 O3 84.9(3) 4_445 2_454
O2 O2 O3 30.73(16) 1_554 2_454
O2 O2 O3 149.26(16) 1_556 2_454
O3 O2 O3 91.6(3) 3_564 2_454
O2 O2 O3 117.7(3) 5_445 2_454
O2 O2 O3 135.1(3) 5_455 2_454
O3 O2 O3 43.1(2) 1_454 2_454
O2 O2 O3 115.1(3) 2_465 2_454
O2 O2 O3 49.8(2) 2_454 2_454
O2 O2 O3 97.1(3) 2_564 2_454
La O2 O3 79.44(19) 2_564 2_454
O3 O2 O3 122.7(3) 2_565 2_454
Ga2 O2 O3 118.1(3) . 2_454
O3 O2 O3 147.0(3) 3_565 2_454
O3 O2 O3 96.8(2) 1_455 2_454
Nb O2 O3 120.1(3) . 2_454
Ga1 O2 O3 120.1(3) . 2_454
O3 O2 O3 115.7(3) 5 2_454
O3 O2 O3 113.6(3) 6_565 2_454
O3 O2 O3 28.56(19) 5_454 2_454
Ga2 O2 La 110.5(5) 2_565 2_454
Ga3 O2 La 26.2(4) . 2_454
La O2 La 104.3(4) . 2_454
O3 O2 La 88.8(3) 5_455 2_454
O2 O2 La 120.3(6) 3_565 2_454
O2 O2 La 139.4(2) 4_455 2_454
La O2 La 138.9(4) 4_455 2_454
O3 O2 La 51.9(3) 2_455 2_454
O1 O2 La 158.9(4) . 2_454
O2 O2 La 13.87(18) 6_554 2_454
O3 O2 La 50.3(3) 4_454 2_454
O1 O2 La 80.7(3) 1_554 2_454
O3 O2 La 113.2(3) 4_455 2_454
Nb O2 La 82.22(18) 1_455 2_454
Ga1 O2 La 82.22(18) 1_455 2_454
O1 O2 La 60.0(3) 2_455 2_454
Ga2 O2 La 36.96(11) 1_554 2_454
O2 O2 La 97.2(4) 6 2_454
O3 O2 La 89.1(3) 6 2_454
La O2 La 48.36(14) 1_554 2_454
Ga3 O2 La 74.19(16) 2_464 2_454
La O2 La 75.27(17) 4_454 2_454
Ga3 O2 La 100.6(3) 2_564 2_454
O3 O2 La 76.0(3) 1_554 2_454
La O2 La 152.1(4) 2_565 2_454
Ga3 O2 La 110.90(19) 1_556 2_454
Ga3 O2 La 125.5(2) 4_455 2_454
O3 O2 La 24.78(17) 3_454 2_454
Ga2 O2 La 148.6(2) 2_566 2_454
O3 O2 La 119.1(4) . 2_454
O2 O2 La 49.4(2) 5_444 2_454
O2 O2 La 105.9(3) 5_454 2_454
La O2 La 59.69(14) 2_455 2_454
O2 O2 La 83.4(2) 2_464 2_454
O3 O2 La 80.6(2) 3_455 2_454
O1 O2 La 120.0(2) 2_465 2_454
Nb O2 La 38.80(9) 1_454 2_454
Ga1 O2 La 38.80(9) 1_454 2_454
O3 O2 La 65.80(18) 6_455 2_454
Ga2 O2 La 104.88(19) 1_564 2_454
Ga3 O2 La 44.08(9) 4_345 2_454
Ga3 O2 La 71.1(2) 4_445 2_454
O2 O2 La 50.57(10) 1_554 2_454
O2 O2 La 129.43(10) 1_556 2_454
O3 O2 La 114.1(2) 3_564 2_454
O2 O2 La 93.18(19) 5_445 2_454
O2 O2 La 150.0(4) 5_455 2_454
O3 O2 La 54.99(15) 1_454 2_454
O2 O2 La 120.6(2) 2_465 2_454
O2 O2 La 25.81(13) 2_454 2_454
O2 O2 La 105.2(4) 2_564 2_454
La O2 La 96.1(2) 2_564 2_454
O3 O2 La 144.0(3) 2_565 2_454
Ga2 O2 La 93.21(19) . 2_454
O3 O2 La 171.7(2) 3_565 2_454
O3 O2 La 93.14(19) 1_455 2_454
Nb O2 La 105.4(3) . 2_454
Ga1 O2 La 105.4(3) . 2_454
O3 O2 La 110.2(3) 5 2_454
O3 O2 La 138.6(2) 6_565 2_454
O3 O2 La 53.16(14) 5_454 2_454
O3 O2 La 25.12(13) 2_454 2_454
Ga2 O2 O2 152.0(3) 2_565 4_345
Ga3 O2 O2 32.4(3) . 4_345
La O2 O2 95.2(4) . 4_345
O3 O2 O2 59.3(2) 5_455 4_345
O2 O2 O2 154.1(8) 3_565 4_345
O2 O2 O2 145.9(8) 4_455 4_345
La O2 O2 102.8(3) 4_455 4_345
O3 O2 O2 7.3(4) 2_455 4_345
O1 O2 O2 123.5(3) . 4_345
O2 O2 O2 56.6(3) 6_554 4_345
O3 O2 O2 65.3(2) 4_454 4_345
O1 O2 O2 121.3(3) 1_554 4_345
O3 O2 O2 68.4(2) 4_455 4_345
Nb O2 O2 38.90(10) 1_455 4_345
Ga1 O2 O2 38.90(10) 1_455 4_345
O1 O2 O2 58.2(2) 2_455 4_345
Ga2 O2 O2 59.1(2) 1_554 4_345
O2 O2 O2 65.6(4) 6 4_345
O3 O2 O2 107.8(4) 6 4_345
La O2 O2 93.2(2) 1_554 4_345
Ga3 O2 O2 58.10(15) 2_464 4_345
La O2 O2 98.56(18) 4_454 4_345
Ga3 O2 O2 137.7(4) 2_564 4_345
O3 O2 O2 116.8(4) 1_554 4_345
La O2 O2 158.42(15) 2_565 4_345
Ga3 O2 O2 69.28(13) 1_556 4_345
Ga3 O2 O2 137.7(4) 4_455 4_345
O3 O2 O2 31.9(2) 3_454 4_345
Ga2 O2 O2 110.87(13) 2_566 4_345
O3 O2 O2 114.9(3) . 4_345
O2 O2 O2 81.4(3) 5_444 4_345
O2 O2 O2 115.1(4) 5_454 4_345
La O2 O2 30.56(18) 2_455 4_345
O2 O2 O2 79.8(3) 2_464 4_345
O3 O2 O2 37.0(2) 3_455 4_345
O1 O2 O2 98.5(3) 2_465 4_345
Nb O2 O2 54.12(13) 1_454 4_345
Ga1 O2 O2 54.12(13) 1_454 4_345
O3 O2 O2 30.46(19) 6_455 4_345
Ga2 O2 O2 98.4(3) 1_564 4_345
Ga3 O2 O2 18.83(12) 4_345 4_345
Ga3 O2 O2 98.0(3) 4_445 4_345
O2 O2 O2 90.000(1) 1_554 4_345
O2 O2 O2 90.000(1) 1_556 4_345
O3 O2 O2 144.3(3) 3_564 4_345
O2 O2 O2 82.5(3) 5_445 4_345
O2 O2 O2 111.8(4) 5_455 4_345
O3 O2 O2 48.2(2) 1_454 4_345
O2 O2 O2 81.0(2) 2_465 4_345
O2 O2 O2 49.22(15) 2_454 4_345
O2 O2 O2 148.9(4) 2_564 4_345
La O2 O2 138.67(13) 2_564 4_345
O3 O2 O2 162.0(4) 2_565 4_345
Ga2 O2 O2 69.2(2) . 4_345
O3 O2 O2 140.9(3) 3_565 4_345
O3 O2 O2 50.52(15) 1_455 4_345
Nb O2 O2 118.1(3) . 4_345
Ga1 O2 O2 118.1(3) . 4_345
O3 O2 O2 136.4(4) 5 4_345
O3 O2 O2 133.3(4) 6_565 4_345
O3 O2 O2 74.86(17) 5_454 4_345
O3 O2 O2 59.27(15) 2_454 4_345
La O2 O2 44.86(13) 2_454 4_345
Ga2 O2 O2 112.7(7) 2_565 3_465
Ga3 O2 O2 58.8(4) . 3_465
La O2 O2 134.3(3) . 3_465
O3 O2 O2 7.4(3) 5_455 3_465
O2 O2 O2 145.9(8) 3_565 3_465
O2 O2 O2 85.9(8) 4_455 3_465
La O2 O2 54.1(3) 4_455 3_465
O3 O2 O2 59.3(2) 2_455 3_465
O1 O2 O2 104.0(5) . 3_465
O2 O2 O2 98.20(17) 6_554 3_465
O3 O2 O2 51.4(4) 4_454 3_465
O1 O2 O2 103.2(4) 1_554 3_465
O3 O2 O2 56.6(2) 4_455 3_465
Nb O2 O2 38.90(10) 1_455 3_465
Ga1 O2 O2 38.90(10) 1_455 3_465
O1 O2 O2 116.8(2) 2_455 3_465
Ga2 O2 O2 116.1(2) 1_554 3_465
O2 O2 O2 96.16(9) 6 3_465
O3 O2 O2 166.8(4) 6 3_465
La O2 O2 115.26(16) 1_554 3_465
Ga3 O2 O2 13.79(16) 2_464 3_465
La O2 O2 66.8(3) 4_454 3_465
Ga3 O2 O2 156.7(4) 2_564 3_465
O3 O2 O2 147.2(2) 1_554 3_465
La O2 O2 119.3(5) 2_565 3_465
Ga3 O2 O2 77.45(14) 1_556 3_465
Ga3 O2 O2 79.6(4) 4_455 3_465
O3 O2 O2 60.26(16) 3_454 3_465
Ga2 O2 O2 99.0(3) 2_566 3_465
O3 O2 O2 141.9(3) . 3_465
O2 O2 O2 134.2(3) 5_444 3_465
O2 O2 O2 61.4(4) 5_454 3_465
La O2 O2 83.80(14) 2_455 3_465
O2 O2 O2 30.5(4) 2_464 3_465
O3 O2 O2 62.20(17) 3_455 3_465
O1 O2 O2 39.4(3) 2_465 3_465
Nb O2 O2 54.12(13) 1_454 3_465
Ga1 O2 O2 54.12(13) 1_454 3_465
O3 O2 O2 30.1(2) 6_455 3_465
Ga2 O2 O2 40.4(3) 1_564 3_465
Ga3 O2 O2 46.04(8) 4_345 3_465
Ga3 O2 O2 155.5(3) 4_445 3_465
O2 O2 O2 90.0 1_554 3_465
O2 O2 O2 90.0 1_556 3_465
O3 O2 O2 94.6(4) 3_564 3_465
O2 O2 O2 127.7(3) 5_445 3_465
O2 O2 O2 65.2(3) 5_455 3_465
O3 O2 O2 31.84(15) 1_454 3_465
O2 O2 O2 40.4(3) 2_465 3_465
O2 O2 O2 104.24(14) 2_454 3_465
O2 O2 O2 137.8(5) 2_564 3_465
La O2 O2 113.3(3) 2_564 3_465
O3 O2 O2 102.3(4) 2_565 3_465
Ga2 O2 O2 107.68(12) . 3_465
O3 O2 O2 94.4(4) 3_565 3_465
O3 O2 O2 35.80(17) 1_455 3_465
Nb O2 O2 162.89(14) . 3_465
Ga1 O2 O2 162.89(14) . 3_465
O3 O2 O2 163.0(4) 5 3_465
O3 O2 O2 73.5(4) 6_565 3_465
O3 O2 O2 59.6(2) 5_454 3_465
O3 O2 O2 74.74(13) 2_454 3_465
La O2 O2 84.90(12) 2_454 3_465
O2 O2 O2 60.0 4_345 3_465
Ga2 O2 O1 88.2(5) 2_565 2_454
Ga3 O2 O1 50.6(4) . 2_454
La O2 O1 98.1(5) . 2_454
O3 O2 O1 112.1(3) 5_455 2_454
O2 O2 O1 94.2(5) 3_565 2_454
O2 O2 O1 125.1(2) 4_455 2_454
La O2 O1 158.3(3) 4_455 2_454
O3 O2 O1 76.9(4) 2_455 2_454
O1 O2 O1 148.9(5) . 2_454
O2 O2 O1 13.7(2) 6_554 2_454
O3 O2 O1 60.7(4) 4_454 2_454
O1 O2 O1 61.9(3) 1_554 2_454
O3 O2 O1 138.1(3) 4_455 2_454
Nb O2 O1 108.5(2) 1_455 2_454
Ga1 O2 O1 108.5(2) 1_455 2_454
O1 O2 O1 62.8(3) 2_455 2_454
Ga2 O2 O1 34.07(16) 1_554 2_454
O2 O2 O1 108.7(5) 6 2_454
O3 O2 O1 71.0(3) 6 2_454
La O2 O1 23.77(11) 1_554 2_454
Ga3 O2 O1 94.1(2) 2_464 2_454
La O2 O1 71.9(2) 4_454 2_454
Ga3 O2 O1 74.7(3) 2_564 2_454
O3 O2 O1 49.9(2) 1_554 2_454
La O2 O1 125.8(3) 2_565 2_454
Ga3 O2 O1 129.4(3) 1_556 2_454
Ga3 O2 O1 114.5(2) 4_455 2_454
O3 O2 O1 49.5(2) 3_454 2_454
Ga2 O2 O1 149.6(3) 2_566 2_454
O3 O2 O1 105.8(4) . 2_454
O2 O2 O1 31.3(3) 5_444 2_454
O2 O2 O1 103.3(3) 5_454 2_454
La O2 O1 77.5(2) 2_455 2_454
O2 O2 O1 95.1(3) 2_464 2_454
O3 O2 O1 103.8(3) 3_455 2_454
O1 O2 O1 133.0(3) 2_465 2_454
Nb O2 O1 53.62(15) 1_454 2_454
Ga1 O2 O1 53.62(15) 1_454 2_454
O3 O2 O1 91.9(2) 6_455 2_454
Ga2 O2 O1 112.5(2) 1_564 2_454
Ga3 O2 O1 70.22(15) 4_345 2_454
Ga3 O2 O1 51.86(17) 4_445 2_454
O2 O2 O1 38.74(14) 1_554 2_454
O2 O2 O1 141.27(14) 1_556 2_454
O3 O2 O1 97.1(2) 3_564 2_454
O2 O2 O1 91.2(2) 5_445 2_454
O2 O2 O1 166.0(3) 5_455 2_454
O3 O2 O1 74.98(18) 1_454 2_454
O2 O2 O1 145.8(3) 2_465 2_454
O2 O2 O1 31.1(2) 2_454 2_454
O2 O2 O1 79.0(4) 2_564 2_454
La O2 O1 74.1(2) 2_564 2_454
O3 O2 O1 122.1(3) 2_565 2_454
Ga2 O2 O1 100.0(3) . 2_454
O3 O2 O1 148.8(3) 3_565 2_454
O3 O2 O1 119.5(2) 1_455 2_454
Nb O2 O1 87.1(3) . 2_454
Ga1 O2 O1 87.1(3) . 2_454
O3 O2 O1 86.2(3) 5 2_454
O3 O2 O1 131.6(3) 6_565 2_454
O3 O2 O1 57.9(2) 5_454 2_454
O3 O2 O1 33.09(14) 2_454 2_454
La O2 O1 26.38(7) 2_454 2_454
O2 O2 O1 70.32(18) 4_345 2_454
O2 O2 O1 106.76(13) 3_465 2_454
Ga2 O2 Ga3 129.1(6) 2_565 2_465
Ga3 O2 Ga3 89.3(5) . 2_465
La O2 Ga3 90.7(4) . 2_465
O3 O2 Ga3 38.3(3) 5_455 2_465
O2 O2 Ga3 126.8(3) 3_565 2_465
O2 O2 Ga3 89.2(5) 4_455 2_465
La O2 Ga3 38.52(18) 4_455 2_465
O3 O2 Ga3 61.5(4) 2_455 2_465
O1 O2 Ga3 65.9(3) . 2_465
O2 O2 Ga3 124.1(3) 6_554 2_465
O3 O2 Ga3 96.3(4) 4_454 2_465
O1 O2 Ga3 141.7(4) 1_554 2_465
O3 O2 Ga3 11.5(2) 4_455 2_465
Nb O2 Ga3 29.16(14) 1_455 2_465
Ga1 O2 Ga3 29.16(14) 1_455 2_465
O1 O2 Ga3 98.1(3) 2_455 2_465
Ga2 O2 Ga3 119.3(2) 1_554 2_465
O2 O2 Ga3 57.3(2) 6 2_465
O3 O2 Ga3 127.4(3) 6 2_465
La O2 Ga3 157.6(3) 1_554 2_465
Ga3 O2 Ga3 59.1(2) 2_464 2_465
La O2 Ga3 109.3(3) 4_454 2_465
Ga3 O2 Ga3 144.8(3) 2_564 2_465
O3 O2 Ga3 167.1(3) 1_554 2_465
La O2 Ga3 96.2(3) 2_565 2_465
Ga3 O2 Ga3 33.98(13) 1_556 2_465
Ga3 O2 Ga3 93.6(3) 4_455 2_465
O3 O2 Ga3 90.1(3) 3_454 2_465
Ga2 O2 Ga3 56.86(17) 2_566 2_465
O3 O2 Ga3 96.4(2) . 2_465
O2 O2 Ga3 140.6(3) 5_444 2_465
O2 O2 Ga3 89.9(3) 5_454 2_465
La O2 Ga3 69.15(17) 2_455 2_465
O2 O2 Ga3 72.8(4) 2_464 2_465
O3 O2 Ga3 39.13(17) 3_455 2_465
O1 O2 Ga3 51.3(2) 2_465 2_465
Nb O2 Ga3 96.0(2) 1_454 2_465
Ga1 O2 Ga3 96.0(2) 1_454 2_465
O3 O2 Ga3 47.50(18) 6_455 2_465
Ga2 O2 Ga3 69.4(2) 1_564 2_465
Ga3 O2 Ga3 68.37(18) 4_345 2_465
Ga3 O2 Ga3 139.7(2) 4_445 2_465
O2 O2 Ga3 135.58(11) 1_554 2_465
O2 O2 Ga3 44.41(11) 1_556 2_465
O3 O2 Ga3 114.0(3) 3_564 2_465
O2 O2 Ga3 88.5(3) 5_445 2_465
O2 O2 Ga3 45.1(3) 5_455 2_465
O3 O2 Ga3 73.5(2) 1_454 2_465
O2 O2 Ga3 18.61(12) 2_465 2_465
O2 O2 Ga3 113.8(2) 2_454 2_465
O2 O2 Ga3 143.3(3) 2_564 2_465
La O2 Ga3 140.4(3) 2_564 2_465
O3 O2 Ga3 97.8(3) 2_565 2_465
Ga2 O2 Ga3 69.77(14) . 2_465
O3 O2 Ga3 73.3(2) 3_565 2_465
O3 O2 Ga3 18.46(13) 1_455 2_465
Nb O2 Ga3 117.23(19) . 2_465
Ga1 O2 Ga3 117.23(19) . 2_465
O3 O2 Ga3 129.1(2) 5 2_465
O3 O2 Ga3 77.8(2) 6_565 2_465
O3 O2 Ga3 105.1(3) 5_454 2_465
O3 O2 Ga3 114.5(2) 2_454 2_465
La O2 Ga3 111.36(19) 2_454 2_465
O2 O2 Ga3 67.64(12) 4_345 2_465
O2 O2 Ga3 45.66(11) 3_465 2_465
O1 O2 Ga3 137.6(2) 2_454 2_465
Ga2 O2 O2 39.0(3) 2_565 3_564
Ga3 O2 O2 86.1(4) . 3_564
La O2 O2 111.8(6) . 3_564
O3 O2 O2 120.9(4) 5_455 3_564
O2 O2 O2 61.12(15) 3_565 3_564
O2 O2 O2 76.02(7) 4_455 3_564
La O2 O2 123.8(4) 4_455 3_564
O3 O2 O2 123.0(5) 2_455 3_564
O1 O2 O2 119.8(3) . 3_564
O2 O2 O2 62.6(3) 6_554 3_564
O3 O2 O2 66.9(3) 4_454 3_564
O1 O2 O2 15.14(10) 1_554 3_564
O3 O2 O2 167.0(5) 4_455 3_564
Nb O2 O2 144.8(3) 1_455 3_564
Ga1 O2 O2 144.8(3) 1_455 3_564
O1 O2 O2 103.3(6) 2_455 3_564
Ga2 O2 O2 78.2(4) 1_554 3_564
O2 O2 O2 146.6(5) 6 3_564
O3 O2 O2 75.4(4) 6 3_564
La O2 O2 26.24(18) 1_554 3_564
Ga3 O2 O2 101.39(18) 2_464 3_564
La O2 O2 47.52(8) 4_454 3_564
Ga3 O2 O2 49.1(2) 2_564 3_564
O3 O2 O2 35.0(2) 1_554 3_564
La O2 O2 84.9(2) 2_565 3_564
Ga3 O2 O2 169.0(4) 1_556 3_564
Ga3 O2 O2 67.76(17) 4_455 3_564
O3 O2 O2 86.0(3) 3_454 3_564
Ga2 O2 O2 131.9(3) 2_566 3_564
O3 O2 O2 102.5(4) . 3_564
O2 O2 O2 60.1(5) 5_444 3_564
O2 O2 O2 67.0(2) 5_454 3_564
La O2 O2 126.8(4) 2_455 3_564
O2 O2 O2 84.4(3) 2_464 3_564
O3 O2 O2 152.4(4) 3_455 3_564
O1 O2 O2 105.8(3) 2_465 3_564
Nb O2 O2 71.42(16) 1_454 3_564
Ga1 O2 O2 71.42(16) 1_454 3_564
O3 O2 O2 123.1(2) 6_455 3_564
Ga2 O2 O2 86.82(19) 1_564 3_564
Ga3 O2 O2 107.0(2) 4_345 3_564
Ga3 O2 O2 64.2(3) 4_445 3_564
O2 O2 O2 28.88(15) 1_554 3_564
O2 O2 O2 151.12(15) 1_556 3_564
O3 O2 O2 48.41(18) 3_564 3_564
O2 O2 O2 115.3(5) 5_445 3_564
O2 O2 O2 121.4(3) 5_455 3_564
O3 O2 O2 91.3(2) 1_454 3_564
O2 O2 O2 139.1(4) 2_465 3_564
O2 O2 O2 79.7(5) 2_454 3_564
O2 O2 O2 39.5(3) 2_564 3_564
La O2 O2 24.63(13) 2_564 3_564
O3 O2 O2 73.1(2) 2_565 3_564
Ga2 O2 O2 134.1(5) . 3_564
O3 O2 O2 101.1(2) 3_565 3_564
O3 O2 O2 148.5(3) 1_455 3_564
Nb O2 O2 83.0(3) . 3_564
Ga1 O2 O2 83.0(3) . 3_564
O3 O2 O2 66.4(3) 5 3_564
O3 O2 O2 84.9(3) 6_565 3_564
O3 O2 O2 56.65(18) 5_454 3_564
O3 O2 O2 58.1(2) 2_454 3_564
La O2 O2 71.8(3) 2_454 3_564
O2 O2 O2 115.8(2) 4_345 3_564
O2 O2 O2 113.6(3) 3_465 3_564
O1 O2 O2 49.6(3) 2_454 3_564
Ga3 O2 O2 156.1(4) 2_465 3_564
Ga2 O2 O2 39.0(3) 2_565 4_454
Ga3 O2 O2 81.3(3) . 4_454
La O2 O2 137.5(6) . 4_454
O3 O2 O2 94.9(4) 5_455 4_454
O2 O2 O2 76.02(7) 3_565 4_454
O2 O2 O2 61.12(15) 4_455 4_454
La O2 O2 100.2(3) 4_455 4_454
O3 O2 O2 120.2(4) 2_455 4_454
O1 O2 O2 119.8(3) . 4_454
O2 O2 O2 75.7(3) 6_554 4_454
O3 O2 O2 50.3(3) 4_454 4_454
O1 O2 O2 15.14(10) 1_554 4_454
O3 O2 O2 139.3(5) 4_455 4_454
Nb O2 O2 125.0(4) 1_455 4_454
Ga1 O2 O2 125.0(4) 1_455 4_454
O1 O2 O2 127.6(4) 2_455 4_454
Ga2 O2 O2 99.5(2) 1_554 4_454
O2 O2 O2 174.2(6) 6 4_454
O3 O2 O2 102.5(4) 6 4_454
La O2 O2 47.69(8) 1_554 4_454
Ga3 O2 O2 77.6(3) 2_464 4_454
La O2 O2 21.43(14) 4_454 4_454
Ga3 O2 O2 71.1(3) 2_564 4_454
O3 O2 O2 62.5(3) 1_554 4_454
La O2 O2 87.5(3) 2_565 4_454
Ga3 O2 O2 161.2(4) 1_556 4_454
Ga3 O2 O2 48.75(19) 4_455 4_454
O3 O2 O2 82.0(2) 3_454 4_454
Ga2 O2 O2 131.9(3) 2_566 4_454
O3 O2 O2 123.5(4) . 4_454
O2 O2 O2 85.8(4) 5_444 4_454
O2 O2 O2 40.5(3) 5_454 4_454
La O2 O2 138.4(2) 2_455 4_454
O2 O2 O2 57.8(2) 2_464 4_454
O3 O2 O2 145.2(4) 3_455 4_454
O1 O2 O2 78.9(3) 2_465 4_454
Nb O2 O2 59.9(2) 1_454 4_454
Ga1 O2 O2 59.9(2) 1_454 4_454
O3 O2 O2 105.9(4) 6_455 4_454
Ga2 O2 O2 59.0(2) 1_564 4_454
Ga3 O2 O2 97.8(3) 4_345 4_454
Ga3 O2 O2 92.1(3) 4_445 4_454
O2 O2 O2 28.88(15) 1_554 4_454
O2 O2 O2 151.12(15) 1_556 4_454
O3 O2 O2 35.2(2) 3_564 4_454
O2 O2 O2 143.0(5) 5_445 4_454
O2 O2 O2 101.3(3) 5_455 4_454
O3 O2 O2 73.3(3) 1_454 4_454
O2 O2 O2 111.7(4) 2_465 4_454
O2 O2 O2 96.7(3) 2_454 4_454
O2 O2 O2 55.4(2) 2_564 4_454
La O2 O2 29.31(19) 2_564 4_454
O3 O2 O2 66.2(3) 2_565 4_454
Ga2 O2 O2 162.0(4) . 4_454
O3 O2 O2 92.7(2) 3_565 4_454
O3 O2 O2 123.8(4) 1_455 4_454
Nb O2 O2 107.1(4) . 4_454
Ga1 O2 O2 107.1(4) . 4_454
O3 O2 O2 87.4(3) 5 4_454
O3 O2 O2 65.6(2) 6_565 4_454
O3 O2 O2 39.8(2) 5_454 4_454
O3 O2 O2 56.6(2) 2_454 4_454
La O2 O2 79.07(14) 2_454 4_454
O2 O2 O2 113.6(3) 4_345 4_454
O2 O2 O2 88.0(4) 3_465 4_454
O1 O2 O2 66.08(14) 2_454 4_454
Ga3 O2 O2 128.2(4) 2_465 4_454
O2 O2 O2 27.95(13) 3_564 4_454
Ga2 O2 O2 92.1(4) 2_565 3_566
Ga3 O2 O2 148.1(4) . 3_566
La O2 O2 39.8(2) . 3_566
O3 O2 O2 106.8(4) 5_455 3_566
O2 O2 O2 61.12(15) 3_565 3_566
O2 O2 O2 76.02(7) 4_455 3_566
La O2 O2 65.8(2) 4_455 3_566
O3 O2 O2 108.9(4) 2_455 3_566
O1 O2 O2 16.11(12) . 3_566
O2 O2 O2 137.3(5) 6_554 3_566
O3 O2 O2 163.4(6) 4_454 3_566
O1 O2 O2 121.9(4) 1_554 3_566
O3 O2 O2 61.58(19) 4_455 3_566
Nb O2 O2 92.80(18) 1_455 3_566
Ga1 O2 O2 92.80(18) 1_455 3_566
O1 O2 O2 83.1(3) 2_455 3_566
Ga2 O2 O2 108.2(4) 1_554 3_566
O2 O2 O2 51.10(19) 6 3_566
O3 O2 O2 65.6(3) 6 3_566
La O2 O2 130.9(4) 1_554 3_566
Ga3 O2 O2 127.3(4) 2_464 3_566
La O2 O2 140.7(4) 4_454 3_566
Ga3 O2 O2 75.3(2) 2_564 3_566
O3 O2 O2 97.3(3) 1_554 3_566
La O2 O2 43.0(2) 2_565 3_566
Ga3 O2 O2 49.13(12) 1_556 3_566
Ga3 O2 O2 90.2(3) 4_455 3_566
O3 O2 O2 147.5(3) 3_454 3_566
Ga2 O2 O2 14.70(7) 2_566 3_566
O3 O2 O2 30.32(19) . 3_566
O2 O2 O2 104.6(4) 5_444 3_566
O2 O2 O2 111.0(4) 5_454 3_566
La O2 O2 89.6(2) 2_455 3_566
O2 O2 O2 128.9(6) 2_464 3_566
O3 O2 O2 80.8(2) 3_455 3_566
O1 O2 O2 90.6(3) 2_465 3_566
Nb O2 O2 166.1(3) 1_454 3_566
Ga1 O2 O2 166.1(3) 1_454 3_566
O3 O2 O2 114.5(2) 6_455 3_566
Ga2 O2 O2 109.6(4) 1_564 3_566
Ga3 O2 O2 129.7(2) 4_345 3_566
Ga3 O2 O2 84.6(3) 4_445 3_566
O2 O2 O2 151.12(15) 1_554 3_566
O2 O2 O2 28.88(15) 1_556 3_566
O3 O2 O2 96.7(3) 3_564 3_566
O2 O2 O2 50.0(3) 5_445 3_566
O2 O2 O2 56.7(3) 5_455 3_566
O3 O2 O2 143.8(3) 1_454 3_566
O2 O2 O2 73.3(2) 2_465 3_566
O2 O2 O2 117.9(5) 2_454 3_566
O2 O2 O2 82.8(3) 2_564 3_566
La O2 O2 104.3(2) 2_564 3_566
O3 O2 O2 65.9(3) 2_565 3_566
Ga2 O2 O2 51.6(2) . 3_566
O3 O2 O2 44.3(2) 3_565 3_566
O3 O2 O2 86.57(18) 1_455 3_566
Nb O2 O2 50.38(19) . 3_566
Ga1 O2 O2 50.38(19) . 3_566
O3 O2 O2 58.8(2) 5 3_566
O3 O2 O2 78.3(3) 6_565 3_566
O3 O2 O2 163.7(4) 5_454 3_566
O3 O2 O2 167.6(5) 2_454 3_566
La O2 O2 143.1(4) 2_454 3_566
O2 O2 O2 115.8(2) 4_345 3_566
O2 O2 O2 113.6(3) 3_465 3_566
O1 O2 O2 135.9(4) 2_454 3_566
Ga3 O2 O2 70.35(12) 2_465 3_566
O2 O2 O2 122.2(3) 3_564 3_566
O2 O2 O2 130.5(2) 4_454 3_566
Ga2 O2 O2 92.1(4) 2_565 4_456
Ga3 O2 O2 140.0(7) . 4_456
La O2 O2 66.3(2) . 4_456
O3 O2 O2 82.1(5) 5_455 4_456
O2 O2 O2 76.02(7) 3_565 4_456
O2 O2 O2 61.12(15) 4_455 4_456
La O2 O2 37.9(2) 4_455 4_456
O3 O2 O2 106.3(5) 2_455 4_456
O1 O2 O2 16.11(12) . 4_456
O2 O2 O2 161.4(5) 6_554 4_456
O3 O2 O2 135.5(6) 4_454 4_456
O1 O2 O2 121.9(4) 1_554 4_456
O3 O2 O2 46.2(3) 4_455 4_456
Nb O2 O2 78.8(4) 1_455 4_456
Ga1 O2 O2 78.8(4) 1_455 4_456
O1 O2 O2 105.0(3) 2_455 4_456
Ga2 O2 O2 133.0(3) 1_554 4_456
O2 O2 O2 62.1(4) 6 4_456
O3 O2 O2 93.1(3) 6 4_456
La O2 O2 151.4(4) 1_554 4_456
Ga3 O2 O2 101.2(5) 2_464 4_456
La O2 O2 121.2(4) 4_454 4_456
Ga3 O2 O2 94.4(2) 2_564 4_456
O3 O2 O2 119.1(3) 1_554 4_456
La O2 O2 46.74(16) 2_565 4_456
Ga3 O2 O2 46.44(18) 1_556 4_456
Ga3 O2 O2 73.9(3) 4_455 4_456
O3 O2 O2 140.7(5) 3_454 4_456
Ga2 O2 O2 14.70(7) 2_566 4_456
O3 O2 O2 58.11(16) . 4_456
O2 O2 O2 132.5(3) 5_444 4_456
O2 O2 O2 89.4(4) 5_454 4_456
La O2 O2 98.2(2) 2_455 4_456
O2 O2 O2 101.0(5) 2_464 4_456
O3 O2 O2 77.0(3) 3_455 4_456
O1 O2 O2 63.0(4) 2_465 4_456
Nb O2 O2 141.9(5) 1_454 4_456
Ga1 O2 O2 141.9(5) 1_454 4_456
O3 O2 O2 98.3(4) 6_455 4_456
Ga2 O2 O2 82.9(3) 1_564 4_456
Ga3 O2 O2 118.8(4) 4_345 4_456
Ga3 O2 O2 112.2(3) 4_445 4_456
O2 O2 O2 151.12(15) 1_554 4_456
O2 O2 O2 28.88(15) 1_556 4_456
O3 O2 O2 87.9(3) 3_564 4_456
O2 O2 O2 74.3(2) 5_445 4_456
O2 O2 O2 29.2(3) 5_455 4_456
O3 O2 O2 119.8(5) 1_454 4_456
O2 O2 O2 47.8(2) 2_465 4_456
O2 O2 O2 139.8(3) 2_454 4_456
O2 O2 O2 94.5(2) 2_564 4_456
La O2 O2 106.5(2) 2_564 4_456
O3 O2 O2 58.6(2) 2_565 4_456
Ga2 O2 O2 68.51(11) . 4_456
O3 O2 O2 30.49(17) 3_565 4_456
O3 O2 O2 69.1(3) 1_455 4_456
Nb O2 O2 77.24(18) . 4_456
Ga1 O2 O2 77.24(18) . 4_456
O3 O2 O2 80.7(2) 5 4_456
O3 O2 O2 58.2(2) 6_565 4_456
O3 O2 O2 137.9(4) 5_454 4_456
O3 O2 O2 162.7(5) 2_454 4_456
La O2 O2 157.3(3) 2_454 4_456
O2 O2 O2 113.6(3) 4_345 4_456
O2 O2 O2 88.0(4) 3_465 4_456
O1 O2 O2 163.9(4) 2_454 4_456
Ga3 O2 O2 50.8(3) 2_465 4_456
O2 O2 O2 130.5(2) 3_564 4_456
O2 O2 O2 122.2(3) 4_454 4_456
O2 O2 O2 27.95(13) 3_566 4_456
Ga2 O2 O2 144.3(7) 2_565 2_455
Ga3 O2 O2 81.5(2) . 2_455
La O2 O2 41.4(3) . 2_455
O3 O2 O2 97.9(4) 5_455 2_455
O2 O2 O2 105.7(7) 3_565 2_455
O2 O2 O2 145.45(19) 4_455 2_455
La O2 O2 108.1(4) 4_455 2_455
O3 O2 O2 50.0(2) 2_455 2_455
O1 O2 O2 84.1(3) . 2_455
O2 O2 O2 76.0(4) 6_554 2_455
O3 O2 O2 117.3(3) 4_454 2_455
O1 O2 O2 142.4(6) 1_554 2_455
O3 O2 O2 65.5(3) 4_455 2_455
Nb O2 O2 64.59(18) 1_455 2_455
Ga1 O2 O2 64.59(18) 1_455 2_455
O1 O2 O2 24.1(2) 2_455 2_455
Ga2 O2 O2 51.4(2) 1_554 2_455
O2 O2 O2 23.9(2) 6 2_455
O3 O2 O2 64.1(4) 6 2_455
La O2 O2 103.8(4) 1_554 2_455
Ga3 O2 O2 107.6(3) 2_464 2_455
La O2 O2 149.4(3) 4_454 2_455
Ga3 O2 O2 100.5(4) 2_564 2_455
O3 O2 O2 97.8(5) 1_554 2_455
La O2 O2 109.4(3) 2_565 2_455
Ga3 O2 O2 46.51(18) 1_556 2_455
Ga3 O2 O2 159.3(4) 4_455 2_455
O3 O2 O2 80.29(17) 3_454 2_455
Ga2 O2 O2 73.6(2) 2_566 2_455
O3 O2 O2 61.1(3) . 2_455
O2 O2 O2 67.16(17) 5_444 2_455
O2 O2 O2 163.6(6) 5_454 2_455
La O2 O2 23.27(7) 2_455 2_455
O2 O2 O2 130.8(4) 2_464 2_455
O3 O2 O2 41.49(19) 3_455 2_455
O1 O2 O2 126.2(5) 2_465 2_455
Nb O2 O2 104.84(14) 1_454 2_455
Ga1 O2 O2 104.84(14) 1_454 2_455
O3 O2 O2 75.6(3) 6_455 2_455
Ga2 O2 O2 141.5(5) 1_564 2_455
Ga3 O2 O2 72.62(9) 4_345 2_455
Ga3 O2 O2 66.9(3) 4_445 2_455
O2 O2 O2 122.9(3) 1_554 2_455
O2 O2 O2 57.1(3) 1_556 2_455
O3 O2 O2 161.1(4) 3_564 2_455
O2 O2 O2 28.9(2) 5_445 2_455
O2 O2 O2 107.8(5) 5_455 2_455
O3 O2 O2 101.9(2) 1_454 2_455
O2 O2 O2 93.2(3) 2_465 2_455
O2 O2 O2 54.56(16) 2_454 2_455
O2 O2 O2 119.4(6) 2_564 2_455
La O2 O2 142.0(5) 2_564 2_455
O3 O2 O2 134.9(3) 2_565 2_455
Ga2 O2 O2 18.28(13) . 2_455
O3 O2 O2 113.0(3) 3_565 2_455
O3 O2 O2 71.5(3) 1_455 2_455
Nb O2 O2 67.8(3) . 2_455
Ga1 O2 O2 67.8(3) . 2_455
O3 O2 O2 88.9(4) 5 2_455
O3 O2 O2 143.4(4) 6_565 2_455
O3 O2 O2 124.99(19) 5_454 2_455
O3 O2 O2 99.8(2) 2_454 2_455
La O2 O2 75.14(18) 2_454 2_455
O2 O2 O2 53.83(13) 4_345 2_455
O2 O2 O2 102.84(14) 3_465 2_455
O1 O2 O2 84.8(3) 2_454 2_455
Ga3 O2 O2 74.8(3) 2_465 2_455
O2 O2 O2 127.3(6) 3_564 2_455
O2 O2 O2 150.9(4) 4_454 2_455
O2 O2 O2 69.8(3) 3_566 2_455
O2 O2 O2 85.5(3) 4_456 2_455
Ga2 O2 O2 65.8(2) 2_565 2_565
Ga3 O2 O2 167.0(7) . 2_565
La O2 O2 48.0(3) . 2_565
O3 O2 O2 127.1(6) 5_455 2_565
O2 O2 O2 33.0(2) 3_565 2_565
O2 O2 O2 62.8(3) 4_455 2_565
La O2 O2 78.0(3) 4_455 2_565
O3 O2 O2 134.8(4) 2_455 2_565
O1 O2 O2 29.93(16) . 2_565
O2 O2 O2 129.7(4) 6_554 2_565
O3 O2 O2 154.0(3) 4_454 2_565
O1 O2 O2 94.2(3) 1_554 2_565
O3 O2 O2 88.5(4) 4_455 2_565
Nb O2 O2 120.7(4) 1_455 2_565
Ga1 O2 O2 120.7(4) 1_455 2_565
O1 O2 O2 91.7(4) 2_455 2_565
Ga2 O2 O2 107.2(4) 1_554 2_565
O2 O2 O2 75.4(4) 6 2_565
O3 O2 O2 53.4(3) 6 2_565
La O2 O2 106.7(4) 1_554 2_565
Ga3 O2 O2 143.3(5) 2_464 2_565
La O2 O2 120.71(16) 4_454 2_565
Ga3 O2 O2 49.1(2) 2_564 2_565
O3 O2 O2 73.3(3) 1_554 2_565
La O2 O2 21.89(6) 2_565 2_565
Ga3 O2 O2 77.4(3) 1_556 2_565
Ga3 O2 O2 75.73(11) 4_455 2_565
O3 O2 O2 165.3(5) 3_454 2_565
Ga2 O2 O2 39.24(19) 2_566 2_565
O3 O2 O2 28.6(2) . 2_565
O2 O2 O2 93.3(5) 5_444 2_565
O2 O2 O2 99.5(2) 5_454 2_565
La O2 O2 110.9(3) 2_455 2_565
O2 O2 O2 130.8(4) 2_464 2_565
O3 O2 O2 108.6(3) 3_455 2_565
O1 O2 O2 97.1(3) 2_465 2_565
Nb O2 O2 164.5(3) 1_454 2_565
Ga1 O2 O2 164.5(3) 1_454 2_565
O3 O2 O2 142.2(5) 6_455 2_565
Ga2 O2 O2 108.8(3) 1_564 2_565
Ga3 O2 O2 157.4(3) 4_345 2_565
Ga3 O2 O2 71.5(3) 4_445 2_565
O2 O2 O2 122.9(3) 1_554 2_565
O2 O2 O2 57.1(3) 1_556 2_565
O3 O2 O2 74.71(18) 3_564 2_565
O2 O2 O2 61.0(4) 5_445 2_565
O2 O2 O2 67.0(3) 5_455 2_565
O3 O2 O2 162.4(5) 1_454 2_565
O2 O2 O2 93.2(3) 2_465 2_565
O2 O2 O2 119.4(6) 2_454 2_565
O2 O2 O2 54.56(16) 2_564 2_565
La O2 O2 76.70(17) 2_564 2_565
O3 O2 O2 47.68(14) 2_565 2_565
Ga2 O2 O2 71.6(2) . 2_565
O3 O2 O2 40.12(19) 3_565 2_565
O3 O2 O2 113.2(4) 1_455 2_565
Nb O2 O2 37.3(2) . 2_565
Ga1 O2 O2 37.3(2) . 2_565
O3 O2 O2 34.9(2) 5 2_565
O3 O2 O2 70.7(2) 6_565 2_565
O3 O2 O2 144.3(2) 5_454 2_565
O3 O2 O2 149.9(5) 2_454 2_565
La O2 O2 142.5(5) 2_454 2_565
O2 O2 O2 140.7(2) 4_345 2_565
O2 O2 O2 132.0(5) 3_465 2_565
O1 O2 O2 120.8(5) 2_454 2_565
Ga3 O2 O2 95.6(3) 2_465 2_565
O2 O2 O2 94.0(3) 3_564 2_565
O2 O2 O2 104.7(3) 4_454 2_565
O2 O2 O2 28.3(3) 3_566 2_565
O2 O2 O2 45.85(15) 4_456 2_565
O2 O2 O2 88.1(3) 2_455 2_565
Ga2 O2 Ga3 83.3(3) 2_565 2_565
Ga3 O2 Ga3 151.1(5) . 2_565
La O2 Ga3 31.14(18) . 2_565
O3 O2 Ga3 125.1(4) 5_455 2_565
O2 O2 Ga3 46.9(2) 3_565 2_565
O2 O2 Ga3 79.3(3) 4_455 2_565
La O2 Ga3 82.0(2) 4_455 2_565
O3 O2 Ga3 116.8(4) 2_455 2_565
O1 O2 Ga3 29.87(18) . 2_565
O2 O2 Ga3 123.8(3) 6_554 2_565
O3 O2 Ga3 172.2(3) 4_454 2_565
O1 O2 Ga3 110.0(3) 1_554 2_565
O3 O2 Ga3 78.8(2) 4_455 2_565
Nb O2 Ga3 108.3(2) 1_455 2_565
Ga1 O2 Ga3 108.3(2) 1_455 2_565
O1 O2 Ga3 76.2(2) 2_455 2_565
Ga2 O2 Ga3 96.6(3) 1_554 2_565
O2 O2 Ga3 57.6(3) 6 2_565
O3 O2 Ga3 48.3(2) 6 2_565
La O2 Ga3 112.6(3) 1_554 2_565
Ga3 O2 Ga3 145.5(4) 2_464 2_565
La O2 Ga3 139.0(2) 4_454 2_565
Ga3 O2 Ga3 58.24(13) 2_564 2_565
O3 O2 Ga3 79.3(2) 1_554 2_565
La O2 Ga3 39.51(9) 2_565 2_565
Ga3 O2 Ga3 63.31(13) 1_556 2_565
Ga3 O2 Ga3 92.86(18) 4_455 2_565
O3 O2 Ga3 149.6(3) 3_454 2_565
Ga2 O2 Ga3 32.86(8) 2_566 2_565
O3 O2 Ga3 14.48(15) . 2_565
O2 O2 Ga3 88.4(3) 5_444 2_565
O2 O2 Ga3 116.2(3) 5_454 2_565
La O2 Ga3 92.64(17) 2_455 2_565
O2 O2 Ga3 143.0(4) 2_464 2_565
O3 O2 Ga3 92.4(2) 3_455 2_565
O1 O2 Ga3 105.4(3) 2_465 2_565
Nb O2 Ga3 172.3(4) 1_454 2_565
Ga1 O2 Ga3 172.3(4) 1_454 2_565
O3 O2 Ga3 129.9(3) 6_455 2_565
Ga2 O2 Ga3 121.5(3) 1_564 2_565
Ga3 O2 Ga3 139.9(2) 4_345 2_565
Ga3 O2 Ga3 67.47(16) 4_445 2_565
O2 O2 Ga3 135.01(14) 1_554 2_565
O2 O2 Ga3 44.99(14) 1_556 2_565
O3 O2 Ga3 93.0(2) 3_564 2_565
O2 O2 Ga3 43.9(2) 5_445 2_565
O2 O2 Ga3 72.0(3) 5_455 2_565
O3 O2 Ga3 161.6(3) 1_454 2_565
O2 O2 Ga3 91.5(2) 2_465 2_565
O2 O2 Ga3 107.9(4) 2_454 2_565
O2 O2 Ga3 68.6(2) 2_564 2_565
La O2 Ga3 93.05(17) 2_564 2_565
O3 O2 Ga3 65.26(16) 2_565 2_565
Ga2 O2 Ga3 53.34(10) . 2_565
O3 O2 Ga3 51.84(16) 3_565 2_565
O3 O2 Ga3 103.6(2) 1_455 2_565
Nb O2 Ga3 32.48(7) . 2_565
Ga1 O2 Ga3 32.48(7) . 2_565
O3 O2 Ga3 41.27(15) 5 2_565
O3 O2 Ga3 85.4(2) 6_565 2_565
O3 O2 Ga3 161.7(3) 5_454 2_565
O3 O2 Ga3 152.4(4) 2_454 2_565
La O2 Ga3 133.5(3) 2_454 2_565
O2 O2 Ga3 122.5(2) 4_345 2_565
O2 O2 Ga3 131.8(2) 3_465 2_565
O1 O2 Ga3 119.3(3) 2_454 2_565
Ga3 O2 Ga3 88.24(17) 2_465 2_565
O2 O2 Ga3 106.8(3) 3_564 2_565
O2 O2 Ga3 122.0(3) 4_454 2_565
O2 O2 Ga3 18.28(13) 3_566 2_565
O2 O2 Ga3 44.82(13) 4_456 2_565
O2 O2 Ga3 70.0(2) 2_455 2_565
O2 O2 Ga3 18.29(14) 2_565 2_565
Ga2 O2 La 118.4(6) 2_565 4_445
Ga3 O2 La 87.7(5) . 4_445
La O2 La 34.4(2) . 4_445
O3 O2 La 124.4(3) 5_455 4_445
O2 O2 La 84.5(6) 3_565 4_445
O2 O2 La 141.5(6) 4_455 4_445
La O2 La 130.8(3) 4_455 4_445
O3 O2 La 69.7(3) 2_455 4_445
O1 O2 La 89.9(3) . 4_445
O2 O2 La 64.1(3) 6_554 4_445
O3 O2 La 120.1(4) 4_454 4_445
O1 O2 La 115.7(4) 1_554 4_445
O3 O2 La 92.2(3) 4_455 4_445
Nb O2 La 91.8(2) 1_455 4_445
Ga1 O2 La 91.8(2) 1_455 4_445
O1 O2 La 12.67(11) 2_455 4_445
Ga2 O2 La 34.88(12) 1_554 4_445
O2 O2 La 46.5(2) 6 4_445
O3 O2 La 38.7(2) 6 4_445
La O2 La 80.7(3) 1_554 4_445
Ga3 O2 La 128.7(2) 2_464 4_445
La O2 La 139.4(3) 4_454 4_445
Ga3 O2 La 74.5(2) 2_564 4_445
O3 O2 La 69.6(3) 1_554 4_445
La O2 La 100.7(2) 2_565 4_445
Ga3 O2 La 71.07(15) 1_556 4_445
Ga3 O2 La 151.6(3) 4_455 4_445
O3 O2 La 86.1(3) 3_454 4_445
Ga2 O2 La 83.83(17) 2_566 4_445
O3 O2 La 51.2(2) . 4_445
O2 O2 La 42.11(15) 5_444 4_445
O2 O2 La 167.7(4) 5_454 4_445
La O2 La 44.34(12) 2_455 4_445
O2 O2 La 149.23(12) 2_464 4_445
O3 O2 La 69.3(2) 3_455 4_445
O1 O2 La 153.3(3) 2_465 4_445
Nb O2 La 107.9(2) 1_454 4_445
Ga1 O2 La 107.9(2) 1_454 4_445
O3 O2 La 98.5(2) 6_455 4_445
Ga2 O2 La 168.5(2) 1_564 4_445
Ga3 O2 La 88.24(17) 4_345 4_445
Ga3 O2 La 38.70(11) 4_445 4_445
O2 O2 La 105.47(13) 1_554 4_445
O2 O2 La 74.53(13) 1_556 4_445
O3 O2 La 136.8(3) 3_564 4_445
O2 O2 La 24.08(9) 5_445 4_445
O2 O2 La 126.4(3) 5_455 4_445
O3 O2 La 116.0(2) 1_454 4_445
O2 O2 La 120.2(2) 2_465 4_445
O2 O2 La 44.2(2) 2_454 4_445
O2 O2 La 93.2(4) 2_564 4_445
La O2 La 113.9(3) 2_564 4_445
O3 O2 La 124.9(2) 2_565 4_445
Ga2 O2 La 34.82(8) . 4_445
O3 O2 La 116.4(2) 3_565 4_445
O3 O2 La 99.5(2) 1_455 4_445
Nb O2 La 47.61(12) . 4_445
Ga1 O2 La 47.61(12) . 4_445
O3 O2 La 66.5(2) 5 4_445
O3 O2 La 150.0(2) 6_565 4_445
O3 O2 La 122.4(3) 5_454 4_445
O3 O2 La 93.9(3) 2_454 4_445
La O2 La 69.91(17) 2_454 4_445
O2 O2 La 70.6(3) 4_345 4_445
O2 O2 La 128.1(2) 3_465 4_445
O1 O2 La 67.6(2) 2_454 4_445
Ga3 O2 La 102.40(15) 2_465 4_445
O2 O2 La 100.8(4) 3_564 4_445
O2 O2 La 127.7(3) 4_454 4_445
O2 O2 La 73.7(3) 3_566 4_445
O2 O2 La 98.30(16) 4_456 4_445
O2 O2 La 28.2(2) 2_455 4_445
O2 O2 La 79.5(3) 2_565 4_445
Ga3 O2 La 64.76(13) 2_565 4_445
Ga2 O2 O3 126.6(6) 2_565 5_456
Ga3 O2 O3 103.0(5) . 5_456
La O2 O3 74.7(3) . 5_456
O3 O2 O3 55.6(3) 5_455 5_456
O2 O2 O3 112.39(16) 3_565 5_456
O2 O2 O3 88.6(4) 4_455 5_456
La O2 O3 41.2(2) 4_455 5_456
O3 O2 O3 69.4(4) 2_455 5_456
O1 O2 O3 51.1(3) . 5_456
O2 O2 O3 131.8(4) 6_554 5_456
O3 O2 O3 113.7(5) 4_454 5_456
O1 O2 O3 150.1(4) 1_554 5_456
O3 O2 O3 8.68(18) 4_455 5_456
Nb O2 O3 41.57(19) 1_455 5_456
Ga1 O2 O3 41.57(19) 1_455 5_456
O1 O2 O3 91.2(3) 2_455 5_456
Ga2 O2 O3 117.2(2) 1_554 5_456
O2 O2 O3 45.6(3) 6 5_456
O3 O2 O3 111.0(3) 6 5_456
La O2 O3 169.0(3) 1_554 5_456
Ga3 O2 O3 76.5(3) 2_464 5_456
La O2 O3 124.1(4) 4_454 5_456
Ga3 O2 O3 128.6(2) 2_564 5_456
O3 O2 O3 149.8(3) 1_554 5_456
La O2 O3 84.4(2) 2_565 5_456
Ga3 O2 O3 21.08(13) 1_556 5_456
Ga3 O2 O3 96.9(3) 4_455 5_456
O3 O2 O3 103.5(3) 3_454 5_456
Ga2 O2 O3 40.68(15) 2_566 5_456
O3 O2 O3 79.0(2) . 5_456
O2 O2 O3 133.9(3) 5_444 5_456
O2 O2 O3 99.8(4) 5_454 5_456
La O2 O3 68.59(17) 2_455 5_456
O2 O2 O3 88.8(5) 2_464 5_456
O3 O2 O3 41.5(2) 3_455 5_456
O1 O2 O3 61.3(3) 2_465 5_456
Nb O2 O3 112.7(3) 1_454 5_456
Ga1 O2 O3 112.7(3) 1_454 5_456
O3 O2 O3 62.4(2) 6_455 5_456
Ga2 O2 O3 81.8(3) 1_564 5_456
Ga3 O2 O3 81.7(2) 4_345 5_456
Ga3 O2 O3 125.8(2) 4_445 5_456
O2 O2 O3 152.95(17) 1_554 5_456
O2 O2 O3 27.05(17) 1_556 5_456
O3 O2 O3 116.1(3) 3_564 5_456
O2 O2 O3 74.3(3) 5_445 5_456
O2 O2 O3 43.2(3) 5_455 5_456
O3 O2 O3 90.6(3) 1_454 5_456
O2 O2 O3 29.09(18) 2_465 5_456
O2 O2 O3 115.7(2) 2_454 5_456
O2 O2 O3 132.1(3) 2_564 5_456
La O2 O3 140.6(3) 2_564 5_456
O3 O2 O3 92.6(2) 2_565 5_456
Ga2 O2 O3 57.55(15) . 5_456
O3 O2 O3 65.2(2) 3_565 5_456
O3 O2 O3 33.4(2) 1_455 5_456
Nb O2 O3 99.93(19) . 5_456
Ga1 O2 O3 99.93(19) . 5_456
O3 O2 O3 112.2(2) 5 5_456
O3 O2 O3 79.7(3) 6_565 5_456
O3 O2 O3 122.5(4) 5_454 5_456
O3 O2 O3 130.0(2) 2_454 5_456
La O2 O3 121.27(19) 2_454 5_456
O2 O2 O3 76.45(14) 4_345 5_456
O2 O2 O3 62.96(17) 3_465 5_456
O1 O2 O3 145.2(2) 2_454 5_456
Ga3 O2 O3 17.40(12) 2_465 5_456
O2 O2 O3 164.5(4) 3_564 5_456
O2 O2 O3 140.2(4) 4_454 5_456
O2 O2 O3 53.43(14) 3_566 5_456
O2 O2 O3 37.7(2) 4_456 5_456
O2 O2 O3 67.1(3) 2_455 5_456
O2 O2 O3 79.9(3) 2_565 5_456
Ga3 O2 O3 71.05(16) 2_565 5_456
La O2 O3 92.13(17) 4_445 5_456
Ga2 O2 O3 60.4(5) 2_565 6_554
Ga3 O2 O3 79.8(5) . 6_554
La O2 O3 92.0(5) . 6_554
O3 O2 O3 135.1(4) 5_455 6_554
O2 O2 O3 64.2(4) 3_565 6_554
O2 O2 O3 100.2(4) 4_455 6_554
La O2 O3 150.2(3) 4_455 6_554
O3 O2 O3 107.5(5) 2_455 6_554
O1 O2 O3 124.3(4) . 6_554
O2 O2 O3 44.6(2) 6_554 6_554
O3 O2 O3 76.7(4) 4_454 6_554
O1 O2 O3 42.2(3) 1_554 6_554
O3 O2 O3 165.4(4) 4_455 6_554
Nb O2 O3 139.5(3) 1_455 6_554
Ga1 O2 O3 139.5(3) 1_455 6_554
O1 O2 O3 76.2(4) 2_455 6_554
Ga2 O2 O3 52.2(2) 1_554 6_554
O2 O2 O3 120.7(4) 6 6_554
O3 O2 O3 56.2(2) 6 6_554
La O2 O3 12.90(13) 1_554 6_554
Ga3 O2 O3 114.3(3) 2_464 6_554
La O2 O3 69.7(2) 4_454 6_554
Ga3 O2 O3 45.52(19) 2_564 6_554
O3 O2 O3 21.1(2) 1_554 6_554
La O2 O3 95.0(3) 2_565 6_554
Ga3 O2 O3 145.2(3) 1_556 6_554
Ga3 O2 O3 94.0(2) 4_455 6_554
O3 O2 O3 79.0(3) 3_454 6_554
Ga2 O2 O3 132.2(3) 2_566 6_554
O3 O2 O3 89.9(4) . 6_554
O2 O2 O3 33.0(3) 5_444 6_554
O2 O2 O3 93.7(3) 5_454 6_554
La O2 O3 102.2(3) 2_455 6_554
O2 O2 O3 104.4(4) 2_464 6_554
O3 O2 O3 131.6(4) 3_455 6_554
O1 O2 O3 132.4(3) 2_465 6_554
Nb O2 O3 75.2(2) 1_454 6_554
Ga1 O2 O3 75.2(2) 1_454 6_554
O3 O2 O3 121.7(3) 6_455 6_554
Ga2 O2 O3 112.2(2) 1_564 6_554
Ga3 O2 O3 100.5(2) 4_345 6_554
Ga3 O2 O3 40.46(17) 4_445 6_554
O2 O2 O3 39.09(16) 1_554 6_554
O2 O2 O3 140.91(16) 1_556 6_554
O3 O2 O3 73.9(2) 3_564 6_554
O2 O2 O3 91.7(3) 5_445 6_554
O2 O2 O3 145.3(3) 5_455 6_554
O3 O2 O3 98.0(2) 1_454 6_554
O2 O2 O3 164.8(3) 2_465 6_554
O2 O2 O3 56.1(3) 2_454 6_554
O2 O2 O3 48.0(3) 2_564 6_554
La O2 O3 47.85(19) 2_564 6_554
O3 O2 O3 92.8(2) 2_565 6_554
Ga2 O2 O3 108.6(3) . 6_554
O3 O2 O3 117.9(3) 3_565 6_554
O3 O2 O3 150.4(3) 1_455 6_554
Nb O2 O3 68.8(2) . 6_554
Ga1 O2 O3 68.8(2) . 6_554
O3 O2 O3 60.0(2) 5 6_554
O3 O2 O3 110.7(3) 6_565 6_554
O3 O2 O3 69.0(3) 5_454 6_554
O3 O2 O3 55.7(2) 2_454 6_554
La O2 O3 57.32(17) 2_454 6_554
O2 O2 O3 101.1(2) 4_345 6_554
O2 O2 O3 128.05(15) 3_465 6_554
O1 O2 O3 31.03(13) 2_454 6_554
Ga3 O2 O3 168.7(2) 2_465 6_554
O2 O2 O3 27.1(3) 3_564 6_554
O2 O2 O3 53.5(2) 4_454 6_554
O2 O2 O3 118.0(3) 3_566 6_554
O2 O2 O3 139.9(4) 4_456 6_554
O2 O2 O3 100.2(4) 2_455 6_554
O2 O2 O3 94.4(4) 2_565 6_554
Ga3 O2 O3 99.7(3) 2_565 6_554
La O2 O3 74.2(2) 4_445 6_554
O3 O2 O3 166.0(3) 5_456 6_554
Ga2 O2 O3 144.9(5) 2_565 2_456
Ga3 O2 O3 94.4(4) . 2_456
La O2 O3 58.0(3) . 2_456
O3 O2 O3 69.2(3) 5_455 2_456
O2 O2 O3 114.6(2) 3_565 2_456
O2 O2 O3 112.0(3) 4_455 2_456
La O2 O3 66.7(2) 4_455 2_456
O3 O2 O3 55.4(3) 2_455 2_456
O1 O2 O3 60.9(3) . 2_456
O2 O2 O3 111.0(4) 6_554 2_456
O3 O2 O3 119.3(4) 4_454 2_456
O1 O2 O3 175.2(4) 1_554 2_456
O3 O2 O3 24.7(3) 4_455 2_456
Nb O2 O3 41.37(16) 1_455 2_456
Ga1 O2 O3 41.37(16) 1_455 2_456
O1 O2 O3 65.6(3) 2_455 2_456
Ga2 O2 O3 91.9(2) 1_554 2_456
O2 O2 O3 21.75(17) 6 2_456
O3 O2 O3 93.7(3) 6 2_456
La O2 O3 144.7(3) 1_554 2_456
Ga3 O2 O3 87.6(2) 2_464 2_456
La O2 O3 143.1(4) 4_454 2_456
Ga3 O2 O3 123.2(2) 2_564 2_456
O3 O2 O3 133.9(3) 1_554 2_456
La O2 O3 95.8(3) 2_565 2_456
Ga3 O2 O3 6.92(14) 1_556 2_456
Ga3 O2 O3 121.9(3) 4_455 2_456
O3 O2 O3 94.2(3) 3_454 2_456
Ga2 O2 O3 48.19(19) 2_566 2_456
O3 O2 O3 69.58(19) . 2_456
O2 O2 O3 108.6(3) 5_444 2_456
O2 O2 O3 124.6(4) 5_454 2_456
La O2 O3 45.60(15) 2_455 2_456
O2 O2 O3 106.2(4) 2_464 2_456
O3 O2 O3 26.2(3) 3_455 2_456
O1 O2 O3 85.8(3) 2_465 2_456
Nb O2 O3 112.5(2) 1_454 2_456
Ga1 O2 O3 112.5(2) 1_454 2_456
O3 O2 O3 62.25(17) 6_455 2_456
Ga2 O2 O3 104.9(3) 1_564 2_456
Ga3 O2 O3 74.89(19) 4_345 2_456
Ga3 O2 O3 104.2(2) 4_445 2_456
O2 O2 O3 152.68(17) 1_554 2_456
O2 O2 O3 27.32(17) 1_556 2_456
O3 O2 O3 140.0(3) 3_564 2_456
O2 O2 O3 53.4(2) 5_445 2_456
O2 O2 O3 67.8(4) 5_455 2_456
O3 O2 O3 95.0(3) 1_454 2_456
O2 O2 O3 52.6(2) 2_465 2_456
O2 O2 O3 91.9(2) 2_454 2_456
O2 O2 O3 136.4(3) 2_564 2_456
La O2 O3 158.6(3) 2_564 2_456
O3 O2 O3 112.0(3) 2_565 2_456
Ga2 O2 O3 34.26(11) . 2_456
O3 O2 O3 83.8(3) 3_565 2_456
O3 O2 O3 40.6(2) 1_455 2_456
Nb O2 O3 87.80(17) . 2_456
Ga1 O2 O3 87.80(17) . 2_456
O3 O2 O3 106.2(3) 5 2_456
O3 O2 O3 104.5(3) 6_565 2_456
O3 O2 O3 130.0(2) 5_454 2_456
O3 O2 O3 121.9(3) 2_454 2_456
La O2 O3 104.0(2) 2_454 2_456
O2 O2 O3 62.69(17) 4_345 2_456
O2 O2 O3 76.33(12) 3_465 2_456
O1 O2 O3 122.9(2) 2_454 2_456
Ga3 O2 O3 35.52(12) 2_465 2_456
O2 O2 O3 168.3(4) 3_564 2_456
O2 O2 O3 163.6(4) 4_454 2_456
O2 O2 O3 54.77(18) 3_566 2_456
O2 O2 O3 53.4(2) 4_456 2_456
O2 O2 O3 41.5(2) 2_455 2_456
O2 O2 O3 82.8(3) 2_565 2_456
Ga3 O2 O3 67.77(17) 2_565 2_456
La O2 O3 67.54(14) 4_445 2_456
O3 O2 O3 25.58(17) 5_456 2_456
O3 O2 O3 141.6(3) 6_554 2_456
Ga2 O2 O2 95.9(7) 2_565 4_445
Ga3 O2 O2 94.2(4) . 4_445
La O2 O2 41.5(4) . 4_445
O3 O2 O2 145.7(3) 5_455 4_445
O2 O2 O2 66.7(8) 3_565 4_445
O2 O2 O2 126.7(8) 4_455 4_445
La O2 O2 144.4(3) 4_455 4_445
O3 O2 O2 88.5(3) 2_455 4_445
O1 O2 O2 93.7(4) . 4_445
O2 O2 O2 59.6(3) 6_554 4_445
O3 O2 O2 117.4(4) 4_454 4_445
O1 O2 O2 93.5(4) 1_554 4_445
O3 O2 O2 113.9(3) 4_455 4_445
Nb O2 O2 114.5(2) 1_455 4_445
Ga1 O2 O2 114.5(2) 1_455 4_445
O1 O2 O2 31.95(11) 2_455 4_445
Ga2 O2 O2 34.18(8) 1_554 4_445
O2 O2 O2 67.6(3) 6 4_445
O3 O2 O2 21.1(3) 6 4_445
La O2 O2 62.8(2) 1_554 4_445
Ga3 O2 O2 142.4(2) 2_464 4_445
La O2 O2 123.2(3) 4_454 4_445
Ga3 O2 O2 53.1(3) 2_564 4_445
O3 O2 O2 46.4(3) 1_554 4_445
La O2 O2 90.8(4) 2_565 4_445
Ga3 O2 O2 91.77(17) 1_556 4_445
Ga3 O2 O2 132.0(4) 4_455 4_445
O3 O2 O2 92.6(2) 3_454 4_445
Ga2 O2 O2 92.4(3) 2_566 4_445
O3 O2 O2 49.8(3) . 4_445
O2 O2 O2 26.2(3) 5_444 4_445
O2 O2 O2 144.7(4) 5_454 4_445
La O2 O2 65.77(11) 2_455 4_445
O2 O2 O2 152.1(3) 2_464 4_445
O3 O2 O2 92.4(2) 3_455 4_445
O1 O2 O2 169.5(2) 2_465 4_445
Nb O2 O2 108.18(16) 1_454 4_445
Ga1 O2 O2 108.18(16) 1_454 4_445
O3 O2 O2 117.6(3) 6_455 4_445
Ga2 O2 O2 165.8(2) 1_564 4_445
Ga3 O2 O2 102.28(17) 4_345 4_445
Ga3 O2 O2 15.46(14) 4_445 4_445
O2 O2 O2 90.0 1_554 4_445
O2 O2 O2 90.0 1_556 4_445
O3 O2 O2 114.3(4) 3_564 4_445
O2 O2 O2 38.2(2) 5_445 4_445
O2 O2 O2 135.7(3) 5_455 4_445
O3 O2 O2 124.5(2) 1_454 4_445
O2 O2 O2 141.31(19) 2_465 4_445
O2 O2 O2 46.40(17) 2_454 4_445
O2 O2 O2 71.2(5) 2_564 4_445
La O2 O2 90.6(3) 2_564 4_445
O3 O2 O2 110.2(4) 2_565 4_445
Ga2 O2 O2 55.20(14) . 4_445
O3 O2 O2 113.2(4) 3_565 4_445
O3 O2 O2 122.7(2) 1_455 4_445
Nb O2 O2 35.9(3) . 4_445
Ga1 O2 O2 35.9(3) . 4_445
O3 O2 O2 49.2(3) 5 4_445
O3 O2 O2 139.0(4) 6_565 4_445
O3 O2 O2 115.0(2) 5_454 4_445
O3 O2 O2 89.21(16) 2_454 4_445
La O2 O2 70.25(9) 2_454 4_445
O2 O2 O2 87.4(2) 4_345 4_445
O2 O2 O2 147.4(2) 3_465 4_445
O1 O2 O2 57.19(12) 2_454 4_445
Ga3 O2 O2 124.75(11) 2_465 4_445
O2 O2 O2 79.0(4) 3_564 4_445
O2 O2 O2 106.8(3) 4_454 4_445
O2 O2 O2 79.0(4) 3_566 4_445
O2 O2 O2 106.8(3) 4_456 4_445
O2 O2 O2 51.5(2) 2_455 4_445
O2 O2 O2 73.1(5) 2_565 4_445
Ga3 O2 O2 64.2(3) 2_565 4_445
La O2 O2 23.27(8) 4_445 4_445
O3 O2 O2 112.26(15) 5_456 4_445
O3 O2 O2 53.8(2) 6_554 4_445
O3 O2 O2 89.29(14) 2_456 4_445
Ga2 O2 O2 144.4(6) 2_565 3_455
Ga3 O2 O2 45.7(3) . 3_455
La O2 O2 74.5(3) . 3_455
O3 O2 O2 86.5(3) 5_455 3_455
O2 O2 O2 126.7(8) 3_565 3_455
O2 O2 O2 173.3(8) 4_455 3_455
La O2 O2 124.5(3) 4_455 3_455
O3 O2 O2 29.3(3) 2_455 3_455
O1 O2 O2 120.6(3) . 3_455
O2 O2 O2 44.8(4) 6_554 3_455
O3 O2 O2 81.4(3) 4_454 3_455
O1 O2 O2 118.6(3) 1_554 3_455
O3 O2 O2 82.4(3) 4_455 3_455
Nb O2 O2 61.1(2) 1_455 3_455
Ga1 O2 O2 61.1(2) 1_455 3_455
O1 O2 O2 31.95(11) 2_455 3_455
Ga2 O2 O2 34.18(7) 1_554 3_455
O2 O2 O2 57.7(4) 6 3_455
O3 O2 O2 80.5(3) 6 3_455
La O2 O2 80.63(16) 1_554 3_455
Ga3 O2 O2 84.7(3) 2_464 3_455
La O2 O2 112.43(19) 4_454 3_455
Ga3 O2 O2 111.4(3) 2_564 3_455
O3 O2 O2 94.2(3) 1_554 3_455
La O2 O2 144.3(3) 2_565 3_455
Ga3 O2 O2 72.99(17) 1_556 3_455
Ga3 O2 O2 161.8(3) 4_455 3_455
O3 O2 O2 44.3(2) 3_454 3_455
Ga2 O2 O2 109.15(13) 2_566 3_455
O3 O2 O2 93.9(3) . 3_455
O2 O2 O2 57.09(13) 5_444 3_455
O2 O2 O2 138.1(4) 5_454 3_455
La O2 O2 20.64(17) 2_455 3_455
O2 O2 O2 104.71(17) 2_464 3_455
O3 O2 O2 47.7(2) 3_455 3_455
O1 O2 O2 125.6(3) 2_465 3_455
Nb O2 O2 68.64(17) 1_454 3_455
Ga1 O2 O2 68.64(17) 1_454 3_455
O3 O2 O2 57.7(3) 6_455 3_455
Ga2 O2 O2 125.0(3) 1_564 3_455
Ga3 O2 O2 43.75(17) 4_345 3_455
Ga3 O2 O2 71.06(18) 4_445 3_455
O2 O2 O2 90.000(1) 1_554 3_455
O2 O2 O2 90.0 1_556 3_455
O3 O2 O2 153.4(2) 3_564 3_455
O2 O2 O2 61.57(12) 5_445 3_455
O2 O2 O2 130.7(4) 5_455 3_455
O3 O2 O2 71.6(2) 1_454 3_455
O2 O2 O2 102.95(15) 2_465 3_455
O2 O2 O2 27.8(2) 2_454 3_455
O2 O2 O2 126.4(5) 2_564 3_455
La O2 O2 131.0(2) 2_564 3_455
O3 O2 O2 169.5(3) 2_565 3_455
Ga2 O2 O2 55.20(14) . 3_455
O3 O2 O2 148.67(15) 3_565 3_455
O3 O2 O2 72.4(2) 1_455 3_455
Nb O2 O2 92.0(2) . 3_455
Ga1 O2 O2 92.0(2) . 3_455
O3 O2 O2 109.0(3) 5 3_455
O3 O2 O2 160.5(4) 6_565 3_455
O3 O2 O2 88.19(17) 5_454 3_455
O3 O2 O2 63.30(17) 2_454 3_455
La O2 O2 39.61(11) 2_454 3_455
O2 O2 O2 27.4(2) 4_345 3_455
O2 O2 O2 87.4(2) 3_465 3_455
O1 O2 O2 57.19(12) 2_454 3_455
Ga3 O2 O2 86.17(19) 2_465 3_455
O2 O2 O2 106.8(3) 3_564 3_455
O2 O2 O2 118.67(16) 4_454 3_455
O2 O2 O2 106.8(3) 3_566 3_455
O2 O2 O2 118.67(16) 4_456 3_455
O2 O2 O2 36.96(18) 2_455 3_455
O2 O2 O2 122.4(3) 2_565 3_455
Ga3 O2 O2 105.33(19) 2_565 3_455
La O2 O2 44.62(12) 4_445 3_455
O3 O2 O2 88.38(15) 5_456 3_455
O3 O2 O2 83.97(18) 6_554 3_455
O3 O2 O2 66.20(18) 2_456 3_455
O2 O2 O2 60.000(1) 4_445 3_455
loop_
_geom_bond_atom_site_label_1
_geom_bond_atom_site_label_2
_geom_bond_distance
_geom_bond_site_symmetry_2
La O3 2.375(10) 6
La O3 2.375(10) .
La O2 2.398(12) 6
La O2 2.398(12) .
La O1 2.516(5) 2_455
La O1 2.516(5) .
La O2 2.827(17) 5_445
La O2 2.827(17) 3_565
La Ga2 3.3733(14) .
La Ga2 3.3733(14) 2_565
La Nb 3.4604(9) .
La Ga1 3.4604(9) .
Ga1 O3 1.964(10) 4
Ga1 O3 1.964(10) .
Ga1 O3 1.964(10) 3
Ga1 O3 1.964(10) 2
Ga1 O3 1.964(10) 5
Ga1 O3 1.964(10) 6
Ga1 La 3.4604(9) 2
Ga1 La 3.4604(9) 4
Ga1 O2 3.557(13) 1_655
Ga1 O2 3.557(13) 4_445
Ga1 O2 3.557(13) 2_565
Ga2 O1 1.784(16) 2_456
Ga2 O2 1.812(10) 6
Ga2 O2 1.812(10) 2_455
Ga2 O2 1.812(10) 5_445
Ga2 O1 3.254(16) 2_455
Ga2 La 3.3732(14) 4_445
Ga2 La 3.3732(14) 2_455
Ga2 O3 3.425(9) 6_556
Ga2 O3 3.425(9) 5_446
Ga2 O3 3.425(9) 2_456
Ga2 La 3.5425(15) 4_446
Ga3 O3 1.812(10) 2_455
Ga3 O3 1.812(10) 4_454
Ga3 O2 1.830(10) .
Ga3 O2 1.830(10) 6_554
Ga3 O3 2.527(14) 3_454
Ga3 O3 2.527(14) 5_455
Ga3 Nb 3.1280(10) 1_454
Ga3 Nb 3.1280(10) 1_455
Ga3 O1 3.561(7) 1_554
Ga3 O1 3.561(7) 2_455
Ga3 O3 3.609(10) 6_455
Ga3 O3 3.609(10) 1_454
Nb O3 1.964(10) 4
Nb O3 1.964(10) .
Nb O3 1.964(10) 3
Nb O3 1.964(10) 2
Nb O3 1.964(10) 5
Nb O3 1.964(10) 6
Nb Ga3 3.1280(10) 4_445
Nb Ga3 3.1280(10) 4_446
Nb Ga3 3.1280(10) 2_565
Nb Ga3 3.1280(10) 2_564
Nb Ga3 3.1280(10) 1_656
Nb Ga3 3.1280(10) 1_655
O1 Ga2 1.784(16) 2_566
O1 La 2.516(5) 2_565
O1 La 2.516(5) 4_455
O1 O2 2.896(17) 3_565
O1 O2 2.896(18) .
O1 O2 2.896(17) 4_455
O1 O2 3.077(17) 3_566
O1 O2 3.077(17) 1_556
O1 O2 3.077(17) 4_456
O1 O3 3.133(10) .
O1 O3 3.133(10) 3_565
O1 O3 3.133(10) 4_455
O1 Ga2 3.254(16) 2_565
O1 Ga3 3.561(7) 1_556
O1 Ga3 3.561(7) 2_565
O1 Ga3 3.561(7) 4_456
O1 O2 3.544(14) 6
O1 O2 3.544(14) 5_455
O1 O2 3.544(14) 2_565
O1 O3 4.287(13) 6
O1 O3 4.287(13) 2_565
O1 O3 4.287(13) 5_455
O1 Ga3 4.611(11) 2_564
O1 Ga3 4.611(11) 4_455
O1 Ga1 4.691(3) 1_455
O1 Nb 4.691(3) 1_455
O1 Ga1 4.691(3) 1_565
O1 Nb 4.691(3) 1_565
O1 O2 4.746(17) 2_465
O1 O2 4.746(17) 5_445
O1 O2 4.746(17) 6_665
O1 O3 4.799(18) 6_556
O1 O3 4.799(18) 2_566
O1 O3 4.799(18) 5_456
O1 La 4.809(13) 1_556
O1 La 4.809(13) 2_566
O1 La 4.809(13) 4_456
O1 O3 4.844(17) 5
O1 O3 4.844(17) 2_455
O1 O3 4.844(17) 6_565
O1 Ga2 4.867(5) 1_665
O1 Ga2 4.867(5) 1_565
O1 O1 4.917(11) 2_565
O1 O1 4.917(11) 2_455
O1 O1 4.917(11) 2_465
O1 O1 5.0374 1_556
O1 O1 5.0374 1_554
O1 Ga3 5.244(5) 2_465
O1 Ga3 5.244(5) 4_446
O1 Ga3 5.244(5) 1_666
O1 O3 5.302(14) 5_556
O1 O3 5.302(14) 2_456
O1 O3 5.302(14) 6_566
O1 O3 5.317(12) 4
O1 O3 5.317(12) 3_455
O1 O3 5.317(12) 1_565
O1 O2 5.55(2) 6_554
O1 O2 5.55(2) 5_454
O1 O2 5.55(2) 2_564
O1 O3 5.623(15) 1_554
O1 O3 5.623(15) 4_454
O1 O3 5.623(15) 3_564
O1 O1 5.693(18) 2_566
O1 O1 5.693(18) 2_456
O1 O1 5.693(18) 2_466
O1 O3 5.775(11) 3
O1 O3 5.775(11) 4_565
O1 O3 5.775(11) 1_455
O1 La 5.829(2) 4
O1 La 5.829(2) 2_455
O1 La 5.829(2) 1_565
O1 O2 6.164(10) 6_565
O1 O2 6.164(10) 5
O1 O2 6.164(10) 2_455
O1 O3 6.226(17) 1_556
O3 Ga3 1.812(10) 2_565
O3 Ga3 2.527(14) 4_446
O3 O3 2.60(2) 6
O3 O3 2.684(16) 4
O3 O3 2.684(16) 3
O3 O2 2.78(2) 5_445
O3 O3 2.80(3) 6_556
O3 O2 2.807(16) 2_565
O3 O2 2.943(14) 3_566
O3 O3 3.18(3) 5
O3 O2 3.341(19) 3_565
O3 O3 3.34(2) 5_556
O3 Ga2 3.425(9) 2_566
O3 Ga3 3.609(10) 1_656
O3 La 3.731(14) 2_565
O3 O2 3.821(19) 6
O3 O3 3.875(19) 2
O3 Ga3 3.929(13) 2_564
O3 O3 4.01(2) 2_556
O3 Ga1 4.133(12) 1_556
O3 Nb 4.133(12) 1_556
O3 O2 4.201(19) 1_556
O3 La 4.246(13) 4
O3 O1 4.287(13) 2_455
O3 Ga3 4.305(10) 4_445
O3 La 4.343(12) 1_556
O3 O2 4.355(18) 4_446
O3 O2 4.488(16) .
O3 Ga2 4.545(12) 1_665
O3 La 4.637(12) 4_445
O3 O2 4.633(16) 4_445
O3 Ga2 4.766(12) 2_565
O3 O2 4.759(17) 6_655
O3 O1 4.799(18) 2_456
O3 Ga3 4.869(11) 1_556
O3 O1 4.844(17) 2_565
O3 La 4.880(10) 2
O3 Ga3 5.018(11) 1_655
O3 O3 5.0374 1_554
O3 O3 5.0374 1_556
O3 O2 5.095(14) 4_456
O3 O2 5.069(16) 1_656
O3 La 5.210(10) 2_566
O3 O2 5.314(17) 2_455
O3 O2 5.335(18) 4_455
O3 O1 5.302(14) 2_566
O3 O2 5.309(18) 1_655
O3 O1 5.317(12) 1_545
O3 O2 5.32(2) 5
O3 O3 5.392(17) 3_565
O3 O3 5.392(17) 4_455
O3 Ga2 5.376(10) 1_554
O3 O2 5.445(18) 6_665
O3 O2 5.432(15) 5_444
O3 O2 5.449(18) 2_564
O3 Ga2 5.494(13) 2_556
O3 La 5.541(10) 4_455
O3 La 5.590(10) 4_556
O3 O1 5.623(15) 1_556
O3 O3 5.708(7) 4_554
O3 O3 5.708(7) 3_554
O3 O3 5.708(7) 4_556
O3 O3 5.708(7) 3_556
O3 O1 5.775(11) 1_655
O3 La 5.892(15) 4_446
O3 O2 6.05(2) 5_446
O3 La 6.041(11) 2_455
O3 O3 6.074(16) 2_455
O3 O3 6.074(16) 2_565
O3 O2 6.034(18) 6_554
O3 O2 6.068(15) 2_566
O3 La 6.086(12) 2_556
O3 O3 6.161(15) 2_456
O3 O3 6.161(15) 2_566
O3 La 6.141(10) 1_655
O2 Ga2 1.812(10) 2_565
O2 O3 2.78(2) 5_455
O2 O2 2.779(17) 3_565
O2 O2 2.779(17) 4_455
O2 La 2.827(17) 4_455
O2 O3 2.807(16) 2_455
O2 O2 2.81(3) 6_554
O2 O3 2.943(14) 4_454
O2 O1 3.077(17) 1_554
O2 O3 3.341(19) 4_455
O2 Nb 3.557(13) 1_455
O2 Ga1 3.557(13) 1_455
O2 O1 3.544(14) 2_455
O2 Ga2 3.635(16) 1_554
O2 O2 3.74(2) 6
O2 O3 3.821(19) 6
O2 La 3.925(15) 1_554
O2 Ga3 4.110(14) 2_464
O2 La 4.201(10) 4_454
O2 Ga3 4.189(14) 2_564
O2 O3 4.200(19) 1_554
O2 La 4.255(10) 2_565
O2 Ga3 4.367(12) 1_556
O2 Ga3 4.392(12) 4_455
O2 O3 4.355(18) 3_454
O2 Ga2 4.491(12) 2_566
O2 O2 4.479(11) 5_444
O2 O2 4.479(11) 5_454
O2 La 4.507(10) 2_455
O2 O2 4.63(3) 2_464
O2 O3 4.633(16) 3_455
O2 O1 4.746(17) 2_465
O2 Nb 4.723(10) 1_454
O2 Ga1 4.723(10) 1_454
O2 O3 4.759(17) 6_455
O2 Ga2 4.814(15) 1_564
O2 Ga3 4.847(11) 4_345
O2 Ga3 4.914(17) 4_445
O2 O2 5.0374 1_554
O2 O2 5.0374 1_556
O2 O3 5.095(14) 3_564
O2 O2 5.111(14) 5_445
O2 O2 5.111(14) 5_455
O2 O3 5.069(16) 1_454
O2 O2 5.24(3) 2_465
O2 O2 5.19(2) 2_454
O2 O2 5.19(2) 2_564
O2 La 5.269(11) 2_564
O2 O3 5.314(17) 2_565
O2 O3 5.335(18) 3_565
O2 O3 5.310(18) 1_455
O2 O3 5.32(2) 5
O2 O3 5.445(18) 6_565
O2 O3 5.432(15) 5_454
O2 O3 5.449(18) 2_454
O2 La 5.474(13) 2_454
O2 O2 5.54(2) 4_345
O2 O2 5.54(2) 3_465
O2 O1 5.55(2) 2_454
O2 Ga3 5.710(16) 2_465
O2 O2 5.753(8) 3_564
O2 O2 5.753(8) 4_454
O2 O2 5.753(8) 3_566
O2 O2 5.753(8) 4_456
O2 O2 5.746(16) 2_455
O2 O2 5.746(16) 2_565
O2 Ga3 5.768(11) 2_565
O2 La 5.850(14) 4_445
O2 O3 6.05(2) 5_456
O2 O3 6.034(18) 6_554
O2 O3 6.068(15) 2_456
O2 O2 6.01(3) 4_445
O2 O2 6.01(3) 3_455
