#------------------------------------------------------------------------------
#$Date: 2019-05-21 14:26:13 +0300 (Tue, 21 May 2019) $
#$Revision: 215354 $
#$URL: file:///home/coder/svn-repositories/cod/cif/2/10/35/2103510.cif $
#------------------------------------------------------------------------------
#
# This file is available in the Crystallography Open Database (COD),
# http://www.crystallography.net/. The original data for this entry
# were provided by IUCr Journals, http://journals.iucr.org/.
#
# The file may be used within the scientific community so long as
# proper attribution is given to the journal article from which the
# data were obtained.
#
data_2103510
loop_
_publ_author_name
'Pavlovska, A.'
'Werner, S.'
'Maximov, B.'
'Mill, B.'
_publ_section_title
;
 Pressure-induced phase transitions of piezoelectric single crystals
 from the langasite family: La~3~Nb~0.5~Ga~5.5~O~14~ and
 La~3~Ta~0.5~Ga~5.5~O~14~
;
_journal_issue                   6
_journal_name_full               'Acta Crystallographica Section B'
_journal_page_first              939
_journal_page_last               947
_journal_paper_doi               10.1107/S0108768102010273
_journal_volume                  58
_journal_year                    2002
_chemical_formula_sum            'Ga5.5 La3 Nb0.5 O14'
_chemical_formula_weight         1070.65
_space_group_IT_number           150
_symmetry_space_group_name_Hall  'P 3 2"'
_symmetry_space_group_name_H-M   'P 3 2 1'
_atom_sites_solution_hydrogens   geom
_atom_sites_solution_primary     direct
_atom_sites_solution_secondary   difmap
_audit_creation_method           SHELXL-97
_cell_angle_alpha                90.00
_cell_angle_beta                 90.00
_cell_angle_gamma                120.00
_cell_formula_units_Z            1
_cell_length_a                   7.953
_cell_length_b                   7.953
_cell_length_c                   5.023
_cell_measurement_temperature    293(2)
_cell_volume                     275.1
_computing_structure_refinement  'SHELXL-97 (Sheldrick, 1997)'
_computing_structure_solution    'SHELXS-97 (Sheldrick, 1990)'
_diffrn_ambient_pressure         13.1E+6
_diffrn_ambient_temperature      293(2)
_diffrn_measured_fraction_theta_full 0.900
_diffrn_measured_fraction_theta_max 0.900
_diffrn_radiation_source         synchrotron
_diffrn_radiation_wavelength     0.56000
_diffrn_reflns_av_R_equivalents  0.0000
_diffrn_reflns_av_sigmaI/netI    0.0609
_diffrn_reflns_limit_h_max       9
_diffrn_reflns_limit_h_min       -9
_diffrn_reflns_limit_k_max       5
_diffrn_reflns_limit_k_min       -5
_diffrn_reflns_limit_l_max       6
_diffrn_reflns_limit_l_min       -6
_diffrn_reflns_number            473
_diffrn_reflns_theta_full        22.94
_diffrn_reflns_theta_max         22.94
_diffrn_reflns_theta_min         3.20
_exptl_absorpt_coefficient_mu    14.672
_exptl_crystal_density_diffrn    6.462
_exptl_crystal_density_method    'not measured'
_exptl_crystal_F_000             474
_refine_diff_density_max         2.228
_refine_diff_density_min         -1.747
_refine_diff_density_rms         0.457
_refine_ls_abs_structure_details 'Flack H D (1983), Acta Cryst. A39, 876-881'
_refine_ls_abs_structure_Flack   0.00(11)
_refine_ls_extinction_coef       0.019(7)
_refine_ls_extinction_expression Fc^*^=kFc[1+0.001xFc^2^\l^3^/sin(2\q)]^-1/4^
_refine_ls_extinction_method     SHELXL
_refine_ls_goodness_of_fit_ref   1.077
_refine_ls_hydrogen_treatment    mixed
_refine_ls_matrix_type           full
_refine_ls_number_parameters     39
_refine_ls_number_reflns         473
_refine_ls_number_restraints     0
_refine_ls_restrained_S_all      1.077
_refine_ls_R_factor_all          0.0453
_refine_ls_R_factor_gt           0.0446
_refine_ls_shift/su_max          0.019
_refine_ls_shift/su_mean         0.003
_refine_ls_structure_factor_coef Fsqd
_refine_ls_weighting_details
'calc w=1/[\s^2^(Fo^2^)+(0.1000P)^2^+0.0000P] where P=(Fo^2^+2Fc^2^)/3'
_refine_ls_weighting_scheme      calc
_refine_ls_wR_factor_gt          0.1303
_refine_ls_wR_factor_ref         0.1308
_reflns_number_gt                469
_reflns_number_total             473
_reflns_threshold_expression     >2sigma(I)
_cod_data_source_file            sn0021-13.1d3.cif
_cod_data_source_block           13.1d3
_cod_depositor_comments
;
 Correcting the reference to the optimal entry by changing it from
 '2103510' to '2103511'. The reference now correctly refers to the
 entry with the lowest _refine_ls_R_factor_all value.

 Antanas Vaitkus,
 2018-11-16

The _diffrn_ambient_pressure was taken from the original data block
header, after comparison with the paper text and supplementary
material.

When more than one structure was present in the sn0021.cif file for a
given pressure, the structure with the minimal _refine_ls_R_factor_all
value was taken as the best one, and all others marked with the
'_cod_suboptimal_structure yes' tag.

Changing (with the help of Perl) all _diffrn_radiation_source values in
the files that were reportedly colected on the HASYLAB D3 beamline
(Hamburg) from 'fine-focus sealed tube' to synchrotron.

The command was:

perl -i -ne \
    "s/'fine-focus sealed tube'/synchrotron/; \
    print unless /_diffrn_radiation_type|_diffrn_radiation_monochromator/" \
    *d3*.cif \
    11.57split.cif \
    21.85split.cif \
    22.85split.cif

Saulius Gra\<zulis

 Removed the _cod_suboptimal_structure data item in preparation for
 its deprecation. The fact that the structure is a suboptimal one
 should be derived from the presence of the _cod_related_optimal_struct
 data item.

 Antanas Vaitkus,
 2019-05-21
;
_cod_original_formula_sum        'Ga5.50 La3 Nb0.50 O14'
_cod_related_optimal_struct      2103511
_cod_database_code               2103510
loop_
_symmetry_equiv_pos_as_xyz
'x, y, z'
'y, x, -z'
'-y, x-y, z'
'-x+y, -x, z'
'-x, -x+y, -z'
'x-y, -y, -z'
loop_
_atom_site_label
_atom_site_type_symbol
_atom_site_fract_x
_atom_site_fract_y
_atom_site_fract_z
_atom_site_U_iso_or_equiv
_atom_site_adp_type
_atom_site_occupancy
_atom_site_symmetry_multiplicity
_atom_site_calc_flag
_atom_site_refinement_flags
La La -0.43418(15) 0.0000 0.0000 0.0193(4) Uani 1 2 d S
Ga1 Ga 0.0000 0.0000 0.0000 0.0225(7) Uani 0.50 6 d SP
Ga2 Ga -0.6667 -0.3333 0.4810(6) 0.0178(6) Uani 1 3 d S
Ga3 Ga -0.7666(3) 0.0000 -0.5000 0.0179(5) Uani 1 2 d S
Nb Nb 0.0000 0.0000 0.0000 0.0225(7) Uani 0.50 6 d SP
O1 O -0.3333 0.3333 0.168(4) 0.014(3) Uani 1 3 d S
O2 O -0.447(2) -0.295(3) 0.302(3) 0.055(5) Uani 1 1 d .
O3 O -0.2200(18) -0.069(2) -0.239(3) 0.043(4) Uani 1 1 d .
loop_
_atom_site_aniso_label
_atom_site_aniso_U_11
_atom_site_aniso_U_22
_atom_site_aniso_U_33
_atom_site_aniso_U_23
_atom_site_aniso_U_13
_atom_site_aniso_U_12
La 0.0227(5) 0.0110(5) 0.0202(6) -0.0019(4) -0.0010(2) 0.0055(3)
Ga1 0.0266(10) 0.0266(10) 0.0142(15) 0.000 0.000 0.0133(5)
Ga2 0.0180(8) 0.0180(8) 0.0174(12) 0.000 0.000 0.0090(4)
Ga3 0.0168(7) 0.0205(10) 0.0177(9) 0.0066(8) 0.0033(4) 0.0103(5)
Nb 0.0266(10) 0.0266(10) 0.0142(15) 0.000 0.000 0.0133(5)
O1 0.013(4) 0.013(4) 0.015(7) 0.000 0.000 0.0066(19)
O2 0.045(9) 0.088(13) 0.040(8) -0.038(9) -0.015(7) 0.039(8)
O3 0.027(6) 0.074(12) 0.035(8) -0.034(7) -0.012(5) 0.030(6)
loop_
_atom_type_symbol
_atom_type_description
_atom_type_scat_dispersion_real
_atom_type_scat_dispersion_imag
_atom_type_scat_source
La La -0.9400 1.6100 'International Tables Vol C Tables 4.2.6.8 and 6.1.1.4'
Nb Nb -0.9600 2.8600 'International Tables Vol C Tables 4.2.6.8 and 6.1.1.4'
Ga Ga 0.2400 1.0600 'International Tables Vol C Tables 4.2.6.8 and 6.1.1.4'
O O 0.0000 0.0000 'International Tables Vol C Tables 4.2.6.8 and 6.1.1.4'
loop_
_geom_angle_atom_site_label_1
_geom_angle_atom_site_label_2
_geom_angle_atom_site_label_3
_geom_angle
_geom_angle_site_symmetry_1
_geom_angle_site_symmetry_3
O3 La O3 66.2(6) . 6
O3 La O2 140.5(6) . 3_455
O3 La O2 107.9(6) 6 3_455
O3 La O2 107.9(6) . 5_455
O3 La O2 140.5(6) 6 5_455
O2 La O2 99.8(8) 3_455 5_455
O3 La O1 122.2(4) . .
O3 La O1 79.5(4) 6 .
O2 La O1 92.9(5) 3_455 .
O2 La O1 71.3(5) 5_455 .
O3 La O1 79.5(4) . 2_455
O3 La O1 122.2(4) 6 2_455
O2 La O1 71.3(5) 3_455 2_455
O2 La O1 92.9(5) 5_455 2_455
O1 La O1 155.84(8) . 2_455
O3 La O2 78.6(5) . .
O3 La O2 62.8(6) 6 .
O2 La O2 65.5(7) 3_455 .
O2 La O2 156.6(3) 5_455 .
O1 La O2 125.0(5) . .
O1 La O2 65.8(5) 2_455 .
O3 La O2 62.8(6) . 6
O3 La O2 78.6(5) 6 6
O2 La O2 156.6(3) 3_455 6
O2 La O2 65.5(7) 5_455 6
O1 La O2 65.8(5) . 6
O1 La O2 125.0(5) 2_455 6
O2 La O2 134.1(7) . 6
O3 La Ga2 110.8(4) . .
O3 La Ga2 84.5(4) 6 .
O2 La Ga2 32.2(4) 3_455 .
O2 La Ga2 130.3(4) 5_455 .
O1 La Ga2 110.5(4) . .
O1 La Ga2 65.5(4) 2_455 .
O2 La Ga2 33.3(3) . .
O2 La Ga2 163.1(3) 6 .
O3 La Ga2 84.5(4) . 2_565
O3 La Ga2 110.8(4) 6 2_565
O2 La Ga2 130.3(4) 3_455 2_565
O2 La Ga2 32.2(4) 5_455 2_565
O1 La Ga2 65.5(4) . 2_565
O1 La Ga2 110.5(4) 2_455 2_565
O2 La Ga2 163.1(3) . 2_565
O2 La Ga2 33.3(3) 6 2_565
Ga2 La Ga2 162.15(4) . 2_565
O3 La Nb 33.1(3) . .
O3 La Nb 33.1(3) 6 .
O2 La Nb 130.1(4) 3_455 .
O2 La Nb 130.1(4) 5_455 .
O1 La Nb 102.08(4) . .
O1 La Nb 102.08(4) 2_455 .
O2 La Nb 67.0(3) . .
O2 La Nb 67.0(3) 6 .
Ga2 La Nb 98.93(2) . .
Ga2 La Nb 98.93(2) 2_565 .
O3 La Ga1 33.1(3) . .
O3 La Ga1 33.1(3) 6 .
O2 La Ga1 130.1(4) 3_455 .
O2 La Ga1 130.1(4) 5_455 .
O1 La Ga1 102.08(4) . .
O1 La Ga1 102.08(4) 2_455 .
O2 La Ga1 67.0(3) . .
O2 La Ga1 67.0(3) 6 .
Ga2 La Ga1 98.93(2) . .
Ga2 La Ga1 98.93(2) 2_565 .
Nb La Ga1 0.0 . .
O3 Ga1 O3 161.0(9) 3 6
O3 Ga1 O3 86.5(5) 3 .
O3 Ga1 O3 82.4(7) 6 .
O3 Ga1 O3 82.4(7) 3 2
O3 Ga1 O3 86.5(5) 6 2
O3 Ga1 O3 108.1(9) . 2
O3 Ga1 O3 108.1(9) 3 5
O3 Ga1 O3 86.5(5) 6 5
O3 Ga1 O3 161.0(9) . 5
O3 Ga1 O3 86.5(5) 2 5
O3 Ga1 O3 86.5(5) 3 4
O3 Ga1 O3 108.1(9) 6 4
O3 Ga1 O3 86.5(5) . 4
O3 Ga1 O3 161.0(9) 2 4
O3 Ga1 O3 82.4(7) 5 4
O3 Ga1 O2 50.3(5) 3 2
O3 Ga1 O2 111.0(4) 6 2
O3 Ga1 O2 52.7(5) . 2
O3 Ga1 O2 67.0(5) 2 2
O3 Ga1 O2 146.3(5) 5 2
O3 Ga1 O2 116.4(5) 4 2
O3 Ga1 O2 67.0(5) 3 3
O3 Ga1 O2 116.4(5) 6 3
O3 Ga1 O2 146.3(5) . 3
O3 Ga1 O2 50.3(5) 2 3
O3 Ga1 O2 52.7(5) 5 3
O3 Ga1 O2 111.0(4) 4 3
O2 Ga1 O2 93.7(6) 2 3
O3 Ga1 O2 52.7(5) 3 5
O3 Ga1 O2 146.3(5) 6 5
O3 Ga1 O2 116.4(5) . 5
O3 Ga1 O2 111.0(4) 2 5
O3 Ga1 O2 67.0(5) 5 5
O3 Ga1 O2 50.3(5) 4 5
O2 Ga1 O2 102.4(3) 2 5
O2 Ga1 O2 63.9(5) 3 5
O3 Ga1 O2 111.0(4) 3 .
O3 Ga1 O2 50.3(5) 6 .
O3 Ga1 O2 67.0(5) . .
O3 Ga1 O2 52.7(5) 2 .
O3 Ga1 O2 116.4(5) 5 .
O3 Ga1 O2 146.3(5) 4 .
O2 Ga1 O2 63.9(5) 2 .
O2 Ga1 O2 102.4(3) 3 .
O2 Ga1 O2 161.1(6) 5 .
O3 Ga1 O2 146.3(5) 3 4
O3 Ga1 O2 52.7(5) 6 4
O3 Ga1 O2 111.0(4) . 4
O3 Ga1 O2 116.4(5) 2 4
O3 Ga1 O2 50.3(5) 5 4
O3 Ga1 O2 67.0(5) 4 4
O2 Ga1 O2 161.1(6) 2 4
O2 Ga1 O2 102.4(3) 3 4
O2 Ga1 O2 93.7(6) 5 4
O2 Ga1 O2 102.4(3) . 4
O3 Ga1 O2 116.4(5) 3 6
O3 Ga1 O2 67.0(5) 6 6
O3 Ga1 O2 50.3(5) . 6
O3 Ga1 O2 146.3(5) 2 6
O3 Ga1 O2 111.0(4) 5 6
O3 Ga1 O2 52.7(5) 4 6
O2 Ga1 O2 102.4(3) 2 6
O2 Ga1 O2 161.1(6) 3 6
O2 Ga1 O2 102.4(3) 5 6
O2 Ga1 O2 93.7(6) . 6
O2 Ga1 O2 63.9(5) 4 6
O1 Ga2 O2 119.1(5) 2_456 4_445
O1 Ga2 O2 119.1(5) 2_456 .
O2 Ga2 O2 98.3(6) 4_445 .
O1 Ga2 O2 119.1(5) 2_456 3_455
O2 Ga2 O2 98.3(6) 4_445 3_455
O2 Ga2 O2 98.3(6) . 3_455
O1 Ga2 O1 179.997(2) 2_456 2_455
O2 Ga2 O1 60.9(5) 4_445 2_455
O2 Ga2 O1 60.9(5) . 2_455
O2 Ga2 O1 60.9(5) 3_455 2_455
O1 Ga2 La 135.74(3) 2_456 4_445
O2 Ga2 La 54.7(6) 4_445 4_445
O2 Ga2 La 43.8(5) . 4_445
O2 Ga2 La 104.8(5) 3_455 4_445
O1 Ga2 La 44.26(3) 2_455 4_445
O1 Ga2 La 135.74(3) 2_456 2_455
O2 Ga2 La 43.8(5) 4_445 2_455
O2 Ga2 La 104.8(5) . 2_455
O2 Ga2 La 54.7(6) 3_455 2_455
O1 Ga2 La 44.26(3) 2_455 2_455
La Ga2 La 74.37(5) 4_445 2_455
O1 Ga2 La 135.74(3) 2_456 .
O2 Ga2 La 104.8(5) 4_445 .
O2 Ga2 La 54.7(6) . .
O2 Ga2 La 43.8(5) 3_455 .
O1 Ga2 La 44.26(3) 2_455 .
La Ga2 La 74.37(5) 4_445 .
La Ga2 La 74.37(5) 2_455 .
O1 Ga2 O3 65.5(2) 2_456 4_446
O2 Ga2 O3 59.4(5) 4_445 4_446
O2 Ga2 O3 104.3(7) . 4_446
O2 Ga2 O3 150.0(6) 3_455 4_446
O1 Ga2 O3 114.5(2) 2_455 4_446
La Ga2 O3 79.6(3) 4_445 4_446
La Ga2 O3 100.0(2) 2_455 4_446
La Ga2 O3 153.9(3) . 4_446
O1 Ga2 O3 65.5(2) 2_456 1_556
O2 Ga2 O3 150.0(6) 4_445 1_556
O2 Ga2 O3 59.4(5) . 1_556
O2 Ga2 O3 104.3(7) 3_455 1_556
O1 Ga2 O3 114.5(2) 2_455 1_556
La Ga2 O3 100.0(2) 4_445 1_556
La Ga2 O3 153.9(3) 2_455 1_556
La Ga2 O3 79.6(3) . 1_556
O3 Ga2 O3 104.0(3) 4_446 1_556
O1 Ga2 O3 65.5(2) 2_456 3_456
O2 Ga2 O3 104.3(7) 4_445 3_456
O2 Ga2 O3 150.0(6) . 3_456
O2 Ga2 O3 59.4(5) 3_455 3_456
O1 Ga2 O3 114.5(2) 2_455 3_456
La Ga2 O3 153.9(3) 4_445 3_456
La Ga2 O3 79.6(3) 2_455 3_456
La Ga2 O3 100.0(2) . 3_456
O3 Ga2 O3 104.0(3) 4_446 3_456
O3 Ga2 O3 104.0(3) 1_556 3_456
O1 Ga2 La 42.09(3) 2_456 4_446
O2 Ga2 La 98.0(5) 4_445 4_446
O2 Ga2 La 90.1(6) . 4_446
O2 Ga2 La 160.2(5) 3_455 4_446
O1 Ga2 La 137.91(3) 2_455 4_446
La Ga2 La 93.652(7) 4_445 4_446
La Ga2 La 139.942(5) 2_455 4_446
La Ga2 La 139.941(5) . 4_446
O3 Ga2 La 39.9(2) 4_446 4_446
O3 Ga2 La 64.8(3) 1_556 4_446
O3 Ga2 La 105.6(2) 3_456 4_446
O2 Ga3 O2 105.7(13) 3_454 5_455
O2 Ga3 O3 99.5(7) 3_454 5_454
O2 Ga3 O3 107.7(6) 5_455 5_454
O2 Ga3 O3 107.7(6) 3_454 3_455
O2 Ga3 O3 99.5(7) 5_455 3_455
O3 Ga3 O3 134.3(9) 5_454 3_455
O2 Ga3 O3 74.6(8) 3_454 2_454
O2 Ga3 O3 177.8(5) 5_455 2_454
O3 Ga3 O3 74.4(6) 5_454 2_454
O3 Ga3 O3 78.3(6) 3_455 2_454
O2 Ga3 O3 177.8(5) 3_454 4_455
O2 Ga3 O3 74.6(8) 5_455 4_455
O3 Ga3 O3 78.3(6) 5_454 4_455
O3 Ga3 O3 74.4(6) 3_455 4_455
O3 Ga3 O3 105.2(6) 2_454 4_455
O2 Ga3 Nb 85.2(6) 3_454 1_454
O2 Ga3 Nb 143.3(4) 5_455 1_454
O3 Ga3 Nb 35.7(4) 5_454 1_454
O3 Ga3 Nb 110.5(5) 3_455 1_454
O3 Ga3 Nb 38.8(3) 2_454 1_454
O3 Ga3 Nb 93.3(3) 4_455 1_454
O2 Ga3 Nb 143.3(4) 3_454 1_455
O2 Ga3 Nb 85.2(6) 5_455 1_455
O3 Ga3 Nb 110.5(5) 5_454 1_455
O3 Ga3 Nb 35.7(4) 3_455 1_455
O3 Ga3 Nb 93.3(3) 2_454 1_455
O3 Ga3 Nb 38.8(3) 4_455 1_455
Nb Ga3 Nb 107.07(6) 1_454 1_455
O2 Ga3 O1 61.6(5) 3_454 2_455
O2 Ga3 O1 75.7(5) 5_455 2_455
O3 Ga3 O1 160.6(5) 5_454 2_455
O3 Ga3 O1 61.5(4) 3_455 2_455
O3 Ga3 O1 102.7(3) 2_454 2_455
O3 Ga3 O1 120.5(4) 4_455 2_455
Nb Ga3 O1 137.2(2) 1_454 2_455
Nb Ga3 O1 88.7(2) 1_455 2_455
O2 Ga3 O1 75.7(6) 3_454 1_554
O2 Ga3 O1 61.6(5) 5_455 1_554
O3 Ga3 O1 61.5(4) 5_454 1_554
O3 Ga3 O1 160.6(5) 3_455 1_554
O3 Ga3 O1 120.5(4) 2_454 1_554
O3 Ga3 O1 102.7(3) 4_455 1_554
Nb Ga3 O1 88.7(2) 1_454 1_554
Nb Ga3 O1 137.2(2) 1_455 1_554
O1 Ga3 O1 106.5(2) 2_455 1_554
O2 Ga3 O3 115.7(7) 3_454 6_454
O2 Ga3 O3 132.9(6) 5_455 6_454
O3 Ga3 O3 45.8(4) 5_454 6_454
O3 Ga3 O3 88.9(6) 3_455 6_454
O3 Ga3 O3 47.9(3) 2_454 6_454
O3 Ga3 O3 63.3(4) 4_455 6_454
Nb Ga3 O3 32.80(19) 1_454 6_454
Nb Ga3 O3 75.2(2) 1_455 6_454
O1 Ga3 O3 144.0(3) 2_455 6_454
O1 Ga3 O3 107.2(3) 1_554 6_454
O2 Ga3 O3 132.9(6) 3_454 1_455
O2 Ga3 O3 115.7(7) 5_455 1_455
O3 Ga3 O3 88.9(6) 5_454 1_455
O3 Ga3 O3 45.8(4) 3_455 1_455
O3 Ga3 O3 63.3(4) 2_454 1_455
O3 Ga3 O3 47.9(3) 4_455 1_455
Nb Ga3 O3 75.2(2) 1_454 1_455
Nb Ga3 O3 32.80(19) 1_455 1_455
O1 Ga3 O3 107.2(3) 2_455 1_455
O1 Ga3 O3 144.0(3) 1_554 1_455
O3 Ga3 O3 45.5(4) 6_454 1_455
O3 Nb O3 161.0(9) 3 6
O3 Nb O3 86.5(5) 3 .
O3 Nb O3 82.4(7) 6 .
O3 Nb O3 82.4(7) 3 2
O3 Nb O3 86.5(5) 6 2
O3 Nb O3 108.1(9) . 2
O3 Nb O3 108.1(9) 3 5
O3 Nb O3 86.5(5) 6 5
O3 Nb O3 161.0(9) . 5
O3 Nb O3 86.5(5) 2 5
O3 Nb O3 86.5(5) 3 4
O3 Nb O3 108.1(9) 6 4
O3 Nb O3 86.5(5) . 4
O3 Nb O3 161.0(9) 2 4
O3 Nb O3 82.4(7) 5 4
O3 Nb Ga3 53.8(5) 3 4_445
O3 Nb Ga3 113.2(3) 6 4_445
O3 Nb Ga3 32.7(4) . 4_445
O3 Nb Ga3 98.2(4) 2 4_445
O3 Nb Ga3 159.9(4) 5 4_445
O3 Nb Ga3 87.4(4) 4 4_445
O3 Nb Ga3 113.2(3) 3 4_446
O3 Nb Ga3 53.8(5) 6 4_446
O3 Nb Ga3 98.2(4) . 4_446
O3 Nb Ga3 32.7(4) 2 4_446
O3 Nb Ga3 87.4(4) 5 4_446
O3 Nb Ga3 159.9(4) 4 4_446
Ga3 Nb Ga3 107.07(6) 4_445 4_446
O3 Nb Ga3 98.2(4) 3 1_656
O3 Nb Ga3 87.4(4) 6 1_656
O3 Nb Ga3 159.9(4) . 1_656
O3 Nb Ga3 53.8(5) 2 1_656
O3 Nb Ga3 32.7(4) 5 1_656
O3 Nb Ga3 113.2(3) 4 1_656
Ga3 Nb Ga3 145.42(3) 4_445 1_656
Ga3 Nb Ga3 61.96(5) 4_446 1_656
O3 Nb Ga3 32.7(4) 3 1_655
O3 Nb Ga3 159.9(4) 6 1_655
O3 Nb Ga3 87.4(4) . 1_655
O3 Nb Ga3 113.2(3) 2 1_655
O3 Nb Ga3 98.2(4) 5 1_655
O3 Nb Ga3 53.8(5) 4 1_655
Ga3 Nb Ga3 61.96(5) 4_445 1_655
Ga3 Nb Ga3 145.42(3) 4_446 1_655
Ga3 Nb Ga3 107.07(6) 1_656 1_655
O3 Nb Ga3 159.9(4) 3 2_565
O3 Nb Ga3 32.7(4) 6 2_565
O3 Nb Ga3 113.2(3) . 2_565
O3 Nb Ga3 87.4(4) 2 2_565
O3 Nb Ga3 53.8(5) 5 2_565
O3 Nb Ga3 98.2(4) 4 2_565
Ga3 Nb Ga3 145.42(3) 4_445 2_565
Ga3 Nb Ga3 61.96(5) 4_446 2_565
Ga3 Nb Ga3 61.96(5) 1_656 2_565
Ga3 Nb Ga3 145.42(3) 1_655 2_565
O3 Nb Ga3 87.4(4) 3 2_564
O3 Nb Ga3 98.2(4) 6 2_564
O3 Nb Ga3 53.8(5) . 2_564
O3 Nb Ga3 159.9(4) 2 2_564
O3 Nb Ga3 113.2(3) 5 2_564
O3 Nb Ga3 32.7(4) 4 2_564
Ga3 Nb Ga3 61.96(5) 4_445 2_564
Ga3 Nb Ga3 145.42(3) 4_446 2_564
Ga3 Nb Ga3 145.42(3) 1_656 2_564
Ga3 Nb Ga3 61.96(5) 1_655 2_564
Ga3 Nb Ga3 107.07(6) 2_565 2_564
Ga2 O1 La 109.8(4) 2_566 .
Ga2 O1 La 109.8(4) 2_566 2_565
La O1 La 109.2(4) . 2_565
Ga2 O1 La 109.8(4) 2_566 4_455
La O1 La 109.2(4) . 4_455
La O1 La 109.2(4) 2_565 4_455
Ga2 O1 O2 145.5(3) 2_566 6
La O1 O2 61.3(5) . 6
La O1 O2 52.8(4) 2_565 6
La O1 O2 104.4(6) 4_455 6
Ga2 O1 O2 145.5(3) 2_566 5_455
La O1 O2 52.8(4) . 5_455
La O1 O2 104.4(6) 2_565 5_455
La O1 O2 61.3(5) 4_455 5_455
O2 O1 O2 58.7(6) 6 5_455
Ga2 O1 O2 145.5(3) 2_566 2_565
La O1 O2 104.4(6) . 2_565
La O1 O2 61.3(5) 2_565 2_565
La O1 O2 52.8(4) 4_455 2_565
O2 O1 O2 58.7(6) 6 2_565
O2 O1 O2 58.7(6) 5_455 2_565
Ga2 O1 O3 83.5(4) 2_566 6
La O1 O3 48.3(2) . 6
La O1 O3 81.8(3) 2_565 6
La O1 O3 157.4(5) 4_455 6
O2 O1 O3 65.9(5) 6 6
O2 O1 O3 97.2(4) 5_455 6
O2 O1 O3 124.3(6) 2_565 6
Ga2 O1 O3 83.5(4) 2_566 2_565
La O1 O3 157.4(5) . 2_565
La O1 O3 48.3(2) 2_565 2_565
La O1 O3 81.8(3) 4_455 2_565
O2 O1 O3 97.2(4) 6 2_565
O2 O1 O3 124.3(6) 5_455 2_565
O2 O1 O3 65.9(5) 2_565 2_565
O3 O1 O3 118.73(15) 6 2_565
Ga2 O1 O3 83.5(4) 2_566 5_455
La O1 O3 81.8(3) . 5_455
La O1 O3 157.4(5) 2_565 5_455
La O1 O3 48.3(2) 4_455 5_455
O2 O1 O3 124.3(6) 6 5_455
O2 O1 O3 65.9(5) 5_455 5_455
O2 O1 O3 97.2(4) 2_565 5_455
O3 O1 O3 118.74(15) 6 5_455
O3 O1 O3 118.74(15) 2_565 5_455
Ga2 O1 O2 31.3(3) 2_566 6_556
La O1 O2 96.0(4) . 6_556
La O1 O2 89.4(4) 2_565 6_556
La O1 O2 140.6(6) 4_455 6_556
O2 O1 O2 114.2(5) 6 6_556
O2 O1 O2 148.4(2) 5_455 6_556
O2 O1 O2 148.4(2) 2_565 6_556
O3 O1 O2 56.1(4) 6 6_556
O3 O1 O2 86.2(6) 2_565 6_556
O3 O1 O2 109.6(5) 5_455 6_556
Ga2 O1 O2 31.3(3) 2_566 5_456
La O1 O2 89.4(4) . 5_456
La O1 O2 140.6(6) 2_565 5_456
La O1 O2 96.0(4) 4_455 5_456
O2 O1 O2 148.4(2) 6 5_456
O2 O1 O2 114.2(5) 5_455 5_456
O2 O1 O2 148.4(2) 2_565 5_456
O3 O1 O2 86.2(6) 6 5_456
O3 O1 O2 109.6(5) 2_565 5_456
O3 O1 O2 56.1(4) 5_455 5_456
O2 O1 O2 53.5(6) 6_556 5_456
Ga2 O1 O2 31.3(3) 2_566 2_566
La O1 O2 140.6(6) . 2_566
La O1 O2 96.0(4) 2_565 2_566
La O1 O2 89.4(4) 4_455 2_566
O2 O1 O2 148.4(2) 6 2_566
O2 O1 O2 148.4(2) 5_455 2_566
O2 O1 O2 114.2(5) 2_565 2_566
O3 O1 O2 109.6(5) 6 2_566
O3 O1 O2 56.1(4) 2_565 2_566
O3 O1 O2 86.2(6) 5_455 2_566
O2 O1 O2 53.5(5) 6_556 2_566
O2 O1 O2 53.5(6) 5_456 2_566
Ga2 O1 Ga2 180.0 2_566 2_565
La O1 Ga2 70.2(4) . 2_565
La O1 Ga2 70.2(4) 2_565 2_565
La O1 Ga2 70.2(4) 4_455 2_565
O2 O1 Ga2 34.5(3) 6 2_565
O2 O1 Ga2 34.5(3) 5_455 2_565
O2 O1 Ga2 34.5(3) 2_565 2_565
O3 O1 Ga2 96.5(4) 6 2_565
O3 O1 Ga2 96.5(4) 2_565 2_565
O3 O1 Ga2 96.5(4) 5_455 2_565
O2 O1 Ga2 148.7(3) 6_556 2_565
O2 O1 Ga2 148.7(3) 5_456 2_565
O2 O1 Ga2 148.7(3) 2_566 2_565
Ga2 O1 Ga3 61.9(3) 2_566 2_565
La O1 Ga3 78.50(10) . 2_565
La O1 Ga3 71.91(11) 2_565 2_565
La O1 Ga3 170.8(6) 4_455 2_565
O2 O1 Ga3 83.7(3) 6 2_565
O2 O1 Ga3 127.7(4) 5_455 2_565
O2 O1 Ga3 131.5(5) 2_565 2_565
O3 O1 Ga3 30.8(2) 6 2_565
O3 O1 Ga3 92.8(3) 2_565 2_565
O3 O1 Ga3 130.5(5) 5_455 2_565
O2 O1 Ga3 30.7(3) 6_556 2_565
O2 O1 Ga3 78.7(5) 5_456 2_565
O2 O1 Ga3 81.4(4) 2_566 2_565
Ga2 O1 Ga3 118.1(3) 2_565 2_565
Ga2 O1 Ga3 61.9(3) 2_566 1_556
La O1 Ga3 71.91(11) . 1_556
La O1 Ga3 170.8(6) 2_565 1_556
La O1 Ga3 78.50(10) 4_455 1_556
O2 O1 Ga3 131.5(5) 6 1_556
O2 O1 Ga3 83.7(3) 5_455 1_556
O2 O1 Ga3 127.7(4) 2_565 1_556
O3 O1 Ga3 92.8(3) 6 1_556
O3 O1 Ga3 130.5(5) 2_565 1_556
O3 O1 Ga3 30.8(2) 5_455 1_556
O2 O1 Ga3 81.4(4) 6_556 1_556
O2 O1 Ga3 30.7(3) 5_456 1_556
O2 O1 Ga3 78.7(5) 2_566 1_556
Ga2 O1 Ga3 118.1(3) 2_565 1_556
Ga3 O1 Ga3 99.7(3) 2_565 1_556
Ga2 O1 Ga3 61.9(3) 2_566 4_456
La O1 Ga3 170.8(6) . 4_456
La O1 Ga3 78.50(10) 2_565 4_456
La O1 Ga3 71.90(11) 4_455 4_456
O2 O1 Ga3 127.7(4) 6 4_456
O2 O1 Ga3 131.5(5) 5_455 4_456
O2 O1 Ga3 83.7(3) 2_565 4_456
O3 O1 Ga3 130.5(5) 6 4_456
O3 O1 Ga3 30.8(2) 2_565 4_456
O3 O1 Ga3 92.8(3) 5_455 4_456
O2 O1 Ga3 78.7(5) 6_556 4_456
O2 O1 Ga3 81.4(4) 5_456 4_456
O2 O1 Ga3 30.7(3) 2_566 4_456
Ga2 O1 Ga3 118.1(3) 2_565 4_456
Ga3 O1 Ga3 99.7(3) 2_565 4_456
Ga3 O1 Ga3 99.7(3) 1_556 4_456
Ga2 O1 O2 79.2(4) 2_566 4
La O1 O2 93.7(3) . 4
La O1 O2 42.5(3) 2_565 4
La O1 O2 149.7(3) 4_455 4
O2 O1 O2 68.9(5) 6 4
O2 O1 O2 126.5(4) 5_455 4
O2 O1 O2 103.3(5) 2_565 4
O3 O1 O2 48.5(4) 6 4
O3 O1 O2 70.3(4) 2_565 4
O3 O1 O2 159.4(6) 5_455 4
O2 O1 O2 50.7(5) 6_556 4
O2 O1 O2 104.0(5) 5_456 4
O2 O1 O2 84.7(4) 2_566 4
Ga2 O1 O2 100.8(4) 2_565 4
Ga3 O1 O2 29.6(2) 2_565 4
Ga3 O1 O2 128.8(5) 1_556 4
Ga3 O1 O2 88.7(4) 4_456 4
Ga2 O1 O2 79.2(4) 2_566 3_455
La O1 O2 42.5(3) . 3_455
La O1 O2 149.7(3) 2_565 3_455
La O1 O2 93.7(3) 4_455 3_455
O2 O1 O2 103.3(5) 6 3_455
O2 O1 O2 68.9(5) 5_455 3_455
O2 O1 O2 126.5(4) 2_565 3_455
O3 O1 O2 70.3(4) 6 3_455
O3 O1 O2 159.4(6) 2_565 3_455
O3 O1 O2 48.5(4) 5_455 3_455
O2 O1 O2 84.7(4) 6_556 3_455
O2 O1 O2 50.7(5) 5_456 3_455
O2 O1 O2 104.0(5) 2_566 3_455
Ga2 O1 O2 100.8(4) 2_565 3_455
Ga3 O1 O2 88.7(4) 2_565 3_455
Ga3 O1 O2 29.6(2) 1_556 3_455
Ga3 O1 O2 128.8(5) 4_456 3_455
O2 O1 O2 116.5(3) 4 3_455
Ga2 O1 O2 79.2(4) 2_566 1_565
La O1 O2 149.7(3) . 1_565
La O1 O2 93.7(3) 2_565 1_565
La O1 O2 42.5(3) 4_455 1_565
O2 O1 O2 126.5(4) 6 1_565
O2 O1 O2 103.3(5) 5_455 1_565
O2 O1 O2 68.9(5) 2_565 1_565
O3 O1 O2 159.4(6) 6 1_565
O3 O1 O2 48.5(4) 2_565 1_565
O3 O1 O2 70.3(4) 5_455 1_565
O2 O1 O2 104.0(5) 6_556 1_565
O2 O1 O2 84.7(4) 5_456 1_565
O2 O1 O2 50.7(5) 2_566 1_565
Ga2 O1 O2 100.8(4) 2_565 1_565
Ga3 O1 O2 128.8(5) 2_565 1_565
Ga3 O1 O2 88.7(4) 1_556 1_565
Ga3 O1 O2 29.6(2) 4_456 1_565
O2 O1 O2 116.5(3) 4 1_565
O2 O1 O2 116.5(3) 3_455 1_565
Ga2 O1 O3 118.7(3) 2_566 .
La O1 O3 28.0(2) . .
La O1 O3 81.3(3) 2_565 .
La O1 O3 123.2(5) 4_455 .
O2 O1 O3 38.4(5) 6 .
O2 O1 O3 62.0(5) 5_455 .
O2 O1 O3 93.8(5) 2_565 .
O3 O1 O3 37.0(4) 6 .
O3 O1 O3 129.6(4) 2_565 .
O3 O1 O3 108.9(4) 5_455 .
O2 O1 O3 93.1(4) 6_556 .
O2 O1 O3 110.0(4) 5_456 .
O2 O1 O3 146.6(5) 2_566 .
Ga2 O1 O3 61.3(3) 2_565 .
Ga3 O1 O3 66.01(17) 2_565 .
Ga3 O1 O3 98.94(19) 1_556 .
Ga3 O1 O3 158.22(17) 4_456 .
O2 O1 O3 70.8(4) 4 .
O2 O1 O3 69.4(3) 3_455 .
O2 O1 O3 162.1(6) 1_565 .
Ga2 O1 O3 118.7(3) 2_566 3_565
La O1 O3 123.2(5) . 3_565
La O1 O3 28.0(2) 2_565 3_565
La O1 O3 81.3(3) 4_455 3_565
O2 O1 O3 62.0(5) 6 3_565
O2 O1 O3 93.8(5) 5_455 3_565
O2 O1 O3 38.4(5) 2_565 3_565
O3 O1 O3 108.9(4) 6 3_565
O3 O1 O3 37.0(4) 2_565 3_565
O3 O1 O3 129.6(4) 5_455 3_565
O2 O1 O3 110.0(4) 6_556 3_565
O2 O1 O3 146.6(5) 5_456 3_565
O2 O1 O3 93.1(4) 2_566 3_565
Ga2 O1 O3 61.3(3) 2_565 3_565
Ga3 O1 O3 98.94(19) 2_565 3_565
Ga3 O1 O3 158.22(17) 1_556 3_565
Ga3 O1 O3 66.01(17) 4_456 3_565
O2 O1 O3 69.4(3) 4 3_565
O2 O1 O3 162.1(6) 3_455 3_565
O2 O1 O3 70.8(4) 1_565 3_565
O3 O1 O3 98.9(4) . 3_565
Ga2 O1 O3 118.7(3) 2_566 4_455
La O1 O3 81.3(3) . 4_455
La O1 O3 123.2(5) 2_565 4_455
La O1 O3 28.0(2) 4_455 4_455
O2 O1 O3 93.8(5) 6 4_455
O2 O1 O3 38.4(5) 5_455 4_455
O2 O1 O3 62.0(5) 2_565 4_455
O3 O1 O3 129.6(4) 6 4_455
O3 O1 O3 108.9(4) 2_565 4_455
O3 O1 O3 37.0(4) 5_455 4_455
O2 O1 O3 146.6(5) 6_556 4_455
O2 O1 O3 93.1(4) 5_456 4_455
O2 O1 O3 110.0(4) 2_566 4_455
Ga2 O1 O3 61.3(3) 2_565 4_455
Ga3 O1 O3 158.23(17) 2_565 4_455
Ga3 O1 O3 66.01(17) 1_556 4_455
Ga3 O1 O3 98.94(19) 4_456 4_455
O2 O1 O3 162.1(6) 4 4_455
O2 O1 O3 70.8(4) 3_455 4_455
O2 O1 O3 69.4(3) 1_565 4_455
O3 O1 O3 98.9(4) . 4_455
O3 O1 O3 98.9(4) 3_565 4_455
Ga2 O1 Ga3 137.05(15) 2_566 2_564
La O1 Ga3 58.4(3) . 2_564
La O1 Ga3 52.4(2) 2_565 2_564
La O1 Ga3 113.1(5) 4_455 2_564
O2 O1 Ga3 8.7(3) 6 2_564
O2 O1 Ga3 64.5(4) 5_455 2_564
O2 O1 Ga3 67.0(4) 2_565 2_564
O3 O1 Ga3 57.4(3) 6 2_564
O3 O1 Ga3 99.3(3) 2_565 2_564
O3 O1 Ga3 128.7(4) 5_455 2_564
O2 O1 Ga3 105.8(3) 6_556 2_564
O2 O1 Ga3 141.6(4) 5_456 2_564
O2 O1 Ga3 145.1(4) 2_566 2_564
Ga2 O1 Ga3 42.95(15) 2_565 2_564
Ga3 O1 Ga3 75.12(11) 2_565 2_564
Ga3 O1 Ga3 130.16(16) 1_556 2_564
Ga3 O1 Ga3 130.16(16) 4_456 2_564
O2 O1 Ga3 62.3(3) 4 2_564
O2 O1 Ga3 100.9(3) 3_455 2_564
O2 O1 Ga3 133.6(5) 1_565 2_564
O3 O1 Ga3 32.9(2) . 2_564
O3 O1 Ga3 66.1(3) 3_565 2_564
O3 O1 Ga3 101.0(4) 4_455 2_564
Ga2 O1 Ga3 137.05(15) 2_566 .
La O1 Ga3 52.4(2) . .
La O1 Ga3 113.1(5) 2_565 .
La O1 Ga3 58.4(3) 4_455 .
O2 O1 Ga3 67.0(4) 6 .
O2 O1 Ga3 8.7(3) 5_455 .
O2 O1 Ga3 64.5(4) 2_565 .
O3 O1 Ga3 99.3(3) 6 .
O3 O1 Ga3 128.7(4) 2_565 .
O3 O1 Ga3 57.4(3) 5_455 .
O2 O1 Ga3 145.1(4) 6_556 .
O2 O1 Ga3 105.8(3) 5_456 .
O2 O1 Ga3 141.6(4) 2_566 .
Ga2 O1 Ga3 42.95(15) 2_565 .
Ga3 O1 Ga3 130.16(16) 2_565 .
Ga3 O1 Ga3 75.12(11) 1_556 .
Ga3 O1 Ga3 130.16(16) 4_456 .
O2 O1 Ga3 133.6(5) 4 .
O2 O1 Ga3 62.3(3) 3_455 .
O2 O1 Ga3 100.9(3) 1_565 .
O3 O1 Ga3 66.1(3) . .
O3 O1 Ga3 101.0(4) 3_565 .
O3 O1 Ga3 32.9(2) 4_455 .
Ga3 O1 Ga3 72.3(2) 2_564 .
Ga2 O1 Ga3 137.05(15) 2_566 4_455
La O1 Ga3 113.1(5) . 4_455
La O1 Ga3 58.4(3) 2_565 4_455
La O1 Ga3 52.4(2) 4_455 4_455
O2 O1 Ga3 64.5(4) 6 4_455
O2 O1 Ga3 67.0(4) 5_455 4_455
O2 O1 Ga3 8.7(3) 2_565 4_455
O3 O1 Ga3 128.7(4) 6 4_455
O3 O1 Ga3 57.4(3) 2_565 4_455
O3 O1 Ga3 99.3(3) 5_455 4_455
O2 O1 Ga3 141.6(4) 6_556 4_455
O2 O1 Ga3 145.1(4) 5_456 4_455
O2 O1 Ga3 105.8(3) 2_566 4_455
Ga2 O1 Ga3 42.95(15) 2_565 4_455
Ga3 O1 Ga3 130.16(16) 2_565 4_455
Ga3 O1 Ga3 130.16(16) 1_556 4_455
Ga3 O1 Ga3 75.12(11) 4_456 4_455
O2 O1 Ga3 100.9(3) 4 4_455
O2 O1 Ga3 133.6(5) 3_455 4_455
O2 O1 Ga3 62.3(3) 1_565 4_455
O3 O1 Ga3 101.0(4) . 4_455
O3 O1 Ga3 32.9(2) 3_565 4_455
O3 O1 Ga3 66.1(3) 4_455 4_455
Ga3 O1 Ga3 72.3(2) 2_564 4_455
Ga3 O1 Ga3 72.3(2) . 4_455
Ga2 O1 O2 81.8(3) 2_566 .
La O1 O2 28.9(2) . .
La O1 O2 114.0(2) 2_565 .
La O1 O2 127.9(2) 4_455 .
O2 O1 O2 80.9(6) 6 .
O2 O1 O2 80.5(4) 5_455 .
O2 O1 O2 132.7(5) 2_565 .
O3 O1 O2 33.5(3) 6 .
O3 O1 O2 149.9(4) 2_565 .
O3 O1 O2 85.4(4) 5_455 .
O2 O1 O2 67.9(4) 6_556 .
O2 O1 O2 67.5(5) 5_456 .
O2 O1 O2 113.1(5) 2_566 .
Ga2 O1 O2 98.3(3) 2_565 .
Ga3 O1 O2 57.1(2) 2_565 .
Ga3 O1 O2 62.3(2) 1_556 .
Ga3 O1 O2 143.6(5) 4_456 .
O2 O1 O2 81.3(5) 4 .
O2 O1 O2 36.9(5) 3_455 .
O2 O1 O2 150.5(6) 1_565 .
O3 O1 O2 42.5(3) . .
O3 O1 O2 138.7(3) 3_565 .
O3 O1 O2 101.1(2) 4_455 .
Ga3 O1 O2 74.8(2) 2_564 .
Ga3 O1 O2 78.4(2) . .
Ga3 O1 O2 141.1(4) 4_455 .
Ga2 O1 O2 81.7(3) 2_566 3_565
La O1 O2 127.9(2) . 3_565
La O1 O2 28.9(2) 2_565 3_565
La O1 O2 114.0(2) 4_455 3_565
O2 O1 O2 80.5(4) 6 3_565
O2 O1 O2 132.7(5) 5_455 3_565
O2 O1 O2 80.9(6) 2_565 3_565
O3 O1 O2 85.4(4) 6 3_565
O3 O1 O2 33.5(3) 2_565 3_565
O3 O1 O2 149.9(4) 5_455 3_565
O2 O1 O2 67.5(5) 6_556 3_565
O2 O1 O2 113.1(5) 5_456 3_565
O2 O1 O2 67.9(4) 2_566 3_565
Ga2 O1 O2 98.3(3) 2_565 3_565
Ga3 O1 O2 62.3(2) 2_565 3_565
Ga3 O1 O2 143.6(5) 1_556 3_565
Ga3 O1 O2 57.1(2) 4_456 3_565
O2 O1 O2 36.9(5) 4 3_565
O2 O1 O2 150.5(6) 3_455 3_565
O2 O1 O2 81.3(5) 1_565 3_565
O3 O1 O2 101.1(2) . 3_565
O3 O1 O2 42.5(3) 3_565 3_565
O3 O1 O2 138.7(3) 4_455 3_565
Ga3 O1 O2 78.4(2) 2_564 3_565
Ga3 O1 O2 141.1(4) . 3_565
Ga3 O1 O2 74.8(2) 4_455 3_565
O2 O1 O2 117.98(14) . 3_565
Ga2 O1 O2 81.7(3) 2_566 4_455
La O1 O2 114.0(2) . 4_455
La O1 O2 127.9(2) 2_565 4_455
La O1 O2 28.9(2) 4_455 4_455
O2 O1 O2 132.7(5) 6 4_455
O2 O1 O2 80.9(6) 5_455 4_455
O2 O1 O2 80.5(4) 2_565 4_455
O3 O1 O2 149.9(4) 6 4_455
O3 O1 O2 85.4(4) 2_565 4_455
O3 O1 O2 33.5(3) 5_455 4_455
O2 O1 O2 113.1(5) 6_556 4_455
O2 O1 O2 67.9(4) 5_456 4_455
O2 O1 O2 67.5(5) 2_566 4_455
Ga2 O1 O2 98.3(3) 2_565 4_455
Ga3 O1 O2 143.6(5) 2_565 4_455
Ga3 O1 O2 57.1(2) 1_556 4_455
Ga3 O1 O2 62.3(2) 4_456 4_455
O2 O1 O2 150.5(6) 4 4_455
O2 O1 O2 81.3(5) 3_455 4_455
O2 O1 O2 36.9(5) 1_565 4_455
O3 O1 O2 138.7(3) . 4_455
O3 O1 O2 101.1(2) 3_565 4_455
O3 O1 O2 42.5(3) 4_455 4_455
Ga3 O1 O2 141.1(4) 2_564 4_455
Ga3 O1 O2 74.8(2) . 4_455
Ga3 O1 O2 78.4(2) 4_455 4_455
O2 O1 O2 117.98(14) . 4_455
O2 O1 O2 117.98(14) 3_565 4_455
Ga2 O1 Nb 100.4(2) 2_566 .
La O1 Nb 46.32(5) . .
La O1 Nb 70.48(10) 2_565 .
La O1 Nb 147.3(6) 4_455 .
O2 O1 Nb 47.9(4) 6 .
O2 O1 Nb 86.6(4) 5_455 .
O2 O1 Nb 106.3(5) 2_565 .
O3 O1 Nb 18.0(3) 6 .
O3 O1 Nb 114.7(3) 2_565 .
O3 O1 Nb 126.5(3) 5_455 .
O2 O1 Nb 71.1(3) 6_556 .
O2 O1 Nb 103.7(4) 5_456 .
O2 O1 Nb 123.4(4) 2_566 .
Ga2 O1 Nb 79.6(2) 2_565 .
Ga3 O1 Nb 41.97(4) 2_565 .
Ga3 O1 Nb 106.04(9) 1_556 .
Ga3 O1 Nb 136.28(18) 4_456 .
O2 O1 Nb 47.7(3) 4 .
O2 O1 Nb 79.5(3) 3_455 .
O2 O1 Nb 163.2(3) 1_565 .
O3 O1 Nb 24.80(16) . .
O3 O1 Nb 95.4(2) 3_565 .
O3 O1 Nb 123.6(4) 4_455 .
Ga3 O1 Nb 39.43(7) 2_564 .
Ga3 O1 Nb 90.9(2) . .
Ga3 O1 Nb 111.1(3) 4_455 .
O2 O1 Nb 43.74(19) . .
O2 O1 Nb 82.03(19) 3_565 .
O2 O1 Nb 159.9(2) 4_455 .
Ga2 O1 Ga1 100.4(2) 2_566 .
La O1 Ga1 46.32(5) . .
La O1 Ga1 70.48(10) 2_565 .
La O1 Ga1 147.3(6) 4_455 .
O2 O1 Ga1 47.9(4) 6 .
O2 O1 Ga1 86.6(4) 5_455 .
O2 O1 Ga1 106.3(5) 2_565 .
O3 O1 Ga1 18.0(3) 6 .
O3 O1 Ga1 114.7(3) 2_565 .
O3 O1 Ga1 126.5(3) 5_455 .
O2 O1 Ga1 71.1(3) 6_556 .
O2 O1 Ga1 103.7(4) 5_456 .
O2 O1 Ga1 123.4(4) 2_566 .
Ga2 O1 Ga1 79.6(2) 2_565 .
Ga3 O1 Ga1 41.97(4) 2_565 .
Ga3 O1 Ga1 106.04(9) 1_556 .
Ga3 O1 Ga1 136.28(18) 4_456 .
O2 O1 Ga1 47.7(3) 4 .
O2 O1 Ga1 79.5(3) 3_455 .
O2 O1 Ga1 163.2(3) 1_565 .
O3 O1 Ga1 24.80(16) . .
O3 O1 Ga1 95.4(2) 3_565 .
O3 O1 Ga1 123.6(4) 4_455 .
Ga3 O1 Ga1 39.43(7) 2_564 .
Ga3 O1 Ga1 90.9(2) . .
Ga3 O1 Ga1 111.1(3) 4_455 .
O2 O1 Ga1 43.74(19) . .
O2 O1 Ga1 82.03(19) 3_565 .
O2 O1 Ga1 159.9(2) 4_455 .
Nb O1 Ga1 0.0 . .
Ga2 O1 Ga1 100.4(2) 2_566 1_455
La O1 Ga1 70.48(10) . 1_455
La O1 Ga1 147.3(6) 2_565 1_455
La O1 Ga1 46.32(5) 4_455 1_455
O2 O1 Ga1 106.3(5) 6 1_455
O2 O1 Ga1 47.9(4) 5_455 1_455
O2 O1 Ga1 86.6(4) 2_565 1_455
O3 O1 Ga1 114.7(3) 6 1_455
O3 O1 Ga1 126.5(3) 2_565 1_455
O3 O1 Ga1 18.0(3) 5_455 1_455
O2 O1 Ga1 123.4(4) 6_556 1_455
O2 O1 Ga1 71.1(3) 5_456 1_455
O2 O1 Ga1 103.7(4) 2_566 1_455
Ga2 O1 Ga1 79.6(2) 2_565 1_455
Ga3 O1 Ga1 136.28(18) 2_565 1_455
Ga3 O1 Ga1 41.97(4) 1_556 1_455
Ga3 O1 Ga1 106.04(9) 4_456 1_455
O2 O1 Ga1 163.2(3) 4 1_455
O2 O1 Ga1 47.7(3) 3_455 1_455
O2 O1 Ga1 79.5(3) 1_565 1_455
O3 O1 Ga1 95.4(2) . 1_455
O3 O1 Ga1 123.6(4) 3_565 1_455
O3 O1 Ga1 24.80(16) 4_455 1_455
Ga3 O1 Ga1 111.1(3) 2_564 1_455
Ga3 O1 Ga1 39.43(7) . 1_455
Ga3 O1 Ga1 90.9(2) 4_455 1_455
O2 O1 Ga1 82.03(19) . 1_455
O2 O1 Ga1 159.9(2) 3_565 1_455
O2 O1 Ga1 43.74(19) 4_455 1_455
Nb O1 Ga1 116.80(13) . 1_455
Ga1 O1 Ga1 116.80(13) . 1_455
Ga2 O1 Nb 100.4(2) 2_566 1_455
La O1 Nb 70.48(10) . 1_455
La O1 Nb 147.3(6) 2_565 1_455
La O1 Nb 46.32(5) 4_455 1_455
O2 O1 Nb 106.3(5) 6 1_455
O2 O1 Nb 47.9(4) 5_455 1_455
O2 O1 Nb 86.6(4) 2_565 1_455
O3 O1 Nb 114.7(3) 6 1_455
O3 O1 Nb 126.5(3) 2_565 1_455
O3 O1 Nb 18.0(3) 5_455 1_455
O2 O1 Nb 123.4(4) 6_556 1_455
O2 O1 Nb 71.1(3) 5_456 1_455
O2 O1 Nb 103.7(4) 2_566 1_455
Ga2 O1 Nb 79.6(2) 2_565 1_455
Ga3 O1 Nb 136.28(18) 2_565 1_455
Ga3 O1 Nb 41.97(4) 1_556 1_455
Ga3 O1 Nb 106.04(9) 4_456 1_455
O2 O1 Nb 163.2(3) 4 1_455
O2 O1 Nb 47.7(3) 3_455 1_455
O2 O1 Nb 79.5(3) 1_565 1_455
O3 O1 Nb 95.4(2) . 1_455
O3 O1 Nb 123.6(4) 3_565 1_455
O3 O1 Nb 24.80(16) 4_455 1_455
Ga3 O1 Nb 111.1(3) 2_564 1_455
Ga3 O1 Nb 39.43(7) . 1_455
Ga3 O1 Nb 90.9(2) 4_455 1_455
O2 O1 Nb 82.03(19) . 1_455
O2 O1 Nb 159.9(2) 3_565 1_455
O2 O1 Nb 43.74(19) 4_455 1_455
Nb O1 Nb 116.80(13) . 1_455
Ga1 O1 Nb 116.80(13) . 1_455
Ga1 O1 Nb 0.0 1_455 1_455
Ga2 O1 Ga1 100.4(2) 2_566 1_565
La O1 Ga1 147.3(6) . 1_565
La O1 Ga1 46.32(5) 2_565 1_565
La O1 Ga1 70.47(10) 4_455 1_565
O2 O1 Ga1 86.6(4) 6 1_565
O2 O1 Ga1 106.3(5) 5_455 1_565
O2 O1 Ga1 47.9(4) 2_565 1_565
O3 O1 Ga1 126.5(3) 6 1_565
O3 O1 Ga1 18.0(3) 2_565 1_565
O3 O1 Ga1 114.7(3) 5_455 1_565
O2 O1 Ga1 103.7(4) 6_556 1_565
O2 O1 Ga1 123.4(4) 5_456 1_565
O2 O1 Ga1 71.1(3) 2_566 1_565
Ga2 O1 Ga1 79.6(2) 2_565 1_565
Ga3 O1 Ga1 106.04(9) 2_565 1_565
Ga3 O1 Ga1 136.28(18) 1_556 1_565
Ga3 O1 Ga1 41.97(4) 4_456 1_565
O2 O1 Ga1 79.5(3) 4 1_565
O2 O1 Ga1 163.2(3) 3_455 1_565
O2 O1 Ga1 47.7(3) 1_565 1_565
O3 O1 Ga1 123.6(4) . 1_565
O3 O1 Ga1 24.80(16) 3_565 1_565
O3 O1 Ga1 95.4(2) 4_455 1_565
Ga3 O1 Ga1 90.9(2) 2_564 1_565
Ga3 O1 Ga1 111.1(3) . 1_565
Ga3 O1 Ga1 39.43(7) 4_455 1_565
O2 O1 Ga1 159.9(2) . 1_565
O2 O1 Ga1 43.74(19) 3_565 1_565
O2 O1 Ga1 82.03(19) 4_455 1_565
Nb O1 Ga1 116.80(13) . 1_565
Ga1 O1 Ga1 116.80(13) . 1_565
Ga1 O1 Ga1 116.79(13) 1_455 1_565
Nb O1 Ga1 116.79(13) 1_455 1_565
Ga2 O1 Nb 100.4(2) 2_566 1_565
La O1 Nb 147.3(6) . 1_565
La O1 Nb 46.32(5) 2_565 1_565
La O1 Nb 70.47(10) 4_455 1_565
O2 O1 Nb 86.6(4) 6 1_565
O2 O1 Nb 106.3(5) 5_455 1_565
O2 O1 Nb 47.9(4) 2_565 1_565
O3 O1 Nb 126.5(3) 6 1_565
O3 O1 Nb 18.0(3) 2_565 1_565
O3 O1 Nb 114.7(3) 5_455 1_565
O2 O1 Nb 103.7(4) 6_556 1_565
O2 O1 Nb 123.4(4) 5_456 1_565
O2 O1 Nb 71.1(3) 2_566 1_565
Ga2 O1 Nb 79.6(2) 2_565 1_565
Ga3 O1 Nb 106.04(9) 2_565 1_565
Ga3 O1 Nb 136.28(18) 1_556 1_565
Ga3 O1 Nb 41.97(4) 4_456 1_565
O2 O1 Nb 79.5(3) 4 1_565
O2 O1 Nb 163.2(3) 3_455 1_565
O2 O1 Nb 47.7(3) 1_565 1_565
O3 O1 Nb 123.6(4) . 1_565
O3 O1 Nb 24.80(16) 3_565 1_565
O3 O1 Nb 95.4(2) 4_455 1_565
Ga3 O1 Nb 90.9(2) 2_564 1_565
Ga3 O1 Nb 111.1(3) . 1_565
Ga3 O1 Nb 39.43(7) 4_455 1_565
O2 O1 Nb 159.9(2) . 1_565
O2 O1 Nb 43.74(19) 3_565 1_565
O2 O1 Nb 82.03(19) 4_455 1_565
Nb O1 Nb 116.80(13) . 1_565
Ga1 O1 Nb 116.80(13) . 1_565
Ga1 O1 Nb 116.79(13) 1_455 1_565
Nb O1 Nb 116.79(13) 1_455 1_565
Ga1 O1 Nb 0.0 1_565 1_565
Ga2 O1 O3 51.4(2) 2_566 1_556
La O1 O3 64.4(3) . 1_556
La O1 O3 102.8(2) 2_565 1_556
La O1 O3 147.4(4) 4_455 1_556
O2 O1 O3 99.7(4) 6 1_556
O2 O1 O3 116.6(4) 5_455 1_556
O2 O1 O3 157.8(4) 2_565 1_556
O3 O1 O3 33.8(4) 6 1_556
O3 O1 O3 116.6(4) 2_565 1_556
O3 O1 O3 99.8(4) 5_455 1_556
O2 O1 O3 31.8(4) 6_556 1_556
O2 O1 O3 53.6(4) 5_456 1_556
O2 O1 O3 81.1(5) 2_566 1_556
Ga2 O1 O3 128.6(2) 2_565 1_556
Ga3 O1 O3 31.02(18) 2_565 1_556
Ga3 O1 O3 69.1(3) 1_556 1_556
Ga3 O1 O3 109.4(4) 4_456 1_556
O2 O1 O3 60.6(3) 4 1_556
O2 O1 O3 59.3(4) 3_455 1_556
O2 O1 O3 130.6(6) 1_565 1_556
O3 O1 O3 67.3(2) . 1_556
O3 O1 O3 129.96(12) 3_565 1_556
O3 O1 O3 129.96(12) 4_455 1_556
Ga3 O1 O3 91.22(14) 2_564 1_556
Ga3 O1 O3 114.08(16) . 1_556
Ga3 O1 O3 160.1(2) 4_455 1_556
O2 O1 O3 36.1(2) . 1_556
O2 O1 O3 91.2(3) 3_565 1_556
O2 O1 O3 121.2(4) 4_455 1_556
Nb O1 O3 51.79(15) . 1_556
Ga1 O1 O3 51.79(15) . 1_556
Ga1 O1 O3 105.9(2) 1_455 1_556
Nb O1 O3 105.9(2) 1_455 1_556
Ga1 O1 O3 133.1(3) 1_565 1_556
Nb O1 O3 133.1(3) 1_565 1_556
Ga2 O1 O3 51.4(2) 2_566 3_566
La O1 O3 147.4(4) . 3_566
La O1 O3 64.4(3) 2_565 3_566
La O1 O3 102.8(2) 4_455 3_566
O2 O1 O3 116.6(4) 6 3_566
O2 O1 O3 157.8(4) 5_455 3_566
O2 O1 O3 99.7(4) 2_565 3_566
O3 O1 O3 99.8(4) 6 3_566
O3 O1 O3 33.8(4) 2_565 3_566
O3 O1 O3 116.6(4) 5_455 3_566
O2 O1 O3 53.6(4) 6_556 3_566
O2 O1 O3 81.1(5) 5_456 3_566
O2 O1 O3 31.8(4) 2_566 3_566
Ga2 O1 O3 128.6(2) 2_565 3_566
Ga3 O1 O3 69.1(3) 2_565 3_566
Ga3 O1 O3 109.4(4) 1_556 3_566
Ga3 O1 O3 31.02(18) 4_456 3_566
O2 O1 O3 59.3(4) 4 3_566
O2 O1 O3 130.6(6) 3_455 3_566
O2 O1 O3 60.6(3) 1_565 3_566
O3 O1 O3 129.96(12) . 3_566
O3 O1 O3 67.3(2) 3_565 3_566
O3 O1 O3 129.96(12) 4_455 3_566
Ga3 O1 O3 114.08(16) 2_564 3_566
Ga3 O1 O3 160.1(2) . 3_566
Ga3 O1 O3 91.22(14) 4_455 3_566
O2 O1 O3 121.2(4) . 3_566
O2 O1 O3 36.1(2) 3_565 3_566
O2 O1 O3 91.2(3) 4_455 3_566
Nb O1 O3 105.9(2) . 3_566
Ga1 O1 O3 105.9(2) . 3_566
Ga1 O1 O3 133.1(3) 1_455 3_566
Nb O1 O3 133.1(3) 1_455 3_566
Ga1 O1 O3 51.79(15) 1_565 3_566
Nb O1 O3 51.79(15) 1_565 3_566
O3 O1 O3 85.2(3) 1_556 3_566
Ga2 O1 O3 51.4(2) 2_566 4_456
La O1 O3 102.8(2) . 4_456
La O1 O3 147.4(4) 2_565 4_456
La O1 O3 64.4(3) 4_455 4_456
O2 O1 O3 157.8(4) 6 4_456
O2 O1 O3 99.7(4) 5_455 4_456
O2 O1 O3 116.6(4) 2_565 4_456
O3 O1 O3 116.6(4) 6 4_456
O3 O1 O3 99.8(4) 2_565 4_456
O3 O1 O3 33.8(4) 5_455 4_456
O2 O1 O3 81.1(5) 6_556 4_456
O2 O1 O3 31.8(4) 5_456 4_456
O2 O1 O3 53.6(4) 2_566 4_456
Ga2 O1 O3 128.6(2) 2_565 4_456
Ga3 O1 O3 109.4(4) 2_565 4_456
Ga3 O1 O3 31.02(18) 1_556 4_456
Ga3 O1 O3 69.1(3) 4_456 4_456
O2 O1 O3 130.6(6) 4 4_456
O2 O1 O3 60.6(3) 3_455 4_456
O2 O1 O3 59.3(4) 1_565 4_456
O3 O1 O3 129.96(12) . 4_456
O3 O1 O3 129.96(12) 3_565 4_456
O3 O1 O3 67.3(2) 4_455 4_456
Ga3 O1 O3 160.1(2) 2_564 4_456
Ga3 O1 O3 91.22(14) . 4_456
Ga3 O1 O3 114.08(16) 4_455 4_456
O2 O1 O3 91.2(3) . 4_456
O2 O1 O3 121.2(4) 3_565 4_456
O2 O1 O3 36.1(2) 4_455 4_456
Nb O1 O3 133.1(3) . 4_456
Ga1 O1 O3 133.1(3) . 4_456
Ga1 O1 O3 51.79(15) 1_455 4_456
Nb O1 O3 51.79(15) 1_455 4_456
Ga1 O1 O3 105.9(2) 1_565 4_456
Nb O1 O3 105.9(2) 1_565 4_456
O3 O1 O3 85.2(3) 1_556 4_456
O3 O1 O3 85.2(3) 3_566 4_456
Ga2 O1 La 29.41(11) 2_566 1_556
La O1 La 80.3(3) . 1_556
La O1 La 121.7(4) 2_565 1_556
La O1 La 121.7(4) 4_455 1_556
O2 O1 La 127.8(4) 6 1_556
O2 O1 La 123.2(3) 5_455 1_556
O2 O1 La 173.5(4) 2_565 1_556
O3 O1 La 62.2(3) 6 1_556
O3 O1 La 111.3(5) 2_565 1_556
O3 O1 La 78.9(3) 5_455 1_556
O2 O1 La 32.8(3) 6_556 1_556
O2 O1 La 25.7(4) 5_456 1_556
O2 O1 La 60.6(4) 2_566 1_556
Ga2 O1 La 150.59(11) 2_565 1_556
Ga3 O1 La 53.4(2) 2_565 1_556
Ga3 O1 La 49.09(19) 1_556 1_556
Ga3 O1 La 91.3(4) 4_456 1_556
O2 O1 La 80.6(3) 4 1_556
O2 O1 La 54.4(4) 3_455 1_556
O2 O1 La 104.7(5) 1_565 1_556
O3 O1 La 92.4(2) . 1_556
O3 O1 La 142.0(4) 3_565 1_556
O3 O1 La 115.1(2) 4_455 1_556
Ga3 O1 La 119.56(6) 2_564 1_556
Ga3 O1 La 116.65(6) . 1_556
Ga3 O1 La 166.2(3) 4_455 1_556
O2 O1 La 52.6(2) . 1_556
O2 O1 La 99.8(3) 3_565 1_556
O2 O1 La 93.5(3) 4_455 1_556
Nb O1 La 80.18(13) . 1_556
Ga1 O1 La 80.18(13) . 1_556
Ga1 O1 La 90.88(16) 1_455 1_556
Nb O1 La 90.88(16) 1_455 1_556
Ga1 O1 La 128.9(3) 1_565 1_556
Nb O1 La 128.9(3) 1_565 1_556
O3 O1 La 28.57(16) 1_556 1_556
O3 O1 La 77.7(3) 3_566 1_556
O3 O1 La 57.5(2) 4_456 1_556
Ga2 O1 La 29.41(11) 2_566 2_566
La O1 La 121.7(4) . 2_566
La O1 La 80.3(3) 2_565 2_566
La O1 La 121.7(4) 4_455 2_566
O2 O1 La 123.2(3) 6 2_566
O2 O1 La 173.5(4) 5_455 2_566
O2 O1 La 127.8(4) 2_565 2_566
O3 O1 La 78.9(3) 6 2_566
O3 O1 La 62.2(3) 2_565 2_566
O3 O1 La 111.3(5) 5_455 2_566
O2 O1 La 25.7(4) 6_556 2_566
O2 O1 La 60.6(4) 5_456 2_566
O2 O1 La 32.8(3) 2_566 2_566
Ga2 O1 La 150.59(11) 2_565 2_566
Ga3 O1 La 49.09(19) 2_565 2_566
Ga3 O1 La 91.3(4) 1_556 2_566
Ga3 O1 La 53.4(2) 4_456 2_566
O2 O1 La 54.4(4) 4 2_566
O2 O1 La 104.7(5) 3_455 2_566
O2 O1 La 80.6(3) 1_565 2_566
O3 O1 La 115.1(2) . 2_566
O3 O1 La 92.4(2) 3_565 2_566
O3 O1 La 142.0(4) 4_455 2_566
Ga3 O1 La 116.65(6) 2_564 2_566
Ga3 O1 La 166.2(3) . 2_566
Ga3 O1 La 119.56(6) 4_455 2_566
O2 O1 La 93.5(3) . 2_566
O2 O1 La 52.6(2) 3_565 2_566
O2 O1 La 99.8(3) 4_455 2_566
Nb O1 La 90.88(16) . 2_566
Ga1 O1 La 90.88(16) . 2_566
Ga1 O1 La 128.9(3) 1_455 2_566
Nb O1 La 128.9(3) 1_455 2_566
Ga1 O1 La 80.18(13) 1_565 2_566
Nb O1 La 80.18(13) 1_565 2_566
O3 O1 La 57.5(2) 1_556 2_566
O3 O1 La 28.57(16) 3_566 2_566
O3 O1 La 77.7(3) 4_456 2_566
La O1 La 50.33(18) 1_556 2_566
Ga2 O1 La 29.40(11) 2_566 4_456
La O1 La 121.7(4) . 4_456
La O1 La 121.7(4) 2_565 4_456
La O1 La 80.3(3) 4_455 4_456
O2 O1 La 173.5(4) 6 4_456
O2 O1 La 127.8(4) 5_455 4_456
O2 O1 La 123.2(3) 2_565 4_456
O3 O1 La 111.3(5) 6 4_456
O3 O1 La 78.9(3) 2_565 4_456
O3 O1 La 62.2(3) 5_455 4_456
O2 O1 La 60.6(4) 6_556 4_456
O2 O1 La 32.8(3) 5_456 4_456
O2 O1 La 25.7(4) 2_566 4_456
Ga2 O1 La 150.59(11) 2_565 4_456
Ga3 O1 La 91.3(4) 2_565 4_456
Ga3 O1 La 53.4(2) 1_556 4_456
Ga3 O1 La 49.09(19) 4_456 4_456
O2 O1 La 104.7(5) 4 4_456
O2 O1 La 80.6(3) 3_455 4_456
O2 O1 La 54.4(4) 1_565 4_456
O3 O1 La 142.0(4) . 4_456
O3 O1 La 115.1(2) 3_565 4_456
O3 O1 La 92.4(2) 4_455 4_456
Ga3 O1 La 166.2(3) 2_564 4_456
Ga3 O1 La 119.56(6) . 4_456
Ga3 O1 La 116.65(6) 4_455 4_456
O2 O1 La 99.8(3) . 4_456
O2 O1 La 93.5(3) 3_565 4_456
O2 O1 La 52.6(2) 4_455 4_456
Nb O1 La 128.9(3) . 4_456
Ga1 O1 La 128.9(3) . 4_456
Ga1 O1 La 80.18(13) 1_455 4_456
Nb O1 La 80.18(13) 1_455 4_456
Ga1 O1 La 90.88(16) 1_565 4_456
Nb O1 La 90.88(16) 1_565 4_456
O3 O1 La 77.7(3) 1_556 4_456
O3 O1 La 57.5(2) 3_566 4_456
O3 O1 La 28.57(16) 4_456 4_456
La O1 La 50.33(18) 1_556 4_456
La O1 La 50.33(18) 2_566 4_456
Ga2 O1 Ga2 71.1(2) 2_566 .
La O1 Ga2 40.64(18) . .
La O1 Ga2 135.64(3) 2_565 .
La O1 Ga2 111.84(5) 4_455 .
O2 O1 Ga2 100.4(4) 6 .
O2 O1 Ga2 81.5(3) 5_455 .
O2 O1 Ga2 140.2(5) 2_565 .
O3 O1 Ga2 53.9(3) 6 .
O3 O1 Ga2 153.9(5) 2_565 .
O3 O1 Ga2 65.2(3) 5_455 .
O2 O1 Ga2 69.1(4) 6_556 .
O2 O1 Ga2 48.9(4) 5_456 .
O2 O1 Ga2 100.6(5) 2_566 .
Ga2 O1 Ga2 108.9(2) 2_565 .
Ga3 O1 Ga2 70.36(13) 2_565 .
Ga3 O1 Ga2 40.04(6) 1_556 .
Ga3 O1 Ga2 130.2(4) 4_456 .
O2 O1 Ga2 98.4(3) 4 .
O2 O1 Ga2 18.4(3) 3_455 .
O2 O1 Ga2 128.3(4) 1_565 .
O3 O1 Ga2 62.6(2) . .
O3 O1 Ga2 160.9(3) 3_565 .
O3 O1 Ga2 88.96(16) 4_455 .
Ga3 O1 Ga2 95.45(9) 2_564 .
Ga3 O1 Ga2 76.31(6) . .
Ga3 O1 Ga2 148.5(3) 4_455 .
O2 O1 Ga2 22.35(19) . .
O2 O1 Ga2 132.3(3) 3_565 .
O2 O1 Ga2 96.4(2) 4_455 .
Nb O1 Ga2 66.01(3) . .
Ga1 O1 Ga2 66.01(3) . .
Ga1 O1 Ga2 66.01(3) 1_455 .
Nb O1 Ga2 66.01(3) 1_455 .
Ga1 O1 Ga2 171.5(4) 1_565 .
Nb O1 Ga2 171.5(4) 1_565 .
O3 O1 Ga2 41.32(18) 1_556 .
O3 O1 Ga2 120.1(4) 3_566 .
O3 O1 Ga2 69.1(2) 4_456 .
La O1 Ga2 42.70(10) 1_556 .
La O1 Ga2 91.9(3) 2_566 .
La O1 Ga2 81.7(2) 4_456 .
Ga2 O1 Ga2 71.1(2) 2_566 1_665
La O1 Ga2 111.84(5) . 1_665
La O1 Ga2 40.64(18) 2_565 1_665
La O1 Ga2 135.64(3) 4_455 1_665
O2 O1 Ga2 81.5(3) 6 1_665
O2 O1 Ga2 140.2(5) 5_455 1_665
O2 O1 Ga2 100.4(4) 2_565 1_665
O3 O1 Ga2 65.2(3) 6 1_665
O3 O1 Ga2 53.9(3) 2_565 1_665
O3 O1 Ga2 153.9(5) 5_455 1_665
O2 O1 Ga2 48.9(4) 6_556 1_665
O2 O1 Ga2 100.6(5) 5_456 1_665
O2 O1 Ga2 69.1(4) 2_566 1_665
Ga2 O1 Ga2 108.9(2) 2_565 1_665
Ga3 O1 Ga2 40.03(6) 2_565 1_665
Ga3 O1 Ga2 130.2(4) 1_556 1_665
Ga3 O1 Ga2 70.36(13) 4_456 1_665
O2 O1 Ga2 18.4(3) 4 1_665
O2 O1 Ga2 128.3(4) 3_455 1_665
O2 O1 Ga2 98.4(3) 1_565 1_665
O3 O1 Ga2 88.96(16) . 1_665
O3 O1 Ga2 62.6(2) 3_565 1_665
O3 O1 Ga2 160.9(3) 4_455 1_665
Ga3 O1 Ga2 76.31(6) 2_564 1_665
Ga3 O1 Ga2 148.5(3) . 1_665
Ga3 O1 Ga2 95.45(9) 4_455 1_665
O2 O1 Ga2 96.4(2) . 1_665
O2 O1 Ga2 22.4(2) 3_565 1_665
O2 O1 Ga2 132.3(3) 4_455 1_665
Nb O1 Ga2 66.01(3) . 1_665
Ga1 O1 Ga2 66.01(3) . 1_665
Ga1 O1 Ga2 171.5(4) 1_455 1_665
Nb O1 Ga2 171.5(4) 1_455 1_665
Ga1 O1 Ga2 66.01(3) 1_565 1_665
Nb O1 Ga2 66.01(3) 1_565 1_665
O3 O1 Ga2 69.1(2) 1_556 1_665
O3 O1 Ga2 41.32(18) 3_566 1_665
O3 O1 Ga2 120.1(4) 4_456 1_665
La O1 Ga2 81.7(2) 1_556 1_665
La O1 Ga2 42.70(10) 2_566 1_665
La O1 Ga2 91.9(3) 4_456 1_665
Ga2 O1 Ga2 110.05(19) . 1_665
Ga2 O1 Ga2 71.1(2) 2_566 1_565
La O1 Ga2 135.64(3) . 1_565
La O1 Ga2 111.84(5) 2_565 1_565
La O1 Ga2 40.64(18) 4_455 1_565
O2 O1 Ga2 140.2(5) 6 1_565
O2 O1 Ga2 100.4(4) 5_455 1_565
O2 O1 Ga2 81.5(3) 2_565 1_565
O3 O1 Ga2 153.9(5) 6 1_565
O3 O1 Ga2 65.2(3) 2_565 1_565
O3 O1 Ga2 53.9(3) 5_455 1_565
O2 O1 Ga2 100.6(5) 6_556 1_565
O2 O1 Ga2 69.1(4) 5_456 1_565
O2 O1 Ga2 48.9(4) 2_566 1_565
Ga2 O1 Ga2 108.9(2) 2_565 1_565
Ga3 O1 Ga2 130.2(4) 2_565 1_565
Ga3 O1 Ga2 70.36(13) 1_556 1_565
Ga3 O1 Ga2 40.03(6) 4_456 1_565
O2 O1 Ga2 128.3(4) 4 1_565
O2 O1 Ga2 98.4(3) 3_455 1_565
O2 O1 Ga2 18.4(3) 1_565 1_565
O3 O1 Ga2 160.9(3) . 1_565
O3 O1 Ga2 88.96(16) 3_565 1_565
O3 O1 Ga2 62.6(2) 4_455 1_565
Ga3 O1 Ga2 148.5(3) 2_564 1_565
Ga3 O1 Ga2 95.45(9) . 1_565
Ga3 O1 Ga2 76.31(6) 4_455 1_565
O2 O1 Ga2 132.3(3) . 1_565
O2 O1 Ga2 96.4(2) 3_565 1_565
O2 O1 Ga2 22.4(2) 4_455 1_565
Nb O1 Ga2 171.5(4) . 1_565
Ga1 O1 Ga2 171.5(4) . 1_565
Ga1 O1 Ga2 66.01(3) 1_455 1_565
Nb O1 Ga2 66.01(3) 1_455 1_565
Ga1 O1 Ga2 66.01(3) 1_565 1_565
Nb O1 Ga2 66.01(3) 1_565 1_565
O3 O1 Ga2 120.1(4) 1_556 1_565
O3 O1 Ga2 69.1(2) 3_566 1_565
O3 O1 Ga2 41.32(18) 4_456 1_565
La O1 Ga2 91.9(3) 1_556 1_565
La O1 Ga2 81.7(2) 2_566 1_565
La O1 Ga2 42.70(10) 4_456 1_565
Ga2 O1 Ga2 110.05(19) . 1_565
Ga2 O1 Ga2 110.05(19) 1_665 1_565
Ga2 O1 O1 110.2(4) 2_566 2_455
La O1 O1 12.08(4) . 2_455
La O1 O1 118.9(5) 2_565 2_455
La O1 O1 98.3(3) 4_455 2_455
O2 O1 O1 68.2(5) 6 2_455
O2 O1 O1 45.9(4) 5_455 2_455
O2 O1 O1 102.2(6) 2_565 2_455
O3 O1 O1 59.4(2) 6 2_455
O3 O1 O1 165.1(7) 2_565 2_455
O3 O1 O1 70.1(3) 5_455 2_455
O2 O1 O1 102.5(4) 6_556 2_455
O2 O1 O1 85.3(4) 5_456 2_455
O2 O1 O1 138.7(6) 2_566 2_455
Ga2 O1 O1 69.8(4) 2_565 2_455
Ga3 O1 O1 88.87(10) 2_565 2_455
Ga3 O1 O1 63.53(11) 1_556 2_455
Ga3 O1 O1 162.4(3) 4_456 2_455
O2 O1 O1 105.7(3) 4 2_455
O2 O1 O1 35.3(3) 3_455 2_455
O2 O1 O1 137.7(3) 1_565 2_455
O3 O1 O1 39.0(2) . 2_455
O3 O1 O1 128.1(6) 3_565 2_455
O3 O1 O1 70.3(3) 4_455 2_455
Ga3 O1 O1 66.8(3) 2_564 2_455
Ga3 O1 O1 43.7(2) . 2_455
Ga3 O1 O1 110.9(5) 4_455 2_455
O2 O1 O1 34.8(2) . 2_455
O2 O1 O1 139.8(2) 3_565 2_455
O2 O1 O1 101.9(2) 4_455 2_455
Nb O1 O1 58.40(7) . 2_455
Ga1 O1 O1 58.40(7) . 2_455
Ga1 O1 O1 58.40(7) 1_455 2_455
Nb O1 O1 58.40(7) 1_455 2_455
Ga1 O1 O1 149.3(6) 1_565 2_455
Nb O1 O1 149.3(6) 1_565 2_455
O3 O1 O1 70.8(3) 1_556 2_455
O3 O1 O1 156.0(5) 3_566 2_455
O3 O1 O1 93.6(2) 4_456 2_455
La O1 O1 81.5(3) 1_556 2_455
La O1 O1 127.9(4) 2_566 2_455
La O1 O1 115.9(3) 4_456 2_455
Ga2 O1 O1 39.1(2) . 2_455
Ga2 O1 O1 123.77(3) 1_665 2_455
Ga2 O1 O1 123.77(3) 1_565 2_455
Ga2 O1 O1 110.2(4) 2_566 2_565
La O1 O1 98.3(3) . 2_565
La O1 O1 12.08(4) 2_565 2_565
La O1 O1 118.9(5) 4_455 2_565
O2 O1 O1 45.9(4) 6 2_565
O2 O1 O1 102.2(6) 5_455 2_565
O2 O1 O1 68.2(5) 2_565 2_565
O3 O1 O1 70.1(3) 6 2_565
O3 O1 O1 59.4(2) 2_565 2_565
O3 O1 O1 165.1(7) 5_455 2_565
O2 O1 O1 85.3(4) 6_556 2_565
O2 O1 O1 138.7(6) 5_456 2_565
O2 O1 O1 102.5(4) 2_566 2_565
Ga2 O1 O1 69.8(4) 2_565 2_565
Ga3 O1 O1 63.53(11) 2_565 2_565
Ga3 O1 O1 162.4(3) 1_556 2_565
Ga3 O1 O1 88.87(10) 4_456 2_565
O2 O1 O1 35.3(3) 4 2_565
O2 O1 O1 137.7(3) 3_455 2_565
O2 O1 O1 105.7(3) 1_565 2_565
O3 O1 O1 70.3(3) . 2_565
O3 O1 O1 39.0(2) 3_565 2_565
O3 O1 O1 128.1(6) 4_455 2_565
Ga3 O1 O1 43.7(2) 2_564 2_565
Ga3 O1 O1 110.9(5) . 2_565
Ga3 O1 O1 66.8(3) 4_455 2_565
O2 O1 O1 101.9(2) . 2_565
O2 O1 O1 34.8(2) 3_565 2_565
O2 O1 O1 139.8(2) 4_455 2_565
Nb O1 O1 58.40(7) . 2_565
Ga1 O1 O1 58.40(7) . 2_565
Ga1 O1 O1 149.3(6) 1_455 2_565
Nb O1 O1 149.3(6) 1_455 2_565
Ga1 O1 O1 58.40(6) 1_565 2_565
Nb O1 O1 58.40(6) 1_565 2_565
O3 O1 O1 93.6(2) 1_556 2_565
O3 O1 O1 70.8(3) 3_566 2_565
O3 O1 O1 156.0(5) 4_456 2_565
La O1 O1 115.9(3) 1_556 2_565
La O1 O1 81.5(3) 2_566 2_565
La O1 O1 127.9(4) 4_456 2_565
Ga2 O1 O1 123.77(3) . 2_565
Ga2 O1 O1 39.1(2) 1_665 2_565
Ga2 O1 O1 123.77(3) 1_565 2_565
O1 O1 O1 108.7(4) 2_455 2_565
Ga2 O1 O1 110.2(4) 2_566 2_465
La O1 O1 118.9(5) . 2_465
La O1 O1 98.3(3) 2_565 2_465
La O1 O1 12.08(4) 4_455 2_465
O2 O1 O1 102.2(6) 6 2_465
O2 O1 O1 68.2(5) 5_455 2_465
O2 O1 O1 45.9(4) 2_565 2_465
O3 O1 O1 165.1(7) 6 2_465
O3 O1 O1 70.1(3) 2_565 2_465
O3 O1 O1 59.4(2) 5_455 2_465
O2 O1 O1 138.7(6) 6_556 2_465
O2 O1 O1 102.5(4) 5_456 2_465
O2 O1 O1 85.3(4) 2_566 2_465
Ga2 O1 O1 69.8(4) 2_565 2_465
Ga3 O1 O1 162.4(3) 2_565 2_465
Ga3 O1 O1 88.87(10) 1_556 2_465
Ga3 O1 O1 63.53(11) 4_456 2_465
O2 O1 O1 137.7(3) 4 2_465
O2 O1 O1 105.7(3) 3_455 2_465
O2 O1 O1 35.3(3) 1_565 2_465
O3 O1 O1 128.1(6) . 2_465
O3 O1 O1 70.3(3) 3_565 2_465
O3 O1 O1 39.0(2) 4_455 2_465
Ga3 O1 O1 110.9(5) 2_564 2_465
Ga3 O1 O1 66.8(3) . 2_465
Ga3 O1 O1 43.7(2) 4_455 2_465
O2 O1 O1 139.8(2) . 2_465
O2 O1 O1 101.9(2) 3_565 2_465
O2 O1 O1 34.8(2) 4_455 2_465
Nb O1 O1 149.3(6) . 2_465
Ga1 O1 O1 149.3(6) . 2_465
Ga1 O1 O1 58.40(7) 1_455 2_465
Nb O1 O1 58.40(7) 1_455 2_465
Ga1 O1 O1 58.40(7) 1_565 2_465
Nb O1 O1 58.40(7) 1_565 2_465
O3 O1 O1 156.0(5) 1_556 2_465
O3 O1 O1 93.6(2) 3_566 2_465
O3 O1 O1 70.8(3) 4_456 2_465
La O1 O1 127.9(4) 1_556 2_465
La O1 O1 115.9(3) 2_566 2_465
La O1 O1 81.5(3) 4_456 2_465
Ga2 O1 O1 123.77(3) . 2_465
Ga2 O1 O1 123.77(3) 1_665 2_465
Ga2 O1 O1 39.1(2) 1_565 2_465
O1 O1 O1 108.7(4) 2_455 2_465
O1 O1 O1 108.7(4) 2_565 2_465
Ga2 O1 O3 115.1(2) 2_566 4
La O1 O3 61.4(2) . 4
La O1 O3 49.11(19) 2_565 4
La O1 O3 134.7(6) 4_455 4
O2 O1 O3 30.5(3) 6 4
O2 O1 O3 84.2(5) 5_455 4
O2 O1 O3 85.1(5) 2_565 4
O3 O1 O3 40.3(4) 6 4
O3 O1 O3 96.6(3) 2_565 4
O3 O1 O3 142.3(4) 5_455 4
O2 O1 O3 83.8(3) 6_556 4
O2 O1 O3 126.2(4) 5_456 4
O2 O1 O3 127.2(4) 2_566 4
Ga2 O1 O3 64.9(2) 2_565 4
Ga3 O1 O3 53.18(15) 2_565 4
Ga3 O1 O3 128.90(14) 1_556 4
Ga3 O1 O3 124.69(14) 4_456 4
O2 O1 O3 42.4(4) 4 4
O2 O1 O3 100.7(3) 3_455 4
O2 O1 O3 142.4(4) 1_565 4
O3 O1 O3 33.6(3) . 4
O3 O1 O3 72.0(3) 3_565 4
O3 O1 O3 122.1(5) 4_455 4
Ga3 O1 O3 22.07(15) 2_564 4
Ga3 O1 O3 91.2(3) . 4
Ga3 O1 O3 88.6(3) 4_455 4
O2 O1 O3 66.7(3) . 4
O2 O1 O3 67.7(3) 3_565 4
O2 O1 O3 163.2(5) 4_455 4
Nb O1 O3 23.74(14) . 4
Ga1 O1 O3 23.74(14) . 4
Ga1 O1 O3 127.1(3) 1_455 4
Nb O1 O3 127.1(3) 1_455 4
Ga1 O1 O3 94.7(2) 1_565 4
Nb O1 O3 94.7(2) 1_565 4
O3 O1 O3 72.75(18) 1_556 4
O3 O1 O3 99.8(2) 3_566 4
O3 O1 O3 156.8(4) 4_456 4
La O1 O3 101.20(18) 1_556 4
La O1 O3 95.87(18) 2_566 4
La O1 O3 144.2(3) 4_456 4
Ga2 O1 O3 89.09(14) . 4
Ga2 O1 O3 58.89(14) 1_665 4
Ga2 O1 O3 160.73(19) 1_565 4
O1 O1 O3 72.6(2) 2_455 4
O1 O1 O3 37.36(18) 2_565 4
O1 O1 O3 130.8(6) 2_465 4
Ga2 O1 O3 115.1(2) 2_566 3_455
La O1 O3 49.11(19) . 3_455
La O1 O3 134.7(6) 2_565 3_455
La O1 O3 61.4(2) 4_455 3_455
O2 O1 O3 85.1(5) 6 3_455
O2 O1 O3 30.5(3) 5_455 3_455
O2 O1 O3 84.2(5) 2_565 3_455
O3 O1 O3 96.6(3) 6 3_455
O3 O1 O3 142.3(4) 2_565 3_455
O3 O1 O3 40.3(4) 5_455 3_455
O2 O1 O3 127.2(4) 6_556 3_455
O2 O1 O3 83.8(3) 5_456 3_455
O2 O1 O3 126.2(4) 2_566 3_455
Ga2 O1 O3 64.9(2) 2_565 3_455
Ga3 O1 O3 124.70(14) 2_565 3_455
Ga3 O1 O3 53.18(15) 1_556 3_455
Ga3 O1 O3 128.90(14) 4_456 3_455
O2 O1 O3 142.4(4) 4 3_455
O2 O1 O3 42.4(4) 3_455 3_455
O2 O1 O3 100.7(3) 1_565 3_455
O3 O1 O3 72.0(3) . 3_455
O3 O1 O3 122.1(5) 3_565 3_455
O3 O1 O3 33.6(3) 4_455 3_455
Ga3 O1 O3 88.6(3) 2_564 3_455
Ga3 O1 O3 22.07(15) . 3_455
Ga3 O1 O3 91.2(3) 4_455 3_455
O2 O1 O3 67.7(3) . 3_455
O2 O1 O3 163.2(5) 3_565 3_455
O2 O1 O3 66.7(3) 4_455 3_455
Nb O1 O3 94.7(2) . 3_455
Ga1 O1 O3 94.7(2) . 3_455
Ga1 O1 O3 23.74(14) 1_455 3_455
Nb O1 O3 23.74(14) 1_455 3_455
Ga1 O1 O3 127.1(3) 1_565 3_455
Nb O1 O3 127.1(3) 1_565 3_455
O3 O1 O3 99.8(2) 1_556 3_455
O3 O1 O3 156.8(4) 3_566 3_455
O3 O1 O3 72.75(18) 4_456 3_455
La O1 O3 95.87(18) 1_556 3_455
La O1 O3 144.2(3) 2_566 3_455
La O1 O3 101.20(18) 4_456 3_455
Ga2 O1 O3 58.89(14) . 3_455
Ga2 O1 O3 160.73(19) 1_665 3_455
Ga2 O1 O3 89.09(14) 1_565 3_455
O1 O1 O3 37.36(18) 2_455 3_455
O1 O1 O3 130.8(6) 2_565 3_455
O1 O1 O3 72.6(2) 2_465 3_455
O3 O1 O3 103.3(3) 4 3_455
Ga2 O1 O3 115.1(2) 2_566 1_565
La O1 O3 134.7(6) . 1_565
La O1 O3 61.4(2) 2_565 1_565
La O1 O3 49.11(19) 4_455 1_565
O2 O1 O3 84.2(5) 6 1_565
O2 O1 O3 85.1(5) 5_455 1_565
O2 O1 O3 30.5(3) 2_565 1_565
O3 O1 O3 142.3(4) 6 1_565
O3 O1 O3 40.3(4) 2_565 1_565
O3 O1 O3 96.6(3) 5_455 1_565
O2 O1 O3 126.2(4) 6_556 1_565
O2 O1 O3 127.2(4) 5_456 1_565
O2 O1 O3 83.8(3) 2_566 1_565
Ga2 O1 O3 64.9(2) 2_565 1_565
Ga3 O1 O3 128.90(14) 2_565 1_565
Ga3 O1 O3 124.69(14) 1_556 1_565
Ga3 O1 O3 53.18(15) 4_456 1_565
O2 O1 O3 100.7(3) 4 1_565
O2 O1 O3 142.4(4) 3_455 1_565
O2 O1 O3 42.4(4) 1_565 1_565
O3 O1 O3 122.1(5) . 1_565
O3 O1 O3 33.6(3) 3_565 1_565
O3 O1 O3 72.0(3) 4_455 1_565
Ga3 O1 O3 91.2(3) 2_564 1_565
Ga3 O1 O3 88.6(3) . 1_565
Ga3 O1 O3 22.07(15) 4_455 1_565
O2 O1 O3 163.2(5) . 1_565
O2 O1 O3 66.7(3) 3_565 1_565
O2 O1 O3 67.7(3) 4_455 1_565
Nb O1 O3 127.1(3) . 1_565
Ga1 O1 O3 127.1(3) . 1_565
Ga1 O1 O3 94.7(2) 1_455 1_565
Nb O1 O3 94.7(2) 1_455 1_565
Ga1 O1 O3 23.74(14) 1_565 1_565
Nb O1 O3 23.74(14) 1_565 1_565
O3 O1 O3 156.8(4) 1_556 1_565
O3 O1 O3 72.75(18) 3_566 1_565
O3 O1 O3 99.8(2) 4_456 1_565
La O1 O3 144.2(3) 1_556 1_565
La O1 O3 101.20(18) 2_566 1_565
La O1 O3 95.86(18) 4_456 1_565
Ga2 O1 O3 160.73(19) . 1_565
Ga2 O1 O3 89.09(14) 1_665 1_565
Ga2 O1 O3 58.89(14) 1_565 1_565
O1 O1 O3 130.8(6) 2_455 1_565
O1 O1 O3 72.6(2) 2_565 1_565
O1 O1 O3 37.36(18) 2_465 1_565
O3 O1 O3 103.3(3) 4 1_565
O3 O1 O3 103.3(3) 3_455 1_565
Ga2 O1 O1 0.0 2_566 1_556
La O1 O1 109.8(4) . 1_556
La O1 O1 109.8(4) 2_565 1_556
La O1 O1 109.8(4) 4_455 1_556
O2 O1 O1 145.5(3) 6 1_556
O2 O1 O1 145.5(3) 5_455 1_556
O2 O1 O1 145.5(3) 2_565 1_556
O3 O1 O1 83.5(4) 6 1_556
O3 O1 O1 83.5(4) 2_565 1_556
O3 O1 O1 83.5(4) 5_455 1_556
O2 O1 O1 31.3(3) 6_556 1_556
O2 O1 O1 31.3(3) 5_456 1_556
O2 O1 O1 31.3(3) 2_566 1_556
Ga2 O1 O1 179.999(1) 2_565 1_556
Ga3 O1 O1 61.9(3) 2_565 1_556
Ga3 O1 O1 61.9(3) 1_556 1_556
Ga3 O1 O1 61.9(3) 4_456 1_556
O2 O1 O1 79.2(4) 4 1_556
O2 O1 O1 79.2(4) 3_455 1_556
O2 O1 O1 79.2(4) 1_565 1_556
O3 O1 O1 118.7(3) . 1_556
O3 O1 O1 118.7(3) 3_565 1_556
O3 O1 O1 118.7(3) 4_455 1_556
Ga3 O1 O1 137.05(15) 2_564 1_556
Ga3 O1 O1 137.05(15) . 1_556
Ga3 O1 O1 137.05(15) 4_455 1_556
O2 O1 O1 81.7(3) . 1_556
O2 O1 O1 81.7(3) 3_565 1_556
O2 O1 O1 81.7(3) 4_455 1_556
Nb O1 O1 100.4(2) . 1_556
Ga1 O1 O1 100.4(2) . 1_556
Ga1 O1 O1 100.4(2) 1_455 1_556
Nb O1 O1 100.4(2) 1_455 1_556
Ga1 O1 O1 100.4(2) 1_565 1_556
Nb O1 O1 100.4(2) 1_565 1_556
O3 O1 O1 51.4(2) 1_556 1_556
O3 O1 O1 51.4(2) 3_566 1_556
O3 O1 O1 51.4(2) 4_456 1_556
La O1 O1 29.41(11) 1_556 1_556
La O1 O1 29.41(11) 2_566 1_556
La O1 O1 29.41(11) 4_456 1_556
Ga2 O1 O1 71.1(2) . 1_556
Ga2 O1 O1 71.1(2) 1_665 1_556
Ga2 O1 O1 71.1(2) 1_565 1_556
O1 O1 O1 110.2(4) 2_455 1_556
O1 O1 O1 110.2(4) 2_565 1_556
O1 O1 O1 110.2(4) 2_465 1_556
O3 O1 O1 115.1(2) 4 1_556
O3 O1 O1 115.1(2) 3_455 1_556
O3 O1 O1 115.1(2) 1_565 1_556
Ga2 O1 O1 180.0 2_566 1_554
La O1 O1 70.2(4) . 1_554
La O1 O1 70.2(4) 2_565 1_554
La O1 O1 70.2(4) 4_455 1_554
O2 O1 O1 34.5(3) 6 1_554
O2 O1 O1 34.5(3) 5_455 1_554
O2 O1 O1 34.5(3) 2_565 1_554
O3 O1 O1 96.5(4) 6 1_554
O3 O1 O1 96.5(4) 2_565 1_554
O3 O1 O1 96.5(4) 5_455 1_554
O2 O1 O1 148.7(3) 6_556 1_554
O2 O1 O1 148.7(3) 5_456 1_554
O2 O1 O1 148.7(3) 2_566 1_554
Ga2 O1 O1 0.0 2_565 1_554
Ga3 O1 O1 118.1(3) 2_565 1_554
Ga3 O1 O1 118.1(3) 1_556 1_554
Ga3 O1 O1 118.1(3) 4_456 1_554
O2 O1 O1 100.8(4) 4 1_554
O2 O1 O1 100.8(4) 3_455 1_554
O2 O1 O1 100.8(4) 1_565 1_554
O3 O1 O1 61.3(3) . 1_554
O3 O1 O1 61.3(3) 3_565 1_554
O3 O1 O1 61.3(3) 4_455 1_554
Ga3 O1 O1 42.95(15) 2_564 1_554
Ga3 O1 O1 42.95(15) . 1_554
Ga3 O1 O1 42.95(15) 4_455 1_554
O2 O1 O1 98.3(3) . 1_554
O2 O1 O1 98.3(3) 3_565 1_554
O2 O1 O1 98.3(3) 4_455 1_554
Nb O1 O1 79.6(2) . 1_554
Ga1 O1 O1 79.6(2) . 1_554
Ga1 O1 O1 79.6(2) 1_455 1_554
Nb O1 O1 79.6(2) 1_455 1_554
Ga1 O1 O1 79.6(2) 1_565 1_554
Nb O1 O1 79.6(2) 1_565 1_554
O3 O1 O1 128.6(2) 1_556 1_554
O3 O1 O1 128.6(2) 3_566 1_554
O3 O1 O1 128.6(2) 4_456 1_554
La O1 O1 150.59(10) 1_556 1_554
La O1 O1 150.59(11) 2_566 1_554
La O1 O1 150.59(10) 4_456 1_554
Ga2 O1 O1 108.9(2) . 1_554
Ga2 O1 O1 108.9(2) 1_665 1_554
Ga2 O1 O1 108.9(2) 1_565 1_554
O1 O1 O1 69.8(4) 2_455 1_554
O1 O1 O1 69.8(4) 2_565 1_554
O1 O1 O1 69.8(4) 2_465 1_554
O3 O1 O1 64.9(2) 4 1_554
O3 O1 O1 64.9(2) 3_455 1_554
O3 O1 O1 64.9(2) 1_565 1_554
O1 O1 O1 180.000(3) 1_556 1_554
Ga2 O1 Ga3 71.41(19) 2_566 4_446
La O1 Ga3 45.59(16) . 4_446
La O1 Ga3 100.56(6) 2_565 4_446
La O1 Ga3 147.11(3) 4_455 4_446
O2 O1 Ga3 82.5(4) 6 4_446
O2 O1 Ga3 98.3(3) 5_455 4_446
O2 O1 Ga3 140.8(4) 2_565 4_446
O3 O1 Ga3 19.7(3) 6 4_446
O3 O1 Ga3 129.9(3) 2_565 4_446
O3 O1 Ga3 101.0(3) 5_455 4_446
O2 O1 Ga3 50.6(3) 6_556 4_446
O2 O1 Ga3 67.6(4) 5_456 4_446
O2 O1 Ga3 101.4(4) 2_566 4_446
Ga2 O1 Ga3 108.59(19) 2_565 4_446
Ga3 O1 Ga3 37.13(7) 2_565 4_446
Ga3 O1 Ga3 73.44(14) 1_556 4_446
Ga3 O1 Ga3 129.2(4) 4_456 4_446
O2 O1 Ga3 63.0(3) 4 4_446
O2 O1 Ga3 53.6(3) 3_455 4_446
O2 O1 Ga3 150.2(6) 1_565 4_446
O3 O1 Ga3 47.4(2) . 4_446
O3 O1 Ga3 128.24(18) 3_565 4_446
O3 O1 Ga3 121.10(18) 4_455 4_446
Ga3 O1 Ga3 74.55(6) 2_564 4_446
Ga3 O1 Ga3 97.42(9) . 4_446
Ga3 O1 Ga3 146.9(3) 4_455 4_446
O2 O1 Ga3 20.08(19) . 4_446
O2 O1 Ga3 98.8(2) 3_565 4_446
O2 O1 Ga3 130.4(3) 4_455 4_446
Nb O1 Ga3 36.25(3) . 4_446
Ga1 O1 Ga3 36.25(3) . 4_446
Ga1 O1 Ga3 100.79(5) 1_455 4_446
Nb O1 Ga3 100.79(5) 1_455 4_446
Ga1 O1 Ga3 142.41(9) 1_565 4_446
Nb O1 Ga3 142.41(9) 1_565 4_446
O3 O1 Ga3 20.30(14) 1_556 4_446
O3 O1 Ga3 102.5(3) 3_566 4_446
O3 O1 Ga3 97.2(3) 4_456 4_446
La O1 Ga3 45.65(9) 1_556 4_446
La O1 Ga3 76.21(19) 2_566 4_446
La O1 Ga3 96.0(3) 4_456 4_446
Ga2 O1 Ga3 35.90(5) . 4_446
Ga2 O1 Ga3 76.83(11) 1_665 4_446
Ga2 O1 Ga3 136.7(3) 1_565 4_446
O1 O1 Ga3 53.79(14) 2_455 4_446
O1 O1 Ga3 89.23(7) 2_565 4_446
O1 O1 Ga3 159.19(4) 2_465 4_446
O3 O1 Ga3 59.62(14) 4 4_446
O3 O1 Ga3 87.74(14) 3_455 4_446
O3 O1 Ga3 161.87(19) 1_565 4_446
O1 O1 Ga3 71.41(19) 1_556 4_446
O1 O1 Ga3 108.59(19) 1_554 4_446
Ga2 O1 Ga3 71.41(19) 2_566 1_666
La O1 Ga3 147.11(3) . 1_666
La O1 Ga3 45.59(16) 2_565 1_666
La O1 Ga3 100.56(6) 4_455 1_666
O2 O1 Ga3 98.3(3) 6 1_666
O2 O1 Ga3 140.8(4) 5_455 1_666
O2 O1 Ga3 82.5(4) 2_565 1_666
O3 O1 Ga3 101.0(3) 6 1_666
O3 O1 Ga3 19.7(3) 2_565 1_666
O3 O1 Ga3 129.9(3) 5_455 1_666
O2 O1 Ga3 67.6(4) 6_556 1_666
O2 O1 Ga3 101.4(4) 5_456 1_666
O2 O1 Ga3 50.6(3) 2_566 1_666
Ga2 O1 Ga3 108.59(19) 2_565 1_666
Ga3 O1 Ga3 73.44(14) 2_565 1_666
Ga3 O1 Ga3 129.2(4) 1_556 1_666
Ga3 O1 Ga3 37.13(7) 4_456 1_666
O2 O1 Ga3 53.6(3) 4 1_666
O2 O1 Ga3 150.2(6) 3_455 1_666
O2 O1 Ga3 63.0(3) 1_565 1_666
O3 O1 Ga3 121.10(18) . 1_666
O3 O1 Ga3 47.4(2) 3_565 1_666
O3 O1 Ga3 128.23(18) 4_455 1_666
Ga3 O1 Ga3 97.42(9) 2_564 1_666
Ga3 O1 Ga3 146.9(3) . 1_666
Ga3 O1 Ga3 74.55(6) 4_455 1_666
O2 O1 Ga3 130.4(3) . 1_666
O2 O1 Ga3 20.08(19) 3_565 1_666
O2 O1 Ga3 98.8(2) 4_455 1_666
Nb O1 Ga3 100.79(5) . 1_666
Ga1 O1 Ga3 100.79(5) . 1_666
Ga1 O1 Ga3 142.41(9) 1_455 1_666
Nb O1 Ga3 142.41(9) 1_455 1_666
Ga1 O1 Ga3 36.25(3) 1_565 1_666
Nb O1 Ga3 36.25(3) 1_565 1_666
O3 O1 Ga3 97.2(3) 1_556 1_666
O3 O1 Ga3 20.30(15) 3_566 1_666
O3 O1 Ga3 102.5(3) 4_456 1_666
La O1 Ga3 96.0(3) 1_556 1_666
La O1 Ga3 45.65(9) 2_566 1_666
La O1 Ga3 76.21(19) 4_456 1_666
Ga2 O1 Ga3 136.7(3) . 1_666
Ga2 O1 Ga3 35.90(5) 1_665 1_666
Ga2 O1 Ga3 76.83(11) 1_565 1_666
O1 O1 Ga3 159.19(4) 2_455 1_666
O1 O1 Ga3 53.79(14) 2_565 1_666
O1 O1 Ga3 89.23(7) 2_465 1_666
O3 O1 Ga3 87.74(14) 4 1_666
O3 O1 Ga3 161.86(19) 3_455 1_666
O3 O1 Ga3 59.62(14) 1_565 1_666
O1 O1 Ga3 71.41(19) 1_556 1_666
O1 O1 Ga3 108.59(19) 1_554 1_666
Ga3 O1 Ga3 110.33(18) 4_446 1_666
Ga2 O1 Ga3 71.40(19) 2_566 2_465
La O1 Ga3 100.56(6) . 2_465
La O1 Ga3 147.11(3) 2_565 2_465
La O1 Ga3 45.59(16) 4_455 2_465
O2 O1 Ga3 140.8(4) 6 2_465
O2 O1 Ga3 82.5(4) 5_455 2_465
O2 O1 Ga3 98.3(3) 2_565 2_465
O3 O1 Ga3 129.9(3) 6 2_465
O3 O1 Ga3 101.0(3) 2_565 2_465
O3 O1 Ga3 19.7(3) 5_455 2_465
O2 O1 Ga3 101.4(4) 6_556 2_465
O2 O1 Ga3 50.6(3) 5_456 2_465
O2 O1 Ga3 67.6(4) 2_566 2_465
Ga2 O1 Ga3 108.59(19) 2_565 2_465
Ga3 O1 Ga3 129.2(4) 2_565 2_465
Ga3 O1 Ga3 37.13(7) 1_556 2_465
Ga3 O1 Ga3 73.44(14) 4_456 2_465
O2 O1 Ga3 150.2(6) 4 2_465
O2 O1 Ga3 63.0(3) 3_455 2_465
O2 O1 Ga3 53.6(3) 1_565 2_465
O3 O1 Ga3 128.24(18) . 2_465
O3 O1 Ga3 121.10(18) 3_565 2_465
O3 O1 Ga3 47.4(2) 4_455 2_465
Ga3 O1 Ga3 146.9(3) 2_564 2_465
Ga3 O1 Ga3 74.55(6) . 2_465
Ga3 O1 Ga3 97.42(9) 4_455 2_465
O2 O1 Ga3 98.8(2) . 2_465
O2 O1 Ga3 130.4(3) 3_565 2_465
O2 O1 Ga3 20.08(19) 4_455 2_465
Nb O1 Ga3 142.41(9) . 2_465
Ga1 O1 Ga3 142.41(9) . 2_465
Ga1 O1 Ga3 36.25(3) 1_455 2_465
Nb O1 Ga3 36.25(3) 1_455 2_465
Ga1 O1 Ga3 100.79(5) 1_565 2_465
Nb O1 Ga3 100.79(5) 1_565 2_465
O3 O1 Ga3 102.5(3) 1_556 2_465
O3 O1 Ga3 97.2(3) 3_566 2_465
O3 O1 Ga3 20.30(15) 4_456 2_465
La O1 Ga3 76.21(19) 1_556 2_465
La O1 Ga3 96.0(3) 2_566 2_465
La O1 Ga3 45.65(9) 4_456 2_465
Ga2 O1 Ga3 76.83(11) . 2_465
Ga2 O1 Ga3 136.7(3) 1_665 2_465
Ga2 O1 Ga3 35.90(5) 1_565 2_465
O1 O1 Ga3 89.23(7) 2_455 2_465
O1 O1 Ga3 159.19(4) 2_565 2_465
O1 O1 Ga3 53.79(14) 2_465 2_465
O3 O1 Ga3 161.87(19) 4 2_465
O3 O1 Ga3 59.62(14) 3_455 2_465
O3 O1 Ga3 87.74(14) 1_565 2_465
O1 O1 Ga3 71.41(19) 1_556 2_465
O1 O1 Ga3 108.59(19) 1_554 2_465
Ga3 O1 Ga3 110.33(18) 4_446 2_465
Ga3 O1 Ga3 110.33(18) 1_666 2_465
Ga2 O1 O3 86.2(2) 2_566 5
La O1 O3 66.52(15) . 5
La O1 O3 60.40(13) 2_565 5
La O1 O3 163.7(6) 4_455 5
O2 O1 O3 59.5(3) 6 5
O2 O1 O3 107.4(4) 5_455 5
O2 O1 O3 112.0(5) 2_565 5
O3 O1 O3 22.3(4) 6 5
O3 O1 O3 97.3(4) 2_565 5
O3 O1 O3 140.9(4) 5_455 5
O2 O1 O3 55.0(3) 6_556 5
O2 O1 O3 99.6(5) 5_456 5
O2 O1 O3 103.7(4) 2_566 5
Ga2 O1 O3 93.8(2) 2_565 5
Ga3 O1 O3 24.27(16) 2_565 5
Ga3 O1 O3 113.2(2) 1_556 5
Ga3 O1 O3 115.0(2) 4_456 5
O2 O1 O3 27.4(3) 4 5
O2 O1 O3 92.5(3) 3_455 5
O2 O1 O3 143.8(3) 1_565 5
O3 O1 O3 46.2(3) . 5
O3 O1 O3 88.2(3) 3_565 5
O3 O1 O3 145.1(3) 4_455 5
Ga3 O1 O3 50.88(14) 2_564 5
Ga3 O1 O3 112.2(2) . 5
Ga3 O1 O3 113.6(2) 4_455 5
O2 O1 O3 55.8(2) . 5
O2 O1 O3 63.8(2) 3_565 5
O2 O1 O3 167.3(4) 4_455 5
Nb O1 O3 21.54(15) . 5
Ga1 O1 O3 21.54(15) . 5
Ga1 O1 O3 136.09(14) 1_455 5
Nb O1 O3 136.09(14) 1_455 5
Ga1 O1 O3 104.24(14) 1_565 5
Nb O1 O3 104.24(14) 1_565 5
O3 O1 O3 46.6(3) 1_556 5
O3 O1 O3 84.4(2) 3_566 5
O3 O1 O3 131.3(3) 4_456 5
La O1 O3 73.88(18) 1_556 5
La O1 O3 70.88(18) 2_566 5
La O1 O3 115.5(3) 4_456 5
Ga2 O1 O3 75.73(14) . 5
Ga2 O1 O3 45.32(14) 1_665 5
Ga2 O1 O3 152.2(3) 1_565 5
O1 O1 O3 78.46(14) 2_455 5
O1 O1 O3 49.24(14) 2_565 5
O1 O1 O3 157.2(4) 2_465 5
O3 O1 O3 29.1(3) 4 5
O3 O1 O3 115.57(16) 3_455 5
O3 O1 O3 121.81(16) 1_565 5
O1 O1 O3 86.2(2) 1_556 5
O1 O1 O3 93.8(2) 1_554 5
Ga3 O1 O3 40.17(13) 4_446 5
Ga3 O1 O3 80.99(15) 1_666 5
Ga3 O1 O3 149.0(3) 2_465 5
Ga2 O1 O3 86.2(2) 2_566 2_455
La O1 O3 60.40(13) . 2_455
La O1 O3 163.7(6) 2_565 2_455
La O1 O3 66.52(15) 4_455 2_455
O2 O1 O3 112.0(5) 6 2_455
O2 O1 O3 59.5(3) 5_455 2_455
O2 O1 O3 107.4(4) 2_565 2_455
O3 O1 O3 97.3(4) 6 2_455
O3 O1 O3 140.9(4) 2_565 2_455
O3 O1 O3 22.3(4) 5_455 2_455
O2 O1 O3 103.7(4) 6_556 2_455
O2 O1 O3 55.0(3) 5_456 2_455
O2 O1 O3 99.6(5) 2_566 2_455
Ga2 O1 O3 93.8(2) 2_565 2_455
Ga3 O1 O3 115.0(2) 2_565 2_455
Ga3 O1 O3 24.27(16) 1_556 2_455
Ga3 O1 O3 113.2(2) 4_456 2_455
O2 O1 O3 143.8(3) 4 2_455
O2 O1 O3 27.4(3) 3_455 2_455
O2 O1 O3 92.5(3) 1_565 2_455
O3 O1 O3 88.2(3) . 2_455
O3 O1 O3 145.1(3) 3_565 2_455
O3 O1 O3 46.2(3) 4_455 2_455
Ga3 O1 O3 113.6(2) 2_564 2_455
Ga3 O1 O3 50.88(14) . 2_455
Ga3 O1 O3 112.2(2) 4_455 2_455
O2 O1 O3 63.8(2) . 2_455
O2 O1 O3 167.3(4) 3_565 2_455
O2 O1 O3 55.8(2) 4_455 2_455
Nb O1 O3 104.24(13) . 2_455
Ga1 O1 O3 104.24(13) . 2_455
Ga1 O1 O3 21.54(15) 1_455 2_455
Nb O1 O3 21.54(15) 1_455 2_455
Ga1 O1 O3 136.09(14) 1_565 2_455
Nb O1 O3 136.09(14) 1_565 2_455
O3 O1 O3 84.4(2) 1_556 2_455
O3 O1 O3 131.3(3) 3_566 2_455
O3 O1 O3 46.6(3) 4_456 2_455
La O1 O3 70.88(18) 1_556 2_455
La O1 O3 115.5(3) 2_566 2_455
La O1 O3 73.88(18) 4_456 2_455
Ga2 O1 O3 45.32(14) . 2_455
Ga2 O1 O3 152.2(3) 1_665 2_455
Ga2 O1 O3 75.73(14) 1_565 2_455
O1 O1 O3 49.24(14) 2_455 2_455
O1 O1 O3 157.2(4) 2_565 2_455
O1 O1 O3 78.46(14) 2_465 2_455
O3 O1 O3 121.81(16) 4 2_455
O3 O1 O3 29.1(3) 3_455 2_455
O3 O1 O3 115.57(16) 1_565 2_455
O1 O1 O3 86.2(2) 1_556 2_455
O1 O1 O3 93.8(2) 1_554 2_455
Ga3 O1 O3 80.99(15) 4_446 2_455
Ga3 O1 O3 149.0(3) 1_666 2_455
Ga3 O1 O3 40.17(13) 2_465 2_455
O3 O1 O3 119.56(5) 5 2_455
Ga2 O1 O3 86.2(2) 2_566 6_565
La O1 O3 163.7(6) . 6_565
La O1 O3 66.52(15) 2_565 6_565
La O1 O3 60.40(13) 4_455 6_565
O2 O1 O3 107.4(4) 6 6_565
O2 O1 O3 112.0(5) 5_455 6_565
O2 O1 O3 59.5(3) 2_565 6_565
O3 O1 O3 140.9(4) 6 6_565
O3 O1 O3 22.3(4) 2_565 6_565
O3 O1 O3 97.3(4) 5_455 6_565
O2 O1 O3 99.6(5) 6_556 6_565
O2 O1 O3 103.7(4) 5_456 6_565
O2 O1 O3 55.0(3) 2_566 6_565
Ga2 O1 O3 93.8(2) 2_565 6_565
Ga3 O1 O3 113.2(2) 2_565 6_565
Ga3 O1 O3 115.0(2) 1_556 6_565
Ga3 O1 O3 24.27(16) 4_456 6_565
O2 O1 O3 92.5(3) 4 6_565
O2 O1 O3 143.8(3) 3_455 6_565
O2 O1 O3 27.4(3) 1_565 6_565
O3 O1 O3 145.1(3) . 6_565
O3 O1 O3 46.2(3) 3_565 6_565
O3 O1 O3 88.2(3) 4_455 6_565
Ga3 O1 O3 112.2(2) 2_564 6_565
Ga3 O1 O3 113.6(2) . 6_565
Ga3 O1 O3 50.88(14) 4_455 6_565
O2 O1 O3 167.3(4) . 6_565
O2 O1 O3 55.8(2) 3_565 6_565
O2 O1 O3 63.8(2) 4_455 6_565
Nb O1 O3 136.09(14) . 6_565
Ga1 O1 O3 136.09(14) . 6_565
Ga1 O1 O3 104.24(14) 1_455 6_565
Nb O1 O3 104.24(14) 1_455 6_565
Ga1 O1 O3 21.54(15) 1_565 6_565
Nb O1 O3 21.54(15) 1_565 6_565
O3 O1 O3 131.3(3) 1_556 6_565
O3 O1 O3 46.6(3) 3_566 6_565
O3 O1 O3 84.4(2) 4_456 6_565
La O1 O3 115.5(3) 1_556 6_565
La O1 O3 73.88(18) 2_566 6_565
La O1 O3 70.88(18) 4_456 6_565
Ga2 O1 O3 152.2(3) . 6_565
Ga2 O1 O3 75.73(14) 1_665 6_565
Ga2 O1 O3 45.32(14) 1_565 6_565
O1 O1 O3 157.2(4) 2_455 6_565
O1 O1 O3 78.46(14) 2_565 6_565
O1 O1 O3 49.24(14) 2_465 6_565
O3 O1 O3 115.56(16) 4 6_565
O3 O1 O3 121.81(16) 3_455 6_565
O3 O1 O3 29.1(3) 1_565 6_565
O1 O1 O3 86.2(2) 1_556 6_565
O1 O1 O3 93.8(2) 1_554 6_565
Ga3 O1 O3 149.0(3) 4_446 6_565
Ga3 O1 O3 40.17(13) 1_666 6_565
Ga3 O1 O3 80.99(15) 2_465 6_565
O3 O1 O3 119.56(5) 5 6_565
O3 O1 O3 119.56(5) 2_455 6_565
Ga2 O1 O3 55.7(2) 2_566 4_556
La O1 O3 83.4(2) . 4_556
La O1 O3 74.0(2) 2_565 4_556
La O1 O3 164.2(6) 4_455 4_556
O2 O1 O3 89.8(3) 6 4_556
O2 O1 O3 133.7(4) 5_455 4_556
O2 O1 O3 134.8(5) 2_565 4_556
O3 O1 O3 36.5(3) 6 4_556
O3 O1 O3 89.9(3) 2_565 4_556
O3 O1 O3 127.9(5) 5_455 4_556
O2 O1 O3 24.4(3) 6_556 4_556
O2 O1 O3 74.2(5) 5_456 4_556
O2 O1 O3 74.9(4) 2_566 4_556
Ga2 O1 O3 124.3(2) 2_565 4_556
Ga3 O1 O3 6.56(18) 2_565 4_556
Ga3 O1 O3 97.2(3) 1_556 4_556
Ga3 O1 O3 94.1(3) 4_456 4_556
O2 O1 O3 31.6(3) 4 4_556
O2 O1 O3 89.4(4) 3_455 4_556
O2 O1 O3 122.9(4) 1_565 4_556
O3 O1 O3 72.33(19) . 4_556
O3 O1 O3 100.0(2) 3_565 4_556
O3 O1 O3 160.2(3) 4_455 4_556
Ga3 O1 O3 81.37(16) 2_564 4_556
Ga3 O1 O3 135.58(17) . 4_556
Ga3 O1 O3 132.29(16) 4_455 4_556
O2 O1 O3 60.2(3) . 4_556
O2 O1 O3 61.1(3) 3_565 4_556
O2 O1 O3 137.5(5) 4_455 4_556
Nb O1 O3 48.48(16) . 4_556
Ga1 O1 O3 48.48(16) . 4_556
Ga1 O1 O3 136.2(2) 1_455 4_556
Nb O1 O3 136.2(2) 1_455 4_556
Ga1 O1 O3 104.31(17) 1_565 4_556
Nb O1 O3 104.31(17) 1_565 4_556
O3 O1 O3 30.4(3) 1_556 4_556
O3 O1 O3 64.1(3) 3_566 4_556
O3 O1 O3 104.2(4) 4_456 4_556
La O1 O3 49.4(2) 1_556 4_556
La O1 O3 42.8(2) 2_566 4_556
La O1 O3 85.0(3) 4_456 4_556
Ga2 O1 O3 71.22(18) . 4_556
Ga2 O1 O3 38.86(14) 1_665 4_556
Ga2 O1 O3 123.6(4) 1_565 4_556
O1 O1 O3 93.2(2) 2_455 4_556
O1 O1 O3 66.6(2) 2_565 4_556
O1 O1 O3 157.6(4) 2_465 4_556
O3 O1 O3 59.35(16) 4 4_556
O3 O1 O3 127.80(8) 3_455 4_556
O3 O1 O3 127.80(8) 1_565 4_556
O1 O1 O3 55.7(2) 1_556 4_556
O1 O1 O3 124.3(2) 1_554 4_556
Ga3 O1 O3 40.17(15) 4_446 4_556
Ga3 O1 O3 70.20(18) 1_666 4_556
Ga3 O1 O3 124.3(4) 2_465 4_556
O3 O1 O3 30.6(3) 5 4_556
O3 O1 O3 114.7(2) 2_455 4_556
O3 O1 O3 109.3(2) 6_565 4_556
Ga2 O1 O3 55.7(2) 2_566 3_456
La O1 O3 74.0(2) . 3_456
La O1 O3 164.2(6) 2_565 3_456
La O1 O3 83.4(2) 4_455 3_456
O2 O1 O3 134.8(5) 6 3_456
O2 O1 O3 89.8(3) 5_455 3_456
O2 O1 O3 133.7(4) 2_565 3_456
O3 O1 O3 89.9(3) 6 3_456
O3 O1 O3 127.9(5) 2_565 3_456
O3 O1 O3 36.5(3) 5_455 3_456
O2 O1 O3 74.9(4) 6_556 3_456
O2 O1 O3 24.4(3) 5_456 3_456
O2 O1 O3 74.2(5) 2_566 3_456
Ga2 O1 O3 124.3(2) 2_565 3_456
Ga3 O1 O3 94.1(3) 2_565 3_456
Ga3 O1 O3 6.56(18) 1_556 3_456
Ga3 O1 O3 97.2(3) 4_456 3_456
O2 O1 O3 122.9(4) 4 3_456
O2 O1 O3 31.6(3) 3_455 3_456
O2 O1 O3 89.4(4) 1_565 3_456
O3 O1 O3 100.0(2) . 3_456
O3 O1 O3 160.2(3) 3_565 3_456
O3 O1 O3 72.33(19) 4_455 3_456
Ga3 O1 O3 132.29(16) 2_564 3_456
Ga3 O1 O3 81.37(16) . 3_456
Ga3 O1 O3 135.58(17) 4_455 3_456
O2 O1 O3 61.1(3) . 3_456
O2 O1 O3 137.5(5) 3_565 3_456
O2 O1 O3 60.2(3) 4_455 3_456
Nb O1 O3 104.31(17) . 3_456
Ga1 O1 O3 104.31(17) . 3_456
Ga1 O1 O3 48.48(16) 1_455 3_456
Nb O1 O3 48.48(16) 1_455 3_456
Ga1 O1 O3 136.2(2) 1_565 3_456
Nb O1 O3 136.2(2) 1_565 3_456
O3 O1 O3 64.1(3) 1_556 3_456
O3 O1 O3 104.2(4) 3_566 3_456
O3 O1 O3 30.4(3) 4_456 3_456
La O1 O3 42.8(2) 1_556 3_456
La O1 O3 85.0(3) 2_566 3_456
La O1 O3 49.4(2) 4_456 3_456
Ga2 O1 O3 38.86(14) . 3_456
Ga2 O1 O3 123.6(4) 1_665 3_456
Ga2 O1 O3 71.22(18) 1_565 3_456
O1 O1 O3 66.6(2) 2_455 3_456
O1 O1 O3 157.6(4) 2_565 3_456
O1 O1 O3 93.2(2) 2_465 3_456
O3 O1 O3 127.80(8) 4 3_456
O3 O1 O3 59.35(16) 3_455 3_456
O3 O1 O3 127.80(8) 1_565 3_456
O1 O1 O3 55.7(2) 1_556 3_456
O1 O1 O3 124.3(2) 1_554 3_456
Ga3 O1 O3 70.20(18) 4_446 3_456
Ga3 O1 O3 124.3(4) 1_666 3_456
Ga3 O1 O3 40.17(15) 2_465 3_456
O3 O1 O3 109.3(2) 5 3_456
O3 O1 O3 30.6(3) 2_455 3_456
O3 O1 O3 114.7(2) 6_565 3_456
O3 O1 O3 91.4(3) 4_556 3_456
Ga2 O1 O3 55.7(2) 2_566 1_566
La O1 O3 164.2(6) . 1_566
La O1 O3 83.4(2) 2_565 1_566
La O1 O3 74.0(2) 4_455 1_566
O2 O1 O3 133.7(4) 6 1_566
O2 O1 O3 134.8(5) 5_455 1_566
O2 O1 O3 89.8(3) 2_565 1_566
O3 O1 O3 127.9(5) 6 1_566
O3 O1 O3 36.5(3) 2_565 1_566
O3 O1 O3 89.9(3) 5_455 1_566
O2 O1 O3 74.2(5) 6_556 1_566
O2 O1 O3 74.9(4) 5_456 1_566
O2 O1 O3 24.4(3) 2_566 1_566
Ga2 O1 O3 124.3(2) 2_565 1_566
Ga3 O1 O3 97.2(3) 2_565 1_566
Ga3 O1 O3 94.1(3) 1_556 1_566
Ga3 O1 O3 6.56(18) 4_456 1_566
O2 O1 O3 89.4(4) 4 1_566
O2 O1 O3 122.9(4) 3_455 1_566
O2 O1 O3 31.6(3) 1_565 1_566
O3 O1 O3 160.2(3) . 1_566
O3 O1 O3 72.33(19) 3_565 1_566
O3 O1 O3 100.0(2) 4_455 1_566
Ga3 O1 O3 135.58(17) 2_564 1_566
Ga3 O1 O3 132.29(16) . 1_566
Ga3 O1 O3 81.37(16) 4_455 1_566
O2 O1 O3 137.5(5) . 1_566
O2 O1 O3 60.2(3) 3_565 1_566
O2 O1 O3 61.1(3) 4_455 1_566
Nb O1 O3 136.2(2) . 1_566
Ga1 O1 O3 136.2(2) . 1_566
Ga1 O1 O3 104.31(17) 1_455 1_566
Nb O1 O3 104.31(17) 1_455 1_566
Ga1 O1 O3 48.48(16) 1_565 1_566
Nb O1 O3 48.48(16) 1_565 1_566
O3 O1 O3 104.2(4) 1_556 1_566
O3 O1 O3 30.4(3) 3_566 1_566
O3 O1 O3 64.1(3) 4_456 1_566
La O1 O3 85.0(3) 1_556 1_566
La O1 O3 49.4(2) 2_566 1_566
La O1 O3 42.8(2) 4_456 1_566
Ga2 O1 O3 123.6(4) . 1_566
Ga2 O1 O3 71.22(18) 1_665 1_566
Ga2 O1 O3 38.86(14) 1_565 1_566
O1 O1 O3 157.6(4) 2_455 1_566
O1 O1 O3 93.2(2) 2_565 1_566
O1 O1 O3 66.6(2) 2_465 1_566
O3 O1 O3 127.80(8) 4 1_566
O3 O1 O3 127.80(8) 3_455 1_566
O3 O1 O3 59.35(16) 1_565 1_566
O1 O1 O3 55.7(2) 1_556 1_566
O1 O1 O3 124.3(2) 1_554 1_566
Ga3 O1 O3 124.3(4) 4_446 1_566
Ga3 O1 O3 40.17(15) 1_666 1_566
Ga3 O1 O3 70.20(18) 2_465 1_566
O3 O1 O3 114.7(2) 5 1_566
O3 O1 O3 109.3(2) 2_455 1_566
O3 O1 O3 30.6(3) 6_565 1_566
O3 O1 O3 91.4(3) 4_556 1_566
O3 O1 O3 91.4(3) 3_456 1_566
Ga2 O1 O3 146.49(16) 2_566 6_554
La O1 O3 47.7(3) . 6_554
La O1 O3 67.5(3) 2_565 6_554
La O1 O3 102.1(5) 4_455 6_554
O2 O1 O3 14.8(4) 6 6_554
O2 O1 O3 48.0(4) 5_455 6_554
O2 O1 O3 64.8(4) 2_565 6_554
O3 O1 O3 63.0(3) 6 6_554
O3 O1 O3 111.6(4) 2_565 6_554
O3 O1 O3 111.6(4) 5_455 6_554
O2 O1 O3 117.1(3) 6_556 6_554
O2 O1 O3 136.8(4) 5_456 6_554
O2 O1 O3 162.2(4) 2_566 6_554
Ga2 O1 O3 33.52(16) 2_565 6_554
Ga3 O1 O3 86.8(2) 2_565 6_554
Ga3 O1 O3 116.7(3) 1_556 6_554
Ga3 O1 O3 141.5(3) 4_456 6_554
O2 O1 O3 78.5(4) 4 6_554
O2 O1 O3 88.9(4) 3_455 6_554
O2 O1 O3 133.6(5) 1_565 6_554
O3 O1 O3 29.1(4) . 6_554
O3 O1 O3 75.5(3) 3_565 6_554
O3 O1 O3 85.6(4) 4_455 6_554
Ga3 O1 O3 17.09(14) 2_564 6_554
Ga3 O1 O3 55.5(2) . 6_554
Ga3 O1 O3 72.0(3) 4_455 6_554
O2 O1 O3 70.4(3) . 6_554
O2 O1 O3 94.8(3) 3_565 6_554
O2 O1 O3 127.6(4) 4_455 6_554
Nb O1 O3 46.29(18) . 6_554
Ga1 O1 O3 46.29(18) . 6_554
Ga1 O1 O3 94.0(3) 1_455 6_554
Nb O1 O3 94.0(3) 1_455 6_554
Ga1 O1 O3 99.7(3) 1_565 6_554
Nb O1 O3 99.7(3) 1_565 6_554
O3 O1 O3 95.6(2) 1_556 6_554
O3 O1 O3 130.8(3) 3_566 6_554
O3 O1 O3 143.9(2) 4_456 6_554
La O1 O3 121.48(15) 1_556 6_554
La O1 O3 132.37(12) 2_566 6_554
La O1 O3 169.39(17) 4_456 6_554
Ga2 O1 O3 87.9(2) . 6_554
Ga2 O1 O3 93.29(17) 1_665 6_554
Ga2 O1 O3 142.1(3) 1_565 6_554
O1 O1 O3 53.7(4) 2_455 6_554
O1 O1 O3 60.1(3) 2_565 6_554
O1 O1 O3 103.1(5) 2_465 6_554
O3 O1 O3 36.5(3) 4 6_554
O3 O1 O3 71.6(3) 3_455 6_554
O3 O1 O3 93.4(3) 1_565 6_554
O1 O1 O3 146.49(16) 1_556 6_554
O1 O1 O3 33.51(16) 1_554 6_554
Ga3 O1 O3 76.28(18) 4_446 6_554
Ga3 O1 O3 113.1(2) 1_666 6_554
Ga3 O1 O3 130.0(3) 2_465 6_554
O3 O1 O3 62.97(17) 5 6_554
O3 O1 O3 97.5(3) 2_455 6_554
O3 O1 O3 119.4(3) 6_565 6_554
O3 O1 O3 93.4(3) 4_556 6_554
O3 O1 O3 120.3(3) 3_456 6_554
O3 O1 O3 147.8(2) 1_566 6_554
Ga2 O1 O3 146.48(16) 2_566 2_564
La O1 O3 102.1(5) . 2_564
La O1 O3 47.7(3) 2_565 2_564
La O1 O3 67.5(3) 4_455 2_564
O2 O1 O3 48.0(4) 6 2_564
O2 O1 O3 64.8(4) 5_455 2_564
O2 O1 O3 14.8(4) 2_565 2_564
O3 O1 O3 111.6(4) 6 2_564
O3 O1 O3 63.0(3) 2_565 2_564
O3 O1 O3 111.6(4) 5_455 2_564
O2 O1 O3 136.8(4) 6_556 2_564
O2 O1 O3 162.2(4) 5_456 2_564
O2 O1 O3 117.1(3) 2_566 2_564
Ga2 O1 O3 33.51(16) 2_565 2_564
Ga3 O1 O3 116.7(3) 2_565 2_564
Ga3 O1 O3 141.5(3) 1_556 2_564
Ga3 O1 O3 86.8(2) 4_456 2_564
O2 O1 O3 88.9(4) 4 2_564
O2 O1 O3 133.6(5) 3_455 2_564
O2 O1 O3 78.5(4) 1_565 2_564
O3 O1 O3 85.6(4) . 2_564
O3 O1 O3 29.1(4) 3_565 2_564
O3 O1 O3 75.5(3) 4_455 2_564
Ga3 O1 O3 55.5(2) 2_564 2_564
Ga3 O1 O3 72.0(3) . 2_564
Ga3 O1 O3 17.09(14) 4_455 2_564
O2 O1 O3 127.6(4) . 2_564
O2 O1 O3 70.4(3) 3_565 2_564
O2 O1 O3 94.8(3) 4_455 2_564
Nb O1 O3 94.0(3) . 2_564
Ga1 O1 O3 94.0(3) . 2_564
Ga1 O1 O3 99.7(3) 1_455 2_564
Nb O1 O3 99.7(3) 1_455 2_564
Ga1 O1 O3 46.29(18) 1_565 2_564
Nb O1 O3 46.29(18) 1_565 2_564
O3 O1 O3 143.9(2) 1_556 2_564
O3 O1 O3 95.6(2) 3_566 2_564
O3 O1 O3 130.8(3) 4_456 2_564
La O1 O3 169.39(17) 1_556 2_564
La O1 O3 121.48(15) 2_566 2_564
La O1 O3 132.37(12) 4_456 2_564
Ga2 O1 O3 142.1(3) . 2_564
Ga2 O1 O3 87.9(2) 1_665 2_564
Ga2 O1 O3 93.29(17) 1_565 2_564
O1 O1 O3 103.1(5) 2_455 2_564
O1 O1 O3 53.6(4) 2_565 2_564
O1 O1 O3 60.1(3) 2_465 2_564
O3 O1 O3 71.6(3) 4 2_564
O3 O1 O3 93.4(3) 3_455 2_564
O3 O1 O3 36.5(3) 1_565 2_564
O1 O1 O3 146.49(16) 1_556 2_564
O1 O1 O3 33.51(16) 1_554 2_564
Ga3 O1 O3 130.0(3) 4_446 2_564
Ga3 O1 O3 76.28(18) 1_666 2_564
Ga3 O1 O3 113.1(2) 2_465 2_564
O3 O1 O3 97.5(3) 5 2_564
O3 O1 O3 119.4(3) 2_455 2_564
O3 O1 O3 62.97(17) 6_565 2_564
O3 O1 O3 120.2(3) 4_556 2_564
O3 O1 O3 147.8(2) 3_456 2_564
O3 O1 O3 93.4(3) 1_566 2_564
O3 O1 O3 57.1(3) 6_554 2_564
Ga2 O1 O3 146.48(16) 2_566 5_454
La O1 O3 67.5(3) . 5_454
La O1 O3 102.1(5) 2_565 5_454
La O1 O3 47.7(3) 4_455 5_454
O2 O1 O3 64.8(4) 6 5_454
O2 O1 O3 14.8(4) 5_455 5_454
O2 O1 O3 48.0(4) 2_565 5_454
O3 O1 O3 111.6(4) 6 5_454
O3 O1 O3 111.6(4) 2_565 5_454
O3 O1 O3 63.0(3) 5_455 5_454
O2 O1 O3 162.2(4) 6_556 5_454
O2 O1 O3 117.1(3) 5_456 5_454
O2 O1 O3 136.8(4) 2_566 5_454
Ga2 O1 O3 33.51(16) 2_565 5_454
Ga3 O1 O3 141.5(3) 2_565 5_454
Ga3 O1 O3 86.8(2) 1_556 5_454
Ga3 O1 O3 116.7(3) 4_456 5_454
O2 O1 O3 133.6(5) 4 5_454
O2 O1 O3 78.5(4) 3_455 5_454
O2 O1 O3 88.9(4) 1_565 5_454
O3 O1 O3 75.5(3) . 5_454
O3 O1 O3 85.6(4) 3_565 5_454
O3 O1 O3 29.1(4) 4_455 5_454
Ga3 O1 O3 72.0(3) 2_564 5_454
Ga3 O1 O3 17.09(14) . 5_454
Ga3 O1 O3 55.5(2) 4_455 5_454
O2 O1 O3 94.8(3) . 5_454
O2 O1 O3 127.6(4) 3_565 5_454
O2 O1 O3 70.4(3) 4_455 5_454
Nb O1 O3 99.7(3) . 5_454
Ga1 O1 O3 99.7(3) . 5_454
Ga1 O1 O3 46.29(18) 1_455 5_454
Nb O1 O3 46.29(18) 1_455 5_454
Ga1 O1 O3 94.0(3) 1_565 5_454
Nb O1 O3 94.0(3) 1_565 5_454
O3 O1 O3 130.8(3) 1_556 5_454
O3 O1 O3 143.9(2) 3_566 5_454
O3 O1 O3 95.6(2) 4_456 5_454
La O1 O3 132.37(12) 1_556 5_454
La O1 O3 169.39(17) 2_566 5_454
La O1 O3 121.48(15) 4_456 5_454
Ga2 O1 O3 93.29(17) . 5_454
Ga2 O1 O3 142.1(3) 1_665 5_454
Ga2 O1 O3 87.9(2) 1_565 5_454
O1 O1 O3 60.1(3) 2_455 5_454
O1 O1 O3 103.1(5) 2_565 5_454
O1 O1 O3 53.7(4) 2_465 5_454
O3 O1 O3 93.4(3) 4 5_454
O3 O1 O3 36.5(3) 3_455 5_454
O3 O1 O3 71.6(3) 1_565 5_454
O1 O1 O3 146.49(16) 1_556 5_454
O1 O1 O3 33.51(16) 1_554 5_454
Ga3 O1 O3 113.1(2) 4_446 5_454
Ga3 O1 O3 130.0(3) 1_666 5_454
Ga3 O1 O3 76.28(18) 2_465 5_454
O3 O1 O3 119.4(3) 5 5_454
O3 O1 O3 62.97(17) 2_455 5_454
O3 O1 O3 97.5(3) 6_565 5_454
O3 O1 O3 147.8(2) 4_556 5_454
O3 O1 O3 93.4(3) 3_456 5_454
O3 O1 O3 120.2(3) 1_566 5_454
O3 O1 O3 57.1(3) 6_554 5_454
O3 O1 O3 57.1(3) 2_564 5_454
Ga2 O1 O2 141.26(18) 2_566 4_554
La O1 O2 74.8(4) . 4_554
La O1 O2 39.3(3) 2_565 4_554
La O1 O2 104.2(5) 4_455 4_554
O2 O1 O2 13.9(3) 6 4_554
O2 O1 O2 68.7(4) 5_455 4_554
O2 O1 O2 53.5(3) 2_565 4_554
O3 O1 O2 71.3(4) 6 4_554
O3 O1 O2 83.5(3) 2_565 4_554
O3 O1 O2 134.3(5) 5_455 4_554
O2 O1 O2 111.4(3) 6_556 4_554
O2 O1 O2 157.4(2) 5_456 4_554
O2 O1 O2 135.3(3) 2_566 4_554
Ga2 O1 O2 38.74(17) 2_565 4_554
Ga3 O1 O2 82.5(2) 2_565 4_554
Ga3 O1 O2 145.4(3) 1_556 4_554
Ga3 O1 O2 114.1(2) 4_456 4_554
O2 O1 O2 62.1(3) 4 4_554
O2 O1 O2 117.0(4) 3_455 4_554
O2 O1 O2 117.0(4) 1_565 4_554
O3 O1 O2 50.1(3) . 4_554
O3 O1 O2 49.0(3) 3_565 4_554
O3 O1 O2 100.0(4) 4_455 4_554
Ga3 O1 O2 17.2(2) 2_564 4_554
Ga3 O1 O2 77.3(3) . 4_554
Ga3 O1 O2 57.4(2) 4_455 4_554
O2 O1 O2 91.9(4) . 4_554
O2 O1 O2 67.6(2) 3_565 4_554
O2 O1 O2 133.1(4) 4_455 4_554
Nb O1 O2 53.7(2) . 4_554
Ga1 O1 O2 53.7(2) . 4_554
Ga1 O1 O2 116.5(3) 1_455 4_554
Nb O1 O2 116.5(3) 1_455 4_554
Ga1 O1 O2 73.8(2) 1_565 4_554
Nb O1 O2 73.8(2) 1_565 4_554
O3 O1 O2 104.4(2) 1_556 4_554
O3 O1 O2 103.6(2) 3_566 4_554
O3 O1 O2 167.3(3) 4_456 4_554
La O1 O2 132.84(17) 1_556 4_554
La O1 O2 114.41(14) 2_566 4_554
La O1 O2 161.0(2) 4_456 4_554
Ga2 O1 O2 112.6(3) . 4_554
Ga2 O1 O2 71.73(16) 1_665 4_554
Ga2 O1 O2 133.3(3) 1_565 4_554
O1 O1 O2 82.0(4) 2_455 4_554
O1 O1 O2 33.8(3) 2_565 4_554
O1 O1 O2 99.2(5) 2_465 4_554
O3 O1 O2 31.6(2) 4 4_554
O3 O1 O2 97.1(3) 3_455 4_554
O3 O1 O2 74.7(3) 1_565 4_554
O1 O1 O2 141.26(17) 1_556 4_554
O1 O1 O2 38.74(17) 1_554 4_554
Ga3 O1 O2 89.8(2) 4_446 4_554
Ga3 O1 O2 84.79(17) 1_666 4_554
Ga3 O1 O2 147.1(3) 2_465 4_554
O3 O1 O2 59.6(2) 5 4_554
O3 O1 O2 125.0(3) 2_455 4_554
O3 O1 O2 95.0(3) 6_565 4_554
O3 O1 O2 88.0(2) 4_556 4_554
O3 O1 O2 148.6(3) 3_456 4_554
O3 O1 O2 120.0(2) 1_566 4_554
O3 O1 O2 28.7(2) 6_554 4_554
O3 O1 O2 40.3(2) 2_564 4_554
O3 O1 O2 71.9(3) 5_454 4_554
Ga2 O1 O2 141.26(18) 2_566 3_454
La O1 O2 39.3(3) . 3_454
La O1 O2 104.2(5) 2_565 3_454
La O1 O2 74.8(4) 4_455 3_454
O2 O1 O2 53.5(3) 6 3_454
O2 O1 O2 13.9(3) 5_455 3_454
O2 O1 O2 68.7(4) 2_565 3_454
O3 O1 O2 83.5(3) 6 3_454
O3 O1 O2 134.3(5) 2_565 3_454
O3 O1 O2 71.3(4) 5_455 3_454
O2 O1 O2 135.3(3) 6_556 3_454
O2 O1 O2 111.4(3) 5_456 3_454
O2 O1 O2 157.4(2) 2_566 3_454
Ga2 O1 O2 38.74(17) 2_565 3_454
Ga3 O1 O2 114.1(2) 2_565 3_454
Ga3 O1 O2 82.5(2) 1_556 3_454
Ga3 O1 O2 145.4(3) 4_456 3_454
O2 O1 O2 117.0(4) 4 3_454
O2 O1 O2 62.1(3) 3_455 3_454
O2 O1 O2 117.0(4) 1_565 3_454
O3 O1 O2 49.0(3) . 3_454
O3 O1 O2 100.0(4) 3_565 3_454
O3 O1 O2 50.1(3) 4_455 3_454
Ga3 O1 O2 57.4(2) 2_564 3_454
Ga3 O1 O2 17.2(2) . 3_454
Ga3 O1 O2 77.3(3) 4_455 3_454
O2 O1 O2 67.6(2) . 3_454
O2 O1 O2 133.1(4) 3_565 3_454
O2 O1 O2 91.9(4) 4_455 3_454
Nb O1 O2 73.8(2) . 3_454
Ga1 O1 O2 73.8(2) . 3_454
Ga1 O1 O2 53.7(2) 1_455 3_454
Nb O1 O2 53.7(2) 1_455 3_454
Ga1 O1 O2 116.5(3) 1_565 3_454
Nb O1 O2 116.5(3) 1_565 3_454
O3 O1 O2 103.6(2) 1_556 3_454
O3 O1 O2 167.3(3) 3_566 3_454
O3 O1 O2 104.4(2) 4_456 3_454
La O1 O2 114.41(14) 1_556 3_454
La O1 O2 161.0(2) 2_566 3_454
La O1 O2 132.83(17) 4_456 3_454
Ga2 O1 O2 71.73(16) . 3_454
Ga2 O1 O2 133.3(3) 1_665 3_454
Ga2 O1 O2 112.6(3) 1_565 3_454
O1 O1 O2 33.8(3) 2_455 3_454
O1 O1 O2 99.2(5) 2_565 3_454
O1 O1 O2 82.0(4) 2_465 3_454
O3 O1 O2 74.7(3) 4 3_454
O3 O1 O2 31.6(2) 3_455 3_454
O3 O1 O2 97.1(3) 1_565 3_454
O1 O1 O2 141.26(18) 1_556 3_454
O1 O1 O2 38.74(17) 1_554 3_454
Ga3 O1 O2 84.79(17) 4_446 3_454
Ga3 O1 O2 147.1(3) 1_666 3_454
Ga3 O1 O2 89.8(2) 2_465 3_454
O3 O1 O2 95.0(3) 5 3_454
O3 O1 O2 59.6(2) 2_455 3_454
O3 O1 O2 125.0(3) 6_565 3_454
O3 O1 O2 120.0(2) 4_556 3_454
O3 O1 O2 88.0(2) 3_456 3_454
O3 O1 O2 148.6(3) 1_566 3_454
O3 O1 O2 40.3(2) 6_554 3_454
O3 O1 O2 71.9(3) 2_564 3_454
O3 O1 O2 28.7(2) 5_454 3_454
O2 O1 O2 65.6(3) 4_554 3_454
Ga2 O1 O2 141.26(17) 2_566 1_564
La O1 O2 104.2(5) . 1_564
La O1 O2 74.8(4) 2_565 1_564
La O1 O2 39.3(3) 4_455 1_564
O2 O1 O2 68.7(4) 6 1_564
O2 O1 O2 53.5(3) 5_455 1_564
O2 O1 O2 13.9(3) 2_565 1_564
O3 O1 O2 134.3(5) 6 1_564
O3 O1 O2 71.3(4) 2_565 1_564
O3 O1 O2 83.5(3) 5_455 1_564
O2 O1 O2 157.4(2) 6_556 1_564
O2 O1 O2 135.3(3) 5_456 1_564
O2 O1 O2 111.4(3) 2_566 1_564
Ga2 O1 O2 38.74(17) 2_565 1_564
Ga3 O1 O2 145.4(3) 2_565 1_564
Ga3 O1 O2 114.1(2) 1_556 1_564
Ga3 O1 O2 82.5(2) 4_456 1_564
O2 O1 O2 117.0(4) 4 1_564
O2 O1 O2 117.0(4) 3_455 1_564
O2 O1 O2 62.1(3) 1_565 1_564
O3 O1 O2 100.0(4) . 1_564
O3 O1 O2 50.1(3) 3_565 1_564
O3 O1 O2 49.0(3) 4_455 1_564
Ga3 O1 O2 77.3(3) 2_564 1_564
Ga3 O1 O2 57.4(2) . 1_564
Ga3 O1 O2 17.2(2) 4_455 1_564
O2 O1 O2 133.1(4) . 1_564
O2 O1 O2 91.9(4) 3_565 1_564
O2 O1 O2 67.6(2) 4_455 1_564
Nb O1 O2 116.5(3) . 1_564
Ga1 O1 O2 116.5(3) . 1_564
Ga1 O1 O2 73.8(2) 1_455 1_564
Nb O1 O2 73.8(2) 1_455 1_564
Ga1 O1 O2 53.7(2) 1_565 1_564
Nb O1 O2 53.7(2) 1_565 1_564
O3 O1 O2 167.3(3) 1_556 1_564
O3 O1 O2 104.4(2) 3_566 1_564
O3 O1 O2 103.6(2) 4_456 1_564
La O1 O2 161.0(2) 1_556 1_564
La O1 O2 132.83(17) 2_566 1_564
La O1 O2 114.41(14) 4_456 1_564
Ga2 O1 O2 133.3(3) . 1_564
Ga2 O1 O2 112.6(3) 1_665 1_564
Ga2 O1 O2 71.73(16) 1_565 1_564
O1 O1 O2 99.2(4) 2_455 1_564
O1 O1 O2 82.0(4) 2_565 1_564
O1 O1 O2 33.8(3) 2_465 1_564
O3 O1 O2 97.1(3) 4 1_564
O3 O1 O2 74.7(3) 3_455 1_564
O3 O1 O2 31.6(2) 1_565 1_564
O1 O1 O2 141.26(17) 1_556 1_564
O1 O1 O2 38.74(17) 1_554 1_564
Ga3 O1 O2 147.1(3) 4_446 1_564
Ga3 O1 O2 89.8(2) 1_666 1_564
Ga3 O1 O2 84.79(17) 2_465 1_564
O3 O1 O2 125.0(3) 5 1_564
O3 O1 O2 95.0(3) 2_455 1_564
O3 O1 O2 59.6(2) 6_565 1_564
O3 O1 O2 148.6(3) 4_556 1_564
O3 O1 O2 120.0(2) 3_456 1_564
O3 O1 O2 87.9(2) 1_566 1_564
O3 O1 O2 71.9(3) 6_554 1_564
O3 O1 O2 28.7(2) 2_564 1_564
O3 O1 O2 40.3(2) 5_454 1_564
O2 O1 O2 65.6(3) 4_554 1_564
O2 O1 O2 65.6(3) 3_454 1_564
Ga2 O1 O1 54.0(3) 2_566 2_456
La O1 O1 57.03(9) . 2_456
La O1 O1 135.8(3) 2_565 2_456
La O1 O1 115.04(16) 4_455 2_456
O2 O1 O1 114.2(5) 6 2_456
O2 O1 O1 97.5(3) 5_455 2_456
O2 O1 O1 155.9(5) 2_565 2_456
O3 O1 O1 57.4(3) 6 2_456
O3 O1 O1 137.2(6) 2_565 2_456
O3 O1 O1 66.8(3) 5_455 2_456
O2 O1 O1 55.3(4) 6_556 2_456
O2 O1 O1 34.2(4) 5_456 2_456
O2 O1 O1 83.8(6) 2_566 2_456
Ga2 O1 O1 126.0(3) 2_565 2_456
Ga3 O1 O1 64.3(2) 2_565 2_456
Ga3 O1 O1 36.77(11) 1_556 2_456
Ga3 O1 O1 113.9(5) 4_456 2_456
O2 O1 O1 93.8(3) 4 2_456
O2 O1 O1 29.5(3) 3_455 2_456
O2 O1 O1 118.1(6) 1_565 2_456
O3 O1 O1 75.8(2) . 2_456
O3 O1 O1 163.2(3) 3_565 2_456
O3 O1 O1 97.68(16) 4_455 2_456
Ga3 O1 O1 107.97(13) 2_564 2_456
Ga3 O1 O1 91.42(13) . 2_456
Ga3 O1 O1 163.0(3) 4_455 2_456
O2 O1 O1 33.31(18) . 2_456
O2 O1 O1 122.1(4) 3_565 2_456
O2 O1 O1 92.9(3) 4_455 2_456
Nb O1 O1 73.047(13) . 2_456
Ga1 O1 O1 73.047(13) . 2_456
Ga1 O1 O1 73.047(13) 1_455 2_456
Nb O1 O1 73.047(13) 1_455 2_456
Ga1 O1 O1 154.5(5) 1_565 2_456
Nb O1 O1 154.5(5) 1_565 2_456
O3 O1 O1 33.28(19) 1_556 2_456
O3 O1 O1 103.6(5) 3_566 2_456
O3 O1 O1 60.1(3) 4_456 2_456
La O1 O1 25.96(19) 1_556 2_456
La O1 O1 76.0(4) 2_566 2_456
La O1 O1 66.8(3) 4_456 2_456
Ga2 O1 O1 17.08(10) . 2_456
Ga2 O1 O1 101.1(3) 1_665 2_456
Ga2 O1 O1 101.1(3) 1_565 2_456
O1 O1 O1 56.19(10) 2_455 2_456
O1 O1 O1 125.6(2) 2_565 2_456
O1 O1 O1 125.6(2) 2_465 2_456
O3 O1 O1 96.77(14) 4 2_456
O3 O1 O1 71.92(15) 3_455 2_456
O3 O1 O1 159.9(3) 1_565 2_456
O1 O1 O1 54.0(3) 1_556 2_456
O1 O1 O1 126.0(3) 1_554 2_456
Ga3 O1 O1 37.64(3) 4_446 2_456
Ga3 O1 O1 121.6(4) 1_666 2_456
Ga3 O1 O1 72.91(16) 2_465 2_456
O3 O1 O1 76.61(16) 5 2_456
O3 O1 O1 51.53(15) 2_455 2_456
O3 O1 O1 137.4(5) 6_565 2_456
O3 O1 O1 63.2(2) 4_556 2_456
O3 O1 O1 32.76(16) 3_456 2_456
O3 O1 O1 107.4(5) 1_566 2_456
O3 O1 O1 103.1(3) 6_554 2_456
O3 O1 O1 159.1(4) 2_564 2_456
O3 O1 O1 107.9(2) 5_454 2_456
O2 O1 O1 124.8(3) 4_554 2_456
O2 O1 O1 88.5(2) 3_454 2_456
O2 O1 O1 146.0(3) 1_564 2_456
Ga2 O1 O1 54.0(3) 2_566 2_566
La O1 O1 115.04(16) . 2_566
La O1 O1 57.03(9) 2_565 2_566
La O1 O1 135.8(3) 4_455 2_566
O2 O1 O1 97.5(3) 6 2_566
O2 O1 O1 155.9(5) 5_455 2_566
O2 O1 O1 114.2(5) 2_565 2_566
O3 O1 O1 66.8(3) 6 2_566
O3 O1 O1 57.4(3) 2_565 2_566
O3 O1 O1 137.2(6) 5_455 2_566
O2 O1 O1 34.2(4) 6_556 2_566
O2 O1 O1 83.8(6) 5_456 2_566
O2 O1 O1 55.3(4) 2_566 2_566
Ga2 O1 O1 126.0(3) 2_565 2_566
Ga3 O1 O1 36.77(11) 2_565 2_566
Ga3 O1 O1 113.9(5) 1_556 2_566
Ga3 O1 O1 64.3(2) 4_456 2_566
O2 O1 O1 29.5(3) 4 2_566
O2 O1 O1 118.1(6) 3_455 2_566
O2 O1 O1 93.8(3) 1_565 2_566
O3 O1 O1 97.68(16) . 2_566
O3 O1 O1 75.8(2) 3_565 2_566
O3 O1 O1 163.2(3) 4_455 2_566
Ga3 O1 O1 91.42(13) 2_564 2_566
Ga3 O1 O1 163.0(3) . 2_566
Ga3 O1 O1 107.97(13) 4_455 2_566
O2 O1 O1 92.9(3) . 2_566
O2 O1 O1 33.31(18) 3_565 2_566
O2 O1 O1 122.1(4) 4_455 2_566
Nb O1 O1 73.047(14) . 2_566
Ga1 O1 O1 73.047(14) . 2_566
Ga1 O1 O1 154.5(5) 1_455 2_566
Nb O1 O1 154.5(5) 1_455 2_566
Ga1 O1 O1 73.046(13) 1_565 2_566
Nb O1 O1 73.046(13) 1_565 2_566
O3 O1 O1 60.1(3) 1_556 2_566
O3 O1 O1 33.28(19) 3_566 2_566
O3 O1 O1 103.6(5) 4_456 2_566
La O1 O1 66.8(3) 1_556 2_566
La O1 O1 25.96(19) 2_566 2_566
La O1 O1 76.0(4) 4_456 2_566
Ga2 O1 O1 101.1(3) . 2_566
Ga2 O1 O1 17.08(10) 1_665 2_566
Ga2 O1 O1 101.1(3) 1_565 2_566
O1 O1 O1 125.6(2) 2_455 2_566
O1 O1 O1 56.19(10) 2_565 2_566
O1 O1 O1 125.6(2) 2_465 2_566
O3 O1 O1 71.92(15) 4 2_566
O3 O1 O1 159.9(3) 3_455 2_566
O3 O1 O1 96.77(14) 1_565 2_566
O1 O1 O1 54.0(3) 1_556 2_566
O1 O1 O1 126.0(3) 1_554 2_566
Ga3 O1 O1 72.91(16) 4_446 2_566
Ga3 O1 O1 37.64(3) 1_666 2_566
Ga3 O1 O1 121.6(4) 2_465 2_566
O3 O1 O1 51.53(15) 5 2_566
O3 O1 O1 137.4(5) 2_455 2_566
O3 O1 O1 76.61(15) 6_565 2_566
O3 O1 O1 32.76(16) 4_556 2_566
O3 O1 O1 107.4(5) 3_456 2_566
O3 O1 O1 63.2(2) 1_566 2_566
O3 O1 O1 107.9(2) 6_554 2_566
O3 O1 O1 103.1(3) 2_564 2_566
O3 O1 O1 159.1(4) 5_454 2_566
O2 O1 O1 88.5(2) 4_554 2_566
O2 O1 O1 146.0(3) 3_454 2_566
O2 O1 O1 124.8(3) 1_564 2_566
O1 O1 O1 89.0(4) 2_456 2_566
Ga2 O1 O1 54.0(3) 2_566 2_466
La O1 O1 135.8(3) . 2_466
La O1 O1 115.03(16) 2_565 2_466
La O1 O1 57.03(9) 4_455 2_466
O2 O1 O1 155.9(5) 6 2_466
O2 O1 O1 114.2(5) 5_455 2_466
O2 O1 O1 97.5(3) 2_565 2_466
O3 O1 O1 137.2(6) 6 2_466
O3 O1 O1 66.8(3) 2_565 2_466
O3 O1 O1 57.4(3) 5_455 2_466
O2 O1 O1 83.8(6) 6_556 2_466
O2 O1 O1 55.3(4) 5_456 2_466
O2 O1 O1 34.2(4) 2_566 2_466
Ga2 O1 O1 126.0(3) 2_565 2_466
Ga3 O1 O1 113.9(5) 2_565 2_466
Ga3 O1 O1 64.3(2) 1_556 2_466
Ga3 O1 O1 36.77(11) 4_456 2_466
O2 O1 O1 118.1(6) 4 2_466
O2 O1 O1 93.8(3) 3_455 2_466
O2 O1 O1 29.5(3) 1_565 2_466
O3 O1 O1 163.2(3) . 2_466
O3 O1 O1 97.67(16) 3_565 2_466
O3 O1 O1 75.8(2) 4_455 2_466
Ga3 O1 O1 163.0(3) 2_564 2_466
Ga3 O1 O1 107.97(13) . 2_466
Ga3 O1 O1 91.42(13) 4_455 2_466
O2 O1 O1 122.1(4) . 2_466
O2 O1 O1 92.9(3) 3_565 2_466
O2 O1 O1 33.31(18) 4_455 2_466
Nb O1 O1 154.5(5) . 2_466
Ga1 O1 O1 154.5(5) . 2_466
Ga1 O1 O1 73.046(14) 1_455 2_466
Nb O1 O1 73.046(14) 1_455 2_466
Ga1 O1 O1 73.046(14) 1_565 2_466
Nb O1 O1 73.046(14) 1_565 2_466
O3 O1 O1 103.6(5) 1_556 2_466
O3 O1 O1 60.1(3) 3_566 2_466
O3 O1 O1 33.3(2) 4_456 2_466
La O1 O1 76.0(4) 1_556 2_466
La O1 O1 66.8(3) 2_566 2_466
La O1 O1 25.96(19) 4_456 2_466
Ga2 O1 O1 101.1(3) . 2_466
Ga2 O1 O1 101.1(3) 1_665 2_466
Ga2 O1 O1 17.08(10) 1_565 2_466
O1 O1 O1 125.6(2) 2_455 2_466
O1 O1 O1 125.6(2) 2_565 2_466
O1 O1 O1 56.19(10) 2_465 2_466
O3 O1 O1 159.9(3) 4 2_466
O3 O1 O1 96.77(14) 3_455 2_466
O3 O1 O1 71.92(15) 1_565 2_466
O1 O1 O1 54.0(3) 1_556 2_466
O1 O1 O1 126.0(3) 1_554 2_466
Ga3 O1 O1 121.6(4) 4_446 2_466
Ga3 O1 O1 72.91(16) 1_666 2_466
Ga3 O1 O1 37.64(3) 2_465 2_466
O3 O1 O1 137.4(5) 5 2_466
O3 O1 O1 76.61(15) 2_455 2_466
O3 O1 O1 51.53(15) 6_565 2_466
O3 O1 O1 107.4(5) 4_556 2_466
O3 O1 O1 63.2(2) 3_456 2_466
O3 O1 O1 32.76(16) 1_566 2_466
O3 O1 O1 159.1(4) 6_554 2_466
O3 O1 O1 107.9(2) 2_564 2_466
O3 O1 O1 103.1(3) 5_454 2_466
O2 O1 O1 146.0(3) 4_554 2_466
O2 O1 O1 124.8(3) 3_454 2_466
O2 O1 O1 88.5(2) 1_564 2_466
O1 O1 O1 89.0(4) 2_456 2_466
O1 O1 O1 89.0(4) 2_566 2_466
Ga2 O1 Ga2 126.94(14) 2_566 1_554
La O1 Ga2 20.5(2) . 1_554
La O1 Ga2 108.0(4) 2_565 1_554
La O1 Ga2 91.1(3) 4_455 1_554
O2 O1 Ga2 55.3(4) 6 1_554
O2 O1 Ga2 32.3(3) 5_455 1_554
O2 O1 Ga2 85.8(4) 2_565 1_554
O3 O1 Ga2 66.5(3) 6 1_554
O3 O1 Ga2 149.1(5) 2_565 1_554
O3 O1 Ga2 75.2(3) 5_455 1_554
O2 O1 Ga2 116.5(3) 6_556 1_554
O2 O1 Ga2 101.1(3) 5_456 1_554
O2 O1 Ga2 154.4(4) 2_566 1_554
Ga2 O1 Ga2 53.06(14) 2_565 1_554
Ga3 O1 Ga2 97.32(9) 2_565 1_554
Ga3 O1 Ga2 76.39(10) 1_556 1_554
Ga3 O1 Ga2 163.0(2) 4_456 1_554
O2 O1 Ga2 106.8(4) 4 1_554
O2 O1 Ga2 50.4(3) 3_455 1_554
O2 O1 Ga2 133.5(3) 1_565 1_554
O3 O1 Ga2 36.00(18) . 1_554
O3 O1 Ga2 112.2(4) 3_565 1_554
O3 O1 Ga2 64.2(3) 4_455 1_554
Ga3 O1 Ga2 55.96(14) 2_564 1_554
Ga3 O1 Ga2 32.86(7) . 1_554
Ga3 O1 Ga2 94.6(3) 4_455 1_554
O2 O1 Ga2 49.02(19) . 1_554
O2 O1 Ga2 134.0(3) 3_565 1_554
O2 O1 Ga2 102.7(2) 4_455 1_554
Nb O1 Ga2 59.88(11) . 1_554
Ga1 O1 Ga2 59.88(11) . 1_554
Ga1 O1 Ga2 59.88(11) 1_455 1_554
Nb O1 Ga2 59.88(11) 1_455 1_554
Ga1 O1 Ga2 132.6(4) 1_565 1_554
Nb O1 Ga2 132.6(4) 1_565 1_554
O3 O1 Ga2 84.89(15) 1_556 1_554
O3 O1 Ga2 165.75(16) 3_566 1_554
O3 O1 Ga2 104.14(15) 4_456 1_554
La O1 Ga2 98.10(4) 1_556 1_554
La O1 Ga2 142.23(15) 2_566 1_554
La O1 Ga2 129.74(10) 4_456 1_554
Ga2 O1 Ga2 55.83(6) . 1_554
Ga2 O1 Ga2 124.93(11) 1_665 1_554
Ga2 O1 Ga2 124.94(11) 1_565 1_554
O1 O1 Ga2 16.7(3) 2_455 1_554
O1 O1 Ga2 99.6(4) 2_565 1_554
O1 O1 Ga2 99.6(4) 2_465 1_554
O3 O1 Ga2 67.4(2) 4 1_554
O3 O1 Ga2 36.21(16) 3_455 1_554
O3 O1 Ga2 115.3(3) 1_565 1_554
O1 O1 Ga2 126.94(14) 1_556 1_554
O1 O1 Ga2 53.06(14) 1_554 1_554
Ga3 O1 Ga2 66.08(5) 4_446 1_554
Ga3 O1 Ga2 153.4(2) 1_666 1_554
Ga3 O1 Ga2 94.96(7) 2_465 1_554
O3 O1 Ga2 81.37(16) 5 1_554
O3 O1 Ga2 57.61(14) 2_455 1_554
O3 O1 Ga2 143.7(3) 6_565 1_554
O3 O1 Ga2 102.75(15) 4_556 1_554
O3 O1 Ga2 80.49(15) 3_456 1_554
O3 O1 Ga2 163.79(14) 1_566 1_554
O3 O1 Ga2 40.49(19) 6_554 1_554
O3 O1 Ga2 86.4(3) 2_564 1_554
O3 O1 Ga2 47.11(18) 5_454 1_554
O2 O1 Ga2 69.1(2) 4_554 1_554
O2 O1 Ga2 18.77(15) 3_454 1_554
O2 O1 Ga2 84.1(3) 1_564 1_554
O1 O1 Ga2 72.91(16) 2_456 1_554
O1 O1 Ga2 132.57(6) 2_566 1_554
O1 O1 Ga2 132.57(6) 2_466 1_554
Ga2 O1 Ga2 126.94(14) 2_566 1_664
La O1 Ga2 91.1(3) . 1_664
La O1 Ga2 20.5(2) 2_565 1_664
La O1 Ga2 108.0(4) 4_455 1_664
O2 O1 Ga2 32.3(3) 6 1_664
O2 O1 Ga2 85.8(4) 5_455 1_664
O2 O1 Ga2 55.3(4) 2_565 1_664
O3 O1 Ga2 75.2(3) 6 1_664
O3 O1 Ga2 66.5(3) 2_565 1_664
O3 O1 Ga2 149.1(5) 5_455 1_664
O2 O1 Ga2 101.1(3) 6_556 1_664
O2 O1 Ga2 154.4(4) 5_456 1_664
O2 O1 Ga2 116.5(3) 2_566 1_664
Ga2 O1 Ga2 53.06(14) 2_565 1_664
Ga3 O1 Ga2 76.39(10) 2_565 1_664
Ga3 O1 Ga2 163.0(2) 1_556 1_664
Ga3 O1 Ga2 97.32(9) 4_456 1_664
O2 O1 Ga2 50.4(3) 4 1_664
O2 O1 Ga2 133.5(3) 3_455 1_664
O2 O1 Ga2 106.8(4) 1_565 1_664
O3 O1 Ga2 64.2(3) . 1_664
O3 O1 Ga2 36.00(18) 3_565 1_664
O3 O1 Ga2 112.2(4) 4_455 1_664
Ga3 O1 Ga2 32.86(7) 2_564 1_664
Ga3 O1 Ga2 94.6(3) . 1_664
Ga3 O1 Ga2 55.96(14) 4_455 1_664
O2 O1 Ga2 102.7(2) . 1_664
O2 O1 Ga2 49.02(19) 3_565 1_664
O2 O1 Ga2 134.0(3) 4_455 1_664
Nb O1 Ga2 59.88(11) . 1_664
Ga1 O1 Ga2 59.88(11) . 1_664
Ga1 O1 Ga2 132.6(4) 1_455 1_664
Nb O1 Ga2 132.6(4) 1_455 1_664
Ga1 O1 Ga2 59.88(11) 1_565 1_664
Nb O1 Ga2 59.88(11) 1_565 1_664
O3 O1 Ga2 104.14(15) 1_556 1_664
O3 O1 Ga2 84.89(15) 3_566 1_664
O3 O1 Ga2 165.75(16) 4_456 1_664
La O1 Ga2 129.74(10) 1_556 1_664
La O1 Ga2 98.10(4) 2_566 1_664
La O1 Ga2 142.23(15) 4_456 1_664
Ga2 O1 Ga2 124.93(11) . 1_664
Ga2 O1 Ga2 55.83(6) 1_665 1_664
Ga2 O1 Ga2 124.94(11) 1_565 1_664
O1 O1 Ga2 99.6(4) 2_455 1_664
O1 O1 Ga2 16.7(3) 2_565 1_664
O1 O1 Ga2 99.6(4) 2_465 1_664
O3 O1 Ga2 36.21(16) 4 1_664
O3 O1 Ga2 115.3(3) 3_455 1_664
O3 O1 Ga2 67.4(2) 1_565 1_664
O1 O1 Ga2 126.94(14) 1_556 1_664
O1 O1 Ga2 53.06(14) 1_554 1_664
Ga3 O1 Ga2 94.95(7) 4_446 1_664
Ga3 O1 Ga2 66.08(5) 1_666 1_664
Ga3 O1 Ga2 153.4(2) 2_465 1_664
O3 O1 Ga2 57.61(14) 5 1_664
O3 O1 Ga2 143.7(3) 2_455 1_664
O3 O1 Ga2 81.37(16) 6_565 1_664
O3 O1 Ga2 80.49(15) 4_556 1_664
O3 O1 Ga2 163.79(14) 3_456 1_664
O3 O1 Ga2 102.75(15) 1_566 1_664
O3 O1 Ga2 47.11(18) 6_554 1_664
O3 O1 Ga2 40.49(19) 2_564 1_664
O3 O1 Ga2 86.4(3) 5_454 1_664
O2 O1 Ga2 18.77(15) 4_554 1_664
O2 O1 Ga2 84.1(3) 3_454 1_664
O2 O1 Ga2 69.1(2) 1_564 1_664
O1 O1 Ga2 132.57(6) 2_456 1_664
O1 O1 Ga2 72.91(15) 2_566 1_664
O1 O1 Ga2 132.57(6) 2_466 1_664
Ga2 O1 Ga2 87.6(2) 1_554 1_664
Ga2 O1 Ga2 126.94(14) 2_566 1_564
La O1 Ga2 108.0(4) . 1_564
La O1 Ga2 91.1(3) 2_565 1_564
La O1 Ga2 20.5(2) 4_455 1_564
O2 O1 Ga2 85.8(4) 6 1_564
O2 O1 Ga2 55.3(4) 5_455 1_564
O2 O1 Ga2 32.3(3) 2_565 1_564
O3 O1 Ga2 149.1(5) 6 1_564
O3 O1 Ga2 75.2(3) 2_565 1_564
O3 O1 Ga2 66.5(3) 5_455 1_564
O2 O1 Ga2 154.4(4) 6_556 1_564
O2 O1 Ga2 116.5(3) 5_456 1_564
O2 O1 Ga2 101.1(3) 2_566 1_564
Ga2 O1 Ga2 53.06(14) 2_565 1_564
Ga3 O1 Ga2 163.0(2) 2_565 1_564
Ga3 O1 Ga2 97.32(9) 1_556 1_564
Ga3 O1 Ga2 76.39(10) 4_456 1_564
O2 O1 Ga2 133.5(3) 4 1_564
O2 O1 Ga2 106.8(4) 3_455 1_564
O2 O1 Ga2 50.4(3) 1_565 1_564
O3 O1 Ga2 112.2(4) . 1_564
O3 O1 Ga2 64.2(3) 3_565 1_564
O3 O1 Ga2 36.00(18) 4_455 1_564
Ga3 O1 Ga2 94.6(3) 2_564 1_564
Ga3 O1 Ga2 55.96(14) . 1_564
Ga3 O1 Ga2 32.86(7) 4_455 1_564
O2 O1 Ga2 134.0(3) . 1_564
O2 O1 Ga2 102.7(2) 3_565 1_564
O2 O1 Ga2 49.02(19) 4_455 1_564
Nb O1 Ga2 132.6(4) . 1_564
Ga1 O1 Ga2 132.6(4) . 1_564
Ga1 O1 Ga2 59.88(11) 1_455 1_564
Nb O1 Ga2 59.88(11) 1_455 1_564
Ga1 O1 Ga2 59.88(11) 1_565 1_564
Nb O1 Ga2 59.88(11) 1_565 1_564
O3 O1 Ga2 165.75(16) 1_556 1_564
O3 O1 Ga2 104.14(15) 3_566 1_564
O3 O1 Ga2 84.89(15) 4_456 1_564
La O1 Ga2 142.23(15) 1_556 1_564
La O1 Ga2 129.74(10) 2_566 1_564
La O1 Ga2 98.10(4) 4_456 1_564
Ga2 O1 Ga2 124.94(11) . 1_564
Ga2 O1 Ga2 124.93(11) 1_665 1_564
Ga2 O1 Ga2 55.83(6) 1_565 1_564
O1 O1 Ga2 99.6(4) 2_455 1_564
O1 O1 Ga2 99.6(4) 2_565 1_564
O1 O1 Ga2 16.7(3) 2_465 1_564
O3 O1 Ga2 115.3(3) 4 1_564
O3 O1 Ga2 67.4(2) 3_455 1_564
O3 O1 Ga2 36.21(16) 1_565 1_564
O1 O1 Ga2 126.94(14) 1_556 1_564
O1 O1 Ga2 53.06(14) 1_554 1_564
Ga3 O1 Ga2 153.4(2) 4_446 1_564
Ga3 O1 Ga2 94.95(7) 1_666 1_564
Ga3 O1 Ga2 66.08(5) 2_465 1_564
O3 O1 Ga2 143.7(3) 5 1_564
O3 O1 Ga2 81.37(16) 2_455 1_564
O3 O1 Ga2 57.61(14) 6_565 1_564
O3 O1 Ga2 163.79(14) 4_556 1_564
O3 O1 Ga2 102.75(15) 3_456 1_564
O3 O1 Ga2 80.49(15) 1_566 1_564
O3 O1 Ga2 86.4(3) 6_554 1_564
O3 O1 Ga2 47.11(18) 2_564 1_564
O3 O1 Ga2 40.49(19) 5_454 1_564
O2 O1 Ga2 84.1(3) 4_554 1_564
O2 O1 Ga2 69.1(2) 3_454 1_564
O2 O1 Ga2 18.77(15) 1_564 1_564
O1 O1 Ga2 132.57(6) 2_456 1_564
O1 O1 Ga2 132.56(6) 2_566 1_564
O1 O1 Ga2 72.91(15) 2_466 1_564
Ga2 O1 Ga2 87.6(2) 1_554 1_564
Ga2 O1 Ga2 87.6(2) 1_664 1_564
Ga2 O1 La 98.37(17) 2_566 4
La O1 La 81.67(11) . 4
La O1 La 36.54(4) 2_565 4
La O1 La 143.2(4) 4_455 4
O2 O1 La 48.9(3) 6 4
O2 O1 La 106.5(5) 5_455 4
O2 O1 La 90.7(4) 2_565 4
O3 O1 La 45.3(3) 6 4
O3 O1 La 78.2(3) 2_565 4
O3 O1 La 163.0(3) 5_455 4
O2 O1 La 68.3(3) 6_556 4
O2 O1 La 119.7(5) 5_456 4
O2 O1 La 104.3(4) 2_566 4
Ga2 O1 La 81.63(17) 2_565 4
Ga3 O1 La 41.10(6) 2_565 4
Ga3 O1 La 137.22(18) 1_556 4
Ga3 O1 La 103.01(7) 4_456 4
O2 O1 La 20.1(3) 4 4
O2 O1 La 115.0(3) 3_455 4
O2 O1 La 126.7(3) 1_565 4
O3 O1 La 55.31(17) . 4
O3 O1 La 64.21(19) 3_565 4
O3 O1 La 142.6(5) 4_455 4
Ga3 O1 La 42.15(3) 2_564 4
Ga3 O1 La 114.0(3) . 4
Ga3 O1 La 90.82(17) 4_455 4
O2 O1 La 78.2(2) . 4
O2 O1 La 46.26(19) 3_565 4
O2 O1 La 163.5(2) 4_455 4
Nb O1 La 36.49(2) . 4
Ga1 O1 La 36.49(2) . 4
Ga1 O1 La 150.3(2) 1_455 4
Nb O1 La 150.3(2) 1_455 4
Ga1 O1 La 81.72(6) 1_565 4
Nb O1 La 81.72(6) 1_565 4
O3 O1 La 69.26(15) 1_556 4
O3 O1 La 76.43(17) 3_566 4
O3 O1 La 149.4(4) 4_456 4
La O1 La 94.41(14) 1_556 4
La O1 La 74.54(8) 2_566 4
La O1 La 124.8(3) 4_456 4
Ga2 O1 La 99.22(3) . 4
Ga2 O1 La 35.49(3) 1_665 4
Ga2 O1 La 142.68(10) 1_565 4
O1 O1 La 93.55(14) 2_455 4
O1 O1 La 25.24(8) 2_565 4
O1 O1 La 133.8(3) 2_465 4
O3 O1 La 23.42(14) 4 4
O3 O1 La 126.6(3) 3_455 4
O3 O1 La 97.84(19) 1_565 4
O1 O1 La 98.37(17) 1_556 4
O1 O1 La 81.63(18) 1_554 4
Ga3 O1 La 64.08(3) 4_446 4
Ga3 O1 La 65.95(3) 1_666 4
Ga3 O1 La 169.7(4) 2_465 4
O3 O1 La 24.00(13) 5 4
O3 O1 La 140.71(14) 2_455 4
O3 O1 La 99.71(13) 6_565 4
O3 O1 La 45.68(15) 4_556 4
O3 O1 La 133.0(2) 3_456 4
O3 O1 La 105.23(16) 1_566 4
O3 O1 La 58.58(15) 6_554 4
O3 O1 La 75.9(2) 2_564 4
O3 O1 La 113.6(3) 5_454 4
O2 O1 La 43.17(16) 4_554 4
O2 O1 La 98.0(2) 3_454 4
O2 O1 La 104.5(3) 1_564 4
O1 O1 La 100.51(9) 2_456 4
O1 O1 La 49.37(9) 2_566 4
O1 O1 La 136.5(3) 2_466 4
Ga2 O1 La 90.46(13) 1_554 4
Ga2 O1 La 35.40(5) 1_664 4
Ga2 O1 La 123.0(2) 1_564 4
Ga2 O1 La 98.37(17) 2_566 2_455
La O1 La 36.54(4) . 2_455
La O1 La 143.2(4) 2_565 2_455
La O1 La 81.67(11) 4_455 2_455
O2 O1 La 90.7(4) 6 2_455
O2 O1 La 48.9(3) 5_455 2_455
O2 O1 La 106.5(5) 2_565 2_455
O3 O1 La 78.2(3) 6 2_455
O3 O1 La 163.0(3) 2_565 2_455
O3 O1 La 45.3(3) 5_455 2_455
O2 O1 La 104.3(4) 6_556 2_455
O2 O1 La 68.3(3) 5_456 2_455
O2 O1 La 119.7(5) 2_566 2_455
Ga2 O1 La 81.63(17) 2_565 2_455
Ga3 O1 La 103.01(7) 2_565 2_455
Ga3 O1 La 41.10(7) 1_556 2_455
Ga3 O1 La 137.22(18) 4_456 2_455
O2 O1 La 126.7(3) 4 2_455
O2 O1 La 20.1(3) 3_455 2_455
O2 O1 La 115.0(3) 1_565 2_455
O3 O1 La 64.21(18) . 2_455
O3 O1 La 142.6(5) 3_565 2_455
O3 O1 La 55.31(17) 4_455 2_455
Ga3 O1 La 90.82(17) 2_564 2_455
Ga3 O1 La 42.15(3) . 2_455
Ga3 O1 La 114.0(3) 4_455 2_455
O2 O1 La 46.26(19) . 2_455
O2 O1 La 163.5(2) 3_565 2_455
O2 O1 La 78.2(2) 4_455 2_455
Nb O1 La 81.72(6) . 2_455
Ga1 O1 La 81.72(6) . 2_455
Ga1 O1 La 36.49(2) 1_455 2_455
Nb O1 La 36.49(2) 1_455 2_455
Ga1 O1 La 150.3(2) 1_565 2_455
Nb O1 La 150.3(2) 1_565 2_455
O3 O1 La 76.43(17) 1_556 2_455
O3 O1 La 149.4(4) 3_566 2_455
O3 O1 La 69.26(15) 4_456 2_455
La O1 La 74.54(9) 1_556 2_455
La O1 La 124.8(3) 2_566 2_455
La O1 La 94.41(13) 4_456 2_455
Ga2 O1 La 35.49(3) . 2_455
Ga2 O1 La 142.68(10) 1_665 2_455
Ga2 O1 La 99.22(3) 1_565 2_455
O1 O1 La 25.24(8) 2_455 2_455
O1 O1 La 133.8(3) 2_565 2_455
O1 O1 La 93.55(14) 2_465 2_455
O3 O1 La 97.84(19) 4 2_455
O3 O1 La 23.42(14) 3_455 2_455
O3 O1 La 126.6(3) 1_565 2_455
O1 O1 La 98.37(18) 1_556 2_455
O1 O1 La 81.63(17) 1_554 2_455
Ga3 O1 La 65.95(3) 4_446 2_455
Ga3 O1 La 169.7(4) 1_666 2_455
Ga3 O1 La 64.08(3) 2_465 2_455
O3 O1 La 99.71(14) 5 2_455
O3 O1 La 24.00(13) 2_455 2_455
O3 O1 La 140.71(14) 6_565 2_455
O3 O1 La 105.23(16) 4_556 2_455
O3 O1 La 45.68(15) 3_456 2_455
O3 O1 La 133.0(2) 1_566 2_455
O3 O1 La 75.9(2) 6_554 2_455
O3 O1 La 113.6(3) 2_564 2_455
O3 O1 La 58.58(15) 5_454 2_455
O2 O1 La 104.5(3) 4_554 2_455
O2 O1 La 43.17(16) 3_454 2_455
O2 O1 La 98.0(2) 1_564 2_455
O1 O1 La 49.37(9) 2_456 2_455
O1 O1 La 136.5(3) 2_566 2_455
O1 O1 La 100.51(9) 2_466 2_455
Ga2 O1 La 35.40(5) 1_554 2_455
Ga2 O1 La 123.0(2) 1_664 2_455
Ga2 O1 La 90.46(13) 1_564 2_455
La O1 La 117.92(9) 4 2_455
Ga2 O1 La 98.37(17) 2_566 1_565
La O1 La 143.2(4) . 1_565
La O1 La 81.67(11) 2_565 1_565
La O1 La 36.54(4) 4_455 1_565
O2 O1 La 106.5(5) 6 1_565
O2 O1 La 90.7(4) 5_455 1_565
O2 O1 La 48.9(3) 2_565 1_565
O3 O1 La 163.0(3) 6 1_565
O3 O1 La 45.3(3) 2_565 1_565
O3 O1 La 78.2(3) 5_455 1_565
O2 O1 La 119.7(5) 6_556 1_565
O2 O1 La 104.3(4) 5_456 1_565
O2 O1 La 68.3(3) 2_566 1_565
Ga2 O1 La 81.63(17) 2_565 1_565
Ga3 O1 La 137.22(18) 2_565 1_565
Ga3 O1 La 103.01(7) 1_556 1_565
Ga3 O1 La 41.10(7) 4_456 1_565
O2 O1 La 115.0(3) 4 1_565
O2 O1 La 126.7(3) 3_455 1_565
O2 O1 La 20.1(3) 1_565 1_565
O3 O1 La 142.6(5) . 1_565
O3 O1 La 55.31(17) 3_565 1_565
O3 O1 La 64.21(18) 4_455 1_565
Ga3 O1 La 114.0(3) 2_564 1_565
Ga3 O1 La 90.82(17) . 1_565
Ga3 O1 La 42.15(3) 4_455 1_565
O2 O1 La 163.5(2) . 1_565
O2 O1 La 78.2(2) 3_565 1_565
O2 O1 La 46.26(19) 4_455 1_565
Nb O1 La 150.3(2) . 1_565
Ga1 O1 La 150.3(2) . 1_565
Ga1 O1 La 81.72(6) 1_455 1_565
Nb O1 La 81.72(6) 1_455 1_565
Ga1 O1 La 36.49(2) 1_565 1_565
Nb O1 La 36.49(2) 1_565 1_565
O3 O1 La 149.4(4) 1_556 1_565
O3 O1 La 69.26(15) 3_566 1_565
O3 O1 La 76.43(17) 4_456 1_565
La O1 La 124.8(3) 1_556 1_565
La O1 La 94.41(13) 2_566 1_565
La O1 La 74.54(9) 4_456 1_565
Ga2 O1 La 142.68(10) . 1_565
Ga2 O1 La 99.22(3) 1_665 1_565
Ga2 O1 La 35.49(3) 1_565 1_565
O1 O1 La 133.8(3) 2_455 1_565
O1 O1 La 93.55(14) 2_565 1_565
O1 O1 La 25.24(8) 2_465 1_565
O3 O1 La 126.6(3) 4 1_565
O3 O1 La 97.84(19) 3_455 1_565
O3 O1 La 23.42(14) 1_565 1_565
O1 O1 La 98.37(17) 1_556 1_565
O1 O1 La 81.63(17) 1_554 1_565
Ga3 O1 La 169.7(4) 4_446 1_565
Ga3 O1 La 64.08(3) 1_666 1_565
Ga3 O1 La 65.95(3) 2_465 1_565
O3 O1 La 140.71(14) 5 1_565
O3 O1 La 99.71(14) 2_455 1_565
O3 O1 La 24.00(13) 6_565 1_565
O3 O1 La 133.0(2) 4_556 1_565
O3 O1 La 105.23(16) 3_456 1_565
O3 O1 La 45.68(15) 1_566 1_565
O3 O1 La 113.6(3) 6_554 1_565
O3 O1 La 58.58(15) 2_564 1_565
O3 O1 La 75.9(2) 5_454 1_565
O2 O1 La 98.0(2) 4_554 1_565
O2 O1 La 104.5(3) 3_454 1_565
O2 O1 La 43.17(16) 1_564 1_565
O1 O1 La 136.5(3) 2_456 1_565
O1 O1 La 100.50(9) 2_566 1_565
O1 O1 La 49.37(9) 2_466 1_565
Ga2 O1 La 123.0(2) 1_554 1_565
Ga2 O1 La 90.46(13) 1_664 1_565
Ga2 O1 La 35.40(5) 1_564 1_565
La O1 La 117.92(9) 4 1_565
La O1 La 117.92(9) 2_455 1_565
Ga2 O1 O3 86.5(2) 2_566 2
La O1 O3 42.01(18) . 2
La O1 O3 85.93(14) 2_565 2
La O1 O3 151.2(3) 4_455 2
O2 O1 O3 64.7(4) 6 2
O2 O1 O3 91.6(4) 5_455 2
O2 O1 O3 123.4(5) 2_565 2
O3 O1 O3 6.3(3) 6 2
O3 O1 O3 124.7(4) 2_565 2
O3 O1 O3 113.8(4) 5_455 2
O2 O1 O3 60.6(3) 6_556 2
O2 O1 O3 85.8(4) 5_456 2
O2 O1 O3 114.0(4) 2_566 2
Ga2 O1 O3 93.5(2) 2_565 2
Ga3 O1 O3 36.83(16) 2_565 2
Ga3 O1 O3 89.38(17) 1_556 2
Ga3 O1 O3 136.5(3) 4_456 2
O2 O1 O3 54.5(3) 4 2
O2 O1 O3 65.3(4) 3_455 2
O2 O1 O3 164.6(5) 1_565 2
O3 O1 O3 32.8(3) . 2
O3 O1 O3 112.34(16) 3_565 2
O3 O1 O3 123.29(17) 4_455 2
Ga3 O1 O3 56.57(12) 2_564 2
Ga3 O1 O3 93.37(18) . 2
Ga3 O1 O3 128.8(3) 4_455 2
O2 O1 O3 28.4(2) . 2
O2 O1 O3 91.3(2) 3_565 2
O2 O1 O3 146.2(2) 4_455 2
Nb O1 O3 18.08(12) . 2
Ga1 O1 O3 18.08(12) . 2
Ga1 O1 O3 108.77(15) 1_455 2
Nb O1 O3 108.77(15) 1_455 2
Ga1 O1 O3 131.47(15) 1_565 2
Nb O1 O3 131.47(15) 1_565 2
O3 O1 O3 35.5(2) 1_556 2
O3 O1 O3 105.92(19) 3_566 2
O3 O1 O3 115.1(2) 4_456 2
La O1 O3 63.14(14) 1_556 2
La O1 O3 84.19(19) 2_566 2
La O1 O3 113.1(3) 4_456 2
Ga2 O1 O3 49.74(14) . 2
Ga2 O1 O3 71.42(15) 1_665 2
Ga2 O1 O3 154.9(3) 1_565 2
O1 O1 O3 53.13(17) 2_455 2
O1 O1 O3 74.02(13) 2_565 2
O1 O1 O3 159.9(5) 2_465 2
O3 O1 O3 41.7(3) 4 2
O3 O1 O3 90.3(3) 3_455 2
O3 O1 O3 145.0(3) 1_565 2
O1 O1 O3 86.5(2) 1_556 2
O1 O1 O3 93.5(2) 1_554 2
Ga3 O1 O3 18.23(12) 4_446 2
Ga3 O1 O3 107.27(17) 1_666 2
Ga3 O1 O3 126.5(2) 2_465 2
O3 O1 O3 27.71(18) 5 2
O3 O1 O3 91.99(18) 2_455 2
O3 O1 O3 147.0(2) 6_565 2
O3 O1 O3 42.3(3) 4_556 2
O3 O1 O3 87.0(2) 3_456 2
O3 O1 O3 133.5(3) 1_566 2
O3 O1 O3 60.17(15) 6_554 2
O3 O1 O3 111.8(3) 2_564 2
O3 O1 O3 106.2(3) 5_454 2
O2 O1 O3 71.6(3) 4_554 2
O2 O1 O3 77.8(2) 3_454 2
O2 O1 O3 132.0(3) 1_564 2
O1 O1 O3 55.13(12) 2_456 2
O1 O1 O3 73.05(16) 2_566 2
O1 O1 O3 139.1(5) 2_466 2
Ga2 O1 O3 60.51(15) 1_554 2
Ga2 O1 O3 77.55(15) 1_664 2
Ga2 O1 O3 144.9(3) 1_564 2
La O1 O3 49.80(14) 4 2
La O1 O3 72.28(15) 2_455 2
La O1 O3 167.6(2) 1_565 2
Ga2 O1 O3 86.5(2) 2_566 5_565
La O1 O3 151.2(3) . 5_565
La O1 O3 42.00(18) 2_565 5_565
La O1 O3 85.93(14) 4_455 5_565
O2 O1 O3 91.6(4) 6 5_565
O2 O1 O3 123.4(5) 5_455 5_565
O2 O1 O3 64.7(4) 2_565 5_565
O3 O1 O3 113.8(4) 6 5_565
O3 O1 O3 6.3(3) 2_565 5_565
O3 O1 O3 124.7(4) 5_455 5_565
O2 O1 O3 85.8(4) 6_556 5_565
O2 O1 O3 114.0(4) 5_456 5_565
O2 O1 O3 60.6(3) 2_566 5_565
Ga2 O1 O3 93.5(2) 2_565 5_565
Ga3 O1 O3 89.38(17) 2_565 5_565
Ga3 O1 O3 136.5(3) 1_556 5_565
Ga3 O1 O3 36.83(16) 4_456 5_565
O2 O1 O3 65.3(4) 4 5_565
O2 O1 O3 164.6(5) 3_455 5_565
O2 O1 O3 54.5(4) 1_565 5_565
O3 O1 O3 123.29(17) . 5_565
O3 O1 O3 32.8(3) 3_565 5_565
O3 O1 O3 112.34(16) 4_455 5_565
Ga3 O1 O3 93.37(18) 2_564 5_565
Ga3 O1 O3 128.8(3) . 5_565
Ga3 O1 O3 56.57(12) 4_455 5_565
O2 O1 O3 146.2(2) . 5_565
O2 O1 O3 28.4(2) 3_565 5_565
O2 O1 O3 91.3(2) 4_455 5_565
Nb O1 O3 108.77(15) . 5_565
Ga1 O1 O3 108.77(15) . 5_565
Ga1 O1 O3 131.47(15) 1_455 5_565
Nb O1 O3 131.47(15) 1_455 5_565
Ga1 O1 O3 18.08(12) 1_565 5_565
Nb O1 O3 18.08(12) 1_565 5_565
O3 O1 O3 115.1(2) 1_556 5_565
O3 O1 O3 35.5(2) 3_566 5_565
O3 O1 O3 105.92(19) 4_456 5_565
La O1 O3 113.1(3) 1_556 5_565
La O1 O3 63.14(14) 2_566 5_565
La O1 O3 84.19(19) 4_456 5_565
Ga2 O1 O3 154.9(3) . 5_565
Ga2 O1 O3 49.74(14) 1_665 5_565
Ga2 O1 O3 71.42(15) 1_565 5_565
O1 O1 O3 159.9(5) 2_455 5_565
O1 O1 O3 53.12(17) 2_565 5_565
O1 O1 O3 74.02(13) 2_465 5_565
O3 O1 O3 90.3(3) 4 5_565
O3 O1 O3 145.0(3) 3_455 5_565
O3 O1 O3 41.7(3) 1_565 5_565
O1 O1 O3 86.5(2) 1_556 5_565
O1 O1 O3 93.5(2) 1_554 5_565
Ga3 O1 O3 126.5(2) 4_446 5_565
Ga3 O1 O3 18.23(12) 1_666 5_565
Ga3 O1 O3 107.27(17) 2_465 5_565
O3 O1 O3 91.99(18) 5 5_565
O3 O1 O3 147.0(2) 2_455 5_565
O3 O1 O3 27.71(18) 6_565 5_565
O3 O1 O3 87.0(2) 4_556 5_565
O3 O1 O3 133.5(3) 3_456 5_565
O3 O1 O3 42.3(3) 1_566 5_565
O3 O1 O3 106.2(3) 6_554 5_565
O3 O1 O3 60.17(15) 2_564 5_565
O3 O1 O3 111.8(3) 5_454 5_565
O2 O1 O3 77.8(2) 4_554 5_565
O2 O1 O3 132.0(3) 3_454 5_565
O2 O1 O3 71.6(3) 1_564 5_565
O1 O1 O3 139.1(5) 2_456 5_565
O1 O1 O3 55.13(12) 2_566 5_565
O1 O1 O3 73.05(16) 2_466 5_565
Ga2 O1 O3 144.9(3) 1_554 5_565
Ga2 O1 O3 60.51(15) 1_664 5_565
Ga2 O1 O3 77.55(15) 1_564 5_565
La O1 O3 72.28(15) 4 5_565
La O1 O3 167.6(2) 2_455 5_565
La O1 O3 49.80(14) 1_565 5_565
O3 O1 O3 119.63(4) 2 5_565
Ga2 O1 O3 86.5(2) 2_566 6_455
La O1 O3 85.93(14) . 6_455
La O1 O3 151.2(3) 2_565 6_455
La O1 O3 42.01(18) 4_455 6_455
O2 O1 O3 123.4(5) 6 6_455
O2 O1 O3 64.7(4) 5_455 6_455
O2 O1 O3 91.6(4) 2_565 6_455
O3 O1 O3 124.7(4) 6 6_455
O3 O1 O3 113.8(4) 2_565 6_455
O3 O1 O3 6.3(3) 5_455 6_455
O2 O1 O3 114.0(4) 6_556 6_455
O2 O1 O3 60.6(3) 5_456 6_455
O2 O1 O3 85.8(4) 2_566 6_455
Ga2 O1 O3 93.5(2) 2_565 6_455
Ga3 O1 O3 136.5(3) 2_565 6_455
Ga3 O1 O3 36.83(16) 1_556 6_455
Ga3 O1 O3 89.38(17) 4_456 6_455
O2 O1 O3 164.6(5) 4 6_455
O2 O1 O3 54.5(3) 3_455 6_455
O2 O1 O3 65.3(4) 1_565 6_455
O3 O1 O3 112.34(16) . 6_455
O3 O1 O3 123.29(17) 3_565 6_455
O3 O1 O3 32.8(3) 4_455 6_455
Ga3 O1 O3 128.8(3) 2_564 6_455
Ga3 O1 O3 56.57(12) . 6_455
Ga3 O1 O3 93.37(18) 4_455 6_455
O2 O1 O3 91.3(2) . 6_455
O2 O1 O3 146.2(2) 3_565 6_455
O2 O1 O3 28.4(2) 4_455 6_455
Nb O1 O3 131.47(15) . 6_455
Ga1 O1 O3 131.47(15) . 6_455
Ga1 O1 O3 18.08(12) 1_455 6_455
Nb O1 O3 18.08(12) 1_455 6_455
Ga1 O1 O3 108.77(15) 1_565 6_455
Nb O1 O3 108.77(15) 1_565 6_455
O3 O1 O3 105.92(19) 1_556 6_455
O3 O1 O3 115.1(2) 3_566 6_455
O3 O1 O3 35.5(2) 4_456 6_455
La O1 O3 84.2(2) 1_556 6_455
La O1 O3 113.1(3) 2_566 6_455
La O1 O3 63.14(14) 4_456 6_455
Ga2 O1 O3 71.42(15) . 6_455
Ga2 O1 O3 154.9(3) 1_665 6_455
Ga2 O1 O3 49.74(14) 1_565 6_455
O1 O1 O3 74.02(13) 2_455 6_455
O1 O1 O3 159.9(5) 2_565 6_455
O1 O1 O3 53.12(17) 2_465 6_455
O3 O1 O3 145.0(3) 4 6_455
O3 O1 O3 41.7(3) 3_455 6_455
O3 O1 O3 90.3(3) 1_565 6_455
O1 O1 O3 86.5(2) 1_556 6_455
O1 O1 O3 93.5(2) 1_554 6_455
Ga3 O1 O3 107.27(17) 4_446 6_455
Ga3 O1 O3 126.5(2) 1_666 6_455
Ga3 O1 O3 18.23(12) 2_465 6_455
O3 O1 O3 147.0(2) 5 6_455
O3 O1 O3 27.71(18) 2_455 6_455
O3 O1 O3 91.99(18) 6_565 6_455
O3 O1 O3 133.5(3) 4_556 6_455
O3 O1 O3 42.3(3) 3_456 6_455
O3 O1 O3 87.0(2) 1_566 6_455
O3 O1 O3 111.8(3) 6_554 6_455
O3 O1 O3 106.2(3) 2_564 6_455
O3 O1 O3 60.17(15) 5_454 6_455
O2 O1 O3 132.0(3) 4_554 6_455
O2 O1 O3 71.6(3) 3_454 6_455
O2 O1 O3 77.8(2) 1_564 6_455
O1 O1 O3 73.05(16) 2_456 6_455
O1 O1 O3 139.1(5) 2_566 6_455
O1 O1 O3 55.13(12) 2_466 6_455
Ga2 O1 O3 77.55(15) 1_554 6_455
Ga2 O1 O3 144.9(3) 1_664 6_455
Ga2 O1 O3 60.51(15) 1_564 6_455
La O1 O3 167.6(2) 4 6_455
La O1 O3 49.80(14) 2_455 6_455
La O1 O3 72.28(15) 1_565 6_455
O3 O1 O3 119.63(4) 2 6_455
O3 O1 O3 119.63(4) 5_565 6_455
Ga2 O1 O2 83.8(2) 2_566 1_665
La O1 O2 103.18(16) . 1_665
La O1 O2 31.6(2) 2_565 1_665
La O1 O2 137.2(3) 4_455 1_665
O2 O1 O2 67.9(4) 6 1_665
O2 O1 O2 126.5(4) 5_455 1_665
O2 O1 O2 92.9(6) 2_565 1_665
O3 O1 O2 60.2(3) 6 1_665
O3 O1 O2 58.9(3) 2_565 1_665
O3 O1 O2 167.3(6) 5_455 1_665
O2 O1 O2 58.6(5) 6_556 1_665
O2 O1 O2 111.8(5) 5_456 1_665
O2 O1 O2 82.6(4) 2_566 1_665
Ga2 O1 O2 96.2(2) 2_565 1_665
Ga3 O1 O2 41.57(18) 2_565 1_665
Ga3 O1 O2 139.3(4) 1_556 1_665
Ga3 O1 O2 80.58(16) 4_456 1_665
O2 O1 O2 12.5(4) 4 1_665
O2 O1 O2 129.0(5) 3_455 1_665
O2 O1 O2 106.6(4) 1_565 1_665
O3 O1 O2 77.9(2) . 1_665
O3 O1 O2 57.4(3) 3_565 1_665
O3 O1 O2 154.6(4) 4_455 1_665
Ga3 O1 O2 62.69(13) 2_564 1_665
Ga3 O1 O2 134.8(3) . 1_665
Ga3 O1 O2 89.6(2) 4_455 1_665
O2 O1 O2 93.4(2) . 1_665
O2 O1 O2 25.5(2) 3_565 1_665
O2 O1 O2 142.8(3) 4_455 1_665
Nb O1 O2 56.91(16) . 1_665
Ga1 O1 O2 56.91(16) . 1_665
Ga1 O1 O2 173.2(3) 1_455 1_665
Nb O1 O2 173.2(3) 1_455 1_665
Ga1 O1 O2 67.16(18) 1_565 1_665
Nb O1 O2 67.16(18) 1_565 1_665
O3 O1 O2 72.5(3) 1_556 1_665
O3 O1 O2 53.59(19) 3_566 1_665
O3 O1 O2 133.7(4) 4_456 1_665
La O1 O2 90.3(3) 1_556 1_665
La O1 O2 56.07(15) 2_566 1_665
La O1 O2 105.6(3) 4_456 1_665
Ga2 O1 O2 110.9(2) . 1_665
Ga2 O1 O2 13.69(13) 1_665 1_665
Ga2 O1 O2 120.60(19) 1_565 1_665
O1 O1 O2 115.25(16) 2_455 1_665
O1 O1 O2 27.0(3) 2_565 1_665
O1 O1 O2 125.3(2) 2_465 1_665
O3 O1 O2 46.19(18) 4 1_665
O3 O1 O2 149.5(3) 3_455 1_665
O3 O1 O2 88.2(2) 1_565 1_665
O1 O1 O2 83.8(2) 1_556 1_665
O1 O1 O2 96.2(2) 1_554 1_665
Ga3 O1 O2 75.4(2) 4_446 1_665
Ga3 O1 O2 43.96(15) 1_666 1_665
Ga3 O1 O2 150.2(3) 2_465 1_665
O3 O1 O2 38.4(2) 5 1_665
O3 O1 O2 156.2(3) 2_455 1_665
O3 O1 O2 81.2(2) 6_565 1_665
O3 O1 O2 42.7(2) 4_556 1_665
O3 O1 O2 133.1(4) 3_456 1_665
O3 O1 O2 82.4(2) 1_566 1_665
O3 O1 O2 79.7(2) 6_554 1_665
O3 O1 O2 79.1(3) 2_564 1_665
O3 O1 O2 129.7(3) 5_454 1_665
O2 O1 O2 58.37(13) 4_554 1_665
O2 O1 O2 119.9(3) 3_454 1_665
O2 O1 O2 106.2(4) 1_564 1_665
O1 O1 O2 105.8(3) 2_456 1_665
O1 O1 O2 30.15(17) 2_566 1_665
O1 O1 O2 113.7(3) 2_466 1_665
Ga2 O1 O2 113.36(17) 1_554 1_665
Ga2 O1 O2 43.46(15) 1_664 1_665
Ga2 O1 O2 121.7(3) 1_564 1_665
La O1 O2 22.91(13) 4 1_665
La O1 O2 138.01(17) 2_455 1_665
La O1 O2 103.01(18) 1_565 1_665
O3 O1 O2 66.0(2) 2 1_665
O3 O1 O2 53.7(2) 5_565 1_665
O3 O1 O2 168.5(3) 6_455 1_665
Ga3 O2 Ga2 117.1(8) 4_446 .
Ga3 O2 La 119.1(7) 4_446 4_445
Ga2 O2 La 104.0(8) . 4_445
Ga3 O2 O3 64.9(6) 4_446 6
Ga2 O2 O3 118.7(8) . 6
La O2 O3 129.2(7) 4_445 6
Ga3 O2 La 116.2(9) 4_446 .
Ga2 O2 La 92.0(6) . .
La O2 La 104.3(5) 4_445 .
O3 O2 La 51.4(4) 6 .
Ga3 O2 O3 40.3(4) 4_446 2
Ga2 O2 O3 157.4(8) . 2
La O2 O3 91.2(5) 4_445 2
O3 O2 O3 58.9(6) 6 2
La O2 O3 100.4(7) . 2
Ga3 O2 O1 157.3(8) 4_446 2_455
Ga2 O2 O1 84.6(6) . 2_455
La O2 O1 55.9(3) 4_445 2_455
O3 O2 O1 100.2(6) 6 2_455
La O2 O1 52.9(3) . 2_455
O3 O2 O1 117.9(6) 2 2_455
Ga3 O2 O2 140.2(10) 4_446 4_445
Ga2 O2 O2 40.8(3) . 4_445
La O2 O2 63.3(7) 4_445 4_445
O3 O2 O2 148.5(9) 6 4_445
La O2 O2 99.6(5) . 4_445
O3 O2 O2 150.8(11) 2 4_445
O1 O2 O2 60.7(3) 2_455 4_445
Ga3 O2 O2 131.8(9) 4_446 3_455
Ga2 O2 O2 40.8(3) . 3_455
La O2 O2 108.9(5) 4_445 3_455
O3 O2 O2 89.1(9) 6 3_455
La O2 O2 51.3(5) . 3_455
O3 O2 O2 147.9(11) 2 3_455
O1 O2 O2 60.7(3) 2_455 3_455
O2 O2 O2 60.000(1) 4_445 3_455
Ga3 O2 O3 36.2(4) 4_446 1_556
Ga2 O2 O3 87.6(5) . 1_556
La O2 O3 153.1(7) 4_445 1_556
O3 O2 O3 59.5(6) 6 1_556
La O2 O3 99.3(6) . 1_556
O3 O2 O3 71.9(6) 2 1_556
O1 O2 O3 150.6(7) 2_455 1_556
O2 O2 O3 125.1(3) 4_445 1_556
O2 O2 O3 95.8(6) 3_455 1_556
Ga3 O2 O2 37.2(7) 4_446 2_556
Ga2 O2 O2 98.8(7) . 2_556
La O2 O2 97.0(6) 4_445 2_556
O3 O2 O2 102.0(4) 6 2_556
La O2 O2 153.0(4) . 2_556
O3 O2 O2 62.3(5) 2 2_556
O1 O2 O2 152.4(6) 2_455 2_556
O2 O2 O2 104.8(5) 4_445 2_556
O2 O2 O2 135.5(5) 3_455 2_556
O3 O2 O2 56.9(5) 1_556 2_556
Ga3 O2 O1 87.7(5) 4_446 2_456
Ga2 O2 O1 29.6(3) . 2_456
La O2 O1 120.0(7) 4_445 2_456
O3 O2 O1 110.6(6) 6 2_456
La O2 O1 109.4(5) . 2_456
O3 O2 O1 127.9(6) 2 2_456
O1 O2 O1 114.2(5) 2_455 2_456
O2 O2 O1 63.3(3) 4_445 2_456
O2 O2 O1 63.3(3) 3_455 2_456
O3 O2 O1 61.9(4) 1_556 2_456
O2 O2 O1 72.6(5) 2_556 2_456
Ga3 O2 O3 97.1(7) 4_446 .
Ga2 O2 O3 135.4(8) . .
La O2 O3 80.3(5) 4_445 .
O3 O2 O3 50.3(5) 6 .
La O2 O3 45.3(4) . .
O3 O2 O3 62.9(5) 2 .
O1 O2 O3 60.8(4) 2_455 .
O2 O2 O3 121.2(3) 4_445 .
O2 O2 O3 95.2(6) 3_455 .
O3 O2 O3 108.5(7) 1_556 .
O2 O2 O3 125.1(6) 2_556 .
O1 O2 O3 153.5(6) 2_456 .
Ga3 O2 Nb 63.5(5) 4_446 .
Ga2 O2 Nb 152.2(9) . .
La O2 Nb 98.2(4) 4_445 .
O3 O2 Nb 34.1(3) 6 .
La O2 Nb 66.1(4) . .
O3 O2 Nb 34.2(3) 2 .
O1 O2 Nb 94.4(5) 2_455 .
O2 O2 Nb 154.1(2) 4_445 .
O2 O2 Nb 115.7(9) 3_455 .
O3 O2 Nb 79.7(5) 1_556 .
O2 O2 Nb 94.8(4) 2_556 .
O1 O2 Nb 140.6(5) 2_456 .
O3 O2 Nb 33.6(3) . .
Ga3 O2 Ga1 63.5(5) 4_446 .
Ga2 O2 Ga1 152.2(9) . .
La O2 Ga1 98.2(4) 4_445 .
O3 O2 Ga1 34.1(3) 6 .
La O2 Ga1 66.1(4) . .
O3 O2 Ga1 34.2(3) 2 .
O1 O2 Ga1 94.4(5) 2_455 .
O2 O2 Ga1 154.1(2) 4_445 .
O2 O2 Ga1 115.7(9) 3_455 .
O3 O2 Ga1 79.7(5) 1_556 .
O2 O2 Ga1 94.8(4) 2_556 .
O1 O2 Ga1 140.6(5) 2_456 .
O3 O2 Ga1 33.6(3) . .
Nb O2 Ga1 0.0 . .
Ga3 O2 O1 74.8(6) 4_446 1_545
Ga2 O2 O1 124.5(9) . 1_545
La O2 O1 44.6(3) 4_445 1_545
O3 O2 O1 115.1(5) 6 1_545
La O2 O1 133.5(6) . 1_545
O3 O2 O1 57.4(4) 2 1_545
O1 O2 O1 98.8(4) 2_455 1_545
O2 O2 O1 93.5(9) 4_445 1_545
O2 O2 O1 151.6(8) 3_455 1_545
O3 O2 O1 108.9(6) 1_556 1_545
O2 O2 O1 56.7(5) 2_556 1_545
O1 O2 O1 116.3(6) 2_456 1_545
O3 O2 O1 90.1(5) . 1_545
Nb O2 O1 83.2(3) . 1_545
Ga1 O2 O1 83.2(3) . 1_545
Ga3 O2 O2 97.3(6) 4_446 2
Ga2 O2 O2 141.6(6) . 2
La O2 O2 40.1(4) 4_445 2
O3 O2 O2 90.1(4) 6 2
La O2 O2 87.0(5) . 2
O3 O2 O2 58.6(5) 2 2
O1 O2 O2 64.5(5) 2_455 2
O2 O2 O2 101.6(3) 4_445 2
O2 O2 O2 124.0(5) 3_455 2
O3 O2 O2 130.5(5) 1_556 2
O2 O2 O2 99.2(8) 2_556 2
O1 O2 O2 158.7(5) 2_456 2
O3 O2 O2 46.6(4) . 2
Nb O2 O2 58.1(2) . 2
Ga1 O2 O2 58.1(2) . 2
O1 O2 O2 46.6(4) 1_545 2
Ga3 O2 Ga2 58.6(5) 4_446 2_556
Ga2 O2 Ga2 108.4(8) . 2_556
La O2 Ga2 67.1(4) 4_445 2_556
O3 O2 Ga2 118.0(5) 6 2_556
La O2 Ga2 159.0(5) . 2_556
O3 O2 Ga2 62.0(4) 2 2_556
O1 O2 Ga2 123.0(5) 2_455 2_556
O2 O2 Ga2 93.4(9) 4_445 2_556
O2 O2 Ga2 148.7(8) 3_455 2_556
O3 O2 Ga2 86.3(5) 1_556 2_556
O2 O2 Ga2 30.0(3) 2_556 2_556
O1 O2 Ga2 91.1(5) 2_456 2_556
O3 O2 Ga2 113.7(4) . 2_556
Nb O2 Ga2 95.4(3) . 2_556
Ga1 O2 Ga2 95.4(3) . 2_556
O1 O2 Ga2 28.2(3) 1_545 2_556
O2 O2 Ga2 74.2(5) 2 2_556
Ga3 O2 O3 111.8(8) 4_446 5_445
Ga2 O2 O3 78.4(7) . 5_445
La O2 O3 35.7(4) 4_445 5_445
O3 O2 O3 162.6(6) 6 5_445
La O2 O3 129.8(5) . 5_445
O3 O2 O3 106.8(6) 2 5_445
O1 O2 O3 77.1(4) 2_455 5_445
O2 O2 O3 44.2(8) 4_445 5_445
O2 O2 O3 103.9(7) 3_455 5_445
O3 O2 O3 128.8(6) 1_556 5_445
O2 O2 O3 76.8(3) 2_556 5_445
O1 O2 O3 85.8(5) 2_456 5_445
O3 O2 O3 115.9(5) . 5_445
Nb O2 O3 128.5(4) . 5_445
Ga1 O2 O3 128.5(4) . 5_445
O1 O2 O3 49.5(3) 1_545 5_445
O2 O2 O3 73.1(3) 2 5_445
Ga2 O2 O3 53.7(3) 2_556 5_445
Ga3 O2 Ga3 50.6(5) 4_446 2_565
Ga2 O2 Ga3 108.5(6) . 2_565
La O2 Ga3 146.5(6) 4_445 2_565
O3 O2 Ga3 21.1(3) 6 2_565
La O2 Ga3 67.1(4) . 2_565
O3 O2 Ga3 60.7(4) 2 2_565
O1 O2 Ga3 119.1(6) 2_455 2_565
O2 O2 Ga3 148.0(7) 4_445 2_565
O2 O2 Ga3 91.0(8) 3_455 2_565
O3 O2 Ga3 38.4(4) 1_556 2_565
O2 O2 Ga3 86.0(3) 2_556 2_565
O1 O2 Ga3 92.8(4) 2_456 2_565
O3 O2 Ga3 71.1(4) . 2_565
Nb O2 Ga3 48.4(2) . 2_565
Ga1 O2 Ga3 48.4(2) . 2_565
O1 O2 Ga3 117.0(4) 1_545 2_565
O2 O2 Ga3 106.4(2) 2 2_565
Ga2 O2 Ga3 108.8(4) 2_556 2_565
O3 O2 Ga3 162.4(5) 5_445 2_565
Ga3 O2 La 66.3(5) 4_446 4_446
Ga2 O2 La 62.1(5) . 4_446
La O2 La 101.0(6) 4_445 4_446
O3 O2 La 122.1(5) 6 4_446
La O2 La 147.6(4) . 4_446
O3 O2 La 99.0(5) 2 4_446
O1 O2 La 134.7(6) 2_455 4_446
O2 O2 La 74.2(4) 4_445 4_446
O2 O2 La 101.3(3) 3_455 4_446
O3 O2 La 62.8(4) 1_556 4_446
O2 O2 La 36.9(3) 2_556 4_446
O1 O2 La 39.0(2) 2_456 4_446
O3 O2 La 161.9(5) . 4_446
Nb O2 La 129.6(4) . 4_446
Ga1 O2 La 129.6(4) . 4_446
O1 O2 La 78.9(5) 1_545 4_446
O2 O2 La 125.3(6) 2 4_446
Ga2 O2 La 52.3(3) 2_556 4_446
O3 O2 La 67.2(4) 5_445 4_446
Ga3 O2 La 101.1(3) 2_565 4_446
Ga3 O2 La 68.3(4) 4_446 1_556
Ga2 O2 La 56.0(4) . 1_556
La O2 La 156.3(7) 4_445 1_556
O3 O2 La 74.4(4) 6 1_556
La O2 La 90.1(4) . 1_556
O3 O2 La 104.8(5) 2 1_556
O1 O2 La 126.2(5) 2_455 1_556
O2 O2 La 96.3(3) 4_445 1_556
O2 O2 La 65.7(4) 3_455 1_556
O3 O2 La 33.0(3) 1_556 1_556
O2 O2 La 76.0(5) 2_556 1_556
O1 O2 La 36.38(17) 2_456 1_556
O3 O2 La 122.4(5) . 1_556
Nb O2 La 104.8(4) . 1_556
Ga1 O2 La 104.8(4) . 1_556
O1 O2 La 132.6(6) 1_545 1_556
O2 O2 La 162.2(3) 2 1_556
Ga2 O2 La 104.8(4) 2_556 1_556
O3 O2 La 121.2(5) 5_445 1_556
Ga3 O2 La 56.6(2) 2_565 1_556
La O2 La 59.8(2) 4_446 1_556
Ga3 O2 Ga3 102.8(6) 4_446 4_445
Ga2 O2 Ga3 139.5(6) . 4_445
La O2 Ga3 57.9(3) 4_445 4_445
O3 O2 Ga3 71.6(4) 6 4_445
La O2 Ga3 62.8(3) . 4_445
O3 O2 Ga3 63.0(4) 2 4_445
O1 O2 Ga3 54.9(3) 2_455 4_445
O2 O2 Ga3 108.9(3) 4_445 4_445
O2 O2 Ga3 106.3(3) 3_455 4_445
O3 O2 Ga3 125.6(6) 1_556 4_445
O2 O2 Ga3 118.1(6) 2_556 4_445
O1 O2 Ga3 168.8(5) 2_456 4_445
O3 O2 Ga3 22.9(2) . 4_445
Nb O2 Ga3 45.85(19) . 4_445
Ga1 O2 Ga3 45.85(19) . 4_445
O1 O2 Ga3 70.7(4) 1_545 4_445
O2 O2 Ga3 24.7(3) 2 4_445
Ga2 O2 Ga3 97.4(3) 2_556 4_445
O3 O2 Ga3 93.5(4) 5_445 4_445
Ga3 O2 Ga3 91.2(4) 2_565 4_445
La O2 Ga3 149.5(4) 4_446 4_445
La O2 Ga3 145.2(5) 1_556 4_445
Ga3 O2 La 167.3(6) 4_446 2_455
Ga2 O2 La 50.2(4) . 2_455
La O2 La 69.4(4) 4_445 2_455
O3 O2 La 118.3(6) 6 2_455
La O2 La 67.4(3) . 2_455
O3 O2 La 152.4(5) 2 2_455
O1 O2 La 34.8(3) 2_455 2_455
O2 O2 La 32.4(3) 4_445 2_455
O2 O2 La 39.8(4) 3_455 2_455
O3 O2 La 132.9(4) 1_556 2_455
O2 O2 La 137.1(3) 2_556 2_455
O1 O2 La 79.7(4) 2_456 2_455
O3 O2 La 93.6(4) . 2_455
Nb O2 La 126.6(5) . 2_455
Ga1 O2 La 126.6(5) . 2_455
O1 O2 La 112.1(4) 1_545 2_455
O2 O2 La 95.0(5) 2 2_455
Ga2 O2 La 122.5(5) 2_556 2_455
O3 O2 La 69.0(4) 5_445 2_455
Ga3 O2 La 128.0(4) 2_565 2_455
La O2 La 103.8(4) 4_446 2_455
La O2 La 100.1(3) 1_556 2_455
Ga3 O2 La 89.6(3) 4_445 2_455
Ga3 O2 O3 1.3(3) 4_446 3_556
Ga2 O2 O3 118.4(6) . 3_556
La O2 O3 118.1(5) 4_445 3_556
O3 O2 O3 64.8(5) 6 3_556
La O2 O3 116.2(6) . 3_556
O3 O2 O3 39.1(4) 2 3_556
O1 O2 O3 156.2(6) 2_455 3_556
O2 O2 O3 140.8(7) 4_445 3_556
O2 O2 O3 132.9(7) 3_455 3_556
O3 O2 O3 37.4(4) 1_556 3_556
O2 O2 O3 37.3(3) 2_556 3_556
O1 O2 O3 88.9(4) 2_456 3_556
O3 O2 O3 96.2(4) . 3_556
Nb O2 O3 62.7(3) . 3_556
Ga1 O2 O3 62.7(3) . 3_556
O1 O2 O3 73.8(4) 1_545 3_556
O2 O2 O3 96.0(5) 2 3_556
Ga2 O2 O3 58.2(3) 2_556 3_556
O3 O2 O3 111.5(5) 5_445 3_556
Ga3 O2 O3 50.9(2) 2_565 3_556
La O2 O3 67.1(3) 4_446 3_556
La O2 O3 69.6(3) 1_556 3_556
Ga3 O2 O3 101.6(4) 4_445 3_556
La O2 O3 168.6(4) 2_455 3_556
Ga3 O2 O3 97.2(7) 4_446 4_446
Ga2 O2 O3 50.7(5) . 4_446
La O2 O3 75.5(5) 4_445 4_446
O3 O2 O3 153.9(5) 6 4_446
La O2 O3 139.6(5) . 4_446
O3 O2 O3 120.1(7) 2 4_446
O1 O2 O3 102.0(5) 2_455 4_446
O2 O2 O3 43.2(4) 4_445 4_446
O2 O2 O3 89.8(5) 3_455 4_446
O3 O2 O3 94.6(6) 1_556 4_446
O2 O2 O3 61.9(3) 2_556 4_446
O1 O2 O3 46.9(3) 2_456 4_446
O3 O2 O3 155.6(5) . 4_446
Nb O2 O3 154.2(5) . 4_446
Ga1 O2 O3 154.2(5) . 4_446
O1 O2 O3 74.8(5) 1_545 4_446
O2 O2 O3 111.8(4) 2 4_446
Ga2 O2 O3 58.9(4) 2_556 4_446
O3 O2 O3 39.9(4) 5_445 4_446
Ga3 O2 O3 132.8(4) 2_565 4_446
La O2 O3 33.1(2) 4_446 4_446
La O2 O3 81.3(3) 1_556 4_446
Ga3 O2 O3 133.4(4) 4_445 4_446
La O2 O3 75.2(3) 2_455 4_446
O3 O2 O3 97.7(5) 3_556 4_446
Ga3 O2 Ga3 121.9(8) 4_446 2_455
Ga2 O2 Ga3 42.5(5) . 2_455
La O2 Ga3 65.5(4) 4_445 2_455
O3 O2 Ga3 160.9(5) 6 2_455
La O2 Ga3 117.6(4) . 2_455
O3 O2 Ga3 138.8(7) 2 2_455
O1 O2 Ga3 77.9(4) 2_455 2_455
O2 O2 Ga3 18.6(4) 4_445 2_455
O2 O2 Ga3 73.3(5) 3_455 2_455
O3 O2 Ga3 114.0(5) 1_556 2_455
O2 O2 Ga3 86.2(3) 2_556 2_455
O1 O2 Ga3 55.1(3) 2_456 2_455
O3 O2 Ga3 136.8(4) . 2_455
Nb O2 Ga3 163.7(4) . 2_455
Ga1 O2 Ga3 163.7(4) . 2_455
O1 O2 Ga3 83.8(4) 1_545 2_455
O2 O2 Ga3 105.64(18) 2 2_455
Ga2 O2 Ga3 77.4(4) 2_556 2_455
O3 O2 Ga3 36.0(3) 5_445 2_455
Ga3 O2 Ga3 147.8(3) 2_565 2_455
La O2 Ga3 56.8(3) 4_446 2_455
La O2 Ga3 91.3(3) 1_556 2_455
Ga3 O2 Ga3 119.8(4) 4_445 2_455
La O2 Ga3 51.0(2) 2_455 2_455
O3 O2 Ga3 122.5(5) 3_556 2_455
O3 O2 Ga3 24.72(18) 4_446 2_455
Ga3 O2 Ga3 116.6(6) 4_446 1_556
Ga2 O2 Ga3 38.6(4) . 1_556
La O2 Ga3 123.5(5) 4_445 1_556
O3 O2 Ga3 83.0(5) 6 1_556
La O2 Ga3 56.5(3) . 1_556
O3 O2 Ga3 140.5(6) 2 1_556
O1 O2 Ga3 75.8(4) 2_455 1_556
O2 O2 Ga3 68.6(5) 4_445 1_556
O2 O2 Ga3 15.4(4) 3_455 1_556
O3 O2 Ga3 80.5(4) 1_556 1_556
O2 O2 Ga3 123.0(6) 2_556 1_556
O1 O2 Ga3 53.5(2) 2_456 1_556
O3 O2 Ga3 101.8(5) . 1_556
Nb O2 Ga3 114.3(5) . 1_556
Ga1 O2 Ga3 114.3(5) . 1_556
O1 O2 Ga3 161.8(6) 1_545 1_556
O2 O2 Ga3 137.8(7) 2 1_556
Ga2 O2 Ga3 144.4(5) 2_556 1_556
O3 O2 Ga3 112.5(5) 5_445 1_556
Ga3 O2 Ga3 80.2(3) 2_565 1_556
La O2 Ga3 92.5(3) 4_446 1_556
La O2 Ga3 50.46(15) 1_556 1_556
Ga3 O2 Ga3 117.1(4) 4_445 1_556
La O2 Ga3 54.04(18) 2_455 1_556
O3 O2 Ga3 117.8(3) 3_556 1_556
O3 O2 Ga3 89.2(3) 4_446 1_556
Ga3 O2 Ga3 78.1(3) 2_455 1_556
Ga3 O2 Ga2 144.6(7) 4_446 1_554
Ga2 O2 Ga2 97.7(5) . 1_554
La O2 Ga2 52.2(3) 4_445 1_554
O3 O2 Ga2 93.8(5) 6 1_554
La O2 Ga2 52.5(2) . 1_554
O3 O2 Ga2 104.9(5) 2 1_554
O1 O2 Ga2 13.0(2) 2_455 1_554
O2 O2 Ga2 71.54(16) 4_445 1_554
O2 O2 Ga2 71.54(16) 3_455 1_554
O3 O2 Ga2 151.3(7) 1_556 1_554
O2 O2 Ga2 148.0(6) 2_556 1_554
O1 O2 Ga2 127.2(5) 2_456 1_554
O3 O2 Ga2 49.7(3) . 1_554
Nb O2 Ga2 82.9(3) . 1_554
Ga1 O2 Ga2 82.9(3) . 1_554
O1 O2 Ga2 91.3(4) 1_545 1_554
O2 O2 Ga2 52.7(4) 2 1_554
Ga2 O2 Ga2 118.1(4) 2_556 1_554
O3 O2 Ga2 79.8(3) 5_445 1_554
Ga3 O2 Ga2 114.3(5) 2_565 1_554
La O2 Ga2 143.6(5) 4_446 1_554
La O2 Ga2 135.6(4) 1_556 1_554
Ga3 O2 Ga2 41.94(14) 4_445 1_554
La O2 Ga2 47.73(16) 2_455 1_554
O3 O2 Ga2 143.5(4) 3_556 1_554
O3 O2 Ga2 110.5(4) 4_446 1_554
Ga3 O2 Ga2 87.6(3) 2_455 1_554
Ga3 O2 Ga2 86.1(3) 1_556 1_554
Ga3 O2 O2 63.0(5) 4_446 6_556
Ga2 O2 O2 85.0(5) . 6_556
La O2 O2 166.7(9) 4_445 6_556
O3 O2 O2 38.1(4) 6 6_556
La O2 O2 65.1(5) . 6_556
O3 O2 O2 83.2(5) 2 6_556
O1 O2 O2 116.4(7) 2_455 6_556
O2 O2 O2 124.7(5) 4_445 6_556
O2 O2 O2 71.5(7) 3_455 6_556
O3 O2 O2 34.5(4) 1_556 6_556
O2 O2 O2 91.2(6) 2_556 6_556
O1 O2 O2 72.5(3) 2_456 6_556
O3 O2 O2 86.4(6) . 6_556
Nb O2 O2 70.5(4) . 6_556
Ga1 O2 O2 70.5(4) . 6_556
O1 O2 O2 136.8(3) 1_545 6_556
O2 O2 O2 128.1(4) 2 6_556
Ga2 O2 O2 119.8(4) 2_556 6_556
O3 O2 O2 157.7(7) 5_445 6_556
Ga3 O2 O2 23.5(2) 2_565 6_556
La O2 O2 91.9(4) 4_446 6_556
La O2 O2 36.5(2) 1_556 6_556
Ga3 O2 O2 108.9(6) 4_445 6_556
La O2 O2 111.1(3) 2_455 6_556
O3 O2 O2 63.8(3) 3_556 6_556
O3 O2 O2 117.7(5) 4_446 6_556
Ga3 O2 O2 125.8(4) 2_455 6_556
Ga3 O2 O2 58.7(2) 1_556 6_556
Ga2 O2 O2 117.6(6) 1_554 6_556
Ga3 O2 La 60.2(4) 4_446 2
Ga2 O2 La 157.6(9) . 2
La O2 La 64.7(3) 4_445 2
O3 O2 La 81.5(4) 6 2
La O2 La 109.2(5) . 2
O3 O2 La 26.8(3) 2 2
O1 O2 La 102.3(4) 2_455 2
O2 O2 La 125.0(8) 4_445 2
O2 O2 La 158.9(4) 3_455 2
O3 O2 La 95.6(4) 1_556 2
O2 O2 La 65.3(5) 2_556 2
O1 O2 La 137.8(5) 2_456 2
O3 O2 La 64.3(3) . 2
Nb O2 La 49.51(18) . 2
Ga1 O2 La 49.51(18) . 2
O1 O2 La 33.88(16) 1_545 2
O2 O2 La 37.9(4) 2 2
Ga2 O2 La 49.91(18) 2_556 2
O3 O2 La 82.4(4) 5_445 2
Ga3 O2 La 87.0(3) 2_565 2
La O2 La 99.7(4) 4_446 2
La O2 La 128.4(4) 1_556 2
Ga3 O2 La 52.81(16) 4_445 2
La O2 La 131.5(3) 2_455 2
O3 O2 La 58.9(3) 3_556 2
O3 O2 La 106.9(5) 4_446 2
Ga3 O2 La 117.6(4) 2_455 2
Ga3 O2 La 163.7(5) 1_556 2
Ga2 O2 La 90.2(2) 1_554 2
O2 O2 La 109.9(3) 6_556 2
Ga3 O2 O3 69.9(5) 4_446 3
Ga2 O2 O3 170.8(8) . 3
La O2 O3 75.7(4) 4_445 3
O3 O2 O3 57.7(5) 6 3
La O2 O3 79.3(4) . 3
O3 O2 O3 30.3(5) 2 3
O1 O2 O3 87.8(4) 2_455 3
O2 O2 O3 137.5(5) 4_445 3
O2 O2 O3 130.3(7) 3_455 3
O3 O2 O3 96.6(5) 1_556 3
O2 O2 O3 90.3(5) 2_556 3
O1 O2 O3 157.4(6) 2_456 3
O3 O2 O3 35.4(3) . 3
Nb O2 O3 23.63(19) . 3
Ga1 O2 O3 23.63(19) . 3
O1 O2 O3 61.8(3) 1_545 3
O2 O2 O3 36.1(3) 2 3
Ga2 O2 O3 80.1(3) 2_556 3
O3 O2 O3 104.9(4) 5_445 3
Ga3 O2 O3 70.9(3) 2_565 3
La O2 O3 127.0(4) 4_446 3
La O2 O3 126.1(5) 1_556 3
Ga3 O2 O3 32.9(2) 4_445 3
La O2 O3 122.6(4) 2_455 3
O3 O2 O3 68.7(3) 3_556 3
O3 O2 O3 136.5(5) 4_446 3
Ga3 O2 O3 140.3(4) 2_455 3
Ga3 O2 O3 134.0(5) 1_556 3
Ga2 O2 O3 74.8(3) 1_554 3
O2 O2 O3 93.8(5) 6_556 3
La O2 O3 30.28(18) 2 3
Ga3 O2 O3 137.3(7) 4_446 4_445
Ga2 O2 O3 86.8(6) . 4_445
La O2 O3 19.6(3) 4_445 4_445
O3 O2 O3 136.0(5) 6 4_445
La O2 O3 96.1(4) . 4_445
O3 O2 O3 110.3(5) 2 4_445
O1 O2 O3 43.5(2) 2_455 4_445
O2 O2 O3 46.3(5) 4_445 4_445
O2 O2 O3 89.8(5) 3_455 4_445
O3 O2 O3 163.8(7) 1_556 4_445
O2 O2 O3 109.1(4) 2_556 4_445
O1 O2 O3 108.0(5) 2_456 4_445
O3 O2 O3 86.0(4) . 4_445
Nb O2 O3 111.5(4) . 4_445
Ga1 O2 O3 111.5(4) . 4_445
O1 O2 O3 62.7(3) 1_545 4_445
O2 O2 O3 55.3(3) 2 4_445
Ga2 O2 O3 81.1(4) 2_556 4_445
O3 O2 O3 35.0(4) 5_445 4_445
Ga3 O2 O3 157.1(5) 2_565 4_445
La O2 O3 101.2(5) 4_446 4_445
La O2 O3 142.5(4) 1_556 4_445
Ga3 O2 O3 66.6(3) 4_445 4_445
La O2 O3 50.1(2) 2_455 4_445
O3 O2 O3 136.4(5) 3_556 4_445
O3 O2 O3 70.1(3) 4_446 4_445
Ga3 O2 O3 53.3(3) 2_455 4_445
Ga3 O2 O3 104.1(3) 1_556 4_445
Ga2 O2 O3 44.82(19) 1_554 4_445
O2 O2 O3 159.1(5) 6_556 4_445
La O2 O3 84.1(3) 2 4_445
O3 O2 O3 91.3(4) 3 4_445
Ga3 O2 O2 73.5(6) 4_446 5_446
Ga2 O2 O2 85.6(9) . 5_446
La O2 O2 66.9(3) 4_445 5_446
O3 O2 O2 137.8(7) 6 5_446
La O2 O2 169.9(7) . 5_446
O3 O2 O2 85.2(5) 2 5_446
O1 O2 O2 117.0(6) 2_455 5_446
O2 O2 O2 72.3(9) 4_445 5_446
O2 O2 O2 125.4(9) 3_455 5_446
O3 O2 O2 90.4(7) 1_556 5_446
O2 O2 O2 37.0(4) 2_556 5_446
O1 O2 O2 72.8(6) 2_456 5_446
O3 O2 O2 133.6(5) . 5_446
Nb O2 O2 118.8(5) . 5_446
Ga1 O2 O2 118.8(5) . 5_446
O1 O2 O2 43.5(3) 1_545 5_446
O2 O2 O2 88.7(4) 2 5_446
Ga2 O2 O2 23.41(15) 2_556 5_446
O3 O2 O2 40.0(3) 5_445 5_446
Ga3 O2 O2 123.0(5) 2_565 5_446
La O2 O2 37.2(4) 4_446 5_446
La O2 O2 96.7(6) 1_556 5_446
Ga3 O2 O2 113.4(3) 4_445 5_446
La O2 O2 103.8(6) 2_455 5_446
O3 O2 O2 73.4(4) 3_556 5_446
O3 O2 O2 35.6(5) 4_446 5_446
Ga3 O2 O2 55.0(4) 2_455 5_446
Ga3 O2 O2 123.3(6) 1_556 5_446
Ga2 O2 O2 118.0(4) 1_554 5_446
O2 O2 O2 124.4(7) 6_556 5_446
La O2 O2 72.2(3) 2 5_446
O3 O2 O2 102.5(4) 3 5_446
O3 O2 O2 74.0(4) 4_445 5_446
Ga3 O2 O2 93.6(7) 4_446 5_456
Ga2 O2 O2 51.7(5) . 5_456
La O2 O2 147.0(7) 4_445 5_456
O3 O2 O2 67.1(5) 6 5_456
La O2 O2 60.8(2) . 5_456
O3 O2 O2 119.4(7) 2 5_456
O1 O2 O2 95.9(5) 2_455 5_456
O2 O2 O2 89.0(5) 4_445 5_456
O2 O2 O2 38.2(5) 3_455 5_456
O3 O2 O2 57.9(4) 1_556 5_456
O2 O2 O2 107.8(7) 2_556 5_456
O1 O2 O2 51.8(3) 2_456 5_456
O3 O2 O2 101.8(5) . 5_456
Nb O2 O2 101.1(5) . 5_456
Ga1 O2 O2 101.1(5) . 5_456
O1 O2 O2 164.4(7) 1_545 5_456
O2 O2 O2 147.5(7) 2 5_456
Ga2 O2 O2 136.3(5) 2_556 5_456
O3 O2 O2 130.1(7) 5_445 5_456
Ga3 O2 O2 59.0(3) 2_565 5_456
La O2 O2 87.0(4) 4_446 5_456
La O2 O2 31.8(3) 1_556 5_456
Ga3 O2 O2 122.9(5) 4_445 5_456
La O2 O2 77.5(4) 2_455 5_456
O3 O2 O2 94.7(5) 3_556 5_456
O3 O2 O2 96.9(5) 4_446 5_456
Ga3 O2 O2 94.1(5) 2_455 5_456
Ga3 O2 O2 23.5(2) 1_556 5_456
Ga2 O2 O2 104.0(4) 1_554 5_456
O2 O2 O2 36.2(4) 6_556 5_456
La O2 O2 146.0(6) 2 5_456
O3 O2 O2 124.4(6) 3 5_456
O3 O2 O2 127.6(5) 4_445 5_456
O2 O2 O2 123.8(7) 5_446 5_456
Ga3 O2 O1 97.8(7) 4_446 .
Ga2 O2 O1 84.6(6) . .
La O2 O1 130.3(6) 4_445 .
O3 O2 O1 39.7(3) 6 .
La O2 O1 26.1(3) . .
O3 O2 O1 98.3(6) 2 .
O1 O2 O1 77.0(5) 2_455 .
O2 O2 O1 108.9(6) 4_445 .
O2 O2 O1 49.6(6) 3_455 .
O3 O2 O1 74.1(5) 1_556 .
O2 O2 O1 130.5(4) 2_556 .
O1 O2 O1 91.4(4) 2_456 .
O3 O2 O1 62.1(4) . .
Nb O2 O1 68.2(4) . .
Ga1 O2 O1 68.2(4) . .
O1 O2 O1 150.5(6) 1_545 .
O2 O2 O1 108.3(6) 2 .
Ga2 O2 O1 156.1(4) 2_556 .
O3 O2 O1 150.2(5) 5_445 .
Ga3 O2 O1 47.3(2) 2_565 .
La O2 O1 125.0(4) 4_446 .
La O2 O1 65.3(3) 1_556 .
Ga3 O2 O1 83.6(4) 4_445 .
La O2 O1 81.2(3) 2_455 .
O3 O2 O1 98.2(4) 3_556 .
O3 O2 O1 134.7(4) 4_446 .
Ga3 O2 O1 122.8(3) 2_455 .
Ga3 O2 O1 46.09(19) 1_556 .
Ga2 O2 O1 78.3(4) 1_554 .
O2 O2 O1 39.6(3) 6_556 .
La O2 O1 117.6(4) 2 .
O3 O2 O1 88.7(4) 3 .
O3 O2 O1 120.4(4) 4_445 .
O2 O2 O1 162.0(6) 5_446 .
O2 O2 O1 39.7(2) 5_456 .
Ga3 O2 O3 44.0(5) 4_446 5
Ga2 O2 O3 140.8(7) . 5
La O2 O3 115.1(5) 4_445 5
O3 O2 O3 29.2(3) 6 5
La O2 O3 76.9(4) . 5
O3 O2 O3 30.2(4) 2 5
O1 O2 O3 115.1(5) 2_455 5
O2 O2 O3 175.8(4) 4_445 5
O2 O2 O3 118.2(9) 3_455 5
O3 O2 O3 58.2(5) 1_556 5
O2 O2 O3 79.2(3) 2_556 5
O1 O2 O3 119.9(5) 2_456 5
O3 O2 O3 54.7(4) . 5
Nb O2 O3 21.97(19) . 5
Ga1 O2 O3 21.97(19) . 5
O1 O2 O3 87.4(4) 1_545 5
O2 O2 O3 76.1(3) 2 5
Ga2 O2 O3 89.4(4) 2_556 5
O3 O2 O3 136.9(5) 5_445 5
Ga3 O2 O3 32.5(2) 2_565 5
La O2 O3 110.0(4) 4_446 5
La O2 O3 86.1(3) 1_556 5
Ga3 O2 O3 67.6(3) 4_445 5
La O2 O3 143.7(5) 2_455 5
O3 O2 O3 43.3(3) 3_556 5
O3 O2 O3 140.9(4) 4_446 5
Ga3 O2 O3 165.4(5) 2_455 5
Ga3 O2 O3 110.6(4) 1_556 5
Ga2 O2 O3 104.3(4) 1_554 5
O2 O2 O3 56.1(3) 6_556 5
La O2 O3 55.1(3) 2 5
O3 O2 O3 40.1(4) 3 5
O3 O2 O3 131.3(3) 4_445 5
O2 O2 O3 111.0(5) 5_446 5
O2 O2 O3 91.2(5) 5_456 5
O1 O2 O3 68.9(3) . 5
Ga3 O2 Ga2 85.9(6) 4_446 2_566
Ga2 O2 Ga2 74.1(5) . 2_566
La O2 Ga2 150.5(6) 4_445 2_566
O3 O2 Ga2 44.6(4) 6 2_566
La O2 Ga2 47.2(3) . 2_566
O3 O2 Ga2 100.6(5) 2 2_566
O1 O2 Ga2 94.9(5) 2_455 2_566
O2 O2 Ga2 108.5(6) 4_445 2_566
O2 O2 Ga2 50.4(6) 3_455 2_566
O3 O2 Ga2 55.8(4) 1_556 2_566
O2 O2 Ga2 112.4(5) 2_556 2_566
O1 O2 Ga2 73.0(3) 2_456 2_566
O3 O2 Ga2 81.3(4) . 2_566
Nb O2 Ga2 78.3(4) . 2_566
Ga1 O2 Ga2 78.3(4) . 2_566
O1 O2 Ga2 157.7(5) 1_545 2_566
O2 O2 Ga2 127.9(5) 2 2_566
Ga2 O2 Ga2 142.0(4) 2_556 2_566
O3 O2 Ga2 152.1(5) 5_445 2_566
Ga3 O2 Ga2 40.72(17) 2_565 2_566
La O2 Ga2 103.6(3) 4_446 2_566
La O2 Ga2 43.83(16) 1_556 2_566
Ga3 O2 Ga2 103.8(4) 4_445 2_566
La O2 Ga2 89.0(3) 2_455 2_566
O3 O2 Ga2 86.7(3) 3_556 2_566
O3 O2 Ga2 119.4(4) 4_446 2_566
Ga3 O2 Ga2 116.4(3) 2_455 2_566
Ga3 O2 Ga2 39.92(14) 1_556 2_566
Ga2 O2 Ga2 98.4(4) 1_554 2_566
O2 O2 Ga2 22.9(2) 6_556 2_566
La O2 Ga2 125.6(4) 2 2_566
O3 O2 Ga2 101.4(4) 3 2_566
O3 O2 Ga2 136.3(4) 4_445 2_566
O2 O2 Ga2 140.4(5) 5_446 2_566
O2 O2 Ga2 22.9(2) 5_456 2_566
O1 O2 Ga2 21.6(2) . 2_566
O3 O2 Ga2 70.8(3) 5 2_566
Ga3 O2 Nb 23.4(3) 4_446 1_556
Ga2 O2 Nb 97.7(5) . 1_556
La O2 Nb 141.1(6) 4_445 1_556
O3 O2 Nb 60.9(4) 6 1_556
La O2 Nb 106.8(5) . 1_556
O3 O2 Nb 60.7(4) 2 1_556
O1 O2 Nb 159.6(6) 2_455 1_556
O2 O2 Nb 131.7(2) 4_445 1_556
O2 O2 Nb 108.7(6) 3_455 1_556
O3 O2 Nb 12.9(3) 1_556 1_556
O2 O2 Nb 47.5(3) 2_556 1_556
O1 O2 Nb 70.0(3) 2_456 1_556
O3 O2 Nb 105.9(4) . 1_556
Nb O2 Nb 74.1(3) . 1_556
Ga1 O2 Nb 74.1(3) . 1_556
O1 O2 Nb 96.5(4) 1_545 1_556
O2 O2 Nb 119.3(4) 2 1_556
Ga2 O2 Nb 75.6(3) 2_556 1_556
O3 O2 Nb 123.2(5) 5_445 1_556
Ga3 O2 Nb 40.99(15) 2_565 1_556
La O2 Nb 61.8(2) 4_446 1_556
La O2 Nb 45.23(14) 1_556 1_556
Ga3 O2 Nb 119.0(4) 4_445 1_556
La O2 Nb 145.3(3) 2_455 1_556
O3 O2 Nb 24.61(17) 3_556 1_556
O3 O2 Nb 94.9(4) 4_446 1_556
Ga3 O2 Nb 117.3(4) 2_455 1_556
Ga3 O2 Nb 93.4(3) 1_556 1_556
Ga2 O2 Nb 154.5(5) 1_554 1_556
O2 O2 Nb 44.2(2) 6_556 1_556
La O2 Nb 83.2(3) 2 1_556
O3 O2 Nb 87.6(4) 3 1_556
O3 O2 Nb 156.5(5) 4_445 1_556
O2 O2 Nb 83.3(5) 5_446 1_556
O2 O2 Nb 70.7(4) 5_456 1_556
O1 O2 Nb 83.0(3) . 1_556
O3 O2 Nb 52.1(2) 5 1_556
Ga2 O2 Nb 66.7(2) 2_566 1_556
Ga3 O2 Ga1 23.4(3) 4_446 1_556
Ga2 O2 Ga1 97.7(5) . 1_556
La O2 Ga1 141.1(6) 4_445 1_556
O3 O2 Ga1 60.9(4) 6 1_556
La O2 Ga1 106.8(5) . 1_556
O3 O2 Ga1 60.7(4) 2 1_556
O1 O2 Ga1 159.6(6) 2_455 1_556
O2 O2 Ga1 131.7(2) 4_445 1_556
O2 O2 Ga1 108.7(6) 3_455 1_556
O3 O2 Ga1 12.9(3) 1_556 1_556
O2 O2 Ga1 47.5(3) 2_556 1_556
O1 O2 Ga1 70.0(3) 2_456 1_556
O3 O2 Ga1 105.9(4) . 1_556
Nb O2 Ga1 74.1(3) . 1_556
Ga1 O2 Ga1 74.1(3) . 1_556
O1 O2 Ga1 96.5(4) 1_545 1_556
O2 O2 Ga1 119.3(4) 2 1_556
Ga2 O2 Ga1 75.6(3) 2_556 1_556
O3 O2 Ga1 123.2(5) 5_445 1_556
Ga3 O2 Ga1 40.99(15) 2_565 1_556
La O2 Ga1 61.8(2) 4_446 1_556
La O2 Ga1 45.23(14) 1_556 1_556
Ga3 O2 Ga1 119.0(4) 4_445 1_556
La O2 Ga1 145.3(3) 2_455 1_556
O3 O2 Ga1 24.61(17) 3_556 1_556
O3 O2 Ga1 94.9(4) 4_446 1_556
Ga3 O2 Ga1 117.3(4) 2_455 1_556
Ga3 O2 Ga1 93.4(3) 1_556 1_556
Ga2 O2 Ga1 154.5(5) 1_554 1_556
O2 O2 Ga1 44.2(2) 6_556 1_556
La O2 Ga1 83.2(3) 2 1_556
O3 O2 Ga1 87.6(4) 3 1_556
O3 O2 Ga1 156.5(5) 4_445 1_556
O2 O2 Ga1 83.3(5) 5_446 1_556
O2 O2 Ga1 70.7(4) 5_456 1_556
O1 O2 Ga1 83.0(3) . 1_556
O3 O2 Ga1 52.1(2) 5 1_556
Ga2 O2 Ga1 66.7(2) 2_566 1_556
Nb O2 Ga1 0.0 1_556 1_556
Ga3 O2 Ga3 23.0(4) 4_446 1_656
Ga2 O2 Ga3 136.0(6) . 1_656
La O2 Ga3 114.3(4) 4_445 1_656
O3 O2 Ga3 48.1(3) 6 1_656
La O2 Ga3 98.4(5) . 1_656
O3 O2 Ga3 23.7(3) 2 1_656
O1 O2 Ga3 134.6(5) 2_455 1_656
O2 O2 Ga3 161.9(7) 4_445 1_656
O2 O2 Ga3 132.5(9) 3_455 1_656
O3 O2 Ga3 48.6(3) 1_556 1_656
O2 O2 Ga3 57.1(3) 2_556 1_656
O1 O2 Ga3 108.1(4) 2_456 1_656
O3 O2 Ga3 74.1(4) . 1_656
Nb O2 Ga3 40.49(17) . 1_656
Ga1 O2 Ga3 40.49(17) . 1_656
O1 O2 Ga3 75.8(3) 1_545 1_656
O2 O2 Ga3 81.8(3) 2 1_656
Ga2 O2 Ga3 70.2(2) 2_556 1_656
O3 O2 Ga3 122.6(4) 5_445 1_656
Ga3 O2 Ga3 41.53(16) 2_565 1_656
La O2 Ga3 89.2(3) 4_446 1_656
La O2 Ga3 81.2(3) 1_556 1_656
Ga3 O2 Ga3 81.7(3) 4_445 1_656
La O2 Ga3 165.7(5) 2_455 1_656
O3 O2 Ga3 22.19(18) 3_556 1_656
O3 O2 Ga3 118.9(4) 4_446 1_656
Ga3 O2 Ga3 143.3(4) 2_455 1_656
Ga3 O2 Ga3 120.5(4) 1_556 1_656
Ga2 O2 Ga3 122.4(4) 1_554 1_656
O2 O2 Ga3 61.86(19) 6_556 1_656
La O2 Ga3 49.65(16) 2 1_656
O3 O2 Ga3 49.4(3) 3 1_656
O3 O2 Ga3 133.7(4) 4_445 1_656
O2 O2 Ga3 90.1(4) 5_446 1_656
O2 O2 Ga3 97.6(5) 5_456 1_656
O1 O2 Ga3 86.5(3) . 1_656
O3 O2 Ga3 22.03(18) 5 1_656
Ga2 O2 Ga3 82.1(3) 2_566 1_656
Nb O2 Ga3 38.36(12) 1_556 1_656
Ga1 O2 Ga3 38.36(12) 1_556 1_656
Ga3 O2 O2 98.1(7) 4_446 6
Ga2 O2 O2 113.8(6) . 6
La O2 O2 104.2(6) 4_445 6
O3 O2 O2 35.0(4) 6 6
La O2 O2 23.0(3) . 6
O3 O2 O2 77.4(5) 2 6
O1 O2 O2 65.2(4) 2_455 6
O2 O2 O2 120.5(4) 4_445 6
O2 O2 O2 73.6(6) 3_455 6
O3 O2 O2 92.6(6) 1_556 6
O2 O2 O2 134.64(11) 2_556 6
O1 O2 O2 125.3(5) 2_456 6
O3 O2 O2 28.2(3) . 6
Nb O2 O2 43.2(3) . 6
Ga1 O2 O2 43.2(3) . 6
O1 O2 O2 117.7(4) 1_545 6
O2 O2 O2 74.7(5) 2 6
Ga2 O2 O2 137.6(3) 2_556 6
O3 O2 O2 138.1(5) 5_445 6
Ga3 O2 O2 54.9(3) 2_565 6
La O2 O2 154.6(5) 4_446 6
La O2 O2 96.4(5) 1_556 6
Ga3 O2 O2 50.3(3) 4_445 6
La O2 O2 88.1(3) 2_455 6
O3 O2 O2 97.7(4) 3_556 6
O3 O2 O2 162.5(3) 4_446 6
Ga3 O2 O2 139.1(3) 2_455 6
Ga3 O2 O2 76.2(3) 1_556 6
Ga2 O2 O2 59.4(3) 1_554 6
O2 O2 O2 62.8(5) 6_556 6
La O2 O2 88.2(3) 2 6
O3 O2 O2 58.0(3) 3 6
O3 O2 O2 103.6(4) 4_445 6
O2 O2 O2 160.4(4) 5_446 6
O2 O2 O2 73.6(4) 5_456 6
O1 O2 O2 33.9(3) . 6
O3 O2 O2 55.6(3) 5 6
Ga2 O2 O2 53.5(3) 2_566 6
Nb O2 O2 95.7(4) 1_556 6
Ga1 O2 O2 95.7(4) 1_556 6
Ga3 O2 O2 77.6(3) 1_656 6
Ga3 O2 O2 107.1(5) 4_446 5_445
Ga2 O2 O2 114.6(8) . 5_445
La O2 O2 12.5(2) 4_445 5_445
O3 O2 O2 123.0(6) 6 5_445
La O2 O2 109.4(5) . 5_445
O3 O2 O2 79.1(5) 2 5_445
O1 O2 O2 65.5(5) 2_455 5_445
O2 O2 O2 74.3(8) 4_445 5_445
O2 O2 O2 121.1(7) 3_455 5_445
O3 O2 O2 142.3(5) 1_556 5_445
O2 O2 O2 88.5(4) 2_556 5_445
O1 O2 O2 125.9(7) 2_456 5_445
O3 O2 O2 77.7(4) . 5_445
Nb O2 O2 89.8(4) . 5_445
Ga1 O2 O2 89.8(4) . 5_445
O1 O2 O2 33.5(3) 1_545 5_445
O2 O2 O2 33.0(4) 2 5_445
Ga2 O2 O2 58.52(12) 2_556 5_445
O3 O2 O2 40.1(3) 5_445 5_445
Ga3 O2 O2 137.0(5) 2_565 5_445
La O2 O2 99.6(4) 4_446 5_445
La O2 O2 159.3(6) 1_556 5_445
Ga3 O2 O2 54.8(3) 4_445 5_445
La O2 O2 81.9(4) 2_455 5_445
O3 O2 O2 106.0(4) 3_556 5_445
O3 O2 O2 79.3(4) 4_446 5_445
Ga3 O2 O2 73.9(4) 2_455 5_445
Ga3 O2 O2 135.9(5) 1_556 5_445
Ga2 O2 O2 59.6(3) 1_554 5_445
O2 O2 O2 160.3(6) 6_556 5_445
La O2 O2 52.5(2) 2 5_445
O3 O2 O2 66.5(4) 3 5_445
O3 O2 O2 32.0(4) 4_445 5_445
O2 O2 O2 63.09(10) 5_446 5_445
O2 O2 O2 159.3(7) 5_456 5_445
O1 O2 O2 134.9(5) . 5_445
O3 O2 O2 104.6(5) 5 5_445
Ga2 O2 O2 156.5(5) 2_566 5_445
Nb O2 O2 129.7(4) 1_556 5_445
Ga1 O2 O2 129.7(4) 1_556 5_445
Ga3 O2 O2 102.0(4) 1_656 5_445
O2 O2 O2 104.3(5) 6 5_445
Ga3 O2 O2 127.1(9) 4_446 5_455
Ga2 O2 O2 86.0(5) . 5_455
La O2 O2 97.0(6) 4_445 5_455
O3 O2 O2 62.3(4) 6 5_455
La O2 O2 10.88(7) . 5_455
O3 O2 O2 108.9(7) 2 5_455
O1 O2 O2 43.2(4) 2_455 5_455
O2 O2 O2 89.1(5) 4_445 5_455
O2 O2 O2 45.5(3) 3_455 5_455
O3 O2 O2 108.1(5) 1_556 5_455
O2 O2 O2 163.6(4) 2_556 5_455
O1 O2 O2 107.3(4) 2_456 5_455
O3 O2 O2 49.7(5) . 5_455
Nb O2 O2 74.8(5) . 5_455
Ga1 O2 O2 74.8(5) . 5_455
O1 O2 O2 132.3(6) 1_545 5_455
O2 O2 O2 86.2(7) 2 5_455
Ga2 O2 O2 160.4(5) 2_556 5_455
O3 O2 O2 119.5(5) 5_445 5_455
Ga3 O2 O2 77.6(3) 2_565 5_455
La O2 O2 146.2(4) 4_446 5_455
La O2 O2 94.2(2) 1_556 5_455
Ga3 O2 O2 63.5(5) 4_445 5_455
La O2 O2 56.8(3) 2_455 5_455
O3 O2 O2 127.1(6) 3_556 5_455
O3 O2 O2 130.4(5) 4_446 5_455
Ga3 O2 O2 107.3(5) 2_455 5_455
Ga3 O2 O2 53.79(16) 1_556 5_455
Ga2 O2 O2 44.8(4) 1_554 5_455
O2 O2 O2 73.6(4) 6_556 5_455
La O2 O2 113.8(6) 2 5_455
O3 O2 O2 85.0(5) 3 5_455
O3 O2 O2 86.7(5) 4_445 5_455
O2 O2 O2 159.3(7) 5_446 5_455
O2 O2 O2 63.09(10) 5_456 5_455
O1 O2 O2 34.0(2) . 5_455
O3 O2 O2 87.2(5) 5 5_455
Ga2 O2 O2 53.65(11) 2_566 5_455
Nb O2 O2 116.5(4) 1_556 5_455
Ga1 O2 O2 116.5(4) 1_556 5_455
Ga3 O2 O2 108.9(5) 1_656 5_455
O2 O2 O2 32.2(4) 6 5_455
O2 O2 O2 103.8(5) 5_445 5_455
Ga3 O2 O2 123.4(5) 4_446 1_554
Ga2 O2 O2 119.1(5) . 1_554
La O2 O2 51.0(5) 4_445 1_554
O3 O2 O2 83.2(4) 6 1_554
La O2 O2 56.6(3) . 1_554
O3 O2 O2 83.4(4) 2 1_554
O1 O2 O2 34.5(3) 2_455 1_554
O2 O2 O2 90.000(2) 4_445 1_554
O2 O2 O2 90.000(1) 3_455 1_554
O3 O2 O2 142.1(5) 1_556 1_554
O2 O2 O2 133.7(5) 2_556 1_554
O1 O2 O2 148.7(3) 2_456 1_554
O3 O2 O2 33.6(3) . 1_554
Nb O2 O2 64.2(2) . 1_554
Ga1 O2 O2 64.2(2) . 1_554
O1 O2 O2 79.2(4) 1_545 1_554
O2 O2 O2 34.5(5) 2 1_554
Ga2 O2 O2 107.4(2) 2_556 1_554
O3 O2 O2 85.3(3) 5_445 1_554
Ga3 O2 O2 104.3(2) 2_565 1_554
La O2 O2 152.0(2) 4_446 1_554
La O2 O2 146.8(3) 1_556 1_554
Ga3 O2 O2 20.6(2) 4_445 1_554
La O2 O2 69.1(2) 2_455 1_554
O3 O2 O2 122.2(3) 3_556 1_554
O3 O2 O2 122.9(3) 4_446 1_554
Ga3 O2 O2 103.62(19) 2_455 1_554
Ga3 O2 O2 103.2(2) 1_556 1_554
Ga2 O2 O2 21.45(19) 1_554 1_554
O2 O2 O2 116.1(5) 6_556 1_554
La O2 O2 70.2(2) 2 1_554
O3 O2 O2 53.5(3) 3 1_554
O3 O2 O2 52.8(3) 4_445 1_554
O2 O2 O2 116.2(3) 5_446 1_554
O2 O2 O2 116.2(3) 5_456 1_554
O1 O2 O2 81.7(3) . 1_554
O3 O2 O2 86.1(2) 5 1_554
Ga2 O2 O2 103.3(2) 2_566 1_554
Nb O2 O2 138.3(2) 1_556 1_554
Ga1 O2 O2 138.3(2) 1_556 1_554
Ga3 O2 O2 101.98(18) 1_656 1_554
O2 O2 O2 53.3(3) 6 1_554
O2 O2 O2 53.2(3) 5_445 1_554
O2 O2 O2 53.2(3) 5_455 1_554
Ga3 O2 O2 56.6(5) 4_446 1_556
Ga2 O2 O2 60.9(5) . 1_556
La O2 O2 129.0(5) 4_445 1_556
O3 O2 O2 96.8(4) 6 1_556
La O2 O2 123.4(3) . 1_556
O3 O2 O2 96.6(4) 2 1_556
O1 O2 O2 145.5(3) 2_455 1_556
O2 O2 O2 90.000(1) 4_445 1_556
O2 O2 O2 90.000(2) 3_455 1_556
O3 O2 O2 37.9(5) 1_556 1_556
O2 O2 O2 46.3(5) 2_556 1_556
O1 O2 O2 31.3(3) 2_456 1_556
O3 O2 O2 146.4(3) . 1_556
Nb O2 O2 115.8(2) . 1_556
Ga1 O2 O2 115.8(2) . 1_556
O1 O2 O2 100.8(4) 1_545 1_556
O2 O2 O2 145.5(5) 2 1_556
Ga2 O2 O2 72.6(2) 2_556 1_556
O3 O2 O2 94.7(3) 5_445 1_556
Ga3 O2 O2 75.7(2) 2_565 1_556
La O2 O2 28.0(2) 4_446 1_556
La O2 O2 33.2(3) 1_556 1_556
Ga3 O2 O2 159.4(2) 4_445 1_556
La O2 O2 110.9(2) 2_455 1_556
O3 O2 O2 57.8(3) 3_556 1_556
O3 O2 O2 57.1(3) 4_446 1_556
Ga3 O2 O2 76.38(19) 2_455 1_556
Ga3 O2 O2 76.8(2) 1_556 1_556
Ga2 O2 O2 158.55(19) 1_554 1_556
O2 O2 O2 63.9(5) 6_556 1_556
La O2 O2 109.8(2) 2 1_556
O3 O2 O2 126.5(3) 3 1_556
O3 O2 O2 127.2(3) 4_445 1_556
O2 O2 O2 63.8(3) 5_446 1_556
O2 O2 O2 63.8(3) 5_456 1_556
O1 O2 O2 98.3(3) . 1_556
O3 O2 O2 93.9(2) 5 1_556
Ga2 O2 O2 76.7(2) 2_566 1_556
Nb O2 O2 41.7(2) 1_556 1_556
Ga1 O2 O2 41.7(2) 1_556 1_556
Ga3 O2 O2 78.02(18) 1_656 1_556
O2 O2 O2 126.7(3) 6 1_556
O2 O2 O2 126.8(3) 5_445 1_556
O2 O2 O2 126.8(3) 5_455 1_556
O2 O2 O2 179.999(9) 1_554 1_556
Ga3 O2 O3 31.8(4) 4_446 4_556
Ga2 O2 O3 109.9(6) . 4_556
La O2 O3 143.9(5) 4_445 4_556
O3 O2 O3 38.1(4) 6 4_556
La O2 O3 86.6(5) . 4_556
O3 O2 O3 52.8(5) 2 4_556
O1 O2 O3 138.1(6) 2_455 4_556
O2 O2 O3 149.7(3) 4_445 4_556
O2 O2 O3 104.7(8) 3_455 4_556
O3 O2 O3 25.3(3) 1_556 4_556
O2 O2 O3 66.5(3) 2_556 4_556
O1 O2 O3 86.7(4) 2_456 4_556
O3 O2 O3 84.0(4) . 4_556
Nb O2 O3 54.5(3) . 4_556
Ga1 O2 O3 54.5(3) . 4_556
O1 O2 O3 103.6(4) 1_545 4_556
O2 O2 O3 108.4(3) 2 4_556
Ga2 O2 O3 90.4(3) 2_556 4_556
O3 O2 O3 143.1(4) 5_445 4_556
Ga3 O2 O3 19.55(17) 2_565 4_556
La O2 O3 84.7(3) 4_446 4_556
La O2 O3 53.9(3) 1_556 4_556
Ga3 O2 O3 100.3(4) 4_445 4_556
La O2 O3 144.2(4) 2_455 4_556
O3 O2 O3 32.3(2) 3_556 4_556
O3 O2 O3 117.8(4) 4_446 4_556
Ga3 O2 O3 139.0(4) 2_455 4_556
Ga3 O2 O3 91.4(4) 1_556 4_556
Ga2 O2 O3 131.6(5) 1_554 4_556
O2 O2 O3 33.2(2) 6_556 4_556
La O2 O3 79.3(3) 2 4_556
O3 O2 O3 72.7(3) 3 4_556
O3 O2 O3 163.1(5) 4_445 4_556
O2 O2 O3 103.4(5) 5_446 4_556
O2 O2 O3 68.1(5) 5_456 4_556
O1 O2 O3 66.1(3) . 4_556
O3 O2 O3 33.2(3) 5 4_556
Ga2 O2 O3 55.3(3) 2_566 4_556
Nb O2 O3 22.93(15) 1_556 4_556
Ga1 O2 O3 22.93(15) 1_556 4_556
Ga3 O2 O3 29.66(19) 1_656 4_556
O2 O2 O3 73.0(4) 6 4_556
O2 O2 O3 131.7(5) 5_445 4_556
O2 O2 O3 97.2(4) 5_455 4_556
O2 O2 O3 117.4(2) 1_554 4_556
O2 O2 O3 62.6(2) 1_556 4_556
Ga3 O2 Ga3 94.5(7) 4_446 1_546
Ga2 O2 Ga3 79.0(6) . 1_546
La O2 Ga3 50.6(4) 4_445 1_546
O3 O2 Ga3 156.9(5) 6 1_546
La O2 Ga3 148.5(5) . 1_546
O3 O2 Ga3 98.9(5) 2 1_546
O1 O2 Ga3 96.0(4) 2_455 1_546
O2 O2 Ga3 54.6(7) 4_445 1_546
O2 O2 Ga3 113.2(7) 3_455 1_546
O3 O2 Ga3 110.2(6) 1_556 1_546
O2 O2 Ga3 58.3(2) 2_556 1_546
O1 O2 Ga3 76.9(4) 2_456 1_546
O3 O2 Ga3 128.4(4) . 1_546
Nb O2 Ga3 128.6(4) . 1_546
Ga1 O2 Ga3 128.6(4) . 1_546
O1 O2 Ga3 45.5(3) 1_545 1_546
O2 O2 Ga3 82.1(3) 2 1_546
Ga2 O2 Ga3 39.0(2) 2_556 1_546
O3 O2 Ga3 18.96(19) 5_445 1_546
Ga3 O2 Ga3 144.3(4) 2_565 1_546
La O2 Ga3 50.4(2) 4_446 1_546
La O2 Ga3 108.6(4) 1_556 1_546
Ga3 O2 Ga3 105.5(3) 4_445 1_546
La O2 Ga3 84.2(3) 2_455 1_546
O3 O2 Ga3 94.3(4) 3_556 1_546
O3 O2 Ga3 30.6(3) 4_446 1_546
Ga3 O2 Ga3 39.95(18) 2_455 1_546
Ga3 O2 Ga3 117.1(4) 1_556 1_546
Ga2 O2 Ga3 98.5(3) 1_554 1_546
O2 O2 Ga3 142.2(6) 6_556 1_546
La O2 Ga3 79.1(3) 2 1_546
O3 O2 Ga3 107.0(4) 3 1_546
O3 O2 Ga3 53.7(3) 4_445 1_546
O2 O2 Ga3 21.4(2) 5_446 1_546
O2 O2 Ga3 127.5(5) 5_456 1_546
O1 O2 Ga3 162.7(4) . 1_546
O3 O2 Ga3 128.0(4) 5 1_546
Ga2 O2 Ga3 149.8(3) 2_566 1_546
Nb O2 Ga3 104.3(3) 1_556 1_546
Ga1 O2 Ga3 104.3(3) 1_556 1_546
Ga3 O2 Ga3 109.1(3) 1_656 1_546
O2 O2 Ga3 154.8(4) 6 1_546
O2 O2 Ga3 50.9(2) 5_445 1_546
O2 O2 Ga3 138.0(5) 5_455 1_546
O2 O2 Ga3 101.59(16) 1_554 1_546
O2 O2 Ga3 78.41(16) 1_556 1_546
O3 O2 Ga3 124.8(4) 4_556 1_546
Ga3 O2 O3 113.6(5) 4_446 3_456
Ga2 O2 O3 19.5(4) . 3_456
La O2 O3 118.9(6) 4_445 3_456
O3 O2 O3 99.4(5) 6 3_456
La O2 O3 76.5(4) . 3_456
O3 O2 O3 149.7(5) 2 3_456
O1 O2 O3 84.7(4) 2_455 3_456
O2 O2 O3 56.7(4) 4_445 3_456
O2 O2 O3 28.1(2) 3_455 3_456
O3 O2 O3 78.8(4) 1_556 3_456
O2 O2 O3 107.5(6) 2_556 3_456
O1 O2 O3 35.2(2) 2_456 3_456
O3 O2 O3 121.8(5) . 3_456
Nb O2 O3 132.7(5) . 3_456
Ga1 O2 O3 132.7(5) . 3_456
O1 O2 O3 143.8(6) 1_545 3_456
O2 O2 O3 148.9(6) 2 3_456
Ga2 O2 O3 124.5(5) 2_556 3_456
O3 O2 O3 97.5(5) 5_445 3_456
Ga3 O2 O3 91.4(3) 2_565 3_456
La O2 O3 73.7(3) 4_446 3_456
La O2 O3 45.8(2) 1_556 3_456
Ga3 O2 O3 134.3(4) 4_445 3_456
La O2 O3 54.4(3) 2_455 3_456
O3 O2 O3 114.9(4) 3_556 3_456
O3 O2 O3 69.3(3) 4_446 3_456
Ga3 O2 O3 61.6(3) 2_455 3_456
Ga3 O2 O3 20.33(15) 1_556 3_456
Ga2 O2 O3 96.9(3) 1_554 3_456
O2 O2 O3 67.9(3) 6_556 3_456
La O2 O3 172.8(4) 2 3_456
O3 O2 O3 154.1(6) 3 3_456
O3 O2 O3 100.0(3) 4_445 3_456
O2 O2 O3 103.0(6) 5_446 3_456
O2 O2 O3 32.8(3) 5_456 3_456
O1 O2 O3 65.5(3) . 3_456
O3 O2 O3 123.8(4) 5 3_456
Ga2 O2 O3 54.8(2) 2_566 3_456
Nb O2 O3 90.9(3) 1_556 3_456
Ga1 O2 O3 90.9(3) 1_556 3_456
Ga3 O2 O3 126.1(4) 1_656 3_456
O2 O2 O3 96.6(4) 6 3_456
O2 O2 O3 130.7(6) 5_445 3_456
O2 O2 O3 72.6(3) 5_455 3_456
O2 O2 O3 117.0(2) 1_554 3_456
O2 O2 O3 63.0(2) 1_556 3_456
O3 O2 O3 96.9(4) 4_556 3_456
Ga3 O2 O3 98.4(4) 1_546 3_456
Ga3 O2 O3 143.7(6) 4_446 2_455
Ga2 O2 O3 35.6(4) . 2_455
La O2 O3 95.2(4) 4_445 2_455
O3 O2 O3 103.6(4) 6 2_455
La O2 O3 60.5(3) . 2_455
O3 O2 O3 160.7(7) 2 2_455
O1 O2 O3 53.5(3) 2_455 2_455
O2 O2 O3 45.1(5) 4_445 2_455
O2 O2 O3 15.4(5) 3_455 2_455
O3 O2 O3 107.6(4) 1_556 2_455
O2 O2 O3 134.3(5) 2_556 2_455
O1 O2 O3 63.3(3) 2_456 2_455
O3 O2 O3 100.3(4) . 2_455
Nb O2 O3 126.6(5) . 2_455
Ga1 O2 O3 126.6(5) . 2_455
O1 O2 O3 136.3(4) 1_545 2_455
O2 O2 O3 117.8(6) 2 2_455
Ga2 O2 O3 137.0(5) 2_556 2_455
O3 O2 O3 88.7(3) 5_445 2_455
Ga3 O2 O3 106.4(4) 2_565 2_455
La O2 O3 97.5(3) 4_446 2_455
La O2 O3 75.4(3) 1_556 2_455
Ga3 O2 O3 105.6(3) 4_445 2_455
La O2 O3 25.86(15) 2_455 2_455
O3 O2 O3 144.9(4) 3_556 2_455
O3 O2 O3 79.2(3) 4_446 2_455
Ga3 O2 O3 59.8(2) 2_455 2_455
Ga3 O2 O3 28.30(19) 1_556 2_455
Ga2 O2 O3 65.9(2) 1_554 2_455
O2 O2 O3 86.5(2) 6_556 2_455
La O2 O3 155.7(3) 2 2_455
O3 O2 O3 135.4(4) 3 2_455
O3 O2 O3 75.8(3) 4_445 2_455
O2 O2 O3 114.0(6) 5_446 2_455
O2 O2 O3 51.8(4) 5_456 2_455
O1 O2 O3 63.9(2) . 2_455
O3 O2 O3 132.8(5) 5 2_455
Ga2 O2 O3 65.8(3) 2_566 2_455
Nb O2 O3 120.3(3) 1_556 2_455
Ga1 O2 O3 120.3(3) 1_556 2_455
Ga3 O2 O3 147.9(4) 1_656 2_455
O2 O2 O3 83.4(2) 6 2_455
O2 O2 O3 107.7(5) 5_445 2_455
O2 O2 O3 52.3(3) 5_455 2_455
O2 O2 O3 86.6(2) 1_554 2_455
O2 O2 O3 93.4(2) 1_556 2_455
O3 O2 O3 119.5(4) 4_556 2_455
Ga3 O2 O3 99.2(3) 1_546 2_455
O3 O2 O3 31.2(3) 3_456 2_455
Ga3 O2 O3 73.2(6) 4_446 4
Ga2 O2 O3 142.7(8) . 4
La O2 O3 99.9(5) 4_445 4
O3 O2 O3 29.5(4) 6 4
La O2 O3 54.1(4) . 4
O3 O2 O3 46.2(4) 2 4
O1 O2 O3 85.6(5) 2_455 4
O2 O2 O3 146.2(4) 4_445 4
O2 O2 O3 104.1(8) 3_455 4
O3 O2 O3 83.6(4) 1_556 4
O2 O2 O3 106.3(4) 2_556 4
O1 O2 O3 140.1(5) 2_456 4
O3 O2 O3 25.6(3) . 4
Nb O2 O3 12.01(18) . 4
Ga1 O2 O3 12.01(18) . 4
O1 O2 O3 92.6(4) 1_545 4
O2 O2 O3 60.7(2) 2 4
Ga2 O2 O3 107.1(3) 2_556 4
O3 O2 O3 133.7(3) 5_445 4
Ga3 O2 O3 48.0(3) 2_565 4
La O2 O3 139.5(4) 4_446 4
La O2 O3 103.8(4) 1_556 4
Ga3 O2 O3 43.3(2) 4_445 4
La O2 O3 115.9(4) 2_455 4
O3 O2 O3 72.5(3) 3_556 4
O3 O2 O3 166.0(5) 4_446 4
Ga3 O2 O3 162.3(4) 2_455 4
Ga3 O2 O3 104.1(4) 1_556 4
Ga2 O2 O3 75.1(3) 1_554 4
O2 O2 O3 67.6(4) 6_556 4
La O2 O3 59.7(2) 2 4
O3 O2 O3 30.9(2) 3 4
O3 O2 O3 109.8(4) 4_445 4
O2 O2 O3 130.5(5) 5_446 4
O2 O2 O3 93.9(5) 5_456 4
O1 O2 O3 58.1(3) . 4
O3 O2 O3 29.6(3) 5 4
Ga2 O2 O3 70.9(3) 2_566 4
Nb O2 O3 80.3(3) 1_556 4
Ga1 O2 O3 80.3(3) 1_556 4
Ga3 O2 O3 50.5(2) 1_656 4
O2 O2 O3 31.2(2) 6 4
O2 O2 O3 93.6(4) 5_445 4
O2 O2 O3 62.8(5) 5_455 4
O2 O2 O3 58.7(2) 1_554 4
O2 O2 O3 121.3(2) 1_556 4
O3 O2 O3 58.7(2) 4_556 4
Ga3 O2 O3 137.9(3) 1_546 4
O3 O2 O3 123.6(5) 3_456 4
O3 O2 O3 114.6(4) 2_455 4
Ga3 O2 Ga2 99.4(5) 4_446 2
Ga2 O2 Ga2 133.2(7) . 2
La O2 Ga2 29.3(2) 4_445 2
O3 O2 Ga2 102.4(5) 6 2
La O2 Ga2 97.2(4) . 2
O3 O2 Ga2 64.2(4) 2 2
O1 O2 Ga2 65.9(3) 2_455 2
O2 O2 Ga2 92.4(6) 4_445 2
O2 O2 Ga2 126.5(3) 3_455 2
O3 O2 Ga2 135.1(4) 1_556 2
O2 O2 Ga2 93.3(5) 2_556 2
O1 O2 Ga2 146.1(6) 2_456 2
O3 O2 Ga2 58.9(3) . 2
Nb O2 Ga2 69.5(2) . 2
Ga1 O2 Ga2 69.5(2) . 2
O1 O2 Ga2 37.5(3) 1_545 2
O2 O2 Ga2 12.6(2) 2 2
Ga2 O2 Ga2 65.7(2) 2_556 2
O3 O2 Ga2 60.6(3) 5_445 2
Ga3 O2 Ga2 117.4(3) 2_565 2
La O2 Ga2 114.7(4) 4_446 2
La O2 Ga2 167.6(4) 1_556 2
Ga3 O2 Ga2 36.47(11) 4_445 2
La O2 Ga2 91.9(3) 2_455 2
O3 O2 Ga2 98.2(3) 3_556 2
O3 O2 Ga2 99.2(4) 4_446 2
Ga3 O2 Ga2 94.2(3) 2_455 2
Ga3 O2 Ga2 141.7(3) 1_556 2
Ga2 O2 Ga2 55.85(15) 1_554 2
O2 O2 Ga2 140.0(5) 6_556 2
La O2 Ga2 39.53(11) 2 2
O3 O2 Ga2 46.5(2) 3 2
O3 O2 Ga2 46.7(2) 4_445 2
O2 O2 Ga2 77.5(2) 5_446 2
O2 O2 Ga2 157.8(5) 5_456 2
O1 O2 Ga2 120.0(4) . 2
O3 O2 Ga2 85.9(3) 5 2
Ga2 O2 Ga2 140.2(4) 2_566 2
Nb O2 Ga2 122.7(3) 1_556 2
Ga1 O2 Ga2 122.7(3) 1_556 2
Ga3 O2 Ga2 87.8(2) 1_656 2
O2 O2 Ga2 86.8(3) 6 2
O2 O2 Ga2 20.6(2) 5_445 2
O2 O2 Ga2 94.8(5) 5_455 2
O2 O2 Ga2 41.6(2) 1_554 2
O2 O2 Ga2 138.4(2) 1_556 2
O3 O2 Ga2 116.4(3) 4_556 2
Ga3 O2 Ga2 69.6(2) 1_546 2
O3 O2 Ga2 145.9(4) 3_456 2
O3 O2 Ga2 116.9(3) 2_455 2
O3 O2 Ga2 73.0(2) 4 2
Ga3 O2 O3 155.4(8) 4_446 3_455
Ga2 O2 O3 63.5(5) . 3_455
La O2 O3 82.4(4) 4_445 3_455
O3 O2 O3 92.6(5) 6 3_455
La O2 O3 41.6(3) . 3_455
O3 O2 O3 136.3(6) 2 3_455
O1 O2 O3 29.1(3) 2_455 3_455
O2 O2 O3 58.1(4) 4_445 3_455
O2 O2 O3 31.8(2) 3_455 3_455
O3 O2 O3 124.3(4) 1_556 3_455
O2 O2 O3 161.3(5) 2_556 3_455
O1 O2 O3 91.4(4) 2_456 3_455
O3 O2 O3 73.4(4) . 3_455
Nb O2 O3 103.8(5) . 3_455
Ga1 O2 O3 103.8(5) . 3_455
O1 O2 O3 126.8(4) 1_545 3_455
O2 O2 O3 92.4(6) 2 3_455
Ga2 O2 O3 146.0(5) 2_556 3_455
O3 O2 O3 92.7(4) 5_445 3_455
Ga3 O2 O3 104.9(4) 2_565 3_455
La O2 O3 124.6(4) 4_446 3_455
La O2 O3 97.1(3) 1_556 3_455
Ga3 O2 O3 77.5(3) 4_445 3_455
La O2 O3 25.88(17) 2_455 3_455
O3 O2 O3 155.8(6) 3_556 3_455
O3 O2 O3 100.1(3) 4_446 3_455
Ga3 O2 O3 76.5(3) 2_455 3_455
Ga3 O2 O3 46.7(2) 1_556 3_455
Ga2 O2 O3 39.75(19) 1_554 3_455
O2 O2 O3 93.3(4) 6_556 3_455
La O2 O3 129.3(3) 2 3_455
O3 O2 O3 107.5(4) 3 3_455
O3 O2 O3 65.9(2) 4_445 3_455
O2 O2 O3 129.6(6) 5_446 3_455
O2 O2 O3 67.1(3) 5_456 3_455
O1 O2 O3 57.6(3) . 3_455
O3 O2 O3 118.2(4) 5 3_455
Ga2 O2 O3 70.4(3) 2_566 3_455
Nb O2 O3 136.5(4) 1_556 3_455
Ga1 O2 O3 136.5(4) 1_556 3_455
Ga3 O2 O3 139.9(5) 1_656 3_455
O2 O2 O3 62.8(3) 6 3_455
O2 O2 O3 93.3(4) 5_445 3_455
O2 O2 O3 31.0(3) 5_455 3_455
O2 O2 O3 59.11(19) 1_554 3_455
O2 O2 O3 120.89(19) 1_556 3_455
O3 O2 O3 123.6(5) 4_556 3_455
Ga3 O2 O3 109.3(4) 1_546 3_455
O3 O2 O3 57.9(2) 3_456 3_455
O3 O2 O3 28.2(3) 2_455 3_455
O3 O2 O3 92.2(4) 4 3_455
Ga2 O2 O3 95.0(3) 2 3_455
Ga3 O2 O2 33.9(4) 4_446 3
Ga2 O2 O2 150.9(5) . 3
La O2 O2 95.1(5) 4_445 3
O3 O2 O2 59.9(3) 6 3
La O2 O2 104.4(4) . 3
O3 O2 O2 6.6(4) 2 3
O1 O2 O2 124.4(3) 2_455 3
O2 O2 O2 151.2(10) 4_445 3
O2 O2 O2 148.8(10) 3_455 3
O3 O2 O2 66.4(3) 1_556 3
O2 O2 O2 56.7(4) 2_556 3
O1 O2 O2 121.3(3) 2_456 3
O3 O2 O2 68.9(3) . 3
Nb O2 O2 38.79(14) . 3
Ga1 O2 O2 38.79(14) . 3
O1 O2 O2 58.3(4) 1_545 3
O2 O2 O2 64.5(5) 2 3
Ga2 O2 O2 59.3(3) 2_556 3
O3 O2 O2 107.2(5) 5_445 3
Ga3 O2 O2 58.86(19) 2_565 3
La O2 O2 93.1(3) 4_446 3
La O2 O2 99.4(2) 1_556 3
Ga3 O2 O2 69.5(2) 4_445 3
La O2 O2 158.83(19) 2_455 3
O3 O2 O2 32.6(3) 3_556 3
O3 O2 O2 116.0(5) 4_446 3
Ga3 O2 O2 136.6(5) 2_455 3
Ga3 O2 O2 139.0(5) 1_556 3
Ga2 O2 O2 111.45(19) 1_554 3
O2 O2 O2 80.6(3) 6_556 3
La O2 O2 30.5(2) 2 3
O3 O2 O2 36.8(3) 3 3
O3 O2 O2 114.5(4) 4_445 3
O2 O2 O2 81.9(5) 5_446 3
O2 O2 O2 116.6(5) 5_456 3
O1 O2 O2 99.6(4) . 3
O3 O2 O2 30.7(2) 5 3
Ga2 O2 O2 99.5(3) 2_566 3
Nb O2 O2 54.80(17) 1_556 3
Ga1 O2 O2 54.80(17) 1_556 3
Ga3 O2 O2 19.20(15) 1_656 3
O2 O2 O2 81.6(3) 6 3
O2 O2 O2 82.8(4) 5_445 3
O2 O2 O2 113.5(5) 5_455 3
O2 O2 O2 90.0 1_554 3
O2 O2 O2 90.000(1) 1_556 3
O3 O2 O2 48.9(2) 4_556 3
Ga3 O2 O2 97.3(4) 1_546 3
O3 O2 O2 145.0(3) 3_456 3
O3 O2 O2 163.5(5) 2_455 3
O3 O2 O2 50.72(17) 4 3
Ga2 O2 O2 69.2(3) 2 3
O3 O2 O2 142.1(4) 3_455 3
Ga3 O2 O2 60.7(5) 4_446 4
Ga2 O2 O2 114.9(8) . 4
La O2 O2 135.5(4) 4_445 4
O3 O2 O2 6.8(4) 6 4
La O2 O2 55.5(5) . 4
O3 O2 O2 59.9(3) 2 4
O1 O2 O2 105.8(5) 2_455 4
O2 O2 O2 148.8(10) 4_445 4
O2 O2 O2 88.8(10) 3_455 4
O3 O2 O2 52.9(5) 1_556 4
O2 O2 O2 97.6(2) 2_556 4
O1 O2 O2 104.5(5) 2_456 4
O3 O2 O2 57.1(3) . 4
Nb O2 O2 38.79(14) . 4
Ga1 O2 O2 38.79(14) . 4
O1 O2 O2 117.1(3) 1_545 4
O2 O2 O2 95.95(12) 2 4
Ga2 O2 O2 116.3(3) 2_556 4
O3 O2 O2 166.4(5) 5_445 4
Ga3 O2 O2 14.4(2) 2_565 4
La O2 O2 115.5(2) 4_446 4
La O2 O2 68.2(4) 1_556 4
Ga3 O2 O2 78.1(2) 4_445 4
La O2 O2 121.0(5) 2_455 4
O3 O2 O2 60.8(2) 3_556 4
O3 O2 O2 147.1(3) 4_446 4
Ga3 O2 O2 157.2(4) 2_455 4
Ga3 O2 O2 81.0(5) 1_556 4
Ga2 O2 O2 100.1(3) 1_554 4
O2 O2 O2 32.2(5) 6_556 4
La O2 O2 84.0(2) 2 4
O3 O2 O2 62.4(2) 3 4
O3 O2 O2 142.8(3) 4_445 4
O2 O2 O2 134.2(5) 5_446 4
O2 O2 O2 63.3(5) 5_456 4
O1 O2 O2 40.4(3) . 4
O3 O2 O2 29.7(2) 5 4
Ga2 O2 O2 41.6(4) 2_566 4
Nb O2 O2 54.80(17) 1_556 4
Ga1 O2 O2 54.80(17) 1_556 4
Ga3 O2 O2 46.12(11) 1_656 4
O2 O2 O2 40.9(3) 6 4
O2 O2 O2 128.5(4) 5_445 4
O2 O2 O2 66.4(4) 5_455 4
O2 O2 O2 90.0 1_554 4
O2 O2 O2 90.0 1_556 4
O3 O2 O2 32.29(19) 4_556 4
Ga3 O2 O2 154.8(4) 1_546 4
O3 O2 O2 96.0(5) 3_456 4
O3 O2 O2 103.8(5) 2_455 4
O3 O2 O2 35.6(2) 4 4
Ga2 O2 O2 107.93(19) 2 4
O3 O2 O2 95.8(5) 3_455 4
O2 O2 O2 60.000(1) 3 4
Ga3 O2 La 105.1(5) 4_446 2_456
Ga2 O2 La 13.0(3) . 2_456
La O2 La 108.4(5) 4_445 2_456
O3 O2 La 119.4(5) 6 2_456
La O2 La 102.4(4) . 2_456
O3 O2 La 145.0(5) 2 2_456
O1 O2 La 97.1(4) 2_455 2_456
O2 O2 La 47.4(2) 4_445 2_456
O2 O2 La 52.0(2) 3_455 2_456
O3 O2 La 78.3(4) 1_556 2_456
O2 O2 La 86.1(5) 2_556 2_456
O1 O2 La 17.4(2) 2_456 2_456
O3 O2 La 147.2(5) . 2_456
Nb O2 La 153.1(4) . 2_456
Ga1 O2 La 153.1(4) . 2_456
O1 O2 La 118.7(5) 1_545 2_456
O2 O2 La 148.37(18) 2 2_456
Ga2 O2 La 98.5(4) 2_556 2_456
O3 O2 La 77.9(4) 5_445 2_456
Ga3 O2 La 105.1(3) 2_565 2_456
La O2 La 49.74(18) 4_446 2_456
La O2 La 49.25(15) 1_556 2_456
Ga3 O2 La 152.0(4) 4_445 2_456
La O2 La 62.4(2) 2_455 2_456
O3 O2 La 106.3(3) 3_556 2_456
O3 O2 La 44.0(2) 4_446 2_456
Ga3 O2 La 43.24(15) 2_455 2_456
Ga3 O2 La 46.52(14) 1_556 2_456
Ga2 O2 La 110.1(3) 1_554 2_456
O2 O2 La 82.6(3) 6_556 2_456
La O2 La 148.4(4) 2 2_456
O3 O2 La 174.8(4) 3 2_456
O3 O2 La 93.4(4) 4_445 2_456
O2 O2 La 76.8(5) 5_446 2_456
O2 O2 La 53.6(3) 5_456 2_456
O1 O2 La 90.8(3) . 2_456
O3 O2 La 135.2(3) 5 2_456
Ga2 O2 La 76.55(19) 2_566 2_456
Nb O2 La 87.2(2) 1_556 2_456
Ga1 O2 La 87.2(2) 1_556 2_456
Ga3 O2 La 125.4(3) 1_656 2_456
O2 O2 La 122.7(3) 6 2_456
O2 O2 La 117.1(5) 5_445 2_456
O2 O2 La 97.5(3) 5_455 2_456
O2 O2 La 131.50(16) 1_554 2_456
O2 O2 La 48.50(16) 1_556 2_456
O3 O2 La 102.3(3) 4_556 2_456
Ga3 O2 La 74.2(3) 1_546 2_456
O3 O2 La 26.20(15) 3_456 2_456
O3 O2 La 48.35(18) 2_455 2_456
O3 O2 La 147.5(4) 4 2_456
Ga2 O2 La 137.4(4) 2 2_456
O3 O2 La 76.5(2) 3_455 2_456
O2 O2 La 138.38(18) 3 2_456
O2 O2 La 114.4(4) 4 2_456
Ga3 O2 Ga1 127.6(8) 4_446 1_445
Ga2 O2 Ga1 75.6(6) . 1_445
La O2 Ga1 29.7(3) 4_445 1_445
O3 O2 Ga1 156.7(5) 6 1_445
La O2 Ga1 113.5(4) . 1_445
O3 O2 Ga1 115.5(5) 2 1_445
O1 O2 Ga1 61.0(3) 2_455 1_445
O2 O2 Ga1 36.0(6) 4_445 1_445
O2 O2 Ga1 92.3(6) 3_455 1_445
O3 O2 Ga1 143.2(6) 1_556 1_445
O2 O2 Ga1 93.2(3) 2_556 1_445
O1 O2 Ga1 90.7(4) 2_456 1_445
O3 O2 Ga1 106.4(4) . 1_445
Nb O2 Ga1 127.9(3) . 1_445
Ga1 O2 Ga1 127.9(3) . 1_445
O1 O2 Ga1 59.5(3) 1_545 1_445
O2 O2 Ga1 69.82(15) 2 1_445
Ga2 O2 Ga1 69.1(3) 2_556 1_445
O3 O2 Ga1 16.3(2) 5_445 1_445
Ga3 O2 Ga1 176.0(3) 2_565 1_445
La O2 Ga1 80.4(3) 4_446 1_445
La O2 Ga1 127.0(4) 1_556 1_445
Ga3 O2 Ga1 85.7(2) 4_445 1_445
La O2 Ga1 54.7(2) 2_455 1_445
O3 O2 Ga1 127.2(5) 3_556 1_445
O3 O2 Ga1 49.5(3) 4_446 1_445
Ga3 O2 Ga1 35.85(14) 2_455 1_445
Ga3 O2 Ga1 103.6(3) 1_556 1_445
Ga2 O2 Ga1 64.7(2) 1_554 1_445
O2 O2 Ga1 160.5(3) 6_556 1_445
La O2 Ga1 89.1(3) 2 1_445
O3 O2 Ga1 105.2(3) 3 1_445
O3 O2 Ga1 20.83(19) 4_445 1_445
O2 O2 Ga1 56.3(3) 5_446 1_445
O2 O2 Ga1 124.9(5) 5_456 1_445
O1 O2 Ga1 134.6(3) . 1_445
O3 O2 Ga1 143.4(3) 5 1_445
Ga2 O2 Ga1 142.7(3) 2_566 1_445
Nb O2 Ga1 139.3(4) 1_556 1_445
Ga1 O2 Ga1 139.3(4) 1_556 1_445
Ga3 O2 Ga1 135.2(3) 1_656 1_445
O2 O2 Ga1 124.1(4) 6 1_445
O2 O2 Ga1 39.0(3) 5_445 1_445
O2 O2 Ga1 103.2(4) 5_455 1_445
O2 O2 Ga1 73.49(18) 1_554 1_445
O2 O2 Ga1 106.51(18) 1_556 1_445
O3 O2 Ga1 159.3(4) 4_556 1_445
Ga3 O2 Ga1 35.10(13) 1_546 1_445
O3 O2 Ga1 92.7(3) 3_456 1_445
O3 O2 Ga1 77.0(2) 2_455 1_445
O3 O2 Ga1 128.8(3) 4 1_445
Ga2 O2 Ga1 58.68(16) 2 1_445
O3 O2 Ga1 77.0(3) 3_455 1_445
O2 O2 Ga1 117.5(4) 3 1_445
O2 O2 Ga1 163.44(17) 4 1_445
La O2 Ga1 78.8(3) 2_456 1_445
Ga3 O2 Nb 127.6(8) 4_446 1_445
Ga2 O2 Nb 75.6(6) . 1_445
La O2 Nb 29.7(3) 4_445 1_445
O3 O2 Nb 156.7(5) 6 1_445
La O2 Nb 113.5(4) . 1_445
O3 O2 Nb 115.5(5) 2 1_445
O1 O2 Nb 61.0(3) 2_455 1_445
O2 O2 Nb 36.0(6) 4_445 1_445
O2 O2 Nb 92.3(6) 3_455 1_445
O3 O2 Nb 143.2(6) 1_556 1_445
O2 O2 Nb 93.2(3) 2_556 1_445
O1 O2 Nb 90.7(4) 2_456 1_445
O3 O2 Nb 106.4(4) . 1_445
Nb O2 Nb 127.9(3) . 1_445
Ga1 O2 Nb 127.9(3) . 1_445
O1 O2 Nb 59.5(3) 1_545 1_445
O2 O2 Nb 69.82(15) 2 1_445
Ga2 O2 Nb 69.1(3) 2_556 1_445
O3 O2 Nb 16.3(2) 5_445 1_445
Ga3 O2 Nb 176.0(3) 2_565 1_445
La O2 Nb 80.4(3) 4_446 1_445
La O2 Nb 127.0(4) 1_556 1_445
Ga3 O2 Nb 85.7(2) 4_445 1_445
La O2 Nb 54.7(2) 2_455 1_445
O3 O2 Nb 127.2(5) 3_556 1_445
O3 O2 Nb 49.5(3) 4_446 1_445
Ga3 O2 Nb 35.85(14) 2_455 1_445
Ga3 O2 Nb 103.6(3) 1_556 1_445
Ga2 O2 Nb 64.7(2) 1_554 1_445
O2 O2 Nb 160.5(3) 6_556 1_445
La O2 Nb 89.1(3) 2 1_445
O3 O2 Nb 105.2(3) 3 1_445
O3 O2 Nb 20.83(19) 4_445 1_445
O2 O2 Nb 56.3(3) 5_446 1_445
O2 O2 Nb 124.9(5) 5_456 1_445
O1 O2 Nb 134.6(3) . 1_445
O3 O2 Nb 143.4(3) 5 1_445
Ga2 O2 Nb 142.7(3) 2_566 1_445
Nb O2 Nb 139.3(4) 1_556 1_445
Ga1 O2 Nb 139.3(4) 1_556 1_445
Ga3 O2 Nb 135.2(3) 1_656 1_445
O2 O2 Nb 124.1(4) 6 1_445
O2 O2 Nb 39.0(3) 5_445 1_445
O2 O2 Nb 103.2(4) 5_455 1_445
O2 O2 Nb 73.49(18) 1_554 1_445
O2 O2 Nb 106.51(18) 1_556 1_445
O3 O2 Nb 159.3(4) 4_556 1_445
Ga3 O2 Nb 35.10(13) 1_546 1_445
O3 O2 Nb 92.7(3) 3_456 1_445
O3 O2 Nb 77.0(2) 2_455 1_445
O3 O2 Nb 128.8(3) 4 1_445
Ga2 O2 Nb 58.68(16) 2 1_445
O3 O2 Nb 77.0(3) 3_455 1_445
O2 O2 Nb 117.5(4) 3 1_445
O2 O2 Nb 163.44(17) 4 1_445
La O2 Nb 78.8(3) 2_456 1_445
Ga1 O2 Nb 0.0 1_445 1_445
Ga3 O2 O2 121.5(8) 4_446 6_446
Ga2 O2 O2 24.4(3) . 6_446
La O2 O2 82.2(6) 4_445 6_446
O3 O2 O2 143.0(6) 6 6_446
La O2 O2 108.0(3) . 6_446
O3 O2 O2 151.6(8) 2 6_446
O1 O2 O2 80.9(3) 2_455 6_446
O2 O2 O2 22.6(3) 4_445 6_446
O2 O2 O2 58.9(3) 3_455 6_446
O3 O2 O2 102.6(5) 1_556 6_446
O2 O2 O2 91.0(5) 2_556 6_446
O1 O2 O2 40.9(3) 2_456 6_446
O3 O2 O2 141.4(5) . 6_446
Nb O2 O2 174.1(6) . 6_446
Ga1 O2 O2 174.1(6) . 6_446
O1 O2 O2 101.0(7) 1_545 6_446
O2 O2 O2 122.1(3) 2 6_446
Ga2 O2 O2 90.2(6) 2_556 6_446
O3 O2 O2 54.1(5) 5_445 6_446
Ga3 O2 O2 131.3(4) 2_565 6_446
La O2 O2 55.9(4) 4_446 6_446
La O2 O2 75.5(3) 1_556 6_446
Ga3 O2 O2 131.4(4) 4_445 6_446
La O2 O2 47.93(11) 2_455 6_446
O3 O2 O2 122.4(5) 3_556 6_446
O3 O2 O2 31.6(3) 4_446 6_446
Ga3 O2 O2 18.1(2) 2_455 6_446
Ga3 O2 O2 61.23(14) 1_556 6_446
Ga2 O2 O2 92.8(3) 1_554 6_446
O2 O2 O2 108.3(4) 6_556 6_446
La O2 O2 134.9(6) 2 6_446
O3 O2 O2 157.8(6) 3 6_446
O3 O2 O2 67.4(4) 4_445 6_446
O2 O2 O2 66.8(7) 5_446 6_446
O2 O2 O2 76.0(3) 5_456 6_446
O1 O2 O2 107.0(3) . 6_446
O3 O2 O2 160.8(5) 5 6_446
Ga2 O2 O2 98.5(3) 2_566 6_446
Nb O2 O2 109.3(4) 1_556 6_446
Ga1 O2 O2 109.3(4) 1_556 6_446
Ga3 O2 O2 144.5(5) 1_656 6_446
O2 O2 O2 131.0(3) 6 6_446
O2 O2 O2 91.4(6) 5_445 6_446
O2 O2 O2 99.3(3) 5_455 6_446
O2 O2 O2 112.2(3) 1_554 6_446
O2 O2 O2 67.8(3) 1_556 6_446
O3 O2 O2 127.6(4) 4_556 6_446
Ga3 O2 O2 55.9(4) 1_546 6_446
O3 O2 O2 43.7(2) 3_456 6_446
O3 O2 O2 47.56(18) 2_455 6_446
O3 O2 O2 162.1(5) 4 6_446
Ga2 O2 O2 111.3(5) 2 6_446
O3 O2 O2 70.3(2) 3_455 6_446
O2 O2 O2 147.2(5) 3 6_446
O2 O2 O2 139.2(6) 4 6_446
La O2 O2 26.32(16) 2_456 6_446
Ga1 O2 O2 52.7(3) 1_445 6_446
Nb O2 O2 52.7(3) 1_445 6_446
Ga3 O2 O2 46.6(3) 4_446 6_546
Ga2 O2 O2 113.0(9) . 6_546
La O2 O2 77.5(5) 4_445 6_546
O3 O2 O2 106.9(4) 6 6_546
La O2 O2 153.9(6) . 6_546
O3 O2 O2 53.6(3) 2 6_546
O1 O2 O2 133.2(6) 2_455 6_546
O2 O2 O2 104.2(10) 4_445 6_546
O2 O2 O2 153.6(6) 3_455 6_546
O3 O2 O2 75.7(5) 1_556 6_546
O2 O2 O2 21.9(3) 2_556 6_546
O1 O2 O2 91.1(6) 2_456 6_546
O3 O2 O2 111.2(4) . 6_546
Nb O2 O2 87.8(2) . 6_546
Ga1 O2 O2 87.8(2) . 6_546
O1 O2 O2 35.0(3) 1_545 6_546
O2 O2 O2 77.8(4) 2 6_546
Ga2 O2 O2 12.07(18) 2_556 6_546
O3 O2 O2 65.7(5) 5_445 6_546
Ga3 O2 O2 96.8(3) 2_565 6_546
La O2 O2 52.4(4) 4_446 6_546
La O2 O2 97.8(4) 1_556 6_546
Ga3 O2 O2 98.8(3) 4_445 6_546
La O2 O2 134.3(6) 2_455 6_546
O3 O2 O2 46.1(2) 3_556 6_546
O3 O2 O2 66.5(5) 4_446 6_546
Ga3 O2 O2 87.2(5) 2_455 6_546
Ga3 O2 O2 143.9(5) 1_556 6_546
Ga2 O2 O2 126.4(4) 1_554 6_546
O2 O2 O2 108.3(4) 6_556 6_546
La O2 O2 47.29(10) 2 6_546
O3 O2 O2 76.0(2) 3 6_546
O3 O2 O2 92.6(5) 4_445 6_546
O2 O2 O2 32.2(3) 5_446 6_546
O2 O2 O2 129.6(6) 5_456 6_546
O1 O2 O2 144.1(5) . 6_546
O3 O2 O2 78.9(3) 5 6_546
Ga2 O2 O2 131.0(4) 2_566 6_546
Nb O2 O2 64.4(3) 1_556 6_546
Ga1 O2 O2 64.4(3) 1_556 6_546
Ga3 O2 O2 58.83(16) 1_656 6_546
O2 O2 O2 131.0(3) 6 6_546
O2 O2 O2 67.73(19) 5_445 6_546
O2 O2 O2 160.9(6) 5_455 6_546
O2 O2 O2 112.2(3) 1_554 6_546
O2 O2 O2 67.8(3) 1_556 6_546
O3 O2 O2 78.4(3) 4_556 6_546
Ga3 O2 O2 50.3(4) 1_546 6_546
O3 O2 O2 126.1(5) 3_456 6_546
O3 O2 O2 145.6(6) 2_455 6_546
O3 O2 O2 99.8(3) 4 6_546
Ga2 O2 O2 71.4(3) 2 6_546
O3 O2 O2 158.0(6) 3_455 6_546
O2 O2 O2 49.9(2) 3 6_546
O2 O2 O2 104.7(2) 4 6_546
La O2 O2 101.6(5) 2_456 6_546
Ga1 O2 O2 81.2(4) 1_445 6_546
Nb O2 O2 81.2(4) 1_445 6_546
O2 O2 O2 98.0(7) 6_446 6_546
Ga3 O2 O3 43.8(4) 4_446 6_556
Ga2 O2 O3 77.7(4) . 6_556
La O2 O3 154.0(7) 4_445 6_556
O3 O2 O3 67.2(4) 6 6_556
La O2 O3 101.6(5) . 6_556
O3 O2 O3 81.4(4) 2 6_556
O1 O2 O3 148.6(5) 2_455 6_556
O2 O2 O3 115.0(2) 4_445 6_556
O2 O2 O3 89.6(5) 3_455 6_556
O3 O2 O3 10.1(3) 1_556 6_556
O2 O2 O3 57.5(4) 2_556 6_556
O1 O2 O3 51.8(3) 2_456 6_556
O3 O2 O3 117.2(5) . 6_556
Nb O2 O3 89.6(4) . 6_556
Ga1 O2 O3 89.6(4) . 6_556
O1 O2 O3 112.7(5) 1_545 6_556
O2 O2 O3 140.0(4) 2 6_556
Ga2 O2 O3 87.5(3) 2_556 6_556
O3 O2 O3 123.4(5) 5_445 6_556
Ga3 O2 O3 46.2(2) 2_565 6_556
La O2 O3 56.2(2) 4_446 6_556
La O2 O3 24.55(16) 1_556 6_556
Ga3 O2 O3 135.4(5) 4_445 6_556
La O2 O3 124.5(3) 2_455 6_556
O3 O2 O3 45.1(3) 3_556 6_556
O3 O2 O3 86.7(3) 4_446 6_556
Ga3 O2 O3 104.5(3) 2_455 6_556
Ga3 O2 O3 74.1(2) 1_556 6_556
Ga2 O2 O3 153.8(5) 1_554 6_556
O2 O2 O3 36.9(3) 6_556 6_556
La O2 O3 103.9(3) 2 6_556
O3 O2 O3 106.7(5) 3 6_556
O3 O2 O3 156.7(5) 4_445 6_556
O2 O2 O3 87.6(5) 5_446 6_556
O2 O2 O3 52.8(4) 5_456 6_556
O1 O2 O3 75.6(3) . 6_556
O3 O2 O3 68.2(2) 5 6_556
Ga2 O2 O3 55.4(2) 2_566 6_556
Nb O2 O3 20.85(14) 1_556 6_556
Ga1 O2 O3 20.85(14) 1_556 6_556
Ga3 O2 O3 58.4(2) 1_656 6_556
O2 O2 O3 98.5(5) 6 6_556
O2 O2 O3 145.8(4) 5_445 6_556
O2 O2 O3 109.0(3) 5_455 6_556
O2 O2 O3 150.4(3) 1_554 6_556
O2 O2 O3 29.6(3) 1_556 6_556
O3 O2 O3 35.1(3) 4_556 6_556
Ga3 O2 O3 105.7(4) 1_546 6_556
O3 O2 O3 70.1(2) 3_456 6_556
O3 O2 O3 99.9(3) 2_455 6_556
O3 O2 O3 92.9(4) 4 6_556
Ga2 O2 O3 143.2(3) 2 6_556
O3 O2 O3 119.9(3) 3_455 6_556
O2 O2 O3 75.6(2) 3 6_556
O2 O2 O3 60.4(3) 4 6_556
La O2 O3 68.2(2) 2_456 6_556
Ga1 O2 O3 136.0(4) 1_445 6_556
Nb O2 O3 136.0(4) 1_445 6_556
O2 O2 O3 92.6(4) 6_446 6_556
O2 O2 O3 78.1(3) 6_546 6_556
Ga3 O2 O3 123.7(7) 4_446 5_455
Ga2 O2 O3 53.3(5) . 5_455
La O2 O3 116.6(5) 4_445 5_455
O3 O2 O3 74.8(5) 6 5_455
La O2 O3 39.4(2) . 5_455
O3 O2 O3 133.4(6) 2 5_455
O1 O2 O3 63.0(4) 2_455 5_455
O2 O2 O3 74.1(6) 4_445 5_455
O2 O2 O3 14.5(5) 3_455 5_455
O3 O2 O3 89.8(5) 1_556 5_455
O2 O2 O3 139.4(6) 2_556 5_455
O1 O2 O3 71.2(3) 2_456 5_455
O3 O2 O3 84.7(4) . 5_455
Nb O2 O3 101.7(4) . 5_455
Ga1 O2 O3 101.7(4) . 5_455
O1 O2 O3 161.2(5) 1_545 5_455
O2 O2 O3 121.0(6) 2 5_455
Ga2 O2 O3 161.5(5) 2_556 5_455
O3 O2 O3 117.6(5) 5_445 5_455
Ga3 O2 O3 78.2(3) 2_565 5_455
La O2 O3 110.2(3) 4_446 5_455
La O2 O3 64.1(2) 1_556 5_455
Ga3 O2 O3 99.5(4) 4_445 5_455
La O2 O3 50.5(2) 2_455 5_455
O3 O2 O3 124.6(4) 3_556 5_455
O3 O2 O3 103.5(4) 4_446 5_455
Ga3 O2 O3 87.8(3) 2_455 5_455
Ga3 O2 O3 17.67(17) 1_556 5_455
Ga2 O2 O3 71.5(3) 1_554 5_455
O2 O2 O3 61.0(3) 6_556 5_455
La O2 O3 148.6(5) 2 5_455
O3 O2 O3 118.4(4) 3 5_455
O3 O2 O3 98.9(4) 4_445 5_455
O2 O2 O3 138.9(6) 5_446 5_455
O2 O2 O3 32.9(3) 5_456 5_455
O1 O2 O3 35.11(16) . 5_455
O3 O2 O3 103.9(4) 5 5_455
Ga2 O2 O3 38.51(18) 2_566 5_455
Nb O2 O3 102.3(3) 1_556 5_455
Ga1 O2 O3 102.3(3) 1_556 5_455
Ga3 O2 O3 119.6(4) 1_656 5_455
O2 O2 O3 60.6(3) 6 5_455
O2 O2 O3 127.8(5) 5_445 5_455
O2 O2 O3 36.1(2) 5_455 5_455
O2 O2 O3 86.6(2) 1_554 5_455
O2 O2 O3 93.4(2) 1_556 5_455
O3 O2 O3 93.8(4) 4_556 5_455
Ga3 O2 O3 127.7(4) 1_546 5_455
O3 O2 O3 37.1(3) 3_456 5_455
O3 O2 O3 29.1(3) 2_455 5_455
O3 O2 O3 90.4(4) 4 5_455
Ga2 O2 O3 127.2(3) 2 5_455
O3 O2 O3 34.5(3) 3_455 5_455
O2 O2 O3 134.6(5) 3 5_455
O2 O2 O3 74.7(5) 4 5_455
La O2 O3 63.0(2) 2_456 5_455
Ga1 O2 O3 104.8(3) 1_445 5_455
Nb O2 O3 104.8(3) 1_445 5_455
O2 O2 O3 73.0(2) 6_446 5_455
O2 O2 O3 161.1(5) 6_546 5_455
O3 O2 O3 85.6(3) 6_556 5_455
Ga3 O2 O3 133.2(8) 4_446 6_445
Ga2 O2 O3 54.4(5) . 6_445
La O2 O3 50.2(4) 4_445 6_445
O3 O2 O3 161.7(6) 6 6_445
La O2 O3 110.3(4) . 6_445
O3 O2 O3 134.9(5) 2 6_445
O1 O2 O3 63.6(4) 2_455 6_445
O2 O2 O3 16.0(6) 4_445 6_445
O2 O2 O3 75.6(6) 3_455 6_445
O3 O2 O3 131.1(5) 1_556 6_445
O2 O2 O3 96.0(2) 2_556 6_445
O1 O2 O3 71.8(4) 2_456 6_445
O3 O2 O3 120.0(4) . 6_445
Nb O2 O3 147.6(4) . 6_445
Ga1 O2 O3 147.6(4) . 6_445
O1 O2 O3 77.6(4) 1_545 6_445
O2 O2 O3 90.1(2) 2 6_445
Ga2 O2 O3 79.6(4) 2_556 6_445
O3 O2 O3 28.3(4) 5_445 6_445
Ga3 O2 O3 162.9(3) 2_565 6_445
La O2 O3 71.8(3) 4_446 6_445
La O2 O3 107.4(3) 1_556 6_445
Ga3 O2 O3 102.6(3) 4_445 6_445
La O2 O3 43.5(2) 2_455 6_445
O3 O2 O3 133.3(5) 3_556 6_445
O3 O2 O3 38.7(3) 4_446 6_445
Ga3 O2 O3 17.24(15) 2_455 6_445
Ga3 O2 O3 84.6(3) 1_556 6_445
Ga2 O2 O3 71.9(3) 1_554 6_445
O2 O2 O3 139.4(3) 6_556 6_445
La O2 O3 109.3(4) 2 6_445
O3 O2 O3 125.9(4) 3 6_445
O3 O2 O3 36.2(3) 4_445 6_445
O2 O2 O3 60.5(4) 5_446 6_445
O2 O2 O3 104.5(5) 5_456 6_445
O1 O2 O3 123.6(3) . 6_445
O3 O2 O3 164.3(4) 5 6_445
Ga2 O2 O3 124.5(3) 2_566 6_445
Nb O2 O3 133.4(4) 1_556 6_445
Ga1 O2 O3 133.4(4) 1_556 6_445
Ga3 O2 O3 149.8(4) 1_656 6_445
O2 O2 O3 128.3(3) 6 6_445
O2 O2 O3 60.1(4) 5_445 6_445
O2 O2 O3 99.4(4) 5_455 6_445
O2 O2 O3 86.6(2) 1_554 6_445
O2 O2 O3 93.4(2) 1_556 6_445
O3 O2 O3 155.9(4) 4_556 6_445
Ga3 O2 O3 40.8(2) 1_546 6_445
O3 O2 O3 71.8(3) 3_456 6_445
O3 O2 O3 60.4(3) 2_455 6_445
O3 O2 O3 145.2(3) 4 6_445
Ga2 O2 O3 79.5(3) 2 6_445
O3 O2 O3 69.1(3) 3_455 6_445
O2 O2 O3 135.5(5) 3 6_445
O2 O2 O3 164.0(5) 4 6_445
La O2 O3 58.3(2) 2_456 6_445
Ga1 O2 O3 21.12(16) 1_445 6_445
Nb O2 O3 21.12(16) 1_445 6_445
O2 O2 O3 32.0(3) 6_446 6_445
O2 O2 O3 91.0(5) 6_546 6_445
O3 O2 O3 121.8(4) 6_556 6_445
O3 O2 O3 89.5(2) 5_455 6_445
Ga3 O2 La 24.4(5) 4_446 2_556
Ga2 O2 La 108.0(6) . 2_556
La O2 La 103.2(5) 4_445 2_556
O3 O2 La 89.2(4) 6 2_556
La O2 La 140.6(5) . 2_556
O3 O2 La 51.4(4) 2 2_556
O1 O2 La 158.3(5) 2_455 2_556
O2 O2 La 117.9(7) 4_445 2_556
O2 O2 La 139.63(19) 3_455 2_556
O3 O2 La 50.0(4) 1_556 2_556
O2 O2 La 13.2(2) 2_556 2_556
O1 O2 La 79.8(3) 2_456 2_556
O3 O2 La 114.1(4) . 2_556
Nb O2 La 82.5(3) . 2_556
Ga1 O2 La 82.5(3) . 2_556
O1 O2 La 59.6(4) 1_545 2_556
O2 O2 La 96.3(5) 2 2_556
Ga2 O2 La 36.93(15) 2_556 2_556
O3 O2 La 88.1(4) 5_445 2_556
Ga3 O2 La 74.4(2) 2_565 2_556
La O2 La 47.88(18) 4_446 2_556
La O2 La 75.0(2) 1_556 2_556
Ga3 O2 La 111.3(3) 4_445 2_556
La O2 La 150.2(5) 2_455 2_556
O3 O2 La 24.4(2) 3_556 2_556
O3 O2 La 74.9(3) 4_446 2_556
Ga3 O2 La 99.3(4) 2_455 2_556
Ga3 O2 La 125.0(3) 1_556 2_556
Ga2 O2 La 148.8(3) 1_554 2_556
O2 O2 La 82.8(3) 6_556 2_556
La O2 La 59.54(18) 2 2_556
O3 O2 La 80.8(3) 3 2_556
O3 O2 La 118.0(4) 4_445 2_556
O2 O2 La 49.1(3) 5_446 2_556
O2 O2 La 105.8(4) 5_456 2_556
O1 O2 La 120.7(3) . 2_556
O3 O2 La 66.1(2) 5 2_556
Ga2 O2 La 105.3(3) 2_566 2_556
Nb O2 La 38.68(12) 1_556 2_556
Ga1 O2 La 38.68(12) 1_556 2_556
Ga3 O2 La 44.03(13) 1_656 2_556
O2 O2 La 121.5(3) 6 2_556
O2 O2 La 93.0(3) 5_445 2_556
O2 O2 La 151.5(5) 5_455 2_556
O2 O2 La 129.78(14) 1_554 2_556
O2 O2 La 50.22(14) 1_556 2_556
O3 O2 La 55.0(2) 4_556 2_556
Ga3 O2 La 70.2(2) 1_546 2_556
O3 O2 La 113.2(3) 3_456 2_556
O3 O2 La 143.0(3) 2_455 2_556
O3 O2 La 93.7(3) 4 2_556
Ga2 O2 La 93.1(2) 2 2_556
O3 O2 La 171.1(3) 3_455 2_556
O2 O2 La 45.25(19) 3 2_556
O2 O2 La 85.13(17) 4 2_556
La O2 La 95.1(3) 2_456 2_556
Ga1 O2 La 104.3(3) 1_445 2_556
Nb O2 La 104.3(3) 1_445 2_556
O2 O2 La 103.3(5) 6_446 2_556
O2 O2 La 25.75(17) 6_546 2_556
O3 O2 La 53.08(18) 6_556 2_556
O3 O2 La 138.6(3) 5_455 2_556
O3 O2 La 108.9(4) 6_445 2_556
Ga3 O2 Ga3 92.0(7) 4_446 2_564
Ga2 O2 Ga3 131.5(7) . 2_564
La O2 Ga3 92.1(4) 4_445 2_564
O3 O2 Ga3 39.0(4) 6 2_564
La O2 Ga3 39.5(3) . 2_564
O3 O2 Ga3 62.9(4) 2 2_564
O1 O2 Ga3 67.2(4) 2_455 2_564
O2 O2 Ga3 127.6(3) 4_445 2_564
O2 O2 Ga3 90.7(6) 3_455 2_564
O3 O2 Ga3 98.1(5) 1_556 2_564
O2 O2 Ga3 124.6(4) 2_556 2_564
O1 O2 Ga3 143.0(5) 2_456 2_564
O3 O2 Ga3 11.9(2) . 2_564
Nb O2 Ga3 29.79(17) . 2_564
Ga1 O2 Ga3 29.79(17) . 2_564
O1 O2 Ga3 99.1(4) 1_545 2_564
O2 O2 Ga3 57.8(3) 2 2_564
Ga2 O2 Ga3 119.9(3) 2_556 2_564
O3 O2 Ga3 127.8(4) 5_445 2_564
Ga3 O2 Ga3 60.0(3) 2_565 2_564
La O2 Ga3 158.1(4) 4_446 2_564
La O2 Ga3 110.6(4) 1_556 2_564
Ga3 O2 Ga3 34.71(16) 4_445 2_564
La O2 Ga3 97.1(3) 2_455 2_564
O3 O2 Ga3 91.3(4) 3_556 2_564
O3 O2 Ga3 167.1(4) 4_446 2_564
Ga3 O2 Ga3 145.1(3) 2_455 2_564
Ga3 O2 Ga3 94.7(3) 1_556 2_564
Ga2 O2 Ga3 57.6(2) 1_554 2_564
O2 O2 Ga3 74.6(5) 6_556 2_564
La O2 Ga3 70.1(2) 2 2_564
O3 O2 Ga3 39.9(2) 3 2_564
O3 O2 Ga3 97.0(3) 4_445 2_564
O2 O2 Ga3 141.9(4) 5_446 2_564
O2 O2 Ga3 91.4(4) 5_456 2_564
O1 O2 Ga3 52.0(3) . 2_564
O3 O2 Ga3 48.2(2) 5 2_564
Ga2 O2 Ga3 70.2(3) 2_566 2_564
Nb O2 Ga3 97.1(3) 1_556 2_564
Ga1 O2 Ga3 97.1(3) 1_556 2_564
Ga3 O2 Ga3 69.3(2) 1_656 2_564
O2 O2 Ga3 18.60(17) 6 2_564
O2 O2 Ga3 89.4(4) 5_445 2_564
O2 O2 Ga3 46.4(4) 5_455 2_564
O2 O2 Ga3 44.23(15) 1_554 2_564
O2 O2 Ga3 135.77(15) 1_556 2_564
O3 O2 Ga3 74.5(3) 4_556 2_564
Ga3 O2 Ga3 139.9(3) 1_546 2_564
O3 O2 Ga3 115.0(4) 3_456 2_564
O3 O2 Ga3 98.6(3) 2_455 2_564
O3 O2 Ga3 18.84(16) 4 2_564
Ga2 O2 Ga3 70.29(19) 2 2_564
O3 O2 Ga3 74.1(3) 3_455 2_564
O2 O2 Ga3 68.15(16) 3 2_564
O2 O2 Ga3 45.82(15) 4 2_564
La O2 Ga3 141.2(3) 2_456 2_564
Ga1 O2 Ga3 117.6(2) 1_445 2_564
Nb O2 Ga3 117.6(2) 1_445 2_564
O2 O2 Ga3 144.4(4) 6_446 2_564
O2 O2 Ga3 115.1(3) 6_546 2_564
O3 O2 Ga3 106.2(4) 6_556 2_564
O3 O2 Ga3 78.5(3) 5_455 2_564
O3 O2 Ga3 129.4(3) 6_445 2_564
La O2 Ga3 112.2(3) 2_556 2_564
Ga3 O2 O3 26.5(4) 4_446 2_556
Ga2 O2 O3 91.2(5) . 2_556
La O2 O3 126.2(6) 4_445 2_556
O3 O2 O3 81.2(4) 6 2_556
La O2 O3 126.7(5) . 2_556
O3 O2 O3 66.3(4) 2 2_556
O1 O2 O3 175.8(5) 2_455 2_556
O2 O2 O3 116.3(4) 4_445 2_556
O2 O2 O3 115.5(4) 3_455 2_556
O3 O2 O3 27.8(4) 1_556 2_556
O2 O2 O3 29.3(4) 2_556 2_556
O1 O2 O3 61.6(3) 2_456 2_556
O3 O2 O3 122.4(5) . 2_556
Nb O2 O3 88.9(3) . 2_556
Ga1 O2 O3 88.9(3) . 2_556
O1 O2 O3 84.2(4) 1_545 2_556
O2 O2 O3 119.6(6) 2 2_556
Ga2 O2 O3 59.1(3) 2_556 2_556
O3 O2 O3 102.9(4) 5_445 2_556
Ga3 O2 O3 61.6(2) 2_565 2_556
La O2 O3 42.8(2) 4_446 2_556
La O2 O3 50.1(2) 1_556 2_556
Ga3 O2 O3 129.2(3) 4_445 2_556
La O2 O3 141.1(4) 2_455 2_556
O3 O2 O3 27.7(3) 3_556 2_556
O3 O2 O3 75.8(3) 4_446 2_556
Ga3 O2 O3 99.5(4) 2_455 2_556
Ga3 O2 O3 100.4(3) 1_556 2_556
Ga2 O2 O3 171.1(4) 1_554 2_556
O2 O2 O3 62.3(3) 6_556 2_556
La O2 O3 81.8(3) 2 2_556
O3 O2 O3 96.3(3) 3 2_556
O3 O2 O3 137.2(5) 4_445 2_556
O2 O2 O3 63.3(4) 5_446 2_556
O2 O2 O3 80.9(4) 5_456 2_556
O1 O2 O3 101.9(3) . 2_556
O3 O2 O3 67.9(2) 5 2_556
Ga2 O2 O3 83.2(2) 2_566 2_556
Nb O2 O3 20.59(14) 1_556 2_556
Ga1 O2 O3 20.59(14) 1_556 2_556
Ga3 O2 O3 48.97(19) 1_656 2_556
O2 O2 O3 116.1(4) 6 2_556
O2 O2 O3 117.2(4) 5_445 2_556
O2 O2 O3 135.8(4) 5_455 2_556
O2 O2 O3 149.7(2) 1_554 2_556
O2 O2 O3 30.3(2) 1_556 2_556
O3 O2 O3 43.0(3) 4_556 2_556
Ga3 O2 O3 83.9(3) 1_546 2_556
O3 O2 O3 91.2(3) 3_456 2_556
O3 O2 O3 122.3(3) 2_455 2_556
O3 O2 O3 97.3(3) 4 2_556
Ga2 O2 O3 117.9(3) 2 2_556
O3 O2 O3 147.2(3) 3_455 2_556
O2 O2 O3 59.7(2) 3 2_556
O2 O2 O3 75.24(18) 4 2_556
La O2 O3 78.8(2) 2_456 2_556
Ga1 O2 O3 118.7(4) 1_445 2_556
Nb O2 O3 118.7(4) 1_445 2_556
O2 O2 O3 95.6(4) 6_446 2_556
O2 O2 O3 49.5(3) 6_546 2_556
O3 O2 O3 28.6(2) 6_556 2_556
O3 O2 O3 113.8(3) 5_455 2_556
O3 O2 O3 114.4(4) 6_445 2_556
La O2 O3 24.95(15) 2_556 2_556
Ga3 O2 O3 115.4(3) 2_564 2_556
Ga3 O2 O1 48.5(5) 4_446 1_546
Ga2 O2 O1 85.6(6) . 1_546
La O2 O1 96.5(5) 4_445 1_546
O3 O2 O1 112.1(5) 6 1_546
La O2 O1 159.0(5) . 1_546
O3 O2 O1 76.1(4) 2 1_546
O1 O2 O1 147.0(6) 2_455 1_546
O2 O2 O1 92.2(6) 4_445 1_546
O2 O2 O1 124.1(3) 3_455 1_546
O3 O2 O1 59.8(4) 1_556 1_546
O2 O2 O1 13.7(3) 2_556 1_546
O1 O2 O1 60.9(3) 2_456 1_546
O3 O2 O1 138.7(4) . 1_546
Nb O2 O1 108.5(3) . 1_546
Ga1 O2 O1 108.5(3) . 1_546
O1 O2 O1 62.1(3) 1_545 1_546
O2 O2 O1 107.7(6) 2 1_546
Ga2 O2 O1 33.90(19) 2_556 1_546
O3 O2 O1 70.1(3) 5_445 1_546
Ga3 O2 O1 93.9(3) 2_565 1_546
La O2 O1 23.49(14) 4_446 1_546
La O2 O1 71.3(3) 1_556 1_546
Ga3 O2 O1 129.2(3) 4_445 1_546
La O2 O1 124.1(4) 2_455 1_546
O3 O2 O1 48.9(3) 3_556 1_546
O3 O2 O1 49.0(3) 4_446 1_546
Ga3 O2 O1 73.7(3) 2_455 1_546
Ga3 O2 O1 113.5(3) 1_556 1_546
Ga2 O2 O1 148.5(4) 1_554 1_546
O2 O2 O1 93.9(4) 6_556 1_546
La O2 O1 77.0(3) 2 1_546
O3 O2 O1 103.6(4) 3 1_546
O3 O2 O1 104.6(4) 4_445 1_546
O2 O2 O1 30.7(3) 5_446 1_546
O2 O2 O1 102.5(4) 5_456 1_546
O1 O2 O1 133.1(4) . 1_546
O3 O2 O1 91.8(3) 5 1_546
Ga2 O2 O1 112.5(3) 2_566 1_546
Nb O2 O1 53.17(18) 1_556 1_546
Ga1 O2 O1 53.17(18) 1_556 1_546
Ga3 O2 O1 69.9(2) 1_656 1_546
O2 O2 O1 146.5(3) 6 1_546
O2 O2 O1 90.5(3) 5_445 1_546
O2 O2 O1 165.5(4) 5_455 1_546
O2 O2 O1 141.26(17) 1_554 1_546
O2 O2 O1 38.74(17) 1_556 1_546
O3 O2 O1 74.7(2) 4_556 1_546
Ga3 O2 O1 51.16(19) 1_546 1_546
O3 O2 O1 96.1(3) 3_456 1_546
O3 O2 O1 121.0(3) 2_455 1_546
O3 O2 O1 119.8(3) 4 1_546
Ga2 O2 O1 99.6(3) 2 1_546
O3 O2 O1 147.5(4) 3_455 1_546
O2 O2 O1 70.4(2) 3 1_546
O2 O2 O1 106.86(18) 4 1_546
La O2 O1 73.1(3) 2_456 1_546
Ga1 O2 O1 86.1(3) 1_445 1_546
Nb O2 O1 86.1(3) 1_445 1_546
O2 O2 O1 77.3(4) 6_446 1_546
O2 O2 O1 30.4(3) 6_546 1_546
O3 O2 O1 57.5(2) 6_556 1_546
O3 O2 O1 131.0(3) 5_455 1_546
O3 O2 O1 85.2(3) 6_445 1_546
La O2 O1 26.11(8) 2_556 1_546
Ga3 O2 O1 138.2(3) 2_564 1_546
O3 O2 O1 32.75(18) 2_556 1_546
Ga3 O2 O2 164.0(10) 4_446 6_445
Ga2 O2 O2 65.8(3) . 6_445
La O2 O2 47.4(4) 4_445 6_445
O3 O2 O2 129.1(7) 6 6_445
La O2 O2 78.6(4) . 6_445
O3 O2 O2 135.0(5) 2 6_445
O1 O2 O2 29.9(2) 2_455 6_445
O2 O2 O2 32.1(3) 4_445 6_445
O2 O2 O2 61.7(3) 3_455 6_445
O3 O2 O2 153.0(4) 1_556 6_445
O2 O2 O2 128.4(4) 2_556 6_445
O1 O2 O2 93.1(4) 2_456 6_445
O3 O2 O2 89.3(5) . 6_445
Nb O2 O2 122.1(5) . 6_445
Ga1 O2 O2 122.1(5) . 6_445
O1 O2 O2 90.6(5) 1_545 6_445
O2 O2 O2 76.5(5) 2 6_445
Ga2 O2 O2 105.3(6) 2_556 6_445
O3 O2 O2 52.4(4) 5_445 6_445
Ga3 O2 O2 145.2(6) 2_565 6_445
La O2 O2 104.9(5) 4_446 6_445
La O2 O2 120.1(2) 1_556 6_445
Ga3 O2 O2 77.8(4) 4_445 6_445
La O2 O2 22.00(9) 2_455 6_445
O3 O2 O2 163.4(6) 3_556 6_445
O3 O2 O2 72.2(4) 4_446 6_445
Ga3 O2 O2 48.2(3) 2_455 6_445
Ga3 O2 O2 76.04(12) 1_556 6_445
Ga2 O2 O2 39.6(2) 1_554 6_445
O2 O2 O2 132.3(4) 6_556 6_445
La O2 O2 110.6(4) 2 6_445
O3 O2 O2 109.2(4) 3 6_445
O3 O2 O2 28.2(3) 4_445 6_445
O2 O2 O2 91.5(6) 5_446 6_445
O2 O2 O2 99.5(3) 5_456 6_445
O1 O2 O2 98.2(4) . 6_445
O3 O2 O2 143.9(5) 5 6_445
Ga2 O2 O2 109.7(3) 2_566 6_445
Nb O2 O2 163.1(4) 1_556 6_445
Ga1 O2 O2 163.1(4) 1_556 6_445
Ga3 O2 O2 158.2(4) 1_656 6_445
O2 O2 O2 94.5(4) 6 6_445
O2 O2 O2 59.9(5) 5_445 6_445
O2 O2 O2 67.8(4) 5_455 6_445
O2 O2 O2 58.1(3) 1_554 6_445
O2 O2 O2 121.9(3) 1_556 6_445
O3 O2 O2 164.3(6) 4_556 6_445
Ga3 O2 O2 70.2(4) 1_546 6_445
O3 O2 O2 74.5(2) 3_456 6_445
O3 O2 O2 47.81(16) 2_455 6_445
O3 O2 O2 114.7(5) 4 6_445
Ga2 O2 O2 71.3(3) 2 6_445
O3 O2 O2 40.7(2) 3_455 6_445
O2 O2 O2 140.4(3) 3 6_445
O2 O2 O2 134.0(6) 4 6_445
La O2 O2 76.0(2) 2_456 6_445
Ga1 O2 O2 36.4(3) 1_445 6_445
Nb O2 O2 36.4(3) 1_445 6_445
O2 O2 O2 54.1(2) 6_446 6_445
O2 O2 O2 117.4(7) 6_546 6_445
O3 O2 O2 143.4(3) 6_556 6_445
O3 O2 O2 71.4(2) 5_455 6_445
O3 O2 O2 33.9(3) 6_445 6_445
La O2 O2 140.4(6) 2_556 6_445
Ga3 O2 O2 96.8(4) 2_564 6_445
O3 O2 O2 147.7(6) 2_556 6_445
O1 O2 O2 118.8(6) 1_546 6_445
Ga3 O2 O2 81.5(3) 4_446 6_545
Ga2 O2 O2 141.7(9) . 6_545
La O2 O2 41.4(4) 4_445 6_545
O3 O2 O2 99.4(5) 6 6_545
La O2 O2 110.1(5) . 6_545
O3 O2 O2 49.9(3) 2 6_545
O1 O2 O2 84.6(4) 2_455 6_545
O2 O2 O2 103.0(9) 4_445 6_545
O2 O2 O2 145.3(3) 3_455 6_545
O3 O2 O2 117.6(4) 1_556 6_545
O2 O2 O2 75.7(5) 2_556 6_545
O1 O2 O2 139.9(7) 2_456 6_545
O3 O2 O2 66.6(4) . 6_545
Nb O2 O2 65.4(2) . 6_545
Ga1 O2 O2 65.4(2) . 6_545
O1 O2 O2 23.6(3) 1_545 6_545
O2 O2 O2 23.9(3) 2 6_545
Ga2 O2 O2 50.5(2) 2_556 6_545
O3 O2 O2 63.3(4) 5_445 6_545
Ga3 O2 O2 108.9(3) 2_565 6_545
La O2 O2 102.3(5) 4_446 6_545
La O2 O2 149.0(4) 1_556 6_545
Ga3 O2 O2 47.2(2) 4_445 6_545
La O2 O2 109.2(4) 2_455 6_545
O3 O2 O2 80.2(2) 3_556 6_545
O3 O2 O2 96.2(6) 4_446 6_545
Ga3 O2 O2 99.3(5) 2_455 6_545
Ga3 O2 O2 160.4(4) 1_556 6_545
Ga2 O2 O2 74.3(3) 1_554 6_545
O2 O2 O2 132.3(4) 6_556 6_545
La O2 O2 23.30(8) 2 6_545
O3 O2 O2 42.0(2) 3 6_545
O3 O2 O2 60.8(4) 4_445 6_545
O2 O2 O2 67.1(2) 5_446 6_545
O2 O2 O2 166.4(7) 5_456 6_545
O1 O2 O2 128.2(6) . 6_545
O3 O2 O2 76.4(3) 5 6_545
Ga2 O2 O2 143.5(6) 2_566 6_545
Nb O2 O2 104.8(2) 1_556 6_545
Ga1 O2 O2 104.8(2) 1_556 6_545
Ga3 O2 O2 72.95(12) 1_656 6_545
O2 O2 O2 94.5(4) 6 6_545
O2 O2 O2 29.3(3) 5_445 6_545
O2 O2 O2 110.0(6) 5_455 6_545
O2 O2 O2 58.1(3) 1_554 6_545
O2 O2 O2 121.9(3) 1_556 6_545
O3 O2 O2 102.6(3) 4_556 6_545
Ga3 O2 O2 65.8(4) 1_546 6_545
O3 O2 O2 159.7(5) 3_456 6_545
O3 O2 O2 134.8(4) 2_455 6_545
O3 O2 O2 72.6(3) 4 6_545
Ga2 O2 O2 18.75(17) 2 6_545
O3 O2 O2 113.7(4) 3_455 6_545
O2 O2 O2 53.75(18) 3 6_545
O2 O2 O2 103.44(19) 4 6_545
La O2 O2 139.9(6) 2_456 6_545
Ga1 O2 O2 67.1(3) 1_445 6_545
Nb O2 O2 67.1(3) 1_445 6_545
O2 O2 O2 117.4(7) 6_446 6_545
O2 O2 O2 54.1(2) 6_546 6_545
O3 O2 O2 124.8(3) 6_556 6_545
O3 O2 O2 144.8(5) 5_455 6_545
O3 O2 O2 88.0(4) 6_445 6_545
La O2 O2 74.5(2) 2_556 6_545
Ga3 O2 O2 76.2(4) 2_564 6_545
O3 O2 O2 99.2(3) 2_556 6_545
O1 O2 O2 83.8(3) 1_546 6_545
O2 O2 O2 87.7(4) 6_445 6_545
Ga3 O2 O2 148.8(6) 4_446 4_444
Ga2 O2 O2 93.2(6) . 4_444
La O2 O2 39.7(3) 4_445 4_444
O3 O2 O2 108.2(5) 6 4_444
La O2 O2 66.5(2) . 4_444
O3 O2 O2 109.0(5) 2 4_444
O1 O2 O2 16.50(16) 2_455 4_444
O2 O2 O2 60.8(2) 4_445 4_444
O2 O2 O2 75.89(10) 3_455 4_444
O3 O2 O2 165.8(7) 1_556 4_444
O2 O2 O2 136.7(6) 2_556 4_444
O1 O2 O2 121.8(5) 2_456 4_444
O3 O2 O2 61.6(2) . 4_444
Nb O2 O2 93.3(2) . 4_444
Ga1 O2 O2 93.3(2) . 4_444
O1 O2 O2 82.3(4) 1_545 4_444
O2 O2 O2 51.6(2) 2 4_444
Ga2 O2 O2 106.8(5) 2_556 4_444
O3 O2 O2 65.1(4) 5_445 4_444
Ga3 O2 O2 129.0(5) 2_565 4_444
La O2 O2 129.6(5) 4_446 4_444
La O2 O2 141.6(5) 1_556 4_444
Ga3 O2 O2 48.73(15) 4_445 4_444
La O2 O2 43.7(3) 2_455 4_444
O3 O2 O2 147.5(4) 3_556 4_444
O3 O2 O2 96.8(4) 4_446 4_444
Ga3 O2 O2 75.1(3) 2_455 4_444
Ga3 O2 O2 91.3(4) 1_556 4_444
Ga2 O2 O2 14.75(11) 1_554 4_444
O2 O2 O2 131.4(7) 6_556 4_444
La O2 O2 89.1(3) 2 4_444
O3 O2 O2 80.8(3) 3 4_444
O3 O2 O2 30.1(3) 4_445 4_444
O2 O2 O2 103.8(5) 5_446 4_444
O2 O2 O2 112.2(5) 5_456 4_444
O1 O2 O2 91.8(4) . 4_444
O3 O2 O2 115.3(3) 5 4_444
Ga2 O2 O2 110.9(4) 2_566 4_444
Nb O2 O2 167.4(4) 1_556 4_444
Ga1 O2 O2 167.4(4) 1_556 4_444
Ga3 O2 O2 130.1(3) 1_656 4_444
O2 O2 O2 74.1(3) 6 4_444
O2 O2 O2 49.0(5) 5_445 4_444
O2 O2 O2 57.9(4) 5_455 4_444
O2 O2 O2 29.2(2) 1_554 4_444
O2 O2 O2 150.8(2) 1_556 4_444
O3 O2 O2 145.4(4) 4_556 4_444
Ga3 O2 O2 83.8(4) 1_546 4_444
O3 O2 O2 97.4(4) 3_456 4_444
O3 O2 O2 66.6(3) 2_455 4_444
O3 O2 O2 87.2(2) 4 4_444
Ga2 O2 O2 50.8(3) 2 4_444
O3 O2 O2 45.1(3) 3_455 4_444
O2 O2 O2 115.3(3) 3 4_444
O2 O2 O2 114.6(3) 4 4_444
La O2 O2 104.4(3) 2_456 4_444
Ga1 O2 O2 50.0(3) 1_445 4_444
Nb O2 O2 50.0(3) 1_445 4_444
O2 O2 O2 83.1(4) 6_446 4_444
O2 O2 O2 116.7(6) 6_546 4_444
O3 O2 O2 165.0(5) 6_556 4_444
O3 O2 O2 79.4(3) 5_455 4_444
O3 O2 O2 58.6(3) 6_445 4_444
La O2 O2 141.9(5) 2_556 4_444
Ga3 O2 O2 70.85(17) 2_564 4_444
O3 O2 O2 165.9(5) 2_556 4_444
O1 O2 O2 134.4(5) 1_546 4_444
O2 O2 O2 29.1(4) 6_445 4_444
O2 O2 O2 69.4(3) 6_545 4_444
Ga3 O2 O2 143.7(9) 4_446 3_454
Ga2 O2 O2 93.2(6) . 3_454
La O2 O2 66.9(2) 4_445 3_454
O3 O2 O2 83.7(6) 6 3_454
La O2 O2 38.2(3) . 3_454
O3 O2 O2 108.2(6) 2 3_454
O1 O2 O2 16.50(16) 2_455 3_454
O2 O2 O2 75.89(10) 4_445 3_454
O2 O2 O2 60.8(2) 3_455 3_454
O3 O2 O2 137.6(7) 1_556 3_454
O2 O2 O2 162.0(7) 2_556 3_454
O1 O2 O2 121.8(5) 2_456 3_454
O3 O2 O2 46.9(4) . 3_454
Nb O2 O2 80.3(4) . 3_454
Ga1 O2 O2 80.3(4) . 3_454
O1 O2 O2 105.3(4) 1_545 3_454
O2 O2 O2 63.5(4) 2 3_454
Ga2 O2 O2 132.6(3) 2_556 3_454
O3 O2 O2 92.6(4) 5_445 3_454
Ga3 O2 O2 102.9(5) 2_565 3_454
La O2 O2 150.0(5) 4_446 3_454
La O2 O2 122.0(4) 1_556 3_454
Ga3 O2 O2 47.1(2) 4_445 3_454
La O2 O2 46.7(2) 2_455 3_454
O3 O2 O2 142.9(6) 3_556 3_454
O3 O2 O2 118.2(4) 4_446 3_454
Ga3 O2 O2 93.7(3) 2_455 3_454
Ga3 O2 O2 74.3(3) 1_556 3_454
Ga2 O2 O2 14.75(11) 1_554 3_454
O2 O2 O2 103.3(6) 6_556 3_454
La O2 O2 99.2(3) 2 3_454
O3 O2 O2 78.2(4) 3 3_454
O3 O2 O2 58.0(2) 4_445 3_454
O2 O2 O2 131.9(5) 5_446 3_454
O2 O2 O2 90.2(5) 5_456 3_454
O1 O2 O2 63.8(4) . 3_454
O3 O2 O2 99.9(5) 5 3_454
Ga2 O2 O2 83.7(4) 2_566 3_454
Nb O2 O2 143.9(6) 1_556 3_454
Ga1 O2 O2 143.9(6) 1_556 3_454
Ga3 O2 O2 120.7(5) 1_656 3_454
O2 O2 O2 48.7(3) 6 3_454
O2 O2 O2 74.2(3) 5_445 3_454
O2 O2 O2 30.1(4) 5_455 3_454
O2 O2 O2 29.2(2) 1_554 3_454
O2 O2 O2 150.8(2) 1_556 3_454
O3 O2 O2 121.7(6) 4_556 3_454
Ga3 O2 O2 111.6(3) 1_546 3_454
O3 O2 O2 88.1(4) 3_456 3_454
O3 O2 O2 58.5(3) 2_455 3_454
O3 O2 O2 70.4(4) 4 3_454
Ga2 O2 O2 68.74(16) 2 3_454
O3 O2 O2 30.4(2) 3_455 3_454
O2 O2 O2 114.6(3) 3 3_454
O2 O2 O2 89.4(5) 4 3_454
La O2 O2 106.1(4) 2_456 3_454
Ga1 O2 O2 76.8(2) 1_445 3_454
Nb O2 O2 76.8(2) 1_445 3_454
O2 O2 O2 94.5(3) 6_446 3_454
O2 O2 O2 140.1(4) 6_546 3_454
O3 O2 O2 139.1(5) 6_556 3_454
O3 O2 O2 58.4(3) 5_455 3_454
O3 O2 O2 80.1(3) 6_445 3_454
La O2 O2 158.4(4) 2_556 3_454
Ga3 O2 O2 51.7(3) 2_564 3_454
O3 O2 O2 164.5(5) 2_556 3_454
O1 O2 O2 162.6(5) 1_546 3_454
O2 O2 O2 46.2(2) 6_445 3_454
O2 O2 O2 86.5(3) 6_545 3_454
O2 O2 O2 28.2(2) 4_444 3_454
Ga3 O2 O2 83.9(5) 4_446 4_446
Ga2 O2 O2 37.5(4) . 4_446
La O2 O2 109.3(7) 4_445 4_446
O3 O2 O2 121.2(5) 6 4_446
La O2 O2 124.1(4) . 4_446
O3 O2 O2 121.7(6) 2 4_446
O1 O2 O2 118.8(5) 2_455 4_446
O2 O2 O2 60.8(2) 4_445 4_446
O2 O2 O2 75.89(10) 3_455 4_446
O3 O2 O2 65.9(4) 1_556 4_446
O2 O2 O2 61.4(4) 2_556 4_446
O1 O2 O2 15.12(14) 2_456 4_446
O3 O2 O2 168.5(6) . 4_446
Nb O2 O2 145.0(4) . 4_446
Ga1 O2 O2 145.0(4) . 4_446
O1 O2 O2 101.2(7) 1_545 4_446
O2 O2 O2 144.8(6) 2 4_446
Ga2 O2 O2 76.6(5) 2_556 4_446
O3 O2 O2 73.9(5) 5_445 4_446
Ga3 O2 O2 101.4(3) 2_565 4_446
La O2 O2 25.4(2) 4_446 4_446
La O2 O2 47.39(11) 1_556 4_446
Ga3 O2 O2 167.2(5) 4_445 4_446
La O2 O2 84.3(3) 2_455 4_446
O3 O2 O2 85.0(3) 3_556 4_446
O3 O2 O2 34.0(3) 4_446 4_446
Ga3 O2 O2 48.1(3) 2_455 4_446
Ga3 O2 O2 67.8(2) 1_556 4_446
Ga2 O2 O2 131.2(4) 1_554 4_446
O2 O2 O2 83.9(3) 6_556 4_446
La O2 O2 125.1(5) 2 4_446
O3 O2 O2 151.5(5) 3 4_446
O3 O2 O2 101.0(5) 4_445 4_446
O2 O2 O2 57.7(6) 5_446 4_446
O2 O2 O2 66.7(3) 5_456 4_446
O1 O2 O2 106.4(3) . 4_446
O3 O2 O2 123.0(3) 5 4_446
Ga2 O2 O2 87.4(2) 2_566 4_446
Nb O2 O2 70.90(19) 1_556 4_446
Ga1 O2 O2 70.90(19) 1_556 4_446
Ga3 O2 O2 106.4(3) 1_656 4_446
O2 O2 O2 140.3(5) 6 4_446
O2 O2 O2 113.0(6) 5_445 4_446
O2 O2 O2 121.0(4) 5_455 4_446
O2 O2 O2 150.8(2) 1_554 4_446
O2 O2 O2 29.2(2) 1_556 4_446
O3 O2 O2 91.1(3) 4_556 4_446
Ga3 O2 O2 62.7(4) 1_546 4_446
O3 O2 O2 48.4(2) 3_456 4_446
O3 O2 O2 73.0(3) 2_455 4_446
O3 O2 O2 149.2(4) 4 4_446
Ga2 O2 O2 132.3(6) 2 4_446
O3 O2 O2 101.0(3) 3_455 4_446
O2 O2 O2 115.3(3) 3 4_446
O2 O2 O2 114.6(3) 4 4_446
La O2 O2 24.70(16) 2_456 4_446
Ga1 O2 O2 81.6(4) 1_445 4_446
Nb O2 O2 81.6(4) 1_445 4_446
O2 O2 O2 38.7(3) 6_446 4_446
O2 O2 O2 77.8(5) 6_546 4_446
O3 O2 O2 56.4(2) 6_556 4_446
O3 O2 O2 85.3(3) 5_455 4_446
O3 O2 O2 65.3(3) 6_445 4_446
La O2 O2 70.7(3) 2_556 4_446
Ga3 O2 O2 157.4(5) 2_564 4_446
O3 O2 O2 57.5(2) 2_556 4_446
O1 O2 O2 48.6(3) 1_546 4_446
O2 O2 O2 92.7(4) 6_445 4_446
O2 O2 O2 124.8(7) 6_545 4_446
O2 O2 O2 121.6(5) 4_444 4_446
O2 O2 O2 130.0(4) 3_454 4_446
Ga3 O2 O2 81.0(4) 4_446 3_456
Ga2 O2 O2 37.5(4) . 3_456
La O2 O2 135.0(7) 4_445 3_456
O3 O2 O2 95.5(6) 6 3_456
La O2 O2 100.1(4) . 3_456
O3 O2 O2 120.8(5) 2 3_456
O1 O2 O2 118.8(5) 2_455 3_456
O2 O2 O2 75.89(10) 4_445 3_456
O2 O2 O2 60.8(2) 3_455 3_456
O3 O2 O2 50.3(3) 1_556 3_456
O2 O2 O2 75.2(4) 2_556 3_456
O1 O2 O2 15.12(13) 2_456 3_456
O3 O2 O2 140.5(6) . 3_456
Nb O2 O2 126.3(5) . 3_456
Ga1 O2 O2 126.3(5) . 3_456
O1 O2 O2 126.4(5) 1_545 3_456
O2 O2 O2 172.7(7) 2 3_456
Ga2 O2 O2 99.0(3) 2_556 3_456
O3 O2 O2 100.9(5) 5_445 3_456
Ga3 O2 O2 78.1(3) 2_565 3_456
La O2 O2 47.53(11) 4_446 3_456
La O2 O2 21.49(17) 1_556 3_456
Ga3 O2 O2 162.6(5) 4_445 3_456
La O2 O2 86.4(4) 2_455 3_456
O3 O2 O2 82.3(3) 3_556 3_456
O3 O2 O2 61.6(3) 4_446 3_456
Ga3 O2 O2 69.8(3) 2_455 3_456
Ga3 O2 O2 47.9(3) 1_556 3_456
Ga2 O2 O2 131.2(4) 1_554 3_456
O2 O2 O2 57.4(3) 6_556 3_456
La O2 O2 138.6(3) 2 3_456
O3 O2 O2 146.6(5) 3 3_456
O3 O2 O2 121.8(5) 4_445 3_456
O2 O2 O2 84.0(5) 5_446 3_456
O2 O2 O2 39.7(4) 5_456 3_456
O1 O2 O2 79.0(4) . 3_456
O3 O2 O2 106.8(4) 5 3_456
Ga2 O2 O2 59.2(3) 2_566 3_456
Nb O2 O2 60.3(2) 1_556 3_456
Ga1 O2 O2 60.3(2) 1_556 3_456
Ga3 O2 O2 98.5(3) 1_656 3_456
O2 O2 O2 112.6(5) 6 3_456
O2 O2 O2 140.8(6) 5_445 3_456
O2 O2 O2 100.5(4) 5_455 3_456
O2 O2 O2 150.8(2) 1_554 3_456
O2 O2 O2 29.2(2) 1_556 3_456
O3 O2 O2 73.9(3) 4_556 3_456
Ga3 O2 O2 91.0(3) 1_546 3_456
O3 O2 O2 34.3(3) 3_456 3_456
O3 O2 O2 65.3(3) 2_455 3_456
O3 O2 O2 124.9(5) 4 3_456
Ga2 O2 O2 160.5(5) 2 3_456
O3 O2 O2 91.9(4) 3_455 3_456
O2 O2 O2 114.6(3) 3 3_456
O2 O2 O2 89.4(5) 4 3_456
La O2 O2 28.5(2) 2_456 3_456
Ga1 O2 O2 105.6(4) 1_445 3_456
Nb O2 O2 105.6(4) 1_445 3_456
O2 O2 O2 54.4(3) 6_446 3_456
O2 O2 O2 96.1(4) 6_546 3_456
O3 O2 O2 40.3(3) 6_556 3_456
O3 O2 O2 65.1(3) 5_455 3_456
O3 O2 O2 86.0(4) 6_445 3_456
La O2 O2 79.2(2) 2_556 3_456
Ga3 O2 O2 129.2(4) 2_564 3_456
O3 O2 O2 57.0(3) 2_556 3_456
O1 O2 O2 65.93(19) 1_546 3_456
O2 O2 O2 103.3(4) 6_445 3_456
O2 O2 O2 149.5(5) 6_545 3_456
O2 O2 O2 130.0(4) 4_444 3_456
O2 O2 O2 121.6(5) 3_454 3_456
O2 O2 O2 28.2(2) 4_446 3_456
Ga3 O2 O3 105.8(7) 4_446 6_554
Ga2 O2 O3 128.7(6) . 6_554
La O2 O3 75.8(4) 4_445 6_554
O3 O2 O3 56.7(4) 6 6_554
La O2 O3 42.0(3) . 6_554
O3 O2 O3 70.8(5) 2 6_554
O1 O2 O3 52.1(3) 2_455 6_554
O2 O2 O3 112.56(19) 4_445 6_554
O2 O2 O3 89.6(4) 3_455 6_554
O3 O2 O3 115.8(6) 1_556 6_554
O2 O2 O3 132.5(5) 2_556 6_554
O1 O2 O3 151.3(5) 2_456 6_554
O3 O2 O3 8.7(2) . 6_554
Nb O2 O3 42.3(2) . 6_554
Ga1 O2 O3 42.3(2) . 6_554
O1 O2 O3 91.9(4) 1_545 6_554
O2 O2 O3 46.2(4) 2 6_554
Ga2 O2 O3 117.6(3) 2_556 6_554
O3 O2 O3 111.1(4) 5_445 6_554
Ga3 O2 O3 77.7(4) 2_565 6_554
La O2 O3 169.1(3) 4_446 6_554
La O2 O3 125.7(5) 1_556 6_554
Ga3 O2 O3 21.54(16) 4_445 6_554
La O2 O3 85.0(3) 2_455 6_554
O3 O2 O3 104.9(4) 3_556 6_554
O3 O2 O3 149.4(4) 4_446 6_554
Ga3 O2 O3 128.6(3) 2_455 6_554
Ga3 O2 O3 97.9(4) 1_556 6_554
Ga2 O2 O3 41.15(18) 1_554 6_554
O2 O2 O3 90.9(6) 6_556 6_554
La O2 O3 69.4(2) 2 6_554
O3 O2 O3 42.2(3) 3 6_554
O3 O2 O3 79.3(3) 4_445 6_554
O2 O2 O3 134.9(4) 5_446 6_554
O2 O2 O3 101.3(4) 5_456 6_554
O1 O2 O3 62.2(4) . 6_554
O3 O2 O3 63.3(3) 5 6_554
Ga2 O2 O3 82.7(3) 2_566 6_554
Nb O2 O3 114.1(4) 1_556 6_554
Ga1 O2 O3 114.1(4) 1_556 6_554
Ga3 O2 O3 82.8(3) 1_656 6_554
O2 O2 O3 29.3(2) 6 6_554
O2 O2 O3 75.0(3) 5_445 6_554
O2 O2 O3 44.5(4) 5_455 6_554
O2 O2 O3 26.6(2) 1_554 6_554
O2 O2 O3 153.4(2) 1_556 6_554
O3 O2 O3 91.9(4) 4_556 6_554
Ga3 O2 O3 125.7(3) 1_546 6_554
O3 O2 O3 117.1(4) 3_456 6_554
O3 O2 O3 93.2(3) 2_455 6_554
O3 O2 O3 34.0(3) 4 6_554
Ga2 O2 O3 57.82(19) 2 6_554
O3 O2 O3 65.7(3) 3_455 6_554
O2 O2 O3 76.95(18) 3 6_554
O2 O2 O3 63.4(2) 4 6_554
La O2 O3 141.2(3) 2_456 6_554
Ga1 O2 O3 100.0(3) 1_445 6_554
Nb O2 O3 100.0(3) 1_445 6_554
O2 O2 O3 132.7(4) 6_446 6_554
O2 O2 O3 116.7(3) 6_546 6_554
O3 O2 O3 123.9(5) 6_556 6_554
O3 O2 O3 80.3(3) 5_455 6_554
O3 O2 O3 112.2(3) 6_445 6_554
La O2 O3 122.2(3) 2_556 6_554
Ga3 O2 O3 17.70(14) 2_564 6_554
O3 O2 O3 131.1(3) 2_556 6_554
O1 O2 O3 145.7(3) 1_546 6_554
O2 O2 O3 80.8(4) 6_445 6_554
O2 O2 O3 68.3(3) 6_545 6_554
O2 O2 O3 53.56(18) 4_444 6_554
O2 O2 O3 38.3(3) 3_454 6_554
O2 O2 O3 165.5(4) 4_446 6_554
O2 O2 O3 141.0(4) 3_456 6_554
Ga3 O2 La 86.6(5) 4_446 1_545
Ga2 O2 La 115.8(7) . 1_545
La O2 La 33.7(3) 4_445 1_545
O3 O2 La 125.3(4) 6 1_545
La O2 La 131.5(4) . 1_545
O3 O2 La 69.0(4) 2 1_545
O1 O2 La 89.3(4) 2_455 1_545
O2 O2 La 81.8(8) 4_445 1_545
O2 O2 La 139.2(7) 3_455 1_545
O3 O2 La 119.4(5) 1_556 1_545
O2 O2 La 64.5(4) 2_556 1_545
O1 O2 La 113.9(5) 2_456 1_545
O3 O2 La 92.5(3) . 1_545
Nb O2 La 91.9(3) . 1_545
Ga1 O2 La 91.9(3) . 1_545
O1 O2 La 12.44(14) 1_545 1_545
O2 O2 La 46.2(3) 2 1_545
Ga2 O2 La 34.47(15) 2_556 1_545
O3 O2 La 38.3(3) 5_445 1_545
Ga3 O2 La 129.2(3) 2_565 1_545
La O2 La 79.8(3) 4_446 1_545
La O2 La 138.2(4) 1_556 1_545
Ga3 O2 La 70.90(19) 4_445 1_545
La O2 La 99.8(3) 2_455 1_545
O3 O2 La 85.7(3) 3_556 1_545
O3 O2 La 68.8(3) 4_446 1_545
Ga3 O2 La 73.8(3) 2_455 1_545
Ga3 O2 La 150.4(4) 1_556 1_545
Ga2 O2 La 83.6(2) 1_554 1_545
O2 O2 La 149.1(2) 6_556 1_545
La O2 La 44.04(14) 2 1_545
O3 O2 La 69.1(3) 3 1_545
O3 O2 La 50.8(3) 4_445 1_545
O2 O2 La 42.69(19) 5_446 1_545
O2 O2 La 165.6(6) 5_456 1_545
O1 O2 La 154.5(4) . 1_545
O3 O2 La 98.8(3) 5 1_545
Ga2 O2 La 169.6(4) 2_566 1_545
Nb O2 La 107.5(3) 1_556 1_545
Ga1 O2 La 107.5(3) 1_556 1_545
Ga3 O2 La 88.2(2) 1_656 1_545
O2 O2 La 120.7(3) 6 1_545
O2 O2 La 24.06(13) 5_445 1_545
O2 O2 La 127.4(4) 5_455 1_545
O2 O2 La 75.01(16) 1_554 1_545
O2 O2 La 105.00(16) 1_556 1_545
O3 O2 La 116.0(3) 4_556 1_545
Ga3 O2 La 38.29(13) 1_546 1_545
O3 O2 La 135.3(4) 3_456 1_545
O3 O2 La 123.9(3) 2_455 1_545
O3 O2 La 99.9(3) 4 1_545
Ga2 O2 La 34.83(10) 2 1_545
O3 O2 La 116.0(3) 3_455 1_545
O2 O2 La 70.4(3) 3 1_545
O2 O2 La 128.1(3) 4 1_545
La O2 La 112.4(4) 2_456 1_545
Ga1 O2 La 47.16(15) 1_445 1_545
Nb O2 La 47.16(15) 1_445 1_545
O2 O2 La 91.6(5) 6_446 1_545
O2 O2 La 43.9(3) 6_546 1_545
O3 O2 La 121.8(3) 6_556 1_545
O3 O2 La 149.7(3) 5_455 1_545
O3 O2 La 65.9(3) 6_445 1_545
La O2 La 69.5(2) 2_556 1_545
Ga3 O2 La 102.9(2) 2_564 1_545
O3 O2 La 93.2(3) 2_556 1_545
O1 O2 La 67.1(2) 1_546 1_545
O2 O2 La 78.4(4) 6_445 1_545
O2 O2 La 27.5(3) 6_545 1_545
O2 O2 La 72.8(3) 4_444 1_545
O2 O2 La 98.2(2) 3_454 1_545
O2 O2 La 99.0(5) 4_446 1_545
O2 O2 La 126.5(4) 3_456 1_545
O3 O2 La 92.4(2) 6_554 1_545
Ga3 O2 O3 96.3(5) 4_446 2_554
Ga2 O2 O3 146.3(6) . 2_554
La O2 O3 58.9(4) 4_445 2_554
O3 O2 O3 70.3(4) 6 2_554
La O2 O3 67.8(3) . 2_554
O3 O2 O3 56.2(3) 2 2_554
O1 O2 O3 61.7(3) 2_455 2_554
O2 O2 O3 113.7(3) 4_445 2_554
O2 O2 O3 113.0(3) 3_455 2_554
O3 O2 O3 121.1(6) 1_556 2_554
O2 O2 O3 111.3(6) 2_556 2_554
O1 O2 O3 175.9(5) 2_456 2_554
O3 O2 O3 24.9(3) . 2_554
Nb O2 O3 41.8(2) . 2_554
Ga1 O2 O3 41.8(2) . 2_554
O1 O2 O3 66.0(4) 1_545 2_554
O2 O2 O3 21.8(2) 2 2_554
Ga2 O2 O3 91.9(3) 2_556 2_554
O3 O2 O3 93.7(4) 5_445 2_554
Ga3 O2 O3 88.9(3) 2_565 2_554
La O2 O3 144.2(4) 4_446 2_554
La O2 O3 144.8(4) 1_556 2_554
Ga3 O2 O3 7.04(16) 4_445 2_554
La O2 O3 96.3(3) 2_455 2_554
O3 O2 O3 95.0(3) 3_556 2_554
O3 O2 O3 133.2(4) 4_446 2_554
Ga3 O2 O3 123.0(3) 2_455 2_554
Ga3 O2 O3 123.2(4) 1_556 2_554
Ga2 O2 O3 48.7(2) 1_554 2_554
O2 O2 O3 108.3(5) 6_556 2_554
La O2 O3 46.02(19) 2 2_554
O3 O2 O3 26.4(3) 3 2_554
O3 O2 O3 69.8(2) 4_445 2_554
O2 O2 O3 109.3(3) 5_446 2_554
O2 O2 O3 126.6(5) 5_456 2_554
O1 O2 O3 86.9(4) . 2_554
O3 O2 O3 62.9(2) 5 2_554
Ga2 O2 O3 106.1(4) 2_566 2_554
Nb O2 O3 113.5(3) 1_556 2_554
Ga1 O2 O3 113.5(3) 1_556 2_554
Ga3 O2 O3 75.6(2) 1_656 2_554
O2 O2 O3 53.1(3) 6 2_554
O2 O2 O3 54.0(3) 5_445 2_554
O2 O2 O3 69.4(4) 5_455 2_554
O2 O2 O3 27.3(2) 1_554 2_554
O2 O2 O3 152.7(2) 1_556 2_554
O3 O2 O3 96.1(4) 4_556 2_554
Ga3 O2 O3 103.9(3) 1_546 2_554
O3 O2 O3 141.0(4) 3_456 2_554
O3 O2 O3 112.6(4) 2_455 2_554
O3 O2 O3 41.1(3) 4 2_554
Ga2 O2 O3 34.31(15) 2 2_554
O3 O2 O3 84.5(3) 3_455 2_554
O2 O2 O3 62.7(2) 3 2_554
O2 O2 O3 76.63(16) 4 2_554
La O2 O3 158.7(3) 2_456 2_554
Ga1 O2 O3 87.8(2) 1_445 2_554
Nb O2 O3 87.8(2) 1_445 2_554
O2 O2 O3 136.2(4) 6_446 2_554
O2 O2 O3 92.5(3) 6_546 2_554
O3 O2 O3 131.2(3) 6_556 2_554
O3 O2 O3 105.5(4) 5_455 2_554
O3 O2 O3 106.0(3) 6_445 2_554
La O2 O3 104.3(3) 2_556 2_554
Ga3 O2 O3 36.00(15) 2_564 2_554
O3 O2 O3 122.4(4) 2_556 2_554
O1 O2 O3 122.8(3) 1_546 2_554
O2 O2 O3 83.4(4) 6_445 2_554
O2 O2 O3 42.4(3) 6_545 2_554
O2 O2 O3 54.6(2) 4_444 2_554
O2 O2 O3 54.1(3) 3_454 2_554
O2 O2 O3 166.5(5) 4_446 2_554
O2 O2 O3 165.1(5) 3_456 2_554
O3 O2 O3 25.9(2) 6_554 2_554
La O2 O3 67.58(18) 1_545 2_554
Ga3 O2 La 83.8(7) 4_446 2_565
Ga2 O2 La 106.0(6) . 2_565
La O2 La 126.4(5) 4_445 2_565
O3 O2 La 19.7(3) 6 2_565
La O2 La 32.5(3) . 2_565
O3 O2 La 76.7(5) 2 2_565
O1 O2 La 84.1(4) 2_455 2_565
O2 O2 La 129.1(7) 4_445 2_565
O2 O2 La 71.2(7) 3_455 2_565
O3 O2 La 71.0(5) 1_556 2_565
O2 O2 La 120.53(17) 2_556 2_565
O1 O2 La 107.7(4) 2_456 2_565
O3 O2 La 47.5(3) . 2_565
Nb O2 La 46.5(2) . 2_565
Ga1 O2 La 46.5(2) . 2_565
O1 O2 La 129.5(4) 1_545 2_565
O2 O2 La 93.5(3) 2 2_565
Ga2 O2 La 137.5(4) 2_556 2_565
O3 O2 La 160.2(4) 5_445 2_565
Ga3 O2 La 35.05(17) 2_565 2_565
La O2 La 132.2(3) 4_446 2_565
La O2 La 75.1(3) 1_556 2_565
Ga3 O2 La 70.5(3) 4_445 2_565
La O2 La 98.6(3) 2_455 2_565
O3 O2 La 83.8(3) 3_556 2_565
O3 O2 La 154.2(4) 4_446 2_565
Ga3 O2 La 144.5(3) 2_455 2_565
Ga3 O2 La 67.8(3) 1_556 2_565
Ga2 O2 La 80.5(3) 1_554 2_565
O2 O2 La 40.5(4) 6_556 2_565
La O2 La 96.0(3) 2 2_565
O3 O2 La 68.0(3) 3 2_565
O3 O2 La 125.3(4) 4_445 2_565
O2 O2 La 157.2(5) 5_446 2_565
O2 O2 La 57.4(3) 5_456 2_565
O1 O2 La 21.93(13) . 2_565
O3 O2 La 48.2(2) 5 2_565
Ga2 O2 La 34.89(15) 2_566 2_565
Nb O2 La 75.8(3) 1_556 2_565
Ga1 O2 La 75.8(3) 1_556 2_565
Ga3 O2 La 67.8(2) 1_656 2_565
O2 O2 La 22.4(2) 6 2_565
O2 O2 La 125.2(4) 5_445 2_565
O2 O2 La 43.3(2) 5_455 2_565
O2 O2 La 75.67(13) 1_554 2_565
O2 O2 La 104.32(13) 1_556 2_565
O3 O2 La 54.4(3) 4_556 2_565
Ga3 O2 La 175.0(3) 1_546 2_565
O3 O2 La 86.6(3) 3_456 2_565
O3 O2 La 84.9(3) 2_455 2_565
O3 O2 La 37.1(2) 4 2_565
Ga2 O2 La 106.1(3) 2 2_565
O3 O2 La 73.0(3) 3_455 2_565
O2 O2 La 78.6(3) 3 2_565
O2 O2 La 23.0(2) 4 2_565
La O2 La 110.7(3) 2_456 2_565
Ga1 O2 La 144.9(3) 1_445 2_565
Nb O2 La 144.9(3) 1_445 2_565
O2 O2 La 128.9(4) 6_446 2_565
O2 O2 La 126.6(4) 6_546 2_565
O3 O2 La 76.2(3) 6_556 2_565
O3 O2 La 56.7(2) 5_455 2_565
O3 O2 La 142.1(3) 6_445 2_565
La O2 La 108.2(3) 2_556 2_565
Ga3 O2 La 35.86(13) 2_564 2_565
O3 O2 La 96.4(3) 2_556 2_565
O1 O2 La 128.9(3) 1_546 2_565
O2 O2 La 111.1(5) 6_445 2_565
O2 O2 La 109.3(4) 6_545 2_565
O2 O2 La 95.2(3) 4_444 2_565
O2 O2 La 68.1(4) 3_454 2_565
O2 O2 La 121.5(3) 4_446 2_565
O2 O2 La 93.4(3) 3_456 2_565
O3 O2 La 50.8(2) 6_554 2_565
La O2 La 136.8(3) 1_545 2_565
O3 O2 La 71.8(2) 2_554 2_565
Ga3 O2 O2 92.9(5) 4_446 3_445
Ga2 O2 O2 93.1(8) . 3_445
La O2 O2 39.9(5) 4_445 3_445
O3 O2 O2 146.7(5) 6 3_445
La O2 O2 143.8(4) . 3_445
O3 O2 O2 88.0(4) 2 3_445
O1 O2 O2 92.0(5) 2_455 3_445
O2 O2 O2 63.6(9) 4_445 3_445
O2 O2 O2 123.6(9) 3_455 3_445
O3 O2 O2 116.7(4) 1_556 3_445
O2 O2 O2 60.5(4) 2_556 3_445
O1 O2 O2 91.9(5) 2_456 3_445
O3 O2 O2 113.8(3) . 3_445
Nb O2 O2 114.7(3) . 3_445
Ga1 O2 O2 114.7(3) . 3_445
O1 O2 O2 31.73(13) 1_545 3_445
O2 O2 O2 67.3(3) 2 3_445
Ga2 O2 O2 34.25(10) 2_556 3_445
O3 O2 O2 20.1(3) 5_445 3_445
Ga3 O2 O2 142.9(4) 2_565 3_445
La O2 O2 62.3(2) 4_446 3_445
La O2 O2 122.0(3) 1_556 3_445
Ga3 O2 O2 91.2(2) 4_445 3_445
La O2 O2 89.0(5) 2_455 3_445
O3 O2 O2 92.4(3) 3_556 3_445
O3 O2 O2 45.8(4) 4_446 3_445
Ga3 O2 O2 52.1(4) 2_455 3_445
Ga3 O2 O2 130.2(5) 1_556 3_445
Ga2 O2 O2 91.3(3) 1_554 3_445
O2 O2 O2 151.1(4) 6_556 3_445
La O2 O2 65.60(15) 2 3_445
O3 O2 O2 92.3(3) 3 3_445
O3 O2 O2 48.6(4) 4_445 3_445
O2 O2 O2 27.0(3) 5_446 3_445
O2 O2 O2 142.7(6) 5_456 3_445
O1 O2 O2 169.0(4) . 3_445
O3 O2 O2 118.1(4) 5 3_445
Ga2 O2 O2 164.8(3) 2_566 3_445
Nb O2 O2 108.0(2) 1_556 3_445
Ga1 O2 O2 108.0(2) 1_556 3_445
Ga3 O2 O2 102.5(2) 1_656 3_445
O2 O2 O2 141.4(3) 6 3_445
O2 O2 O2 37.3(3) 5_445 3_445
O2 O2 O2 135.2(4) 5_455 3_445
O2 O2 O2 90.000(1) 1_554 3_445
O2 O2 O2 90.0 1_556 3_445
O3 O2 O2 124.6(3) 4_556 3_445
Ga3 O2 O2 15.18(18) 1_546 3_445
O3 O2 O2 112.6(5) 3_456 3_445
O3 O2 O2 108.5(5) 2_455 3_445
O3 O2 O2 123.2(3) 4 3_445
Ga2 O2 O2 54.89(16) 2 3_445
O3 O2 O2 111.8(5) 3_455 3_445
O2 O2 O2 87.6(4) 3 3_445
O2 O2 O2 147.6(4) 4 3_445
La O2 O2 89.2(4) 2_456 3_445
Ga1 O2 O2 34.9(3) 1_445 3_445
Nb O2 O2 34.9(3) 1_445 3_445
O2 O2 O2 69.3(6) 6_446 3_445
O2 O2 O2 46.3(2) 6_546 3_445
O3 O2 O2 114.5(2) 6_556 3_445
O3 O2 O2 137.6(5) 5_455 3_445
O3 O2 O2 48.1(4) 6_445 3_445
La O2 O2 70.29(13) 2_556 3_445
Ga3 O2 O2 125.03(16) 2_564 3_445
O3 O2 O2 89.0(2) 2_556 3_445
O1 O2 O2 57.19(14) 1_546 3_445
O2 O2 O2 71.1(6) 6_445 3_445
O2 O2 O2 50.7(3) 6_545 3_445
O2 O2 O2 77.5(5) 4_444 3_445
O2 O2 O2 105.6(4) 3_454 3_445
O2 O2 O2 77.5(5) 4_446 3_445
O2 O2 O2 105.6(4) 3_456 3_445
O3 O2 O2 112.09(19) 6_554 3_445
La O2 O2 23.24(11) 1_545 3_445
O3 O2 O2 89.06(19) 2_554 3_445
La O2 O2 160.0(3) 2_565 3_445
Ga3 O2 O2 45.9(4) 4_446 4_545
Ga2 O2 O2 141.5(7) . 4_545
La O2 O2 73.8(3) 4_445 4_545
O3 O2 O2 87.3(5) 6 4_545
La O2 O2 126.2(5) . 4_545
O3 O2 O2 28.6(4) 2 4_545
O1 O2 O2 120.4(3) 2_455 4_545
O2 O2 O2 123.6(9) 4_445 4_545
O2 O2 O2 176.4(9) 3_455 4_545
O3 O2 O2 82.0(4) 1_556 4_545
O2 O2 O2 45.2(5) 2_556 4_545
O1 O2 O2 117.7(3) 2_456 4_545
O3 O2 O2 82.8(4) . 4_545
Nb O2 O2 61.2(3) . 4_545
Ga1 O2 O2 61.2(3) . 4_545
O1 O2 O2 31.73(13) 1_545 4_545
O2 O2 O2 56.4(5) 2 4_545
Ga2 O2 O2 34.25(10) 2_556 4_545
O3 O2 O2 79.6(3) 5_445 4_545
Ga3 O2 O2 85.5(4) 2_565 4_545
La O2 O2 80.29(19) 4_446 4_545
La O2 O2 112.8(3) 1_556 4_545
Ga3 O2 O2 73.0(2) 4_445 4_545
La O2 O2 143.2(4) 2_455 4_545
O3 O2 O2 44.7(3) 3_556 4_545
O3 O2 O2 93.2(4) 4_446 4_545
Ga3 O2 O2 110.2(4) 2_455 4_545
Ga3 O2 O2 162.5(4) 1_556 4_545
Ga2 O2 O2 109.12(17) 1_554 4_545
O2 O2 O2 105.3(2) 6_556 4_545
La O2 O2 20.1(2) 2 4_545
O3 O2 O2 47.5(3) 3 4_545
O3 O2 O2 93.0(3) 4_445 4_545
O2 O2 O2 57.66(18) 5_446 4_545
O2 O2 O2 139.2(6) 5_456 4_545
O1 O2 O2 126.9(5) . 4_545
O3 O2 O2 58.2(4) 5 4_545
Ga2 O2 O2 126.2(5) 2_566 4_545
Nb O2 O2 69.1(3) 1_556 4_545
Ga1 O2 O2 69.1(3) 1_556 4_545
Ga3 O2 O2 44.1(3) 1_656 4_545
O2 O2 O2 103.6(2) 6 4_545
O2 O2 O2 61.49(17) 5_445 4_545
O2 O2 O2 132.5(5) 5_455 4_545
O2 O2 O2 90.0 1_554 4_545
O2 O2 O2 90.0 1_556 4_545
O3 O2 O2 72.2(3) 4_556 4_545
Ga3 O2 O2 70.3(2) 1_546 4_545
O3 O2 O2 152.7(3) 3_456 4_545
O3 O2 O2 168.0(5) 2_455 4_545
O3 O2 O2 72.8(3) 4 4_545
Ga2 O2 O2 54.89(16) 2 4_545
O3 O2 O2 148.83(18) 3_455 4_545
O2 O2 O2 27.6(4) 3 4_545
O2 O2 O2 87.6(4) 4 4_545
La O2 O2 129.9(3) 2_456 4_545
Ga1 O2 O2 91.1(3) 1_445 4_545
Nb O2 O2 91.1(3) 1_445 4_545
O2 O2 O2 124.4(6) 6_446 4_545
O2 O2 O2 28.5(3) 6_546 4_545
O3 O2 O2 88.7(3) 6_556 4_545
O3 O2 O2 162.0(5) 5_455 4_545
O3 O2 O2 107.9(4) 6_445 4_545
La O2 O2 39.94(15) 2_556 4_545
Ga3 O2 O2 86.8(3) 2_564 4_545
O3 O2 O2 63.5(2) 2_556 4_545
O1 O2 O2 57.19(14) 1_546 4_545
O2 O2 O2 121.2(4) 6_445 4_545
O2 O2 O2 36.2(2) 6_545 4_545
O2 O2 O2 105.6(4) 4_444 4_545
O2 O2 O2 119.1(2) 3_454 4_545
O2 O2 O2 105.6(4) 4_446 4_545
O2 O2 O2 119.1(2) 3_456 4_545
O3 O2 O2 88.8(2) 6_554 4_545
La O2 O2 44.16(15) 1_545 4_545
O3 O2 O2 66.1(2) 2_554 4_545
La O2 O2 105.3(4) 2_565 4_545
O2 O2 O2 60.0 3_445 4_545
Ga3 O2 O3 77.3(6) 4_446 5_446
Ga2 O2 O3 58.0(6) . 5_446
La O2 O3 90.3(5) 4_445 5_446
O3 O2 O3 134.7(5) 6 5_446
La O2 O3 149.4(4) . 5_446
O3 O2 O3 106.1(5) 2 5_446
O1 O2 O3 122.7(5) 2_455 5_446
O2 O2 O3 62.9(4) 4_445 5_446
O2 O2 O3 98.8(4) 3_455 5_446
O3 O2 O3 75.2(4) 1_556 5_446
O2 O2 O3 44.3(3) 2_556 5_446
O1 O2 O3 41.2(3) 2_456 5_446
O3 O2 O3 165.1(5) . 5_446
Nb O2 O3 139.1(4) . 5_446
Ga1 O2 O3 139.1(4) . 5_446
O1 O2 O3 75.1(5) 1_545 5_446
O2 O2 O3 119.7(5) 2 5_446
Ga2 O2 O3 51.5(3) 2_556 5_446
O3 O2 O3 55.5(3) 5_445 5_446
Ga3 O2 O3 113.6(3) 2_565 5_446
La O2 O3 12.61(15) 4_446 5_446
La O2 O3 68.8(3) 1_556 5_446
Ga3 O2 O3 144.3(4) 4_445 5_446
La O2 O3 93.9(4) 2_455 5_446
O3 O2 O3 78.0(3) 3_556 5_446
O3 O2 O3 20.7(2) 4_446 5_446
Ga3 O2 O3 44.9(2) 2_455 5_446
Ga3 O2 O3 93.0(3) 1_556 5_446
Ga2 O2 O3 131.1(4) 1_554 5_446
O2 O2 O3 102.9(5) 6_556 5_446
La O2 O3 101.3(4) 2 5_446
O3 O2 O3 130.9(4) 3 5_446
O3 O2 O3 88.9(4) 4_445 5_446
O2 O2 O3 31.6(4) 5_446 5_446
O2 O2 O3 92.5(4) 5_456 5_446
O1 O2 O3 132.0(4) . 5_446
O3 O2 O3 121.3(4) 5 5_446
Ga2 O2 O3 111.7(3) 2_566 5_446
Nb O2 O3 74.4(3) 1_556 5_446
Ga1 O2 O3 74.4(3) 1_556 5_446
Ga3 O2 O3 99.8(3) 1_656 5_446
O2 O2 O3 165.1(4) 6 5_446
O2 O2 O3 90.6(4) 5_445 5_446
O2 O2 O3 144.0(5) 5_455 5_446
O2 O2 O3 140.77(19) 1_554 5_446
O2 O2 O3 39.23(19) 1_556 5_446
O3 O2 O3 97.3(3) 4_556 5_446
Ga3 O2 O3 40.0(2) 1_546 5_446
O3 O2 O3 73.0(3) 3_456 5_446
O3 O2 O3 92.0(3) 2_455 5_446
O3 O2 O3 150.2(3) 4 5_446
Ga2 O2 O3 107.9(3) 2 5_446
O3 O2 O3 117.0(4) 3_455 5_446
O2 O2 O3 100.8(3) 3 5_446
O2 O2 O3 128.08(19) 4 5_446
La O2 O3 47.1(2) 2_456 5_446
Ga1 O2 O3 68.0(3) 1_445 5_446
Nb O2 O3 68.0(3) 1_445 5_446
O2 O2 O3 46.7(4) 6_446 5_446
O2 O2 O3 55.0(4) 6_546 5_446
O3 O2 O3 68.3(3) 6_556 5_446
O3 O2 O3 110.0(4) 5_455 5_446
O3 O2 O3 59.4(3) 6_445 5_446
La O2 O3 56.6(2) 2_556 5_446
Ga3 O2 O3 168.8(3) 2_564 5_446
O3 O2 O3 55.1(3) 2_556 5_446
O1 O2 O3 30.60(16) 1_546 5_446
O2 O2 O3 92.8(5) 6_445 5_446
O2 O2 O3 98.7(5) 6_545 5_446
O2 O2 O3 117.0(4) 4_444 5_446
O2 O2 O3 138.7(5) 3_454 5_446
O2 O2 O3 26.1(3) 4_446 5_446
O2 O2 O3 53.0(2) 3_456 5_446
O3 O2 O3 165.5(3) 6_554 5_446
La O2 O3 73.5(3) 1_545 5_446
O3 O2 O3 140.9(3) 2_554 5_446
La O2 O3 143.3(3) 2_565 5_446
O2 O2 O3 53.4(2) 3_445 5_446
O2 O2 O3 83.4(2) 4_545 5_446
Ga3 O3 Nb 111.6(6) 4_445 .
Ga3 O3 Ga1 111.6(6) 4_445 .
Nb O3 Ga1 0.0 . .
Ga3 O3 La 138.1(6) 4_445 .
Nb O3 La 105.7(5) . .
Ga1 O3 La 105.7(5) . .
Ga3 O3 Ga3 94.2(5) 4_445 2_564
Nb O3 Ga3 87.4(5) . 2_564
Ga1 O3 Ga3 87.4(5) . 2_564
La O3 Ga3 106.2(6) . 2_564
Ga3 O3 O2 126.7(7) 4_445 6
Nb O3 O2 95.6(6) . 6
Ga1 O3 O2 95.6(6) . 6
La O3 O2 65.7(5) . 6
Ga3 O3 O2 40.5(4) 2_564 6
Ga3 O3 O3 154.4(9) 4_445 6
Nb O3 O3 48.8(3) . 6
Ga1 O3 O3 48.8(3) . 6
La O3 O3 56.9(3) . 6
Ga3 O3 O3 100.2(8) 2_564 6
O2 O3 O3 76.3(7) 6 6
Ga3 O3 O3 62.2(4) 4_445 6_554
Nb O3 O3 119.4(6) . 6_554
Ga1 O3 O3 119.4(6) . 6_554
La O3 O3 114.1(5) . 6_554
Ga3 O3 O3 39.5(4) 2_564 6_554
O2 O3 O3 64.5(6) 6 6_554
O3 O3 O3 138.3(12) 6 6_554
Ga3 O3 O3 64.9(6) 4_445 3
Nb O3 O3 46.8(3) . 3
Ga1 O3 O3 46.8(3) . 3
La O3 O3 149.5(3) . 3
Ga3 O3 O3 87.8(4) 2_564 3
O2 O3 O3 121.6(7) 6 3
O3 O3 O3 94.43(9) 6 3
O3 O3 O3 94.09(9) 6_554 3
Ga3 O3 O3 105.1(4) 4_445 4
Nb O3 O3 46.8(3) . 4
Ga1 O3 O3 46.8(3) . 4
La O3 O3 114.3(8) . 4
Ga3 O3 O3 40.7(4) 2_564 4
O2 O3 O3 62.1(7) 6 4
O3 O3 O3 74.0(6) 6 4
O3 O3 O3 75.3(5) 6_554 4
O3 O3 O3 60.0 3 4
Ga3 O3 O2 40.1(4) 4_445 2
Nb O3 O2 93.1(7) . 2
Ga1 O3 O2 93.1(7) . 2
La O3 O2 121.4(6) . 2
Ga3 O3 O2 130.2(6) 2_564 2
O2 O3 O2 166.6(8) 6 2
O3 O3 O2 117.0(9) 6 2
O3 O3 O2 102.3(7) 6_554 2
O3 O3 O2 59.0(8) 3 2
O3 O3 O2 118.6(7) 4 2
Ga3 O3 O2 36.1(4) 4_445 1_554
Nb O3 O2 147.6(6) . 1_554
Ga1 O3 O2 147.6(6) . 1_554
La O3 O2 104.4(5) . 1_554
Ga3 O3 O2 95.5(6) 2_564 1_554
O2 O3 O2 107.4(7) 6 1_554
O3 O3 O2 158.4(6) 6 1_554
O3 O3 O2 55.9(6) 6_554 1_554
O3 O3 O2 101.0(6) 3 1_554
O3 O3 O2 127.0(4) 4 1_554
O2 O3 O2 60.8(7) 2 1_554
Ga3 O3 O1 87.7(5) 4_445 2_455
Nb O3 O1 132.7(7) . 2_455
Ga1 O3 O1 132.7(7) . 2_455
La O3 O1 52.2(3) . 2_455
Ga3 O3 O1 135.7(5) 2_564 2_455
O2 O3 O1 106.8(5) 6 2_455
O3 O3 O1 96.4(5) 6 2_455
O3 O3 O1 107.8(5) 6_554 2_455
O3 O3 O1 131.6(8) 3 2_455
O3 O3 O1 166.4(7) 4 2_455
O2 O3 O1 74.1(5) 2 2_455
O2 O3 O1 62.0(5) 1_554 2_455
Ga3 O3 O2 112.9(7) 4_445 .
Nb O3 O2 79.4(5) . .
Ga1 O3 O2 79.4(5) . .
La O3 O2 56.0(4) . .
Ga3 O3 O2 152.7(5) 2_564 .
O2 O3 O2 116.8(6) 6 .
O3 O3 O2 53.3(6) 6 .
O3 O3 O2 161.2(5) 6_554 .
O3 O3 O2 99.9(5) 3 .
O3 O3 O2 122.7(3) 4 .
O2 O3 O2 74.8(6) 2 .
O2 O3 O2 108.5(7) 1_554 .
O1 O3 O2 53.4(4) 2_455 .
Ga3 O3 O3 99.9(6) 4_445 2
Nb O3 O3 36.0(5) . 2
Ga1 O3 O3 36.0(5) . 2
La O3 O3 99.1(5) . 2
Ga3 O3 O3 122.8(3) 2_564 2
O2 O3 O3 125.9(5) 6 2
O3 O3 O3 54.5(6) 6 2
O3 O3 O3 145.3(4) 6_554 2
O3 O3 O3 51.5(5) 3 2
O3 O3 O3 82.1(4) 4 2
O2 O3 O3 66.1(5) 2 2
O2 O3 O3 126.7(6) 1_554 2
O1 O3 O3 100.3(4) 2_455 2
O2 O3 O3 51.0(4) . 2
Ga3 O3 Ga2 65.7(4) 4_445 1_554
Nb O3 Ga2 159.7(7) . 1_554
Ga1 O3 Ga2 159.7(7) . 1_554
La O3 Ga2 72.6(3) . 1_554
Ga3 O3 Ga2 112.7(4) 2_564 1_554
O2 O3 Ga2 101.7(5) 6 1_554
O3 O3 Ga2 125.7(4) 6 1_554
O3 O3 Ga2 78.1(4) 6_554 1_554
O3 O3 Ga2 127.5(7) 3 1_554
O3 O3 Ga2 152.9(5) 4 1_554
O2 O3 Ga2 72.0(5) 2 1_554
O2 O3 Ga2 33.0(3) 1_554 1_554
O1 O3 Ga2 31.0(4) 2_455 1_554
O2 O3 Ga2 83.4(4) . 1_554
O3 O3 Ga2 123.8(3) 2 1_554
Ga3 O3 O3 22.9(4) 4_445 2_554
Nb O3 O3 98.7(5) . 2_554
Ga1 O3 O3 98.7(5) . 2_554
La O3 O3 155.6(6) . 2_554
Ga3 O3 O3 74.4(3) 2_564 2_554
O2 O3 O3 112.2(6) 6 2_554
O3 O3 O3 147.5(4) 6 2_554
O3 O3 O3 50.8(5) 6_554 2_554
O3 O3 O3 53.9(5) 3 2_554
O3 O3 O3 82.6(4) 4 2_554
O2 O3 O3 56.3(4) 2 2_554
O2 O3 O3 51.8(4) 1_554 2_554
O1 O3 O3 109.8(4) 2_455 2_554
O2 O3 O3 130.9(6) . 2_554
O3 O3 O3 100.8(7) 2 2_554
Ga2 O3 O3 84.5(3) 1_554 2_554
Ga3 O3 Ga3 62.8(3) 4_445 1_655
Nb O3 Ga3 59.8(3) . 1_655
Ga1 O3 Ga3 59.8(3) . 1_655
La O3 Ga3 158.5(5) . 1_655
Ga3 O3 Ga3 60.1(3) 2_564 1_655
O2 O3 Ga3 98.3(5) 6 1_655
O3 O3 Ga3 106.8(3) 6 1_655
O3 O3 Ga3 67.2(2) 6_554 1_655
O3 O3 Ga3 29.1(2) 3 1_655
O3 O3 Ga3 44.3(3) 4 1_655
O2 O3 Ga3 77.4(5) 2 1_655
O2 O3 Ga3 93.9(4) 1_554 1_655
O1 O3 Ga3 149.3(5) 2_455 1_655
O2 O3 Ga3 128.5(5) . 1_655
O3 O3 Ga3 78.2(4) 2 1_655
Ga2 O3 Ga3 126.8(3) 1_554 1_655
O3 O3 Ga3 42.3(3) 2_554 1_655
Ga3 O3 La 73.9(5) 4_445 4_445
Nb O3 La 100.6(6) . 4_445
Ga1 O3 La 100.6(6) . 4_445
La O3 La 81.2(4) . 4_445
Ga3 O3 La 167.4(4) 2_564 4_445
O2 O3 La 146.1(5) 6 4_445
O3 O3 La 92.4(7) 6 4_445
O3 O3 La 128.3(6) 6_554 4_445
O3 O3 La 90.7(7) 3 4_445
O3 O3 La 145.6(6) 4 4_445
O2 O3 La 40.5(4) 2 4_445
O2 O3 La 72.6(5) 1_554 4_445
O1 O3 La 41.9(2) 2_455 4_445
O2 O3 La 39.8(3) . 4_445
O3 O3 La 64.67(19) 2 4_445
Ga2 O3 La 59.1(2) 1_554 4_445
O3 O3 La 94.6(3) 2_554 4_445
Ga3 O3 La 115.6(4) 1_655 4_445
Ga3 O3 Ga2 114.0(5) 4_445 2_565
Nb O3 Ga2 119.8(6) . 2_565
Ga1 O3 Ga2 119.8(6) . 2_565
La O3 Ga2 58.7(3) . 2_565
Ga3 O3 Ga2 52.6(3) 2_564 2_565
O2 O3 Ga2 24.5(3) 6 2_565
O3 O3 Ga2 91.5(6) 6 2_565
O3 O3 Ga2 57.8(4) 6_554 2_565
O3 O3 Ga2 140.4(6) 3 2_565
O3 O3 Ga2 84.4(7) 4 2_565
O2 O3 Ga2 146.6(5) 2 2_565
O2 O3 Ga2 86.2(5) 1_554 2_565
O1 O3 Ga2 86.3(3) 2_455 2_565
O2 O3 Ga2 114.8(4) . 2_565
O3 O3 Ga2 145.7(5) 2 2_565
Ga2 O3 Ga2 77.3(3) 1_554 2_565
O3 O3 Ga2 108.5(5) 2_554 2_565
Ga3 O3 Ga2 112.4(4) 1_655 2_565
La O3 Ga2 128.2(3) 4_445 2_565
Ga3 O3 O2 117.4(6) 4_445 5_455
Nb O3 O2 130.0(6) . 5_455
Ga1 O3 O2 130.0(6) . 5_455
La O3 O2 36.4(3) . 5_455
Ga3 O3 O2 80.2(4) 2_564 5_455
O2 O3 O2 46.7(5) 6 5_455
O3 O3 O2 86.0(4) 6 5_455
O3 O3 O2 77.8(4) 6_554 5_455
O3 O3 O2 167.8(7) 3 5_455
O3 O3 O2 108.7(8) 4 5_455
O2 O3 O2 131.2(7) 2 5_455
O2 O3 O2 82.1(4) 1_554 5_455
O1 O3 O2 60.3(3) 2_455 5_455
O2 O3 O2 90.2(4) . 5_455
O3 O3 O2 135.2(6) 2 5_455
Ga2 O3 O2 60.2(3) 1_554 5_455
O3 O3 O2 123.3(6) 2_554 5_455
Ga3 O3 O2 139.6(5) 1_655 5_455
La O3 O2 101.5(4) 4_445 5_455
Ga2 O3 O2 27.5(2) 2_565 5_455
Ga3 O3 O3 119.2(5) 4_445 5
Nb O3 O3 9.5(4) . 5
Ga1 O3 O3 9.5(4) . 5
La O3 O3 100.1(4) . 5
Ga3 O3 O3 81.5(4) 2_564 5
O2 O3 O3 86.3(4) 6 5
O3 O3 O3 43.8(3) 6 5
O3 O3 O3 116.7(6) 6_554 5
O3 O3 O3 54.4(5) 3 5
O3 O3 O3 41.7(3) 4 5
O2 O3 O3 102.6(5) 2 5
O2 O3 O3 155.2(5) 1_554 5
O1 O3 O3 134.8(6) 2_455 5
O2 O3 O3 81.9(5) . 5
O3 O3 O3 43.5(3) 2 5
Ga2 O3 O3 165.2(6) 1_554 5
O3 O3 O3 104.1(4) 2_554 5
Ga3 O3 O3 63.1(3) 1_655 5
La O3 O3 107.7(4) 4_445 5
Ga2 O3 O3 110.37(19) 2_565 5
O2 O3 O3 121.2(3) 5_455 5
Ga3 O3 O3 64.2(5) 4_445 5_554
Nb O3 O3 79.4(5) . 5_554
Ga1 O3 O3 79.4(5) . 5_554
La O3 O3 143.5(4) . 5_554
Ga3 O3 O3 37.4(3) 2_564 5_554
O2 O3 O3 77.9(4) 6 5_554
O3 O3 O3 117.9(6) 6 5_554
O3 O3 O3 41.9(3) 6_554 5_554
O3 O3 O3 55.9(4) 3 5_554
O3 O3 O3 44.0(3) 4 5_554
O2 O3 O3 93.8(4) 2 5_554
O2 O3 O3 83.5(5) 1_554 5_554
O1 O3 O3 145.2(6) 2_455 5_554
O2 O3 O3 155.3(5) . 5_554
O3 O3 O3 104.3(4) 2 5_554
Ga2 O3 O3 114.4(5) 1_554 5_554
O3 O3 O3 41.6(3) 2_554 5_554
Ga3 O3 O3 26.9(2) 1_655 5_554
La O3 O3 134.2(2) 4_445 5_554
Ga2 O3 O3 87.0(2) 2_565 5_554
O2 O3 O3 113.3(4) 5_455 5_554
O3 O3 O3 79.3(5) 5 5_554
Ga3 O3 Ga3 117.6(6) 4_445 4_446
Nb O3 Ga3 52.1(3) . 4_446
Ga1 O3 Ga3 52.1(3) . 4_446
La O3 Ga3 72.2(3) . 4_446
Ga3 O3 Ga3 134.5(4) 2_564 4_446
O2 O3 Ga3 115.3(5) 6 4_446
O3 O3 Ga3 39.4(5) 6 4_446
O3 O3 Ga3 171.4(3) 6_554 4_446
O3 O3 Ga3 78.7(3) 3 4_446
O3 O3 Ga3 96.94(16) 4 4_446
O2 O3 Ga3 78.0(5) 2 4_446
O2 O3 Ga3 129.6(6) 1_554 4_446
O1 O3 Ga3 80.6(4) 2_455 4_446
O2 O3 Ga3 27.3(3) . 4_446
O3 O3 Ga3 27.2(3) 2 4_446
Ga2 O3 Ga3 109.9(4) 1_554 4_446
O3 O3 Ga3 125.4(6) 2_554 4_446
Ga3 O3 Ga3 104.7(3) 1_655 4_446
La O3 Ga3 57.1(2) 4_445 4_446
Ga2 O3 Ga3 125.9(3) 2_565 4_446
O2 O3 Ga3 108.6(4) 5_455 4_446
O3 O3 Ga3 55.3(3) 5 4_446
O3 O3 Ga3 129.7(4) 5_554 4_446
Ga3 O3 Nb 45.1(3) 4_445 1_554
Nb O3 Nb 105.7(4) . 1_554
Ga1 O3 Nb 105.7(4) . 1_554
La O3 Nb 138.2(5) . 1_554
Ga3 O3 Nb 49.1(2) 2_564 1_554
O2 O3 Nb 84.4(5) 6 1_554
O3 O3 Nb 144.9(7) 6 1_554
O3 O3 Nb 24.4(2) 6_554 1_554
O3 O3 Nb 71.03(14) 3 1_554
O3 O3 Nb 71.03(14) 4 1_554
O2 O3 Nb 83.5(4) 2 1_554
O2 O3 Nb 56.0(4) 1_554 1_554
O1 O3 Nb 117.4(5) 2_455 1_554
O2 O3 Nb 158.0(5) . 1_554
O3 O3 Nb 122.4(5) 2 1_554
Ga2 O3 Nb 86.6(3) 1_554 1_554
O3 O3 Nb 28.0(3) 2_554 1_554
Ga3 O3 Nb 47.02(15) 1_655 1_554
La O3 Nb 118.8(3) 4_445 1_554
Ga2 O3 Nb 81.9(3) 2_565 1_554
O2 O3 Nb 101.8(4) 5_455 1_554
O3 O3 Nb 106.7(5) 5 1_554
O3 O3 Nb 27.8(2) 5_554 1_554
Ga3 O3 Nb 149.5(3) 4_446 1_554
Ga3 O3 Ga1 45.1(3) 4_445 1_554
Nb O3 Ga1 105.7(4) . 1_554
Ga1 O3 Ga1 105.7(4) . 1_554
La O3 Ga1 138.2(5) . 1_554
Ga3 O3 Ga1 49.1(2) 2_564 1_554
O2 O3 Ga1 84.4(5) 6 1_554
O3 O3 Ga1 144.9(7) 6 1_554
O3 O3 Ga1 24.4(2) 6_554 1_554
O3 O3 Ga1 71.03(14) 3 1_554
O3 O3 Ga1 71.03(14) 4 1_554
O2 O3 Ga1 83.5(4) 2 1_554
O2 O3 Ga1 56.0(4) 1_554 1_554
O1 O3 Ga1 117.4(5) 2_455 1_554
O2 O3 Ga1 158.0(5) . 1_554
O3 O3 Ga1 122.4(5) 2 1_554
Ga2 O3 Ga1 86.6(3) 1_554 1_554
O3 O3 Ga1 28.0(3) 2_554 1_554
Ga3 O3 Ga1 47.02(15) 1_655 1_554
La O3 Ga1 118.8(3) 4_445 1_554
Ga2 O3 Ga1 81.9(3) 2_565 1_554
O2 O3 Ga1 101.8(4) 5_455 1_554
O3 O3 Ga1 106.7(5) 5 1_554
O3 O3 Ga1 27.8(2) 5_554 1_554
Ga3 O3 Ga1 149.5(3) 4_446 1_554
Nb O3 Ga1 0.0 1_554 1_554
Ga3 O3 O1 158.2(6) 4_445 .
Nb O3 O1 89.4(4) . .
Ga1 O3 O1 89.4(4) . .
La O3 O1 29.8(2) . .
Ga3 O3 O1 80.7(4) 2_564 .
O2 O3 O1 41.4(4) 6 .
O3 O3 O1 46.6(4) 6 .
O3 O3 O1 103.2(6) 6_554 .
O3 O3 O1 135.3(5) 3 .
O3 O3 O1 84.8(6) 4 .
O2 O3 O1 149.1(6) 2 .
O2 O3 O1 122.9(5) 1_554 .
O1 O3 O1 81.6(3) 2_455 .
O2 O3 O1 75.4(4) . .
O3 O3 O1 100.6(5) 2 .
Ga2 O3 O1 96.6(3) 1_554 .
O3 O3 O1 153.4(6) 2_554 .
Ga3 O3 O1 129.1(4) 1_655 .
La O3 O1 108.8(3) 4_445 .
Ga2 O3 O1 46.7(3) 2_565 .
O2 O3 O1 40.9(3) 5_455 .
O3 O3 O1 81.1(3) 5 .
O3 O3 O1 116.9(3) 5_554 .
Ga3 O3 O1 79.4(3) 4_446 .
Nb O3 O1 125.4(5) 1_554 .
Ga1 O3 O1 125.4(5) 1_554 .
Ga3 O3 O2 93.6(6) 4_445 4_554
Nb O3 O2 88.3(5) . 4_554
Ga1 O3 O2 88.3(5) . 4_554
La O3 O2 106.2(6) . 4_554
Ga3 O3 O2 0.9(2) 2_564 4_554
O2 O3 O2 40.6(6) 6 4_554
O3 O3 O2 101.1(8) 6 4_554
O3 O3 O2 38.6(5) 6_554 4_554
O3 O3 O2 88.1(4) 3 4_554
O3 O3 O2 41.6(4) 4 4_554
O2 O3 O2 129.9(6) 2 4_554
O2 O3 O2 94.5(6) 1_554 4_554
O1 O3 O2 135.0(5) 2_455 4_554
O2 O3 O2 153.4(4) . 4_554
O3 O3 O2 123.6(3) 2 4_554
Ga2 O3 O2 111.8(4) 1_554 4_554
O3 O3 O2 74.0(4) 2_554 4_554
Ga3 O3 O2 60.4(3) 1_655 4_554
La O3 O2 166.6(4) 4_445 4_554
Ga2 O3 O2 52.3(3) 2_565 4_554
O2 O3 O2 79.8(5) 5_455 4_554
O3 O3 O2 82.4(4) 5 4_554
O3 O3 O2 37.3(3) 5_554 4_554
Ga3 O3 O2 135.4(4) 4_446 4_554
Nb O3 O2 48.4(3) 1_554 4_554
Ga1 O3 O2 48.4(3) 1_554 4_554
O1 O3 O2 81.0(5) . 4_554
Ga3 O3 La 64.4(4) 4_445 1_554
Nb O3 La 149.0(6) . 1_554
Ga1 O3 La 149.0(6) . 1_554
La O3 La 92.5(4) . 1_554
Ga3 O3 La 63.1(3) 2_564 1_554
O2 O3 La 68.9(4) 6 1_554
O3 O3 La 141.2(6) 6 1_554
O3 O3 La 29.9(2) 6_554 1_554
O3 O3 La 118.01(15) 3 1_554
O3 O3 La 102.9(4) 4 1_554
O2 O3 La 98.7(5) 2 1_554
O2 O3 La 38.8(4) 1_554 1_554
O1 O3 La 78.3(4) 2_455 1_554
O2 O3 La 131.4(4) . 1_554
O3 O3 La 164.2(5) 2 1_554
Ga2 O3 La 49.97(17) 1_554 1_554
O3 O3 La 65.6(4) 2_554 1_554
Ga3 O3 La 94.9(3) 1_655 1_554
La O3 La 106.9(3) 4_445 1_554
Ga2 O3 La 50.03(17) 2_565 1_554
O2 O3 La 57.7(3) 5_455 1_554
O3 O3 La 144.5(5) 5 1_554
O3 O3 La 71.3(3) 5_554 1_554
Ga3 O3 La 158.7(3) 4_446 1_554
Nb O3 La 48.10(15) 1_554 1_554
Ga1 O3 La 48.10(15) 1_554 1_554
O1 O3 La 94.8(4) . 1_554
O2 O3 La 62.2(3) 4_554 1_554
Ga3 O3 Ga3 152.8(6) 4_445 2_565
Nb O3 Ga3 42.0(3) . 2_565
Ga1 O3 Ga3 42.0(3) . 2_565
La O3 Ga3 64.5(3) . 2_565
Ga3 O3 Ga3 91.2(3) 2_564 2_565
O2 O3 Ga3 72.0(4) 6 2_565
O3 O3 Ga3 10.5(4) 6 2_565
O3 O3 Ga3 130.3(7) 6_554 2_565
O3 O3 Ga3 88.7(2) 3 2_565
O3 O3 Ga3 63.5(3) 4 2_565
O2 O3 Ga3 120.9(5) 2 2_565
O2 O3 Ga3 168.4(5) 1_554 2_565
O1 O3 Ga3 106.7(4) 2_455 2_565
O2 O3 Ga3 63.1(3) . 2_565
O3 O3 Ga3 55.5(3) 2 2_565
Ga2 O3 Ga3 135.4(3) 1_554 2_565
O3 O3 Ga3 139.5(4) 2_554 2_565
Ga3 O3 Ga3 97.6(3) 1_655 2_565
La O3 Ga3 101.3(3) 4_445 2_565
Ga2 O3 Ga3 90.3(3) 2_565 2_565
O2 O3 Ga3 89.8(3) 5_455 2_565
O3 O3 Ga3 35.6(3) 5 2_565
O3 O3 Ga3 107.4(4) 5_554 2_565
Ga3 O3 Ga3 45.85(14) 4_446 2_565
Nb O3 Ga3 134.4(3) 1_554 2_565
Ga1 O3 Ga3 134.4(3) 1_554 2_565
O1 O3 Ga3 48.9(2) . 2_565
O2 O3 Ga3 92.1(3) 4_554 2_565
La O3 Ga3 140.2(4) 1_554 2_565
Ga3 O3 O2 76.9(4) 4_445 3_454
Nb O3 O2 171.3(6) . 3_454
Ga1 O3 O2 171.3(6) . 3_454
La O3 O2 66.9(3) . 3_454
Ga3 O3 O2 90.4(4) 2_564 3_454
O2 O3 O2 77.4(3) 6 3_454
O3 O3 O2 123.6(3) 6 3_454
O3 O3 O2 62.3(3) 6_554 3_454
O3 O3 O2 141.6(4) 3 3_454
O3 O3 O2 130.8(6) 4 3_454
O2 O3 O2 94.8(4) 2 3_454
O2 O3 O2 41.0(5) 1_554 3_454
O1 O3 O2 47.0(4) 2_455 3_454
O2 O3 O2 99.1(4) . 3_454
O3 O3 O2 146.8(3) 2 3_454
Ga2 O3 O2 25.0(2) 1_554 3_454
O3 O3 O2 88.7(5) 2_554 3_454
Ga3 O3 O2 125.8(4) 1_655 3_454
La O3 O2 83.1(3) 4_445 3_454
Ga2 O3 O2 52.9(3) 2_565 3_454
O2 O3 O2 41.3(5) 5_455 3_454
O3 O3 O2 162.2(3) 5 3_454
O3 O3 O2 103.7(4) 5_554 3_454
Ga3 O3 O2 126.3(4) 4_446 3_454
Nb O3 O2 78.9(3) 1_554 3_454
Ga1 O3 O2 78.9(3) 1_554 3_454
O1 O3 O2 81.9(4) . 3_454
O2 O3 O2 89.5(5) 4_554 3_454
La O3 O2 32.5(2) 1_554 3_454
Ga3 O3 O2 129.8(4) 2_565 3_454
Ga3 O3 La 67.0(4) 4_445 2
Nb O3 La 53.4(3) . 2
Ga1 O3 La 53.4(3) . 2
La O3 La 127.5(5) . 2
Ga3 O3 La 118.2(4) 2_564 2
O2 O3 La 147.2(5) 6 2
O3 O3 La 87.5(5) 6 2
O3 O3 La 117.9(3) 6_554 2
O3 O3 La 30.5(4) 3 2
O3 O3 La 86.2(4) 4 2
O2 O3 La 39.7(5) 2 2
O2 O3 La 98.1(5) 1_554 2
O1 O3 La 103.2(4) 2_455 2
O2 O3 La 72.0(4) . 2
O3 O3 La 33.4(3) 2 2
Ga2 O3 La 110.8(4) 1_554 2
O3 O3 La 68.5(4) 2_554 2
Ga3 O3 La 59.02(18) 1_655 2
La O3 La 61.3(2) 4_445 2
Ga2 O3 La 170.5(4) 2_565 2
O2 O3 La 161.3(5) 5_455 2
O3 O3 La 62.91(17) 5 2
O3 O3 La 85.1(2) 5_554 2
Ga3 O3 La 57.1(2) 4_446 2
Nb O3 La 93.5(2) 1_554 2
Ga1 O3 La 93.5(2) 1_554 2
O1 O3 La 133.9(4) . 2
O2 O3 La 118.6(4) 4_554 2
La O3 La 131.2(3) 1_554 2
Ga3 O3 La 87.0(2) 2_565 2
O2 O3 La 134.5(4) 3_454 2
Ga3 O3 O2 148.8(6) 4_445 4
Nb O3 O2 45.4(3) . 4
Ga1 O3 O2 45.4(3) . 4
La O3 O2 72.9(4) . 4
Ga3 O3 O2 67.9(4) 2_564 4
O2 O3 O2 53.7(5) 6 4
O3 O3 O2 32.8(5) 6 4
O3 O3 O2 107.0(7) 6_554 4
O3 O3 O2 88.2(4) 3 4
O3 O3 O2 44.7(4) 4 4
O2 O3 O2 137.3(7) 2 4
O2 O3 O2 160.8(6) 1_554 4
O1 O3 O2 123.1(5) 2_455 4
O2 O3 O2 86.1(4) . 4
O3 O3 O2 72.1(3) 2 4
Ga2 O3 O2 144.0(5) 1_554 4
O3 O3 O2 127.0(3) 2_554 4
Ga3 O3 O2 86.0(3) 1_655 4
La O3 O2 124.6(4) 4_445 4
Ga2 O3 O2 76.1(4) 2_565 4
O2 O3 O2 85.6(4) 5_455 4
O3 O3 O2 36.0(3) 5 4
O3 O3 O2 88.0(4) 5_554 4
Ga3 O3 O2 68.5(2) 4_446 4
Nb O3 O2 113.0(4) 1_554 4
Ga1 O3 O2 113.0(4) 1_554 4
O1 O3 O2 47.4(3) . 4
O2 O3 O2 68.7(3) 4_554 4
La O3 O2 122.0(4) 1_554 4
Ga3 O3 O2 23.35(19) 2_565 4
O2 O3 O2 126.2(5) 3_454 4
La O3 O2 98.3(3) 2 4
Ga3 O3 O2 126.5(6) 4_445 3_455
Nb O3 O2 104.6(5) . 3_455
Ga1 O3 O2 104.6(5) . 3_455
La O3 O2 19.9(3) . 3_455
Ga3 O3 O2 126.1(5) 2_564 3_455
O2 O3 O2 85.7(4) 6 3_455
O3 O3 O2 59.0(4) 6 3_455
O3 O3 O2 127.7(3) 6_554 3_455
O3 O3 O2 138.0(4) 3 3_455
O3 O3 O2 128.3(6) 4 3_455
O2 O3 O2 102.0(5) 2 3_455
O2 O3 O2 99.6(4) 1_554 3_455
O1 O3 O2 39.3(3) 2_455 3_455
O2 O3 O2 38.5(4) . 3_455
O3 O3 O2 87.0(5) 2 3_455
Ga2 O3 O2 66.7(3) 1_554 3_455
O3 O3 O2 149.0(3) 2_554 3_455
Ga3 O3 O2 164.1(4) 1_655 3_455
La O3 O2 61.5(2) 4_445 3_455
Ga2 O3 O2 77.0(3) 2_565 3_455
O2 O3 O2 51.6(4) 5_455 3_455
O3 O3 O2 102.0(5) 5 3_455
O3 O3 O2 163.4(3) 5_554 3_455
Ga3 O3 O2 60.0(3) 4_446 3_455
Nb O3 O2 148.9(4) 1_554 3_455
Ga1 O3 O2 148.9(4) 1_554 3_455
O1 O3 O2 47.9(3) . 3_455
O2 O3 O2 126.1(5) 4_554 3_455
La O3 O2 100.9(3) 1_554 3_455
Ga3 O3 O2 68.8(3) 2_565 3_455
O2 O3 O2 70.1(3) 3_454 3_455
La O3 O2 110.4(4) 2 3_455
O2 O3 O2 83.9(5) 4 3_455
Ga3 O3 La 146.1(6) 4_445 2_565
Nb O3 La 74.7(4) . 2_565
Ga1 O3 La 74.7(4) . 2_565
La O3 La 62.3(3) . 2_565
Ga3 O3 La 52.2(3) 2_564 2_565
O2 O3 La 23.9(3) 6 2_565
O3 O3 La 53.6(6) 6 2_565
O3 O3 La 85.4(6) 6_554 2_565
O3 O3 La 111.3(5) 3 2_565
O3 O3 La 53.6(6) 4 2_565
O2 O3 La 167.7(6) 2 2_565
O2 O3 La 131.2(6) 1_554 2_565
O1 O3 La 113.0(3) 2_455 2_565
O2 O3 La 101.0(4) . 2_565
O3 O3 La 102.1(3) 2 2_565
Ga2 O3 La 119.5(3) 1_554 2_565
O3 O3 La 126.1(3) 2_554 2_565
Ga3 O3 La 97.2(3) 1_655 2_565
La O3 La 139.3(3) 4_445 2_565
Ga2 O3 La 45.76(16) 2_565 2_565
O2 O3 La 59.5(3) 5_455 2_565
O3 O3 La 65.18(15) 5 2_565
O3 O3 La 85.5(2) 5_554 2_565
Ga3 O3 La 92.9(2) 4_446 2_565
Nb O3 La 101.0(3) 1_554 2_565
Ga1 O3 La 101.0(3) 1_554 2_565
O1 O3 La 32.51(13) . 2_565
O2 O3 La 52.7(3) 4_554 2_565
La O3 La 92.8(3) 1_554 2_565
Ga3 O3 La 48.27(14) 2_565 2_565
O2 O3 La 97.3(4) 3_454 2_565
La O3 La 128.1(3) 2 2_565
O2 O3 La 30.4(2) 4 2_565
O2 O3 La 80.2(3) 3_455 2_565
Ga3 O3 Ga2 31.1(4) 4_445 2
Nb O3 Ga2 98.1(5) . 2
Ga1 O3 Ga2 98.1(5) . 2
La O3 Ga2 126.3(5) . 2
Ga3 O3 Ga2 122.6(4) 2_564 2
O2 O3 Ga2 157.7(5) 6 2
O3 O3 Ga2 125.8(8) 6 2
O3 O3 Ga2 93.3(5) 6_554 2
O3 O3 Ga2 59.5(5) 3 2
O3 O3 Ga2 117.1(5) 4 2
O2 O3 Ga2 9.0(3) 2 2
O2 O3 Ga2 53.6(4) 1_554 2
O1 O3 Ga2 76.2(3) 2_455 2
O2 O3 Ga2 83.1(4) . 2
O3 O3 Ga2 73.9(3) 2 2
Ga2 O3 Ga2 69.1(2) 1_554 2
O3 O3 Ga2 48.2(2) 2_554 2
Ga3 O3 Ga2 73.9(2) 1_655 2
La O3 Ga2 47.00(17) 4_445 2
Ga2 O3 Ga2 139.8(3) 2_565 2
O2 O3 Ga2 129.3(4) 5_455 2
O3 O3 Ga2 107.55(15) 5 2
O3 O3 Ga2 87.4(2) 5_554 2
Ga3 O3 Ga2 87.0(3) 4_446 2
Nb O3 Ga2 74.9(2) 1_554 2
Ga1 O3 Ga2 74.9(2) 1_554 2
O1 O3 Ga2 155.6(4) . 2
O2 O3 Ga2 122.2(4) 4_554 2
La O3 Ga2 90.6(2) 1_554 2
Ga3 O3 Ga2 129.2(3) 2_565 2
O2 O3 Ga2 90.2(3) 3_454 2
La O3 Ga2 45.05(14) 2 2
O2 O3 Ga2 143.3(4) 4 2
O2 O3 Ga2 107.7(4) 3_455 2
La O3 Ga2 170.7(3) 2_565 2
Ga3 O3 O2 82.5(4) 4_445 5
Nb O3 O2 41.6(3) . 5
Ga1 O3 O2 41.6(3) . 5
La O3 O2 139.4(5) . 5
Ga3 O3 O2 59.5(3) 2_564 5
O2 O3 O2 90.4(3) 6 5
O3 O3 O2 86.7(3) 6 5
O3 O3 O2 80.0(3) 6_554 5
O3 O3 O2 31.2(4) 3 5
O3 O3 O2 29.2(5) 4 5
O2 O3 O2 89.4(4) 2 5
O2 O3 O2 114.2(4) 1_554 5
O1 O3 O2 162.8(5) 2_455 5
O2 O3 O2 118.3(4) . 5
O3 O3 O2 67.8(3) 2 5
Ga2 O3 O2 147.2(4) 1_554 5
O3 O3 O2 62.7(3) 2_554 5
Ga3 O3 O2 20.4(2) 1_655 5
La O3 O2 121.2(4) 4_445 5
Ga2 O3 O2 110.6(4) 2_565 5
O2 O3 O2 136.9(5) 5_455 5
O3 O3 O2 43.4(4) 5 5
O3 O3 O2 38.4(3) 5_554 5
Ga3 O3 O2 91.5(3) 4_446 5
Nb O3 O2 64.1(2) 1_554 5
Ga1 O3 O2 64.1(2) 1_554 5
O1 O3 O2 112.1(4) . 5
O2 O3 O2 60.1(4) 4_554 5
La O3 O2 109.6(3) 1_554 5
Ga3 O3 O2 77.3(3) 2_565 5
O2 O3 O2 142.1(3) 3_454 5
La O3 O2 60.0(2) 2 5
O2 O3 O2 66.5(5) 4 5
O2 O3 O2 145.5(3) 3_455 5
La O3 O2 82.4(3) 2_565 5
Ga2 O3 O2 88.2(3) 2 5
Ga3 O3 O1 93.9(5) 4_445 1_554
Nb O3 O1 129.4(6) . 1_554
Ga1 O3 O1 129.4(6) . 1_554
La O3 O1 76.1(4) . 1_554
Ga3 O3 O1 46.3(2) 2_564 1_554
O2 O3 O1 37.6(4) 6 1_554
O3 O3 O1 111.4(6) 6 1_554
O3 O3 O1 38.3(3) 6_554 1_554
O3 O3 O1 129.3(4) 3 1_554
O3 O3 O1 85.4(5) 4 1_554
O2 O3 O1 130.1(5) 2 1_554
O2 O3 O1 69.8(5) 1_554 1_554
O1 O3 O1 89.3(3) 2_455 1_554
O2 O3 O1 130.7(4) . 1_554
O3 O3 O1 163.4(3) 2 1_554
Ga2 O3 O1 70.5(2) 1_554 1_554
O3 O3 O1 88.4(5) 2_554 1_554
Ga3 O3 O1 100.3(3) 1_655 1_554
La O3 O1 128.9(3) 4_445 1_554
Ga2 O3 O1 20.52(18) 2_565 1_554
O2 O3 O1 40.6(3) 5_455 1_554
O3 O3 O1 121.0(3) 5 1_554
O3 O3 O1 73.4(3) 5_554 1_554
Ga3 O3 O1 146.2(3) 4_446 1_554
Nb O3 O1 62.7(3) 1_554 1_554
Ga1 O3 O1 62.7(3) 1_554 1_554
O1 O3 O1 67.3(2) . 1_554
O2 O3 O1 45.6(3) 4_554 1_554
La O3 O1 31.39(19) 1_554 1_554
Ga3 O3 O1 108.9(3) 2_565 1_554
O2 O3 O1 45.9(2) 3_454 1_554
La O3 O1 156.2(3) 2 1_554
O2 O3 O1 91.3(4) 4 1_554
O2 O3 O1 92.2(3) 3_455 1_554
La O3 O1 61.5(2) 2_565 1_554
Ga2 O3 O1 121.9(3) 2 1_554
O2 O3 O1 105.3(3) 5 1_554
Ga3 O3 Ga3 98.8(4) 4_445 .
Nb O3 Ga3 149.6(5) . .
Ga1 O3 Ga3 149.6(5) . .
La O3 Ga3 46.8(2) . .
Ga3 O3 Ga3 89.1(4) 2_564 .
O2 O3 Ga3 63.5(4) 6 .
O3 O3 Ga3 102.5(2) 6 .
O3 O3 Ga3 73.18(16) 6_554 .
O3 O3 Ga3 163.1(3) 3 .
O3 O3 Ga3 124.6(7) 4 .
O2 O3 Ga3 111.9(5) 2 .
O2 O3 Ga3 62.8(3) 1_554 .
O1 O3 Ga3 47.1(2) 2_455 .
O2 O3 Ga3 90.5(3) . .
O3 O3 Ga3 141.3(4) 2 .
Ga2 O3 Ga3 40.13(14) 1_554 .
O3 O3 Ga3 109.3(5) 2_554 .
Ga3 O3 Ga3 140.4(4) 1_655 .
La O3 Ga3 88.8(2) 4_445 .
Ga2 O3 Ga3 40.20(12) 2_565 .
O2 O3 Ga3 20.4(3) 5_455 .
O3 O3 Ga3 141.3(2) 5 .
O3 O3 Ga3 114.3(4) 5_554 .
Ga3 O3 Ga3 114.8(3) 4_446 .
Nb O3 Ga3 94.5(3) 1_554 .
Ga1 O3 Ga3 94.5(3) 1_554 .
O1 O3 Ga3 60.2(2) . .
O2 O3 Ga3 88.5(4) 4_554 .
La O3 Ga3 46.52(13) 1_554 .
Ga3 O3 Ga3 108.0(2) 2_565 .
O2 O3 Ga3 21.8(2) 3_454 .
La O3 Ga3 149.1(4) 2 .
O2 O3 Ga3 105.9(4) 4 .
O2 O3 Ga3 54.8(3) 3_455 .
La O3 Ga3 79.4(2) 2_565 .
Ga2 O3 Ga3 109.1(2) 2 .
O2 O3 Ga3 148.5(4) 5 .
O1 O3 Ga3 43.26(13) 1_554 .
Ga3 O3 Ga2 118.0(6) 4_445 .
Nb O3 Ga2 91.4(4) . .
Ga1 O3 Ga2 91.4(4) . .
La O3 Ga2 41.5(3) . .
Ga3 O3 Ga2 145.6(4) 2_564 .
O2 O3 Ga2 105.6(4) 6 .
O3 O3 Ga2 55.6(5) 6 .
O3 O3 Ga2 147.63(18) 6_554 .
O3 O3 Ga2 115.8(4) 3 .
O3 O3 Ga2 129.5(2) 4 .
O2 O3 Ga2 84.2(4) 2 .
O2 O3 Ga2 103.5(5) 1_554 .
O1 O3 Ga2 42.9(4) 2_455 .
O2 O3 Ga2 15.9(3) . .
O3 O3 Ga2 66.4(3) 2 .
Ga2 O3 Ga2 73.9(2) 1_554 .
O3 O3 Ga2 139.5(3) 2_554 .
Ga3 O3 Ga2 144.3(4) 1_655 .
La O3 Ga2 44.89(15) 4_445 .
Ga2 O3 Ga2 99.8(2) 2_565 .
O2 O3 Ga2 74.4(3) 5_455 .
O3 O3 Ga2 92.1(4) 5 .
O3 O3 Ga2 170.5(4) 5_554 .
Ga3 O3 Ga2 40.83(13) 4_446 .
Nb O3 Ga2 159.4(3) 1_554 .
Ga1 O3 Ga2 159.4(3) 1_554 .
O1 O3 Ga2 64.9(2) . .
O2 O3 Ga2 145.9(4) 4_554 .
La O3 Ga2 118.2(3) 1_554 .
Ga3 O3 Ga2 66.15(17) 2_565 .
O2 O3 Ga2 85.7(3) 3_454 .
La O3 Ga2 87.5(3) 2 .
O2 O3 Ga2 87.1(3) 4 .
O2 O3 Ga2 22.89(19) 3_455 .
La O3 Ga2 94.4(2) 2_565 .
Ga2 O3 Ga2 91.6(3) 2 .
O2 O3 Ga2 132.2(3) 5 .
O1 O3 Ga2 114.8(3) 1_554 .
Ga3 O3 Ga2 74.99(17) . .
Ga3 O3 La 115.1(5) 4_445 4
Nb O3 La 35.0(3) . 4
Ga1 O3 La 35.0(3) . 4
La O3 La 106.4(4) . 4
Ga3 O3 La 53.0(2) 2_564 4
O2 O3 La 65.5(4) 6 4
O3 O3 La 60.5(4) 6 4
O3 O3 La 89.3(5) 6_554 4
O3 O3 La 60.4(4) 3 4
O3 O3 La 14.26(15) 4 4
O2 O3 La 118.8(6) 2 4
O2 O3 La 140.9(5) 1_554 4
O1 O3 La 156.4(4) 2_455 4
O2 O3 La 108.5(4) . 4
O3 O3 La 71.00(18) 2 4
Ga2 O3 La 165.2(4) 1_554 4
O3 O3 La 93.5(2) 2_554 4
Ga3 O3 La 52.35(16) 1_655 4
La O3 La 135.7(3) 4_445 4
Ga2 O3 La 89.6(3) 2_565 4
O2 O3 La 109.9(4) 5_455 4
O3 O3 La 28.5(2) 5 4
O3 O3 La 57.4(3) 5_554 4
Ga3 O3 La 83.2(2) 4_446 4
Nb O3 La 84.9(2) 1_554 4
Ga1 O3 La 84.9(2) 1_554 4
O1 O3 La 78.7(2) . 4
O2 O3 La 53.9(2) 4_554 4
La O3 La 116.0(3) 1_554 4
Ga3 O3 La 50.02(13) 2_565 4
O2 O3 La 140.7(4) 3_454 4
La O3 La 81.7(2) 2 4
O2 O3 La 33.8(2) 4 4
O2 O3 La 117.3(4) 3_455 4
La O3 La 50.92(14) 2_565 4
Ga2 O3 La 119.9(3) 2 4
O2 O3 La 33.4(2) 5 4
O1 O3 La 94.8(3) 1_554 4
Ga3 O3 La 128.7(3) . 4
Ga2 O3 La 115.5(2) . 4
Ga3 O3 O1 71.6(5) 4_445 1_545
Nb O3 O1 73.7(5) . 1_545
Ga1 O3 O1 73.7(5) . 1_545
La O3 O1 102.3(5) . 1_545
Ga3 O3 O1 149.2(4) 2_564 1_545
O2 O3 O1 161.7(5) 6 1_545
O3 O3 O1 85.5(7) 6 1_545
O3 O3 O1 133.6(6) 6_554 1_545
O3 O3 O1 61.5(5) 3 1_545
O3 O3 O1 115.4(5) 4 1_545
O2 O3 O1 31.6(4) 2 1_545
O2 O3 O1 88.6(5) 1_554 1_545
O1 O3 O1 72.5(3) 2_455 1_545
O2 O3 O1 47.5(4) . 1_545
O3 O3 O1 39.4(2) 2 1_545
Ga2 O3 O1 86.8(3) 1_554 1_545
O3 O3 O1 84.5(4) 2_554 1_545
Ga3 O3 O1 89.1(3) 1_655 1_545
La O3 O1 30.69(12) 4_445 1_545
Ga2 O3 O1 158.1(3) 2_565 1_545
O2 O3 O1 130.6(4) 5_455 1_545
O3 O3 O1 82.2(3) 5 1_545
O3 O3 O1 113.6(2) 5_554 1_545
Ga3 O3 O1 46.4(3) 4_446 1_545
Nb O3 O1 112.5(3) 1_554 1_545
Ga1 O3 O1 112.5(3) 1_554 1_545
O1 O3 O1 122.1(5) . 1_545
O2 O3 O1 149.5(4) 4_554 1_545
La O3 O1 127.4(3) 1_554 1_545
Ga3 O3 O1 90.5(3) 2_565 1_545
O2 O3 O1 111.7(4) 3_454 1_545
La O3 O1 31.20(11) 2 1_545
O2 O3 O1 110.6(4) 4 1_545
O2 O3 O1 82.9(3) 3_455 1_545
La O3 O1 138.8(3) 2_565 1_545
Ga2 O3 O1 40.6(2) 2 1_545
O2 O3 O1 91.0(3) 5 1_545
O1 O3 O1 156.8(4) 1_554 1_545
Ga3 O3 O1 119.5(3) . 1_545
Ga2 O3 O1 60.9(2) . 1_545
La O3 O1 107.6(3) 4 1_545
Ga3 O3 O3 43.7(5) 4_445 1_554
Nb O3 O3 127.7(4) . 1_554
Ga1 O3 O3 127.7(4) . 1_554
La O3 O3 120.5(3) . 1_554
Ga3 O3 O3 58.6(3) 2_564 1_554
O2 O3 O3 83.2(4) 6 1_554
O3 O3 O3 158.3(7) 6 1_554
O3 O3 O3 20.0(6) 6_554 1_554
O3 O3 O3 90.001(1) 3 1_554
O3 O3 O3 90.000(2) 4 1_554
O2 O3 O3 83.4(4) 2 1_554
O2 O3 O3 37.9(5) 1_554 1_554
O1 O3 O3 96.5(4) 2_455 1_554
O2 O3 O3 146.4(3) . 1_554
O3 O3 O3 139.1(4) 2 1_554
Ga2 O3 O3 65.5(2) 1_554 1_554
O3 O3 O3 38.3(5) 2_554 1_554
Ga3 O3 O3 68.7(2) 1_655 1_554
La O3 O3 108.87(18) 4_445 1_554
Ga2 O3 O3 71.94(18) 2_565 1_554
O2 O3 O3 85.3(3) 5_455 1_554
O3 O3 O3 128.3(4) 5 1_554
O3 O3 O3 49.1(3) 5_554 1_554
Ga3 O3 O3 161.3(2) 4_446 1_554
Nb O3 O3 22.05(16) 1_554 1_554
Ga1 O3 O3 22.05(16) 1_554 1_554
O1 O3 O3 118.7(3) . 1_554
O2 O3 O3 57.8(3) 4_554 1_554
La O3 O3 28.02(15) 1_554 1_554
Ga3 O3 O3 149.8(2) 2_565 1_554
O2 O3 O3 57.1(3) 3_454 1_554
La O3 O3 106.41(16) 2 1_554
O2 O3 O3 126.5(3) 4 1_554
O2 O3 O3 127.2(3) 3_455 1_554
La O3 O3 105.09(17) 2_565 1_554
Ga2 O3 O3 74.42(18) 2 1_554
O2 O3 O3 86.1(2) 5 1_554
O1 O3 O3 51.4(2) 1_554 1_554
Ga3 O3 O3 74.22(15) . 1_554
Ga2 O3 O3 139.44(14) . 1_554
La O3 O3 104.25(16) 4 1_554
O1 O3 O3 115.1(2) 1_545 1_554
Ga3 O3 O3 136.3(5) 4_445 1_556
Nb O3 O3 52.3(4) . 1_556
Ga1 O3 O3 52.3(4) . 1_556
La O3 O3 59.5(3) . 1_556
Ga3 O3 O3 121.4(3) 2_564 1_556
O2 O3 O3 96.8(4) 6 1_556
O3 O3 O3 21.7(7) 6 1_556
O3 O3 O3 160.0(6) 6_554 1_556
O3 O3 O3 90.000(1) 3 1_556
O3 O3 O3 90.000(1) 4 1_556
O2 O3 O3 96.6(4) 2 1_556
O2 O3 O3 142.1(5) 1_554 1_556
O1 O3 O3 83.5(4) 2_455 1_556
O2 O3 O3 33.6(3) . 1_556
O3 O3 O3 40.9(4) 2 1_556
Ga2 O3 O3 114.5(2) 1_554 1_556
O3 O3 O3 141.7(5) 2_554 1_556
Ga3 O3 O3 111.3(2) 1_655 1_556
La O3 O3 71.14(18) 4_445 1_556
Ga2 O3 O3 108.06(18) 2_565 1_556
O2 O3 O3 94.7(3) 5_455 1_556
O3 O3 O3 51.7(4) 5 1_556
O3 O3 O3 130.9(3) 5_554 1_556
Ga3 O3 O3 18.7(2) 4_446 1_556
Nb O3 O3 157.95(16) 1_554 1_556
Ga1 O3 O3 157.95(16) 1_554 1_556
O1 O3 O3 61.3(3) . 1_556
O2 O3 O3 122.2(3) 4_554 1_556
La O3 O3 151.98(15) 1_554 1_556
Ga3 O3 O3 30.2(2) 2_565 1_556
O2 O3 O3 122.9(3) 3_454 1_556
La O3 O3 73.59(16) 2 1_556
O2 O3 O3 53.5(3) 4 1_556
O2 O3 O3 52.8(3) 3_455 1_556
La O3 O3 74.91(17) 2_565 1_556
Ga2 O3 O3 105.58(18) 2 1_556
O2 O3 O3 93.9(2) 5 1_556
O1 O3 O3 128.6(2) 1_554 1_556
Ga3 O3 O3 105.78(15) . 1_556
Ga2 O3 O3 40.56(14) . 1_556
La O3 O3 75.75(16) 4 1_556
O1 O3 O3 64.9(2) 1_545 1_556
O3 O3 O3 179.999(1) 1_554 1_556
Ga3 O3 O2 48.1(4) 4_445 3_554
Nb O3 O2 69.3(4) . 3_554
Ga1 O3 O2 69.3(4) . 3_554
La O3 O2 173.7(5) . 3_554
Ga3 O3 O2 70.3(3) 2_564 3_554
O2 O3 O2 110.3(6) 6 3_554
O3 O3 O2 118.0(3) 6 3_554
O3 O3 O2 66.8(3) 6_554 3_554
O3 O3 O2 27.8(2) 3 3_554
O3 O3 O2 59.6(4) 4 3_554
O2 O3 O2 63.6(6) 2 3_554
O2 O3 O2 81.3(4) 1_554 3_554
O1 O3 O2 134.0(5) 2_455 3_554
O2 O3 O2 125.0(4) . 3_554
O3 O3 O2 79.1(4) 2 3_554
Ga2 O3 O2 113.4(4) 1_554 3_554
O3 O3 O2 29.7(4) 2_554 3_554
Ga3 O3 O2 15.3(2) 1_655 3_554
La O3 O2 103.3(4) 4_445 3_554
Ga2 O3 O2 119.9(3) 2_565 3_554
O2 O3 O2 144.4(4) 5_455 3_554
O3 O3 O2 74.4(4) 5 3_554
O3 O3 O2 33.4(2) 5_554 3_554
Ga3 O3 O2 106.3(3) 4_446 3_554
Nb O3 O2 43.3(2) 1_554 3_554
Ga1 O3 O2 43.3(2) 1_554 3_554
O1 O3 O2 144.3(4) . 3_554
O2 O3 O2 70.3(3) 4_554 3_554
La O3 O2 90.5(3) 1_554 3_554
Ga3 O3 O2 109.9(3) 2_565 3_554
O2 O3 O2 117.8(4) 3_454 3_554
La O3 O2 53.0(2) 2 3_554
O2 O3 O2 100.8(2) 4 3_554
O2 O3 O2 163.1(5) 3_455 3_554
La O3 O2 112.0(3) 2_565 3_554
Ga2 O3 O2 59.2(3) 2 3_554
O2 O3 O2 34.3(4) 5 3_554
O1 O3 O2 103.9(3) 1_554 3_554
Ga3 O3 O2 136.8(3) . 3_554
Ga2 O3 O2 140.3(4) . 3_554
La O3 O2 67.3(3) 4 3_554
O1 O3 O2 80.2(3) 1_545 3_554
O3 O3 O2 62.6(2) 1_554 3_554
O3 O3 O2 117.4(2) 1_556 3_554
Ga3 O3 Ga3 113.3(5) 4_445 1_656
Nb O3 Ga3 12.4(3) . 1_656
Ga1 O3 Ga3 12.4(3) . 1_656
La O3 Ga3 99.3(3) . 1_656
Ga3 O3 Ga3 99.4(3) 2_564 1_656
O2 O3 Ga3 102.8(4) 6 1_656
O3 O3 Ga3 43.7(2) 6 1_656
O3 O3 Ga3 131.6(4) 6_554 1_656
O3 O3 Ga3 50.92(15) 3 1_656
O3 O3 Ga3 58.92(18) 4 1_656
O2 O3 Ga3 87.6(5) 2 1_656
O2 O3 Ga3 147.2(5) 1_554 1_656
O1 O3 Ga3 120.4(5) 2_455 1_656
O2 O3 Ga3 67.2(3) . 1_656
O3 O3 Ga3 25.08(18) 2 1_656
Ga2 O3 Ga3 148.0(4) 1_554 1_656
O3 O3 Ga3 104.7(5) 2_554 1_656
Ga3 O3 Ga3 69.12(19) 1_655 1_656
La O3 Ga3 89.3(3) 4_445 1_656
Ga2 O3 Ga3 125.9(3) 2_565 1_656
O2 O3 Ga3 129.2(4) 5_455 1_656
O3 O3 Ga3 18.46(17) 5 1_656
O3 O3 Ga3 90.8(4) 5_554 1_656
Ga3 O3 Ga3 39.93(12) 4_446 1_656
Nb O3 Ga3 116.0(3) 1_554 1_656
Ga1 O3 Ga3 116.0(3) 1_554 1_656
O1 O3 Ga3 88.5(3) . 1_656
O2 O3 Ga3 100.3(3) 4_554 1_656
La O3 Ga3 161.3(3) 1_554 1_656
Ga3 O3 Ga3 39.52(11) 2_565 1_656
O2 O3 Ga3 165.1(4) 3_454 1_656
La O3 Ga3 49.12(14) 2 1_656
O2 O3 Ga3 49.7(2) 4 1_656
O2 O3 Ga3 95.0(3) 3_455 1_656
La O3 Ga3 80.13(19) 2_565 1_656
Ga2 O3 Ga3 94.0(3) 2 1_656
O2 O3 Ga3 52.5(2) 5 1_656
O1 O3 Ga3 139.0(3) 1_554 1_656
Ga3 O3 Ga3 146.0(3) . 1_656
Ga2 O3 Ga3 79.8(2) . 1_656
La O3 Ga3 46.58(11) 4 1_656
O1 O3 Ga3 64.2(2) 1_545 1_656
O3 O3 Ga3 137.80(14) 1_554 1_656
O3 O3 Ga3 42.20(14) 1_556 1_656
O2 O3 Ga3 76.5(3) 3_554 1_656
Ga3 O3 O2 56.3(4) 4_445 4_444
Nb O3 O2 153.1(7) . 4_444
Ga1 O3 O2 153.1(7) . 4_444
La O3 O2 81.8(4) . 4_444
Ga3 O3 O2 115.8(4) 2_564 4_444
O2 O3 O2 110.8(5) 6 4_444
O3 O3 O2 131.6(5) 6 4_444
O3 O3 O2 78.3(4) 6_554 4_444
O3 O3 O2 117.0(7) 3 4_444
O3 O3 O2 153.0(3) 4 4_444
O2 O3 O2 62.0(3) 2 4_444
O2 O3 O2 26.8(3) 1_554 4_444
O1 O3 O2 35.2(4) 2_455 4_444
O2 O3 O2 84.1(3) . 4_444
O3 O3 O2 118.1(3) 2 4_444
Ga2 O3 O2 10.5(2) 1_554 4_444
O3 O3 O2 76.4(3) 2_554 4_444
Ga3 O3 O2 118.6(4) 1_655 4_444
La O3 O2 54.3(3) 4_445 4_444
Ga2 O3 O2 86.4(3) 2_565 4_444
O2 O3 O2 70.6(4) 5_455 4_444
O3 O3 O2 161.6(4) 5 4_444
O3 O3 O2 110.2(5) 5_554 4_444
Ga3 O3 O2 109.0(4) 4_446 4_444
Nb O3 O2 82.6(3) 1_554 4_444
Ga1 O3 O2 82.6(3) 1_554 4_444
O1 O3 O2 106.8(4) . 4_444
O2 O3 O2 114.9(4) 4_554 4_444
La O3 O2 52.8(2) 1_554 4_444
Ga3 O3 O2 142.0(4) 2_565 4_444
O2 O3 O2 33.4(3) 3_454 4_444
La O3 O2 101.3(4) 2 4_444
O2 O3 O2 154.1(6) 4 4_444
O2 O3 O2 73.55(18) 3_455 4_444
La O3 O2 129.7(4) 2_565 4_444
Ga2 O3 O2 58.7(3) 2 4_444
O2 O3 O2 138.7(3) 5 4_444
O1 O3 O2 77.3(3) 1_554 4_444
Ga3 O3 O2 50.4(2) . 4_444
Ga2 O3 O2 77.1(3) . 4_444
La O3 O2 167.2(4) 4 4_444
O1 O3 O2 79.5(3) 1_545 4_444
O3 O3 O2 63.0(2) 1_554 4_444
O3 O3 O2 117.0(2) 1_556 4_444
O2 O3 O2 104.4(5) 3_554 4_444
Ga3 O3 O2 143.2(4) 1_656 4_444
Ga3 O3 O2 129.5(6) 4_445 2_565
Nb O3 O2 106.1(5) . 2_565
Ga1 O3 O2 106.1(5) . 2_565
La O3 O2 51.6(4) . 2_565
Ga3 O3 O2 54.9(3) 2_564 2_565
O2 O3 O2 16.1(4) 6 2_565
O3 O3 O2 75.8(6) 6 2_565
O3 O3 O2 70.5(5) 6_554 2_565
O3 O3 O2 137.6(6) 3 2_565
O3 O3 O2 77.7(6) 4 2_565
O2 O3 O2 160.7(7) 2 2_565
O2 O3 O2 101.8(4) 1_554 2_565
O1 O3 O2 90.8(4) 2_455 2_565
O2 O3 O2 106.0(3) . 2_565
O3 O3 O2 129.8(5) 2 2_565
Ga2 O3 O2 88.9(4) 1_554 2_565
O3 O3 O2 121.1(5) 2_554 2_565
Ga3 O3 O2 114.0(4) 1_655 2_565
La O3 O2 130.3(3) 4_445 2_565
Ga2 O3 O2 15.9(2) 2_565 2_565
O2 O3 O2 31.0(3) 5_455 2_565
O3 O3 O2 96.5(2) 5 2_565
O3 O3 O2 92.0(2) 5_554 2_565
Ga3 O3 O2 111.8(3) 4_446 2_565
Nb O3 O2 93.3(3) 1_554 2_565
Ga1 O3 O2 93.3(3) 1_554 2_565
O1 O3 O2 32.7(3) . 2_565
O2 O3 O2 54.8(3) 4_554 2_565
La O3 O2 65.9(3) 1_554 2_565
Ga3 O3 O2 74.4(3) 2_565 2_565
O2 O3 O2 66.0(4) 3_454 2_565
La O3 O2 159.4(3) 2 2_565
O2 O3 O2 61.2(3) 4 2_565
O2 O3 O2 71.4(3) 3_455 2_565
La O3 O2 31.4(2) 2_565 2_565
Ga2 O3 O2 155.3(3) 2 2_565
O2 O3 O2 106.4(5) 5 2_565
O1 O3 O2 35.6(2) 1_554 2_565
Ga3 O3 O2 49.2(3) . 2_565
Ga2 O3 O2 92.8(3) . 2_565
La O3 O2 79.6(3) 4 2_565
O1 O3 O2 153.5(3) 1_545 2_565
O3 O3 O2 86.6(2) 1_554 2_565
O3 O3 O2 93.4(2) 1_556 2_565
O2 O3 O2 125.2(3) 3_554 2_565
Ga3 O3 O2 110.7(3) 1_656 2_565
O2 O3 O2 98.8(5) 4_444 2_565
Ga3 O3 La 26.1(3) 4_445 4_444
Nb O3 La 136.4(5) . 4_444
Ga1 O3 La 136.4(5) . 4_444
La O3 La 112.4(4) . 4_444
Ga3 O3 La 101.1(3) 2_564 4_444
O2 O3 La 118.6(5) 6 4_444
O3 O3 La 158.2(8) 6 4_444
O3 O3 La 62.1(5) 6_554 4_444
O3 O3 La 90.5(5) 3 4_444
O3 O3 La 126.1(2) 4 4_444
O2 O3 La 49.2(4) 2 4_444
O2 O3 La 12.1(3) 1_554 4_444
O1 O3 La 65.1(4) 2_455 4_444
O2 O3 La 104.9(4) . 4_444
O3 O3 La 115.2(4) 2 4_444
Ga2 O3 La 39.81(13) 1_554 4_444
O3 O3 La 45.4(2) 2_554 4_444
Ga3 O3 La 87.5(2) 1_655 4_444
La O3 La 66.4(2) 4_445 4_444
Ga2 O3 La 98.1(2) 2_565 4_444
O2 O3 La 93.6(3) 5_455 4_444
O3 O3 La 144.8(3) 5 4_444
O3 O3 La 82.2(3) 5_554 4_444
Ga3 O3 La 121.9(3) 4_446 4_444
Nb O3 La 56.39(14) 1_554 4_444
Ga1 O3 La 56.39(14) 1_554 4_444
O1 O3 La 134.0(3) . 4_444
O2 O3 La 100.3(3) 4_554 4_444
La O3 La 49.73(12) 1_554 4_444
Ga3 O3 La 167.6(4) 2_565 4_444
O2 O3 La 52.3(2) 3_454 4_444
La O3 La 86.0(2) 2 4_444
O2 O3 La 169.0(4) 4 4_444
O2 O3 La 104.2(3) 3_455 4_444
La O3 La 142.5(3) 2_565 4_444
Ga2 O3 La 41.67(11) 2 4_444
O2 O3 La 107.8(3) 5 4_444
O1 O3 La 81.1(2) 1_554 4_444
Ga3 O3 La 73.83(16) . 4_444
Ga2 O3 La 103.3(3) . 4_444
La O3 La 138.5(3) 4 4_444
O1 O3 La 78.2(3) 1_545 4_444
O3 O3 La 42.51(17) 1_554 4_444
O3 O3 La 137.49(17) 1_556 4_444
O2 O3 La 73.6(3) 3_554 4_444
Ga3 O3 La 135.1(3) 1_656 4_444
O2 O3 La 31.1(2) 4_444 4_444
O2 O3 La 113.8(3) 2_565 4_444
Ga3 O3 O2 93.1(5) 4_445 3
Nb O3 O2 21.7(3) . 3
Ga1 O3 O2 21.7(3) . 3
La O3 O2 117.9(4) . 3
Ga3 O3 O2 100.2(4) 2_564 3
O2 O3 O2 116.6(5) 6 3
O3 O3 O2 63.7(3) 6 3
O3 O3 O2 121.7(2) 6_554 3
O3 O3 O2 31.6(2) 3 3
O3 O3 O2 60.8(3) 4 3
O2 O3 O2 71.4(6) 2 3
O2 O3 O2 127.9(4) 1_554 3
O1 O3 O2 124.0(5) 2_455 3
O2 O3 O2 75.6(4) . 3
O3 O3 O2 24.7(3) 2 3
Ga2 O3 O2 141.4(5) 1_554 3
O3 O3 O2 85.4(5) 2_554 3
Ga3 O3 O2 54.7(2) 1_655 3
La O3 O2 84.8(3) 4_445 3
Ga2 O3 O2 141.0(4) 2_565 3
O2 O3 O2 149.4(3) 5_455 3
O3 O3 O2 31.2(2) 5 3
O3 O3 O2 80.0(4) 5_554 3
Ga3 O3 O2 50.1(2) 4_446 3
Nb O3 O2 101.0(3) 1_554 3
Ga1 O3 O2 101.0(3) 1_554 3
O1 O3 O2 108.6(3) . 3
O2 O3 O2 100.9(2) 4_554 3
La O3 O2 149.1(3) 1_554 3
Ga3 O3 O2 59.7(2) 2_565 3
O2 O3 O2 166.0(5) 3_454 3
La O3 O2 31.7(2) 2 3
O2 O3 O2 66.9(3) 4 3
O2 O3 O2 109.8(4) 3_455 3
La O3 O2 96.3(3) 2_565 3
Ga2 O3 O2 76.5(3) 2 3
O2 O3 O2 43.2(3) 5 3
O1 O3 O2 146.2(4) 1_554 3
Ga3 O3 O2 164.4(3) . 3
Ga2 O3 O2 90.5(3) . 3
La O3 O2 52.6(2) 4 3
O1 O3 O2 55.1(3) 1_545 3
O3 O3 O2 121.3(2) 1_554 3
O3 O3 O2 58.7(2) 1_556 3
O2 O3 O2 58.7(2) 3_554 3
Ga3 O3 O2 20.25(17) 1_656 3
O2 O3 O2 132.6(5) 4_444 3
O2 O3 O2 127.7(3) 2_565 3
La O3 O2 116.0(3) 4_444 3
Ga3 O3 O1 124.1(5) 4_445 2_565
Nb O3 O1 61.1(4) . 2_565
Ga1 O3 O1 61.1(4) . 2_565
La O3 O1 90.3(4) . 2_565
Ga3 O3 O1 35.2(3) 2_564 2_565
O2 O3 O1 37.5(3) 6 2_565
O3 O3 O1 65.4(7) 6 2_565
O3 O3 O1 74.7(6) 6_554 2_565
O3 O3 O1 85.8(5) 3 2_565
O3 O3 O1 26.1(5) 4 2_565
O2 O3 O1 144.7(5) 2 2_565
O2 O3 O1 130.4(6) 1_554 2_565
O1 O3 O1 140.9(4) 2_455 2_565
O2 O3 O1 118.7(4) . 2_565
O3 O3 O1 96.0(2) 2 2_565
Ga2 O3 O1 138.2(4) 1_554 2_565
O3 O3 O1 101.5(2) 2_554 2_565
Ga3 O3 O1 68.9(2) 1_655 2_565
La O3 O1 157.1(4) 4_445 2_565
Ga2 O3 O1 61.4(2) 2_565 2_565
O2 O3 O1 83.3(3) 5_455 2_565
O3 O3 O1 52.7(2) 5 2_565
O3 O3 O1 60.0(3) 5_554 2_565
Ga3 O3 O1 100.0(3) 4_446 2_565
Nb O3 O1 81.5(3) 1_554 2_565
Ga1 O3 O1 81.5(3) 1_554 2_565
O1 O3 O1 60.5(2) . 2_565
O2 O3 O1 36.1(3) 4_554 2_565
La O3 O1 94.6(3) 1_554 2_565
Ga3 O3 O1 56.0(3) 2_565 2_565
O2 O3 O1 113.2(4) 3_454 2_565
La O3 O1 109.8(2) 2 2_565
O2 O3 O1 32.7(3) 4 2_565
O2 O3 O1 107.4(4) 3_455 2_565
La O3 O1 28.21(12) 2_565 2_565
Ga2 O3 O1 142.8(3) 2 2_565
O2 O3 O1 55.3(3) 5 2_565
O1 O3 O1 68.4(3) 1_554 2_565
Ga3 O3 O1 101.0(3) . 2_565
Ga2 O3 O1 117.5(3) . 2_565
La O3 O1 28.12(12) 4 2_565
O1 O3 O1 134.7(3) 1_545 2_565
O3 O3 O1 93.8(2) 1_554 2_565
O3 O3 O1 86.2(2) 1_556 2_565
O2 O3 O1 83.9(3) 3_554 2_565
Ga3 O3 O1 71.0(2) 1_656 2_565
O2 O3 O1 145.7(4) 4_444 2_565
O2 O3 O1 52.3(2) 2_565 2_565
La O3 O1 136.2(3) 4_444 2_565
O2 O3 O1 80.4(3) 3 2_565
Ga3 O3 Ga2 168.7(5) 4_445 2_566
Nb O3 Ga2 77.9(3) . 2_566
Ga1 O3 Ga2 77.9(3) . 2_566
La O3 Ga2 30.7(2) . 2_566
Ga3 O3 Ga2 92.5(3) 2_564 2_566
O2 O3 Ga2 56.0(4) 6 2_566
O3 O3 Ga2 31.2(3) 6 2_566
O3 O3 Ga2 119.5(6) 6_554 2_566
O3 O3 Ga2 124.6(3) 3 2_566
O3 O3 Ga2 85.9(5) 4 2_566
O2 O3 Ga2 136.3(5) 2 2_566
O2 O3 Ga2 134.0(4) 1_554 2_566
O1 O3 Ga2 81.1(3) 2_455 2_566
O2 O3 Ga2 61.5(3) . 2_566
O3 O3 Ga2 84.1(4) 2 2_566
Ga2 O3 Ga2 103.2(3) 1_554 2_566
O3 O3 Ga2 166.7(3) 2_554 2_566
Ga3 O3 Ga2 128.6(3) 1_655 2_566
La O3 Ga2 98.7(3) 4_445 2_566
Ga2 O3 Ga2 63.59(18) 2_565 2_566
O2 O3 Ga2 54.8(3) 5_455 2_566
O3 O3 Ga2 70.9(3) 5 2_566
O3 O3 Ga2 125.3(3) 5_554 2_566
Ga3 O3 Ga2 62.58(16) 4_446 2_566
Nb O3 Ga2 140.3(4) 1_554 2_566
Ga1 O3 Ga2 140.3(4) 1_554 2_566
O1 O3 Ga2 16.8(2) . 2_566
O2 O3 Ga2 93.0(4) 4_554 2_566
La O3 Ga2 111.0(3) 1_554 2_566
Ga3 O3 Ga2 35.90(10) 2_565 2_566
O2 O3 Ga2 93.9(3) 3_454 2_566
La O3 Ga2 117.4(3) 2 2_566
O2 O3 Ga2 42.5(3) 4 2_566
O2 O3 Ga2 42.7(3) 3_455 2_566
La O3 Ga2 40.59(10) 2_565 2_566
Ga2 O3 Ga2 144.7(3) 2 2_566
O2 O3 Ga2 108.8(3) 5 2_566
O1 O3 Ga2 84.1(3) 1_554 2_566
Ga3 O3 Ga2 72.15(16) . 2_566
Ga2 O3 Ga2 53.83(12) . 2_566
La O3 Ga2 76.26(17) 4 2_566
O1 O3 Ga2 106.5(3) 1_545 2_566
O3 O3 Ga2 135.53(16) 1_554 2_566
O3 O3 Ga2 44.47(16) 1_556 2_566
O2 O3 Ga2 143.1(3) 3_554 2_566
Ga3 O3 Ga2 74.57(16) 1_656 2_566
O2 O3 Ga2 112.4(3) 4_444 2_566
O2 O3 Ga2 49.30(19) 2_565 2_566
La O3 Ga2 143.0(2) 4_444 2_566
O2 O3 Ga2 94.8(3) 3 2_566
O1 O3 Ga2 65.5(2) 2_565 2_566
Ga3 O3 O2 98.8(6) 4_445 4_445
Nb O3 O2 106.1(5) . 4_445
Ga1 O3 O2 106.1(5) . 4_445
La O3 O2 51.7(3) . 4_445
Ga3 O3 O2 156.1(5) 2_564 4_445
O2 O3 O2 117.0(5) 6 4_445
O3 O3 O2 75.9(6) 6 4_445
O3 O3 O2 134.3(4) 6_554 4_445
O3 O3 O2 115.9(7) 3 4_445
O3 O3 O2 149.1(2) 4 4_445
O2 O3 O2 69.9(4) 2 4_445
O2 O3 O2 83.7(4) 1_554 4_445
O1 O3 O2 26.6(4) 2_455 4_445
O2 O3 O2 27.0(3) . 4_445
O3 O3 O2 74.7(3) 2 4_445
Ga2 O3 O2 56.4(2) 1_554 4_445
O3 O3 O2 121.3(3) 2_554 4_445
Ga3 O3 O2 143.8(5) 1_655 4_445
La O3 O2 29.5(2) 4_445 4_445
Ga2 O3 O2 103.5(3) 2_565 4_445
O2 O3 O2 76.0(3) 5_455 4_445
O3 O3 O2 108.9(5) 5 4_445
O3 O3 O2 162.8(4) 5_554 4_445
Ga3 O3 O2 54.0(2) 4_446 4_445
Nb O3 O2 139.2(3) 1_554 4_445
Ga1 O3 O2 139.2(3) 1_554 4_445
O1 O3 O2 79.8(3) . 4_445
O2 O3 O2 155.8(6) 4_554 4_445
La O3 O2 104.9(3) 1_554 4_445
Ga3 O3 O2 86.4(3) 2_565 4_445
O2 O3 O2 73.29(19) 3_454 4_445
La O3 O2 85.4(3) 2 4_445
O2 O3 O2 107.5(4) 4 4_445
O2 O3 O2 32.1(3) 3_455 4_445
La O3 O2 111.6(3) 2_565 4_445
Ga2 O3 O2 75.8(3) 2 4_445
O2 O3 O2 142.0(3) 5 4_445
O1 O3 O2 112.4(3) 1_554 4_445
Ga3 O3 O2 69.2(2) . 4_445
Ga2 O3 O2 20.42(18) . 4_445
La O3 O2 134.9(3) 4 4_445
O1 O3 O2 54.7(3) 1_545 4_445
O3 O3 O2 120.89(19) 1_554 4_445
O3 O3 O2 59.11(19) 1_556 4_445
O2 O3 O2 132.7(5) 3_554 4_445
Ga3 O3 O2 93.8(3) 1_656 4_445
O2 O3 O2 57.9(2) 4_444 4_445
O2 O3 O2 101.8(4) 2_565 4_445
La O3 O2 82.9(3) 4_444 4_445
O2 O3 O2 99.1(4) 3 4_445
O1 O3 O2 137.1(4) 2_565 4_445
Ga2 O3 O2 71.9(3) 2_566 4_445
Ga3 O3 O1 12.9(4) 4_445 1_544
Nb O3 O1 108.9(5) . 1_544
Ga1 O3 O1 108.9(5) . 1_544
La O3 O1 132.6(4) . 1_544
Ga3 O3 O1 106.8(4) 2_564 1_544
O2 O3 O1 138.9(5) 6 1_544
O3 O3 O1 144.2(8) 6 1_544
O3 O3 O1 74.7(5) 6_554 1_544
O3 O3 O1 64.2(5) 3 1_544
O3 O3 O1 113.0(4) 4 1_544
O2 O3 O1 27.7(4) 2 1_544
O2 O3 O1 39.5(4) 1_554 1_544
O1 O3 O1 80.4(4) 2_455 1_544
O2 O3 O1 100.1(4) . 1_544
O3 O3 O1 90.8(4) 2 1_544
Ga2 O3 O1 63.6(2) 1_554 1_544
O3 O3 O1 33.62(18) 2_554 1_544
Ga3 O3 O1 68.96(19) 1_655 1_544
La O3 O1 61.5(2) 4_445 1_544
Ga2 O3 O1 123.5(3) 2_565 1_544
O2 O3 O1 121.0(4) 5_455 1_544
O3 O3 O1 117.7(2) 5 1_544
O3 O3 O1 75.1(3) 5_554 1_544
Ga3 O3 O1 105.7(4) 4_446 1_544
Nb O3 O1 57.9(2) 1_554 1_544
Ga1 O3 O1 57.9(2) 1_554 1_544
O1 O3 O1 160.2(3) . 1_544
O2 O3 O1 106.2(4) 4_554 1_544
La O3 O1 73.5(2) 1_554 1_544
Ga3 O3 O1 146.1(4) 2_565 1_544
O2 O3 O1 79.7(3) 3_454 1_544
La O3 O1 59.2(2) 2 1_544
O2 O3 O1 152.4(4) 4 1_544
O2 O3 O1 117.5(4) 3_455 1_544
La O3 O1 158.9(4) 2_565 1_544
Ga2 O3 O1 18.71(18) 2 1_544
O2 O3 O1 87.2(3) 5 1_544
O1 O3 O1 104.2(4) 1_554 1_544
Ga3 O3 O1 101.0(2) . 1_544
Ga2 O3 O1 106.1(3) . 1_544
La O3 O1 120.6(2) 4 1_544
O1 O3 O1 59.35(16) 1_545 1_544
O3 O3 O1 55.7(2) 1_554 1_544
O3 O3 O1 124.3(2) 1_556 1_544
O2 O3 O1 53.7(3) 3_554 1_544
Ga3 O3 O1 107.8(3) 1_656 1_544
O2 O3 O1 53.4(3) 4_444 1_544
O2 O3 O1 139.4(4) 2_565 1_544
La O3 O1 27.61(12) 4_444 1_544
O2 O3 O1 88.4(3) 3 1_544
O1 O3 O1 134.8(2) 2_565 1_544
Ga2 O3 O1 159.6(3) 2_566 1_544
O2 O3 O1 87.7(4) 4_445 1_544
Ga3 O3 O3 63.5(5) 4_445 4_445
Nb O3 O3 121.9(6) . 4_445
Ga1 O3 O3 121.9(6) . 4_445
La O3 O3 81.0(2) . 4_445
Ga3 O3 O3 147.4(3) 2_564 4_445
O2 O3 O3 135.8(5) 6 4_445
O3 O3 O3 109.8(6) 6 4_445
O3 O3 O3 108.2(5) 6_554 4_445
O3 O3 O3 101.9(8) 3 4_445
O3 O3 O3 161.9(8) 4 4_445
O2 O3 O3 43.5(5) 2 4_445
O2 O3 O3 52.3(5) 1_554 4_445
O1 O3 O3 30.63(7) 2_455 4_445
O2 O3 O3 56.7(3) . 4_445
O3 O3 O3 86.1(2) 2 4_445
Ga2 O3 O3 37.99(13) 1_554 4_445
O3 O3 O3 86.3(2) 2_554 4_445
Ga3 O3 O3 119.7(5) 1_655 4_445
La O3 O3 21.84(19) 4_445 4_445
Ga2 O3 O3 112.7(3) 2_565 4_445
O2 O3 O3 89.3(3) 5_455 4_445
O3 O3 O3 129.4(3) 5 4_445
O3 O3 O3 127.7(3) 5_554 4_445
Ga3 O3 O3 78.1(2) 4_446 4_445
Nb O3 O3 104.5(3) 1_554 4_445
Ga1 O3 O3 104.5(3) 1_554 4_445
O1 O3 O3 110.9(2) . 4_445
O2 O3 O3 146.5(2) 4_554 4_445
La O3 O3 85.12(14) 1_554 4_445
Ga3 O3 O3 119.72(18) 2_565 4_445
O2 O3 O3 62.7(2) 3_454 4_445
La O3 O3 76.4(4) 2 4_445
O2 O3 O3 142.4(3) 4 4_445
O2 O3 O3 64.2(2) 3_455 4_445
La O3 O3 143.1(3) 2_565 4_445
Ga2 O3 O3 45.9(3) 2 4_445
O2 O3 O3 132.8(5) 5 4_445
O1 O3 O3 108.5(2) 1_554 4_445
Ga3 O3 O3 72.60(15) . 4_445
Ga2 O3 O3 55.73(11) . 4_445
La O3 O3 156.6(4) 4 4_445
O1 O3 O3 49.1(3) 1_545 4_445
O3 O3 O3 90.000(1) 1_554 4_445
O3 O3 O3 90.000(1) 1_556 4_445
O2 O3 O3 104.8(4) 3_554 4_445
Ga3 O3 O3 110.9(3) 1_656 4_445
O2 O3 O3 32.4(2) 4_444 4_445
O2 O3 O3 120.3(4) 2_565 4_445
La O3 O3 48.48(19) 4_444 4_445
O2 O3 O3 104.2(4) 3 4_445
O1 O3 O3 171.3(4) 2_565 4_445
Ga2 O3 O3 106.52(16) 2_566 4_445
O2 O3 O3 35.6(2) 4_445 4_445
O1 O3 O3 53.3(3) 1_544 4_445
Ga3 O3 O3 103.5(4) 4_445 3_455
Nb O3 O3 140.7(4) . 3_455
Ga1 O3 O3 140.7(4) . 3_455
La O3 O3 35.7(3) . 3_455
Ga3 O3 O3 107.5(5) 2_564 3_455
O2 O3 O3 76.3(5) 6 3_455
O3 O3 O3 92.22(5) 6 3_455
O3 O3 O3 92.05(5) 6_554 3_455
O3 O3 O3 161.9(8) 3 3_455
O3 O3 O3 138.1(8) 4 3_455
O2 O3 O3 103.1(5) 2 3_455
O2 O3 O3 68.7(3) 1_554 3_455
O1 O3 O3 30.63(7) 2_455 3_455
O2 O3 O3 71.0(3) . 3_455
O3 O3 O3 122.0(2) 2 3_455
Ga2 O3 O3 37.99(13) 1_554 3_455
O3 O3 O3 120.1(3) 2_554 3_455
Ga3 O3 O3 158.6(2) 1_655 3_455
La O3 O3 72.26(17) 4_445 3_455
Ga2 O3 O3 56.0(3) 2_565 3_455
O2 O3 O3 29.7(3) 5_455 3_455
O3 O3 O3 135.8(3) 5 3_455
O3 O3 O3 133.7(3) 5_554 3_455
Ga3 O3 O3 96.23(16) 4_446 3_455
Nb O3 O3 111.55(18) 1_554 3_455
Ga1 O3 O3 111.55(18) 1_554 3_455
O1 O3 O3 58.9(3) . 3_455
O2 O3 O3 107.0(5) 4_554 3_455
La O3 O3 63.73(17) 1_554 3_455
Ga3 O3 O3 100.2(2) 2_565 3_455
O2 O3 O3 33.0(3) 3_454 3_455
La O3 O3 133.5(4) 2 3_455
O2 O3 O3 106.2(4) 4 3_455
O2 O3 O3 37.3(3) 3_455 3_455
La O3 O3 86.1(3) 2_565 3_455
Ga2 O3 O3 103.2(3) 2 3_455
O2 O3 O3 166.5(5) 5 3_455
O1 O3 O3 62.6(2) 1_554 3_455
Ga3 O3 O3 19.68(16) . 3_455
Ga2 O3 O3 55.73(11) . 3_455
La O3 O3 136.7(4) 4 3_455
O1 O3 O3 102.4(3) 1_545 3_455
O3 O3 O3 90.0 1_554 3_455
O3 O3 O3 89.999(1) 1_556 3_455
O2 O3 O3 149.8(3) 3_554 3_455
Ga3 O3 O3 132.17(14) 1_656 3_455
O2 O3 O3 48.0(3) 4_444 3_455
O2 O3 O3 60.4(4) 2_565 3_455
La O3 O3 77.43(15) 4_444 3_455
O2 O3 O3 146.3(3) 3 3_455
O1 O3 O3 112.2(4) 2_565 3_455
Ga2 O3 O3 65.6(2) 2_566 3_455
O2 O3 O3 49.87(19) 4_445 3_455
O1 O3 O3 101.3(2) 1_544 3_455
O3 O3 O3 60.0 4_445 3_455
Ga3 O3 Ga2 108.0(5) 4_445 1_664
Nb O3 Ga2 74.2(4) . 1_664
Ga1 O3 Ga2 74.2(4) . 1_664
La O3 Ga2 99.7(4) . 1_664
Ga3 O3 Ga2 16.48(16) 2_564 1_664
O2 O3 Ga2 36.3(4) 6 1_664
O3 O3 Ga2 84.0(7) 6 1_664
O3 O3 Ga2 56.0(5) 6_554 1_664
O3 O3 Ga2 86.0(5) 3 1_664
O3 O3 Ga2 29.6(4) 4 1_664
O2 O3 Ga2 138.9(5) 2 1_664
O2 O3 Ga2 111.9(5) 1_554 1_664
O1 O3 Ga2 142.0(4) 2_455 1_664
O2 O3 Ga2 137.2(4) . 1_664
O3 O3 Ga2 110.22(13) 2 1_664
Ga2 O3 Ga2 126.0(4) 1_554 1_664
O3 O3 Ga2 86.6(2) 2_554 1_664
Ga3 O3 Ga2 62.3(2) 1_655 1_664
La O3 Ga2 174.9(3) 4_445 1_664
Ga2 O3 Ga2 55.74(19) 2_565 1_664
O2 O3 Ga2 81.9(3) 5_455 1_664
O3 O3 Ga2 67.2(3) 5 1_664
O3 O3 Ga2 45.90(15) 5_554 1_664
Ga3 O3 Ga2 118.3(3) 4_446 1_664
Nb O3 Ga2 63.7(2) 1_554 1_664
Ga1 O3 Ga2 63.7(2) 1_554 1_664
O1 O3 Ga2 71.2(2) . 1_664
O2 O3 Ga2 17.4(2) 4_554 1_664
La O3 Ga2 78.1(2) 1_554 1_664
Ga3 O3 Ga2 74.8(2) 2_565 1_664
O2 O3 Ga2 101.9(3) 3_454 1_664
La O3 Ga2 114.8(2) 2 1_664
O2 O3 Ga2 51.5(3) 4 1_664
O2 O3 Ga2 119.0(3) 3_455 1_664
La O3 Ga2 39.70(12) 2_565 1_664
Ga2 O3 Ga2 133.2(3) 2 1_664
O2 O3 Ga2 55.1(2) 5 1_664
O1 O3 Ga2 56.08(17) 1_554 1_664
Ga3 O3 Ga2 95.5(3) . 1_664
Ga2 O3 Ga2 133.8(3) . 1_664
La O3 Ga2 39.22(11) 4 1_664
O1 O3 Ga2 144.9(3) 1_545 1_664
O3 O3 Ga2 75.06(13) 1_554 1_664
O3 O3 Ga2 104.94(13) 1_556 1_664
O2 O3 Ga2 75.4(2) 3_554 1_664
Ga3 O3 Ga2 85.59(19) 1_656 1_664
O2 O3 Ga2 130.8(3) 4_444 1_664
O2 O3 Ga2 52.3(2) 2_565 1_664
La O3 Ga2 117.5(3) 4_444 1_664
O2 O3 Ga2 90.3(3) 3 1_664
O1 O3 Ga2 18.8(2) 2_565 1_664
Ga2 O3 Ga2 80.10(19) 2_566 1_664
O2 O3 Ga2 151.0(4) 4_445 1_664
O1 O3 Ga2 120.1(3) 1_544 1_664
O3 O3 Ga2 163.2(2) 4_445 1_664
O3 O3 Ga2 111.4(4) 3_455 1_664
Ga3 O3 O2 165.4(7) 4_445 6_556
Nb O3 O2 58.7(3) . 6_556
Ga1 O3 O2 58.7(3) . 6_556
La O3 O2 47.5(3) . 6_556
Ga3 O3 O2 96.1(4) 2_564 6_556
O2 O3 O2 67.2(4) 6 6_556
O3 O3 O2 11.5(3) 6 6_556
O3 O3 O2 131.2(8) 6_554 6_556
O3 O3 O2 105.1(2) 3 6_556
O3 O3 O2 76.5(4) 4 6_556
O2 O3 O2 126.1(6) 2 6_556
O2 O3 O2 151.8(5) 1_554 6_556
O1 O3 O2 92.2(4) 2_455 6_556
O2 O3 O2 56.7(5) . 6_556
O3 O3 O2 65.7(4) 2 6_556
Ga2 O3 O2 119.1(3) 1_554 6_556
O3 O3 O2 156.4(4) 2_554 6_556
Ga3 O3 O2 114.1(3) 1_655 6_556
La O3 O2 96.4(3) 4_445 6_556
Ga2 O3 O2 80.5(3) 2_565 6_556
O2 O3 O2 74.7(3) 5_455 6_556
O3 O3 O2 52.6(3) 5 6_556
O3 O3 O2 120.3(4) 5_554 6_556
Ga3 O3 O2 48.2(2) 4_446 6_556
Nb O3 O2 144.3(4) 1_554 6_556
Ga1 O3 O2 144.3(4) 1_554 6_556
O1 O3 O2 35.1(3) . 6_556
O2 O3 O2 96.8(5) 4_554 6_556
La O3 O2 129.8(4) 1_554 6_556
Ga3 O3 O2 16.98(17) 2_565 6_556
O2 O3 O2 113.3(3) 3_454 6_556
La O3 O2 98.9(3) 2 6_556
O2 O3 O2 32.2(4) 4 6_556
O2 O3 O2 53.2(2) 3_455 6_556
La O3 O2 45.9(3) 2_565 6_556
Ga2 O3 O2 135.1(4) 2 6_556
O2 O3 O2 93.8(3) 5 6_556
O1 O3 O2 100.7(3) 1_554 6_556
Ga3 O3 O2 91.8(2) . 6_556
Ga2 O3 O2 55.1(2) . 6_556
La O3 O2 64.2(2) 4 6_556
O1 O3 O2 94.5(4) 1_545 6_556
O3 O3 O2 150.4(3) 1_554 6_556
O3 O3 O2 29.6(3) 1_556 6_556
O2 O3 O2 126.8(4) 3_554 6_556
Ga3 O3 O2 54.7(2) 1_656 6_556
O2 O3 O2 126.7(3) 4_444 6_556
O2 O3 O2 65.1(2) 2_565 6_556
La O3 O2 157.2(3) 4_444 6_556
O2 O3 O2 74.9(3) 3 6_556
O1 O3 O2 62.9(4) 2_565 6_556
Ga2 O3 O2 19.85(17) 2_566 6_556
O2 O3 O2 75.5(2) 4_445 6_556
O1 O3 O2 153.8(5) 1_544 6_556
O3 O3 O2 110.9(2) 4_445 6_556
O3 O3 O2 83.2(2) 3_455 6_556
Ga2 O3 O2 80.7(3) 1_664 6_556
Ga3 O3 O2 46.7(4) 4_445 5_445
Nb O3 O2 102.5(5) . 5_445
Ga1 O3 O2 102.5(5) . 5_445
La O3 O2 107.5(5) . 5_445
Ga3 O3 O2 140.7(4) 2_564 5_445
O2 O3 O2 161.9(5) 6 5_445
O3 O3 O2 115.0(8) 6 5_445
O3 O3 O2 106.5(6) 6_554 5_445
O3 O3 O2 73.2(6) 3 5_445
O3 O3 O2 133.1(6) 4 5_445
O2 O3 O2 14.7(6) 2 5_445
O2 O3 O2 56.7(5) 1_554 5_445
O1 O3 O2 59.5(4) 2_455 5_445
O2 O3 O2 66.2(4) . 5_445
O3 O3 O2 70.8(3) 2 5_445
Ga2 O3 O2 60.3(3) 1_554 5_445
O3 O3 O2 66.5(3) 2_554 5_445
Ga3 O3 O2 91.9(3) 1_655 5_445
La O3 O2 28.2(2) 4_445 5_445
Ga2 O3 O2 137.5(4) 2_565 5_445
O2 O3 O2 117.6(5) 5_455 5_445
O3 O3 O2 111.7(2) 5 5_445
O3 O3 O2 106.4(3) 5_554 5_445
Ga3 O3 O2 75.9(3) 4_446 5_445
Nb O3 O2 91.8(3) 1_554 5_445
Ga1 O3 O2 91.8(3) 1_554 5_445
O1 O3 O2 136.5(4) . 5_445
O2 O3 O2 140.1(3) 4_554 5_445
La O3 O2 95.5(3) 1_554 5_445
Ga3 O3 O2 121.6(3) 2_565 5_445
O2 O3 O2 84.5(3) 3_454 5_445
La O3 O2 50.6(2) 2 5_445
O2 O3 O2 142.5(3) 4 5_445
O2 O3 O2 88.6(4) 3_455 5_445
La O3 O2 167.2(3) 2_565 5_445
Ga2 O3 O2 19.1(2) 2 5_445
O2 O3 O2 103.9(4) 5 5_445
O1 O3 O2 125.7(3) 1_554 5_445
Ga3 O3 O2 99.3(3) . 5_445
Ga2 O3 O2 73.0(3) . 5_445
La O3 O2 132.0(3) 4 5_445
O1 O3 O2 31.9(2) 1_545 5_445
O3 O3 O2 86.6(2) 1_554 5_445
O3 O3 O2 93.4(2) 1_556 5_445
O2 O3 O2 77.8(3) 3_554 5_445
Ga3 O3 O2 94.8(3) 1_656 5_445
O2 O3 O2 51.1(4) 4_444 5_445
O2 O3 O2 148.4(3) 2_565 5_445
La O3 O2 46.7(2) 4_444 5_445
O2 O3 O2 81.5(3) 3 5_445
O1 O3 O2 159.1(3) 2_565 5_445
Ga2 O3 O2 126.7(3) 2_566 5_445
O2 O3 O2 56.7(5) 4_445 5_445
O1 O3 O2 33.9(2) 1_544 5_445
O3 O3 O2 28.9(3) 4_445 5_445
O3 O3 O2 88.8(3) 3_455 5_445
Ga2 O3 O2 152.3(3) 1_664 5_445
O2 O3 O2 121.8(4) 6_556 5_445
Ga3 O3 La 97.6(4) 4_445 2_455
Nb O3 La 128.9(5) . 2_455
Ga1 O3 La 128.9(5) . 2_455
La O3 La 42.2(2) . 2_455
Ga3 O3 La 132.6(4) 2_564 2_455
O2 O3 La 99.3(4) 6 2_455
O3 O3 La 88.1(4) 6 2_455
O3 O3 La 111.1(2) 6_554 2_455
O3 O3 La 138.5(7) 3 2_455
O3 O3 La 156.4(6) 4 2_455
O2 O3 La 83.0(5) 2 2_455
O2 O3 La 70.3(4) 1_554 2_455
O1 O3 La 10.1(2) 2_455 2_455
O2 O3 La 50.3(3) . 2_455
O3 O3 La 100.1(3) 2 2_455
Ga2 O3 La 37.89(14) 1_554 2_455
O3 O3 La 119.5(2) 2_554 2_455
Ga3 O3 La 159.2(4) 1_655 2_455
La O3 La 47.77(14) 4_445 2_455
Ga2 O3 La 80.79(19) 2_565 2_455
O2 O3 La 53.7(3) 5_455 2_455
O3 O3 La 129.1(5) 5 2_455
O3 O3 La 151.6(5) 5_554 2_455
Ga3 O3 La 77.4(2) 4_446 2_455
Nb O3 La 124.2(3) 1_554 2_455
Ga1 O3 La 124.2(3) 1_554 2_455
O1 O3 La 71.68(17) . 2_455
O2 O3 La 132.0(4) 4_554 2_455
La O3 La 81.27(18) 1_554 2_455
Ga3 O3 La 98.2(2) 2_565 2_455
O2 O3 La 48.9(2) 3_454 2_455
La O3 La 108.6(3) 2 2_455
O2 O3 La 113.4(4) 4 2_455
O2 O3 La 29.8(3) 3_455 2_455
La O3 La 103.4(2) 2_565 2_455
Ga2 O3 La 85.7(2) 2 2_455
O2 O3 La 167.6(4) 5 2_455
O1 O3 La 87.05(19) 1_554 2_455
Ga3 O3 La 43.81(10) . 2_455
Ga2 O3 La 37.48(10) . 2_455
La O3 La 147.0(2) 4 2_455
O1 O3 La 77.4(2) 1_545 2_455
O3 O3 La 102.56(13) 1_554 2_455
O3 O3 La 77.44(13) 1_556 2_455
O2 O3 La 144.0(4) 3_554 2_455
Ga3 O3 La 117.1(3) 1_656 2_455
O2 O3 La 43.8(2) 4_444 2_455
O2 O3 La 83.2(3) 2_565 2_455
La O3 La 74.38(16) 4_444 2_455
O2 O3 La 124.7(3) 3 2_455
O1 O3 La 131.5(3) 2_565 2_455
Ga2 O3 La 71.16(14) 2_566 2_455
O2 O3 La 25.65(18) 4_445 2_455
O1 O3 La 90.5(2) 1_544 2_455
O3 O3 La 39.85(12) 4_445 2_455
O3 O3 La 25.06(10) 3_455 2_455
Ga2 O3 La 135.4(3) 1_664 2_455
O2 O3 La 83.0(2) 6_556 2_455
O2 O3 La 68.3(3) 5_445 2_455
Ga3 O3 O2 43.7(4) 4_445 6_545
Nb O3 O2 78.7(4) . 6_545
Ga1 O3 O2 78.7(4) . 6_545
La O3 O2 132.5(5) . 6_545
Ga3 O3 O2 121.3(4) 2_564 6_545
O2 O3 O2 161.7(6) 6 6_545
O3 O3 O2 110.9(6) 6 6_545
O3 O3 O2 102.9(5) 6_554 6_545
O3 O3 O2 43.0(5) 3 6_545
O3 O3 O2 102.9(5) 4 6_545
O2 O3 O2 16.2(6) 2 6_545
O2 O3 O2 72.3(4) 1_554 6_545
O1 O3 O2 89.5(4) 2_455 6_545
O2 O3 O2 79.5(4) . 6_545
O3 O3 O2 56.8(4) 2 6_545
Ga2 O3 O2 87.7(3) 1_554 6_545
O3 O3 O2 52.6(4) 2_554 6_545
Ga3 O3 O2 63.7(3) 1_655 6_545
La O3 O2 52.1(3) 4_445 6_545
Ga2 O3 O2 157.5(3) 2_565 6_545
O2 O3 O2 147.4(4) 5_455 6_545
O3 O3 O2 88.14(19) 5 6_545
O3 O3 O2 84.0(2) 5_554 6_545
Ga3 O3 O2 74.9(3) 4_446 6_545
Nb O3 O2 80.5(3) 1_554 6_545
Ga1 O3 O2 80.5(3) 1_554 6_545
O1 O3 O2 153.8(5) . 6_545
O2 O3 O2 121.3(3) 4_554 6_545
La O3 O2 107.4(3) 1_554 6_545
Ga3 O3 O2 112.0(3) 2_565 6_545
O2 O3 O2 109.6(4) 3_454 6_545
La O3 O2 25.83(16) 2 6_545
O2 O3 O2 123.9(3) 4 6_545
O2 O3 O2 112.6(4) 3_455 6_545
La O3 O2 152.7(3) 2_565 6_545
Ga2 O3 O2 19.42(16) 2 6_545
O2 O3 O2 73.7(4) 5 6_545
O1 O3 O2 137.5(3) 1_554 6_545
Ga3 O3 O2 127.9(3) . 6_545
Ga2 O3 O2 92.0(3) . 6_545
La O3 O2 102.7(2) 4 6_545
O1 O3 O2 32.1(2) 1_545 6_545
O3 O3 O2 86.6(2) 1_554 6_545
O3 O3 O2 93.4(2) 1_556 6_545
O2 O3 O2 51.37(18) 3_554 6_545
Ga3 O3 O2 74.9(2) 1_656 6_545
O2 O3 O2 77.6(4) 4_444 6_545
O2 O3 O2 173.2(4) 2_565 6_545
La O3 O2 60.2(2) 4_444 6_545
O2 O3 O2 57.1(2) 3 6_545
O1 O3 O2 128.8(3) 2_565 6_545
Ga2 O3 O2 137.4(3) 2_566 6_545
O2 O3 O2 81.3(4) 4_445 6_545
O1 O3 O2 34.0(2) 1_544 6_545
O3 O3 O2 59.1(4) 4_445 6_545
O3 O3 O2 119.0(4) 3_455 6_545
Ga2 O3 O2 126.0(3) 1_664 6_545
O2 O3 O2 121.8(4) 6_556 6_545
O2 O3 O2 30.2(2) 5_445 6_545
La O3 O2 97.8(3) 2_455 6_545
Ga3 O3 O2 106.1(6) 4_445 2_556
Nb O3 O2 57.6(4) . 2_556
Ga1 O3 O2 57.6(4) . 2_556
La O3 O2 78.3(4) . 2_556
Ga3 O3 O2 143.8(4) 2_564 2_556
O2 O3 O2 127.1(5) 6 2_556
O3 O3 O2 51.3(6) 6 2_556
O3 O3 O2 167.0(5) 6_554 2_556
O3 O3 O2 74.8(4) 3 2_556
O3 O3 O2 104.1(3) 4 2_556
O2 O3 O2 66.3(4) 2 2_556
O2 O3 O2 118.6(7) 1_554 2_556
O1 O3 O2 75.9(5) 2_455 2_556
O2 O3 O2 25.7(4) . 2_556
O3 O3 O2 25.5(3) 2 2_556
Ga2 O3 O2 103.0(4) 1_554 2_556
O3 O3 O2 116.2(5) 2_554 2_556
Ga3 O3 O2 103.0(3) 1_655 2_556
La O3 O2 46.8(3) 4_445 2_556
Ga2 O3 O2 135.2(3) 2_565 2_556
O2 O3 O2 114.2(4) 5_455 2_556
O3 O3 O2 62.6(3) 5 2_556
O3 O3 O2 129.6(4) 5_554 2_556
Ga3 O3 O2 11.9(2) 4_446 2_556
Nb O3 O2 142.8(4) 1_554 2_556
Ga1 O3 O2 142.8(4) 1_554 2_556
O1 O3 O2 89.6(4) . 2_556
O2 O3 O2 144.8(3) 4_554 2_556
La O3 O2 152.9(4) 1_554 2_556
Ga3 O3 O2 57.6(2) 2_565 2_556
O2 O3 O2 122.9(3) 3_454 2_556
La O3 O2 49.4(2) 2 2_556
O2 O3 O2 79.9(3) 4 2_556
O2 O3 O2 63.1(3) 3_455 2_556
La O3 O2 104.8(3) 2_565 2_556
Ga2 O3 O2 75.3(3) 2 2_556
O2 O3 O2 93.3(3) 5 2_556
O1 O3 O2 154.4(3) 1_554 2_556
Ga3 O3 O2 116.1(3) . 2_556
Ga2 O3 O2 41.3(2) . 2_556
La O3 O2 91.0(3) 4 2_556
O1 O3 O2 34.6(3) 1_545 2_556
O3 O3 O2 149.7(2) 1_554 2_556
O3 O3 O2 30.3(2) 1_556 2_556
O2 O3 O2 101.4(4) 3_554 2_556
Ga3 O3 O2 45.2(2) 1_656 2_556
O2 O3 O2 100.4(3) 4_444 2_556
O2 O3 O2 122.3(3) 2_565 2_556
La O3 O2 110.3(3) 4_444 2_556
O2 O3 O2 50.2(4) 3 2_556
O1 O3 O2 110.7(3) 2_565 2_556
Ga2 O3 O2 73.1(2) 2_566 2_556
O2 O3 O2 49.6(2) 4_445 2_556
O1 O3 O2 94.0(3) 1_544 2_556
O3 O3 O2 68.4(3) 4_445 2_556
O3 O3 O2 96.6(2) 3_455 2_556
Ga2 O3 O2 128.3(3) 1_664 2_556
O2 O3 O2 59.9(4) 6_556 2_556
O2 O3 O2 64.1(2) 5_445 2_556
La O3 O2 74.8(3) 2_455 2_556
O2 O3 O2 64.3(3) 6_545 2_556
Ga3 O3 O1 47.9(3) 4_445 2_454
Nb O3 O1 157.7(5) . 2_454
Ga1 O3 O1 157.7(5) . 2_454
La O3 O1 96.6(3) . 2_454
Ga3 O3 O1 86.0(3) 2_564 2_454
O2 O3 O1 93.1(4) 6 2_454
O3 O3 O1 153.47(15) 6 2_454
O3 O3 O1 47.7(4) 6_554 2_454
O3 O3 O1 111.7(3) 3 2_454
O3 O3 O1 122.7(2) 4 2_454
O2 O3 O1 75.3(4) 2 2_454
O2 O3 O1 14.5(4) 1_554 2_454
O1 O3 O1 63.0(3) 2_455 2_454
O2 O3 O1 114.6(4) . 2_454
O3 O3 O1 141.0(3) 2 2_454
Ga2 O3 O1 32.00(17) 1_554 2_454
O3 O3 O1 59.0(4) 2_554 2_454
Ga3 O3 O1 98.7(3) 1_655 2_454
La O3 O1 82.9(2) 4_445 2_454
Ga2 O3 O1 71.70(19) 2_565 2_454
O2 O3 O1 69.6(3) 5_455 2_454
O3 O3 O1 161.4(5) 5 2_454
O3 O3 O1 82.5(4) 5_554 2_454
Ga3 O3 O1 139.3(3) 4_446 2_454
Nb O3 O1 54.85(17) 1_554 2_454
Ga1 O3 O1 54.85(17) 1_554 2_454
O1 O3 O1 110.4(3) . 2_454
O2 O3 O1 85.1(3) 4_554 2_454
La O3 O1 25.28(9) 1_554 2_454
Ga3 O3 O1 159.3(3) 2_565 2_454
O2 O3 O1 30.0(2) 3_454 2_454
La O3 O1 112.3(3) 2 2_454
O2 O3 O1 146.8(4) 4 2_454
O2 O3 O1 96.4(3) 3_455 2_454
La O3 O1 116.8(3) 2_565 2_454
Ga2 O3 O1 68.09(16) 2 2_454
O2 O3 O1 118.1(3) 5 2_454
O1 O3 O1 55.56(17) 1_554 2_454
Ga3 O3 O1 51.52(13) . 2_454
Ga2 O3 O1 105.9(2) . 2_454
La O3 O1 136.9(3) 4 2_454
O1 O3 O1 102.3(3) 1_545 2_454
O3 O3 O1 33.51(16) 1_554 2_454
O3 O3 O1 146.49(16) 1_556 2_454
O2 O3 O1 88.5(3) 3_554 2_454
Ga3 O3 O1 161.0(3) 1_656 2_454
O2 O3 O1 30.6(2) 4_444 2_454
O2 O3 O1 87.3(3) 2_565 2_454
La O3 O1 26.46(6) 4_444 2_454
O2 O3 O1 141.0(3) 3 2_454
O1 O3 O1 119.4(3) 2_565 2_454
Ga2 O3 O1 123.7(2) 2_566 2_454
O2 O3 O1 87.9(2) 4_445 2_454
O1 O3 O1 53.30(15) 1_544 2_454
O3 O3 O1 61.43(13) 4_445 2_454
O3 O3 O1 61.43(13) 3_455 2_454
Ga2 O3 O1 101.9(2) 1_664 2_454
O2 O3 O1 143.2(3) 6_556 2_454
O2 O3 O1 70.4(2) 5_445 2_454
La O3 O1 69.38(17) 2_455 2_454
O2 O3 O1 86.7(2) 6_545 2_454
O2 O3 O1 129.7(3) 2_556 2_454
Ga3 O3 La 18.7(3) 4_445 2_554
Nb O3 La 95.6(4) . 2_554
Ga1 O3 La 95.6(4) . 2_554
La O3 La 156.7(4) . 2_554
Ga3 O3 La 83.8(3) 2_564 2_554
O2 O3 La 122.2(5) 6 2_554
O3 O3 La 143.4(3) 6 2_554
O3 O3 La 60.7(4) 6_554 2_554
O3 O3 La 49.1(3) 3 2_554
O3 O3 La 87.2(3) 4 2_554
O2 O3 La 46.6(4) 2 2_554
O2 O3 La 53.0(3) 1_554 2_554
O1 O3 La 106.0(4) 2_455 2_554
O2 O3 La 121.0(4) . 2_554
O3 O3 La 92.6(5) 2 2_554
Ga2 O3 La 84.1(2) 1_554 2_554
O3 O3 La 10.1(3) 2_554 2_554
Ga3 O3 La 44.11(13) 1_655 2_554
La O3 La 85.8(2) 4_445 2_554
Ga2 O3 La 118.0(3) 2_565 2_554
O2 O3 La 130.2(4) 5_455 2_554
O3 O3 La 102.2(3) 5 2_554
O3 O3 La 49.2(2) 5_554 2_554
Ga3 O3 La 116.0(3) 4_446 2_554
Nb O3 La 38.05(10) 1_554 2_554
Ga1 O3 La 38.05(10) 1_554 2_554
O1 O3 La 163.5(4) . 2_554
O2 O3 La 83.4(3) 4_554 2_554
La O3 La 72.94(17) 1_554 2_554
Ga3 O3 La 137.6(3) 2_565 2_554
O2 O3 La 92.5(3) 3_454 2_554
La O3 La 59.64(15) 2 2_554
O2 O3 La 130.1(4) 4 2_554
O2 O3 La 143.9(4) 3_455 2_554
La O3 La 134.6(3) 2_565 2_554
Ga2 O3 La 38.91(10) 2 2_554
O2 O3 La 63.8(2) 5 2_554
O1 O3 La 97.7(3) 1_554 2_554
Ga3 O3 La 114.0(2) . 2_554
Ga2 O3 La 130.5(3) . 2_554
La O3 La 96.45(19) 4 2_554
O1 O3 La 74.4(2) 1_545 2_554
O3 O3 La 46.77(15) 1_554 2_554
O3 O3 La 133.23(15) 1_556 2_554
O2 O3 La 29.5(2) 3_554 2_554
Ga3 O3 La 99.7(2) 1_656 2_554
O2 O3 La 75.0(3) 4_444 2_554
O2 O3 La 131.1(3) 2_565 2_554
La O3 La 44.30(10) 4_444 2_554
O2 O3 La 79.7(2) 3 2_554
O1 O3 La 108.5(3) 2_565 2_554
Ga2 O3 La 172.6(3) 2_566 2_554
O2 O3 La 113.7(4) 4_445 2_554
O1 O3 La 26.42(10) 1_544 2_554
O3 O3 La 79.7(3) 4_445 2_554
O3 O3 La 121.53(19) 3_455 2_554
Ga2 O3 La 94.9(2) 1_664 2_554
O2 O3 La 154.2(3) 6_556 2_554
O2 O3 La 57.6(2) 5_445 2_554
La O3 La 116.0(2) 2_455 2_554
O2 O3 La 42.5(2) 6_545 2_554
O2 O3 La 106.4(3) 2_556 2_554
O1 O3 La 62.54(14) 2_454 2_554
Ga3 O3 O3 33.1(3) 4_445 3_554
Nb O3 O3 102.5(5) . 3_554
Ga1 O3 O3 102.5(5) . 3_554
La O3 O3 148.6(4) . 3_554
Ga3 O3 O3 61.5(2) 2_564 3_554
O2 O3 O3 98.2(5) 6 3_554
O3 O3 O3 148.8(5) 6 3_554
O3 O3 O3 37.3(3) 6_554 3_554
O3 O3 O3 61.89(18) 3 3_554
O3 O3 O3 76.37(8) 4 3_554
O2 O3 O3 69.9(4) 2 3_554
O2 O3 O3 52.7(4) 1_554 3_554
O1 O3 O3 114.4(5) 2_455 3_554
O2 O3 O3 144.7(5) . 3_554
O3 O3 O3 111.9(5) 2 3_554
Ga2 O3 O3 85.5(3) 1_554 3_554
O3 O3 O3 14.1(2) 2_554 3_554
Ga3 O3 O3 42.9(2) 1_655 3_554
La O3 O3 106.9(4) 4_445 3_554
Ga2 O3 O3 95.1(2) 2_565 3_554
O2 O3 O3 112.8(3) 5_455 3_554
O3 O3 O3 105.8(5) 5 3_554
O3 O3 O3 32.6(3) 5_554 3_554
Ga3 O3 O3 138.0(4) 4_446 3_554
Nb O3 O3 13.90(8) 1_554 3_554
Ga1 O3 O3 13.90(8) 1_554 3_554
O1 O3 O3 139.3(4) . 3_554
O2 O3 O3 61.0(3) 4_554 3_554
La O3 O3 56.13(12) 1_554 3_554
Ga3 O3 O3 138.7(4) 2_565 3_554
O2 O3 O3 83.7(3) 3_454 3_554
La O3 O3 81.0(3) 2 3_554
O2 O3 O3 120.7(4) 4 3_554
O2 O3 O3 152.0(4) 3_455 3_554
La O3 O3 113.6(3) 2_565 3_554
Ga2 O3 O3 61.6(2) 2 3_554
O2 O3 O3 62.5(3) 5 3_554
O1 O3 O3 75.4(2) 1_554 3_554
Ga3 O3 O3 102.2(2) . 3_554
Ga2 O3 O3 151.0(4) . 3_554
La O3 O3 89.1(3) 4 3_554
O1 O3 O3 98.6(3) 1_545 3_554
O3 O3 O3 28.11(18) 1_554 3_554
O3 O3 O3 151.89(18) 1_556 3_554
O2 O3 O3 34.6(3) 3_554 3_554
Ga3 O3 O3 110.9(3) 1_656 3_554
O2 O3 O3 79.3(3) 4_444 3_554
O2 O3 O3 107.2(3) 2_565 3_554
La O3 O3 49.8(2) 4_444 3_554
O2 O3 O3 93.3(3) 3 3_554
O1 O3 O3 91.4(3) 2_565 3_554
Ga2 O3 O3 153.7(4) 2_566 3_554
O2 O3 O3 131.2(4) 4_445 3_554
O1 O3 O3 45.4(2) 1_544 3_554
O3 O3 O3 95.6(4) 4_445 3_554
O3 O3 O3 116.6(2) 3_455 3_554
Ga2 O3 O3 74.9(2) 1_664 3_554
O2 O3 O3 152.9(4) 6_556 3_554
O2 O3 O3 79.2(3) 5_445 3_554
La O3 O3 123.0(3) 2_455 3_554
O2 O3 O3 66.6(3) 6_545 3_554
O2 O3 O3 129.7(4) 2_556 3_554
O1 O3 O3 55.8(2) 2_454 3_554
La O3 O3 24.15(16) 2_554 3_554
Ga3 O3 O3 116.0(6) 4_445 3_556
Nb O3 O3 30.4(3) . 3_556
Ga1 O3 O3 30.4(3) . 3_556
La O3 O3 87.6(3) . 3_556
Ga3 O3 O3 116.1(4) 2_564 3_556
O2 O3 O3 110.5(4) 6 3_556
O3 O3 O3 38.5(4) 6 3_556
O3 O3 O3 149.6(5) 6_554 3_556
O3 O3 O3 61.89(18) 3 3_556
O3 O3 O3 76.37(8) 4 3_556
O2 O3 O3 81.9(6) 2 3_556
O2 O3 O3 141.8(6) 1_554 3_556
O1 O3 O3 102.3(5) 2_455 3_556
O2 O3 O3 49.2(4) . 3_556
O3 O3 O3 16.2(3) 2 3_556
Ga2 O3 O3 130.7(5) 1_554 3_556
O3 O3 O3 114.5(6) 2_554 3_556
Ga3 O3 O3 84.8(3) 1_655 3_556
La O3 O3 73.8(3) 4_445 3_556
Ga2 O3 O3 129.5(3) 2_565 3_556
O2 O3 O3 122.2(3) 5_455 3_556
O3 O3 O3 34.8(3) 5 3_556
O3 O3 O3 108.3(5) 5_554 3_556
Ga3 O3 O3 21.86(15) 4_446 3_556
Nb O3 O3 131.6(3) 1_554 3_556
Ga1 O3 O3 131.6(3) 1_554 3_556
O1 O3 O3 84.9(3) . 3_556
O2 O3 O3 117.1(4) 4_554 3_556
La O3 O3 179.3(5) 1_554 3_556
Ga3 O3 O3 39.33(9) 2_565 3_556
O2 O3 O3 148.0(4) 3_454 3_556
La O3 O3 49.1(2) 2 3_556
O2 O3 O3 57.4(2) 4 3_556
O2 O3 O3 79.4(3) 3_455 3_556
La O3 O3 86.7(2) 2_565 3_556
Ga2 O3 O3 89.9(3) 2 3_556
O2 O3 O3 69.9(3) 5 3_556
O1 O3 O3 148.0(4) 1_554 3_556
Ga3 O3 O3 133.7(3) . 3_556
Ga2 O3 O3 62.3(2) . 3_556
La O3 O3 63.26(19) 4 3_556
O1 O3 O3 53.3(3) 1_545 3_556
O3 O3 O3 151.89(18) 1_554 3_556
O3 O3 O3 28.11(18) 1_556 3_556
O2 O3 O3 89.4(3) 3_554 3_556
Ga3 O3 O3 18.12(14) 1_656 3_556
O2 O3 O3 127.9(5) 4_444 3_556
O2 O3 O3 113.6(3) 2_565 3_556
La O3 O3 130.9(4) 4_444 3_556
O2 O3 O3 30.7(2) 3 3_556
O1 O3 O3 84.7(3) 2_565 3_556
Ga2 O3 O3 68.78(13) 2_566 3_556
O2 O3 O3 75.7(3) 4_445 3_556
O1 O3 O3 107.0(4) 1_544 3_556
O3 O3 O3 95.6(4) 4_445 3_556
O3 O3 O3 116.6(2) 3_455 3_556
Ga2 O3 O3 101.2(3) 1_664 3_556
O2 O3 O3 49.9(2) 6_556 3_556
O2 O3 O3 85.2(4) 5_445 3_556
La O3 O3 99.3(3) 2_455 3_556
O2 O3 O3 73.0(3) 6_545 3_556
O2 O3 O3 27.8(3) 2_556 3_556
O1 O3 O3 155.4(4) 2_454 3_556
La O3 O3 107.2(3) 2_554 3_556
O3 O3 O3 123.8(4) 3_554 3_556
Ga3 O3 O3 59.0(3) 4_445 4_554
Nb O3 O3 102.5(5) . 4_554
Ga1 O3 O3 102.5(5) . 4_554
La O3 O3 129.9(6) . 4_554
Ga3 O3 O3 35.3(3) 2_564 4_554
O2 O3 O3 71.1(5) 6 4_554
O3 O3 O3 133.6(8) 6 4_554
O3 O3 O3 18.5(3) 6_554 4_554
O3 O3 O3 76.37(8) 3 4_554
O3 O3 O3 61.89(18) 4 4_554
O2 O3 O3 97.2(4) 2 4_554
O2 O3 O3 65.6(4) 1_554 4_554
O1 O3 O3 123.9(4) 2_455 4_554
O2 O3 O3 171.9(5) . 4_554
O3 O3 O3 127.0(5) 2 4_554
Ga2 O3 O3 93.1(3) 1_554 4_554
O3 O3 O3 41.1(3) 2_554 4_554
Ga3 O3 O3 48.85(19) 1_655 4_554
La O3 O3 132.4(3) 4_445 4_554
Ga2 O3 O3 71.4(3) 2_565 4_554
O2 O3 O3 94.5(4) 5_455 4_554
O3 O3 O3 101.3(5) 5 4_554
O3 O3 O3 23.6(3) 5_554 4_554
Ga3 O3 O3 153.2(3) 4_446 4_554
Nb O3 O3 13.90(8) 1_554 4_554
Ga1 O3 O3 13.90(8) 1_554 4_554
O1 O3 O3 112.4(5) . 4_554
O2 O3 O3 34.6(3) 4_554 4_554
La O3 O3 47.70(19) 1_554 4_554
Ga3 O3 O3 123.5(4) 2_565 4_554
O2 O3 O3 80.2(3) 3_454 4_554
La O3 O3 102.6(3) 2 4_554
O2 O3 O3 100.9(4) 4 4_554
O2 O3 O3 145.7(4) 3_455 4_554
La O3 O3 87.1(4) 2_565 4_554
Ga2 O3 O3 88.7(2) 2 4_554
O2 O3 O3 61.9(3) 5 4_554
O1 O3 O3 54.0(3) 1_554 4_554
Ga3 O3 O3 91.6(3) . 4_554
Ga2 O3 O3 165.9(3) . 4_554
La O3 O3 76.1(3) 4 4_554
O1 O3 O3 125.1(3) 1_545 4_554
O3 O3 O3 28.11(18) 1_554 4_554
O3 O3 O3 151.89(18) 1_556 4_554
O2 O3 O3 49.9(2) 3_554 4_554
Ga3 O3 O3 114.2(3) 1_656 4_554
O2 O3 O3 91.1(3) 4_444 4_554
O2 O3 O3 81.2(4) 2_565 4_554
La O3 O3 68.13(13) 4_444 4_554
O2 O3 O3 103.2(3) 3 4_554
O1 O3 O3 68.6(3) 2_565 4_554
Ga2 O3 O3 126.6(4) 2_566 4_554
O2 O3 O3 149.0(3) 4_445 4_554
O1 O3 O3 71.8(2) 1_544 4_554
O3 O3 O3 116.6(2) 4_445 4_554
O3 O3 O3 110.5(3) 3_455 4_554
Ga2 O3 O3 50.4(2) 1_664 4_554
O2 O3 O3 131.1(4) 6_556 4_554
O2 O3 O3 105.7(3) 5_445 4_554
La O3 O3 128.6(3) 2_455 4_554
O2 O3 O3 93.0(3) 6_545 4_554
O2 O3 O3 151.2(4) 2_556 4_554
O1 O3 O3 61.26(17) 2_454 4_554
La O3 O3 51.13(14) 2_554 4_554
O3 O3 O3 27.25(16) 3_554 4_554
O3 O3 O3 131.8(3) 3_556 4_554
Ga3 O3 O3 139.5(6) 4_445 4_556
Nb O3 O3 30.4(3) . 4_556
Ga1 O3 O3 30.4(3) . 4_556
La O3 O3 75.3(3) . 4_556
Ga3 O3 O3 95.8(4) 2_564 4_556
O2 O3 O3 83.3(5) 6 4_556
O3 O3 O3 18.4(2) 6 4_556
O3 O3 O3 135.2(7) 6_554 4_556
O3 O3 O3 76.37(8) 3 4_556
O3 O3 O3 61.89(18) 4 4_556
O2 O3 O3 109.1(5) 2 4_556
O2 O3 O3 168.3(6) 1_554 4_556
O1 O3 O3 111.0(4) 2_455 4_556
O2 O3 O3 61.3(3) . 4_556
O3 O3 O3 43.0(3) 2 4_556
Ga2 O3 O3 141.7(3) 1_554 4_556
O3 O3 O3 129.1(6) 2_554 4_556
Ga3 O3 O3 89.1(3) 1_655 4_556
La O3 O3 96.0(2) 4_445 4_556
Ga2 O3 O3 103.2(4) 2_565 4_556
O2 O3 O3 102.9(4) 5_455 4_556
O3 O3 O3 26.0(4) 5 4_556
O3 O3 O3 103.8(5) 5_554 4_556
Ga3 O3 O3 38.87(8) 4_446 4_556
Nb O3 O3 131.6(3) 1_554 4_556
Ga1 O3 O3 131.6(3) 1_554 4_556
O1 O3 O3 62.2(3) . 4_556
O2 O3 O3 96.8(4) 4_554 4_556
La O3 O3 152.2(4) 1_554 4_556
Ga3 O3 O3 13.38(15) 2_565 4_556
O2 O3 O3 141.9(4) 3_454 4_556
La O3 O3 73.7(2) 2 4_556
O2 O3 O3 30.7(2) 4 4_556
O2 O3 O3 76.1(3) 3_455 4_556
La O3 O3 59.4(2) 2_565 4_556
Ga2 O3 O3 116.8(3) 2 4_556
O2 O3 O3 69.4(3) 5 4_556
O1 O3 O3 120.8(4) 1_554 4_556
Ga3 O3 O3 120.5(3) . 4_556
Ga2 O3 O3 68.26(14) . 4_556
La O3 O3 47.6(2) 4 4_556
O1 O3 O3 80.1(3) 1_545 4_556
O3 O3 O3 151.89(18) 1_554 4_556
O3 O3 O3 28.11(18) 1_556 4_556
O2 O3 O3 99.6(4) 3_554 4_556
Ga3 O3 O3 26.29(16) 1_656 4_556
O2 O3 O3 145.1(4) 4_444 4_556
O2 O3 O3 87.3(3) 2_565 4_556
La O3 O3 158.1(4) 4_444 4_556
O2 O3 O3 46.5(3) 3 4_556
O1 O3 O3 61.2(3) 2_565 4_556
Ga2 O3 O3 48.4(2) 2_566 4_556
O2 O3 O3 87.2(2) 4_445 4_556
O1 O3 O3 132.9(4) 1_544 4_556
O3 O3 O3 116.6(2) 4_445 4_556
O3 O3 O3 110.5(3) 3_455 4_556
Ga2 O3 O3 79.5(3) 1_664 4_556
O2 O3 O3 28.7(2) 6_556 4_556
O2 O3 O3 111.9(3) 5_445 4_556
La O3 O3 103.9(2) 2_455 4_556
O2 O3 O3 99.0(3) 6_545 4_556
O2 O3 O3 49.7(2) 2_556 4_556
O1 O3 O3 171.9(3) 2_454 4_556
La O3 O3 125.5(3) 2_554 4_556
O3 O3 O3 131.8(3) 3_554 4_556
O3 O3 O3 27.25(16) 3_556 4_556
O3 O3 O3 123.8(4) 4_554 4_556
Ga3 O3 La 91.8(5) 4_445 2_564
Nb O3 La 108.5(5) . 2_564
Ga1 O3 La 108.5(5) . 2_564
La O3 La 94.0(4) . 2_564
Ga3 O3 La 21.98(18) 2_564 2_564
O2 O3 La 35.1(4) 6 2_564
O3 O3 La 109.3(7) 6 2_564
O3 O3 La 29.8(5) 6_554 2_564
O3 O3 La 106.6(4) 3 2_564
O3 O3 La 62.3(4) 4 2_564
O2 O3 La 132.0(4) 2 2_564
O2 O3 La 80.8(5) 1_554 2_564
O1 O3 La 113.8(4) 2_455 2_564
O2 O3 La 149.7(4) . 2_564
O3 O3 La 144.34(13) 2 2_564
Ga2 O3 La 91.8(3) 1_554 2_564
O3 O3 La 77.9(4) 2_554 2_564
Ga3 O3 La 77.6(3) 1_655 2_564
La O3 La 150.7(3) 4_445 2_564
Ga2 O3 La 35.58(14) 2_565 2_564
O2 O3 La 62.0(3) 5_455 2_564
O3 O3 La 101.7(3) 5 2_564
O3 O3 La 51.49(16) 5_554 2_564
Ga3 O3 La 148.4(3) 4_446 2_564
Nb O3 La 49.92(17) 1_554 2_564
Ga1 O3 La 49.92(17) 1_554 2_564
O1 O3 La 75.5(3) . 2_564
O2 O3 La 21.2(2) 4_554 2_564
La O3 La 44.06(14) 1_554 2_564
Ga3 O3 La 102.6(3) 2_565 2_564
O2 O3 La 68.6(3) 3_454 2_564
La O3 La 136.6(3) 2 2_564
O2 O3 La 80.4(3) 4 2_564
O2 O3 La 112.6(3) 3_455 2_564
La O3 La 55.82(17) 2_565 2_564
Ga2 O3 La 123.0(2) 2 2_564
O2 O3 La 80.7(3) 5 2_564
O1 O3 La 24.60(10) 1_554 2_564
Ga3 O3 La 67.79(18) . 2_564
Ga2 O3 La 135.3(3) . 2_564
La O3 La 73.5(2) 4 2_564
O1 O3 La 162.4(3) 1_545 2_564
O3 O3 La 49.27(12) 1_554 2_564
O3 O3 La 130.73(12) 1_556 2_564
O2 O3 La 84.3(2) 3_554 2_564
Ga3 O3 La 120.0(3) 1_656 2_564
O2 O3 La 96.5(3) 4_444 2_564
O2 O3 La 43.83(18) 2_565 2_564
La O3 La 89.48(19) 4_444 2_564
O2 O3 La 122.1(3) 3 2_564
O1 O3 La 50.6(2) 2_565 2_564
Ga2 O3 La 90.9(2) 2_566 2_564
O2 O3 La 136.8(3) 4_445 2_564
O1 O3 La 104.5(3) 1_544 2_564
O3 O3 La 128.89(17) 4_445 2_564
O3 O3 La 86.9(3) 3_455 2_564
Ga2 O3 La 34.43(10) 1_664 2_564
O2 O3 La 101.5(3) 6_556 2_564
O2 O3 La 135.6(3) 5_445 2_564
La O3 La 111.6(2) 2_455 2_564
O2 O3 La 130.3(3) 6_545 2_564
O2 O3 La 160.2(3) 2_556 2_564
O1 O3 La 68.84(16) 2_454 2_564
La O3 La 87.98(18) 2_554 2_564
O3 O3 La 63.83(16) 3_554 2_564
O3 O3 La 135.2(3) 3_556 2_564
O3 O3 La 37.4(2) 4_554 2_564
O3 O3 La 110.9(3) 4_556 2_564
Ga3 O3 O2 70.1(5) 4_445 6_554
Nb O3 O2 124.0(5) . 6_554
Ga1 O3 O2 124.0(5) . 6_554
La O3 O2 104.0(4) . 6_554
Ga3 O3 O2 38.7(2) 2_564 6_554
O2 O3 O2 56.7(4) 6 6_554
O3 O3 O2 132.5(8) 6 6_554
O3 O3 O2 10.1(3) 6_554 6_554
O3 O3 O2 103.6(2) 3 6_554
O3 O3 O2 77.8(4) 4 6_554
O2 O3 O2 110.0(5) 2 6_554
O2 O3 O2 58.1(6) 1_554 6_554
O1 O3 O2 103.0(4) 2_455 6_554
O2 O3 O2 154.7(5) . 6_554
O3 O3 O2 154.1(4) 2 6_554
Ga2 O3 O2 75.1(3) 1_554 6_554
O3 O3 O2 60.6(4) 2_554 6_554
Ga3 O3 O2 76.0(3) 1_655 6_554
La O3 O2 130.2(3) 4_445 6_554
Ga2 O3 O2 47.9(2) 2_565 6_554
O2 O3 O2 67.8(4) 5_455 6_554
O3 O3 O2 119.5(4) 5 6_554
O3 O3 O2 49.8(3) 5_554 6_554
Ga3 O3 O2 171.8(4) 4_446 6_554
Nb O3 O2 34.55(19) 1_554 6_554
Ga1 O3 O2 34.55(19) 1_554 6_554
O1 O3 O2 93.8(4) . 6_554
O2 O3 O2 37.8(3) 4_554 6_554
La O3 O2 25.15(18) 1_554 6_554
Ga3 O3 O2 126.0(4) 2_565 6_554
O2 O3 O2 56.3(2) 3_454 6_554
La O3 O2 128.0(3) 2 6_554
O2 O3 O2 103.6(4) 4 6_554
O2 O3 O2 118.3(3) 3_455 6_554
La O3 O2 78.9(3) 2_565 6_554
Ga2 O3 O2 101.0(3) 2 6_554
O2 O3 O2 86.9(3) 5 6_554
O1 O3 O2 28.2(3) 1_554 6_554
Ga3 O3 O2 64.5(2) . 6_554
Ga2 O3 O2 139.5(3) . 6_554
La O3 O2 91.2(3) 4 6_554
O1 O3 O2 141.6(4) 1_545 6_554
O3 O3 O2 26.6(2) 1_554 6_554
O3 O3 O2 153.4(2) 1_556 6_554
O2 O3 O2 76.7(3) 3_554 6_554
Ga3 O3 O2 136.3(3) 1_656 6_554
O2 O3 O2 77.2(3) 4_444 6_554
O2 O3 O2 61.1(3) 2_565 6_554
La O3 O2 66.1(2) 4_444 6_554
O2 O3 O2 129.7(3) 3 6_554
O1 O3 O2 72.5(3) 2_565 6_554
Ga2 O3 O2 110.4(3) 2_566 6_554
O2 O3 O2 129.5(2) 4_445 6_554
O1 O3 O2 82.3(3) 1_544 6_554
O3 O3 O2 108.82(19) 4_445 6_554
O3 O3 O2 83.9(2) 3_455 6_554
Ga2 O3 O2 54.5(2) 1_664 6_554
O2 O3 O2 123.9(5) 6_556 6_554
O2 O3 O2 112.2(3) 5_445 6_554
La O3 O2 104.8(2) 2_455 6_554
O2 O3 O2 112.2(3) 6_545 6_554
O2 O3 O2 176.2(3) 2_556 6_554
O1 O3 O2 47.4(2) 2_454 6_554
La O3 O2 70.3(2) 2_554 6_554
O3 O3 O2 47.3(2) 3_554 6_554
O3 O3 O2 154.2(4) 3_556 6_554
O3 O3 O2 27.3(2) 4_554 6_554
O3 O3 O2 133.6(4) 4_556 6_554
La O3 O2 23.43(18) 2_564 6_554
Ga3 O3 O1 64.1(4) 4_445 2
Nb O3 O1 47.7(3) . 2
Ga1 O3 O1 47.7(3) . 2
La O3 O1 145.7(5) . 2
Ga3 O3 O1 95.1(3) 2_564 2
O2 O3 O1 128.4(4) 6 2
O3 O3 O1 93.4(3) 6 2
O3 O3 O1 99.5(2) 6_554 2
O3 O3 O1 7.3(4) 3 2
O3 O3 O1 66.4(4) 4 2
O2 O3 O1 53.3(5) 2 2
O2 O3 O1 100.0(4) 1_554 2
O1 O3 O1 124.7(4) 2_455 2
O2 O3 O1 93.5(4) . 2
O3 O3 O1 46.6(4) 2 2
Ga2 O3 O1 123.6(3) 1_554 2
O3 O3 O1 56.1(5) 2_554 2
Ga3 O3 O1 36.0(2) 1_655 2
La O3 O1 83.5(3) 4_445 2
Ga2 O3 O1 147.7(3) 2_565 2
O2 O3 O1 175.0(4) 5_455 2
O3 O3 O1 56.1(2) 5 2
O3 O3 O1 62.6(2) 5_554 2
Ga3 O3 O1 73.7(3) 4_446 2
Nb O3 O1 75.8(3) 1_554 2
Ga1 O3 O1 75.8(3) 1_554 2
O1 O3 O1 137.1(3) . 2
O2 O3 O1 95.4(4) 4_554 2
La O3 O1 121.4(3) 1_554 2
Ga3 O3 O1 88.9(2) 2_565 2
O2 O3 O1 140.9(4) 3_454 2
La O3 O1 23.25(12) 2 2
O2 O3 O1 91.3(3) 4 2
O2 O3 O1 131.9(4) 3_455 2
La O3 O1 116.4(2) 2_565 2
Ga2 O3 O1 54.72(16) 2 2
O2 O3 O1 38.1(2) 5 2
O1 O3 O1 135.8(3) 1_554 2
Ga3 O3 O1 162.6(3) . 2
Ga2 O3 O1 109.3(3) . 2
La O3 O1 65.64(14) 4 2
O1 O3 O1 54.23(18) 1_545 2
O3 O3 O1 93.5(2) 1_554 2
O3 O3 O1 86.5(2) 1_556 2
O2 O3 O1 32.7(2) 3_554 2
Ga3 O3 O1 49.84(19) 1_656 2
O2 O3 O1 113.1(4) 4_444 2
O2 O3 O1 144.2(3) 2_565 2
La O3 O1 88.8(2) 4_444 2
O2 O3 O1 29.7(2) 3 2
O1 O3 O1 91.99(18) 2_565 2
Ga2 O3 O1 124.4(3) 2_566 2
O2 O3 O1 108.7(3) 4_445 2
O1 O3 O1 61.6(2) 1_544 2
O3 O3 O1 95.5(4) 4_445 2
O3 O3 O1 155.3(4) 3_455 2
Ga2 O3 O1 93.06(18) 1_664 2
O2 O3 O1 104.6(3) 6_556 2
O2 O3 O1 67.1(2) 5_445 2
La O3 O1 131.3(3) 2_455 2
O2 O3 O1 37.11(18) 6_545 2
O2 O3 O1 68.9(3) 2_556 2
O1 O3 O1 111.8(3) 2_454 2
La O3 O1 50.0(2) 2_554 2
O3 O3 O1 65.6(3) 3_554 2
O3 O3 O1 58.6(3) 3_556 2
O3 O3 O1 82.3(3) 4_554 2
O3 O3 O1 76.0(3) 4_556 2
La O3 O1 113.6(2) 2_564 2
O2 O3 O1 109.3(3) 6_554 2
Ga3 O3 La 137.9(5) 4_445 4_455
Nb O3 La 109.4(4) . 4_455
Ga1 O3 La 109.4(4) . 4_455
La O3 La 28.2(3) . 4_455
Ga3 O3 La 78.3(3) 2_564 4_455
O2 O3 La 38.5(4) 6 4_455
O3 O3 La 66.5(3) 6 4_455
O3 O3 La 89.4(4) 6_554 4_455
O3 O3 La 153.5(6) 3 4_455
O3 O3 La 95.8(6) 4 4_455
O2 O3 La 145.4(5) 2 4_455
O2 O3 La 102.7(4) 1_554 4_455
O1 O3 La 71.2(2) 2_455 4_455
O2 O3 La 83.7(3) . 4_455
O3 O3 La 119.1(5) 2 4_455
Ga2 O3 La 79.0(2) 1_554 4_455
O3 O3 La 139.5(6) 2_554 4_455
Ga3 O3 La 136.6(4) 1_655 4_455
La O3 La 107.6(2) 4_445 4_455
Ga2 O3 La 31.79(11) 2_565 4_455
O2 O3 La 20.6(2) 5_455 4_455
O3 O3 La 100.8(2) 5 4_455
O3 O3 La 115.50(15) 5_554 4_455
Ga3 O3 La 95.0(2) 4_446 4_455
Nb O3 La 113.6(3) 1_554 4_455
Ga1 O3 La 113.6(3) 1_554 4_455
O1 O3 La 20.4(2) . 4_455
O2 O3 La 78.3(4) 4_554 4_455
La O3 La 75.58(19) 1_554 4_455
Ga3 O3 La 69.36(17) 2_565 4_455
O2 O3 La 61.9(3) 3_454 4_455
La O3 La 152.0(3) 2 4_455
O2 O3 La 65.7(3) 4 4_455
O2 O3 La 47.9(2) 3_455 4_455
La O3 La 42.73(11) 2_565 4_455
Ga2 O3 La 146.6(3) 2 4_455
O2 O3 La 125.0(3) 5 4_455
O1 O3 La 51.29(19) 1_554 4_455
Ga3 O3 La 40.49(10) . 4_455
Ga2 O3 La 69.68(15) . 4_455
La O3 La 93.4(2) 4 4_455
O1 O3 La 130.5(3) 1_545 4_455
O3 O3 La 101.51(13) 1_554 4_455
O3 O3 La 78.49(13) 1_556 4_455
O2 O3 La 148.6(3) 3_554 4_455
Ga3 O3 La 108.9(2) 1_656 4_455
O2 O3 La 89.5(3) 4_444 4_455
O2 O3 La 23.51(18) 2_565 4_455
La O3 La 114.2(2) 4_444 4_455
O2 O3 La 129.0(3) 3 4_455
O1 O3 La 69.75(18) 2_565 4_455
Ga2 O3 La 35.48(8) 2_566 4_455
O2 O3 La 78.5(3) 4_445 4_455
O1 O3 La 141.5(2) 1_544 4_455
O3 O3 La 101.9(2) 4_445 4_455
O3 O3 La 43.4(2) 3_455 4_455
Ga2 O3 La 74.28(18) 1_664 4_455
O2 O3 La 55.0(2) 6_556 4_455
O2 O3 La 130.7(3) 5_445 4_455
La O3 La 62.43(12) 2_455 4_455
O2 O3 La 159.7(3) 6_545 4_455
O2 O3 La 103.5(3) 2_556 4_455
O1 O3 La 90.02(19) 2_454 4_455
La O3 La 148.2(3) 2_554 4_455
O3 O3 La 126.7(3) 3_554 4_455
O3 O3 La 104.22(19) 3_556 4_455
O3 O3 La 102.9(4) 4_554 4_455
O3 O3 La 82.6(3) 4_556 4_455
La O3 La 66.08(16) 2_564 4_455
O2 O3 La 79.4(2) 6_554 4_455
O1 O3 La 156.9(3) 2 4_455
Ga3 O3 O2 16.9(4) 4_445 2_554
Nb O3 O2 122.4(5) . 2_554
Ga1 O3 O2 122.4(5) . 2_554
La O3 O2 131.6(4) . 2_554
Ga3 O3 O2 82.1(3) 2_564 2_554
O2 O3 O2 110.5(5) 6 2_554
O3 O3 O2 170.4(4) 6 2_554
O3 O3 O2 46.6(5) 6_554 2_554
O3 O3 O2 76.3(4) 3 2_554
O3 O3 O2 102.7(3) 4 2_554
O2 O3 O2 56.2(3) 2 2_554
O2 O3 O2 27.8(3) 1_554 2_554
O1 O3 O2 88.2(4) 2_455 2_554
O2 O3 O2 125.2(5) . 2_554
O3 O3 O2 116.4(5) 2 2_554
Ga2 O3 O2 60.7(2) 1_554 2_554
O3 O3 O2 24.2(3) 2_554 2_554
Ga3 O3 O2 66.1(3) 1_655 2_554
La O3 O2 85.4(2) 4_445 2_554
Ga2 O3 O2 97.2(3) 2_565 2_554
O2 O3 O2 103.6(4) 5_455 2_554
O3 O3 O2 128.2(4) 5 2_554
O3 O3 O2 58.9(3) 5_554 2_554
Ga3 O3 O2 134.1(4) 4_446 2_554
Nb O3 O2 34.2(2) 1_554 2_554
Ga1 O3 O2 34.2(2) 1_554 2_554
O1 O3 O2 142.8(4) . 2_554
O2 O3 O2 81.3(4) 4_554 2_554
La O3 O2 48.05(18) 1_554 2_554
Ga3 O3 O2 163.7(3) 2_565 2_554
O2 O3 O2 65.4(3) 3_454 2_554
La O3 O2 83.2(3) 2 2_554
O2 O3 O2 146.7(4) 4 2_554
O2 O3 O2 126.9(3) 3_455 2_554
La O3 O2 131.9(3) 2_565 2_554
Ga2 O3 O2 47.17(19) 2 2_554
O2 O3 O2 86.5(3) 5 2_554
O1 O3 O2 77.0(3) 1_554 2_554
Ga3 O3 O2 86.8(2) . 2_554
Ga2 O3 O2 126.1(3) . 2_554
La O3 O2 115.4(3) 4 2_554
O1 O3 O2 87.8(3) 1_545 2_554
O3 O3 O2 27.3(2) 1_554 2_554
O3 O3 O2 152.7(2) 1_556 2_554
O2 O3 O2 53.9(4) 3_554 2_554
Ga3 O3 O2 126.9(3) 1_656 2_554
O2 O3 O2 53.40(18) 4_444 2_554
O2 O3 O2 112.6(4) 2_565 2_554
La O3 O2 23.37(18) 4_444 2_554
O2 O3 O2 106.7(4) 3 2_554
O1 O3 O2 115.6(3) 2_565 2_554
Ga2 O3 O2 158.4(3) 2_566 2_554
O2 O3 O2 105.7(3) 4_445 2_554
O1 O3 O2 28.5(2) 1_544 2_554
O3 O3 O2 70.5(2) 4_445 2_554
O3 O3 O2 96.0(2) 3_455 2_554
Ga2 O3 O2 97.6(3) 1_664 2_554
O2 O3 O2 177.7(4) 6_556 2_554
O2 O3 O2 60.3(2) 5_445 2_554
La O3 O2 97.2(2) 2_455 2_554
O2 O3 O2 60.5(2) 6_545 2_554
O2 O3 O2 122.4(4) 2_556 2_554
O1 O3 O2 35.46(18) 2_454 2_554
La O3 O2 27.17(19) 2_554 2_554
O3 O3 O2 26.4(3) 3_554 2_554
O3 O3 O2 132.2(4) 3_556 2_554
O3 O3 O2 47.1(2) 4_554 2_554
O3 O3 O2 152.6(4) 4_556 2_554
La O3 O2 76.3(2) 2_564 2_554
O2 O3 O2 53.8(3) 6_554 2_554
O1 O3 O2 77.0(3) 2 2_554
La O3 O2 123.1(3) 4_455 2_554
Ga3 O3 La 75.0(4) 4_445 4_554
Nb O3 La 81.3(4) . 4_554
Ga1 O3 La 81.3(4) . 4_554
La O3 La 130.2(5) . 4_554
Ga3 O3 La 24.04(18) 2_564 4_554
O2 O3 La 64.5(4) 6 4_554
O3 O3 La 111.9(6) 6 4_554
O3 O3 La 38.1(3) 6_554 4_554
O3 O3 La 66.7(3) 3 4_554
O3 O3 La 39.03(11) 4 4_554
O2 O3 La 107.0(4) 2 4_554
O2 O3 La 88.2(5) 1_554 4_554
O1 O3 La 145.9(4) 2_455 4_554
O2 O3 La 160.7(4) . 4_554
O3 O3 La 111.4(3) 2 4_554
Ga2 O3 La 115.6(3) 1_554 4_554
O3 O3 La 53.13(16) 2_554 4_554
Ga3 O3 La 37.79(15) 1_655 4_554
La O3 La 147.2(3) 4_445 4_554
Ga2 O3 La 74.8(2) 2_565 4_554
O2 O3 La 101.9(4) 5_455 4_554
O3 O3 La 79.0(4) 5 4_554
O3 O3 La 13.37(13) 5_554 4_554
Ga3 O3 La 133.5(3) 4_446 4_554
Nb O3 La 33.08(11) 1_554 4_554
Ga1 O3 La 33.08(11) 1_554 4_554
O1 O3 La 103.9(3) . 4_554
O2 O3 La 24.0(3) 4_554 4_554
La O3 La 67.78(19) 1_554 4_554
Ga3 O3 La 101.5(2) 2_565 4_554
O2 O3 La 99.8(3) 3_454 4_554
La O3 La 96.8(2) 2 4_554
O2 O3 La 80.0(3) 4 4_554
O2 O3 La 150.1(4) 3_455 4_554
La O3 La 73.1(2) 2_565 4_554
Ga2 O3 La 100.2(2) 2 4_554
O2 O3 La 43.6(2) 5 4_554
O1 O3 La 63.4(2) 1_554 4_554
Ga3 O3 La 106.1(3) . 4_554
Ga2 O3 La 166.8(3) . 4_554
La O3 La 53.28(14) 4 4_554
O1 O3 La 126.3(2) 1_545 4_554
O3 O3 La 50.97(11) 1_554 4_554
O3 O3 La 129.03(11) 1_556 4_554
O2 O3 La 46.41(18) 3_554 4_554
Ga3 O3 La 93.54(19) 1_656 4_554
O2 O3 La 114.0(3) 4_444 4_554
O2 O3 La 78.8(2) 2_565 4_554
La O3 La 89.47(18) 4_444 4_554
O2 O3 La 86.7(2) 3 4_554
O1 O3 La 49.3(2) 2_565 4_554
Ga2 O3 La 113.6(3) 2_566 4_554
O2 O3 La 171.9(3) 4_445 4_554
O1 O3 La 86.7(2) 1_544 4_554
O3 O3 La 137.37(19) 4_445 4_554
O3 O3 La 125.7(3) 3_455 4_554
Ga2 O3 La 33.47(9) 1_664 4_554
O2 O3 La 111.8(3) 6_556 4_554
O2 O3 La 119.2(3) 5_445 4_554
La O3 La 148.4(3) 2_455 4_554
O2 O3 La 97.3(2) 6_545 4_554
O2 O3 La 136.8(3) 2_556 4_554
O1 O3 La 84.01(19) 2_454 4_554
La O3 La 61.55(12) 2_554 4_554
O3 O3 La 42.09(18) 3_554 4_554
O3 O3 La 111.6(3) 3_556 4_554
O3 O3 La 22.86(15) 4_554 4_554
O3 O3 La 100.9(3) 4_556 4_554
La O3 La 39.91(10) 2_564 4_554
O2 O3 La 43.65(17) 6_554 4_554
O1 O3 La 73.74(18) 2 4_554
La O3 La 102.3(2) 4_455 4_554
O2 O3 La 66.9(2) 2_554 4_554
Ga3 O3 O3 135.1(6) 4_445 5_455
Nb O3 O3 111.1(5) . 5_455
Ga1 O3 O3 111.1(5) . 5_455
La O3 O3 7.4(2) . 5_455
Ga3 O3 O3 101.0(3) 2_564 5_455
O2 O3 O3 61.0(3) 6 5_455
O3 O3 O3 62.5(2) 6 5_455
O3 O3 O3 106.7(3) 6_554 5_455
O3 O3 O3 156.3(2) 3 5_455
O3 O3 O3 113.9(6) 4 5_455
O2 O3 O3 124.7(5) 2 5_455
O2 O3 O3 100.0(4) 1_554 5_455
O1 O3 O3 52.6(3) 2_455 5_455
O2 O3 O3 62.9(4) . 5_455
O3 O3 O3 106.4(6) 2 5_455
Ga2 O3 O3 69.4(3) 1_554 5_455
O3 O3 O3 149.7(6) 2_554 5_455
Ga3 O3 O3 157.7(3) 1_655 5_455
La O3 O3 85.3(3) 4_445 5_455
Ga2 O3 O3 51.95(8) 2_565 5_455
O2 O3 O3 29.0(2) 5_455 5_455
O3 O3 O3 104.8(4) 5 5_455
O3 O3 O3 137.98(19) 5_554 5_455
Ga3 O3 O3 79.6(3) 4_446 5_455
Nb O3 O3 130.9(3) 1_554 5_455
Ga1 O3 O3 130.9(3) 1_554 5_455
O1 O3 O3 29.20(7) . 5_455
O2 O3 O3 100.9(3) 4_554 5_455
La O3 O3 85.4(2) 1_554 5_455
Ga3 O3 O3 69.3(2) 2_565 5_455
O2 O3 O3 61.1(3) 3_454 5_455
La O3 O3 134.6(4) 2 5_455
O2 O3 O3 75.1(3) 4 5_455
O2 O3 O3 25.5(3) 3_455 5_455
La O3 O3 60.60(8) 2_565 5_455
Ga2 O3 O3 128.4(3) 2 5_455
O2 O3 O3 141.1(4) 5 5_455
O1 O3 O3 68.87(19) 1_554 5_455
Ga3 O3 O3 40.37(14) . 5_455
Ga2 O3 O3 47.9(2) . 5_455
La O3 O3 107.7(2) 4 5_455
O1 O3 O3 108.4(3) 1_545 5_455
O3 O3 O3 113.4(2) 1_554 5_455
O3 O3 O3 66.6(2) 1_556 5_455
O2 O3 O3 171.3(3) 3_554 5_455
Ga3 O3 O3 105.6(3) 1_656 5_455
O2 O3 O3 79.1(3) 4_444 5_455
O2 O3 O3 46.11(17) 2_565 5_455
La O3 O3 109.0(3) 4_444 5_455
O2 O3 O3 124.7(4) 3 5_455
O1 O3 O3 88.79(17) 2_565 5_455
Ga2 O3 O3 34.09(12) 2_566 5_455
O2 O3 O3 56.0(3) 4_445 5_455
O1 O3 O3 131.7(3) 1_544 5_455
O3 O3 O3 82.5(3) 4_445 5_455
O3 O3 O3 31.6(3) 3_455 5_455
Ga2 O3 O3 96.18(15) 1_664 5_455
O2 O3 O3 52.5(2) 6_556 5_455
O2 O3 O3 110.3(4) 5_445 5_455
La O3 O3 42.81(19) 2_455 5_455
O2 O3 O3 137.3(3) 6_545 5_455
O2 O3 O3 85.6(3) 2_556 5_455
O1 O3 O3 91.0(3) 2_454 5_455
La O3 O3 153.0(3) 2_554 5_455
O3 O3 O3 141.4(3) 3_554 5_455
O3 O3 O3 94.7(2) 3_556 5_455
O3 O3 O3 122.7(4) 4_554 5_455
O3 O3 O3 80.8(3) 4_556 5_455
La O3 O3 87.41(15) 2_564 5_455
O2 O3 O3 96.7(3) 6_554 5_455
O1 O3 O3 153.0(4) 2 5_455
La O3 O3 22.63(7) 4_455 5_455
O2 O3 O3 126.5(4) 2_554 5_455
La O3 O3 124.9(2) 4_554 5_455
Ga3 O3 O3 78.5(4) 4_445 5_445
Nb O3 O3 98.2(5) . 5_445
Ga1 O3 O3 98.2(5) . 5_445
La O3 O3 77.9(5) . 5_445
Ga3 O3 O3 172.0(5) 2_564 5_445
O2 O3 O3 143.4(5) 6 5_445
O3 O3 O3 87.7(8) 6 5_445
O3 O3 O3 132.6(6) 6_554 5_445
O3 O3 O3 91.9(5) 3 5_445
O3 O3 O3 144.2(4) 4 5_445
O2 O3 O3 44.2(3) 2 5_445
O2 O3 O3 76.8(5) 1_554 5_445
O1 O3 O3 41.9(3) 2_455 5_445
O2 O3 O3 35.1(4) . 5_445
O3 O3 O3 62.3(2) 2 5_445
Ga2 O3 O3 61.5(3) 1_554 5_445
O3 O3 O3 98.97(18) 2_554 5_445
Ga3 O3 O3 117.9(2) 1_655 5_445
La O3 O3 4.70(10) 4_445 5_445
Ga2 O3 O3 127.5(4) 2_565 5_445
O2 O3 O3 100.3(4) 5_455 5_445
O3 O3 O3 104.8(4) 5 5_445
O3 O3 O3 137.98(19) 5_554 5_445
Ga3 O3 O3 53.0(2) 4_446 5_445
Nb O3 O3 123.4(3) 1_554 5_445
Ga1 O3 O3 123.4(3) 1_554 5_445
O1 O3 O3 104.9(4) . 5_445
O2 O3 O3 171.2(4) 4_554 5_445
La O3 O3 110.3(3) 1_554 5_445
Ga3 O3 O3 96.8(4) 2_565 5_445
O2 O3 O3 84.9(4) 3_454 5_445
La O3 O3 61.94(10) 2 5_445
O2 O3 O3 120.1(4) 4 5_445
O2 O3 O3 58.1(3) 3_455 5_445
La O3 O3 134.8(3) 2_565 5_445
Ga2 O3 O3 51.12(6) 2 5_445
O2 O3 O3 121.8(3) 5 5_445
O1 O3 O3 130.3(3) 1_554 5_445
Ga3 O3 O3 88.9(3) . 5_445
Ga2 O3 O3 40.6(3) . 5_445
La O3 O3 133.1(3) 4 5_445
O1 O3 O3 30.82(7) 1_545 5_445
O3 O3 O3 113.4(2) 1_554 5_445
O3 O3 O3 66.6(2) 1_556 5_445
O2 O3 O3 106.2(2) 3_554 5_445
Ga3 O3 O3 86.5(3) 1_656 5_445
O2 O3 O3 57.4(3) 4_444 5_445
O2 O3 O3 128.0(3) 2_565 5_445
La O3 O3 70.89(19) 4_444 5_445
O2 O3 O3 83.5(3) 3 5_445
O1 O3 O3 152.7(4) 2_565 5_445
Ga2 O3 O3 94.3(3) 2_566 5_445
O2 O3 O3 26.4(3) 4_445 5_445
O1 O3 O3 66.03(18) 1_544 5_445
O3 O3 O3 25.3(2) 4_445 5_445
O3 O3 O3 71.6(3) 3_455 5_445
Ga2 O3 O3 171.3(4) 1_664 5_445
O2 O3 O3 91.7(4) 6_556 5_445
O2 O3 O3 32.5(2) 5_445 5_445
La O3 O3 46.7(2) 2_455 5_445
O2 O3 O3 54.9(2) 6_545 5_445
O2 O3 O3 43.1(3) 2_556 5_445
O1 O3 O3 86.7(3) 2_454 5_445
La O3 O3 89.99(13) 2_554 5_445
O3 O3 O3 111.5(3) 3_554 5_445
O3 O3 O3 70.5(3) 3_556 5_445
O3 O3 O3 137.1(3) 4_554 5_445
O3 O3 O3 91.8(3) 4_556 5_445
La O3 O3 153.3(3) 2_564 5_445
O2 O3 O3 134.1(4) 6_554 5_445
O1 O3 O3 84.64(14) 2 5_445
La O3 O3 104.9(3) 4_455 5_445
O2 O3 O3 90.1(2) 2_554 5_445
La O3 O3 151.2(2) 4_554 5_445
O3 O3 O3 82.4(3) 5_455 5_445
Ga3 O3 O3 96.0(5) 4_445 5_454
Nb O3 O3 148.9(5) . 5_454
Ga1 O3 O3 148.9(5) . 5_454
La O3 O3 55.9(2) . 5_454
Ga3 O3 O3 76.2(3) 2_564 5_454
O2 O3 O3 55.0(3) 6 5_454
O3 O3 O3 107.9(3) 6 5_454
O3 O3 O3 60.8(3) 6_554 5_454
O3 O3 O3 154.4(3) 3 5_454
O3 O3 O3 113.5(6) 4 5_454
O2 O3 O3 117.8(6) 2 5_454
O2 O3 O3 61.6(5) 1_554 5_454
O1 O3 O3 59.6(3) 2_455 5_454
O2 O3 O3 103.5(4) . 5_454
O3 O3 O3 153.8(6) 2 5_454
Ga2 O3 O3 46.7(3) 1_554 5_454
O3 O3 O3 101.9(6) 2_554 5_454
Ga3 O3 O3 127.8(4) 1_655 5_454
La O3 O3 100.6(3) 4_445 5_454
Ga2 O3 O3 30.59(7) 2_565 5_454
O2 O3 O3 21.9(3) 5_455 5_454
O3 O3 O3 139.40(15) 5 5_454
O3 O3 O3 101.2(4) 5_554 5_454
Ga3 O3 O3 126.8(4) 4_446 5_454
Nb O3 O3 83.4(3) 1_554 5_454
Ga1 O3 O3 83.4(3) 1_554 5_454
O1 O3 O3 62.2(2) . 5_454
O2 O3 O3 75.5(3) 4_554 5_454
La O3 O3 36.6(2) 1_554 5_454
Ga3 O3 O3 111.2(2) 2_565 5_454
O2 O3 O3 23.0(3) 3_454 5_454
La O3 O3 157.4(3) 2 5_454
O2 O3 O3 103.5(3) 4 5_454
O2 O3 O3 66.8(3) 3_455 5_454
La O3 O3 74.34(8) 2_565 5_454
Ga2 O3 O3 113.0(3) 2 5_454
O2 O3 O3 135.3(4) 5 5_454
O1 O3 O3 30.03(10) 1_554 5_454
Ga3 O3 O3 13.37(11) . 5_454
Ga2 O3 O3 87.9(3) . 5_454
La O3 O3 120.0(2) 4 5_454
O1 O3 O3 131.1(3) 1_545 5_454
O3 O3 O3 64.6(2) 1_554 5_454
O3 O3 O3 115.4(2) 1_556 5_454
O2 O3 O3 126.6(4) 3_554 5_454
Ga3 O3 O3 150.7(3) 1_656 5_454
O2 O3 O3 56.1(3) 4_444 5_454
O2 O3 O3 43.0(2) 2_565 5_454
La O3 O3 73.6(3) 4_444 5_454
O2 O3 O3 170.4(3) 3 5_454
O1 O3 O3 91.94(17) 2_565 5_454
Ga2 O3 O3 76.67(14) 2_566 5_454
O2 O3 O3 82.5(3) 4_445 5_454
O1 O3 O3 101.1(3) 1_544 5_454
O3 O3 O3 82.7(3) 4_445 5_454
O3 O3 O3 33.0(3) 3_455 5_454
Ga2 O3 O3 83.95(19) 1_664 5_454
O2 O3 O3 96.5(2) 6_556 5_454
O2 O3 O3 107.0(3) 5_445 5_454
La O3 O3 57.0(2) 2_455 5_454
O2 O3 O3 132.5(3) 6_545 5_454
O2 O3 O3 129.2(4) 2_556 5_454
O1 O3 O3 48.3(2) 2_454 5_454
La O3 O3 108.4(3) 2_554 5_454
O3 O3 O3 92.7(2) 3_554 5_454
O3 O3 O3 143.4(3) 3_556 5_454
O3 O3 O3 79.0(4) 4_554 5_454
O3 O3 O3 124.5(3) 4_556 5_454
La O3 O3 54.62(16) 2_564 5_454
O2 O3 O3 51.8(3) 6_554 5_454
O1 O3 O3 158.0(4) 2 5_454
La O3 O3 41.83(9) 4_455 5_454
O2 O3 O3 81.8(3) 2_554 5_454
La O3 O3 92.7(3) 4_554 5_454
O3 O3 O3 48.76(13) 5_455 5_454
O3 O3 O3 101.3(4) 5_445 5_454
Ga3 O3 O3 37.9(2) 4_445 5_444
Nb O3 O3 129.9(4) . 5_444
Ga1 O3 O3 129.9(4) . 5_444
La O3 O3 102.1(5) . 5_444
Ga3 O3 O3 123.3(4) 2_564 5_444
O2 O3 O3 133.9(5) 6 5_444
O3 O3 O3 136.3(8) 6 5_444
O3 O3 O3 84.1(6) 6_554 5_444
O3 O3 O3 91.9(5) 3 5_444
O3 O3 O3 143.0(4) 4 5_444
O2 O3 O3 36.9(4) 2 5_444
O2 O3 O3 29.3(4) 1_554 5_444
O1 O3 O3 50.2(4) 2_455 5_444
O2 O3 O3 82.9(4) . 5_444
O3 O3 O3 99.33(19) 2 5_444
Ga2 O3 O3 36.0(3) 1_554 5_444
O3 O3 O3 60.7(3) 2_554 5_444
Ga3 O3 O3 99.4(2) 1_655 5_444
La O3 O3 44.26(14) 4_445 5_444
Ga2 O3 O3 110.2(3) 2_565 5_444
O2 O3 O3 96.2(4) 5_455 5_444
O3 O3 O3 139.40(15) 5 5_444
O3 O3 O3 101.2(4) 5_554 5_444
Ga3 O3 O3 100.6(3) 4_446 5_444
Nb O3 O3 77.5(2) 1_554 5_444
Ga1 O3 O3 77.5(2) 1_554 5_444
O1 O3 O3 130.3(3) . 5_444
O2 O3 O3 122.4(4) 4_554 5_444
La O3 O3 67.5(3) 1_554 5_444
Ga3 O3 O3 145.5(4) 2_565 5_444
O2 O3 O3 57.9(3) 3_454 5_444
La O3 O3 76.60(9) 2 5_444
O2 O3 O3 168.9(5) 4 5_444
O2 O3 O3 88.6(4) 3_455 5_444
La O3 O3 155.1(3) 2_565 5_444
Ga2 O3 O3 33.07(6) 2 5_444
O2 O3 O3 117.6(3) 5 5_444
O1 O3 O3 97.2(3) 1_554 5_444
Ga3 O3 O3 76.1(3) . 5_444
Ga2 O3 O3 82.8(3) . 5_444
La O3 O3 151.0(3) 4 5_444
O1 O3 O3 60.11(18) 1_545 5_444
O3 O3 O3 64.6(2) 1_554 5_444
O3 O3 O3 115.4(2) 1_556 5_444
O2 O3 O3 84.2(3) 3_554 5_444
Ga3 O3 O3 123.2(2) 1_656 5_444
O2 O3 O3 25.6(3) 4_444 5_444
O2 O3 O3 123.8(3) 2_565 5_444
La O3 O3 22.14(13) 4_444 5_444
O2 O3 O3 108.3(2) 3 5_444
O1 O3 O3 158.4(4) 2_565 5_444
Ga2 O3 O3 131.1(4) 2_566 5_444
O2 O3 O3 62.5(3) 4_445 5_444
O1 O3 O3 30.52(10) 1_544 5_444
O3 O3 O3 27.1(3) 4_445 5_444
O3 O3 O3 71.9(3) 3_455 5_444
Ga2 O3 O3 139.6(3) 1_664 5_444
O2 O3 O3 137.9(4) 6_556 5_444
O2 O3 O3 28.53(16) 5_445 5_444
La O3 O3 60.2(3) 2_455 5_444
O2 O3 O3 52.06(15) 6_545 5_444
O2 O3 O3 89.4(3) 2_556 5_444
O1 O3 O3 42.3(2) 2_454 5_444
La O3 O3 55.85(14) 2_554 5_444
O3 O3 O3 68.7(3) 3_554 5_444
O3 O3 O3 113.2(3) 3_556 5_444
O3 O3 O3 89.9(2) 4_554 5_444
O3 O3 O3 138.9(3) 4_556 5_444
La O3 O3 110.2(3) 2_564 5_444
O2 O3 O3 87.2(3) 6_554 5_444
O1 O3 O3 87.61(14) 2 5_444
La O3 O3 114.7(3) 4_455 5_444
O2 O3 O3 43.4(2) 2_554 5_444
La O3 O3 110.3(3) 4_554 5_444
O3 O3 O3 101.3(4) 5_455 5_444
O3 O3 O3 48.76(13) 5_445 5_444
O3 O3 O3 80.9(3) 5_454 5_444
Ga3 O3 O2 152.9(6) 4_445 5_456
Nb O3 O2 84.4(4) . 5_456
Ga1 O3 O2 84.4(4) . 5_456
La O3 O2 21.6(2) . 5_456
Ga3 O3 O2 108.8(4) 2_564 5_456
O2 O3 O2 70.3(4) 6 5_456
O3 O3 O2 35.7(2) 6 5_456
O3 O3 O2 130.0(5) 6_554 5_456
O3 O3 O2 128.3(2) 3 5_456
O3 O3 O2 101.7(5) 4 5_456
O2 O3 O2 120.8(5) 2 5_456
O2 O3 O2 124.4(4) 1_554 5_456
O1 O3 O2 65.9(4) 2_455 5_456
O2 O3 O2 46.6(2) . 5_456
O3 O3 O2 80.0(5) 2 5_456
Ga2 O3 O2 91.6(3) 1_554 5_456
O3 O3 O2 175.7(2) 2_554 5_456
Ga3 O3 O2 141.6(3) 1_655 5_456
La O3 O2 81.9(3) 4_445 5_456
Ga2 O3 O2 72.2(2) 2_565 5_456
O2 O3 O2 55.5(3) 5_455 5_456
O3 O3 O2 79.4(4) 5 5_456
O3 O3 O2 142.5(3) 5_554 5_456
Ga3 O3 O2 54.5(2) 4_446 5_456
Nb O3 O2 153.7(4) 1_554 5_456
Ga1 O3 O2 153.7(4) 1_554 5_456
O1 O3 O2 28.8(2) . 5_456
O2 O3 O2 109.2(4) 4_554 5_456
La O3 O2 113.0(3) 1_554 5_456
Ga3 O3 O2 44.15(18) 2_565 5_456
O2 O3 O2 88.4(4) 3_454 5_456
La O3 O2 111.6(3) 2 5_456
O2 O3 O2 57.3(3) 4 5_456
O2 O3 O2 26.7(3) 3_455 5_456
La O3 O2 57.48(17) 2_565 5_456
Ga2 O3 O2 128.6(3) 2 5_456
O2 O3 O2 121.3(4) 5 5_456
O1 O3 O2 91.9(3) 1_554 5_456
Ga3 O3 O2 68.3(2) . 5_456
Ga2 O3 O2 37.02(17) . 5_456
La O3 O2 90.7(2) 4 5_456
O1 O3 O2 93.6(3) 1_545 5_456
O3 O3 O2 140.77(19) 1_554 5_456
O3 O3 O2 39.23(19) 1_556 5_456
O2 O3 O2 153.6(4) 3_554 5_456
Ga3 O3 O2 77.8(2) 1_656 5_456
O2 O3 O2 99.5(4) 4_444 5_456
O2 O3 O2 60.37(16) 2_565 5_456
La O3 O2 130.5(3) 4_444 5_456
O2 O3 O2 96.7(2) 3 5_456
O1 O3 O2 82.6(3) 2_565 5_456
Ga2 O3 O2 17.16(13) 2_566 5_456
O2 O3 O2 54.7(3) 4_445 5_456
O1 O3 O2 142.5(4) 1_544 5_456
O3 O3 O2 89.6(2) 4_445 5_456
O3 O3 O2 56.5(2) 3_455 5_456
Ga2 O3 O2 97.1(2) 1_664 5_456
O2 O3 O2 27.5(3) 6_556 5_456
O2 O3 O2 110.0(4) 5_445 5_456
La O3 O2 56.3(2) 2_455 5_456
O2 O3 O2 125.7(3) 6_545 5_456
O2 O3 O2 63.0(3) 2_556 5_456
O1 O3 O2 117.9(3) 2_454 5_456
La O3 O2 167.4(3) 2_554 5_456
O3 O3 O2 167.3(3) 3_554 5_456
O3 O3 O2 67.0(2) 3_556 5_456
O3 O3 O2 141.2(4) 4_554 5_456
O3 O3 O2 54.0(3) 4_556 5_456
La O3 O2 104.0(2) 2_564 5_456
O2 O3 O2 120.0(3) 6_554 5_456
O1 O3 O2 125.6(3) 2 5_456
La O3 O2 40.64(15) 4_455 5_456
O2 O3 O2 152.1(3) 2_554 5_456
La O3 O2 130.6(3) 4_554 5_456
O3 O3 O2 27.98(19) 5_455 5_456
O3 O3 O2 77.6(3) 5_445 5_456
O3 O3 O2 76.4(2) 5_454 5_456
O3 O3 O2 115.0(4) 5_444 5_456
Ga3 O3 La 84.1(4) 4_445 1_655
Nb O3 La 29.0(2) . 1_655
Ga1 O3 La 29.0(2) . 1_655
La O3 La 134.7(4) . 1_655
Ga3 O3 La 80.0(3) 2_564 1_655
O2 O3 La 106.2(4) 6 1_655
O3 O3 La 77.82(11) 6 1_655
O3 O3 La 99.06(17) 6_554 1_655
O3 O3 La 20.0(4) 3 1_655
O3 O3 La 44.5(4) 4 1_655
O2 O3 La 77.1(5) 2 1_655
O2 O3 La 119.9(4) 1_554 1_655
O1 O3 La 144.0(4) 2_455 1_655
O2 O3 La 98.4(4) . 1_655
O3 O3 La 47.4(3) 2 1_655
Ga2 O3 La 147.4(3) 1_554 1_655
O3 O3 La 69.7(4) 2_554 1_655
Ga3 O3 La 32.82(12) 1_655 1_655
La O3 La 102.3(3) 4_445 1_655
Ga2 O3 La 128.9(3) 2_565 1_655
O2 O3 La 151.6(4) 5_455 1_655
O3 O3 La 35.3(2) 5 1_655
O3 O3 La 57.3(3) 5_554 1_655
Ga3 O3 La 72.58(18) 4_446 1_655
Nb O3 La 79.84(18) 1_554 1_655
Ga1 O3 La 79.84(18) 1_554 1_655
O1 O3 La 115.4(3) . 1_655
O2 O3 La 80.6(3) 4_554 1_655
La O3 La 127.7(3) 1_554 1_655
Ga3 O3 La 70.62(16) 2_565 1_655
O2 O3 La 158.0(3) 3_454 1_655
La O3 La 41.70(11) 2 1_655
O2 O3 La 68.2(3) 4 1_655
O2 O3 La 131.3(4) 3_455 1_655
La O3 La 92.3(2) 2_565 1_655
Ga2 O3 La 78.81(18) 2 1_655
O2 O3 La 20.87(17) 5 1_655
O1 O3 La 126.1(3) 1_554 1_655
Ga3 O3 La 168.9(3) . 1_655
Ga2 O3 La 113.3(2) . 1_655
La O3 La 41.72(9) 4 1_655
O1 O3 La 71.63(17) 1_545 1_655
O3 O3 La 101.31(12) 1_554 1_655
O3 O3 La 78.69(12) 1_556 1_655
O2 O3 La 40.4(2) 3_554 1_655
Ga3 O3 La 36.61(8) 1_656 1_655
O2 O3 La 136.9(4) 4_444 1_655
O2 O3 La 121.1(3) 2_565 1_655
La O3 La 110.0(2) 4_444 1_655
O2 O3 La 22.81(16) 3 1_655
O1 O3 La 68.89(14) 2_565 1_655
Ga2 O3 La 106.15(19) 2_566 1_655
O2 O3 La 121.2(3) 4_445 1_655
O1 O3 La 84.19(18) 1_544 1_655
O3 O3 La 118.0(4) 4_445 1_655
O3 O3 La 168.60(13) 3_455 1_655
Ga2 O3 La 73.40(15) 1_664 1_655
O2 O3 La 87.5(2) 6_556 1_655
O2 O3 La 90.5(3) 5_445 1_655
La O3 La 146.8(3) 2_455 1_655
O2 O3 La 60.97(19) 6_545 1_655
O2 O3 La 72.9(3) 2_556 1_655
O1 O3 La 128.7(2) 2_454 1_655
La O3 La 67.00(13) 2_554 1_655
O3 O3 La 74.3(2) 3_554 1_655
O3 O3 La 52.00(19) 3_556 1_655
O3 O3 La 80.6(2) 4_554 1_655
O3 O3 La 59.4(2) 4_556 1_655
La O3 La 101.5(2) 2_564 1_655
O2 O3 La 106.9(2) 6_554 1_655
O1 O3 La 24.10(8) 2 1_655
La O3 La 133.6(2) 4_455 1_655
O2 O3 La 93.5(3) 2_554 1_655
La O3 La 64.14(12) 4_554 1_655
O3 O3 La 139.9(3) 5_455 1_655
O3 O3 La 102.2(2) 5_445 1_655
O3 O3 La 156.1(3) 5_454 1_655
O3 O3 La 111.59(16) 5_444 1_655
O2 O3 La 113.3(3) 5_456 1_655
loop_
_geom_bond_atom_site_label_1
_geom_bond_atom_site_label_2
_geom_bond_distance
_geom_bond_site_symmetry_2
La O3 2.362(12) .
La O3 2.362(12) 6
La O2 2.405(15) 3_455
La O2 2.405(15) 5_455
La O1 2.502(6) .
La O1 2.502(6) 2_455
La O2 2.75(2) .
La O2 2.75(2) 6
La Ga2 3.374(2) .
La Ga2 3.374(2) 2_565
La Nb 3.4528(12) .
La Ga1 3.4528(12) .
Ga1 O3 1.958(12) 3
Ga1 O3 1.959(12) 6
Ga1 O3 1.959(12) .
Ga1 O3 1.959(12) 2
Ga1 O3 1.959(12) 5
Ga1 O3 1.959(12) 4
Ga1 O2 3.476(18) 2
Ga1 O2 3.476(18) 3
Ga1 O2 3.476(18) 5
Ga1 O2 3.476(18) .
Ga1 O2 3.476(18) 4
Ga1 O2 3.476(18) 6
Ga2 O1 1.761(19) 2_456
Ga2 O2 1.854(15) 4_445
Ga2 O2 1.854(15) .
Ga2 O2 1.854(15) 3_455
Ga2 O1 3.262(19) 2_455
Ga2 La 3.374(2) 4_445
Ga2 La 3.374(2) 2_455
Ga2 O3 3.399(12) 4_446
Ga2 O3 3.399(12) 1_556
Ga2 O3 3.399(12) 3_456
Ga2 La 3.513(2) 4_446
Ga3 O2 1.810(15) 3_454
Ga3 O2 1.810(15) 5_455
Ga3 O3 1.817(12) 5_454
Ga3 O3 1.817(12) 3_455
Ga3 O3 2.524(15) 2_454
Ga3 O3 2.524(15) 4_455
Ga3 Nb 3.1231(13) 1_454
Ga3 Nb 3.1231(13) 1_455
Ga3 O1 3.541(9) 2_455
Ga3 O1 3.541(9) 1_554
Ga3 O3 3.612(12) 6_454
Ga3 O3 3.612(12) 1_455
Nb O3 1.958(12) 3
Nb O3 1.959(12) 6
Nb O3 1.959(12) .
Nb O3 1.959(12) 2
Nb O3 1.959(12) 5
Nb O3 1.959(12) 4
Nb Ga3 3.1231(13) 4_445
Nb Ga3 3.1231(13) 4_446
Nb Ga3 3.1231(13) 1_656
Nb Ga3 3.1231(13) 1_655
Nb Ga3 3.1231(13) 2_565
Nb Ga3 3.1231(13) 2_564
O1 Ga2 1.761(19) 2_566
O1 La 2.502(6) 2_565
O1 La 2.502(6) 4_455
O1 O2 2.86(2) 6
O1 O2 2.86(2) 5_455
O1 O2 2.86(2) 2_565
O1 O3 3.113(13) 6
O1 O3 3.113(13) 2_565
O1 O3 3.113(13) 5_455
O1 O2 3.12(2) 6_556
O1 O2 3.12(2) 5_456
O1 O2 3.12(2) 2_566
O1 Ga2 3.262(19) 2_565
O1 Ga3 3.541(9) 2_565
O1 Ga3 3.541(9) 1_556
O1 Ga3 3.541(9) 4_456
O1 O2 3.556(16) 4
O1 O2 3.556(16) 3_455
O1 O2 3.556(16) 1_565
O1 O3 4.258(15) .
O1 O3 4.258(15) 3_565
O1 O3 4.258(15) 4_455
O1 Ga3 4.586(13) 2_564
O1 Ga3 4.586(13) 4_455
O1 O2 4.66(2) .
O1 O2 4.66(2) 3_565
O1 O2 4.66(2) 4_455
O1 Ga1 4.669(3) 1_455
O1 Nb 4.669(3) 1_455
O1 Ga1 4.669(3) 1_565
O1 Nb 4.669(3) 1_565
O1 O3 4.78(2) 1_556
O1 O3 4.78(2) 3_566
O1 O3 4.78(2) 4_456
O1 La 4.796(16) 1_556
O1 La 4.796(16) 2_566
O1 La 4.796(16) 4_456
O1 Ga2 4.853(6) 1_665
O1 Ga2 4.853(6) 1_565
O1 O1 4.893(12) 2_455
O1 O1 4.893(12) 2_565
O1 O1 4.893(12) 2_465
O1 O3 4.824(18) 4
O1 O3 4.824(18) 3_455
O1 O3 4.824(18) 1_565
O1 O1 5.0232 1_556
O1 O1 5.0232 1_554
O1 Ga3 5.225(6) 4_446
O1 Ga3 5.225(6) 1_666
O1 Ga3 5.225(6) 2_465
O1 O3 5.291(15) 5
O1 O3 5.291(15) 2_455
O1 O3 5.291(15) 6_565
O1 O3 5.289(16) 4_556
O1 O3 5.289(16) 3_456
O1 O3 5.289(16) 1_566
O1 O3 5.602(19) 6_554
O1 O3 5.602(19) 2_564
O1 O3 5.602(19) 5_454
O1 O2 5.58(2) 4_554
O1 O2 5.58(2) 3_454
O1 O2 5.58(2) 1_564
O1 O1 5.67(2) 2_456
O1 O1 5.67(2) 2_566
O1 O1 5.67(2) 2_466
O1 Ga2 5.745(11) 1_554
O1 Ga2 5.745(11) 1_664
O1 Ga2 5.745(11) 1_564
O1 La 5.807(3) 4
O1 La 5.807(3) 2_455
O1 La 5.807(3) 1_565
O1 O3 5.756(12) 2
O1 O3 5.756(12) 5_565
O1 O3 5.756(12) 6_455
O1 O2 6.170(16) 1_665
O2 Ga3 1.810(15) 4_446
O2 La 2.405(15) 4_445
O2 O3 2.69(3) 6
O2 O3 2.77(2) 2
O2 O1 2.86(2) 2_455
O2 O2 2.81(3) 4_445
O2 O2 2.81(3) 3_455
O2 O3 2.928(17) 1_556
O2 O2 2.89(3) 2_556
O2 O1 3.12(2) 2_456
O2 O3 3.26(2) .
O2 O1 3.556(16) 1_545
O2 O2 3.68(3) 2
O2 Ga2 3.659(18) 2_556
O2 O3 3.86(2) 5_445
O2 Ga3 4.044(18) 2_565
O2 La 3.975(18) 4_446
O2 La 4.195(13) 1_556
O2 Ga3 4.301(15) 4_445
O2 La 4.245(15) 2_455
O2 O3 4.33(2) 3_556
O2 O3 4.26(2) 4_446
O2 Ga3 4.232(19) 2_455
O2 Ga3 4.354(15) 1_556
O2 Ga2 4.428(15) 1_554
O2 O2 4.53(3) 6_556
O2 La 4.478(14) 2
O2 O3 4.56(2) 3
O2 O3 4.49(2) 4_445
O2 O2 4.508(15) 5_446
O2 O2 4.508(15) 5_456
O2 O3 4.69(2) 5
O2 Ga2 4.742(18) 2_566
O2 Nb 4.701(15) 1_556
O2 Ga1 4.701(15) 1_556
O2 Ga3 4.802(16) 1_656
O2 O2 5.07(4) 6
O2 O2 5.053(18) 5_445
O2 O2 5.053(18) 5_455
O2 O2 5.0232 1_554
O2 O2 5.0232 1_556
O2 O3 5.02(2) 4_556
O2 Ga3 4.96(2) 1_546
O2 O3 5.089(19) 3_456
O2 O3 5.29(2) 2_455
O2 O3 5.22(2) 4
O2 Ga2 5.258(13) 2
O2 O3 5.28(2) 3_455
O2 O2 5.42(3) 3
O2 O2 5.42(3) 4
O2 La 5.295(15) 2_456
O2 Ga1 5.330(18) 1_445
O2 Nb 5.330(18) 1_445
O2 O2 5.27(3) 6_446
O2 O2 5.27(3) 6_546
O2 O3 5.410(19) 6_556
O2 O3 5.39(2) 5_455
O2 O3 5.36(3) 6_445
O2 La 5.484(16) 2_556
O2 Ga3 5.619(19) 2_564
O2 O3 5.45(2) 2_556
O2 O1 5.58(2) 1_546
O2 O2 5.74(2) 6_445
O2 O2 5.74(2) 6_545
O2 O2 5.753(13) 4_444
O2 O2 5.753(13) 3_454
O2 O2 5.753(13) 4_446
O2 O2 5.753(13) 3_456
O2 O3 5.97(2) 6_554
O2 La 5.854(17) 1_545
O2 O3 6.007(19) 2_554
O2 La 6.12(2) 2_565
O2 O2 6.05(3) 3_445
O2 O2 6.05(3) 4_545
O2 O3 6.08(2) 5_446
O3 Ga3 1.817(12) 4_445
O3 Ga3 2.524(15) 2_564
O3 O2 2.69(3) 6
O3 O3 2.58(2) 6
O3 O3 2.80(3) 6_554
O3 O3 2.68(2) 3
O3 O3 2.68(2) 4
O3 O2 2.77(2) 2
O3 O2 2.928(17) 1_554
O3 O1 3.113(13) 2_455
O3 O3 3.17(3) 2
O3 Ga2 3.399(12) 1_554
O3 O3 3.35(2) 2_554
O3 Ga3 3.612(12) 1_655
O3 La 3.705(15) 4_445
O3 Ga2 3.929(15) 2_565
O3 O2 3.86(2) 5_455
O3 O3 3.86(2) 5
O3 O3 4.01(3) 5_554
O3 Ga3 3.916(14) 4_446
O3 Nb 4.127(13) 1_554
O3 Ga1 4.127(13) 1_554
O3 O2 4.33(2) 4_554
O3 La 4.333(13) 1_554
O3 Ga3 4.290(12) 2_565
O3 O2 4.26(2) 3_454
O3 La 4.242(14) 2
O3 O2 4.56(2) 4
O3 O2 4.49(2) 3_455
O3 La 4.601(14) 2_565
O3 Ga2 4.537(14) 2
O3 O2 4.69(2) 5
O3 O1 4.78(2) 1_554
O3 La 4.868(13) 4
O3 O1 4.824(18) 1_545
O3 O3 5.0232 1_554
O3 O3 5.0232 1_556
O3 O2 5.02(2) 3_554
O3 Ga3 5.008(12) 1_656
O3 O2 5.089(19) 4_444
O3 O2 5.29(2) 2_565
O3 La 5.189(12) 4_444
O3 O2 5.22(2) 3
O3 O1 5.291(15) 2_565
O3 Ga2 5.332(12) 2_566
O3 O2 5.28(2) 4_445
O3 O1 5.289(16) 1_544
O3 O3 5.36(2) 4_445
O3 O3 5.36(2) 3_455
O3 Ga2 5.464(15) 1_664
O3 O2 5.410(19) 6_556
O3 O2 5.39(2) 5_445
O3 La 5.507(12) 2_455
O3 O2 5.36(3) 6_545
O3 O2 5.45(2) 2_556
O3 O1 5.602(19) 2_454
O3 La 5.585(12) 2_554
O3 O3 5.695(10) 3_554
O3 O3 5.695(10) 3_556
O3 O3 5.695(10) 4_554
O3 O3 5.695(10) 4_556
O3 La 5.862(16) 2_564
O3 O2 5.97(2) 6_554
O3 O1 5.756(12) 2
O3 La 6.004(13) 4_455
O3 O2 6.007(19) 2_554
O3 La 6.074(14) 4_554
O3 O3 6.035(19) 5_455
O3 O3 6.035(19) 5_445
O3 O3 6.131(18) 5_454
O3 O3 6.131(18) 5_444
O3 O2 6.08(2) 5_456
O3 La 6.111(12) 1_655
