#------------------------------------------------------------------------------
#$Date: 2017-02-07 17:13:06 +0200 (Tue, 07 Feb 2017) $
#$Revision: 191892 $
#$URL: file:///home/coder/svn-repositories/cod/cif/2/10/35/2103533.cif $
#------------------------------------------------------------------------------
#
# This file is available in the Crystallography Open Database (COD),
# http://www.crystallography.net/. The original data for this entry
# were provided by IUCr Journals, http://journals.iucr.org/.
#
# The file may be used within the scientific community so long as
# proper attribution is given to the journal article from which the
# data were obtained.
#
data_2103533
loop_
_publ_author_name
'Pavlovska, A.'
'Werner, S.'
'Maximov, B.'
'Mill, B.'
_publ_section_title
;
 Pressure-induced phase transitions of piezoelectric single crystals
 from the langasite family: La~3~Nb~0.5~Ga~5.5~O~14~ and
 La~3~Ta~0.5~Ga~5.5~O~14~
;
_journal_issue                   6
_journal_name_full               'Acta Crystallographica Section B'
_journal_page_first              939
_journal_page_last               947
_journal_paper_doi               10.1107/S0108768102010273
_journal_volume                  58
_journal_year                    2002
_chemical_formula_sum            'Ga5.5 La3 Nb0.5 O14'
_chemical_formula_weight         1070.65
_chemical_name_systematic        ?
_space_group_IT_number           150
_symmetry_space_group_name_Hall  'P 3 2"'
_symmetry_space_group_name_H-M   'P 3 2 1'
_atom_sites_solution_hydrogens   geom
_atom_sites_solution_primary     direct
_atom_sites_solution_secondary   difmap
_audit_creation_method           SHELXL-97
_cell_angle_alpha                90.00
_cell_angle_beta                 90.00
_cell_angle_gamma                120.00
_cell_formula_units_Z            1
_cell_length_a                   8.126
_cell_length_b                   8.126
_cell_length_c                   5.083
_cell_measurement_temperature    293(2)
_cell_volume                     290.7
_computing_structure_refinement  'SHELXL-97 (Sheldrick, 1997)'
_computing_structure_solution    'SHELXS-97 (Sheldrick, 1990)'
_diffrn_ambient_pressure         4.8E+6
_diffrn_ambient_temperature      293(2)
_diffrn_measured_fraction_theta_full 0.377
_diffrn_measured_fraction_theta_max 0.377
_diffrn_radiation_source         synchrotron
_diffrn_radiation_wavelength     0.56000
_diffrn_reflns_av_R_equivalents  0.0000
_diffrn_reflns_av_sigmaI/netI    0.0574
_diffrn_reflns_limit_h_max       12
_diffrn_reflns_limit_h_min       -12
_diffrn_reflns_limit_k_max       6
_diffrn_reflns_limit_k_min       -6
_diffrn_reflns_limit_l_max       8
_diffrn_reflns_limit_l_min       -8
_diffrn_reflns_number            759
_diffrn_reflns_theta_full        37.01
_diffrn_reflns_theta_max         37.01
_diffrn_reflns_theta_min         2.28
_exptl_absorpt_coefficient_mu    13.887
_exptl_crystal_density_diffrn    6.116
_exptl_crystal_density_method    'not measured'
_exptl_crystal_F_000             474
_refine_diff_density_max         2.295
_refine_diff_density_min         -2.478
_refine_diff_density_rms         0.503
_refine_ls_abs_structure_details 'Flack H D (1983), Acta Cryst. A39, 876-881'
_refine_ls_abs_structure_Flack   0.05(7)
_refine_ls_extinction_coef       0.022(6)
_refine_ls_extinction_expression Fc^*^=kFc[1+0.001xFc^2^\l^3^/sin(2\q)]^-1/4^
_refine_ls_extinction_method     SHELXL
_refine_ls_goodness_of_fit_ref   1.076
_refine_ls_hydrogen_treatment    mixed
_refine_ls_matrix_type           full
_refine_ls_number_parameters     39
_refine_ls_number_reflns         759
_refine_ls_number_restraints     0
_refine_ls_restrained_S_all      1.076
_refine_ls_R_factor_all          0.0439
_refine_ls_R_factor_gt           0.0439
_refine_ls_shift/su_max          0.000
_refine_ls_shift/su_mean         0.000
_refine_ls_structure_factor_coef Fsqd
_refine_ls_weighting_details
'calc w=1/[\s^2^(Fo^2^)+(0.1000P)^2^+0.0000P] where P=(Fo^2^+2Fc^2^)/3'
_refine_ls_weighting_scheme      calc
_refine_ls_wR_factor_gt          0.1315
_refine_ls_wR_factor_ref         0.1315
_reflns_number_gt                759
_reflns_number_total             759
_reflns_threshold_expression     >2sigma(I)
_cod_data_source_file            sn0021-4.8d3.cif
_cod_data_source_block           4.8d3
_cod_depositor_comments
;
The _diffrn_ambient_pressure was taken from the original data block
header, after comparison with the paper text and supplementary
material.

Changing (with the help of Perl) all _diffrn_radiation_source values in
the files that were reportedly colected on the HASYLAB D3 beamline
(Hamburg) from 'fine-focus sealed tube' to synchrotron.

The command was:

perl -i -ne \
    "s/'fine-focus sealed tube'/synchrotron/; \
    print unless /_diffrn_radiation_type|_diffrn_radiation_monochromator/" \
    *d3*.cif \
    11.57split.cif \
    21.85split.cif \
    22.85split.cif

Saulius Gra\<zulis
;
_cod_original_formula_sum        'Ga5.50 La3 Nb0.50 O14'
_cod_database_code               2103533
loop_
_symmetry_equiv_pos_as_xyz
'x, y, z'
'y, x, -z'
'-y, x-y, z'
'-x+y, -x, z'
'-x, -x+y, -z'
'x-y, -y, -z'
loop_
_atom_site_label
_atom_site_type_symbol
_atom_site_fract_x
_atom_site_fract_y
_atom_site_fract_z
_atom_site_U_iso_or_equiv
_atom_site_adp_type
_atom_site_occupancy
_atom_site_symmetry_multiplicity
_atom_site_calc_flag
_atom_site_refinement_flags
La La -0.42746(10) 0.0000 0.0000 0.00876(17) Uani 1 2 d S
Ga1 Ga 0.0000 0.0000 0.0000 0.0087(4) Uani 0.50 6 d SP
Ga2 Ga -0.6667 -0.3333 0.4693(4) 0.0082(3) Uani 1 3 d S
Ga3 Ga -0.76376(19) 0.0000 -0.5000 0.0100(3) Uani 1 2 d S
Nb Nb 0.0000 0.0000 0.0000 0.0087(4) Uani 0.50 6 d SP
O1 O -0.3333 0.3333 0.182(3) 0.012(2) Uani 1 3 d S
O2 O -0.1453(13) 0.3089(14) -0.3023(18) 0.0178(16) Uani 1 1 d .
O3 O -0.7799(11) 0.1451(12) 0.2398(19) 0.0187(18) Uani 1 1 d .
loop_
_atom_site_aniso_label
_atom_site_aniso_U_11
_atom_site_aniso_U_22
_atom_site_aniso_U_33
_atom_site_aniso_U_23
_atom_site_aniso_U_13
_atom_site_aniso_U_12
La 0.0094(2) 0.0069(3) 0.0091(3) -0.0012(2) -0.00059(12) 0.00346(13)
Ga1 0.0099(5) 0.0099(5) 0.0064(10) 0.000 0.000 0.0050(3)
Ga2 0.0087(4) 0.0087(4) 0.0073(8) 0.000 0.000 0.0043(2)
Ga3 0.0083(4) 0.0113(6) 0.0114(7) 0.0058(5) 0.0029(3) 0.0056(3)
Nb 0.0099(5) 0.0099(5) 0.0064(10) 0.000 0.000 0.0050(3)
O1 0.011(3) 0.011(3) 0.012(6) 0.000 0.000 0.0056(15)
O2 0.022(4) 0.026(4) 0.013(4) -0.007(3) -0.004(3) 0.018(4)
O3 0.015(3) 0.015(3) 0.019(4) 0.002(3) -0.013(3) 0.002(2)
loop_
_atom_type_symbol
_atom_type_description
_atom_type_scat_dispersion_real
_atom_type_scat_dispersion_imag
_atom_type_scat_source
La La -0.9400 1.6100 'International Tables Vol C Tables 4.2.6.8 and 6.1.1.4'
Nb Nb -0.9600 2.8600 'International Tables Vol C Tables 4.2.6.8 and 6.1.1.4'
Ga Ga 0.2400 1.0600 'International Tables Vol C Tables 4.2.6.8 and 6.1.1.4'
O O 0.0000 0.0000 'International Tables Vol C Tables 4.2.6.8 and 6.1.1.4'
loop_
_geom_angle_atom_site_label_1
_geom_angle_atom_site_label_2
_geom_angle_atom_site_label_3
_geom_angle
_geom_angle_site_symmetry_1
_geom_angle_site_symmetry_3
O3 La O3 67.4(4) 5_445 3_565
O3 La O2 140.0(3) 5_445 2_455
O3 La O2 107.7(3) 3_565 2_455
O3 La O2 107.7(3) 5_445 4_455
O3 La O2 140.0(3) 3_565 4_455
O2 La O2 99.9(4) 2_455 4_455
O3 La O1 124.8(2) 5_445 .
O3 La O1 78.9(2) 3_565 .
O2 La O1 90.6(3) 2_455 .
O2 La O1 72.4(3) 4_455 .
O3 La O1 78.9(2) 5_445 2_455
O3 La O1 124.8(2) 3_565 2_455
O2 La O1 72.4(3) 2_455 2_455
O2 La O1 90.6(3) 4_455 2_455
O1 La O1 153.69(6) . 2_455
O3 La O2 78.7(3) 5_445 6
O3 La O2 65.9(3) 3_565 6
O2 La O2 64.4(4) 2_455 6
O2 La O2 154.03(15) 4_455 6
O1 La O2 125.4(3) . 6
O1 La O2 65.5(3) 2_455 6
O3 La O2 65.9(3) 5_445 .
O3 La O2 78.7(3) 3_565 .
O2 La O2 154.03(15) 2_455 .
O2 La O2 64.4(4) 4_455 .
O1 La O2 65.5(3) . .
O1 La O2 125.4(3) 2_455 .
O2 La O2 137.4(3) 6 .
O3 La Ga2 110.5(3) 5_445 .
O3 La Ga2 86.5(3) 3_565 .
O2 La Ga2 31.6(2) 2_455 .
O2 La Ga2 128.9(2) 4_455 .
O1 La Ga2 109.6(3) . .
O1 La Ga2 65.5(3) 2_455 .
O2 La Ga2 32.87(17) 6 .
O2 La Ga2 165.02(18) . .
O3 La Ga2 86.5(3) 5_445 2_565
O3 La Ga2 110.5(3) 3_565 2_565
O2 La Ga2 128.9(2) 2_455 2_565
O2 La Ga2 31.6(2) 4_455 2_565
O1 La Ga2 65.5(3) . 2_565
O1 La Ga2 109.6(3) 2_455 2_565
O2 La Ga2 165.02(18) 6 2_565
O2 La Ga2 32.87(17) . 2_565
Ga2 La Ga2 160.02(3) . 2_565
O3 La Ga1 33.7(2) 5_445 .
O3 La Ga1 33.7(2) 3_565 .
O2 La Ga1 130.1(2) 2_455 .
O2 La Ga1 130.1(2) 4_455 .
O1 La Ga1 103.16(3) . .
O1 La Ga1 103.16(3) 2_455 .
O2 La Ga1 68.70(17) 6 .
O2 La Ga1 68.70(17) . .
Ga2 La Ga1 99.992(14) . .
Ga2 La Ga1 99.993(14) 2_565 .
O3 La Nb 33.7(2) 5_445 .
O3 La Nb 33.7(2) 3_565 .
O2 La Nb 130.1(2) 2_455 .
O2 La Nb 130.1(2) 4_455 .
O1 La Nb 103.16(3) . .
O1 La Nb 103.16(3) 2_455 .
O2 La Nb 68.70(17) 6 .
O2 La Nb 68.70(17) . .
Ga2 La Nb 99.992(14) . .
Ga2 La Nb 99.993(14) 2_565 .
Ga1 La Nb 0.0 . .
O3 Ga1 O3 83.7(5) 6_655 4_445
O3 Ga1 O3 106.0(6) 6_655 1_655
O3 Ga1 O3 86.4(4) 4_445 1_655
O3 Ga1 O3 86.4(4) 6_655 2_565
O3 Ga1 O3 163.5(5) 4_445 2_565
O3 Ga1 O3 83.7(5) 1_655 2_565
O3 Ga1 O3 86.4(4) 6_655 5_445
O3 Ga1 O3 106.0(6) 4_445 5_445
O3 Ga1 O3 163.5(5) 1_655 5_445
O3 Ga1 O3 86.4(4) 2_565 5_445
O3 Ga1 O3 163.5(5) 6_655 3_565
O3 Ga1 O3 86.4(4) 4_445 3_565
O3 Ga1 O3 86.4(4) 1_655 3_565
O3 Ga1 O3 106.0(6) 2_565 3_565
O3 Ga1 O3 83.7(5) 5_445 3_565
O3 Ga1 La 41.8(3) 6_655 2
O3 Ga1 La 41.8(3) 4_445 2
O3 Ga1 La 98.2(3) 1_655 2
O3 Ga1 La 127.0(3) 2_565 2
O3 Ga1 La 98.2(3) 5_445 2
O3 Ga1 La 127.0(3) 3_565 2
O3 Ga1 La 127.0(3) 6_655 .
O3 Ga1 La 98.2(3) 4_445 .
O3 Ga1 La 127.0(3) 1_655 .
O3 Ga1 La 98.2(3) 2_565 .
O3 Ga1 La 41.8(3) 5_445 .
O3 Ga1 La 41.8(3) 3_565 .
La Ga1 La 120.0 2 .
O3 Ga1 La 98.2(3) 6_655 4
O3 Ga1 La 127.0(3) 4_445 4
O3 Ga1 La 41.8(3) 1_655 4
O3 Ga1 La 41.8(3) 2_565 4
O3 Ga1 La 127.0(3) 5_445 4
O3 Ga1 La 98.2(3) 3_565 4
La Ga1 La 120.0 2 4
La Ga1 La 120.0 . 4
O3 Ga1 O2 66.3(3) 6_655 2
O3 Ga1 O2 52.8(3) 4_445 2
O3 Ga1 O2 50.8(3) 1_655 2
O3 Ga1 O2 111.0(3) 2_565 2
O3 Ga1 O2 145.7(3) 5_445 2
O3 Ga1 O2 117.0(3) 3_565 2
La Ga1 O2 47.54(15) 2 2
La Ga1 O2 149.24(15) . 2
La Ga1 O2 79.38(15) 4 2
O3 Ga1 O2 50.8(3) 6_655 4
O3 Ga1 O2 111.0(3) 4_445 4
O3 Ga1 O2 66.3(3) 1_655 4
O3 Ga1 O2 52.8(3) 2_565 4
O3 Ga1 O2 117.0(3) 5_445 4
O3 Ga1 O2 145.7(3) 3_565 4
La Ga1 O2 79.38(15) 2 4
La Ga1 O2 149.24(15) . 4
La Ga1 O2 47.54(15) 4 4
O2 Ga1 O2 61.5(3) 2 4
O3 Ga1 O2 117.0(3) 6_655 .
O3 Ga1 O2 145.7(3) 4_445 .
O3 Ga1 O2 111.0(3) 1_655 .
O3 Ga1 O2 50.8(3) 2_565 .
O3 Ga1 O2 52.8(3) 5_445 .
O3 Ga1 O2 66.3(3) 3_565 .
La Ga1 O2 149.24(15) 2 .
La Ga1 O2 47.54(15) . .
La Ga1 O2 79.38(15) 4 .
O2 Ga1 O2 158.8(3) 2 .
O2 Ga1 O2 103.18(17) 4 .
O1 Ga2 O2 117.4(3) 2_456 6
O1 Ga2 O2 117.4(3) 2_456 5_445
O2 Ga2 O2 100.5(4) 6 5_445
O1 Ga2 O2 117.4(3) 2_456 2_455
O2 Ga2 O2 100.5(4) 6 2_455
O2 Ga2 O2 100.5(4) 5_445 2_455
O1 Ga2 O1 180.000(3) 2_456 2_455
O2 Ga2 O1 62.6(3) 6 2_455
O2 Ga2 O1 62.6(3) 5_445 2_455
O2 Ga2 O1 62.6(3) 2_455 2_455
O1 Ga2 La 134.60(2) 2_456 4_445
O2 Ga2 La 43.2(3) 6 4_445
O2 Ga2 La 57.3(3) 5_445 4_445
O2 Ga2 La 107.4(3) 2_455 4_445
O1 Ga2 La 45.40(2) 2_455 4_445
O1 Ga2 La 134.60(2) 2_456 .
O2 Ga2 La 57.3(3) 6 .
O2 Ga2 La 107.4(3) 5_445 .
O2 Ga2 La 43.2(3) 2_455 .
O1 Ga2 La 45.40(2) 2_455 .
La Ga2 La 76.14(4) 4_445 .
O1 Ga2 La 134.60(2) 2_456 2_455
O2 Ga2 La 107.4(3) 6 2_455
O2 Ga2 La 43.2(3) 5_445 2_455
O2 Ga2 La 57.3(3) 2_455 2_455
O1 Ga2 La 45.40(2) 2_455 2_455
La Ga2 La 76.14(4) 4_445 2_455
La Ga2 La 76.14(4) . 2_455
O1 Ga2 O3 64.90(17) 2_456 2_456
O2 Ga2 O3 102.0(3) 6 2_456
O2 Ga2 O3 59.6(3) 5_445 2_456
O2 Ga2 O3 152.3(3) 2_455 2_456
O1 Ga2 O3 115.10(17) 2_455 2_456
La Ga2 O3 79.00(18) 4_445 2_456
La Ga2 O3 155.02(18) . 2_456
La Ga2 O3 100.26(15) 2_455 2_456
O1 Ga2 O3 64.90(17) 2_456 5_446
O2 Ga2 O3 59.6(3) 6 5_446
O2 Ga2 O3 152.3(3) 5_445 5_446
O2 Ga2 O3 102.0(3) 2_455 5_446
O1 Ga2 O3 115.10(17) 2_455 5_446
La Ga2 O3 100.26(15) 4_445 5_446
La Ga2 O3 79.00(18) . 5_446
La Ga2 O3 155.02(18) 2_455 5_446
O3 Ga2 O3 103.3(2) 2_456 5_446
O1 Ga2 O3 64.90(17) 2_456 6_556
O2 Ga2 O3 152.3(3) 6 6_556
O2 Ga2 O3 102.0(3) 5_445 6_556
O2 Ga2 O3 59.6(3) 2_455 6_556
O1 Ga2 O3 115.10(17) 2_455 6_556
La Ga2 O3 155.02(18) 4_445 6_556
La Ga2 O3 100.26(15) . 6_556
La Ga2 O3 79.00(18) 2_455 6_556
O3 Ga2 O3 103.3(2) 2_456 6_556
O3 Ga2 O3 103.3(2) 5_446 6_556
O1 Ga2 La 41.88(2) 2_456 4_446
O2 Ga2 La 87.9(3) 6 4_446
O2 Ga2 La 98.0(3) 5_445 4_446
O2 Ga2 La 157.9(3) 2_455 4_446
O1 Ga2 La 138.12(2) 2_455 4_446
La Ga2 La 92.724(5) 4_445 4_446
La Ga2 La 139.505(5) . 4_446
La Ga2 La 139.506(5) 2_455 4_446
O3 Ga2 La 39.27(15) 2_456 4_446
O3 Ga2 La 64.65(18) 5_446 4_446
O3 Ga2 La 104.75(17) 6_556 4_446
O3 Ga3 O3 133.3(6) 6 1_554
O3 Ga3 O2 109.6(4) 6 2_454
O3 Ga3 O2 99.6(4) 1_554 2_454
O3 Ga3 O2 99.6(4) 6 4_455
O3 Ga3 O2 109.6(4) 1_554 4_455
O2 Ga3 O2 101.1(6) 2_454 4_455
O3 Ga3 O3 77.7(4) 6 4_344
O3 Ga3 O3 73.6(4) 1_554 4_344
O2 Ga3 O3 78.3(4) 2_454 4_344
O2 Ga3 O3 176.8(3) 4_455 4_344
O3 Ga3 O3 73.6(4) 6 2_465
O3 Ga3 O3 77.7(4) 1_554 2_465
O2 Ga3 O3 176.8(3) 2_454 2_465
O2 Ga3 O3 78.3(4) 4_455 2_465
O3 Ga3 O3 102.5(4) 4_344 2_465
O3 Ga3 Nb 109.9(3) 6 1_454
O3 Ga3 Nb 35.1(3) 1_554 1_454
O2 Ga3 Nb 87.2(3) 2_454 1_454
O2 Ga3 Nb 144.6(3) 4_455 1_454
O3 Ga3 Nb 38.61(18) 4_344 1_454
O3 Ga3 Nb 91.54(19) 2_465 1_454
O3 Ga3 Nb 35.1(3) 6 1_455
O3 Ga3 Nb 109.9(3) 1_554 1_455
O2 Ga3 Nb 144.6(3) 2_454 1_455
O2 Ga3 Nb 87.2(3) 4_455 1_455
O3 Ga3 Nb 91.54(19) 4_344 1_455
O3 Ga3 Nb 38.61(18) 2_465 1_455
Nb Ga3 Nb 105.87(4) 1_454 1_455
O3 Ga3 O1 159.6(4) 6 1_554
O3 Ga3 O1 62.6(3) 1_554 1_554
O2 Ga3 O1 74.6(3) 2_454 1_554
O2 Ga3 O1 60.1(3) 4_455 1_554
O3 Ga3 O1 122.5(3) 4_344 1_554
O3 Ga3 O1 102.5(2) 2_465 1_554
Nb Ga3 O1 90.03(19) 1_454 1_554
Nb Ga3 O1 136.40(16) 1_455 1_554
O3 Ga3 O1 62.6(3) 6 2_455
O3 Ga3 O1 159.6(4) 1_554 2_455
O2 Ga3 O1 60.1(3) 2_454 2_455
O2 Ga3 O1 74.6(3) 4_455 2_455
O3 Ga3 O1 102.5(2) 4_344 2_455
O3 Ga3 O1 122.5(3) 2_465 2_455
Nb Ga3 O1 136.40(16) 1_454 2_455
Nb Ga3 O1 90.03(19) 1_455 2_455
O1 Ga3 O1 106.09(16) 1_554 2_455
O3 Ga3 O3 45.1(2) 6 5_345
O3 Ga3 O3 88.6(4) 1_554 5_345
O2 Ga3 O3 134.6(3) 2_454 5_345
O2 Ga3 O3 118.1(3) 4_455 5_345
O3 Ga3 O3 61.3(3) 4_344 5_345
O3 Ga3 O3 47.61(19) 2_465 5_345
Nb Ga3 O3 74.33(15) 1_454 5_345
Nb Ga3 O3 32.64(14) 1_455 5_345
O1 Ga3 O3 144.21(16) 1_554 5_345
O1 Ga3 O3 107.3(2) 2_455 5_345
O3 Ga3 O3 88.6(4) 6 3_464
O3 Ga3 O3 45.1(2) 1_554 3_464
O2 Ga3 O3 118.1(3) 2_454 3_464
O2 Ga3 O3 134.6(3) 4_455 3_464
O3 Ga3 O3 47.61(19) 4_344 3_464
O3 Ga3 O3 61.3(3) 2_465 3_464
Nb Ga3 O3 32.64(14) 1_454 3_464
Nb Ga3 O3 74.33(15) 1_455 3_464
O1 Ga3 O3 107.3(2) 1_554 3_464
O1 Ga3 O3 144.21(16) 2_455 3_464
O3 Ga3 O3 45.4(3) 5_345 3_464
O3 Nb O3 83.7(5) 6_655 4_445
O3 Nb O3 106.0(6) 6_655 1_655
O3 Nb O3 86.4(4) 4_445 1_655
O3 Nb O3 86.4(4) 6_655 2_565
O3 Nb O3 163.5(5) 4_445 2_565
O3 Nb O3 83.7(5) 1_655 2_565
O3 Nb O3 86.4(4) 6_655 5_445
O3 Nb O3 106.0(6) 4_445 5_445
O3 Nb O3 163.5(5) 1_655 5_445
O3 Nb O3 86.4(4) 2_565 5_445
O3 Nb O3 163.5(5) 6_655 3_565
O3 Nb O3 86.4(4) 4_445 3_565
O3 Nb O3 86.4(4) 1_655 3_565
O3 Nb O3 106.0(6) 2_565 3_565
O3 Nb O3 83.7(5) 5_445 3_565
O3 Nb Ga3 97.2(3) 6_655 1_656
O3 Nb Ga3 54.9(3) 4_445 1_656
O3 Nb Ga3 31.7(3) 1_655 1_656
O3 Nb Ga3 113.7(3) 2_565 1_656
O3 Nb Ga3 159.6(3) 5_445 1_656
O3 Nb Ga3 87.7(3) 3_565 1_656
O3 Nb Ga3 31.7(3) 6_655 1_655
O3 Nb Ga3 113.7(3) 4_445 1_655
O3 Nb Ga3 97.2(3) 1_655 1_655
O3 Nb Ga3 54.9(3) 2_565 1_655
O3 Nb Ga3 87.7(3) 5_445 1_655
O3 Nb Ga3 159.6(3) 3_565 1_655
Ga3 Nb Ga3 105.87(4) 1_656 1_655
O3 Nb Ga3 54.9(3) 6_655 4_445
O3 Nb Ga3 97.2(3) 4_445 4_445
O3 Nb Ga3 159.6(3) 1_655 4_445
O3 Nb Ga3 87.7(3) 2_565 4_445
O3 Nb Ga3 31.7(3) 5_445 4_445
O3 Nb Ga3 113.7(3) 3_565 4_445
Ga3 Nb Ga3 144.923(18) 1_656 4_445
Ga3 Nb Ga3 62.93(4) 1_655 4_445
O3 Nb Ga3 113.7(3) 6_655 4_446
O3 Nb Ga3 31.7(3) 4_445 4_446
O3 Nb Ga3 87.7(3) 1_655 4_446
O3 Nb Ga3 159.6(3) 2_565 4_446
O3 Nb Ga3 97.2(3) 5_445 4_446
O3 Nb Ga3 54.9(3) 3_565 4_446
Ga3 Nb Ga3 62.93(4) 1_656 4_446
Ga3 Nb Ga3 144.923(18) 1_655 4_446
Ga3 Nb Ga3 105.87(4) 4_445 4_446
O3 Nb Ga3 159.6(3) 6_655 2_565
O3 Nb Ga3 87.7(3) 4_445 2_565
O3 Nb Ga3 54.9(3) 1_655 2_565
O3 Nb Ga3 97.2(3) 2_565 2_565
O3 Nb Ga3 113.7(3) 5_445 2_565
O3 Nb Ga3 31.7(3) 3_565 2_565
Ga3 Nb Ga3 62.93(4) 1_656 2_565
Ga3 Nb Ga3 144.921(18) 1_655 2_565
Ga3 Nb Ga3 144.920(18) 4_445 2_565
Ga3 Nb Ga3 62.93(4) 4_446 2_565
O3 Nb Ga3 87.7(3) 6_655 2_564
O3 Nb Ga3 159.6(3) 4_445 2_564
O3 Nb Ga3 113.7(3) 1_655 2_564
O3 Nb Ga3 31.7(3) 2_565 2_564
O3 Nb Ga3 54.9(3) 5_445 2_564
O3 Nb Ga3 97.2(3) 3_565 2_564
Ga3 Nb Ga3 144.921(18) 1_656 2_564
Ga3 Nb Ga3 62.93(4) 1_655 2_564
Ga3 Nb Ga3 62.93(4) 4_445 2_564
Ga3 Nb Ga3 144.920(18) 4_446 2_564
Ga3 Nb Ga3 105.87(4) 2_565 2_564
Ga2 O1 La 110.9(3) 2_566 2_565
Ga2 O1 La 110.9(3) 2_566 .
La O1 La 108.0(3) 2_565 .
Ga2 O1 La 110.9(3) 2_566 4_455
La O1 La 108.0(3) 2_565 4_455
La O1 La 108.0(3) . 4_455
Ga2 O1 O2 146.4(2) 2_566 4_455
La O1 O2 102.2(5) 2_565 4_455
La O1 O2 51.0(3) . 4_455
La O1 O2 61.6(3) 4_455 4_455
Ga2 O1 O2 146.4(2) 2_566 .
La O1 O2 51.0(3) 2_565 .
La O1 O2 61.6(3) . .
La O1 O2 102.2(5) 4_455 .
O2 O1 O2 57.3(4) 4_455 .
Ga2 O1 O2 146.4(2) 2_566 3_565
La O1 O2 61.6(3) 2_565 3_565
La O1 O2 102.2(5) . 3_565
La O1 O2 51.0(3) 4_455 3_565
O2 O1 O2 57.3(4) 4_455 3_565
O2 O1 O2 57.3(4) . 3_565
Ga2 O1 O2 32.0(2) 2_566 1_556
La O1 O2 89.2(2) 2_565 1_556
La O1 O2 97.6(3) . 1_556
La O1 O2 142.2(5) 4_455 1_556
O2 O1 O2 148.54(11) 4_455 1_556
O2 O1 O2 114.4(3) . 1_556
O2 O1 O2 148.54(12) 3_565 1_556
Ga2 O1 O2 32.0(2) 2_566 4_456
La O1 O2 142.2(5) 2_565 4_456
La O1 O2 89.2(2) . 4_456
La O1 O2 97.6(3) 4_455 4_456
O2 O1 O2 114.4(3) 4_455 4_456
O2 O1 O2 148.54(11) . 4_456
O2 O1 O2 148.54(11) 3_565 4_456
O2 O1 O2 54.6(4) 1_556 4_456
Ga2 O1 O2 32.0(2) 2_566 3_566
La O1 O2 97.6(3) 2_565 3_566
La O1 O2 142.2(5) . 3_566
La O1 O2 89.2(2) 4_455 3_566
O2 O1 O2 148.54(11) 4_455 3_566
O2 O1 O2 148.54(12) . 3_566
O2 O1 O2 114.4(3) 3_565 3_566
O2 O1 O2 54.6(4) 1_556 3_566
O2 O1 O2 54.6(4) 4_456 3_566
Ga2 O1 O3 84.7(3) 2_566 3_565
La O1 O3 81.97(18) 2_565 3_565
La O1 O3 47.79(16) . 3_565
La O1 O3 155.6(4) 4_455 3_565
O2 O1 O3 94.9(3) 4_455 3_565
O2 O1 O3 66.2(3) . 3_565
O2 O1 O3 123.4(4) 3_565 3_565
O2 O1 O3 57.4(3) 1_556 3_565
O2 O1 O3 85.9(3) 4_456 3_565
O2 O1 O3 112.0(4) 3_566 3_565
Ga2 O1 O3 84.7(3) 2_566 4_455
La O1 O3 47.79(16) 2_565 4_455
La O1 O3 155.6(4) . 4_455
La O1 O3 81.97(18) 4_455 4_455
O2 O1 O3 123.4(4) 4_455 4_455
O2 O1 O3 94.9(3) . 4_455
O2 O1 O3 66.2(3) 3_565 4_455
O2 O1 O3 85.9(3) 1_556 4_455
O2 O1 O3 112.0(4) 4_456 4_455
O2 O1 O3 57.4(3) 3_566 4_455
O3 O1 O3 119.15(10) 3_565 4_455
Ga2 O1 O3 84.7(3) 2_566 .
La O1 O3 155.6(4) 2_565 .
La O1 O3 81.97(18) . .
La O1 O3 47.79(16) 4_455 .
O2 O1 O3 66.2(3) 4_455 .
O2 O1 O3 123.4(4) . .
O2 O1 O3 94.9(3) 3_565 .
O2 O1 O3 112.0(4) 1_556 .
O2 O1 O3 57.4(3) 4_456 .
O2 O1 O3 85.9(3) 3_566 .
O3 O1 O3 119.15(10) 3_565 .
O3 O1 O3 119.15(10) 4_455 .
Ga2 O1 Ga2 180.0 2_566 2_565
La O1 Ga2 69.1(3) 2_565 2_565
La O1 Ga2 69.1(3) . 2_565
La O1 Ga2 69.1(3) 4_455 2_565
O2 O1 Ga2 33.6(2) 4_455 2_565
O2 O1 Ga2 33.6(2) . 2_565
O2 O1 Ga2 33.6(2) 3_565 2_565
O2 O1 Ga2 148.0(2) 1_556 2_565
O2 O1 Ga2 148.0(2) 4_456 2_565
O2 O1 Ga2 148.0(2) 3_566 2_565
O3 O1 Ga2 95.3(3) 3_565 2_565
O3 O1 Ga2 95.3(3) 4_455 2_565
O3 O1 Ga2 95.3(3) . 2_565
Ga2 O1 O2 80.1(3) 2_566 5
La O1 O2 42.70(15) 2_565 5
La O1 O2 93.47(15) . 5
La O1 O2 149.2(2) 4_455 5
O2 O1 O2 124.2(3) 4_455 5
O2 O1 O2 68.3(3) . 5
O2 O1 O2 103.7(3) 3_565 5
O2 O1 O2 50.5(3) 1_556 5
O2 O1 O2 104.7(4) 4_456 5
O2 O1 O2 86.8(3) 3_566 5
O3 O1 O2 49.0(2) 3_565 5
O3 O1 O2 70.2(2) 4_455 5
O3 O1 O2 161.4(5) . 5
Ga2 O1 O2 99.9(3) 2_565 5
Ga2 O1 O2 80.1(3) 2_566 2_455
La O1 O2 149.2(2) 2_565 2_455
La O1 O2 42.70(15) . 2_455
La O1 O2 93.47(15) 4_455 2_455
O2 O1 O2 68.3(3) 4_455 2_455
O2 O1 O2 103.7(3) . 2_455
O2 O1 O2 124.2(3) 3_565 2_455
O2 O1 O2 86.8(3) 1_556 2_455
O2 O1 O2 50.5(3) 4_456 2_455
O2 O1 O2 104.7(4) 3_566 2_455
O3 O1 O2 70.2(2) 3_565 2_455
O3 O1 O2 161.4(5) 4_455 2_455
O3 O1 O2 49.0(2) . 2_455
Ga2 O1 O2 99.9(3) 2_565 2_455
O2 O1 O2 117.11(16) 5 2_455
Ga2 O1 O2 80.1(3) 2_566 6_565
La O1 O2 93.47(15) 2_565 6_565
La O1 O2 149.2(2) . 6_565
La O1 O2 42.69(15) 4_455 6_565
O2 O1 O2 103.7(3) 4_455 6_565
O2 O1 O2 124.2(3) . 6_565
O2 O1 O2 68.3(3) 3_565 6_565
O2 O1 O2 104.7(4) 1_556 6_565
O2 O1 O2 86.8(3) 4_456 6_565
O2 O1 O2 50.5(3) 3_566 6_565
O3 O1 O2 161.4(5) 3_565 6_565
O3 O1 O2 49.0(2) 4_455 6_565
O3 O1 O2 70.2(2) . 6_565
Ga2 O1 O2 99.9(3) 2_565 6_565
O2 O1 O2 117.11(16) 5 6_565
O2 O1 O2 117.11(16) 2_455 6_565
Ga2 O1 Ga3 63.0(2) 2_566 2_565
La O1 Ga3 72.71(7) 2_565 2_565
La O1 Ga3 77.89(7) . 2_565
La O1 Ga3 173.2(5) 4_455 2_565
O2 O1 Ga3 125.1(3) 4_455 2_565
O2 O1 Ga3 83.52(17) . 2_565
O2 O1 Ga3 132.1(3) 3_565 2_565
O2 O1 Ga3 31.39(17) 1_556 2_565
O2 O1 Ga3 78.7(3) 4_456 2_565
O2 O1 Ga3 84.0(3) 3_566 2_565
O3 O1 Ga3 30.64(17) 3_565 2_565
O3 O1 Ga3 94.0(2) 4_455 2_565
O3 O1 Ga3 131.6(4) . 2_565
Ga2 O1 Ga3 117.0(2) 2_565 2_565
O2 O1 Ga3 30.24(15) 5 2_565
O2 O1 Ga3 88.6(2) 2_455 2_565
O2 O1 Ga3 130.8(4) 6_565 2_565
Ga2 O1 Ga3 63.0(2) 2_566 1_556
La O1 Ga3 173.2(5) 2_565 1_556
La O1 Ga3 72.71(7) . 1_556
La O1 Ga3 77.89(7) 4_455 1_556
O2 O1 Ga3 83.52(18) 4_455 1_556
O2 O1 Ga3 132.1(3) . 1_556
O2 O1 Ga3 125.1(3) 3_565 1_556
O2 O1 Ga3 84.0(3) 1_556 1_556
O2 O1 Ga3 31.39(17) 4_456 1_556
O2 O1 Ga3 78.7(3) 3_566 1_556
O3 O1 Ga3 94.0(2) 3_565 1_556
O3 O1 Ga3 131.6(4) 4_455 1_556
O3 O1 Ga3 30.64(17) . 1_556
Ga2 O1 Ga3 117.0(2) 2_565 1_556
O2 O1 Ga3 130.8(4) 5 1_556
O2 O1 Ga3 30.24(15) 2_455 1_556
O2 O1 Ga3 88.6(2) 6_565 1_556
Ga3 O1 Ga3 101.0(3) 2_565 1_556
Ga2 O1 Ga3 63.0(2) 2_566 4_456
La O1 Ga3 77.89(7) 2_565 4_456
La O1 Ga3 173.2(5) . 4_456
La O1 Ga3 72.71(7) 4_455 4_456
O2 O1 Ga3 132.1(3) 4_455 4_456
O2 O1 Ga3 125.1(3) . 4_456
O2 O1 Ga3 83.52(17) 3_565 4_456
O2 O1 Ga3 78.7(3) 1_556 4_456
O2 O1 Ga3 84.0(3) 4_456 4_456
O2 O1 Ga3 31.39(17) 3_566 4_456
O3 O1 Ga3 131.6(4) 3_565 4_456
O3 O1 Ga3 30.64(17) 4_455 4_456
O3 O1 Ga3 94.0(2) . 4_456
Ga2 O1 Ga3 117.0(2) 2_565 4_456
O2 O1 Ga3 88.6(2) 5 4_456
O2 O1 Ga3 130.8(4) 2_455 4_456
O2 O1 Ga3 30.24(15) 6_565 4_456
Ga3 O1 Ga3 101.0(3) 2_565 4_456
Ga3 O1 Ga3 101.0(3) 1_556 4_456
Ga2 O1 O3 119.0(2) 2_566 5_445
La O1 O3 81.8(2) 2_565 5_445
La O1 O3 26.40(14) . 5_445
La O1 O3 121.2(4) 4_455 5_445
O2 O1 O3 59.6(3) 4_455 5_445
O2 O1 O3 40.2(2) . 5_445
O2 O1 O3 93.2(4) 3_565 5_445
O2 O1 O3 93.9(2) 1_556 5_445
O2 O1 O3 108.4(2) 4_456 5_445
O2 O1 O3 148.5(4) 3_566 5_445
O3 O1 O3 36.5(3) 3_565 5_445
O3 O1 O3 129.6(3) 4_455 5_445
O3 O1 O3 107.5(3) . 5_445
Ga2 O1 O3 61.0(2) 2_565 5_445
O2 O1 O3 71.40(19) 5 5_445
O2 O1 O3 68.00(19) 2_455 5_445
O2 O1 O3 160.8(5) 6_565 5_445
Ga3 O1 O3 65.61(12) 2_565 5_445
Ga3 O1 O3 98.23(13) 1_556 5_445
Ga3 O1 O3 158.46(12) 4_456 5_445
Ga2 O1 O3 119.0(2) 2_566 6_665
La O1 O3 26.40(14) 2_565 6_665
La O1 O3 121.2(4) . 6_665
La O1 O3 81.8(2) 4_455 6_665
O2 O1 O3 93.2(4) 4_455 6_665
O2 O1 O3 59.6(3) . 6_665
O2 O1 O3 40.2(2) 3_565 6_665
O2 O1 O3 108.4(2) 1_556 6_665
O2 O1 O3 148.5(4) 4_456 6_665
O2 O1 O3 93.9(2) 3_566 6_665
O3 O1 O3 107.5(3) 3_565 6_665
O3 O1 O3 36.5(3) 4_455 6_665
O3 O1 O3 129.6(3) . 6_665
Ga2 O1 O3 61.0(2) 2_565 6_665
O2 O1 O3 68.00(19) 5 6_665
O2 O1 O3 160.8(4) 2_455 6_665
O2 O1 O3 71.40(19) 6_565 6_665
Ga3 O1 O3 98.23(13) 2_565 6_665
Ga3 O1 O3 158.45(12) 1_556 6_665
Ga3 O1 O3 65.61(12) 4_456 6_665
O3 O1 O3 98.4(3) 5_445 6_665
Ga2 O1 O3 119.0(2) 2_566 2_465
La O1 O3 121.2(4) 2_565 2_465
La O1 O3 81.8(2) . 2_465
La O1 O3 26.40(14) 4_455 2_465
O2 O1 O3 40.2(2) 4_455 2_465
O2 O1 O3 93.2(4) . 2_465
O2 O1 O3 59.6(3) 3_565 2_465
O2 O1 O3 148.5(4) 1_556 2_465
O2 O1 O3 93.9(2) 4_456 2_465
O2 O1 O3 108.4(2) 3_566 2_465
O3 O1 O3 129.6(3) 3_565 2_465
O3 O1 O3 107.5(3) 4_455 2_465
O3 O1 O3 36.5(3) . 2_465
Ga2 O1 O3 61.0(2) 2_565 2_465
O2 O1 O3 160.8(4) 5 2_465
O2 O1 O3 71.40(19) 2_455 2_465
O2 O1 O3 68.00(19) 6_565 2_465
Ga3 O1 O3 158.46(12) 2_565 2_465
Ga3 O1 O3 65.61(12) 1_556 2_465
Ga3 O1 O3 98.23(13) 4_456 2_465
O3 O1 O3 98.4(3) 5_445 2_465
O3 O1 O3 98.4(3) 6_665 2_465
Ga2 O1 Ga3 137.49(12) 2_566 2_564
La O1 Ga3 52.30(19) 2_565 2_564
La O1 Ga3 57.0(2) . 2_564
La O1 Ga3 111.5(4) 4_455 2_564
O2 O1 Ga3 62.4(3) 4_455 2_564
O2 O1 Ga3 9.71(17) . 2_564
O2 O1 Ga3 66.9(3) 3_565 2_564
O2 O1 Ga3 105.65(16) 1_556 2_564
O2 O1 Ga3 140.23(19) 4_456 2_564
O2 O1 Ga3 146.89(19) 3_566 2_564
O3 O1 Ga3 56.5(2) 3_565 2_564
O3 O1 Ga3 98.8(3) 4_455 2_564
O3 O1 Ga3 127.2(3) . 2_564
Ga2 O1 Ga3 42.51(12) 2_565 2_564
O2 O1 Ga3 62.02(19) 5 2_564
O2 O1 Ga3 99.7(2) 2_455 2_564
O2 O1 Ga3 133.0(3) 6_565 2_564
Ga3 O1 Ga3 74.46(9) 2_565 2_564
Ga3 O1 Ga3 129.45(14) 1_556 2_564
Ga3 O1 Ga3 129.45(14) 4_456 2_564
O3 O1 Ga3 33.09(16) 5_445 2_564
O3 O1 Ga3 65.40(18) 6_665 2_564
O3 O1 Ga3 100.4(3) 2_465 2_564
Ga2 O1 Ga3 137.49(12) 2_566 .
La O1 Ga3 111.5(4) 2_565 .
La O1 Ga3 52.30(19) . .
La O1 Ga3 57.0(2) 4_455 .
O2 O1 Ga3 9.71(17) 4_455 .
O2 O1 Ga3 66.9(3) . .
O2 O1 Ga3 62.4(3) 3_565 .
O2 O1 Ga3 146.89(19) 1_556 .
O2 O1 Ga3 105.65(17) 4_456 .
O2 O1 Ga3 140.23(19) 3_566 .
O3 O1 Ga3 98.8(3) 3_565 .
O3 O1 Ga3 127.2(3) 4_455 .
O3 O1 Ga3 56.5(2) . .
Ga2 O1 Ga3 42.51(12) 2_565 .
O2 O1 Ga3 133.0(3) 5 .
O2 O1 Ga3 62.02(19) 2_455 .
O2 O1 Ga3 99.7(2) 6_565 .
Ga3 O1 Ga3 129.45(14) 2_565 .
Ga3 O1 Ga3 74.45(9) 1_556 .
Ga3 O1 Ga3 129.45(14) 4_456 .
O3 O1 Ga3 65.40(18) 5_445 .
O3 O1 Ga3 100.4(3) 6_665 .
O3 O1 Ga3 33.09(16) 2_465 .
Ga3 O1 Ga3 71.63(19) 2_564 .
Ga2 O1 Ga3 137.49(12) 2_566 4_455
La O1 Ga3 57.0(2) 2_565 4_455
La O1 Ga3 111.5(4) . 4_455
La O1 Ga3 52.30(19) 4_455 4_455
O2 O1 Ga3 66.9(3) 4_455 4_455
O2 O1 Ga3 62.4(3) . 4_455
O2 O1 Ga3 9.71(17) 3_565 4_455
O2 O1 Ga3 140.23(19) 1_556 4_455
O2 O1 Ga3 146.89(19) 4_456 4_455
O2 O1 Ga3 105.65(16) 3_566 4_455
O3 O1 Ga3 127.2(3) 3_565 4_455
O3 O1 Ga3 56.5(2) 4_455 4_455
O3 O1 Ga3 98.8(3) . 4_455
Ga2 O1 Ga3 42.51(12) 2_565 4_455
O2 O1 Ga3 99.7(2) 5 4_455
O2 O1 Ga3 133.0(3) 2_455 4_455
O2 O1 Ga3 62.02(19) 6_565 4_455
Ga3 O1 Ga3 129.45(14) 2_565 4_455
Ga3 O1 Ga3 129.45(14) 1_556 4_455
Ga3 O1 Ga3 74.45(9) 4_456 4_455
O3 O1 Ga3 100.4(3) 5_445 4_455
O3 O1 Ga3 33.09(16) 6_665 4_455
O3 O1 Ga3 65.40(18) 2_465 4_455
Ga3 O1 Ga3 71.63(19) 2_564 4_455
Ga3 O1 Ga3 71.63(19) . 4_455
Ga2 O1 Ga1 101.16(17) 2_566 .
La O1 Ga1 71.33(8) 2_565 .
La O1 Ga1 45.02(3) . .
La O1 Ga1 145.1(4) 4_455 .
O2 O1 Ga1 84.0(3) 4_455 .
O2 O1 Ga1 48.90(18) . .
O2 O1 Ga1 106.2(3) 3_565 .
O2 O1 Ga1 71.90(17) 1_556 .
O2 O1 Ga1 102.6(2) 4_456 .
O2 O1 Ga1 125.8(3) 3_566 .
O3 O1 Ga1 17.3(2) 3_565 .
O3 O1 Ga1 115.33(18) 4_455 .
O3 O1 Ga1 125.51(18) . .
Ga2 O1 Ga1 78.85(17) 2_565 .
O2 O1 Ga1 48.59(15) 5 .
O2 O1 Ga1 78.38(14) 2_455 .
O2 O1 Ga1 164.27(15) 6_565 .
Ga3 O1 Ga1 41.76(3) 2_565 .
Ga3 O1 Ga1 106.01(6) 1_556 .
Ga3 O1 Ga1 137.16(13) 4_456 .
O3 O1 Ga1 24.60(10) 5_445 .
O3 O1 Ga1 94.77(16) 6_665 .
O3 O1 Ga1 123.0(3) 2_465 .
Ga3 O1 Ga1 39.23(6) 2_564 .
Ga3 O1 Ga1 90.00(16) . .
Ga3 O1 Ga1 110.3(2) 4_455 .
Ga2 O1 Nb 101.16(17) 2_566 .
La O1 Nb 71.33(8) 2_565 .
La O1 Nb 45.02(3) . .
La O1 Nb 145.1(4) 4_455 .
O2 O1 Nb 84.0(3) 4_455 .
O2 O1 Nb 48.90(18) . .
O2 O1 Nb 106.2(3) 3_565 .
O2 O1 Nb 71.90(17) 1_556 .
O2 O1 Nb 102.6(2) 4_456 .
O2 O1 Nb 125.8(3) 3_566 .
O3 O1 Nb 17.3(2) 3_565 .
O3 O1 Nb 115.33(18) 4_455 .
O3 O1 Nb 125.51(18) . .
Ga2 O1 Nb 78.85(17) 2_565 .
O2 O1 Nb 48.59(15) 5 .
O2 O1 Nb 78.38(14) 2_455 .
O2 O1 Nb 164.27(15) 6_565 .
Ga3 O1 Nb 41.76(3) 2_565 .
Ga3 O1 Nb 106.01(6) 1_556 .
Ga3 O1 Nb 137.16(13) 4_456 .
O3 O1 Nb 24.60(10) 5_445 .
O3 O1 Nb 94.77(16) 6_665 .
O3 O1 Nb 123.0(3) 2_465 .
Ga3 O1 Nb 39.23(6) 2_564 .
Ga3 O1 Nb 90.00(16) . .
Ga3 O1 Nb 110.3(2) 4_455 .
Ga1 O1 Nb 0.0 . .
Ga2 O1 Ga1 101.15(17) 2_566 1_455
La O1 Ga1 145.0(4) 2_565 1_455
La O1 Ga1 71.33(8) . 1_455
La O1 Ga1 45.02(3) 4_455 1_455
O2 O1 Ga1 48.90(18) 4_455 1_455
O2 O1 Ga1 106.2(3) . 1_455
O2 O1 Ga1 84.0(3) 3_565 1_455
O2 O1 Ga1 125.7(3) 1_556 1_455
O2 O1 Ga1 71.90(17) 4_456 1_455
O2 O1 Ga1 102.6(2) 3_566 1_455
O3 O1 Ga1 115.33(18) 3_565 1_455
O3 O1 Ga1 125.51(18) 4_455 1_455
O3 O1 Ga1 17.3(2) . 1_455
Ga2 O1 Ga1 78.85(17) 2_565 1_455
O2 O1 Ga1 164.27(15) 5 1_455
O2 O1 Ga1 48.59(15) 2_455 1_455
O2 O1 Ga1 78.38(14) 6_565 1_455
Ga3 O1 Ga1 137.16(13) 2_565 1_455
Ga3 O1 Ga1 41.76(3) 1_556 1_455
Ga3 O1 Ga1 106.01(6) 4_456 1_455
O3 O1 Ga1 94.77(17) 5_445 1_455
O3 O1 Ga1 123.0(3) 6_665 1_455
O3 O1 Ga1 24.60(10) 2_465 1_455
Ga3 O1 Ga1 110.3(2) 2_564 1_455
Ga3 O1 Ga1 39.23(6) . 1_455
Ga3 O1 Ga1 90.00(16) 4_455 1_455
Ga1 O1 Ga1 116.35(11) . 1_455
Nb O1 Ga1 116.35(11) . 1_455
Ga2 O1 Nb 101.15(17) 2_566 1_455
La O1 Nb 145.0(4) 2_565 1_455
La O1 Nb 71.33(8) . 1_455
La O1 Nb 45.02(3) 4_455 1_455
O2 O1 Nb 48.90(18) 4_455 1_455
O2 O1 Nb 106.2(3) . 1_455
O2 O1 Nb 84.0(3) 3_565 1_455
O2 O1 Nb 125.7(3) 1_556 1_455
O2 O1 Nb 71.90(17) 4_456 1_455
O2 O1 Nb 102.6(2) 3_566 1_455
O3 O1 Nb 115.33(18) 3_565 1_455
O3 O1 Nb 125.51(18) 4_455 1_455
O3 O1 Nb 17.3(2) . 1_455
Ga2 O1 Nb 78.85(17) 2_565 1_455
O2 O1 Nb 164.27(15) 5 1_455
O2 O1 Nb 48.59(15) 2_455 1_455
O2 O1 Nb 78.38(14) 6_565 1_455
Ga3 O1 Nb 137.16(13) 2_565 1_455
Ga3 O1 Nb 41.76(3) 1_556 1_455
Ga3 O1 Nb 106.01(6) 4_456 1_455
O3 O1 Nb 94.77(17) 5_445 1_455
O3 O1 Nb 123.0(3) 6_665 1_455
O3 O1 Nb 24.60(10) 2_465 1_455
Ga3 O1 Nb 110.3(2) 2_564 1_455
Ga3 O1 Nb 39.23(6) . 1_455
Ga3 O1 Nb 90.00(16) 4_455 1_455
Ga1 O1 Nb 116.35(11) . 1_455
Nb O1 Nb 116.35(11) . 1_455
Ga1 O1 Nb 0.0 1_455 1_455
Ga2 O1 Ga1 101.15(17) 2_566 1_565
La O1 Ga1 45.02(3) 2_565 1_565
La O1 Ga1 145.1(4) . 1_565
La O1 Ga1 71.33(8) 4_455 1_565
O2 O1 Ga1 106.2(3) 4_455 1_565
O2 O1 Ga1 84.0(3) . 1_565
O2 O1 Ga1 48.90(18) 3_565 1_565
O2 O1 Ga1 102.6(2) 1_556 1_565
O2 O1 Ga1 125.7(3) 4_456 1_565
O2 O1 Ga1 71.90(17) 3_566 1_565
O3 O1 Ga1 125.51(18) 3_565 1_565
O3 O1 Ga1 17.3(2) 4_455 1_565
O3 O1 Ga1 115.33(18) . 1_565
Ga2 O1 Ga1 78.85(17) 2_565 1_565
O2 O1 Ga1 78.38(14) 5 1_565
O2 O1 Ga1 164.27(15) 2_455 1_565
O2 O1 Ga1 48.59(15) 6_565 1_565
Ga3 O1 Ga1 106.01(6) 2_565 1_565
Ga3 O1 Ga1 137.16(13) 1_556 1_565
Ga3 O1 Ga1 41.76(3) 4_456 1_565
O3 O1 Ga1 123.0(3) 5_445 1_565
O3 O1 Ga1 24.60(10) 6_665 1_565
O3 O1 Ga1 94.77(17) 2_465 1_565
Ga3 O1 Ga1 90.00(16) 2_564 1_565
Ga3 O1 Ga1 110.3(2) . 1_565
Ga3 O1 Ga1 39.23(6) 4_455 1_565
Ga1 O1 Ga1 116.35(11) . 1_565
Nb O1 Ga1 116.35(11) . 1_565
Ga1 O1 Ga1 116.35(11) 1_455 1_565
Nb O1 Ga1 116.35(11) 1_455 1_565
Ga2 O1 Nb 101.15(17) 2_566 1_565
La O1 Nb 45.02(3) 2_565 1_565
La O1 Nb 145.1(4) . 1_565
La O1 Nb 71.33(8) 4_455 1_565
O2 O1 Nb 106.2(3) 4_455 1_565
O2 O1 Nb 84.0(3) . 1_565
O2 O1 Nb 48.90(18) 3_565 1_565
O2 O1 Nb 102.6(2) 1_556 1_565
O2 O1 Nb 125.7(3) 4_456 1_565
O2 O1 Nb 71.90(17) 3_566 1_565
O3 O1 Nb 125.51(18) 3_565 1_565
O3 O1 Nb 17.3(2) 4_455 1_565
O3 O1 Nb 115.33(18) . 1_565
Ga2 O1 Nb 78.85(17) 2_565 1_565
O2 O1 Nb 78.38(14) 5 1_565
O2 O1 Nb 164.27(15) 2_455 1_565
O2 O1 Nb 48.59(15) 6_565 1_565
Ga3 O1 Nb 106.01(6) 2_565 1_565
Ga3 O1 Nb 137.16(13) 1_556 1_565
Ga3 O1 Nb 41.76(3) 4_456 1_565
O3 O1 Nb 123.0(3) 5_445 1_565
O3 O1 Nb 24.60(10) 6_665 1_565
O3 O1 Nb 94.77(17) 2_465 1_565
Ga3 O1 Nb 90.00(16) 2_564 1_565
Ga3 O1 Nb 110.3(2) . 1_565
Ga3 O1 Nb 39.23(6) 4_455 1_565
Ga1 O1 Nb 116.35(11) . 1_565
Nb O1 Nb 116.35(11) . 1_565
Ga1 O1 Nb 116.35(11) 1_455 1_565
Nb O1 Nb 116.35(11) 1_455 1_565
Ga1 O1 Nb 0.0 1_565 1_565
Ga2 O1 La 30.19(9) 2_566 1_556
La O1 La 122.9(3) 2_565 1_556
La O1 La 80.7(2) . 1_556
La O1 La 122.9(3) 4_455 1_556
O2 O1 La 122.78(17) 4_455 1_556
O2 O1 La 128.61(18) . 1_556
O2 O1 La 173.8(2) 3_565 1_556
O2 O1 La 34.4(2) 1_556 1_556
O2 O1 La 25.3(2) 4_456 1_556
O2 O1 La 61.9(3) 3_566 1_556
O3 O1 La 62.6(3) 3_565 1_556
O3 O1 La 113.1(4) 4_455 1_556
O3 O1 La 80.0(3) . 1_556
Ga2 O1 La 149.81(9) 2_565 1_556
O2 O1 La 81.4(3) 5 1_556
O2 O1 La 54.7(2) 2_455 1_556
O2 O1 La 106.3(3) 6_565 1_556
Ga3 O1 La 53.70(16) 2_565 1_556
Ga3 O1 La 50.27(15) 1_556 1_556
Ga3 O1 La 93.2(3) 4_456 1_556
O3 O1 La 91.77(16) 5_445 1_556
O3 O1 La 142.3(3) 6_665 1_556
O3 O1 La 115.88(16) 2_465 1_556
Ga3 O1 La 119.05(4) 2_564 1_556
Ga3 O1 La 116.73(4) . 1_556
Ga3 O1 La 167.5(2) 4_455 1_556
Ga1 O1 La 79.86(10) . 1_556
Nb O1 La 79.86(10) . 1_556
Ga1 O1 La 91.84(12) 1_455 1_556
Nb O1 La 91.84(12) 1_455 1_556
Ga1 O1 La 130.2(3) 1_565 1_556
Nb O1 La 130.2(3) 1_565 1_556
Ga2 O1 La 30.19(9) 2_566 2_566
La O1 La 80.7(2) 2_565 2_566
La O1 La 122.9(3) . 2_566
La O1 La 122.9(3) 4_455 2_566
O2 O1 La 173.8(2) 4_455 2_566
O2 O1 La 122.78(17) . 2_566
O2 O1 La 128.61(18) 3_565 2_566
O2 O1 La 25.3(2) 1_556 2_566
O2 O1 La 61.9(3) 4_456 2_566
O2 O1 La 34.4(2) 3_566 2_566
O3 O1 La 80.0(3) 3_565 2_566
O3 O1 La 62.6(3) 4_455 2_566
O3 O1 La 113.1(4) . 2_566
Ga2 O1 La 149.81(9) 2_565 2_566
O2 O1 La 54.7(2) 5 2_566
O2 O1 La 106.3(3) 2_455 2_566
O2 O1 La 81.4(3) 6_565 2_566
Ga3 O1 La 50.27(15) 2_565 2_566
Ga3 O1 La 93.2(3) 1_556 2_566
Ga3 O1 La 53.70(16) 4_456 2_566
O3 O1 La 115.88(16) 5_445 2_566
O3 O1 La 91.77(17) 6_665 2_566
O3 O1 La 142.3(3) 2_465 2_566
Ga3 O1 La 116.73(4) 2_564 2_566
Ga3 O1 La 167.5(2) . 2_566
Ga3 O1 La 119.04(4) 4_455 2_566
Ga1 O1 La 91.84(12) . 2_566
Nb O1 La 91.84(12) . 2_566
Ga1 O1 La 130.2(3) 1_455 2_566
Nb O1 La 130.2(3) 1_455 2_566
Ga1 O1 La 79.86(10) 1_565 2_566
Nb O1 La 79.86(10) 1_565 2_566
La O1 La 51.63(15) 1_556 2_566
Ga2 O1 La 30.18(9) 2_566 4_456
La O1 La 122.9(3) 2_565 4_456
La O1 La 122.9(3) . 4_456
La O1 La 80.7(2) 4_455 4_456
O2 O1 La 128.61(18) 4_455 4_456
O2 O1 La 173.8(2) . 4_456
O2 O1 La 122.78(17) 3_565 4_456
O2 O1 La 61.9(3) 1_556 4_456
O2 O1 La 34.4(2) 4_456 4_456
O2 O1 La 25.3(2) 3_566 4_456
O3 O1 La 113.1(4) 3_565 4_456
O3 O1 La 80.0(3) 4_455 4_456
O3 O1 La 62.6(3) . 4_456
Ga2 O1 La 149.81(9) 2_565 4_456
O2 O1 La 106.3(3) 5 4_456
O2 O1 La 81.4(3) 2_455 4_456
O2 O1 La 54.7(2) 6_565 4_456
Ga3 O1 La 93.2(3) 2_565 4_456
Ga3 O1 La 53.70(16) 1_556 4_456
Ga3 O1 La 50.27(15) 4_456 4_456
O3 O1 La 142.3(3) 5_445 4_456
O3 O1 La 115.88(17) 6_665 4_456
O3 O1 La 91.77(17) 2_465 4_456
Ga3 O1 La 167.5(2) 2_564 4_456
Ga3 O1 La 119.04(4) . 4_456
Ga3 O1 La 116.73(4) 4_455 4_456
Ga1 O1 La 130.2(3) . 4_456
Nb O1 La 130.2(3) . 4_456
Ga1 O1 La 79.86(10) 1_455 4_456
Nb O1 La 79.86(10) 1_455 4_456
Ga1 O1 La 91.84(12) 1_565 4_456
Nb O1 La 91.84(12) 1_565 4_456
La O1 La 51.63(15) 1_556 4_456
La O1 La 51.63(14) 2_566 4_456
Ga2 O1 O2 82.7(2) 2_566 6
La O1 O2 115.24(12) 2_565 6
La O1 O2 28.73(17) . 6
La O1 O2 125.86(14) 4_455 6
O2 O1 O2 78.3(2) 4_455 6
O2 O1 O2 82.3(3) . 6
O2 O1 O2 130.8(3) 3_565 6
O2 O1 O2 70.4(3) 1_556 6
O2 O1 O2 66.3(2) 4_456 6
O2 O1 O2 114.6(4) 3_566 6
O3 O1 O2 34.8(2) 3_565 6
O3 O1 O2 152.1(3) 4_455 6
O3 O1 O2 84.4(2) . 6
Ga2 O1 O2 97.3(2) 2_565 6
O2 O1 O2 83.1(2) 5 6
O2 O1 O2 35.4(2) 2_455 6
O2 O1 O2 150.4(3) 6_565 6
Ga3 O1 O2 58.08(11) 2_565 6
Ga3 O1 O2 62.01(12) 1_556 6
Ga3 O1 O2 145.7(4) 4_456 6
O3 O1 O2 42.08(17) 5_445 6
O3 O1 O2 138.2(2) 6_665 6
O3 O1 O2 100.39(17) 2_465 6
Ga3 O1 O2 74.67(13) 2_564 6
Ga3 O1 O2 77.33(14) . 6
Ga3 O1 O2 139.7(3) 4_455 6
Ga1 O1 O2 44.03(10) . 6
Nb O1 O2 44.03(10) . 6
Ga1 O1 O2 81.50(10) 1_455 6
Nb O1 O2 81.50(10) 1_455 6
Ga1 O1 O2 160.07(12) 1_565 6
Nb O1 O2 160.07(12) 1_565 6
La O1 O2 52.74(14) 1_556 6
La O1 O2 95.5(2) 2_566 6
La O1 O2 100.5(2) 4_456 6
Ga2 O1 O2 82.7(2) 2_566 2_565
La O1 O2 28.73(17) 2_565 2_565
La O1 O2 125.86(14) . 2_565
La O1 O2 115.24(12) 4_455 2_565
O2 O1 O2 130.8(3) 4_455 2_565
O2 O1 O2 78.3(2) . 2_565
O2 O1 O2 82.3(3) 3_565 2_565
O2 O1 O2 66.3(2) 1_556 2_565
O2 O1 O2 114.6(4) 4_456 2_565
O2 O1 O2 70.4(3) 3_566 2_565
O3 O1 O2 84.4(2) 3_565 2_565
O3 O1 O2 34.8(2) 4_455 2_565
O3 O1 O2 152.1(3) . 2_565
Ga2 O1 O2 97.3(2) 2_565 2_565
O2 O1 O2 35.4(2) 5 2_565
O2 O1 O2 150.4(3) 2_455 2_565
O2 O1 O2 83.1(2) 6_565 2_565
Ga3 O1 O2 62.01(12) 2_565 2_565
Ga3 O1 O2 145.7(4) 1_556 2_565
Ga3 O1 O2 58.08(11) 4_456 2_565
O3 O1 O2 100.39(17) 5_445 2_565
O3 O1 O2 42.08(17) 6_665 2_565
O3 O1 O2 138.2(2) 2_465 2_565
Ga3 O1 O2 77.33(14) 2_564 2_565
Ga3 O1 O2 139.7(3) . 2_565
Ga3 O1 O2 74.67(13) 4_455 2_565
Ga1 O1 O2 81.50(10) . 2_565
Nb O1 O2 81.50(10) . 2_565
Ga1 O1 O2 160.07(12) 1_455 2_565
Nb O1 O2 160.07(12) 1_455 2_565
Ga1 O1 O2 44.03(10) 1_565 2_565
Nb O1 O2 44.03(10) 1_565 2_565
La O1 O2 100.5(2) 1_556 2_565
La O1 O2 52.74(14) 2_566 2_565
La O1 O2 95.5(2) 4_456 2_565
O2 O1 O2 118.43(9) 6 2_565
Ga2 O1 O2 82.7(2) 2_566 5_455
La O1 O2 125.86(14) 2_565 5_455
La O1 O2 115.24(13) . 5_455
La O1 O2 28.73(17) 4_455 5_455
O2 O1 O2 82.3(3) 4_455 5_455
O2 O1 O2 130.8(3) . 5_455
O2 O1 O2 78.3(2) 3_565 5_455
O2 O1 O2 114.6(4) 1_556 5_455
O2 O1 O2 70.4(3) 4_456 5_455
O2 O1 O2 66.3(2) 3_566 5_455
O3 O1 O2 152.1(3) 3_565 5_455
O3 O1 O2 84.4(2) 4_455 5_455
O3 O1 O2 34.8(2) . 5_455
Ga2 O1 O2 97.3(2) 2_565 5_455
O2 O1 O2 150.4(3) 5 5_455
O2 O1 O2 83.1(2) 2_455 5_455
O2 O1 O2 35.4(2) 6_565 5_455
Ga3 O1 O2 145.7(4) 2_565 5_455
Ga3 O1 O2 58.08(11) 1_556 5_455
Ga3 O1 O2 62.01(12) 4_456 5_455
O3 O1 O2 138.2(2) 5_445 5_455
O3 O1 O2 100.39(17) 6_665 5_455
O3 O1 O2 42.08(17) 2_465 5_455
Ga3 O1 O2 139.7(3) 2_564 5_455
Ga3 O1 O2 74.67(13) . 5_455
Ga3 O1 O2 77.33(14) 4_455 5_455
Ga1 O1 O2 160.07(12) . 5_455
Nb O1 O2 160.07(12) . 5_455
Ga1 O1 O2 44.03(10) 1_455 5_455
Nb O1 O2 44.03(10) 1_455 5_455
Ga1 O1 O2 81.50(10) 1_565 5_455
Nb O1 O2 81.50(10) 1_565 5_455
La O1 O2 95.5(2) 1_556 5_455
La O1 O2 100.5(2) 2_566 5_455
La O1 O2 52.74(14) 4_456 5_455
O2 O1 O2 118.43(9) 6 5_455
O2 O1 O2 118.43(9) 2_565 5_455
Ga2 O1 O3 52.72(17) 2_566 5_446
La O1 O3 104.17(17) 2_565 5_446
La O1 O3 63.83(19) . 5_446
La O1 O3 147.7(3) 4_455 5_446
O2 O1 O3 114.4(2) 4_455 5_446
O2 O1 O3 100.2(2) . 5_446
O2 O1 O3 157.4(3) 3_565 5_446
O2 O1 O3 34.2(2) 1_556 5_446
O2 O1 O3 53.0(2) 4_456 5_446
O2 O1 O3 83.5(3) 3_566 5_446
O3 O1 O3 34.1(3) 3_565 5_446
O3 O1 O3 118.9(3) 4_455 5_446
O3 O1 O3 100.2(3) . 5_446
Ga2 O1 O3 127.28(17) 2_565 5_446
O2 O1 O3 61.9(2) 5 5_446
O2 O1 O3 58.6(2) 2_455 5_446
O2 O1 O3 132.8(4) 6_565 5_446
Ga3 O1 O3 31.70(12) 2_565 5_446
Ga3 O1 O3 69.84(19) 1_556 5_446
Ga3 O1 O3 111.8(3) 4_456 5_446
O3 O1 O3 66.32(13) 5_445 5_446
O3 O1 O3 129.93(8) 6_665 5_446
O3 O1 O3 129.93(8) 2_465 5_446
Ga3 O1 O3 90.56(11) 2_564 5_446
Ga3 O1 O3 113.17(10) . 5_446
Ga3 O1 O3 159.46(16) 4_455 5_446
Ga1 O1 O3 51.32(12) . 5_446
Nb O1 O3 51.32(12) . 5_446
Ga1 O1 O3 106.16(14) 1_455 5_446
Nb O1 O3 106.16(14) 1_455 5_446
Ga1 O1 O3 134.28(19) 1_565 5_446
Nb O1 O3 134.28(19) 1_565 5_446
La O1 O3 28.66(13) 1_556 5_446
La O1 O3 59.45(17) 2_566 5_446
La O1 O3 79.3(2) 4_456 5_446
O2 O1 O3 36.12(16) 6 5_446
O2 O1 O3 91.83(19) 2_565 5_446
O2 O1 O3 123.1(3) 5_455 5_446
Ga2 O1 O3 52.72(17) 2_566 6_666
La O1 O3 63.83(19) 2_565 6_666
La O1 O3 147.7(3) . 6_666
La O1 O3 104.17(17) 4_455 6_666
O2 O1 O3 157.4(3) 4_455 6_666
O2 O1 O3 114.4(2) . 6_666
O2 O1 O3 100.2(2) 3_565 6_666
O2 O1 O3 53.0(2) 1_556 6_666
O2 O1 O3 83.5(3) 4_456 6_666
O2 O1 O3 34.2(2) 3_566 6_666
O3 O1 O3 100.2(3) 3_565 6_666
O3 O1 O3 34.1(3) 4_455 6_666
O3 O1 O3 118.9(3) . 6_666
Ga2 O1 O3 127.28(17) 2_565 6_666
O2 O1 O3 58.6(2) 5 6_666
O2 O1 O3 132.8(4) 2_455 6_666
O2 O1 O3 61.9(2) 6_565 6_666
Ga3 O1 O3 69.84(19) 2_565 6_666
Ga3 O1 O3 111.8(3) 1_556 6_666
Ga3 O1 O3 31.70(12) 4_456 6_666
O3 O1 O3 129.93(8) 5_445 6_666
O3 O1 O3 66.32(14) 6_665 6_666
O3 O1 O3 129.93(8) 2_465 6_666
Ga3 O1 O3 113.17(10) 2_564 6_666
Ga3 O1 O3 159.46(17) . 6_666
Ga3 O1 O3 90.56(11) 4_455 6_666
Ga1 O1 O3 106.16(14) . 6_666
Nb O1 O3 106.16(14) . 6_666
Ga1 O1 O3 134.27(19) 1_455 6_666
Nb O1 O3 134.27(19) 1_455 6_666
Ga1 O1 O3 51.32(12) 1_565 6_666
Nb O1 O3 51.32(12) 1_565 6_666
La O1 O3 79.3(2) 1_556 6_666
La O1 O3 28.66(13) 2_566 6_666
La O1 O3 59.45(17) 4_456 6_666
O2 O1 O3 123.1(3) 6 6_666
O2 O1 O3 36.12(16) 2_565 6_666
O2 O1 O3 91.83(19) 5_455 6_666
O3 O1 O3 87.1(2) 5_446 6_666
Ga2 O1 O3 52.72(17) 2_566 2_466
La O1 O3 147.7(3) 2_565 2_466
La O1 O3 104.17(17) . 2_466
La O1 O3 63.83(19) 4_455 2_466
O2 O1 O3 100.2(2) 4_455 2_466
O2 O1 O3 157.4(3) . 2_466
O2 O1 O3 114.4(2) 3_565 2_466
O2 O1 O3 83.5(3) 1_556 2_466
O2 O1 O3 34.2(2) 4_456 2_466
O2 O1 O3 53.0(2) 3_566 2_466
O3 O1 O3 118.9(3) 3_565 2_466
O3 O1 O3 100.2(3) 4_455 2_466
O3 O1 O3 34.1(3) . 2_466
Ga2 O1 O3 127.28(17) 2_565 2_466
O2 O1 O3 132.8(4) 5 2_466
O2 O1 O3 61.9(2) 2_455 2_466
O2 O1 O3 58.6(2) 6_565 2_466
Ga3 O1 O3 111.8(3) 2_565 2_466
Ga3 O1 O3 31.70(12) 1_556 2_466
Ga3 O1 O3 69.84(19) 4_456 2_466
O3 O1 O3 129.93(8) 5_445 2_466
O3 O1 O3 129.93(8) 6_665 2_466
O3 O1 O3 66.32(13) 2_465 2_466
Ga3 O1 O3 159.46(17) 2_564 2_466
Ga3 O1 O3 90.56(11) . 2_466
Ga3 O1 O3 113.17(10) 4_455 2_466
Ga1 O1 O3 134.28(19) . 2_466
Nb O1 O3 134.28(19) . 2_466
Ga1 O1 O3 51.32(12) 1_455 2_466
Nb O1 O3 51.32(12) 1_455 2_466
Ga1 O1 O3 106.16(14) 1_565 2_466
Nb O1 O3 106.16(14) 1_565 2_466
La O1 O3 59.45(17) 1_556 2_466
La O1 O3 79.3(2) 2_566 2_466
La O1 O3 28.66(13) 4_456 2_466
O2 O1 O3 91.83(19) 6 2_466
O2 O1 O3 123.1(3) 2_565 2_466
O2 O1 O3 36.12(16) 5_455 2_466
O3 O1 O3 87.1(2) 5_446 2_466
O3 O1 O3 87.1(2) 6_666 2_466
Ga2 O1 O3 115.88(18) 2_566 2_565
La O1 O3 49.91(14) 2_565 2_565
La O1 O3 59.72(16) . 2_565
La O1 O3 132.9(5) 4_455 2_565
O2 O1 O3 81.5(3) 4_455 2_565
O2 O1 O3 30.7(2) . 2_565
O2 O1 O3 85.3(3) 3_565 2_565
O2 O1 O3 83.98(19) 1_556 2_565
O2 O1 O3 125.2(2) 4_456 2_565
O2 O1 O3 129.7(3) 3_566 2_565
O3 O1 O3 39.4(3) 3_565 2_565
O3 O1 O3 97.0(2) 4_455 2_565
O3 O1 O3 140.6(3) . 2_565
Ga2 O1 O3 64.13(18) 2_565 2_565
O2 O1 O3 43.0(2) 5 2_565
O2 O1 O3 99.26(19) 2_455 2_565
O2 O1 O3 142.8(2) 6_565 2_565
Ga3 O1 O3 52.87(12) 2_565 2_565
Ga3 O1 O3 128.55(9) 1_556 2_565
Ga3 O1 O3 125.03(10) 4_456 2_565
O3 O1 O3 33.5(2) 5_445 2_565
O3 O1 O3 71.5(2) 6_665 2_565
O3 O1 O3 121.1(4) 2_465 2_565
Ga3 O1 O3 21.68(11) 2_564 2_565
Ga3 O1 O3 90.0(2) . 2_565
Ga3 O1 O3 87.9(2) 4_455 2_565
Ga1 O1 O3 23.66(9) . 2_565
Nb O1 O3 23.66(9) . 2_565
Ga1 O1 O3 126.0(2) 1_455 2_565
Nb O1 O3 126.0(2) 1_455 2_565
Ga1 O1 O3 94.29(15) 1_565 2_565
Nb O1 O3 94.29(15) 1_565 2_565
La O1 O3 100.93(13) 1_556 2_565
La O1 O3 96.57(13) 2_566 2_565
La O1 O3 145.8(3) 4_456 2_565
O2 O1 O3 66.81(14) 6 2_565
O2 O1 O3 67.13(14) 2_565 2_565
O2 O1 O3 161.4(4) 5_455 2_565
O3 O1 O3 72.41(12) 5_446 2_565
O3 O1 O3 99.70(16) 6_666 2_565
O3 O1 O3 157.9(2) 2_466 2_565
Ga2 O1 O3 115.87(18) 2_566 6
La O1 O3 132.9(5) 2_565 6
La O1 O3 49.91(14) . 6
La O1 O3 59.72(15) 4_455 6
O2 O1 O3 30.7(2) 4_455 6
O2 O1 O3 85.3(3) . 6
O2 O1 O3 81.5(3) 3_565 6
O2 O1 O3 129.7(3) 1_556 6
O2 O1 O3 83.98(19) 4_456 6
O2 O1 O3 125.2(3) 3_566 6
O3 O1 O3 97.0(2) 3_565 6
O3 O1 O3 140.6(3) 4_455 6
O3 O1 O3 39.4(3) . 6
Ga2 O1 O3 64.13(18) 2_565 6
O2 O1 O3 142.8(2) 5 6
O2 O1 O3 43.0(2) 2_455 6
O2 O1 O3 99.26(19) 6_565 6
Ga3 O1 O3 125.03(10) 2_565 6
Ga3 O1 O3 52.87(12) 1_556 6
Ga3 O1 O3 128.55(9) 4_456 6
O3 O1 O3 71.5(2) 5_445 6
O3 O1 O3 121.1(4) 6_665 6
O3 O1 O3 33.5(2) 2_465 6
Ga3 O1 O3 87.9(2) 2_564 6
Ga3 O1 O3 21.68(11) . 6
Ga3 O1 O3 90.0(2) 4_455 6
Ga1 O1 O3 94.29(15) . 6
Nb O1 O3 94.29(15) . 6
Ga1 O1 O3 23.66(9) 1_455 6
Nb O1 O3 23.66(9) 1_455 6
Ga1 O1 O3 126.0(2) 1_565 6
Nb O1 O3 126.0(2) 1_565 6
La O1 O3 96.57(13) 1_556 6
La O1 O3 145.8(3) 2_566 6
La O1 O3 100.93(13) 4_456 6
O2 O1 O3 67.13(14) 6 6
O2 O1 O3 161.4(4) 2_565 6
O2 O1 O3 66.81(14) 5_455 6
O3 O1 O3 99.69(16) 5_446 6
O3 O1 O3 157.9(2) 6_666 6
O3 O1 O3 72.41(12) 2_466 6
O3 O1 O3 102.4(2) 2_565 6
Ga2 O1 O3 115.87(18) 2_566 5_455
La O1 O3 59.72(15) 2_565 5_455
La O1 O3 132.9(5) . 5_455
La O1 O3 49.91(14) 4_455 5_455
O2 O1 O3 85.3(3) 4_455 5_455
O2 O1 O3 81.5(3) . 5_455
O2 O1 O3 30.7(2) 3_565 5_455
O2 O1 O3 125.2(2) 1_556 5_455
O2 O1 O3 129.7(3) 4_456 5_455
O2 O1 O3 83.98(19) 3_566 5_455
O3 O1 O3 140.6(3) 3_565 5_455
O3 O1 O3 39.4(3) 4_455 5_455
O3 O1 O3 97.0(2) . 5_455
Ga2 O1 O3 64.13(18) 2_565 5_455
O2 O1 O3 99.26(19) 5 5_455
O2 O1 O3 142.8(2) 2_455 5_455
O2 O1 O3 43.0(2) 6_565 5_455
Ga3 O1 O3 128.55(9) 2_565 5_455
Ga3 O1 O3 125.03(10) 1_556 5_455
Ga3 O1 O3 52.87(12) 4_456 5_455
O3 O1 O3 121.1(4) 5_445 5_455
O3 O1 O3 33.5(2) 6_665 5_455
O3 O1 O3 71.5(2) 2_465 5_455
Ga3 O1 O3 90.0(2) 2_564 5_455
Ga3 O1 O3 87.9(2) . 5_455
Ga3 O1 O3 21.68(11) 4_455 5_455
Ga1 O1 O3 126.0(2) . 5_455
Nb O1 O3 126.0(2) . 5_455
Ga1 O1 O3 94.29(15) 1_455 5_455
Nb O1 O3 94.29(15) 1_455 5_455
Ga1 O1 O3 23.66(9) 1_565 5_455
Nb O1 O3 23.66(9) 1_565 5_455
La O1 O3 145.8(3) 1_556 5_455
La O1 O3 100.93(13) 2_566 5_455
La O1 O3 96.57(13) 4_456 5_455
O2 O1 O3 161.4(4) 6 5_455
O2 O1 O3 66.81(14) 2_565 5_455
O2 O1 O3 67.13(14) 5_455 5_455
O3 O1 O3 157.9(2) 5_446 5_455
O3 O1 O3 72.41(12) 6_666 5_455
O3 O1 O3 99.69(16) 2_466 5_455
O3 O1 O3 102.4(2) 2_565 5_455
O3 O1 O3 102.4(2) 6 5_455
Ga2 O1 Ga2 72.71(16) 2_566 1_665
La O1 Ga2 40.65(13) 2_565 1_665
La O1 Ga2 110.51(2) . 1_665
La O1 Ga2 136.62(2) 4_455 1_665
O2 O1 Ga2 136.9(3) 4_455 1_665
O2 O1 Ga2 79.63(17) . 1_665
O2 O1 Ga2 101.1(2) 3_565 1_665
O2 O1 Ga2 48.62(18) 1_556 1_665
O2 O1 Ga2 102.1(3) 4_456 1_665
O2 O1 Ga2 72.2(2) 3_566 1_665
O3 O1 Ga2 64.75(18) 3_565 1_665
O3 O1 Ga2 54.87(18) 4_455 1_665
O3 O1 Ga2 156.8(4) . 1_665
Ga2 O1 Ga2 107.29(16) 2_565 1_665
O2 O1 Ga2 17.16(15) 5 1_665
O2 O1 Ga2 128.7(3) 2_455 1_665
O2 O1 Ga2 100.21(18) 6_565 1_665
Ga3 O1 Ga2 40.27(5) 2_565 1_665
Ga3 O1 Ga2 132.6(3) 1_556 1_665
Ga3 O1 Ga2 71.47(10) 4_456 1_665
O3 O1 Ga2 88.39(10) 5_445 1_665
O3 O1 Ga2 61.52(14) 6_665 1_665
O3 O1 Ga2 159.7(2) 2_465 1_665
Ga3 O1 Ga2 75.10(5) 2_564 1_665
Ga3 O1 Ga2 146.5(3) . 1_665
Ga3 O1 Ga2 94.61(8) 4_455 1_665
Ga1 O1 Ga2 65.739(17) . 1_665
Nb O1 Ga2 65.739(17) . 1_665
Ga1 O1 Ga2 173.9(3) 1_455 1_665
Nb O1 Ga2 173.9(3) 1_455 1_665
Ga1 O1 Ga2 65.739(17) 1_565 1_665
Nb O1 Ga2 65.739(17) 1_565 1_665
La O1 Ga2 82.80(17) 1_556 1_665
La O1 Ga2 43.74(8) 2_566 1_665
La O1 Ga2 94.4(2) 4_456 1_665
O2 O1 Ga2 97.48(13) 6 1_665
O2 O1 Ga2 21.77(10) 2_565 1_665
O2 O1 Ga2 133.3(2) 5_455 1_665
O3 O1 Ga2 70.31(14) 5_446 1_665
O3 O1 Ga2 41.81(11) 6_666 1_665
O3 O1 Ga2 122.8(3) 2_466 1_665
O3 O1 Ga2 58.35(11) 2_565 1_665
O3 O1 Ga2 159.88(16) 6 1_665
O3 O1 Ga2 88.56(9) 5_455 1_665
Ga2 O1 Ga2 72.71(16) 2_566 .
La O1 Ga2 136.62(2) 2_565 .
La O1 Ga2 40.65(13) . .
La O1 Ga2 110.51(2) 4_455 .
O2 O1 Ga2 79.63(17) 4_455 .
O2 O1 Ga2 101.1(2) . .
O2 O1 Ga2 136.9(3) 3_565 .
O2 O1 Ga2 72.2(2) 1_556 .
O2 O1 Ga2 48.62(18) 4_456 .
O2 O1 Ga2 102.1(3) 3_566 .
O3 O1 Ga2 54.87(18) 3_565 .
O3 O1 Ga2 156.8(4) 4_455 .
O3 O1 Ga2 64.75(18) . .
Ga2 O1 Ga2 107.29(16) 2_565 .
O2 O1 Ga2 100.21(18) 5 .
O2 O1 Ga2 17.16(15) 2_455 .
O2 O1 Ga2 128.7(3) 6_565 .
Ga3 O1 Ga2 71.47(10) 2_565 .
Ga3 O1 Ga2 40.27(5) 1_556 .
Ga3 O1 Ga2 132.6(3) 4_456 .
O3 O1 Ga2 61.52(14) 5_445 .
O3 O1 Ga2 159.7(2) 6_665 .
O3 O1 Ga2 88.39(10) 2_465 .
Ga3 O1 Ga2 94.61(8) 2_564 .
Ga3 O1 Ga2 75.10(5) . .
Ga3 O1 Ga2 146.5(3) 4_455 .
Ga1 O1 Ga2 65.739(17) . .
Nb O1 Ga2 65.739(17) . .
Ga1 O1 Ga2 65.739(17) 1_455 .
Nb O1 Ga2 65.739(17) 1_455 .
Ga1 O1 Ga2 173.9(3) 1_565 .
Nb O1 Ga2 173.9(3) 1_565 .
La O1 Ga2 43.74(8) 1_556 .
La O1 Ga2 94.4(2) 2_566 .
La O1 Ga2 82.80(17) 4_456 .
O2 O1 Ga2 21.77(10) 6 .
O2 O1 Ga2 133.3(2) 2_565 .
O2 O1 Ga2 97.48(13) 5_455 .
O3 O1 Ga2 41.81(11) 5_446 .
O3 O1 Ga2 122.8(3) 6_666 .
O3 O1 Ga2 70.31(14) 2_466 .
O3 O1 Ga2 88.56(9) 2_565 .
O3 O1 Ga2 58.35(11) 6 .
O3 O1 Ga2 159.88(16) 5_455 .
Ga2 O1 Ga2 111.56(15) 1_665 .
Ga2 O1 Ga2 72.71(16) 2_566 1_565
La O1 Ga2 110.51(2) 2_565 1_565
La O1 Ga2 136.62(2) . 1_565
La O1 Ga2 40.64(13) 4_455 1_565
O2 O1 Ga2 101.1(2) 4_455 1_565
O2 O1 Ga2 136.9(3) . 1_565
O2 O1 Ga2 79.63(17) 3_565 1_565
O2 O1 Ga2 102.1(3) 1_556 1_565
O2 O1 Ga2 72.2(2) 4_456 1_565
O2 O1 Ga2 48.62(18) 3_566 1_565
O3 O1 Ga2 156.8(4) 3_565 1_565
O3 O1 Ga2 64.75(18) 4_455 1_565
O3 O1 Ga2 54.87(18) . 1_565
Ga2 O1 Ga2 107.29(16) 2_565 1_565
O2 O1 Ga2 128.7(3) 5 1_565
O2 O1 Ga2 100.21(18) 2_455 1_565
O2 O1 Ga2 17.16(16) 6_565 1_565
Ga3 O1 Ga2 132.6(3) 2_565 1_565
Ga3 O1 Ga2 71.47(10) 1_556 1_565
Ga3 O1 Ga2 40.27(5) 4_456 1_565
O3 O1 Ga2 159.7(2) 5_445 1_565
O3 O1 Ga2 88.39(10) 6_665 1_565
O3 O1 Ga2 61.52(14) 2_465 1_565
Ga3 O1 Ga2 146.5(3) 2_564 1_565
Ga3 O1 Ga2 94.61(8) . 1_565
Ga3 O1 Ga2 75.10(5) 4_455 1_565
Ga1 O1 Ga2 173.9(3) . 1_565
Nb O1 Ga2 173.9(3) . 1_565
Ga1 O1 Ga2 65.739(17) 1_455 1_565
Nb O1 Ga2 65.739(17) 1_455 1_565
Ga1 O1 Ga2 65.739(17) 1_565 1_565
Nb O1 Ga2 65.739(17) 1_565 1_565
La O1 Ga2 94.4(2) 1_556 1_565
La O1 Ga2 82.79(17) 2_566 1_565
La O1 Ga2 43.74(8) 4_456 1_565
O2 O1 Ga2 133.3(2) 6 1_565
O2 O1 Ga2 97.48(13) 2_565 1_565
O2 O1 Ga2 21.77(10) 5_455 1_565
O3 O1 Ga2 122.8(3) 5_446 1_565
O3 O1 Ga2 70.31(14) 6_666 1_565
O3 O1 Ga2 41.81(11) 2_466 1_565
O3 O1 Ga2 159.88(16) 2_565 1_565
O3 O1 Ga2 88.56(9) 6 1_565
O3 O1 Ga2 58.35(11) 5_455 1_565
Ga2 O1 Ga2 111.56(15) 1_665 1_565
Ga2 O1 Ga2 111.56(15) . 1_565
Ga2 O1 O1 111.5(3) 2_566 2_455
La O1 O1 118.3(4) 2_565 2_455
La O1 O1 13.16(3) . 2_455
La O1 O1 96.1(3) 4_455 2_455
O2 O1 O1 43.8(3) 4_455 2_455
O2 O1 O1 68.9(3) . 2_455
O2 O1 O1 99.5(5) 3_565 2_455
O2 O1 O1 105.0(3) 1_556 2_455
O2 O1 O1 85.0(2) 4_456 2_455
O2 O1 O1 139.6(4) 3_566 2_455
O3 O1 O1 60.02(16) 3_565 2_455
O3 O1 O1 163.0(6) 4_455 2_455
O3 O1 O1 69.23(18) . 2_455
Ga2 O1 O1 68.5(3) 2_565 2_455
O2 O1 O1 106.59(16) 5 2_455
O2 O1 O1 35.11(16) 2_455 2_455
O2 O1 O1 136.20(19) 6_565 2_455
Ga3 O1 O1 89.31(7) 2_565 2_455
Ga3 O1 O1 63.53(8) 1_556 2_455
Ga3 O1 O1 163.09(17) 4_456 2_455
O3 O1 O1 38.43(15) 5_445 2_455
O3 O1 O1 126.5(5) 6_665 2_455
O3 O1 O1 69.8(2) 2_465 2_455
Ga3 O1 O1 66.1(2) 2_564 2_455
Ga3 O1 O1 42.74(18) . 2_455
Ga3 O1 O1 109.2(4) 4_455 2_455
Ga1 O1 O1 58.18(6) . 2_455
Nb O1 O1 58.18(6) . 2_455
Ga1 O1 O1 58.18(6) 1_455 2_455
Nb O1 O1 58.18(6) 1_455 2_455
Ga1 O1 O1 147.3(5) 1_565 2_455
Nb O1 O1 147.3(5) 1_565 2_455
La O1 O1 82.2(2) 1_556 2_455
La O1 O1 130.0(3) 2_566 2_455
La O1 O1 116.4(3) 4_456 2_455
O2 O1 O1 34.72(15) 6 2_455
O2 O1 O1 138.70(18) 2_565 2_455
O2 O1 O1 102.10(11) 5_455 2_455
O3 O1 O1 70.81(19) 5_446 2_455
O3 O1 O1 157.8(3) 6_666 2_455
O3 O1 O1 93.98(17) 2_466 2_455
O3 O1 O1 71.88(18) 2_565 2_455
O3 O1 O1 37.10(13) 6 2_455
O3 O1 O1 128.9(4) 5_455 2_455
Ga2 O1 O1 123.584(7) 1_665 2_455
Ga2 O1 O1 38.81(15) . 2_455
Ga2 O1 O1 123.584(6) 1_565 2_455
Ga2 O1 O1 111.5(3) 2_566 2_565
La O1 O1 13.16(3) 2_565 2_565
La O1 O1 96.1(3) . 2_565
La O1 O1 118.3(4) 4_455 2_565
O2 O1 O1 99.5(5) 4_455 2_565
O2 O1 O1 43.8(3) . 2_565
O2 O1 O1 68.9(3) 3_565 2_565
O2 O1 O1 85.0(2) 1_556 2_565
O2 O1 O1 139.6(4) 4_456 2_565
O2 O1 O1 105.0(3) 3_566 2_565
O3 O1 O1 69.23(18) 3_565 2_565
O3 O1 O1 60.02(16) 4_455 2_565
O3 O1 O1 163.0(6) . 2_565
Ga2 O1 O1 68.5(3) 2_565 2_565
O2 O1 O1 35.11(16) 5 2_565
O2 O1 O1 136.20(19) 2_455 2_565
O2 O1 O1 106.59(16) 6_565 2_565
Ga3 O1 O1 63.53(8) 2_565 2_565
Ga3 O1 O1 163.09(17) 1_556 2_565
Ga3 O1 O1 89.31(7) 4_456 2_565
O3 O1 O1 69.8(2) 5_445 2_565
O3 O1 O1 38.44(15) 6_665 2_565
O3 O1 O1 126.5(5) 2_465 2_565
Ga3 O1 O1 42.74(18) 2_564 2_565
Ga3 O1 O1 109.2(4) . 2_565
Ga3 O1 O1 66.1(2) 4_455 2_565
Ga1 O1 O1 58.18(5) . 2_565
Nb O1 O1 58.18(5) . 2_565
Ga1 O1 O1 147.3(5) 1_455 2_565
Nb O1 O1 147.3(5) 1_455 2_565
Ga1 O1 O1 58.18(5) 1_565 2_565
Nb O1 O1 58.18(5) 1_565 2_565
La O1 O1 116.4(3) 1_556 2_565
La O1 O1 82.2(2) 2_566 2_565
La O1 O1 130.0(3) 4_456 2_565
O2 O1 O1 102.10(11) 6 2_565
O2 O1 O1 34.72(15) 2_565 2_565
O2 O1 O1 138.70(18) 5_455 2_565
O3 O1 O1 93.98(17) 5_446 2_565
O3 O1 O1 70.81(19) 6_666 2_565
O3 O1 O1 157.8(3) 2_466 2_565
O3 O1 O1 37.09(13) 2_565 2_565
O3 O1 O1 128.9(4) 6 2_565
O3 O1 O1 71.88(18) 5_455 2_565
Ga2 O1 O1 38.81(15) 1_665 2_565
Ga2 O1 O1 123.584(6) . 2_565
Ga2 O1 O1 123.584(6) 1_565 2_565
O1 O1 O1 107.3(3) 2_455 2_565
Ga2 O1 O1 111.5(3) 2_566 2_465
La O1 O1 96.1(3) 2_565 2_465
La O1 O1 118.3(4) . 2_465
La O1 O1 13.16(3) 4_455 2_465
O2 O1 O1 68.9(3) 4_455 2_465
O2 O1 O1 99.5(5) . 2_465
O2 O1 O1 43.8(3) 3_565 2_465
O2 O1 O1 139.6(4) 1_556 2_465
O2 O1 O1 105.0(3) 4_456 2_465
O2 O1 O1 85.0(2) 3_566 2_465
O3 O1 O1 163.0(6) 3_565 2_465
O3 O1 O1 69.23(18) 4_455 2_465
O3 O1 O1 60.02(16) . 2_465
Ga2 O1 O1 68.5(3) 2_565 2_465
O2 O1 O1 136.20(19) 5 2_465
O2 O1 O1 106.59(16) 2_455 2_465
O2 O1 O1 35.11(16) 6_565 2_465
Ga3 O1 O1 163.09(17) 2_565 2_465
Ga3 O1 O1 89.31(7) 1_556 2_465
Ga3 O1 O1 63.53(8) 4_456 2_465
O3 O1 O1 126.5(5) 5_445 2_465
O3 O1 O1 69.8(2) 6_665 2_465
O3 O1 O1 38.43(15) 2_465 2_465
Ga3 O1 O1 109.2(4) 2_564 2_465
Ga3 O1 O1 66.1(2) . 2_465
Ga3 O1 O1 42.74(18) 4_455 2_465
Ga1 O1 O1 147.3(5) . 2_465
Nb O1 O1 147.3(5) . 2_465
Ga1 O1 O1 58.18(6) 1_455 2_465
Nb O1 O1 58.18(6) 1_455 2_465
Ga1 O1 O1 58.18(5) 1_565 2_465
Nb O1 O1 58.18(5) 1_565 2_465
La O1 O1 130.0(3) 1_556 2_465
La O1 O1 116.4(3) 2_566 2_465
La O1 O1 82.2(2) 4_456 2_465
O2 O1 O1 138.70(18) 6 2_465
O2 O1 O1 102.10(11) 2_565 2_465
O2 O1 O1 34.72(15) 5_455 2_465
O3 O1 O1 157.8(3) 5_446 2_465
O3 O1 O1 93.98(17) 6_666 2_465
O3 O1 O1 70.81(18) 2_466 2_465
O3 O1 O1 128.9(4) 2_565 2_465
O3 O1 O1 71.88(18) 6 2_465
O3 O1 O1 37.09(13) 5_455 2_465
Ga2 O1 O1 123.584(6) 1_665 2_465
Ga2 O1 O1 123.584(6) . 2_465
Ga2 O1 O1 38.81(15) 1_565 2_465
O1 O1 O1 107.3(3) 2_455 2_465
O1 O1 O1 107.3(3) 2_565 2_465
Ga2 O1 O1 179.996(1) 2_566 1_554
La O1 O1 69.1(3) 2_565 1_554
La O1 O1 69.1(3) . 1_554
La O1 O1 69.1(3) 4_455 1_554
O2 O1 O1 33.6(2) 4_455 1_554
O2 O1 O1 33.6(2) . 1_554
O2 O1 O1 33.6(2) 3_565 1_554
O2 O1 O1 148.0(2) 1_556 1_554
O2 O1 O1 148.0(2) 4_456 1_554
O2 O1 O1 148.0(2) 3_566 1_554
O3 O1 O1 95.3(3) 3_565 1_554
O3 O1 O1 95.3(3) 4_455 1_554
O3 O1 O1 95.3(3) . 1_554
Ga2 O1 O1 0.0 2_565 1_554
O2 O1 O1 99.9(3) 5 1_554
O2 O1 O1 99.9(3) 2_455 1_554
O2 O1 O1 99.9(3) 6_565 1_554
Ga3 O1 O1 117.0(2) 2_565 1_554
Ga3 O1 O1 117.0(2) 1_556 1_554
Ga3 O1 O1 117.0(2) 4_456 1_554
O3 O1 O1 61.0(2) 5_445 1_554
O3 O1 O1 61.0(2) 6_665 1_554
O3 O1 O1 61.0(2) 2_465 1_554
Ga3 O1 O1 42.51(12) 2_564 1_554
Ga3 O1 O1 42.51(12) . 1_554
Ga3 O1 O1 42.51(12) 4_455 1_554
Ga1 O1 O1 78.85(17) . 1_554
Nb O1 O1 78.85(17) . 1_554
Ga1 O1 O1 78.85(17) 1_455 1_554
Nb O1 O1 78.85(17) 1_455 1_554
Ga1 O1 O1 78.85(17) 1_565 1_554
Nb O1 O1 78.85(17) 1_565 1_554
La O1 O1 149.81(9) 1_556 1_554
La O1 O1 149.81(9) 2_566 1_554
La O1 O1 149.81(9) 4_456 1_554
O2 O1 O1 97.3(2) 6 1_554
O2 O1 O1 97.3(2) 2_565 1_554
O2 O1 O1 97.3(2) 5_455 1_554
O3 O1 O1 127.28(17) 5_446 1_554
O3 O1 O1 127.28(17) 6_666 1_554
O3 O1 O1 127.28(17) 2_466 1_554
O3 O1 O1 64.13(18) 2_565 1_554
O3 O1 O1 64.13(18) 6 1_554
O3 O1 O1 64.13(18) 5_455 1_554
Ga2 O1 O1 107.29(16) 1_665 1_554
Ga2 O1 O1 107.29(16) . 1_554
Ga2 O1 O1 107.29(16) 1_565 1_554
O1 O1 O1 68.5(3) 2_455 1_554
O1 O1 O1 68.5(3) 2_565 1_554
O1 O1 O1 68.5(3) 2_465 1_554
Ga2 O1 O1 0.002(1) 2_566 1_556
La O1 O1 110.9(3) 2_565 1_556
La O1 O1 110.9(3) . 1_556
La O1 O1 110.9(3) 4_455 1_556
O2 O1 O1 146.4(2) 4_455 1_556
O2 O1 O1 146.4(2) . 1_556
O2 O1 O1 146.4(2) 3_565 1_556
O2 O1 O1 32.0(2) 1_556 1_556
O2 O1 O1 32.0(2) 4_456 1_556
O2 O1 O1 32.0(2) 3_566 1_556
O3 O1 O1 84.7(3) 3_565 1_556
O3 O1 O1 84.7(3) 4_455 1_556
O3 O1 O1 84.7(3) . 1_556
Ga2 O1 O1 179.998(1) 2_565 1_556
O2 O1 O1 80.1(3) 5 1_556
O2 O1 O1 80.1(3) 2_455 1_556
O2 O1 O1 80.1(3) 6_565 1_556
Ga3 O1 O1 63.0(2) 2_565 1_556
Ga3 O1 O1 63.0(2) 1_556 1_556
Ga3 O1 O1 63.0(2) 4_456 1_556
O3 O1 O1 119.0(2) 5_445 1_556
O3 O1 O1 119.0(2) 6_665 1_556
O3 O1 O1 119.0(2) 2_465 1_556
Ga3 O1 O1 137.49(12) 2_564 1_556
Ga3 O1 O1 137.49(12) . 1_556
Ga3 O1 O1 137.49(12) 4_455 1_556
Ga1 O1 O1 101.15(17) . 1_556
Nb O1 O1 101.15(17) . 1_556
Ga1 O1 O1 101.15(17) 1_455 1_556
Nb O1 O1 101.15(17) 1_455 1_556
Ga1 O1 O1 101.15(17) 1_565 1_556
Nb O1 O1 101.15(17) 1_565 1_556
La O1 O1 30.19(9) 1_556 1_556
La O1 O1 30.19(9) 2_566 1_556
La O1 O1 30.19(9) 4_456 1_556
O2 O1 O1 82.7(2) 6 1_556
O2 O1 O1 82.7(2) 2_565 1_556
O2 O1 O1 82.7(2) 5_455 1_556
O3 O1 O1 52.72(17) 5_446 1_556
O3 O1 O1 52.72(17) 6_666 1_556
O3 O1 O1 52.72(17) 2_466 1_556
O3 O1 O1 115.87(18) 2_565 1_556
O3 O1 O1 115.87(18) 6 1_556
O3 O1 O1 115.87(18) 5_455 1_556
Ga2 O1 O1 72.71(16) 1_665 1_556
Ga2 O1 O1 72.71(16) . 1_556
Ga2 O1 O1 72.71(16) 1_565 1_556
O1 O1 O1 111.5(3) 2_455 1_556
O1 O1 O1 111.5(3) 2_565 1_556
O1 O1 O1 111.5(3) 2_465 1_556
O1 O1 O1 179.998(1) 1_554 1_556
Ga2 O1 O3 56.39(18) 2_566 2_566
La O1 O3 75.29(16) 2_565 2_566
La O1 O3 82.84(16) . 2_566
La O1 O3 166.4(4) 4_455 2_566
O2 O1 O3 131.3(2) 4_455 2_566
O2 O1 O3 90.1(2) . 2_566
O2 O1 O3 136.2(2) 3_565 2_566
O2 O1 O3 24.6(2) 1_556 2_566
O2 O1 O3 73.8(3) 4_456 2_566
O2 O1 O3 77.2(3) 3_566 2_566
O3 O1 O3 36.5(3) 3_565 2_566
O3 O1 O3 91.4(2) 4_455 2_566
O3 O1 O3 128.8(4) . 2_566
Ga2 O1 O3 123.62(18) 2_565 2_566
O2 O1 O3 32.6(2) 5 2_566
O2 O1 O3 89.1(2) 2_455 2_566
O2 O1 O3 124.9(3) 6_565 2_566
Ga3 O1 O3 6.88(13) 2_565 2_566
Ga3 O1 O3 98.2(3) 1_556 2_566
Ga3 O1 O3 95.6(2) 4_456 2_566
O3 O1 O3 72.11(12) 5_445 2_566
O3 O1 O3 99.86(16) 6_665 2_566
O3 O1 O3 160.45(19) 2_465 2_566
Ga3 O1 O3 81.13(12) 2_564 2_566
Ga3 O1 O3 134.96(13) . 2_566
Ga3 O1 O3 132.22(12) 4_455 2_566
Ga1 O1 O3 48.51(12) . 2_566
Nb O1 O3 48.51(12) . 2_566
Ga1 O1 O3 136.84(18) 1_455 2_566
Nb O1 O3 136.84(18) 1_455 2_566
Ga1 O1 O3 104.74(12) 1_565 2_566
Nb O1 O3 104.74(12) 1_565 2_566
La O1 O3 49.30(15) 1_556 2_566
La O1 O3 43.80(15) 2_566 2_566
La O1 O3 86.5(3) 4_456 2_566
O2 O1 O3 60.97(15) 6 2_566
O2 O1 O3 61.28(15) 2_565 2_566
O2 O1 O3 139.1(4) 5_455 2_566
O3 O1 O3 30.73(17) 5_446 2_566
O3 O1 O3 64.9(2) 6_666 2_566
O3 O1 O3 106.1(3) 2_466 2_566
O3 O1 O3 59.49(10) 2_565 2_566
O3 O1 O3 128.04(5) 6 2_566
O3 O1 O3 128.04(5) 5_455 2_566
Ga2 O1 O3 39.63(10) 1_665 2_566
Ga2 O1 O3 72.07(14) . 2_566
Ga2 O1 O3 125.8(3) 1_565 2_566
O1 O1 O3 93.64(16) 2_455 2_566
O1 O1 O3 67.23(17) 2_565 2_566
O1 O1 O3 158.9(3) 2_465 2_566
O1 O1 O3 123.62(18) 1_554 2_566
O1 O1 O3 56.38(18) 1_556 2_566
Ga2 O1 O3 56.38(18) 2_566 6_556
La O1 O3 166.4(4) 2_565 6_556
La O1 O3 75.29(16) . 6_556
La O1 O3 82.84(16) 4_455 6_556
O2 O1 O3 90.1(2) 4_455 6_556
O2 O1 O3 136.2(2) . 6_556
O2 O1 O3 131.3(2) 3_565 6_556
O2 O1 O3 77.2(3) 1_556 6_556
O2 O1 O3 24.6(2) 4_456 6_556
O2 O1 O3 73.8(3) 3_566 6_556
O3 O1 O3 91.4(2) 3_565 6_556
O3 O1 O3 128.8(4) 4_455 6_556
O3 O1 O3 36.5(3) . 6_556
Ga2 O1 O3 123.62(18) 2_565 6_556
O2 O1 O3 124.9(3) 5 6_556
O2 O1 O3 32.6(2) 2_455 6_556
O2 O1 O3 89.1(2) 6_565 6_556
Ga3 O1 O3 95.6(2) 2_565 6_556
Ga3 O1 O3 6.88(13) 1_556 6_556
Ga3 O1 O3 98.2(3) 4_456 6_556
O3 O1 O3 99.86(16) 5_445 6_556
O3 O1 O3 160.45(19) 6_665 6_556
O3 O1 O3 72.11(12) 2_465 6_556
Ga3 O1 O3 132.22(11) 2_564 6_556
Ga3 O1 O3 81.13(12) . 6_556
Ga3 O1 O3 134.96(13) 4_455 6_556
Ga1 O1 O3 104.74(12) . 6_556
Nb O1 O3 104.74(12) . 6_556
Ga1 O1 O3 48.51(12) 1_455 6_556
Nb O1 O3 48.51(12) 1_455 6_556
Ga1 O1 O3 136.84(18) 1_565 6_556
Nb O1 O3 136.84(18) 1_565 6_556
La O1 O3 43.80(15) 1_556 6_556
La O1 O3 86.5(3) 2_566 6_556
La O1 O3 49.30(15) 4_456 6_556
O2 O1 O3 61.28(15) 6 6_556
O2 O1 O3 139.1(4) 2_565 6_556
O2 O1 O3 60.97(15) 5_455 6_556
O3 O1 O3 64.9(2) 5_446 6_556
O3 O1 O3 106.1(3) 6_666 6_556
O3 O1 O3 30.73(17) 2_466 6_556
O3 O1 O3 128.04(5) 2_565 6_556
O3 O1 O3 59.49(10) 6 6_556
O3 O1 O3 128.04(5) 5_455 6_556
Ga2 O1 O3 125.8(3) 1_665 6_556
Ga2 O1 O3 39.63(10) . 6_556
Ga2 O1 O3 72.07(13) 1_565 6_556
O1 O1 O3 67.23(17) 2_455 6_556
O1 O1 O3 158.9(3) 2_565 6_556
O1 O1 O3 93.64(16) 2_465 6_556
O1 O1 O3 123.62(18) 1_554 6_556
O1 O1 O3 56.38(18) 1_556 6_556
O3 O1 O3 92.3(2) 2_566 6_556
Ga2 O1 O3 56.38(18) 2_566 5_456
La O1 O3 82.84(16) 2_565 5_456
La O1 O3 166.4(4) . 5_456
La O1 O3 75.28(16) 4_455 5_456
O2 O1 O3 136.2(2) 4_455 5_456
O2 O1 O3 131.3(2) . 5_456
O2 O1 O3 90.1(2) 3_565 5_456
O2 O1 O3 73.8(3) 1_556 5_456
O2 O1 O3 77.2(3) 4_456 5_456
O2 O1 O3 24.6(2) 3_566 5_456
O3 O1 O3 128.8(4) 3_565 5_456
O3 O1 O3 36.5(3) 4_455 5_456
O3 O1 O3 91.4(2) . 5_456
Ga2 O1 O3 123.62(18) 2_565 5_456
O2 O1 O3 89.1(2) 5 5_456
O2 O1 O3 124.9(3) 2_455 5_456
O2 O1 O3 32.6(2) 6_565 5_456
Ga3 O1 O3 98.2(3) 2_565 5_456
Ga3 O1 O3 95.6(2) 1_556 5_456
Ga3 O1 O3 6.88(13) 4_456 5_456
O3 O1 O3 160.45(19) 5_445 5_456
O3 O1 O3 72.11(12) 6_665 5_456
O3 O1 O3 99.86(16) 2_465 5_456
Ga3 O1 O3 134.96(13) 2_564 5_456
Ga3 O1 O3 132.22(11) . 5_456
Ga3 O1 O3 81.13(12) 4_455 5_456
Ga1 O1 O3 136.84(18) . 5_456
Nb O1 O3 136.84(18) . 5_456
Ga1 O1 O3 104.74(12) 1_455 5_456
Nb O1 O3 104.74(12) 1_455 5_456
Ga1 O1 O3 48.51(12) 1_565 5_456
Nb O1 O3 48.51(12) 1_565 5_456
La O1 O3 86.5(3) 1_556 5_456
La O1 O3 49.30(15) 2_566 5_456
La O1 O3 43.80(15) 4_456 5_456
O2 O1 O3 139.1(4) 6 5_456
O2 O1 O3 60.97(15) 2_565 5_456
O2 O1 O3 61.28(15) 5_455 5_456
O3 O1 O3 106.1(3) 5_446 5_456
O3 O1 O3 30.73(17) 6_666 5_456
O3 O1 O3 64.9(2) 2_466 5_456
O3 O1 O3 128.04(5) 2_565 5_456
O3 O1 O3 128.04(5) 6 5_456
O3 O1 O3 59.49(10) 5_455 5_456
Ga2 O1 O3 72.07(14) 1_665 5_456
Ga2 O1 O3 125.8(3) . 5_456
Ga2 O1 O3 39.63(10) 1_565 5_456
O1 O1 O3 158.9(3) 2_455 5_456
O1 O1 O3 93.64(16) 2_565 5_456
O1 O1 O3 67.23(17) 2_465 5_456
O1 O1 O3 123.62(18) 1_554 5_456
O1 O1 O3 56.38(18) 1_556 5_456
O3 O1 O3 92.3(3) 2_566 5_456
O3 O1 O3 92.3(3) 6_556 5_456
Ga2 O1 Ga3 72.32(15) 2_566 4_446
La O1 Ga3 101.95(4) 2_565 4_446
La O1 Ga3 45.04(13) . 4_446
La O1 Ga3 145.61(3) 4_455 4_446
O2 O1 Ga3 96.1(2) 4_455 4_446
O2 O1 Ga3 83.57(18) . 4_446
O2 O1 Ga3 139.9(3) 3_565 4_446
O2 O1 Ga3 52.64(18) 1_556 4_446
O2 O1 Ga3 66.5(2) 4_456 4_446
O2 O1 Ga3 103.4(3) 3_566 4_446
O3 O1 Ga3 20.77(19) 3_565 4_446
O3 O1 Ga3 131.8(3) 4_455 4_446
O3 O1 Ga3 100.6(2) . 4_446
Ga2 O1 Ga3 107.69(15) 2_565 4_446
O2 O1 Ga3 64.57(15) 5 4_446
O2 O1 Ga3 52.56(16) 2_455 4_446
O2 O1 Ga3 151.7(4) 6_565 4_446
Ga3 O1 Ga3 37.83(5) 2_565 4_446
Ga3 O1 Ga3 73.57(11) 1_556 4_446
Ga3 O1 Ga3 131.3(3) 4_456 4_446
O3 O1 Ga3 46.90(14) 5_445 4_446
O3 O1 Ga3 127.97(12) 6_665 4_446
O3 O1 Ga3 120.69(12) 2_465 4_446
Ga3 O1 Ga3 74.31(5) 2_564 4_446
Ga3 O1 Ga3 96.55(7) . 4_446
Ga3 O1 Ga3 145.9(2) 4_455 4_446
Ga1 O1 Ga3 36.26(2) . 4_446
Nb O1 Ga3 36.26(2) . 4_446
Ga1 O1 Ga3 100.65(3) 1_455 4_446
Nb O1 Ga3 100.65(3) 1_455 4_446
Ga1 O1 Ga3 142.93(6) 1_565 4_446
Nb O1 Ga3 142.93(6) 1_565 4_446
La O1 Ga3 45.46(7) 1_556 4_446
La O1 Ga3 77.90(15) 2_566 4_446
La O1 Ga3 97.1(2) 4_456 4_446
O2 O1 Ga3 20.36(11) 6 4_446
O2 O1 Ga3 99.15(13) 2_565 4_446
O2 O1 Ga3 131.56(19) 5_455 4_446
O3 O1 Ga3 19.93(10) 5_446 4_446
O3 O1 Ga3 104.0(2) 6_666 4_446
O3 O1 Ga3 98.41(19) 2_466 4_446
O3 O1 Ga3 59.62(9) 2_565 4_446
O3 O1 Ga3 87.50(10) 6 4_446
O3 O1 Ga3 161.30(16) 5_455 4_446
Ga2 O1 Ga3 77.71(8) 1_665 4_446
Ga2 O1 Ga3 35.94(4) . 4_446
Ga2 O1 Ga3 138.7(3) 1_565 4_446
O1 O1 Ga3 53.89(11) 2_455 4_446
O1 O1 Ga3 89.54(5) 2_565 4_446
O1 O1 Ga3 158.71(7) 2_465 4_446
O1 O1 Ga3 107.69(15) 1_554 4_446
O1 O1 Ga3 72.31(15) 1_556 4_446
O3 O1 Ga3 40.62(10) 2_566 4_446
O3 O1 Ga3 70.65(13) 6_556 4_446
O3 O1 Ga3 125.9(3) 5_456 4_446
Ga2 O1 Ga3 72.31(15) 2_566 1_666
La O1 Ga3 45.04(13) 2_565 1_666
La O1 Ga3 145.61(3) . 1_666
La O1 Ga3 101.95(4) 4_455 1_666
O2 O1 Ga3 139.9(3) 4_455 1_666
O2 O1 Ga3 96.1(2) . 1_666
O2 O1 Ga3 83.57(18) 3_565 1_666
O2 O1 Ga3 66.5(2) 1_556 1_666
O2 O1 Ga3 103.4(3) 4_456 1_666
O2 O1 Ga3 52.64(18) 3_566 1_666
O3 O1 Ga3 100.6(2) 3_565 1_666
O3 O1 Ga3 20.77(19) 4_455 1_666
O3 O1 Ga3 131.8(3) . 1_666
Ga2 O1 Ga3 107.69(15) 2_565 1_666
O2 O1 Ga3 52.56(16) 5 1_666
O2 O1 Ga3 151.7(4) 2_455 1_666
O2 O1 Ga3 64.57(16) 6_565 1_666
Ga3 O1 Ga3 73.57(11) 2_565 1_666
Ga3 O1 Ga3 131.3(3) 1_556 1_666
Ga3 O1 Ga3 37.83(5) 4_456 1_666
O3 O1 Ga3 120.69(12) 5_445 1_666
O3 O1 Ga3 46.90(14) 6_665 1_666
O3 O1 Ga3 127.97(12) 2_465 1_666
Ga3 O1 Ga3 96.55(7) 2_564 1_666
Ga3 O1 Ga3 145.9(2) . 1_666
Ga3 O1 Ga3 74.31(5) 4_455 1_666
Ga1 O1 Ga3 100.65(3) . 1_666
Nb O1 Ga3 100.65(3) . 1_666
Ga1 O1 Ga3 142.93(6) 1_455 1_666
Nb O1 Ga3 142.93(6) 1_455 1_666
Ga1 O1 Ga3 36.26(2) 1_565 1_666
Nb O1 Ga3 36.26(2) 1_565 1_666
La O1 Ga3 97.1(2) 1_556 1_666
La O1 Ga3 45.46(7) 2_566 1_666
La O1 Ga3 77.90(15) 4_456 1_666
O2 O1 Ga3 131.56(19) 6 1_666
O2 O1 Ga3 20.36(11) 2_565 1_666
O2 O1 Ga3 99.15(14) 5_455 1_666
O3 O1 Ga3 98.41(19) 5_446 1_666
O3 O1 Ga3 19.93(11) 6_666 1_666
O3 O1 Ga3 104.0(2) 2_466 1_666
O3 O1 Ga3 87.50(10) 2_565 1_666
O3 O1 Ga3 161.30(16) 6 1_666
O3 O1 Ga3 59.62(9) 5_455 1_666
Ga2 O1 Ga3 35.94(4) 1_665 1_666
Ga2 O1 Ga3 138.7(3) . 1_666
Ga2 O1 Ga3 77.71(8) 1_565 1_666
O1 O1 Ga3 158.71(7) 2_455 1_666
O1 O1 Ga3 53.89(11) 2_565 1_666
O1 O1 Ga3 89.54(5) 2_465 1_666
O1 O1 Ga3 107.69(15) 1_554 1_666
O1 O1 Ga3 72.31(15) 1_556 1_666
O3 O1 Ga3 70.65(13) 2_566 1_666
O3 O1 Ga3 125.9(3) 6_556 1_666
O3 O1 Ga3 40.62(10) 5_456 1_666
Ga3 O1 Ga3 111.20(14) 4_446 1_666
Ga2 O1 Ga3 72.31(15) 2_566 2_465
La O1 Ga3 145.60(3) 2_565 2_465
La O1 Ga3 101.95(4) . 2_465
La O1 Ga3 45.04(13) 4_455 2_465
O2 O1 Ga3 83.57(18) 4_455 2_465
O2 O1 Ga3 139.9(3) . 2_465
O2 O1 Ga3 96.1(2) 3_565 2_465
O2 O1 Ga3 103.4(3) 1_556 2_465
O2 O1 Ga3 52.64(18) 4_456 2_465
O2 O1 Ga3 66.5(2) 3_566 2_465
O3 O1 Ga3 131.8(3) 3_565 2_465
O3 O1 Ga3 100.6(2) 4_455 2_465
O3 O1 Ga3 20.77(19) . 2_465
Ga2 O1 Ga3 107.69(15) 2_565 2_465
O2 O1 Ga3 151.7(4) 5 2_465
O2 O1 Ga3 64.57(15) 2_455 2_465
O2 O1 Ga3 52.56(16) 6_565 2_465
Ga3 O1 Ga3 131.3(3) 2_565 2_465
Ga3 O1 Ga3 37.83(5) 1_556 2_465
Ga3 O1 Ga3 73.57(11) 4_456 2_465
O3 O1 Ga3 127.97(12) 5_445 2_465
O3 O1 Ga3 120.69(12) 6_665 2_465
O3 O1 Ga3 46.90(14) 2_465 2_465
Ga3 O1 Ga3 145.9(2) 2_564 2_465
Ga3 O1 Ga3 74.31(5) . 2_465
Ga3 O1 Ga3 96.54(7) 4_455 2_465
Ga1 O1 Ga3 142.93(6) . 2_465
Nb O1 Ga3 142.93(6) . 2_465
Ga1 O1 Ga3 36.26(2) 1_455 2_465
Nb O1 Ga3 36.26(2) 1_455 2_465
Ga1 O1 Ga3 100.65(3) 1_565 2_465
Nb O1 Ga3 100.65(3) 1_565 2_465
La O1 Ga3 77.90(15) 1_556 2_465
La O1 Ga3 97.1(2) 2_566 2_465
La O1 Ga3 45.46(7) 4_456 2_465
O2 O1 Ga3 99.15(13) 6 2_465
O2 O1 Ga3 131.56(19) 2_565 2_465
O2 O1 Ga3 20.36(11) 5_455 2_465
O3 O1 Ga3 104.0(2) 5_446 2_465
O3 O1 Ga3 98.41(19) 6_666 2_465
O3 O1 Ga3 19.93(10) 2_466 2_465
O3 O1 Ga3 161.30(16) 2_565 2_465
O3 O1 Ga3 59.61(9) 6 2_465
O3 O1 Ga3 87.50(10) 5_455 2_465
Ga2 O1 Ga3 138.7(3) 1_665 2_465
Ga2 O1 Ga3 77.71(8) . 2_465
Ga2 O1 Ga3 35.94(4) 1_565 2_465
O1 O1 Ga3 89.54(5) 2_455 2_465
O1 O1 Ga3 158.71(7) 2_565 2_465
O1 O1 Ga3 53.89(11) 2_465 2_465
O1 O1 Ga3 107.69(15) 1_554 2_465
O1 O1 Ga3 72.31(15) 1_556 2_465
O3 O1 Ga3 125.9(3) 2_566 2_465
O3 O1 Ga3 40.62(10) 6_556 2_465
O3 O1 Ga3 70.65(13) 5_456 2_465
Ga3 O1 Ga3 111.20(14) 4_446 2_465
Ga3 O1 Ga3 111.19(14) 1_666 2_465
Ga2 O1 O3 86.90(18) 2_566 1_655
La O1 O3 61.86(9) 2_565 1_655
La O1 O3 65.05(10) . 1_655
La O1 O3 162.1(5) 4_455 1_655
O2 O1 O3 104.6(3) 4_455 1_655
O2 O1 O3 59.85(19) . 1_655
O2 O1 O3 112.7(3) 3_565 1_655
O2 O1 O3 55.3(2) 1_556 1_655
O2 O1 O3 98.7(3) 4_456 1_655
O2 O1 O3 106.3(3) 3_566 1_655
O3 O1 O3 21.1(2) 3_565 1_655
O3 O1 O3 98.6(2) 4_455 1_655
O3 O1 O3 140.2(3) . 1_655
Ga2 O1 O3 93.10(18) 2_565 1_655
O2 O1 O3 28.79(18) 5 1_655
O2 O1 O3 91.26(18) 2_455 1_655
O2 O1 O3 145.7(2) 6_565 1_655
Ga3 O1 O3 23.92(12) 2_565 1_655
Ga3 O1 O3 113.41(17) 1_556 1_655
Ga3 O1 O3 116.31(17) 4_456 1_655
O3 O1 O3 45.75(19) 5_445 1_655
O3 O1 O3 88.05(18) 6_665 1_655
O3 O1 O3 144.2(3) 2_465 1_655
Ga3 O1 O3 50.62(11) 2_564 1_655
Ga3 O1 O3 111.08(18) . 1_655
Ga3 O1 O3 113.24(19) 4_455 1_655
Ga1 O1 O3 21.27(10) . 1_655
Nb O1 O3 21.27(10) . 1_655
Ga1 O1 O3 135.53(10) 1_455 1_655
Nb O1 O3 135.53(10) 1_455 1_655
Ga1 O1 O3 104.45(10) 1_565 1_655
Nb O1 O3 104.45(10) 1_565 1_655
La O1 O3 73.48(14) 1_556 1_655
La O1 O3 71.87(14) 2_566 1_655
La O1 O3 117.1(3) 4_456 1_655
O2 O1 O3 55.96(13) 6 1_655
O2 O1 O3 63.76(13) 2_565 1_655
O2 O1 O3 168.9(3) 5_455 1_655
O3 O1 O3 46.2(2) 5_446 1_655
O3 O1 O3 84.97(17) 6_666 1_655
O3 O1 O3 132.9(3) 2_466 1_655
O3 O1 O3 29.2(2) 2_565 1_655
O3 O1 O3 114.91(12) 6 1_655
O3 O1 O3 121.51(12) 5_455 1_655
Ga2 O1 O3 45.54(9) 1_665 1_655
Ga2 O1 O3 75.59(10) . 1_655
Ga2 O1 O3 154.3(3) 1_565 1_655
O1 O1 O3 78.06(9) 2_455 1_655
O1 O1 O3 49.69(10) 2_565 1_655
O1 O1 O3 156.0(4) 2_465 1_655
O1 O1 O3 93.10(18) 1_554 1_655
O1 O1 O3 86.90(18) 1_556 1_655
O3 O1 O3 30.7(2) 2_566 1_655
O3 O1 O3 109.75(15) 6_556 1_655
O3 O1 O3 115.59(16) 5_456 1_655
Ga3 O1 O3 40.11(10) 4_446 1_655
Ga3 O1 O3 81.32(10) 1_666 1_655
Ga3 O1 O3 150.0(2) 2_465 1_655
Ga2 O1 O3 86.90(18) 2_566 4_345
La O1 O3 162.1(5) 2_565 4_345
La O1 O3 61.86(9) . 4_345
La O1 O3 65.05(10) 4_455 4_345
O2 O1 O3 59.85(19) 4_455 4_345
O2 O1 O3 112.7(3) . 4_345
O2 O1 O3 104.6(3) 3_565 4_345
O2 O1 O3 106.3(3) 1_556 4_345
O2 O1 O3 55.3(2) 4_456 4_345
O2 O1 O3 98.7(3) 3_566 4_345
O3 O1 O3 98.6(2) 3_565 4_345
O3 O1 O3 140.2(3) 4_455 4_345
O3 O1 O3 21.1(2) . 4_345
Ga2 O1 O3 93.10(18) 2_565 4_345
O2 O1 O3 145.7(2) 5 4_345
O2 O1 O3 28.79(18) 2_455 4_345
O2 O1 O3 91.26(18) 6_565 4_345
Ga3 O1 O3 116.31(17) 2_565 4_345
Ga3 O1 O3 23.92(12) 1_556 4_345
Ga3 O1 O3 113.41(17) 4_456 4_345
O3 O1 O3 88.05(18) 5_445 4_345
O3 O1 O3 144.2(3) 6_665 4_345
O3 O1 O3 45.75(19) 2_465 4_345
Ga3 O1 O3 113.24(19) 2_564 4_345
Ga3 O1 O3 50.61(11) . 4_345
Ga3 O1 O3 111.08(18) 4_455 4_345
Ga1 O1 O3 104.45(10) . 4_345
Nb O1 O3 104.45(10) . 4_345
Ga1 O1 O3 21.27(10) 1_455 4_345
Nb O1 O3 21.27(10) 1_455 4_345
Ga1 O1 O3 135.53(10) 1_565 4_345
Nb O1 O3 135.53(10) 1_565 4_345
La O1 O3 71.87(14) 1_556 4_345
La O1 O3 117.1(3) 2_566 4_345
La O1 O3 73.48(14) 4_456 4_345
O2 O1 O3 63.76(13) 6 4_345
O2 O1 O3 168.9(3) 2_565 4_345
O2 O1 O3 55.96(13) 5_455 4_345
O3 O1 O3 84.97(17) 5_446 4_345
O3 O1 O3 132.9(3) 6_666 4_345
O3 O1 O3 46.2(2) 2_466 4_345
O3 O1 O3 121.51(12) 2_565 4_345
O3 O1 O3 29.2(2) 6 4_345
O3 O1 O3 114.90(12) 5_455 4_345
Ga2 O1 O3 154.3(3) 1_665 4_345
Ga2 O1 O3 45.54(9) . 4_345
Ga2 O1 O3 75.59(10) 1_565 4_345
O1 O1 O3 49.69(10) 2_455 4_345
O1 O1 O3 156.0(4) 2_565 4_345
O1 O1 O3 78.06(9) 2_465 4_345
O1 O1 O3 93.10(18) 1_554 4_345
O1 O1 O3 86.90(18) 1_556 4_345
O3 O1 O3 115.59(16) 2_566 4_345
O3 O1 O3 30.7(2) 6_556 4_345
O3 O1 O3 109.75(15) 5_456 4_345
Ga3 O1 O3 81.32(10) 4_446 4_345
Ga3 O1 O3 150.0(2) 1_666 4_345
Ga3 O1 O3 40.11(10) 2_465 4_345
O3 O1 O3 119.71(3) 1_655 4_345
Ga2 O1 O3 86.90(18) 2_566 3_575
La O1 O3 65.05(9) 2_565 3_575
La O1 O3 162.1(5) . 3_575
La O1 O3 61.85(9) 4_455 3_575
O2 O1 O3 112.7(3) 4_455 3_575
O2 O1 O3 104.6(3) . 3_575
O2 O1 O3 59.85(19) 3_565 3_575
O2 O1 O3 98.7(3) 1_556 3_575
O2 O1 O3 106.3(3) 4_456 3_575
O2 O1 O3 55.3(2) 3_566 3_575
O3 O1 O3 140.2(3) 3_565 3_575
O3 O1 O3 21.1(2) 4_455 3_575
O3 O1 O3 98.6(2) . 3_575
Ga2 O1 O3 93.10(18) 2_565 3_575
O2 O1 O3 91.26(18) 5 3_575
O2 O1 O3 145.7(2) 2_455 3_575
O2 O1 O3 28.79(18) 6_565 3_575
Ga3 O1 O3 113.41(17) 2_565 3_575
Ga3 O1 O3 116.31(17) 1_556 3_575
Ga3 O1 O3 23.92(12) 4_456 3_575
O3 O1 O3 144.2(3) 5_445 3_575
O3 O1 O3 45.75(19) 6_665 3_575
O3 O1 O3 88.05(18) 2_465 3_575
Ga3 O1 O3 111.08(18) 2_564 3_575
Ga3 O1 O3 113.24(19) . 3_575
Ga3 O1 O3 50.61(11) 4_455 3_575
Ga1 O1 O3 135.53(10) . 3_575
Nb O1 O3 135.53(10) . 3_575
Ga1 O1 O3 104.45(9) 1_455 3_575
Nb O1 O3 104.45(9) 1_455 3_575
Ga1 O1 O3 21.27(10) 1_565 3_575
Nb O1 O3 21.27(10) 1_565 3_575
La O1 O3 117.1(3) 1_556 3_575
La O1 O3 73.48(14) 2_566 3_575
La O1 O3 71.87(14) 4_456 3_575
O2 O1 O3 168.9(3) 6 3_575
O2 O1 O3 55.96(13) 2_565 3_575
O2 O1 O3 63.76(13) 5_455 3_575
O3 O1 O3 132.9(3) 5_446 3_575
O3 O1 O3 46.2(2) 6_666 3_575
O3 O1 O3 84.97(17) 2_466 3_575
O3 O1 O3 114.90(12) 2_565 3_575
O3 O1 O3 121.51(12) 6 3_575
O3 O1 O3 29.2(2) 5_455 3_575
Ga2 O1 O3 75.59(10) 1_665 3_575
Ga2 O1 O3 154.3(3) . 3_575
Ga2 O1 O3 45.54(9) 1_565 3_575
O1 O1 O3 156.0(4) 2_455 3_575
O1 O1 O3 78.06(9) 2_565 3_575
O1 O1 O3 49.69(10) 2_465 3_575
O1 O1 O3 93.10(18) 1_554 3_575
O1 O1 O3 86.90(18) 1_556 3_575
O3 O1 O3 109.75(15) 2_566 3_575
O3 O1 O3 115.59(16) 6_556 3_575
O3 O1 O3 30.7(2) 5_456 3_575
Ga3 O1 O3 150.0(2) 4_446 3_575
Ga3 O1 O3 40.11(10) 1_666 3_575
Ga3 O1 O3 81.32(10) 2_465 3_575
O3 O1 O3 119.71(3) 1_655 3_575
O3 O1 O3 119.71(3) 4_345 3_575
Ga2 O1 O2 141.93(13) 2_566 5_554
La O1 O2 38.8(2) 2_565 5_554
La O1 O2 73.6(3) . 5_554
La O1 O2 102.6(4) 4_455 5_554
O2 O1 O2 66.8(3) 4_455 5_554
O2 O1 O2 12.5(2) . 5_554
O2 O1 O2 53.4(2) 3_565 5_554
O2 O1 O2 111.17(19) 1_556 5_554
O2 O1 O2 156.67(12) 4_456 5_554
O2 O1 O2 136.39(17) 3_566 5_554
O3 O1 O2 70.9(3) 3_565 5_554
O3 O1 O2 82.6(3) 4_455 5_554
O3 O1 O2 132.6(4) . 5_554
Ga2 O1 O2 38.08(13) 2_565 5_554
O2 O1 O2 61.83(19) 5 5_554
O2 O1 O2 116.0(3) 2_455 5_554
O2 O1 O2 116.0(3) 6_565 5_554
Ga3 O1 O2 82.24(15) 2_565 5_554
Ga3 O1 O2 144.6(2) 1_556 5_554
Ga3 O1 O2 113.00(16) 4_456 5_554
O3 O1 O2 50.6(2) 5_445 5_554
O3 O1 O2 48.01(17) 6_665 5_554
O3 O1 O2 99.0(3) 2_465 5_554
Ga3 O1 O2 17.57(10) 2_564 5_554
Ga3 O1 O2 76.5(2) . 5_554
Ga3 O1 O2 56.31(17) 4_455 5_554
Ga1 O1 O2 54.05(14) . 5_554
Nb O1 O2 54.05(14) . 5_554
Ga1 O1 O2 115.4(3) 1_455 5_554
Nb O1 O2 115.4(3) 1_455 5_554
Ga1 O1 O2 72.59(15) 1_565 5_554
Nb O1 O2 72.59(15) 1_565 5_554
La O1 O2 132.86(10) 1_556 5_554
La O1 O2 114.33(9) 2_566 5_554
La O1 O2 161.65(11) 4_456 5_554
O2 O1 O2 92.2(2) 6 5_554
O2 O1 O2 66.61(15) 2_565 5_554
O2 O1 O2 131.1(3) 5_455 5_554
O3 O1 O2 104.33(15) 5_446 5_554
O3 O1 O2 102.46(13) 6_666 5_554
O3 O1 O2 165.3(3) 2_466 5_554
O3 O1 O2 31.93(16) 2_565 5_554
O3 O1 O2 96.2(3) 6 5_554
O3 O1 O2 73.2(2) 5_455 5_554
Ga2 O1 O2 70.60(11) 1_665 5_554
Ga2 O1 O2 112.14(15) . 5_554
Ga2 O1 O2 131.1(2) 1_565 5_554
O1 O1 O2 81.4(3) 2_455 5_554
O1 O1 O2 32.8(2) 2_565 5_554
O1 O1 O2 97.1(4) 2_465 5_554
O1 O1 O2 38.08(13) 1_554 5_554
O1 O1 O2 141.93(13) 1_556 5_554
O3 O1 O2 88.18(16) 2_566 5_554
O3 O1 O2 148.60(19) 6_556 5_554
O3 O1 O2 119.05(15) 5_456 5_554
Ga3 O1 O2 90.17(12) 4_446 5_554
Ga3 O1 O2 83.76(11) 1_666 5_554
Ga3 O1 O2 145.4(3) 2_465 5_554
O3 O1 O2 59.99(15) 1_655 5_554
O3 O1 O2 124.5(3) 4_345 5_554
O3 O1 O2 93.56(18) 3_575 5_554
Ga2 O1 O2 141.93(13) 2_566 2_454
La O1 O2 102.6(4) 2_565 2_454
La O1 O2 38.8(2) . 2_454
La O1 O2 73.6(3) 4_455 2_454
O2 O1 O2 12.5(2) 4_455 2_454
O2 O1 O2 53.4(2) . 2_454
O2 O1 O2 66.8(3) 3_565 2_454
O2 O1 O2 136.39(17) 1_556 2_454
O2 O1 O2 111.17(19) 4_456 2_454
O2 O1 O2 156.67(12) 3_566 2_454
O3 O1 O2 82.6(3) 3_565 2_454
O3 O1 O2 132.6(4) 4_455 2_454
O3 O1 O2 70.9(3) . 2_454
Ga2 O1 O2 38.08(13) 2_565 2_454
O2 O1 O2 116.0(3) 5 2_454
O2 O1 O2 61.8(2) 2_455 2_454
O2 O1 O2 116.0(3) 6_565 2_454
Ga3 O1 O2 113.01(16) 2_565 2_454
Ga3 O1 O2 82.24(15) 1_556 2_454
Ga3 O1 O2 144.6(2) 4_456 2_454
O3 O1 O2 48.01(17) 5_445 2_454
O3 O1 O2 99.0(3) 6_665 2_454
O3 O1 O2 50.6(2) 2_465 2_454
Ga3 O1 O2 56.32(17) 2_564 2_454
Ga3 O1 O2 17.57(10) . 2_454
Ga3 O1 O2 76.5(2) 4_455 2_454
Ga1 O1 O2 72.59(15) . 2_454
Nb O1 O2 72.59(15) . 2_454
Ga1 O1 O2 54.05(14) 1_455 2_454
Nb O1 O2 54.05(14) 1_455 2_454
Ga1 O1 O2 115.4(3) 1_565 2_454
Nb O1 O2 115.4(3) 1_565 2_454
La O1 O2 114.33(9) 1_556 2_454
La O1 O2 161.65(11) 2_566 2_454
La O1 O2 132.86(10) 4_456 2_454
O2 O1 O2 66.61(15) 6 2_454
O2 O1 O2 131.1(3) 2_565 2_454
O2 O1 O2 92.2(2) 5_455 2_454
O3 O1 O2 102.46(13) 5_446 2_454
O3 O1 O2 165.3(3) 6_666 2_454
O3 O1 O2 104.33(15) 2_466 2_454
O3 O1 O2 73.2(2) 2_565 2_454
O3 O1 O2 31.93(16) 6 2_454
O3 O1 O2 96.2(3) 5_455 2_454
Ga2 O1 O2 131.1(2) 1_665 2_454
Ga2 O1 O2 70.60(11) . 2_454
Ga2 O1 O2 112.14(15) 1_565 2_454
O1 O1 O2 32.8(2) 2_455 2_454
O1 O1 O2 97.1(4) 2_565 2_454
O1 O1 O2 81.4(3) 2_465 2_454
O1 O1 O2 38.08(13) 1_554 2_454
O1 O1 O2 141.93(13) 1_556 2_454
O3 O1 O2 119.05(15) 2_566 2_454
O3 O1 O2 88.18(16) 6_556 2_454
O3 O1 O2 148.60(19) 5_456 2_454
Ga3 O1 O2 83.76(11) 4_446 2_454
Ga3 O1 O2 145.4(3) 1_666 2_454
Ga3 O1 O2 90.17(12) 2_465 2_454
O3 O1 O2 93.57(18) 1_655 2_454
O3 O1 O2 59.99(15) 4_345 2_454
O3 O1 O2 124.5(3) 3_575 2_454
O2 O1 O2 64.6(2) 5_554 2_454
Ga2 O1 O2 141.92(13) 2_566 6_564
La O1 O2 73.6(3) 2_565 6_564
La O1 O2 102.6(4) . 6_564
La O1 O2 38.8(2) 4_455 6_564
O2 O1 O2 53.4(2) 4_455 6_564
O2 O1 O2 66.8(3) . 6_564
O2 O1 O2 12.5(2) 3_565 6_564
O2 O1 O2 156.67(12) 1_556 6_564
O2 O1 O2 136.39(17) 4_456 6_564
O2 O1 O2 111.16(19) 3_566 6_564
O3 O1 O2 132.6(4) 3_565 6_564
O3 O1 O2 70.9(3) 4_455 6_564
O3 O1 O2 82.6(3) . 6_564
Ga2 O1 O2 38.07(13) 2_565 6_564
O2 O1 O2 116.0(3) 5 6_564
O2 O1 O2 116.0(3) 2_455 6_564
O2 O1 O2 61.8(2) 6_565 6_564
Ga3 O1 O2 144.6(2) 2_565 6_564
Ga3 O1 O2 113.00(16) 1_556 6_564
Ga3 O1 O2 82.23(15) 4_456 6_564
O3 O1 O2 99.0(3) 5_445 6_564
O3 O1 O2 50.6(2) 6_665 6_564
O3 O1 O2 48.01(17) 2_465 6_564
Ga3 O1 O2 76.5(2) 2_564 6_564
Ga3 O1 O2 56.32(17) . 6_564
Ga3 O1 O2 17.57(10) 4_455 6_564
Ga1 O1 O2 115.4(3) . 6_564
Nb O1 O2 115.4(3) . 6_564
Ga1 O1 O2 72.59(15) 1_455 6_564
Nb O1 O2 72.59(15) 1_455 6_564
Ga1 O1 O2 54.04(14) 1_565 6_564
Nb O1 O2 54.04(14) 1_565 6_564
La O1 O2 161.65(11) 1_556 6_564
La O1 O2 132.86(10) 2_566 6_564
La O1 O2 114.33(9) 4_456 6_564
O2 O1 O2 131.1(3) 6 6_564
O2 O1 O2 92.2(2) 2_565 6_564
O2 O1 O2 66.60(15) 5_455 6_564
O3 O1 O2 165.3(3) 5_446 6_564
O3 O1 O2 104.33(15) 6_666 6_564
O3 O1 O2 102.46(13) 2_466 6_564
O3 O1 O2 96.2(3) 2_565 6_564
O3 O1 O2 73.2(2) 6 6_564
O3 O1 O2 31.93(16) 5_455 6_564
Ga2 O1 O2 112.14(15) 1_665 6_564
Ga2 O1 O2 131.1(2) . 6_564
Ga2 O1 O2 70.60(11) 1_565 6_564
O1 O1 O2 97.1(4) 2_455 6_564
O1 O1 O2 81.4(3) 2_565 6_564
O1 O1 O2 32.8(2) 2_465 6_564
O1 O1 O2 38.07(13) 1_554 6_564
O1 O1 O2 141.92(13) 1_556 6_564
O3 O1 O2 148.60(19) 2_566 6_564
O3 O1 O2 119.05(15) 6_556 6_564
O3 O1 O2 88.18(16) 5_456 6_564
Ga3 O1 O2 145.4(3) 4_446 6_564
Ga3 O1 O2 90.17(12) 1_666 6_564
Ga3 O1 O2 83.76(11) 2_465 6_564
O3 O1 O2 124.5(3) 1_655 6_564
O3 O1 O2 93.56(18) 4_345 6_564
O3 O1 O2 59.99(15) 3_575 6_564
O2 O1 O2 64.6(2) 5_554 6_564
O2 O1 O2 64.6(2) 2_454 6_564
Ga2 O1 O3 146.62(12) 2_566 3_564
La O1 O3 66.8(3) 2_565 3_564
La O1 O3 46.5(3) . 3_564
La O1 O3 100.8(4) 4_455 3_564
O2 O1 O3 46.3(3) 4_455 3_564
O2 O1 O3 16.0(2) . 3_564
O2 O1 O3 64.3(3) 3_565 3_564
O2 O1 O3 116.99(19) 1_556 3_564
O2 O1 O3 135.4(2) 4_456 3_564
O2 O1 O3 163.4(2) 3_566 3_564
O3 O1 O3 61.9(2) 3_565 3_564
O3 O1 O3 110.6(3) 4_455 3_564
O3 O1 O3 110.6(3) . 3_564
Ga2 O1 O3 33.38(12) 2_565 3_564
O2 O1 O3 77.9(2) 5 3_564
O2 O1 O3 88.0(3) 2_455 3_564
O2 O1 O3 132.5(4) 6_565 3_564
Ga3 O1 O3 85.78(16) 2_565 3_564
Ga3 O1 O3 116.13(19) 1_556 3_564
Ga3 O1 O3 140.3(2) 4_456 3_564
O3 O1 O3 29.0(3) 5_445 3_564
O3 O1 O3 74.7(2) 6_665 3_564
O3 O1 O3 85.5(3) 2_465 3_564
Ga3 O1 O3 16.59(10) 2_564 3_564
Ga3 O1 O3 55.34(17) . 3_564
Ga3 O1 O3 71.4(2) 4_455 3_564
Ga1 O1 O3 45.64(13) . 3_564
Nb O1 O3 45.64(13) . 3_564
Ga1 O1 O3 93.7(2) 1_455 3_564
Nb O1 O3 93.7(2) 1_455 3_564
Ga1 O1 O3 98.6(2) 1_565 3_564
Nb O1 O3 98.6(2) 1_565 3_564
La O1 O3 120.80(10) 1_556 3_564
La O1 O3 132.10(9) 2_566 3_564
La O1 O3 169.39(11) 4_456 3_564
O2 O1 O3 70.02(18) 6 3_564
O2 O1 O3 93.31(19) 2_565 3_564
O2 O1 O3 126.9(3) 5_455 3_564
O3 O1 O3 94.53(19) 5_446 3_564
O3 O1 O3 129.38(18) 6_666 3_564
O3 O1 O3 143.49(17) 2_466 3_564
O3 O1 O3 35.5(2) 2_565 3_564
O3 O1 O3 71.4(2) 6 3_564
O3 O1 O3 92.3(2) 5_455 3_564
Ga2 O1 O3 91.59(13) 1_665 3_564
Ga2 O1 O3 86.87(15) . 3_564
Ga2 O1 O3 140.5(3) 1_565 3_564
O1 O1 O3 53.0(3) 2_455 3_564
O1 O1 O3 58.6(2) 2_565 3_564
O1 O1 O3 101.7(4) 2_465 3_564
O1 O1 O3 33.38(12) 1_554 3_564
O1 O1 O3 146.62(12) 1_556 3_564
O3 O1 O3 92.7(2) 2_566 3_564
O3 O1 O3 120.3(2) 6_556 3_564
O3 O1 O3 146.79(16) 5_456 3_564
Ga3 O1 O3 75.67(13) 4_446 3_564
Ga3 O1 O3 111.78(15) 1_666 3_564
Ga3 O1 O3 129.6(2) 2_465 3_564
O3 O1 O3 62.12(12) 1_655 3_564
O3 O1 O3 97.5(2) 4_345 3_564
O3 O1 O3 118.2(3) 3_575 3_564
O2 O1 O3 28.49(14) 5_554 3_564
O2 O1 O3 39.72(16) 2_454 3_564
O2 O1 O3 71.1(2) 6_564 3_564
Ga2 O1 O3 146.62(12) 2_566 1_554
La O1 O3 100.8(4) 2_565 1_554
La O1 O3 66.8(3) . 1_554
La O1 O3 46.5(3) 4_455 1_554
O2 O1 O3 16.0(2) 4_455 1_554
O2 O1 O3 64.3(3) . 1_554
O2 O1 O3 46.3(3) 3_565 1_554
O2 O1 O3 163.4(2) 1_556 1_554
O2 O1 O3 116.99(19) 4_456 1_554
O2 O1 O3 135.4(2) 3_566 1_554
O3 O1 O3 110.6(3) 3_565 1_554
O3 O1 O3 110.6(3) 4_455 1_554
O3 O1 O3 61.9(2) . 1_554
Ga2 O1 O3 33.38(12) 2_565 1_554
O2 O1 O3 132.5(4) 5 1_554
O2 O1 O3 77.9(2) 2_455 1_554
O2 O1 O3 88.0(3) 6_565 1_554
Ga3 O1 O3 140.3(2) 2_565 1_554
Ga3 O1 O3 85.78(16) 1_556 1_554
Ga3 O1 O3 116.12(19) 4_456 1_554
O3 O1 O3 74.7(2) 5_445 1_554
O3 O1 O3 85.5(3) 6_665 1_554
O3 O1 O3 29.0(3) 2_465 1_554
Ga3 O1 O3 71.4(2) 2_564 1_554
Ga3 O1 O3 16.59(10) . 1_554
Ga3 O1 O3 55.34(17) 4_455 1_554
Ga1 O1 O3 98.6(2) . 1_554
Nb O1 O3 98.6(2) . 1_554
Ga1 O1 O3 45.64(13) 1_455 1_554
Nb O1 O3 45.64(13) 1_455 1_554
Ga1 O1 O3 93.7(2) 1_565 1_554
Nb O1 O3 93.7(2) 1_565 1_554
La O1 O3 132.10(9) 1_556 1_554
La O1 O3 169.39(11) 2_566 1_554
La O1 O3 120.80(10) 4_456 1_554
O2 O1 O3 93.31(19) 6 1_554
O2 O1 O3 126.9(3) 2_565 1_554
O2 O1 O3 70.02(18) 5_455 1_554
O3 O1 O3 129.38(18) 5_446 1_554
O3 O1 O3 143.49(17) 6_666 1_554
O3 O1 O3 94.53(19) 2_466 1_554
O3 O1 O3 92.3(2) 2_565 1_554
O3 O1 O3 35.5(2) 6 1_554
O3 O1 O3 71.4(2) 5_455 1_554
Ga2 O1 O3 140.5(3) 1_665 1_554
Ga2 O1 O3 91.59(13) . 1_554
Ga2 O1 O3 86.87(15) 1_565 1_554
O1 O1 O3 58.6(2) 2_455 1_554
O1 O1 O3 101.7(4) 2_565 1_554
O1 O1 O3 53.0(3) 2_465 1_554
O1 O1 O3 33.38(12) 1_554 1_554
O1 O1 O3 146.62(12) 1_556 1_554
O3 O1 O3 146.80(16) 2_566 1_554
O3 O1 O3 92.7(2) 6_556 1_554
O3 O1 O3 120.3(2) 5_456 1_554
Ga3 O1 O3 111.78(15) 4_446 1_554
Ga3 O1 O3 129.6(2) 1_666 1_554
Ga3 O1 O3 75.67(13) 2_465 1_554
O3 O1 O3 118.2(3) 1_655 1_554
O3 O1 O3 62.12(12) 4_345 1_554
O3 O1 O3 97.5(2) 3_575 1_554
O2 O1 O3 71.1(2) 5_554 1_554
O2 O1 O3 28.49(14) 2_454 1_554
O2 O1 O3 39.72(16) 6_564 1_554
O3 O1 O3 56.9(2) 3_564 1_554
Ga2 O1 O3 146.62(12) 2_566 4_454
La O1 O3 46.5(3) 2_565 4_454
La O1 O3 100.8(4) . 4_454
La O1 O3 66.8(3) 4_455 4_454
O2 O1 O3 64.3(3) 4_455 4_454
O2 O1 O3 46.3(3) . 4_454
O2 O1 O3 16.0(2) 3_565 4_454
O2 O1 O3 135.4(2) 1_556 4_454
O2 O1 O3 163.4(2) 4_456 4_454
O2 O1 O3 116.99(19) 3_566 4_454
O3 O1 O3 110.6(3) 3_565 4_454
O3 O1 O3 61.9(2) 4_455 4_454
O3 O1 O3 110.6(3) . 4_454
Ga2 O1 O3 33.38(12) 2_565 4_454
O2 O1 O3 88.0(3) 5 4_454
O2 O1 O3 132.5(4) 2_455 4_454
O2 O1 O3 77.9(2) 6_565 4_454
Ga3 O1 O3 116.13(19) 2_565 4_454
Ga3 O1 O3 140.3(2) 1_556 4_454
Ga3 O1 O3 85.78(16) 4_456 4_454
O3 O1 O3 85.5(3) 5_445 4_454
O3 O1 O3 29.0(3) 6_665 4_454
O3 O1 O3 74.7(2) 2_465 4_454
Ga3 O1 O3 55.34(17) 2_564 4_454
Ga3 O1 O3 71.4(2) . 4_454
Ga3 O1 O3 16.59(10) 4_455 4_454
Ga1 O1 O3 93.7(2) . 4_454
Nb O1 O3 93.7(2) . 4_454
Ga1 O1 O3 98.6(2) 1_455 4_454
Nb O1 O3 98.6(2) 1_455 4_454
Ga1 O1 O3 45.64(13) 1_565 4_454
Nb O1 O3 45.64(13) 1_565 4_454
La O1 O3 169.39(11) 1_556 4_454
La O1 O3 120.80(10) 2_566 4_454
La O1 O3 132.09(9) 4_456 4_454
O2 O1 O3 126.9(3) 6 4_454
O2 O1 O3 70.02(18) 2_565 4_454
O2 O1 O3 93.31(19) 5_455 4_454
O3 O1 O3 143.49(17) 5_446 4_454
O3 O1 O3 94.53(19) 6_666 4_454
O3 O1 O3 129.38(18) 2_466 4_454
O3 O1 O3 71.4(2) 2_565 4_454
O3 O1 O3 92.3(2) 6 4_454
O3 O1 O3 35.5(2) 5_455 4_454
Ga2 O1 O3 86.87(15) 1_665 4_454
Ga2 O1 O3 140.5(3) . 4_454
Ga2 O1 O3 91.59(13) 1_565 4_454
O1 O1 O3 101.7(4) 2_455 4_454
O1 O1 O3 53.0(3) 2_565 4_454
O1 O1 O3 58.6(2) 2_465 4_454
O1 O1 O3 33.38(12) 1_554 4_454
O1 O1 O3 146.62(12) 1_556 4_454
O3 O1 O3 120.3(2) 2_566 4_454
O3 O1 O3 146.79(16) 6_556 4_454
O3 O1 O3 92.66(19) 5_456 4_454
Ga3 O1 O3 129.6(2) 4_446 4_454
Ga3 O1 O3 75.67(13) 1_666 4_454
Ga3 O1 O3 111.78(15) 2_465 4_454
O3 O1 O3 97.5(2) 1_655 4_454
O3 O1 O3 118.2(3) 4_345 4_454
O3 O1 O3 62.12(12) 3_575 4_454
O2 O1 O3 39.72(16) 5_554 4_454
O2 O1 O3 71.1(2) 2_454 4_454
O2 O1 O3 28.49(14) 6_564 4_454
O3 O1 O3 56.9(2) 3_564 4_454
O3 O1 O3 56.9(2) 1_554 4_454
Ga2 O1 O1 55.4(2) 2_566 2_566
La O1 O1 57.10(6) 2_565 2_566
La O1 O1 114.41(11) . 2_566
La O1 O1 137.56(17) 4_455 2_566
O2 O1 O1 152.8(4) 4_455 2_566
O2 O1 O1 96.0(2) . 2_566
O2 O1 O1 115.1(2) 3_565 2_566
O2 O1 O1 33.5(2) 1_556 2_566
O2 O1 O1 85.2(4) 4_456 2_566
O2 O1 O1 58.2(3) 3_566 2_566
O3 O1 O1 66.6(2) 3_565 2_566
O3 O1 O1 58.3(2) 4_455 2_566
O3 O1 O1 139.8(5) . 2_566
Ga2 O1 O1 124.6(2) 2_565 2_566
O2 O1 O1 28.66(15) 5 2_566
O2 O1 O1 119.0(4) 2_455 2_566
O2 O1 O1 95.7(2) 6_565 2_566
Ga3 O1 O1 36.96(8) 2_565 2_566
Ga3 O1 O1 116.3(4) 1_556 2_566
Ga3 O1 O1 65.47(17) 4_456 2_566
O3 O1 O1 97.29(10) 5_445 2_566
O3 O1 O1 74.92(15) 6_665 2_566
O3 O1 O1 163.70(18) 2_465 2_566
Ga3 O1 O1 90.43(12) 2_564 2_566
Ga3 O1 O1 161.6(3) . 2_566
Ga3 O1 O1 107.38(11) 4_455 2_566
Ga1 O1 O1 72.892(3) . 2_566
Nb O1 O1 72.892(3) . 2_566
Ga1 O1 O1 156.6(4) 1_455 2_566
Nb O1 O1 156.6(4) 1_455 2_566
Ga1 O1 O1 72.892(3) 1_565 2_566
Nb O1 O1 72.892(3) 1_565 2_566
La O1 O1 67.8(3) 1_556 2_566
La O1 O1 26.87(15) 2_566 2_566
La O1 O1 78.3(3) 4_456 2_566
O2 O1 O1 94.18(18) 6 2_566
O2 O1 O1 32.84(11) 2_565 2_566
O2 O1 O1 123.5(3) 5_455 2_566
O3 O1 O1 61.38(19) 5_446 2_566
O3 O1 O1 33.77(14) 6_666 2_566
O3 O1 O1 106.2(4) 2_466 2_566
O3 O1 O1 71.54(13) 2_565 2_566
O3 O1 O1 161.0(2) 6 2_566
O3 O1 O1 96.55(9) 5_455 2_566
Ga2 O1 O1 17.28(9) 1_665 2_566
Ga2 O1 O1 103.0(2) . 2_566
Ga2 O1 O1 103.0(2) 1_565 2_566
O1 O1 O1 126.24(13) 2_455 2_566
O1 O1 O1 56.09(7) 2_565 2_566
O1 O1 O1 126.24(13) 2_465 2_566
O1 O1 O1 124.6(2) 1_554 2_566
O1 O1 O1 55.4(2) 1_556 2_566
O3 O1 O1 33.23(12) 2_566 2_566
O3 O1 O1 109.4(4) 6_556 2_566
O3 O1 O1 64.04(18) 5_456 2_566
Ga3 O1 O1 73.85(13) 4_446 2_566
Ga3 O1 O1 37.560(18) 1_666 2_566
Ga3 O1 O1 123.6(4) 2_465 2_566
O3 O1 O1 51.62(10) 1_655 2_566
O3 O1 O1 139.5(4) 4_345 2_566
O3 O1 O1 76.62(12) 3_575 2_566
O2 O1 O1 87.62(17) 5_554 2_566
O2 O1 O1 144.3(2) 2_454 2_566
O2 O1 O1 124.75(17) 6_564 2_566
O3 O1 O1 106.48(17) 3_564 2_566
O3 O1 O1 157.7(3) 1_554 2_566
O3 O1 O1 102.3(2) 4_454 2_566
Ga2 O1 O1 55.4(2) 2_566 2_456
La O1 O1 137.56(17) 2_565 2_456
La O1 O1 57.10(6) . 2_456
La O1 O1 114.41(11) 4_455 2_456
O2 O1 O1 96.0(2) 4_455 2_456
O2 O1 O1 115.1(2) . 2_456
O2 O1 O1 152.8(4) 3_565 2_456
O2 O1 O1 58.2(3) 1_556 2_456
O2 O1 O1 33.5(2) 4_456 2_456
O2 O1 O1 85.2(4) 3_566 2_456
O3 O1 O1 58.3(2) 3_565 2_456
O3 O1 O1 139.8(5) 4_455 2_456
O3 O1 O1 66.6(2) . 2_456
Ga2 O1 O1 124.6(2) 2_565 2_456
O2 O1 O1 95.7(2) 5 2_456
O2 O1 O1 28.66(15) 2_455 2_456
O2 O1 O1 119.0(4) 6_565 2_456
Ga3 O1 O1 65.47(17) 2_565 2_456
Ga3 O1 O1 36.96(8) 1_556 2_456
Ga3 O1 O1 116.3(4) 4_456 2_456
O3 O1 O1 74.92(15) 5_445 2_456
O3 O1 O1 163.70(19) 6_665 2_456
O3 O1 O1 97.29(10) 2_465 2_456
Ga3 O1 O1 107.38(11) 2_564 2_456
Ga3 O1 O1 90.43(12) . 2_456
Ga3 O1 O1 161.6(3) 4_455 2_456
Ga1 O1 O1 72.892(3) . 2_456
Nb O1 O1 72.892(3) . 2_456
Ga1 O1 O1 72.892(3) 1_455 2_456
Nb O1 O1 72.892(3) 1_455 2_456
Ga1 O1 O1 156.6(4) 1_565 2_456
Nb O1 O1 156.6(4) 1_565 2_456
La O1 O1 26.87(15) 1_556 2_456
La O1 O1 78.3(3) 2_566 2_456
La O1 O1 67.8(3) 4_456 2_456
O2 O1 O1 32.84(11) 6 2_456
O2 O1 O1 123.5(3) 2_565 2_456
O2 O1 O1 94.18(18) 5_455 2_456
O3 O1 O1 33.77(14) 5_446 2_456
O3 O1 O1 106.2(4) 6_666 2_456
O3 O1 O1 61.38(19) 2_466 2_456
O3 O1 O1 96.55(9) 2_565 2_456
O3 O1 O1 71.54(13) 6 2_456
O3 O1 O1 161.0(2) 5_455 2_456
Ga2 O1 O1 103.0(2) 1_665 2_456
Ga2 O1 O1 17.28(9) . 2_456
Ga2 O1 O1 103.0(2) 1_565 2_456
O1 O1 O1 56.09(7) 2_455 2_456
O1 O1 O1 126.24(13) 2_565 2_456
O1 O1 O1 126.24(13) 2_465 2_456
O1 O1 O1 124.6(2) 1_554 2_456
O1 O1 O1 55.4(2) 1_556 2_456
O3 O1 O1 64.04(18) 2_566 2_456
O3 O1 O1 33.23(12) 6_556 2_456
O3 O1 O1 109.4(4) 5_456 2_456
Ga3 O1 O1 37.559(18) 4_446 2_456
Ga3 O1 O1 123.6(4) 1_666 2_456
Ga3 O1 O1 73.85(12) 2_465 2_456
O3 O1 O1 76.62(12) 1_655 2_456
O3 O1 O1 51.62(10) 4_345 2_456
O3 O1 O1 139.5(4) 3_575 2_456
O2 O1 O1 124.75(17) 5_554 2_456
O2 O1 O1 87.62(17) 2_454 2_456
O2 O1 O1 144.3(2) 6_564 2_456
O3 O1 O1 102.28(19) 3_564 2_456
O3 O1 O1 106.48(17) 1_554 2_456
O3 O1 O1 157.7(3) 4_454 2_456
O1 O1 O1 91.0(3) 2_566 2_456
Ga2 O1 O1 55.4(2) 2_566 2_466
La O1 O1 114.41(11) 2_565 2_466
La O1 O1 137.56(17) . 2_466
La O1 O1 57.10(6) 4_455 2_466
O2 O1 O1 115.1(2) 4_455 2_466
O2 O1 O1 152.8(4) . 2_466
O2 O1 O1 96.0(2) 3_565 2_466
O2 O1 O1 85.2(4) 1_556 2_466
O2 O1 O1 58.2(3) 4_456 2_466
O2 O1 O1 33.5(2) 3_566 2_466
O3 O1 O1 139.8(5) 3_565 2_466
O3 O1 O1 66.6(2) 4_455 2_466
O3 O1 O1 58.3(2) . 2_466
Ga2 O1 O1 124.6(2) 2_565 2_466
O2 O1 O1 119.0(4) 5 2_466
O2 O1 O1 95.7(2) 2_455 2_466
O2 O1 O1 28.66(15) 6_565 2_466
Ga3 O1 O1 116.3(4) 2_565 2_466
Ga3 O1 O1 65.47(17) 1_556 2_466
Ga3 O1 O1 36.96(8) 4_456 2_466
O3 O1 O1 163.70(19) 5_445 2_466
O3 O1 O1 97.29(10) 6_665 2_466
O3 O1 O1 74.92(15) 2_465 2_466
Ga3 O1 O1 161.6(3) 2_564 2_466
Ga3 O1 O1 107.38(11) . 2_466
Ga3 O1 O1 90.43(12) 4_455 2_466
Ga1 O1 O1 156.6(4) . 2_466
Nb O1 O1 156.6(4) . 2_466
Ga1 O1 O1 72.892(3) 1_455 2_466
Nb O1 O1 72.892(3) 1_455 2_466
Ga1 O1 O1 72.892(4) 1_565 2_466
Nb O1 O1 72.892(4) 1_565 2_466
La O1 O1 78.3(3) 1_556 2_466
La O1 O1 67.8(3) 2_566 2_466
La O1 O1 26.87(15) 4_456 2_466
O2 O1 O1 123.5(3) 6 2_466
O2 O1 O1 94.18(18) 2_565 2_466
O2 O1 O1 32.84(11) 5_455 2_466
O3 O1 O1 106.2(4) 5_446 2_466
O3 O1 O1 61.38(19) 6_666 2_466
O3 O1 O1 33.77(14) 2_466 2_466
O3 O1 O1 161.0(2) 2_565 2_466
O3 O1 O1 96.55(9) 6 2_466
O3 O1 O1 71.54(13) 5_455 2_466
Ga2 O1 O1 103.0(2) 1_665 2_466
Ga2 O1 O1 103.0(2) . 2_466
Ga2 O1 O1 17.28(9) 1_565 2_466
O1 O1 O1 126.24(13) 2_455 2_466
O1 O1 O1 126.24(13) 2_565 2_466
O1 O1 O1 56.09(7) 2_465 2_466
O1 O1 O1 124.6(2) 1_554 2_466
O1 O1 O1 55.4(2) 1_556 2_466
O3 O1 O1 109.4(4) 2_566 2_466
O3 O1 O1 64.04(18) 6_556 2_466
O3 O1 O1 33.23(12) 5_456 2_466
Ga3 O1 O1 123.6(4) 4_446 2_466
Ga3 O1 O1 73.85(12) 1_666 2_466
Ga3 O1 O1 37.560(18) 2_465 2_466
O3 O1 O1 139.5(4) 1_655 2_466
O3 O1 O1 76.62(12) 4_345 2_466
O3 O1 O1 51.62(10) 3_575 2_466
O2 O1 O1 144.3(2) 5_554 2_466
O2 O1 O1 124.75(17) 2_454 2_466
O2 O1 O1 87.62(17) 6_564 2_466
O3 O1 O1 157.7(3) 3_564 2_466
O3 O1 O1 102.3(2) 1_554 2_466
O3 O1 O1 106.48(17) 4_454 2_466
O1 O1 O1 91.0(3) 2_566 2_466
O1 O1 O1 91.0(3) 2_456 2_466
Ga2 O1 O3 87.12(17) 2_566 4_445
La O1 O3 87.26(9) 2_565 4_445
La O1 O3 40.98(13) . 4_445
La O1 O3 149.0(3) 4_455 4_445
O2 O1 O3 89.2(2) 4_455 4_445
O2 O1 O3 66.0(2) . 4_445
O2 O1 O3 123.1(3) 3_565 4_445
O2 O1 O3 61.9(2) 1_556 4_445
O2 O1 O3 84.5(2) 4_456 4_445
O2 O1 O3 116.1(3) 3_566 4_445
O3 O1 O3 7.1(2) 3_565 4_445
O3 O1 O3 126.1(2) 4_455 4_445
O3 O1 O3 112.9(2) . 4_445
Ga2 O1 O3 92.88(17) 2_565 4_445
O2 O1 O3 55.93(17) 5 4_445
O2 O1 O3 64.00(16) 2_455 4_445
O2 O1 O3 166.6(4) 6_565 4_445
Ga3 O1 O3 37.05(11) 2_565 4_445
Ga3 O1 O3 89.20(11) 1_556 4_445
Ga3 O1 O3 138.0(3) 4_456 4_445
O3 O1 O3 32.5(2) 5_445 4_445
O3 O1 O3 112.10(12) 6_665 4_445
O3 O1 O3 122.72(13) 2_465 4_445
Ga3 O1 O3 56.59(9) 2_564 4_445
Ga3 O1 O3 92.51(14) . 4_445
Ga3 O1 O3 128.2(2) 4_455 4_445
Ga1 O1 O3 18.33(8) . 4_445
Nb O1 O3 18.33(8) . 4_445
Ga1 O1 O3 108.36(10) 1_455 4_445
Nb O1 O3 108.36(10) 1_455 4_445
Ga1 O1 O3 131.57(10) 1_565 4_445
Nb O1 O3 131.57(10) 1_565 4_445
La O1 O3 62.64(11) 1_556 4_445
La O1 O3 85.47(15) 2_566 4_445
La O1 O3 114.1(2) 4_456 4_445
O2 O1 O3 28.56(13) 6 4_445
O2 O1 O3 91.27(14) 2_565 4_445
O2 O1 O3 146.83(17) 5_455 4_445
O3 O1 O3 34.87(19) 5_446 4_445
O3 O1 O3 106.84(15) 6_666 4_445
O3 O1 O3 116.06(17) 2_466 4_445
O3 O1 O3 41.88(16) 2_565 4_445
O3 O1 O3 89.94(17) 6 4_445
O3 O1 O3 144.2(2) 5_455 4_445
Ga2 O1 O3 71.82(10) 1_665 4_445
Ga2 O1 O3 49.37(9) . 4_445
Ga2 O1 O3 156.7(3) 1_565 4_445
O1 O1 O3 53.03(11) 2_455 4_445
O1 O1 O3 74.28(8) 2_565 4_445
O1 O1 O3 158.1(4) 2_465 4_445
O1 O1 O3 92.88(17) 1_554 4_445
O1 O1 O3 87.12(17) 1_556 4_445
O3 O1 O3 42.5(2) 2_566 4_445
O3 O1 O3 87.19(16) 6_556 4_445
O3 O1 O3 134.7(2) 5_456 4_445
Ga3 O1 O3 17.98(8) 4_446 4_445
Ga3 O1 O3 107.69(12) 1_666 4_445
Ga3 O1 O3 126.98(14) 2_465 4_445
O3 O1 O3 27.68(12) 1_655 4_445
O3 O1 O3 92.12(12) 4_345 4_445
O3 O1 O3 147.19(14) 3_575 4_445
O2 O1 O3 72.20(14) 5_554 4_445
O2 O1 O3 76.74(15) 2_454 4_445
O2 O1 O3 130.8(3) 6_564 4_445
O3 O1 O3 59.75(10) 3_564 4_445
O3 O1 O3 105.1(2) 1_554 4_445
O3 O1 O3 111.7(2) 4_454 4_445
O1 O1 O3 73.46(11) 2_566 4_445
O1 O1 O3 54.75(8) 2_456 4_445
O1 O1 O3 140.9(4) 2_466 4_445
Ga2 O1 O3 87.12(17) 2_566 1_665
La O1 O3 40.98(13) 2_565 1_665
La O1 O3 149.0(3) . 1_665
La O1 O3 87.26(9) 4_455 1_665
O2 O1 O3 123.1(3) 4_455 1_665
O2 O1 O3 89.2(2) . 1_665
O2 O1 O3 66.0(2) 3_565 1_665
O2 O1 O3 84.5(2) 1_556 1_665
O2 O1 O3 116.1(3) 4_456 1_665
O2 O1 O3 61.9(2) 3_566 1_665
O3 O1 O3 112.9(2) 3_565 1_665
O3 O1 O3 7.1(2) 4_455 1_665
O3 O1 O3 126.1(2) . 1_665
Ga2 O1 O3 92.88(17) 2_565 1_665
O2 O1 O3 64.00(16) 5 1_665
O2 O1 O3 166.6(4) 2_455 1_665
O2 O1 O3 55.93(17) 6_565 1_665
Ga3 O1 O3 89.20(11) 2_565 1_665
Ga3 O1 O3 138.0(3) 1_556 1_665
Ga3 O1 O3 37.05(11) 4_456 1_665
O3 O1 O3 122.72(13) 5_445 1_665
O3 O1 O3 32.5(2) 6_665 1_665
O3 O1 O3 112.10(12) 2_465 1_665
Ga3 O1 O3 92.51(14) 2_564 1_665
Ga3 O1 O3 128.2(2) . 1_665
Ga3 O1 O3 56.59(9) 4_455 1_665
Ga1 O1 O3 108.36(10) . 1_665
Nb O1 O3 108.36(10) . 1_665
Ga1 O1 O3 131.56(10) 1_455 1_665
Nb O1 O3 131.56(10) 1_455 1_665
Ga1 O1 O3 18.33(8) 1_565 1_665
Nb O1 O3 18.33(8) 1_565 1_665
La O1 O3 114.1(2) 1_556 1_665
La O1 O3 62.64(11) 2_566 1_665
La O1 O3 85.47(15) 4_456 1_665
O2 O1 O3 146.83(17) 6 1_665
O2 O1 O3 28.56(13) 2_565 1_665
O2 O1 O3 91.27(14) 5_455 1_665
O3 O1 O3 116.06(17) 5_446 1_665
O3 O1 O3 34.87(19) 6_666 1_665
O3 O1 O3 106.84(14) 2_466 1_665
O3 O1 O3 89.94(18) 2_565 1_665
O3 O1 O3 144.2(2) 6 1_665
O3 O1 O3 41.88(16) 5_455 1_665
Ga2 O1 O3 49.37(9) 1_665 1_665
Ga2 O1 O3 156.7(3) . 1_665
Ga2 O1 O3 71.82(10) 1_565 1_665
O1 O1 O3 158.1(4) 2_455 1_665
O1 O1 O3 53.03(11) 2_565 1_665
O1 O1 O3 74.28(8) 2_465 1_665
O1 O1 O3 92.88(17) 1_554 1_665
O1 O1 O3 87.12(17) 1_556 1_665
O3 O1 O3 87.19(16) 2_566 1_665
O3 O1 O3 134.7(2) 6_556 1_665
O3 O1 O3 42.5(2) 5_456 1_665
Ga3 O1 O3 126.98(14) 4_446 1_665
Ga3 O1 O3 17.98(8) 1_666 1_665
Ga3 O1 O3 107.69(12) 2_465 1_665
O3 O1 O3 92.12(12) 1_655 1_665
O3 O1 O3 147.18(14) 4_345 1_665
O3 O1 O3 27.68(12) 3_575 1_665
O2 O1 O3 76.74(15) 5_554 1_665
O2 O1 O3 130.8(3) 2_454 1_665
O2 O1 O3 72.20(14) 6_564 1_665
O3 O1 O3 105.1(2) 3_564 1_665
O3 O1 O3 111.7(2) 1_554 1_665
O3 O1 O3 59.75(10) 4_454 1_665
O1 O1 O3 54.75(8) 2_566 1_665
O1 O1 O3 140.9(4) 2_456 1_665
O1 O1 O3 73.46(11) 2_466 1_665
O3 O1 O3 119.75(3) 4_445 1_665
Ga2 O1 O3 87.12(17) 2_566 3_465
La O1 O3 149.0(3) 2_565 3_465
La O1 O3 87.26(9) . 3_465
La O1 O3 40.98(13) 4_455 3_465
O2 O1 O3 66.0(2) 4_455 3_465
O2 O1 O3 123.1(3) . 3_465
O2 O1 O3 89.2(2) 3_565 3_465
O2 O1 O3 116.1(3) 1_556 3_465
O2 O1 O3 61.9(2) 4_456 3_465
O2 O1 O3 84.5(2) 3_566 3_465
O3 O1 O3 126.1(2) 3_565 3_465
O3 O1 O3 112.9(2) 4_455 3_465
O3 O1 O3 7.1(2) . 3_465
Ga2 O1 O3 92.88(17) 2_565 3_465
O2 O1 O3 166.6(4) 5 3_465
O2 O1 O3 55.93(17) 2_455 3_465
O2 O1 O3 64.00(16) 6_565 3_465
Ga3 O1 O3 138.0(3) 2_565 3_465
Ga3 O1 O3 37.05(11) 1_556 3_465
Ga3 O1 O3 89.20(11) 4_456 3_465
O3 O1 O3 112.10(12) 5_445 3_465
O3 O1 O3 122.72(13) 6_665 3_465
O3 O1 O3 32.5(2) 2_465 3_465
Ga3 O1 O3 128.2(2) 2_564 3_465
Ga3 O1 O3 56.59(9) . 3_465
Ga3 O1 O3 92.51(14) 4_455 3_465
Ga1 O1 O3 131.57(10) . 3_465
Nb O1 O3 131.57(10) . 3_465
Ga1 O1 O3 18.33(8) 1_455 3_465
Nb O1 O3 18.33(8) 1_455 3_465
Ga1 O1 O3 108.36(10) 1_565 3_465
Nb O1 O3 108.36(10) 1_565 3_465
La O1 O3 85.47(15) 1_556 3_465
La O1 O3 114.1(2) 2_566 3_465
La O1 O3 62.64(11) 4_456 3_465
O2 O1 O3 91.27(14) 6 3_465
O2 O1 O3 146.83(17) 2_565 3_465
O2 O1 O3 28.56(13) 5_455 3_465
O3 O1 O3 106.84(15) 5_446 3_465
O3 O1 O3 116.06(17) 6_666 3_465
O3 O1 O3 34.87(19) 2_466 3_465
O3 O1 O3 144.2(2) 2_565 3_465
O3 O1 O3 41.88(16) 6 3_465
O3 O1 O3 89.94(17) 5_455 3_465
Ga2 O1 O3 156.7(3) 1_665 3_465
Ga2 O1 O3 71.82(10) . 3_465
Ga2 O1 O3 49.37(9) 1_565 3_465
O1 O1 O3 74.28(8) 2_455 3_465
O1 O1 O3 158.1(4) 2_565 3_465
O1 O1 O3 53.03(11) 2_465 3_465
O1 O1 O3 92.88(17) 1_554 3_465
O1 O1 O3 87.12(17) 1_556 3_465
O3 O1 O3 134.7(2) 2_566 3_465
O3 O1 O3 42.5(2) 6_556 3_465
O3 O1 O3 87.19(16) 5_456 3_465
Ga3 O1 O3 107.69(12) 4_446 3_465
Ga3 O1 O3 126.98(14) 1_666 3_465
Ga3 O1 O3 17.98(8) 2_465 3_465
O3 O1 O3 147.19(14) 1_655 3_465
O3 O1 O3 27.68(12) 4_345 3_465
O3 O1 O3 92.12(12) 3_575 3_465
O2 O1 O3 130.8(3) 5_554 3_465
O2 O1 O3 72.20(14) 2_454 3_465
O2 O1 O3 76.74(15) 6_564 3_465
O3 O1 O3 111.7(2) 3_564 3_465
O3 O1 O3 59.75(10) 1_554 3_465
O3 O1 O3 105.1(2) 4_454 3_465
O1 O1 O3 140.9(4) 2_566 3_465
O1 O1 O3 73.46(11) 2_456 3_465
O1 O1 O3 54.75(8) 2_466 3_465
O3 O1 O3 119.75(3) 4_445 3_465
O3 O1 O3 119.75(3) 1_665 3_465
Ga2 O1 La 99.01(14) 2_566 4
La O1 La 38.10(2) 2_565 4
La O1 La 79.76(8) . 4
La O1 La 142.8(3) 4_455 4
O2 O1 La 103.9(3) 4_455 4
O2 O1 La 48.39(16) . 4
O2 O1 La 91.9(2) 3_565 4
O2 O1 La 67.81(16) 1_556 4
O2 O1 La 119.1(3) 4_456 4
O2 O1 La 106.8(2) 3_566 4
O3 O1 La 43.97(18) 3_565 4
O3 O1 La 79.34(17) 4_455 4
O3 O1 La 161.48(19) . 4
Ga2 O1 La 81.00(14) 2_565 4
O2 O1 La 20.34(18) 5 4
O2 O1 La 113.50(14) 2_455 4
O2 O1 La 128.29(14) 6_565 4
Ga3 O1 La 40.38(6) 2_565 4
Ga3 O1 La 137.28(13) 1_556 4
Ga3 O1 La 103.88(5) 4_456 4
O3 O1 La 54.82(11) 5_445 4
O3 O1 La 64.19(12) 6_665 4
O3 O1 La 141.6(3) 2_465 4
Ga3 O1 La 41.70(3) 2_564 4
Ga3 O1 La 112.8(2) . 4
Ga3 O1 La 90.73(13) 4_455 4
Ga1 O1 La 35.995(17) . 4
Nb O1 La 35.995(17) . 4
Ga1 O1 La 149.1(2) 1_455 4
Nb O1 La 149.1(2) 1_455 4
Ga1 O1 La 81.94(5) 1_565 4
Nb O1 La 81.94(5) 1_565 4
La O1 La 94.00(11) 1_556 4
La O1 La 75.03(6) 2_566 4
La O1 La 126.5(2) 4_456 4
O2 O1 La 78.15(10) 6 4
O2 O1 La 46.10(10) 2_565 4
O2 O1 La 163.36(10) 5_455 4
O3 O1 La 68.87(11) 5_446 4
O3 O1 La 76.56(10) 6_666 4
O3 O1 La 151.3(3) 2_466 4
O3 O1 La 23.28(11) 2_565 4
O3 O1 La 125.5(2) 6 4
O3 O1 La 97.65(14) 5_455 4
Ga2 O1 La 35.07(2) 1_665 4
Ga2 O1 La 98.83(2) . 4
Ga2 O1 La 143.56(6) 1_565 4
O1 O1 La 92.69(11) 2_455 4
O1 O1 La 25.82(6) 2_565 4
O1 O1 La 132.9(3) 2_465 4
O1 O1 La 81.00(14) 1_554 4
O1 O1 La 99.01(14) 1_556 4
O3 O1 La 45.55(11) 2_566 4
O3 O1 La 133.41(17) 6_556 4
O3 O1 La 105.84(11) 5_456 4
Ga3 O1 La 63.875(16) 4_446 4
Ga3 O1 La 66.088(18) 1_666 4
Ga3 O1 La 171.2(3) 2_465 4
O3 O1 La 23.87(9) 1_655 4
O3 O1 La 140.45(10) 4_345 4
O3 O1 La 99.72(9) 3_575 4
O2 O1 La 43.36(10) 5_554 4
O2 O1 La 96.29(18) 2_454 4
O2 O1 La 104.4(2) 6_564 4
O3 O1 La 57.56(11) 3_564 4
O3 O1 La 112.7(2) 1_554 4
O3 O1 La 76.06(15) 4_454 4
O1 O1 La 48.92(8) 2_566 4
O1 O1 La 100.43(6) 2_456 4
O1 O1 La 137.9(2) 2_466 4
O3 O1 La 49.65(8) 4_445 4
O3 O1 La 72.37(9) 1_665 4
O3 O1 La 166.91(16) 3_465 4
Ga2 O1 La 99.00(14) 2_566 2_455
La O1 La 142.8(3) 2_565 2_455
La O1 La 38.10(2) . 2_455
La O1 La 79.76(8) 4_455 2_455
O2 O1 La 48.39(16) 4_455 2_455
O2 O1 La 91.9(2) . 2_455
O2 O1 La 103.9(3) 3_565 2_455
O2 O1 La 106.8(2) 1_556 2_455
O2 O1 La 67.80(17) 4_456 2_455
O2 O1 La 119.1(3) 3_566 2_455
O3 O1 La 79.34(17) 3_565 2_455
O3 O1 La 161.48(19) 4_455 2_455
O3 O1 La 43.97(18) . 2_455
Ga2 O1 La 81.00(14) 2_565 2_455
O2 O1 La 128.29(14) 5 2_455
O2 O1 La 20.34(18) 2_455 2_455
O2 O1 La 113.50(14) 6_565 2_455
Ga3 O1 La 103.88(5) 2_565 2_455
Ga3 O1 La 40.38(6) 1_556 2_455
Ga3 O1 La 137.28(13) 4_456 2_455
O3 O1 La 64.19(12) 5_445 2_455
O3 O1 La 141.6(3) 6_665 2_455
O3 O1 La 54.82(11) 2_465 2_455
Ga3 O1 La 90.73(13) 2_564 2_455
Ga3 O1 La 41.70(3) . 2_455
Ga3 O1 La 112.8(2) 4_455 2_455
Ga1 O1 La 81.94(5) . 2_455
Nb O1 La 81.94(5) . 2_455
Ga1 O1 La 35.995(17) 1_455 2_455
Nb O1 La 35.995(17) 1_455 2_455
Ga1 O1 La 149.1(2) 1_565 2_455
Nb O1 La 149.1(2) 1_565 2_455
La O1 La 75.03(6) 1_556 2_455
La O1 La 126.5(2) 2_566 2_455
La O1 La 94.00(11) 4_456 2_455
O2 O1 La 46.10(10) 6 2_455
O2 O1 La 163.37(10) 2_565 2_455
O2 O1 La 78.15(10) 5_455 2_455
O3 O1 La 76.56(10) 5_446 2_455
O3 O1 La 151.3(3) 6_666 2_455
O3 O1 La 68.87(11) 2_466 2_455
O3 O1 La 97.65(14) 2_565 2_455
O3 O1 La 23.28(11) 6 2_455
O3 O1 La 125.5(2) 5_455 2_455
Ga2 O1 La 143.56(6) 1_665 2_455
Ga2 O1 La 35.07(2) . 2_455
Ga2 O1 La 98.83(2) 1_565 2_455
O1 O1 La 25.83(6) 2_455 2_455
O1 O1 La 132.9(3) 2_565 2_455
O1 O1 La 92.69(11) 2_465 2_455
O1 O1 La 81.00(14) 1_554 2_455
O1 O1 La 99.00(14) 1_556 2_455
O3 O1 La 105.85(11) 2_566 2_455
O3 O1 La 45.55(11) 6_556 2_455
O3 O1 La 133.41(17) 5_456 2_455
Ga3 O1 La 66.088(18) 4_446 2_455
Ga3 O1 La 171.2(3) 1_666 2_455
Ga3 O1 La 63.874(16) 2_465 2_455
O3 O1 La 99.72(9) 1_655 2_455
O3 O1 La 23.87(9) 4_345 2_455
O3 O1 La 140.45(10) 3_575 2_455
O2 O1 La 104.4(2) 5_554 2_455
O2 O1 La 43.36(10) 2_454 2_455
O2 O1 La 96.29(18) 6_564 2_455
O3 O1 La 76.06(15) 3_564 2_455
O3 O1 La 57.56(11) 1_554 2_455
O3 O1 La 112.7(2) 4_454 2_455
O1 O1 La 137.9(2) 2_566 2_455
O1 O1 La 48.92(8) 2_456 2_455
O1 O1 La 100.43(6) 2_466 2_455
O3 O1 La 72.37(9) 4_445 2_455
O3 O1 La 166.91(16) 1_665 2_455
O3 O1 La 49.65(8) 3_465 2_455
La O1 La 117.60(7) 4 2_455
Ga2 O1 La 99.00(14) 2_566 1_565
La O1 La 79.76(8) 2_565 1_565
La O1 La 142.8(3) . 1_565
La O1 La 38.10(2) 4_455 1_565
O2 O1 La 91.9(2) 4_455 1_565
O2 O1 La 103.9(3) . 1_565
O2 O1 La 48.39(16) 3_565 1_565
O2 O1 La 119.1(3) 1_556 1_565
O2 O1 La 106.8(2) 4_456 1_565
O2 O1 La 67.80(16) 3_566 1_565
O3 O1 La 161.48(19) 3_565 1_565
O3 O1 La 43.97(18) 4_455 1_565
O3 O1 La 79.34(17) . 1_565
Ga2 O1 La 80.99(14) 2_565 1_565
O2 O1 La 113.50(14) 5 1_565
O2 O1 La 128.29(14) 2_455 1_565
O2 O1 La 20.34(18) 6_565 1_565
Ga3 O1 La 137.28(13) 2_565 1_565
Ga3 O1 La 103.88(5) 1_556 1_565
Ga3 O1 La 40.38(6) 4_456 1_565
O3 O1 La 141.6(3) 5_445 1_565
O3 O1 La 54.82(11) 6_665 1_565
O3 O1 La 64.19(12) 2_465 1_565
Ga3 O1 La 112.8(2) 2_564 1_565
Ga3 O1 La 90.73(13) . 1_565
Ga3 O1 La 41.70(3) 4_455 1_565
Ga1 O1 La 149.1(2) . 1_565
Nb O1 La 149.1(2) . 1_565
Ga1 O1 La 81.94(5) 1_455 1_565
Nb O1 La 81.94(5) 1_455 1_565
Ga1 O1 La 35.995(17) 1_565 1_565
Nb O1 La 35.995(17) 1_565 1_565
La O1 La 126.5(2) 1_556 1_565
La O1 La 94.00(11) 2_566 1_565
La O1 La 75.03(6) 4_456 1_565
O2 O1 La 163.36(10) 6 1_565
O2 O1 La 78.15(10) 2_565 1_565
O2 O1 La 46.10(10) 5_455 1_565
O3 O1 La 151.3(3) 5_446 1_565
O3 O1 La 68.87(11) 6_666 1_565
O3 O1 La 76.56(10) 2_466 1_565
O3 O1 La 125.5(2) 2_565 1_565
O3 O1 La 97.65(14) 6 1_565
O3 O1 La 23.28(11) 5_455 1_565
Ga2 O1 La 98.83(2) 1_665 1_565
Ga2 O1 La 143.56(6) . 1_565
Ga2 O1 La 35.07(2) 1_565 1_565
O1 O1 La 132.9(3) 2_455 1_565
O1 O1 La 92.69(11) 2_565 1_565
O1 O1 La 25.83(6) 2_465 1_565
O1 O1 La 80.99(14) 1_554 1_565
O1 O1 La 99.00(14) 1_556 1_565
O3 O1 La 133.41(17) 2_566 1_565
O3 O1 La 105.84(11) 6_556 1_565
O3 O1 La 45.55(11) 5_456 1_565
Ga3 O1 La 171.2(3) 4_446 1_565
Ga3 O1 La 63.874(16) 1_666 1_565
Ga3 O1 La 66.088(18) 2_465 1_565
O3 O1 La 140.45(10) 1_655 1_565
O3 O1 La 99.72(9) 4_345 1_565
O3 O1 La 23.87(9) 3_575 1_565
O2 O1 La 96.29(18) 5_554 1_565
O2 O1 La 104.4(2) 2_454 1_565
O2 O1 La 43.36(10) 6_564 1_565
O3 O1 La 112.7(2) 3_564 1_565
O3 O1 La 76.06(15) 1_554 1_565
O3 O1 La 57.56(11) 4_454 1_565
O1 O1 La 100.43(6) 2_566 1_565
O1 O1 La 137.9(2) 2_456 1_565
O1 O1 La 48.92(8) 2_466 1_565
O3 O1 La 166.91(16) 4_445 1_565
O3 O1 La 49.65(8) 1_665 1_565
O3 O1 La 72.37(9) 3_465 1_565
La O1 La 117.60(7) 4 1_565
La O1 La 117.60(7) 2_455 1_565
Ga2 O1 O2 84.39(16) 2_566 6_665
La O1 O2 33.15(16) 2_565 6_665
La O1 O2 101.10(10) . 6_665
La O1 O2 138.54(17) 4_455 6_665
O2 O1 O2 123.9(3) 4_455 6_665
O2 O1 O2 66.7(2) . 6_665
O2 O1 O2 94.7(3) 3_565 6_665
O2 O1 O2 57.3(2) 1_556 6_665
O2 O1 O2 111.9(3) 4_456 6_665
O2 O1 O2 85.3(3) 3_566 6_665
O3 O1 O2 58.8(2) 3_565 6_665
O3 O1 O2 60.6(2) 4_455 6_665
O3 O1 O2 169.0(4) . 6_665
Ga2 O1 O2 95.61(16) 2_565 6_665
O2 O1 O2 10.63(18) 5 6_665
O2 O1 O2 127.7(2) 2_455 6_665
O2 O1 O2 108.7(2) 6_565 6_665
Ga3 O1 O2 40.59(9) 2_565 6_665
Ga3 O1 O2 140.2(3) 1_556 6_665
Ga3 O1 O2 81.87(11) 4_456 6_665
O3 O1 O2 77.17(14) 5_445 6_665
O3 O1 O2 57.71(16) 6_665 6_665
O3 O1 O2 154.0(3) 2_465 6_665
Ga3 O1 O2 61.97(9) 2_564 6_665
Ga3 O1 O2 133.5(2) . 6_665
Ga3 O1 O2 89.91(12) 4_455 6_665
Ga1 O1 O2 56.16(9) . 6_665
Nb O1 O2 56.16(9) . 6_665
Ga1 O1 O2 171.8(2) 1_455 6_665
Nb O1 O2 171.8(2) 1_455 6_665
Ga1 O1 O2 67.90(9) 1_565 6_665
Nb O1 O2 67.90(9) 1_565 6_665
La O1 O2 90.02(16) 1_556 6_665
La O1 O2 56.35(10) 2_566 6_665
La O1 O2 107.5(2) 4_456 6_665
O2 O1 O2 93.30(14) 6 6_665
O2 O1 O2 25.82(13) 2_565 6_665
O2 O1 O2 143.66(18) 5_455 6_665
O3 O1 O2 72.27(15) 5_446 6_665
O3 O1 O2 53.94(14) 6_666 6_665
O3 O1 O2 135.7(3) 2_466 6_665
O3 O1 O2 45.78(13) 2_565 6_665
O3 O1 O2 148.1(2) 6 6_665
O3 O1 O2 88.64(13) 5_455 6_665
Ga2 O1 O2 13.13(9) 1_665 6_665
Ga2 O1 O2 110.82(12) . 6_665
Ga2 O1 O2 122.09(14) 1_565 6_665
O1 O1 O2 114.24(11) 2_455 6_665
O1 O1 O2 27.79(19) 2_565 6_665
O1 O1 O2 125.58(13) 2_465 6_665
O1 O1 O2 95.61(16) 1_554 6_665
O1 O1 O2 84.39(16) 1_556 6_665
O3 O1 O2 42.34(13) 2_566 6_665
O3 O1 O2 133.8(3) 6_556 6_665
O3 O1 O2 83.36(14) 5_456 6_665
Ga3 O1 O2 75.10(10) 4_446 6_665
Ga3 O1 O2 44.51(9) 1_666 6_665
Ga3 O1 O2 151.8(2) 2_465 6_665
O3 O1 O2 37.96(12) 1_655 6_665
O3 O1 O2 156.36(16) 4_345 6_665
O3 O1 O2 81.75(12) 3_575 6_665
O2 O1 O2 58.15(8) 5_554 6_665
O2 O1 O2 118.0(2) 2_454 6_665
O2 O1 O2 106.78(19) 6_564 6_665
O3 O1 O2 78.47(14) 3_564 6_665
O3 O1 O2 129.0(2) 1_554 6_665
O3 O1 O2 79.38(16) 4_454 6_665
O1 O1 O2 29.51(13) 2_566 6_665
O1 O1 O2 106.03(18) 2_456 6_665
O1 O1 O2 115.3(2) 2_466 6_665
O3 O1 O2 65.56(13) 4_445 6_665
O3 O1 O2 54.19(13) 1_665 6_665
O3 O1 O2 169.8(3) 3_465 6_665
La O1 O2 22.65(8) 4 6_665
La O1 O2 137.59(9) 2_455 6_665
La O1 O2 103.33(9) 1_565 6_665
Ga2 O1 O2 84.39(16) 2_566 5_445
La O1 O2 138.55(17) 2_565 5_445
La O1 O2 33.15(16) . 5_445
La O1 O2 101.10(10) 4_455 5_445
O2 O1 O2 66.7(2) 4_455 5_445
O2 O1 O2 94.7(3) . 5_445
O2 O1 O2 123.9(3) 3_565 5_445
O2 O1 O2 85.3(3) 1_556 5_445
O2 O1 O2 57.3(2) 4_456 5_445
O2 O1 O2 111.9(3) 3_566 5_445
O3 O1 O2 60.6(2) 3_565 5_445
O3 O1 O2 169.0(4) 4_455 5_445
O3 O1 O2 58.8(2) . 5_445
Ga2 O1 O2 95.61(16) 2_565 5_445
O2 O1 O2 108.8(2) 5 5_445
O2 O1 O2 10.63(18) 2_455 5_445
O2 O1 O2 127.7(2) 6_565 5_445
Ga3 O1 O2 81.87(11) 2_565 5_445
Ga3 O1 O2 40.59(9) 1_556 5_445
Ga3 O1 O2 140.2(3) 4_456 5_445
O3 O1 O2 57.71(16) 5_445 5_445
O3 O1 O2 154.0(3) 6_665 5_445
O3 O1 O2 77.17(14) 2_465 5_445
Ga3 O1 O2 89.91(12) 2_564 5_445
Ga3 O1 O2 61.97(9) . 5_445
Ga3 O1 O2 133.5(2) 4_455 5_445
Ga1 O1 O2 67.90(9) . 5_445
Nb O1 O2 67.90(9) . 5_445
Ga1 O1 O2 56.16(9) 1_455 5_445
Nb O1 O2 56.16(9) 1_455 5_445
Ga1 O1 O2 171.8(2) 1_565 5_445
Nb O1 O2 171.8(2) 1_565 5_445
La O1 O2 56.35(10) 1_556 5_445
La O1 O2 107.5(2) 2_566 5_445
La O1 O2 90.02(16) 4_456 5_445
O2 O1 O2 25.82(13) 6 5_445
O2 O1 O2 143.66(18) 2_565 5_445
O2 O1 O2 93.30(14) 5_455 5_445
O3 O1 O2 53.94(14) 5_446 5_445
O3 O1 O2 135.7(3) 6_666 5_445
O3 O1 O2 72.27(15) 2_466 5_445
O3 O1 O2 88.64(13) 2_565 5_445
O3 O1 O2 45.78(13) 6 5_445
O3 O1 O2 148.1(2) 5_455 5_445
Ga2 O1 O2 122.09(14) 1_665 5_445
Ga2 O1 O2 13.13(9) . 5_445
Ga2 O1 O2 110.82(12) 1_565 5_445
O1 O1 O2 27.79(19) 2_455 5_445
O1 O1 O2 125.58(13) 2_565 5_445
O1 O1 O2 114.23(11) 2_465 5_445
O1 O1 O2 95.61(16) 1_554 5_445
O1 O1 O2 84.39(16) 1_556 5_445
O3 O1 O2 83.36(14) 2_566 5_445
O3 O1 O2 42.34(13) 6_556 5_445
O3 O1 O2 133.8(3) 5_456 5_445
Ga3 O1 O2 44.51(9) 4_446 5_445
Ga3 O1 O2 151.8(2) 1_666 5_445
Ga3 O1 O2 75.10(10) 2_465 5_445
O3 O1 O2 81.75(12) 1_655 5_445
O3 O1 O2 37.96(12) 4_345 5_445
O3 O1 O2 156.36(16) 3_575 5_445
O2 O1 O2 106.78(19) 5_554 5_445
O2 O1 O2 58.15(8) 2_454 5_445
O2 O1 O2 118.0(2) 6_564 5_445
O3 O1 O2 79.38(16) 3_564 5_445
O3 O1 O2 78.47(14) 1_554 5_445
O3 O1 O2 129.0(2) 4_454 5_445
O1 O1 O2 115.3(2) 2_566 5_445
O1 O1 O2 29.51(13) 2_456 5_445
O1 O1 O2 106.03(18) 2_466 5_445
O3 O1 O2 54.19(13) 4_445 5_445
O3 O1 O2 169.8(3) 1_665 5_445
O3 O1 O2 65.56(13) 3_465 5_445
La O1 O2 103.33(9) 4 5_445
La O1 O2 22.65(8) 2_455 5_445
La O1 O2 137.58(9) 1_565 5_445
O2 O1 O2 119.06(5) 6_665 5_445
Ga2 O1 O2 84.39(16) 2_566 2_465
La O1 O2 101.10(10) 2_565 2_465
La O1 O2 138.55(17) . 2_465
La O1 O2 33.15(16) 4_455 2_465
O2 O1 O2 94.7(3) 4_455 2_465
O2 O1 O2 123.9(3) . 2_465
O2 O1 O2 66.7(2) 3_565 2_465
O2 O1 O2 111.9(3) 1_556 2_465
O2 O1 O2 85.3(3) 4_456 2_465
O2 O1 O2 57.3(2) 3_566 2_465
O3 O1 O2 169.0(4) 3_565 2_465
O3 O1 O2 58.8(2) 4_455 2_465
O3 O1 O2 60.6(2) . 2_465
Ga2 O1 O2 95.61(16) 2_565 2_465
O2 O1 O2 127.7(2) 5 2_465
O2 O1 O2 108.7(2) 2_455 2_465
O2 O1 O2 10.63(19) 6_565 2_465
Ga3 O1 O2 140.2(3) 2_565 2_465
Ga3 O1 O2 81.87(11) 1_556 2_465
Ga3 O1 O2 40.59(9) 4_456 2_465
O3 O1 O2 154.0(3) 5_445 2_465
O3 O1 O2 77.17(14) 6_665 2_465
O3 O1 O2 57.71(16) 2_465 2_465
Ga3 O1 O2 133.5(2) 2_564 2_465
Ga3 O1 O2 89.91(12) . 2_465
Ga3 O1 O2 61.97(9) 4_455 2_465
Ga1 O1 O2 171.8(2) . 2_465
Nb O1 O2 171.8(2) . 2_465
Ga1 O1 O2 67.90(9) 1_455 2_465
Nb O1 O2 67.90(9) 1_455 2_465
Ga1 O1 O2 56.16(9) 1_565 2_465
Nb O1 O2 56.16(9) 1_565 2_465
La O1 O2 107.5(2) 1_556 2_465
La O1 O2 90.02(16) 2_566 2_465
La O1 O2 56.35(10) 4_456 2_465
O2 O1 O2 143.66(18) 6 2_465
O2 O1 O2 93.30(14) 2_565 2_465
O2 O1 O2 25.82(13) 5_455 2_465
O3 O1 O2 135.7(3) 5_446 2_465
O3 O1 O2 72.27(15) 6_666 2_465
O3 O1 O2 53.94(14) 2_466 2_465
O3 O1 O2 148.1(2) 2_565 2_465
O3 O1 O2 88.64(13) 6 2_465
O3 O1 O2 45.78(13) 5_455 2_465
Ga2 O1 O2 110.82(12) 1_665 2_465
Ga2 O1 O2 122.09(14) . 2_465
Ga2 O1 O2 13.13(9) 1_565 2_465
O1 O1 O2 125.58(13) 2_455 2_465
O1 O1 O2 114.23(11) 2_565 2_465
O1 O1 O2 27.79(19) 2_465 2_465
O1 O1 O2 95.61(16) 1_554 2_465
O1 O1 O2 84.39(16) 1_556 2_465
O3 O1 O2 133.8(3) 2_566 2_465
O3 O1 O2 83.36(14) 6_556 2_465
O3 O1 O2 42.34(13) 5_456 2_465
Ga3 O1 O2 151.8(2) 4_446 2_465
Ga3 O1 O2 75.10(10) 1_666 2_465
Ga3 O1 O2 44.51(9) 2_465 2_465
O3 O1 O2 156.36(16) 1_655 2_465
O3 O1 O2 81.75(12) 4_345 2_465
O3 O1 O2 37.96(12) 3_575 2_465
O2 O1 O2 118.0(2) 5_554 2_465
O2 O1 O2 106.78(19) 2_454 2_465
O2 O1 O2 58.15(8) 6_564 2_465
O3 O1 O2 129.0(2) 3_564 2_465
O3 O1 O2 79.38(16) 1_554 2_465
O3 O1 O2 78.47(14) 4_454 2_465
O1 O1 O2 106.03(18) 2_566 2_465
O1 O1 O2 115.3(2) 2_456 2_465
O1 O1 O2 29.51(13) 2_466 2_465
O3 O1 O2 169.8(3) 4_445 2_465
O3 O1 O2 65.56(13) 1_665 2_465
O3 O1 O2 54.19(13) 3_465 2_465
La O1 O2 137.58(9) 4 2_465
La O1 O2 103.33(9) 2_455 2_465
La O1 O2 22.64(8) 1_565 2_465
O2 O1 O2 119.06(5) 6_665 2_465
O2 O1 O2 119.05(5) 5_445 2_465
Ga2 O1 O3 30.41(10) 2_566 3_566
La O1 O3 102.7(3) 2_565 3_566
La O1 O3 87.1(2) . 3_566
La O1 O3 139.0(4) 4_455 3_566
O2 O1 O3 136.2(2) 4_455 3_566
O2 O1 O3 118.26(19) . 3_566
O2 O1 O3 163.5(2) 3_565 3_566
O2 O1 O3 15.1(2) 1_556 3_566
O2 O1 O3 43.3(2) 4_456 3_566
O2 O1 O3 59.9(3) 3_566 3_566
O3 O1 O3 54.3(2) 3_565 3_566
O3 O1 O3 99.9(3) 4_455 3_566
O3 O1 O3 99.9(3) . 3_566
Ga2 O1 O3 149.59(10) 2_565 3_566
O2 O1 O3 61.7(2) 5 3_566
O2 O1 O3 71.8(2) 2_455 3_566
O2 O1 O3 110.0(3) 6_565 3_566
Ga3 O1 O3 36.19(17) 2_565 3_566
Ga3 O1 O3 70.5(2) 1_556 3_566
Ga3 O1 O3 88.2(3) 4_456 3_566
O3 O1 O3 89.3(2) 5_445 3_566
O3 O1 O3 123.3(3) 6_665 3_566
O3 O1 O3 136.05(18) 2_465 3_566
Ga3 O1 O3 108.69(9) 2_564 3_566
Ga3 O1 O3 132.75(10) . 3_566
Ga3 O1 O3 155.24(14) 4_455 3_566
Ga1 O1 O3 70.87(13) . 3_566
Nb O1 O3 70.87(13) . 3_566
Ga1 O1 O3 112.04(18) 1_455 3_566
Nb O1 O3 112.04(18) 1_455 3_566
Ga1 O1 O3 116.9(2) 1_565 3_566
Nb O1 O3 116.9(2) 1_565 3_566
La O1 O3 20.21(9) 1_556 3_566
La O1 O3 37.55(13) 2_566 3_566
La O1 O3 59.65(17) 4_456 3_566
O2 O1 O3 58.66(17) 6 3_566
O2 O1 O3 81.2(2) 2_565 3_566
O2 O1 O3 110.3(3) 5_455 3_566
O3 O1 O3 23.80(17) 5_446 3_566
O3 O1 O3 66.2(2) 6_666 3_566
O3 O1 O3 75.6(2) 2_466 3_566
O3 O1 O3 87.88(17) 2_565 3_566
O3 O1 O3 114.68(19) 6 3_566
O3 O1 O3 138.5(2) 5_455 3_566
Ga2 O1 O3 62.67(16) 1_665 3_566
Ga2 O1 O3 57.67(13) . 3_566
Ga2 O1 O3 103.0(2) 1_565 3_566
O1 O1 O3 92.6(2) 2_455 3_566
O1 O1 O3 96.8(3) 2_565 3_566
O1 O1 O3 141.8(4) 2_465 3_566
O1 O1 O3 149.59(10) 1_554 3_566
O1 O1 O3 30.41(10) 1_556 3_566
O3 O1 O3 30.67(19) 2_566 3_566
O3 O1 O3 63.94(17) 6_556 3_566
O3 O1 O3 82.4(2) 5_456 3_566
Ga3 O1 O3 43.70(11) 4_446 3_566
Ga3 O1 O3 81.14(18) 1_666 3_566
Ga3 O1 O3 95.2(2) 2_465 3_566
O3 O1 O3 58.78(14) 1_655 3_566
O3 O1 O3 91.8(2) 4_345 3_566
O3 O1 O3 110.3(2) 3_575 3_566
O2 O1 O3 118.37(12) 5_554 3_566
O2 O1 O3 125.18(12) 2_454 3_566
O2 O1 O3 170.25(18) 6_564 3_566
O3 O1 O3 116.21(13) 3_564 3_566
O3 O1 O3 149.25(6) 1_554 3_566
O3 O1 O3 149.25(6) 4_454 3_566
O1 O1 O3 48.4(2) 2_566 3_566
O1 O1 O3 43.15(19) 2_456 3_566
O1 O1 O3 85.7(3) 2_466 3_566
O3 O1 O3 56.94(12) 4_445 3_566
O3 O1 O3 99.0(2) 1_665 3_566
O3 O1 O3 105.0(2) 3_465 3_566
La O1 O3 76.22(12) 4 3_566
La O1 O3 91.92(13) 2_455 3_566
La O1 O3 127.6(2) 1_565 3_566
O2 O1 O3 69.92(16) 6_665 3_566
O2 O1 O3 70.79(15) 5_445 3_566
O2 O1 O3 114.8(2) 2_465 3_566
Ga2 O2 Ga3 118.6(5) 2_565 2_564
Ga2 O2 La 105.2(4) 2_565 2_565
Ga3 O2 La 121.4(4) 2_564 2_565
Ga2 O2 O2 39.76(19) 2_565 4_455
Ga3 O2 O2 127.9(5) 2_564 4_455
La O2 O2 110.7(3) 2_565 4_455
Ga2 O2 O2 39.76(19) 2_565 3_565
Ga3 O2 O2 143.6(4) 2_564 3_565
La O2 O2 65.4(4) 2_565 3_565
O2 O2 O2 60.0 4_455 3_565
Ga2 O2 O3 158.1(5) 2_565 2_565
Ga3 O2 O3 39.7(3) 2_564 2_565
La O2 O3 93.2(3) 2_565 2_565
O2 O2 O3 142.6(6) 4_455 2_565
O2 O2 O3 156.1(6) 3_565 2_565
Ga2 O2 La 89.9(3) 2_565 .
Ga3 O2 La 111.7(4) 2_564 .
La O2 La 105.0(3) 2_565 .
O2 O2 La 50.1(3) 4_455 .
O2 O2 La 98.8(3) 3_565 .
O3 O2 La 97.0(3) 2_565 .
Ga2 O2 O2 100.9(5) 2_565 5_554
Ga3 O2 O2 39.5(3) 2_564 5_554
La O2 O2 98.3(4) 2_565 5_554
O2 O2 O2 135.2(3) 4_455 5_554
O2 O2 O2 106.8(2) 3_565 5_554
O3 O2 O2 63.9(3) 2_565 5_554
La O2 O2 150.8(2) . 5_554
Ga2 O2 O3 115.5(4) 2_565 5_445
Ga3 O2 O3 62.6(3) 2_564 5_445
La O2 O3 129.5(4) 2_565 5_445
O2 O2 O3 85.5(5) 4_455 5_445
O2 O2 O3 144.9(5) 3_565 5_445
O3 O2 O3 57.3(4) 2_565 5_445
La O2 O3 49.3(2) . 5_445
O2 O2 O3 102.0(3) 5_554 5_445
Ga2 O2 O1 83.8(3) 2_565 .
Ga3 O2 O1 154.7(5) 2_564 .
La O2 O1 56.6(2) 2_565 .
O2 O2 O1 61.35(18) 4_455 .
O2 O2 O1 61.35(18) 3_565 .
O3 O2 O1 116.9(4) 2_565 .
La O2 O1 52.87(17) . .
O2 O2 O1 154.6(4) 5_554 .
O3 O2 O1 98.3(4) 5_445 .
Ga2 O2 O3 88.5(4) 2_565 3_564
Ga3 O2 O3 34.8(2) 2_564 3_564
La O2 O3 154.2(4) 2_565 3_564
O2 O2 O3 93.8(4) 4_455 3_564
O2 O2 O3 125.3(2) 3_565 3_564
O3 O2 O3 70.1(4) 2_565 3_564
La O2 O3 96.6(3) . 3_564
O2 O2 O3 57.1(3) 5_554 3_564
O3 O2 O3 57.8(4) 5_445 3_564
O1 O2 O3 148.3(4) . 3_564
Ga2 O2 O1 30.6(2) 2_565 1_554
Ga3 O2 O1 88.6(4) 2_564 1_554
La O2 O1 121.4(3) 2_565 1_554
O2 O2 O1 62.70(18) 4_455 1_554
O2 O2 O1 62.70(18) 3_565 1_554
O3 O2 O1 128.2(4) 2_565 1_554
La O2 O1 107.9(3) . 1_554
O2 O2 O1 73.2(4) 5_554 1_554
O3 O2 O1 108.6(3) 5_445 1_554
O1 O2 O1 114.4(3) . 1_554
O3 O2 O1 62.6(3) 3_564 1_554
Ga2 O2 O3 132.5(4) 2_565 3_565
Ga3 O2 O3 94.8(4) 2_564 3_565
La O2 O3 80.9(3) 2_565 3_565
O2 O2 O3 93.4(3) 4_455 3_565
O2 O2 O3 121.3(2) 3_565 3_565
O3 O2 O3 61.5(4) 2_565 3_565
La O2 O3 44.5(2) . 3_565
O2 O2 O3 125.2(4) 5_554 3_565
O3 O2 O3 49.8(3) 5_445 3_565
O1 O2 O3 60.0(3) . 3_565
O3 O2 O3 106.1(4) 3_564 3_565
O1 O2 O3 151.1(4) 1_554 3_565
Ga2 O2 O1 128.2(4) 2_565 2_565
Ga3 O2 O1 75.2(3) 2_564 2_565
La O2 O1 46.7(2) 2_565 2_565
O2 O2 O1 156.0(4) 4_455 2_565
O2 O2 O1 97.9(4) 3_565 2_565
O3 O2 O1 58.3(2) 2_565 2_565
La O2 O1 134.0(4) . 2_565
O2 O2 O1 56.3(3) 5_554 2_565
O3 O2 O1 114.7(3) 5_445 2_565
O1 O2 O1 101.1(3) . 2_565
O3 O2 O1 107.7(3) 3_564 2_565
O1 O2 O1 117.8(3) 1_554 2_565
O3 O2 O1 90.7(3) 3_565 2_565
Ga2 O2 Nb 148.0(4) 2_565 .
Ga3 O2 Nb 61.8(2) 2_564 .
La O2 Nb 99.3(3) 2_565 .
O2 O2 Nb 111.8(4) 4_455 .
O2 O2 Nb 154.20(16) 3_565 .
O3 O2 Nb 33.3(2) 2_565 .
La O2 Nb 63.76(18) . .
O2 O2 Nb 95.5(2) 5_554 .
O3 O2 Nb 33.42(19) 5_445 .
O1 O2 Nb 93.0(3) . .
O3 O2 Nb 77.6(3) 3_564 .
O1 O2 Nb 138.6(3) 1_554 .
O3 O2 Nb 33.00(16) 3_565 .
O1 O2 Nb 83.7(2) 2_565 .
Ga2 O2 Ga1 148.0(4) 2_565 .
Ga3 O2 Ga1 61.8(2) 2_564 .
La O2 Ga1 99.3(3) 2_565 .
O2 O2 Ga1 111.8(4) 4_455 .
O2 O2 Ga1 154.20(16) 3_565 .
O3 O2 Ga1 33.3(2) 2_565 .
La O2 Ga1 63.76(18) . .
O2 O2 Ga1 95.5(2) 5_554 .
O3 O2 Ga1 33.42(19) 5_445 .
O1 O2 Ga1 93.0(3) . .
O3 O2 Ga1 77.6(3) 3_564 .
O1 O2 Ga1 138.6(3) 1_554 .
O3 O2 Ga1 33.00(16) 3_565 .
O1 O2 Ga1 83.7(2) 2_565 .
Nb O2 Ga1 0.0 . .
Ga2 O2 Ga2 112.0(4) 2_565 1_664
Ga3 O2 Ga2 59.5(3) 2_564 1_664
La O2 Ga2 69.2(2) 2_565 1_664
O2 O2 Ga2 151.7(3) 4_455 1_664
O2 O2 Ga2 97.6(4) 3_565 1_664
O3 O2 Ga2 63.1(2) 2_565 1_664
La O2 Ga2 158.1(3) . 1_664
O2 O2 Ga2 29.4(2) 5_554 1_664
O3 O2 Ga2 117.1(3) 5_445 1_664
O1 O2 Ga2 125.9(3) . 1_664
O3 O2 Ga2 85.5(3) 3_564 1_664
O1 O2 Ga2 92.4(3) 1_554 1_664
O3 O2 Ga2 114.0(3) 3_565 1_664
O1 O2 Ga2 28.2(2) 2_565 1_664
Nb O2 Ga2 95.71(19) . 1_664
Ga1 O2 Ga2 95.71(19) . 1_664
Ga2 O2 O2 141.4(4) 2_565 5
Ga3 O2 O2 98.4(4) 2_564 5
La O2 O2 40.1(2) 2_565 5
O2 O2 O2 123.4(3) 4_455 5
O2 O2 O2 103.00(15) 3_565 5
O3 O2 O2 60.2(3) 2_565 5
La O2 O2 86.4(3) . 5
O2 O2 O2 100.9(5) 5_554 5
O3 O2 O2 90.5(3) 5_445 5
O1 O2 O2 63.6(3) . 5
O3 O2 O2 130.1(3) 3_564 5
O1 O2 O2 160.6(2) 1_554 5
O3 O2 O2 46.7(2) 3_565 5
O1 O2 O2 48.1(3) 2_565 5
Nb O2 O2 59.24(15) . 5
Ga1 O2 O2 59.24(15) . 5
Ga2 O2 O2 75.9(3) 1_664 5
Ga2 O2 O3 81.2(3) 2_565 6_665
Ga3 O2 O3 113.9(4) 2_564 6_665
La O2 O3 36.0(2) 2_565 6_665
O2 O2 O3 107.5(4) 4_455 6_665
O2 O2 O3 47.8(4) 3_565 6_665
O3 O2 O3 108.6(4) 2_565 6_665
La O2 O3 132.0(3) . 6_665
O2 O2 O3 76.8(2) 5_554 6_665
O3 O2 O3 162.9(4) 5_445 6_665
O1 O2 O3 79.2(2) . 6_665
O3 O2 O3 129.9(4) 3_564 6_665
O1 O2 O3 87.5(3) 1_554 6_665
O3 O2 O3 116.8(3) 3_565 6_665
O1 O2 O3 50.23(19) 2_565 6_665
Nb O2 O3 129.5(3) . 6_665
Ga1 O2 O3 129.5(3) . 6_665
Ga2 O2 O3 54.76(18) 1_664 6_665
O2 O2 O3 73.2(2) 5 6_665
Ga2 O2 La 64.7(3) 2_565 2_564
Ga3 O2 La 68.1(3) 2_564 2_564
La O2 La 101.9(3) 2_565 2_564
O2 O2 La 102.31(14) 4_455 2_564
O2 O2 La 75.5(2) 3_565 2_564
O3 O2 La 100.2(3) 2_565 2_564
La O2 La 147.0(3) . 2_564
O2 O2 La 36.6(2) 5_554 2_564
O3 O2 La 121.5(3) 5_445 2_564
O1 O2 La 136.5(3) . 2_564
O3 O2 La 63.9(3) 3_564 2_564
O1 O2 La 40.29(15) 1_554 2_564
O3 O2 La 161.6(3) 3_565 2_564
O1 O2 La 78.8(3) 2_565 2_564
Nb O2 La 129.6(2) . 2_564
Ga1 O2 La 129.6(2) . 2_564
Ga2 O2 La 52.21(13) 1_664 2_564
O2 O2 La 126.6(3) 5 2_564
O3 O2 La 67.5(2) 6_665 2_564
Ga2 O2 Ga3 44.0(2) 2_565 4_455
Ga3 O2 Ga3 124.4(4) 2_564 4_455
La O2 Ga3 66.3(2) 2_565 4_455
O2 O2 Ga3 75.5(3) 4_455 4_455
O2 O2 Ga3 20.2(2) 3_565 4_455
O3 O2 Ga3 141.8(4) 2_565 4_455
La O2 Ga3 118.7(2) . 4_455
O2 O2 Ga3 86.64(16) 5_554 4_455
O3 O2 Ga3 159.4(3) 5_445 4_455
O1 O2 Ga3 79.5(2) . 4_455
O3 O2 Ga3 115.1(3) 3_564 4_455
O1 O2 Ga3 55.61(16) 1_554 4_455
O3 O2 Ga3 137.8(3) 3_565 4_455
O1 O2 Ga3 85.6(2) 2_565 4_455
Nb O2 Ga3 165.6(3) . 4_455
Ga1 O2 Ga3 165.6(3) . 4_455
Ga2 O2 Ga3 79.22(18) 1_664 4_455
O2 O2 Ga3 106.33(12) 5 4_455
O3 O2 Ga3 37.21(17) 6_665 4_455
La O2 Ga3 57.08(13) 2_564 4_455
Ga2 O2 Ga3 106.4(4) 2_565 4_445
Ga3 O2 Ga3 49.1(2) 2_564 4_445
La O2 Ga3 146.4(3) 2_565 4_445
O2 O2 Ga3 87.2(4) 4_455 4_445
O2 O2 Ga3 144.6(4) 3_565 4_445
O3 O2 Ga3 59.2(3) 2_565 4_445
La O2 Ga3 64.19(18) . 4_445
O2 O2 Ga3 86.64(16) 5_554 4_445
O3 O2 Ga3 20.1(2) 5_445 4_445
O1 O2 Ga3 116.3(3) . 4_445
O3 O2 Ga3 37.7(2) 3_564 4_445
O1 O2 Ga3 91.9(2) 1_554 4_445
O3 O2 Ga3 69.5(2) 3_565 4_445
O1 O2 Ga3 116.4(2) 2_565 4_445
Nb O2 Ga3 47.12(11) . 4_445
Ga1 O2 Ga3 47.12(11) . 4_445
Ga2 O2 Ga3 108.3(2) 1_664 4_445
O2 O2 Ga3 106.35(12) 5 4_445
O3 O2 Ga3 162.9(3) 6_665 4_445
La O2 Ga3 101.5(2) 2_564 4_445
Ga3 O2 Ga3 147.3(2) 4_455 4_445
Ga2 O2 O3 53.0(3) 2_565 4_454
Ga3 O2 O3 99.7(4) 2_564 4_454
La O2 O3 76.4(3) 2_565 4_454
O2 O2 O3 91.6(3) 4_455 4_454
O2 O2 O3 44.7(3) 3_565 4_454
O3 O2 O3 122.6(4) 2_565 4_454
La O2 O3 140.4(3) . 4_454
O2 O2 O3 62.3(2) 5_554 4_454
O3 O2 O3 153.2(3) 5_445 4_454
O1 O2 O3 103.6(3) . 4_454
O3 O2 O3 95.9(4) 3_564 4_454
O1 O2 O3 47.81(19) 1_554 4_454
O3 O2 O3 157.0(4) 3_565 4_454
O1 O2 O3 76.1(3) 2_565 4_454
Nb O2 O3 155.9(3) . 4_454
Ga1 O2 O3 155.9(3) . 4_454
Ga2 O2 O3 60.4(2) 1_664 4_454
O2 O2 O3 112.9(2) 5 4_454
O3 O2 O3 40.6(3) 6_665 4_454
La O2 O3 33.43(15) 2_564 4_454
Ga3 O2 O3 24.71(13) 4_455 4_454
Ga3 O2 O3 133.2(3) 4_445 4_454
Ga2 O2 La 56.8(2) 2_565 1_554
Ga3 O2 La 66.7(3) 2_564 1_554
La O2 La 158.2(3) 2_565 1_554
O2 O2 La 64.7(2) 4_455 1_554
O2 O2 La 95.88(16) 3_565 1_554
O3 O2 La 102.4(3) 2_565 1_554
La O2 La 88.3(2) . 1_554
O2 O2 La 75.5(3) 5_554 1_554
O3 O2 La 72.3(2) 5_445 1_554
O1 O2 La 125.8(3) . 1_554
O3 O2 La 32.68(19) 3_564 1_554
O1 O2 La 36.77(12) 1_554 1_554
O3 O2 La 120.0(3) 3_565 1_554
O1 O2 La 131.8(3) 2_565 1_554
Nb O2 La 102.1(2) . 1_554
Ga1 O2 La 102.1(2) . 1_554
Ga2 O2 La 104.2(2) 1_664 1_554
O2 O2 La 160.96(14) 5 1_554
O3 O2 La 122.9(3) 6_665 1_554
La O2 La 60.58(13) 2_564 1_554
Ga3 O2 La 92.23(17) 4_455 1_554
Ga3 O2 La 55.13(12) 4_445 1_554
O3 O2 La 82.3(2) 4_454 1_554
Ga2 O2 La 48.6(2) 2_565 4_455
Ga3 O2 La 166.5(4) 2_564 4_455
La O2 La 70.5(2) 2_565 4_455
O2 O2 La 40.77(19) 4_455 4_455
O2 O2 La 31.45(16) 3_565 4_455
O3 O2 La 152.7(4) 2_565 4_455
La O2 La 67.88(17) . 4_455
O2 O2 La 138.2(2) 5_554 4_455
O3 O2 La 116.3(3) 5_445 4_455
O1 O2 La 35.83(18) . 4_455
O3 O2 La 132.1(3) 3_564 4_455
O1 O2 La 79.0(2) 1_554 4_455
O3 O2 La 93.6(3) 3_565 4_455
O1 O2 La 115.4(3) 2_565 4_455
Nb O2 La 125.6(3) . 4_455
Ga1 O2 La 125.6(3) . 4_455
Ga2 O2 La 125.7(2) 1_664 4_455
O2 O2 La 95.1(3) 5 4_455
O3 O2 La 71.25(18) 6_665 4_455
La O2 La 104.50(19) 2_564 4_455
Ga3 O2 La 51.68(10) 4_455 4_455
Ga3 O2 La 125.3(2) 4_445 4_455
O3 O2 La 75.89(19) 4_454 4_455
La O2 La 99.81(17) 1_554 4_455
Ga2 O2 Ga3 137.7(4) 2_565 2_565
Ga3 O2 Ga3 101.8(3) 2_564 2_565
La O2 Ga3 58.65(19) 2_565 2_565
O2 O2 Ga3 105.14(18) 4_455 2_565
O2 O2 Ga3 110.01(14) 3_565 2_565
O3 O2 Ga3 62.7(3) 2_565 2_565
La O2 Ga3 62.06(17) . 2_565
O2 O2 Ga3 119.2(4) 5_554 2_565
O3 O2 Ga3 71.1(3) 5_445 2_565
O1 O2 Ga3 54.2(2) . 2_565
O3 O2 Ga3 123.5(3) 3_564 2_565
O1 O2 Ga3 167.6(3) 1_554 2_565
O3 O2 Ga3 22.75(16) 3_565 2_565
O1 O2 Ga3 72.0(3) 2_565 2_565
Nb O2 Ga3 45.87(11) . 2_565
Ga1 O2 Ga3 45.87(11) . 2_565
Ga2 O2 Ga3 98.67(19) 1_664 2_565
O2 O2 Ga3 24.88(16) 5 2_565
O3 O2 Ga3 94.4(2) 6_665 2_565
La O2 Ga3 150.7(2) 2_564 2_565
Ga3 O2 Ga3 121.1(2) 4_455 2_565
Ga3 O2 Ga3 89.87(18) 4_445 2_565
O3 O2 Ga3 135.0(3) 4_454 2_565
La O2 Ga3 142.7(2) 1_554 2_565
La O2 Ga3 89.99(17) 4_455 2_565
Ga2 O2 Ga3 36.5(2) 2_565 .
Ga3 O2 Ga3 114.5(4) 2_564 .
La O2 Ga3 123.8(3) 2_565 .
O2 O2 Ga3 14.30(17) 4_455 .
O2 O2 Ga3 66.6(2) 3_565 .
O3 O2 Ga3 137.3(4) 2_565 .
La O2 Ga3 56.23(15) . .
O2 O2 Ga3 122.5(4) 5_554 .
O3 O2 Ga3 81.2(2) 5_445 .
O1 O2 Ga3 75.6(2) . .
O3 O2 Ga3 80.0(2) 3_564 .
O1 O2 Ga3 52.53(17) 1_554 .
O3 O2 Ga3 100.7(3) 3_565 .
O1 O2 Ga3 164.0(3) 2_565 .
Nb O2 Ga3 111.9(2) . .
Ga1 O2 Ga3 111.9(2) . .
Ga2 O2 Ga3 144.9(2) 1_664 .
O2 O2 Ga3 136.6(4) 5 .
O3 O2 Ga3 114.0(2) 6_665 .
La O2 Ga3 92.82(17) 2_564 .
Ga3 O2 Ga3 78.39(14) 4_455 .
Ga3 O2 Ga3 78.45(16) 4_445 .
O3 O2 Ga3 89.4(2) 4_454 .
La O2 Ga3 50.41(10) 1_554 .
La O2 Ga3 53.26(10) 4_455 .
Ga3 O2 Ga3 116.0(2) 2_565 .
Ga2 O2 O3 120.2(4) 2_565 1_654
Ga3 O2 O3 1.87(19) 2_564 1_654
La O2 O3 119.6(3) 2_565 1_654
O2 O2 O3 129.7(4) 4_455 1_654
O2 O2 O3 144.1(3) 3_565 1_654
O3 O2 O3 38.2(3) 2_565 1_654
La O2 O3 112.3(3) . 1_654
O2 O2 O3 39.13(17) 5_554 1_654
O3 O2 O3 63.1(3) 5_445 1_654
O1 O2 O3 153.8(3) . 1_654
O3 O2 O3 36.6(3) 3_564 1_654
O1 O2 O3 90.0(3) 1_554 1_654
O3 O2 O3 94.1(2) 3_565 1_654
O1 O2 O3 73.4(2) 2_565 1_654
Nb O2 O3 61.14(17) . 1_654
Ga1 O2 O3 61.14(17) . 1_654
Ga2 O2 O3 58.34(16) 1_664 1_654
O2 O2 O3 96.6(3) 5 1_654
O3 O2 O3 112.8(3) 6_665 1_654
La O2 O3 68.64(19) 2_564 1_654
Ga3 O2 O3 124.6(3) 4_455 1_654
Ga3 O2 O3 50.10(15) 4_445 1_654
O3 O2 O3 99.9(3) 4_454 1_654
La O2 O3 68.60(18) 1_554 1_654
La O2 O3 168.3(3) 4_455 1_654
Ga3 O2 O3 100.45(19) 2_565 1_654
Ga3 O2 O3 116.4(2) . 1_654
Ga2 O2 O3 87.1(3) 2_565 4_455
Ga3 O2 O3 140.2(4) 2_564 4_455
La O2 O3 19.89(16) 2_565 4_455
O2 O2 O3 91.5(3) 4_455 4_455
O2 O2 O3 47.8(3) 3_565 4_455
O3 O2 O3 112.5(3) 2_565 4_455
La O2 O3 97.0(3) . 4_455
O2 O2 O3 110.5(3) 5_554 4_455
O3 O2 O3 136.0(3) 5_445 4_455
O1 O2 O3 44.38(17) . 4_455
O3 O2 O3 165.7(4) 3_564 4_455
O1 O2 O3 108.7(3) 1_554 4_455
O3 O2 O3 86.7(3) 3_565 4_455
O1 O2 O3 65.1(2) 2_565 4_455
Nb O2 O3 112.5(3) . 4_455
Ga1 O2 O3 112.5(3) . 4_455
Ga2 O2 O3 83.5(2) 1_664 4_455
O2 O2 O3 55.33(19) 5 4_455
O3 O2 O3 35.9(2) 6_665 4_455
La O2 O3 102.0(2) 2_564 4_455
Ga3 O2 O3 53.74(16) 4_455 4_455
Ga3 O2 O3 156.1(3) 4_445 4_455
O3 O2 O3 70.67(18) 4_454 4_455
La O2 O3 143.6(2) 1_554 4_455
La O2 O3 50.91(16) 4_455 4_455
Ga3 O2 O3 67.45(18) 2_565 4_455
Ga3 O2 O3 104.1(2) . 4_455
O3 O2 O3 138.5(3) 1_654 4_455
Ga2 O2 La 162.4(4) 2_565 4
Ga3 O2 La 60.1(2) 2_564 4
La O2 La 66.41(18) 2_565 4
O2 O2 La 156.6(3) 4_455 4
O2 O2 La 129.6(4) 3_565 4
O3 O2 La 27.1(2) 2_565 4
La O2 La 107.0(2) . 4
O2 O2 La 66.6(3) 5_554 4
O3 O2 La 80.3(2) 5_445 4
O1 O2 La 102.4(3) . 4
O3 O2 La 94.1(3) 3_564 4
O1 O2 La 139.8(3) 1_554 4
O3 O2 La 63.2(2) 3_565 4
O1 O2 La 34.85(12) 2_565 4
Nb O2 La 49.00(10) . 4
Ga1 O2 La 49.00(10) . 4
Ga2 O2 La 51.12(11) 1_664 4
O2 O2 La 39.08(19) 5 4
O3 O2 La 83.8(2) 6_665 4
La O2 La 100.96(19) 2_564 4
Ga3 O2 La 120.3(2) 4_455 4
Ga3 O2 La 85.77(15) 4_445 4
O3 O2 La 109.4(2) 4_454 4
La O2 La 126.7(2) 1_554 4
La O2 La 133.4(2) 4_455 4
Ga3 O2 La 52.61(10) 2_565 4
Ga3 O2 La 160.9(2) . 4
O3 O2 La 58.28(14) 1_654 4
O3 O2 La 86.1(2) 4_455 4
Ga2 O2 Ga2 96.3(3) 2_565 2_566
Ga3 O2 Ga2 143.1(4) 2_564 2_566
La O2 Ga2 52.61(18) 2_565 2_566
O2 O2 Ga2 71.81(9) 4_455 2_566
O2 O2 Ga2 71.81(9) 3_565 2_566
O3 O2 Ga2 104.5(3) 2_565 2_566
La O2 Ga2 52.91(15) . 2_566
O2 O2 Ga2 149.5(4) 5_554 2_566
O3 O2 Ga2 92.9(3) 5_445 2_566
O1 O2 Ga2 12.48(17) . 2_566
O3 O2 Ga2 148.9(4) 3_564 2_566
O1 O2 Ga2 126.9(3) 1_554 2_566
O3 O2 Ga2 49.67(19) 3_565 2_566
O1 O2 Ga2 93.3(3) 2_565 2_566
Nb O2 Ga2 82.39(18) . 2_566
Ga1 O2 Ga2 82.39(18) . 2_566
Ga2 O2 Ga2 120.3(2) 1_664 2_566
O2 O2 Ga2 52.0(2) 5 2_566
O3 O2 Ga2 81.2(2) 6_665 2_566
La O2 Ga2 144.9(2) 2_564 2_566
Ga3 O2 Ga2 88.49(16) 4_455 2_566
Ga3 O2 Ga2 112.4(2) 4_445 2_566
O3 O2 Ga2 111.5(2) 4_454 2_566
La O2 Ga2 134.7(2) 1_554 2_566
La O2 Ga2 48.18(10) 4_455 2_566
Ga3 O2 Ga2 41.80(9) 2_565 2_566
Ga3 O2 Ga2 85.74(16) . 2_566
O3 O2 Ga2 142.0(2) 1_654 2_566
O3 O2 Ga2 45.27(14) 4_455 2_566
La O2 Ga2 90.39(16) 4 2_566
Ga2 O2 O2 50.5(3) 2_565 2_454
Ga3 O2 O2 91.1(4) 2_564 2_454
La O2 O2 147.4(4) 2_565 2_454
O2 O2 O2 36.8(3) 4_455 2_454
O2 O2 O2 87.3(3) 3_565 2_454
O3 O2 O2 116.2(4) 2_565 2_454
La O2 O2 59.97(12) . 2_454
O2 O2 O2 106.9(5) 5_554 2_454
O3 O2 O2 65.2(2) 5_445 2_454
O1 O2 O2 95.4(3) . 2_454
O3 O2 O2 57.1(3) 3_564 2_454
O1 O2 O2 50.8(2) 1_554 2_454
O3 O2 O2 100.3(3) 3_565 2_454
O1 O2 O2 163.2(4) 2_565 2_454
Nb O2 O2 98.5(2) . 2_454
Ga1 O2 O2 98.5(2) . 2_454
Ga2 O2 O2 135.4(3) 1_664 2_454
O2 O2 O2 146.1(4) 5 2_454
O3 O2 O2 131.7(3) 6_665 2_454
La O2 O2 87.1(3) 2_564 2_454
Ga3 O2 O2 94.5(3) 4_455 2_454
Ga3 O2 O2 57.33(17) 4_445 2_454
O3 O2 O2 97.2(3) 4_454 2_454
La O2 O2 31.34(17) 1_554 2_454
La O2 O2 76.9(2) 4_455 2_454
Ga3 O2 O2 121.3(3) 2_565 2_454
Ga3 O2 O2 23.65(12) . 2_454
O3 O2 O2 92.9(3) 1_654 2_454
O3 O2 O2 127.8(3) 4_455 2_454
La O2 O2 143.1(3) 4 2_454
Ga2 O2 O2 103.5(2) 2_566 2_454
Ga2 O2 O2 90.2(4) 2_565 2_564
Ga3 O2 O2 74.8(3) 2_564 2_564
La O2 O2 67.65(18) 2_565 2_564
O2 O2 O2 129.4(4) 4_455 2_564
O2 O2 O2 76.5(4) 3_565 2_564
O3 O2 O2 85.7(3) 2_565 2_564
La O2 O2 172.4(4) . 2_564
O2 O2 O2 36.3(2) 5_554 2_564
O3 O2 O2 136.8(4) 5_445 2_564
O1 O2 O2 119.6(3) . 2_564
O3 O2 O2 91.0(4) 3_564 2_564
O1 O2 O2 75.5(3) 1_554 2_564
O3 O2 O2 133.0(3) 3_565 2_564
O1 O2 O2 42.4(2) 2_565 2_564
Nb O2 O2 118.4(3) . 2_564
Ga1 O2 O2 118.4(3) . 2_564
Ga2 O2 O2 22.67(8) 1_664 2_564
O2 O2 O2 88.8(2) 5 2_564
O3 O2 O2 40.58(18) 6_665 2_564
La O2 O2 38.2(2) 2_564 2_564
Ga3 O2 O2 57.2(2) 4_455 2_564
Ga3 O2 O2 123.0(3) 4_445 2_564
O3 O2 O2 37.8(2) 4_454 2_564
La O2 O2 98.1(3) 1_554 2_564
La O2 O2 106.8(3) 4_455 2_564
Ga3 O2 O2 113.5(2) 2_565 2_564
Ga3 O2 O2 125.5(3) . 2_564
O3 O2 O2 74.1(3) 1_654 2_564
O3 O2 O2 75.4(2) 4_455 2_564
La O2 O2 72.40(15) 4 2_564
Ga2 O2 O2 119.5(3) 2_566 2_564
O2 O2 O2 125.1(4) 2_454 2_564
Ga2 O2 O3 167.1(4) 2_565 1_655
Ga3 O2 O3 68.6(3) 2_564 1_655
La O2 O3 77.3(2) 2_565 1_655
O2 O2 O3 127.3(4) 4_455 1_655
O2 O2 O3 140.3(3) 3_565 1_655
O3 O2 O3 29.7(3) 2_565 1_655
La O2 O3 77.2(2) . 1_655
O2 O2 O3 91.2(3) 5_554 1_655
O3 O2 O3 56.7(3) 5_445 1_655
O1 O2 O3 87.2(3) . 1_655
O3 O2 O3 94.3(3) 3_564 1_655
O1 O2 O3 156.5(3) 1_554 1_655
O3 O2 O3 34.7(2) 3_565 1_655
O1 O2 O3 62.8(2) 2_565 1_655
Nb O2 O3 23.29(12) . 1_655
Ga1 O2 O3 23.29(12) . 1_655
Ga2 O2 O3 80.88(18) 1_664 1_655
O2 O2 O3 37.77(18) 5 1_655
O3 O2 O3 106.3(3) 6_665 1_655
La O2 O3 127.7(2) 2_564 1_655
Ga3 O2 O3 142.7(3) 4_455 1_655
Ga3 O2 O3 69.37(18) 4_445 1_655
O3 O2 O3 138.8(3) 4_454 1_655
La O2 O3 123.2(2) 1_554 1_655
La O2 O3 123.1(2) 4_455 1_655
Ga3 O2 O3 33.20(14) 2_565 1_655
Ga3 O2 O3 131.7(3) . 1_655
O3 O2 O3 67.26(16) 1_654 1_655
O3 O2 O3 93.0(3) 4_455 1_655
La O2 O3 29.97(12) 4 1_655
Ga2 O2 O3 74.92(19) 2_566 1_655
O2 O2 O3 121.5(3) 2_454 1_655
O2 O2 O3 102.4(2) 2_564 1_655
Ga2 O2 O2 83.8(3) 2_565 6_554
Ga3 O2 O2 61.5(3) 2_564 6_554
La O2 O2 165.0(5) 2_565 6_554
O2 O2 O2 68.4(3) 4_455 6_554
O2 O2 O2 122.3(3) 3_565 6_554
O3 O2 O2 81.1(3) 2_565 6_554
La O2 O2 62.3(2) . 6_554
O2 O2 O2 91.7(3) 5_554 6_554
O3 O2 O2 36.4(2) 5_445 6_554
O1 O2 O2 113.7(3) . 6_554
O3 O2 O2 34.7(2) 3_564 6_554
O1 O2 O2 72.2(2) 1_554 6_554
O3 O2 O2 84.2(3) 3_565 6_554
O1 O2 O2 135.63(18) 2_565 6_554
Nb O2 O2 68.4(2) . 6_554
Ga1 O2 O2 68.4(2) . 6_554
Ga2 O2 O2 119.2(2) 1_664 6_554
O2 O2 O2 126.9(2) 5 6_554
O3 O2 O2 159.0(4) 6_665 6_554
La O2 O2 92.8(3) 2_564 6_554
Ga3 O2 O2 125.9(2) 4_455 6_554
Ga3 O2 O2 22.69(12) 4_445 6_554
O3 O2 O2 118.4(3) 4_454 6_554
La O2 O2 36.16(14) 1_554 6_554
La O2 O2 108.93(15) 4_455 6_554
Ga3 O2 O2 106.6(3) 2_565 6_554
Ga3 O2 O2 57.58(12) . 6_554
O3 O2 O2 63.08(17) 1_654 6_554
O3 O2 O2 157.3(3) 4_455 6_554
La O2 O2 108.06(14) 4 6_554
Ga2 O2 O2 115.2(3) 2_566 6_554
O2 O2 O2 35.1(2) 2_454 6_554
O2 O2 O2 125.3(4) 2_564 6_554
O3 O2 O2 91.3(2) 1_655 6_554
Ga2 O2 Nb 98.6(3) 2_565 1_554
Ga3 O2 Nb 22.51(18) 2_564 1_554
La O2 Nb 142.5(3) 2_565 1_554
O2 O2 Nb 106.2(3) 4_455 1_554
O2 O2 Nb 132.37(10) 3_565 1_554
O3 O2 Nb 59.6(3) 2_565 1_554
La O2 Nb 103.7(2) . 1_554
O2 O2 Nb 48.16(18) 5_554 1_554
O3 O2 Nb 59.4(2) 5_445 1_554
O1 O2 Nb 156.5(3) . 1_554
O3 O2 Nb 12.37(18) 3_564 1_554
O1 O2 Nb 70.6(2) 1_554 1_554
O3 O2 Nb 103.9(3) 3_565 1_554
O1 O2 Nb 95.7(2) 2_565 1_554
Nb O2 Nb 72.58(15) . 1_554
Ga1 O2 Nb 72.58(15) . 1_554
Ga2 O2 Nb 75.09(15) 1_664 1_554
O2 O2 Nb 119.7(2) 5 1_554
O3 O2 Nb 124.2(3) 6_665 1_554
La O2 Nb 62.84(13) 2_564 1_554
Ga3 O2 Nb 118.3(2) 4_455 1_554
Ga3 O2 Nb 40.55(8) 4_445 1_554
O3 O2 Nb 96.2(2) 4_454 1_554
La O2 Nb 44.36(9) 1_554 1_554
La O2 Nb 144.2(2) 4_455 1_554
Ga3 O2 Nb 117.62(19) 2_565 1_554
Ga3 O2 Nb 92.38(16) . 1_554
O3 O2 Nb 24.38(12) 1_654 1_554
O3 O2 Nb 158.5(3) 4_455 1_554
La O2 Nb 82.36(14) 4 1_554
Ga2 O2 Nb 152.2(2) 2_566 1_554
O2 O2 Nb 69.4(2) 2_454 1_554
O2 O2 Nb 83.8(3) 2_564 1_554
O3 O2 Nb 86.00(19) 1_655 1_554
O2 O2 Nb 44.10(13) 6_554 1_554
Ga2 O2 Ga1 98.6(3) 2_565 1_554
Ga3 O2 Ga1 22.51(18) 2_564 1_554
La O2 Ga1 142.5(3) 2_565 1_554
O2 O2 Ga1 106.2(3) 4_455 1_554
O2 O2 Ga1 132.37(10) 3_565 1_554
O3 O2 Ga1 59.6(3) 2_565 1_554
La O2 Ga1 103.7(2) . 1_554
O2 O2 Ga1 48.16(18) 5_554 1_554
O3 O2 Ga1 59.4(2) 5_445 1_554
O1 O2 Ga1 156.5(3) . 1_554
O3 O2 Ga1 12.37(18) 3_564 1_554
O1 O2 Ga1 70.6(2) 1_554 1_554
O3 O2 Ga1 103.9(3) 3_565 1_554
O1 O2 Ga1 95.7(2) 2_565 1_554
Nb O2 Ga1 72.58(15) . 1_554
Ga1 O2 Ga1 72.58(15) . 1_554
Ga2 O2 Ga1 75.09(15) 1_664 1_554
O2 O2 Ga1 119.7(2) 5 1_554
O3 O2 Ga1 124.2(3) 6_665 1_554
La O2 Ga1 62.84(13) 2_564 1_554
Ga3 O2 Ga1 118.3(2) 4_455 1_554
Ga3 O2 Ga1 40.55(8) 4_445 1_554
O3 O2 Ga1 96.2(2) 4_454 1_554
La O2 Ga1 44.36(9) 1_554 1_554
La O2 Ga1 144.2(2) 4_455 1_554
Ga3 O2 Ga1 117.62(19) 2_565 1_554
Ga3 O2 Ga1 92.38(16) . 1_554
O3 O2 Ga1 24.38(12) 1_654 1_554
O3 O2 Ga1 158.5(3) 4_455 1_554
La O2 Ga1 82.36(14) 4 1_554
Ga2 O2 Ga1 152.2(2) 2_566 1_554
O2 O2 Ga1 69.4(2) 2_454 1_554
O2 O2 Ga1 83.8(3) 2_564 1_554
O3 O2 Ga1 86.00(19) 1_655 1_554
O2 O2 Ga1 44.10(13) 6_554 1_554
Nb O2 Ga1 0.0 1_554 1_554
Ga2 O2 O1 81.3(3) 2_565 2_455
Ga3 O2 O1 94.5(3) 2_564 2_455
La O2 O1 130.8(4) 2_565 2_455
O2 O2 O1 46.7(3) 4_455 2_455
O2 O2 O1 106.1(3) 3_565 2_455
O3 O2 O1 95.9(3) 2_565 2_455
La O2 O1 25.83(19) . 2_455
O2 O2 O1 129.0(3) 5_554 2_455
O3 O2 O1 38.9(2) 5_445 2_455
O1 O2 O1 76.4(3) . 2_455
O3 O2 O1 72.1(3) 3_564 2_455
O1 O2 O1 89.0(3) 1_554 2_455
O3 O2 O1 62.1(2) 3_565 2_455
O1 O2 O1 150.4(3) 2_565 2_455
Nb O2 O1 67.09(17) . 2_455
Ga1 O2 O1 67.09(17) . 2_455
Ga2 O2 O1 153.9(2) 1_664 2_455
O2 O2 O1 108.3(3) 5 2_455
O3 O2 O1 151.3(2) 6_665 2_455
La O2 O1 123.6(3) 2_564 2_455
Ga3 O2 O1 122.00(19) 4_455 2_455
Ga3 O2 O1 45.65(13) 4_445 2_455
O3 O2 O1 133.5(3) 4_454 2_455
La O2 O1 63.2(2) 1_554 2_455
La O2 O1 80.09(16) 4_455 2_455
Ga3 O2 O1 83.5(2) 2_565 2_455
Ga3 O2 O1 44.81(12) . 2_455
O3 O2 O1 95.6(2) 1_654 2_455
O3 O2 O1 120.6(3) 4_455 2_455
La O2 O1 116.1(2) 4 2_455
Ga2 O2 O1 78.3(2) 2_566 2_455
O2 O2 O1 38.17(18) 2_454 2_455
O2 O2 O1 161.2(4) 2_564 2_455
O3 O2 O1 87.5(2) 1_655 2_455
O2 O2 O1 37.4(2) 6_554 2_455
Nb O2 O1 80.9(2) 1_554 2_455
Ga1 O2 O1 80.9(2) 1_554 2_455
Ga2 O2 O3 138.9(4) 2_565 6_655
Ga3 O2 O3 42.1(2) 2_564 6_655
La O2 O3 115.5(3) 2_565 6_655
O2 O2 O3 114.7(5) 4_455 6_655
O2 O2 O3 173.5(4) 3_565 6_655
O3 O2 O3 28.4(2) 2_565 6_655
La O2 O3 74.7(2) . 6_655
O2 O2 O3 79.52(17) 5_554 6_655
O3 O2 O3 29.3(2) 5_445 6_655
O1 O2 O3 113.4(3) . 6_655
O3 O2 O3 56.8(3) 3_564 6_655
O1 O2 O3 119.1(3) 1_554 6_655
O3 O2 O3 53.8(3) 3_565 6_655
O1 O2 O3 86.7(2) 2_565 6_655
Nb O2 O3 21.45(13) . 6_655
Ga1 O2 O3 21.45(13) . 6_655
Ga2 O2 O3 88.60(19) 1_664 6_655
O2 O2 O3 76.61(17) 5 6_655
O3 O2 O3 136.9(3) 6_665 6_655
La O2 O3 110.0(2) 2_564 6_655
Ga3 O2 O3 166.2(3) 4_455 6_655
Ga3 O2 O3 32.52(14) 4_445 6_655
O3 O2 O3 141.6(2) 4_454 6_655
La O2 O3 84.3(2) 1_554 6_655
La O2 O3 142.1(3) 4_455 6_655
Ga3 O2 O3 66.95(17) 2_565 6_655
Ga3 O2 O3 109.1(2) . 6_655
O3 O2 O3 41.8(2) 1_654 6_655
O3 O2 O3 131.8(2) 4_455 6_655
La O2 O3 53.71(15) 4 6_655
Ga2 O2 O3 103.4(2) 2_566 6_655
O2 O2 O3 89.6(3) 2_454 6_655
O2 O2 O3 109.9(3) 2_564 6_655
O3 O2 O3 38.9(3) 1_655 6_655
O2 O2 O3 55.21(18) 6_554 6_655
Nb O2 O3 51.13(14) 1_554 6_655
Ga1 O2 O3 51.13(14) 1_554 6_655
O1 O2 O3 68.20(17) 2_455 6_655
Ga2 O2 Ga2 71.7(3) 2_565 1_554
Ga3 O2 Ga2 83.3(3) 2_564 1_554
La O2 Ga2 150.3(3) 2_565 1_554
O2 O2 Ga2 47.7(3) 4_455 1_554
O2 O2 Ga2 105.8(3) 3_565 1_554
O3 O2 Ga2 98.2(3) 2_565 1_554
La O2 Ga2 46.44(14) . 1_554
O2 O2 Ga2 111.4(3) 5_554 1_554
O3 O2 Ga2 43.7(2) 5_445 1_554
O1 O2 Ga2 93.9(2) . 1_554
O3 O2 Ga2 54.6(2) 3_564 1_554
O1 O2 Ga2 71.23(17) 1_554 1_554
O3 O2 Ga2 80.6(2) 3_565 1_554
O1 O2 Ga2 156.0(2) 2_565 1_554
Nb O2 Ga2 76.78(17) . 1_554
Ga1 O2 Ga2 76.78(17) . 1_554
Ga2 O2 Ga2 140.1(2) 1_664 1_554
O2 O2 Ga2 127.4(2) 5 1_554
O3 O2 Ga2 152.7(3) 6_665 1_554
La O2 Ga2 102.98(18) 2_564 1_554
Ga3 O2 Ga2 115.73(18) 4_455 1_554
Ga3 O2 Ga2 39.64(8) 4_445 1_554
O3 O2 Ga2 118.6(2) 4_454 1_554
La O2 Ga2 42.46(9) 1_554 1_554
La O2 Ga2 87.64(15) 4_455 1_554
Ga3 O2 Ga2 102.92(19) 2_565 1_554
Ga3 O2 Ga2 39.11(8) . 1_554
O3 O2 Ga2 84.81(19) 1_654 1_554
O3 O2 Ga2 135.8(2) 4_455 1_554
La O2 Ga2 123.52(19) 4 1_554
Ga2 O2 Ga2 97.80(18) 2_566 1_554
O2 O2 Ga2 21.90(10) 2_454 1_554
O2 O2 Ga2 140.4(3) 2_564 1_554
O3 O2 Ga2 99.7(2) 1_655 1_554
O2 O2 Ga2 21.77(11) 6_554 1_554
Nb O2 Ga2 65.24(12) 1_554 1_554
Ga1 O2 Ga2 65.24(12) 1_554 1_554
O1 O2 Ga2 20.84(18) 2_455 1_554
O3 O2 Ga2 70.10(17) 6_655 1_554
Ga2 O2 Ga3 82.4(3) 2_565 1_665
Ga3 O2 Ga3 96.5(3) 2_564 1_665
La O2 Ga3 51.24(19) 2_565 1_665
O2 O2 Ga3 116.8(3) 4_455 1_665
O2 O2 Ga3 58.2(3) 3_565 1_665
O3 O2 Ga3 100.6(3) 2_565 1_665
La O2 Ga3 150.9(3) . 1_665
O2 O2 Ga3 58.23(12) 5_554 1_665
O3 O2 Ga3 156.8(3) 5_445 1_665
O1 O2 Ga3 98.3(2) . 1_665
O3 O2 Ga3 111.1(3) 3_564 1_665
O1 O2 Ga3 78.76(19) 1_554 1_665
O3 O2 Ga3 129.1(3) 3_565 1_665
O1 O2 Ga3 45.76(16) 2_565 1_665
Nb O2 Ga3 129.4(2) . 1_665
Ga1 O2 Ga3 129.4(2) . 1_665
Ga2 O2 Ga3 39.71(10) 1_664 1_665
O2 O2 Ga3 82.48(18) 5 1_665
O3 O2 Ga3 19.04(14) 6_665 1_665
La O2 Ga3 50.69(11) 2_564 1_665
Ga3 O2 Ga3 41.35(9) 4_455 1_665
Ga3 O2 Ga3 144.9(2) 4_445 1_665
O3 O2 Ga3 31.66(16) 4_454 1_665
La O2 Ga3 110.0(2) 1_554 1_665
La O2 Ga3 86.38(16) 4_455 1_665
Ga3 O2 Ga3 106.46(19) 2_565 1_665
Ga3 O2 Ga3 118.68(18) . 1_665
O3 O2 Ga3 95.7(2) 1_654 1_665
O3 O2 Ga3 54.76(14) 4_455 1_665
La O2 Ga3 80.45(15) 4 1_665
Ga2 O2 Ga3 99.93(17) 2_566 1_665
O2 O2 Ga3 128.8(3) 2_454 1_665
O2 O2 Ga3 21.92(13) 2_564 1_665
O3 O2 Ga3 108.2(2) 1_655 1_665
O2 O2 Ga3 143.4(3) 6_554 1_665
Nb O2 Ga3 105.22(18) 1_554 1_665
Ga1 O2 Ga3 105.22(18) 1_554 1_665
O1 O2 Ga3 163.3(2) 2_455 1_665
O3 O2 Ga3 127.8(2) 6_655 1_665
Ga2 O2 Ga3 150.0(2) 1_554 1_665
Ga2 O2 Ga3 136.2(4) 2_565 1_655
Ga3 O2 Ga3 22.17(19) 2_564 1_655
La O2 Ga3 115.2(3) 2_565 1_655
O2 O2 Ga3 128.5(4) 4_455 1_655
O2 O2 Ga3 165.0(3) 3_565 1_655
O3 O2 Ga3 22.6(2) 2_565 1_655
La O2 Ga3 95.4(2) . 1_655
O2 O2 Ga3 58.20(14) 5_554 1_655
O3 O2 Ga3 47.4(2) 5_445 1_655
O1 O2 Ga3 132.6(3) . 1_655
O3 O2 Ga3 47.7(2) 3_564 1_655
O1 O2 Ga3 108.3(3) 1_554 1_655
O3 O2 Ga3 72.7(2) 3_565 1_655
O1 O2 Ga3 75.18(15) 2_565 1_655
Nb O2 Ga3 39.75(9) . 1_655
Ga1 O2 Ga3 39.75(9) . 1_655
Ga2 O2 Ga3 69.91(13) 1_664 1_655
O2 O2 Ga3 82.48(18) 5 1_655
O3 O2 Ga3 123.1(2) 6_665 1_655
La O2 Ga3 89.98(17) 2_564 1_655
Ga3 O2 Ga3 144.8(2) 4_455 1_655
Ga3 O2 Ga3 41.40(8) 4_445 1_655
O3 O2 Ga3 120.3(2) 4_454 1_655
La O2 Ga3 79.81(15) 1_554 1_655
La O2 Ga3 163.3(2) 4_455 1_655
Ga3 O2 Ga3 80.88(14) 2_565 1_655
Ga3 O2 Ga3 118.8(2) . 1_655
O3 O2 Ga3 21.39(12) 1_654 1_655
O3 O2 Ga3 134.8(2) 4_455 1_655
La O2 Ga3 48.79(8) 4 1_655
Ga2 O2 Ga3 121.29(19) 2_566 1_655
O2 O2 Ga3 95.8(3) 2_454 1_655
O2 O2 Ga3 89.8(2) 2_564 1_655
O3 O2 Ga3 48.27(15) 1_655 1_655
O2 O2 Ga3 61.19(11) 6_554 1_655
Nb O2 Ga3 37.93(7) 1_554 1_655
Ga1 O2 Ga3 37.93(7) 1_554 1_655
O1 O2 Ga3 84.94(15) 2_455 1_655
O3 O2 Ga3 21.32(11) 6_655 1_655
Ga2 O2 Ga3 80.86(14) 1_554 1_655
Ga3 O2 Ga3 109.59(17) 1_665 1_655
Ga2 O2 O2 117.4(3) 2_565 1_556
Ga3 O2 O2 122.8(3) 2_564 1_556
La O2 O2 50.4(2) 2_565 1_556
O2 O2 O2 90.000(1) 4_455 1_556
O2 O2 O2 90.0 3_565 1_556
O3 O2 O2 83.5(3) 2_565 1_556
La O2 O2 57.47(18) . 1_556
O2 O2 O2 134.5(3) 5_554 1_556
O3 O2 O2 83.7(3) 5_445 1_556
O1 O2 O2 33.6(2) . 1_556
O3 O2 O2 140.7(3) 3_564 1_556
O1 O2 O2 148.0(2) 1_554 1_556
O3 O2 O2 34.6(2) 3_565 1_556
O1 O2 O2 80.1(3) 2_565 1_556
Nb O2 O2 64.80(15) . 1_556
Ga1 O2 O2 64.80(15) . 1_556
Ga2 O2 O2 108.34(14) 1_664 1_556
O2 O2 O2 33.6(3) 5 1_556
O3 O2 O2 85.3(2) 6_665 1_556
La O2 O2 152.34(14) 2_564 1_556
Ga3 O2 O2 103.72(13) 4_455 1_556
Ga3 O2 O2 103.74(13) 4_445 1_556
O3 O2 O2 123.06(18) 4_454 1_556
La O2 O2 145.81(13) 1_554 1_556
La O2 O2 69.18(12) 4_455 1_556
Ga3 O2 O2 20.96(11) 2_565 1_556
Ga3 O2 O2 103.00(12) . 1_556
O3 O2 O2 121.40(16) 1_654 1_556
O3 O2 O2 52.38(16) 4_455 1_556
La O2 O2 70.15(12) 4 1_556
Ga2 O2 O2 21.13(10) 2_566 1_556
O2 O2 O2 116.0(2) 2_454 1_556
O2 O2 O2 116.0(2) 2_564 1_556
O3 O2 O2 54.14(17) 1_655 1_556
O2 O2 O2 114.8(2) 6_554 1_556
Nb O2 O2 137.37(11) 1_554 1_556
Ga1 O2 O2 137.37(11) 1_554 1_556
O1 O2 O2 82.7(2) 2_455 1_556
O3 O2 O2 86.25(16) 6_655 1_556
Ga2 O2 O2 103.59(11) 1_554 1_556
Ga3 O2 O2 101.65(11) 1_665 1_556
Ga3 O2 O2 101.67(11) 1_655 1_556
Ga2 O2 O2 62.6(3) 2_565 1_554
Ga3 O2 O2 57.2(3) 2_564 1_554
La O2 O2 129.6(2) 2_565 1_554
O2 O2 O2 90.000(1) 4_455 1_554
O2 O2 O2 90.0 3_565 1_554
O3 O2 O2 96.5(3) 2_565 1_554
La O2 O2 122.53(18) . 1_554
O2 O2 O2 45.5(3) 5_554 1_554
O3 O2 O2 96.3(3) 5_445 1_554
O1 O2 O2 146.4(2) . 1_554
O3 O2 O2 39.3(3) 3_564 1_554
O1 O2 O2 32.0(2) 1_554 1_554
O3 O2 O2 145.4(2) 3_565 1_554
O1 O2 O2 99.9(3) 2_565 1_554
Nb O2 O2 115.21(15) . 1_554
Ga1 O2 O2 115.21(15) . 1_554
Ga2 O2 O2 71.66(14) 1_664 1_554
O2 O2 O2 146.4(3) 5 1_554
O3 O2 O2 94.7(2) 6_665 1_554
La O2 O2 27.66(14) 2_564 1_554
Ga3 O2 O2 76.28(13) 4_455 1_554
Ga3 O2 O2 76.26(13) 4_445 1_554
O3 O2 O2 56.94(18) 4_454 1_554
La O2 O2 34.19(13) 1_554 1_554
La O2 O2 110.82(12) 4_455 1_554
Ga3 O2 O2 159.05(11) 2_565 1_554
Ga3 O2 O2 77.00(12) . 1_554
O3 O2 O2 58.60(16) 1_654 1_554
O3 O2 O2 127.61(16) 4_455 1_554
La O2 O2 109.86(12) 4 1_554
Ga2 O2 O2 158.87(10) 2_566 1_554
O2 O2 O2 64.0(2) 2_454 1_554
O2 O2 O2 64.0(2) 2_564 1_554
O3 O2 O2 125.86(17) 1_655 1_554
O2 O2 O2 65.2(2) 6_554 1_554
Nb O2 O2 42.63(11) 1_554 1_554
Ga1 O2 O2 42.63(11) 1_554 1_554
O1 O2 O2 97.3(2) 2_455 1_554
O3 O2 O2 93.75(16) 6_655 1_554
Ga2 O2 O2 76.41(11) 1_554 1_554
Ga3 O2 O2 78.34(11) 1_665 1_554
Ga3 O2 O2 78.33(11) 1_655 1_554
O2 O2 O2 179.999(3) 1_556 1_554
Ga2 O2 O2 83.6(3) 2_565 2_455
Ga3 O2 O2 123.6(4) 2_564 2_455
La O2 O2 96.9(4) 2_565 2_455
O2 O2 O2 44.5(2) 4_455 2_455
O2 O2 O2 87.6(2) 3_565 2_455
O3 O2 O2 106.4(4) 2_565 2_455
La O2 O2 11.87(4) . 2_455
O2 O2 O2 162.4(2) 5_554 2_455
O3 O2 O2 61.1(2) 5_445 2_455
O1 O2 O2 42.3(2) . 2_455
O3 O2 O2 106.4(3) 3_564 2_455
O1 O2 O2 106.1(2) 1_554 2_455
O3 O2 O2 49.1(2) 3_565 2_455
O1 O2 O2 133.1(4) 2_565 2_455
Nb O2 O2 73.2(2) . 2_455
Ga1 O2 O2 73.2(2) . 2_455
Ga2 O2 O2 161.1(3) 1_664 2_455
O2 O2 O2 85.2(4) 5 2_455
O3 O2 O2 120.8(3) 6_665 2_455
La O2 O2 146.3(3) 2_564 2_455
Ga3 O2 O2 107.7(3) 4_455 2_455
Ga3 O2 O2 75.74(15) 4_445 2_455
O3 O2 O2 130.6(3) 4_454 2_455
La O2 O2 93.29(14) 1_554 2_455
La O2 O2 56.37(17) 4_455 2_455
Ga3 O2 O2 62.5(2) 2_565 2_455
Ga3 O2 O2 53.56(9) . 2_455
O3 O2 O2 124.2(3) 1_654 2_455
O3 O2 O2 86.7(3) 4_455 2_455
La O2 O2 112.1(3) 4 2_455
Ga2 O2 O2 44.32(19) 2_566 2_455
O2 O2 O2 62.80(5) 2_454 2_455
O2 O2 O2 161.3(4) 2_564 2_455
O3 O2 O2 83.5(3) 1_655 2_455
O2 O2 O2 71.71(17) 6_554 2_455
Nb O2 O2 114.5(2) 1_554 2_455
Ga1 O2 O2 114.5(2) 1_554 2_455
O1 O2 O2 34.31(16) 2_455 2_455
O3 O2 O2 85.9(2) 6_655 2_455
Ga2 O2 O2 53.51(7) 1_554 2_455
Ga3 O2 O2 139.4(3) 1_665 2_455
Ga3 O2 O2 106.9(2) 1_655 2_455
O2 O2 O2 53.24(17) 1_556 2_455
O2 O2 O2 126.76(17) 1_554 2_455
Ga2 O2 O2 117.3(4) 2_565 2_565
Ga3 O2 O2 107.6(3) 2_564 2_565
La O2 O2 14.10(12) 2_565 2_565
O2 O2 O2 124.5(3) 4_455 2_565
O2 O2 O2 78.0(4) 3_565 2_565
O3 O2 O2 79.7(3) 2_565 2_565
La O2 O2 110.6(3) . 2_565
O2 O2 O2 88.6(3) 5_554 2_565
O3 O2 O2 122.7(4) 5_445 2_565
O1 O2 O2 67.4(3) . 2_565
O3 O2 O2 141.5(3) 3_564 2_565
O1 O2 O2 128.1(3) 1_554 2_565
O3 O2 O2 78.1(3) 3_565 2_565
O1 O2 O2 34.0(2) 2_565 2_565
Nb O2 O2 90.1(2) . 2_565
Ga1 O2 O2 90.1(2) . 2_565
Ga2 O2 O2 59.24(7) 1_664 2_565
O2 O2 O2 32.54(19) 5 2_565
O3 O2 O2 40.69(18) 6_665 2_565
La O2 O2 100.11(18) 2_564 2_565
Ga3 O2 O2 75.64(19) 4_455 2_565
Ga3 O2 O2 136.1(3) 4_445 2_565
O3 O2 O2 80.5(2) 4_454 2_565
La O2 O2 160.7(3) 1_554 2_565
La O2 O2 84.6(2) 4_455 2_565
Ga3 O2 O2 55.37(19) 2_565 2_565
Ga3 O2 O2 137.8(3) . 2_565
O3 O2 O2 105.8(2) 1_654 2_565
O3 O2 O2 34.0(2) 4_455 2_565
La O2 O2 52.71(13) 4 2_565
Ga2 O2 O2 61.1(2) 2_566 2_565
O2 O2 O2 161.3(4) 2_454 2_565
O2 O2 O2 62.80(5) 2_564 2_565
O3 O2 O2 67.1(2) 1_655 2_565
O2 O2 O2 158.5(3) 6_554 2_565
Nb O2 O2 129.3(2) 1_554 2_565
Ga1 O2 O2 129.3(2) 1_554 2_565
O1 O2 O2 136.0(3) 2_455 2_565
O3 O2 O2 103.8(3) 6_655 2_565
Ga2 O2 O2 156.8(3) 1_554 2_565
Ga3 O2 O2 51.15(10) 1_665 2_565
Ga3 O2 O2 101.4(2) 1_655 2_565
O2 O2 O2 53.24(17) 1_556 2_565
O2 O2 O2 126.76(17) 1_554 2_565
O2 O2 O2 104.6(3) 2_455 2_565
Ga2 O2 O3 18.2(2) 2_565 1_554
Ga3 O2 O3 112.6(4) 2_564 1_554
La O2 O3 119.7(3) 2_565 1_554
O2 O2 O3 28.20(15) 4_455 1_554
O2 O2 O3 55.3(2) 3_565 1_554
O3 O2 O3 147.1(3) 2_565 1_554
La O2 O3 76.0(2) . 1_554
O2 O2 O3 107.4(4) 5_554 1_554
O3 O2 O3 97.3(3) 5_445 1_554
O1 O2 O3 84.8(2) . 1_554
O3 O2 O3 78.8(3) 3_564 1_554
O1 O2 O3 34.51(19) 1_554 1_554
O3 O2 O3 120.4(3) 3_565 1_554
O1 O2 O3 145.8(3) 2_565 1_554
Nb O2 O3 129.9(3) . 1_554
Ga1 O2 O3 129.9(3) . 1_554
Ga2 O2 O3 125.6(2) 1_664 1_554
O2 O2 O3 148.2(4) 5 1_554
O3 O2 O3 99.3(3) 6_665 1_554
La O2 O3 74.29(17) 2_564 1_554
Ga3 O2 O3 62.14(15) 4_455 1_554
Ga3 O2 O3 89.7(2) 4_445 1_554
O3 O2 O3 69.85(19) 4_454 1_554
La O2 O3 46.11(15) 1_554 1_554
La O2 O3 53.88(15) 4_455 1_554
Ga3 O2 O3 133.3(2) 2_565 1_554
Ga3 O2 O3 19.99(10) . 1_554
O3 O2 O3 114.4(3) 1_654 1_554
O3 O2 O3 100.34(16) 4_455 1_554
La O2 O3 172.6(2) 4 1_554
Ga2 O2 O3 96.69(19) 2_566 1_554
O2 O2 O3 32.68(18) 2_454 1_554
O2 O2 O3 105.5(3) 2_564 1_554
O3 O2 O3 151.3(3) 1_655 1_554
O2 O2 O3 67.06(16) 6_554 1_554
Nb O2 O3 90.41(19) 1_554 1_554
Ga1 O2 O3 90.41(19) 1_554 1_554
O1 O2 O3 63.79(18) 2_455 1_554
O3 O2 O3 122.1(2) 6_655 1_554
Ga2 O2 O3 53.59(14) 1_554 1_554
Ga3 O2 O3 100.22(19) 1_665 1_554
Ga3 O2 O3 124.8(2) 1_655 1_554
O2 O2 O3 116.65(16) 1_556 1_554
O2 O2 O3 63.35(16) 1_554 1_554
O2 O2 O3 72.15(17) 2_455 1_554
O2 O2 O3 133.1(3) 2_565 1_554
Ga2 O2 O3 109.0(4) 2_565 4_444
Ga3 O2 O3 30.6(2) 2_564 4_444
La O2 O3 144.9(3) 2_565 4_444
O2 O2 O3 100.9(4) 4_455 4_444
O2 O2 O3 148.2(2) 3_565 4_444
O3 O2 O3 51.7(3) 2_565 4_444
La O2 O3 83.4(2) . 4_444
O2 O2 O3 67.40(17) 5_554 4_444
O3 O2 O3 36.9(3) 5_445 4_444
O1 O2 O3 135.0(3) . 4_444
O3 O2 O3 24.42(18) 3_564 4_444
O1 O2 O3 86.3(3) 1_554 4_444
O3 O2 O3 82.3(2) 3_565 4_444
O1 O2 O3 103.1(2) 2_565 4_444
Nb O2 O3 53.28(15) . 4_444
Ga1 O2 O3 53.28(15) . 4_444
Ga2 O2 O3 90.1(2) 1_664 4_444
O2 O2 O3 108.79(18) 5 4_444
O3 O2 O3 144.0(2) 6_665 4_444
La O2 O3 85.44(19) 2_564 4_444
Ga3 O2 O3 139.4(2) 4_455 4_444
Ga3 O2 O3 19.24(10) 4_445 4_444
O3 O2 O3 118.7(3) 4_454 4_444
La O2 O3 52.36(16) 1_554 4_444
La O2 O3 141.4(2) 4_455 4_444
Ga3 O2 O3 99.12(19) 2_565 4_444
Ga3 O2 O3 89.57(19) . 4_444
O3 O2 O3 31.86(15) 1_654 4_444
O3 O2 O3 163.9(3) 4_455 4_444
La O2 O3 78.47(17) 4 4_444
Ga2 O2 O3 129.5(2) 2_566 4_444
O2 O2 O3 66.2(2) 2_454 4_444
O2 O2 O3 103.7(3) 2_564 4_444
O3 O2 O3 71.36(12) 1_655 4_444
O2 O2 O3 32.51(14) 6_554 4_444
Nb O2 O3 22.67(11) 1_554 4_444
Ga1 O2 O3 22.67(11) 1_554 4_444
O1 O2 O3 63.98(17) 2_455 4_444
O3 O2 O3 32.8(2) 6_655 4_444
Ga2 O2 O3 53.74(14) 1_554 4_444
Ga3 O2 O3 125.6(2) 1_665 4_444
Ga3 O2 O3 29.78(13) 1_655 4_444
O2 O2 O3 116.78(15) 1_556 4_444
O2 O2 O3 63.22(15) 1_554 4_444
O2 O2 O3 95.0(2) 2_455 4_444
O2 O2 O3 131.1(3) 2_565 4_444
O3 O2 O3 95.4(3) 1_554 4_444
Ga2 O2 Ga2 135.0(4) 2_565 1_665
Ga3 O2 Ga2 99.6(3) 2_564 1_665
La O2 Ga2 30.16(13) 2_565 1_665
O2 O2 Ga2 128.15(12) 4_455 1_665
O2 O2 Ga2 95.3(3) 3_565 1_665
O3 O2 Ga2 64.8(3) 2_565 1_665
La O2 Ga2 97.6(2) . 1_665
O2 O2 Ga2 93.8(4) 5_554 1_665
O3 O2 Ga2 102.3(3) 5_445 1_665
O1 O2 Ga2 66.8(2) . 1_665
O3 O2 Ga2 133.9(3) 3_564 1_665
O1 O2 Ga2 148.2(3) 1_554 1_665
O3 O2 Ga2 59.3(2) 3_565 1_665
O1 O2 Ga2 38.3(3) 2_565 1_665
Nb O2 Ga2 70.01(14) . 1_665
Ga1 O2 Ga2 70.01(14) . 1_665
Ga2 O2 Ga2 66.57(13) 1_664 1_665
O2 O2 Ga2 12.65(12) 5 1_665
O3 O2 Ga2 61.0(2) 6_665 1_665
La O2 Ga2 115.2(2) 2_564 1_665
Ga3 O2 Ga2 95.62(17) 4_455 1_665
Ga3 O2 Ga2 116.72(18) 4_445 1_665
O3 O2 Ga2 100.4(2) 4_454 1_665
La O2 Ga2 166.4(2) 1_554 1_665
La O2 Ga2 93.79(16) 4_455 1_665
Ga3 O2 Ga2 37.16(7) 2_565 1_665
Ga3 O2 Ga2 142.4(2) . 1_665
O3 O2 Ga2 97.78(18) 1_654 1_665
O3 O2 Ga2 48.01(16) 4_455 1_665
La O2 Ga2 39.75(7) 4 1_665
Ga2 O2 Ga2 56.79(10) 2_566 1_665
O2 O2 Ga2 157.5(3) 2_454 1_665
O2 O2 Ga2 77.10(16) 2_564 1_665
O3 O2 Ga2 47.36(14) 1_655 1_665
O2 O2 Ga2 138.4(2) 6_554 1_665
Nb O2 Ga2 122.05(16) 1_554 1_665
Ga1 O2 Ga2 122.05(16) 1_554 1_665
O1 O2 Ga2 120.6(2) 2_455 1_665
O3 O2 Ga2 85.39(18) 6_655 1_665
Ga2 O2 Ga2 140.0(2) 1_554 1_665
Ga3 O2 Ga2 69.84(12) 1_665 1_665
Ga3 O2 Ga2 87.38(13) 1_655 1_665
O2 O2 Ga2 41.77(11) 1_556 1_665
O2 O2 Ga2 138.23(10) 1_554 1_665
O2 O2 Ga2 94.9(3) 2_455 1_665
O2 O2 Ga2 20.39(12) 2_565 1_665
O3 O2 Ga2 147.3(2) 1_554 1_665
O3 O2 Ga2 115.92(19) 4_444 1_665
Ga2 O2 O2 117.2(5) 2_565 6_664
Ga3 O2 O2 47.28(17) 2_564 6_664
La O2 O2 79.4(3) 2_565 6_664
O2 O2 O2 155.7(2) 4_455 6_664
O2 O2 O2 108.9(5) 3_565 6_664
O3 O2 O2 53.85(17) 2_565 6_664
La O2 O2 150.8(3) . 6_664
O2 O2 O2 22.3(2) 5_554 6_664
O3 O2 O2 105.4(3) 5_445 6_664
O1 O2 O2 135.4(4) . 6_664
O3 O2 O2 74.9(3) 3_564 6_664
O1 O2 O2 93.1(3) 1_554 6_664
O3 O2 O2 110.2(2) 3_565 6_664
O1 O2 O2 34.5(2) 2_565 6_664
Nb O2 O2 87.11(11) . 6_664
Ga1 O2 O2 87.11(11) . 6_664
Ga2 O2 O2 12.35(11) 1_664 6_664
O2 O2 O2 78.8(3) 5 6_664
O3 O2 O2 67.1(3) 6_665 6_664
La O2 O2 53.5(2) 2_564 6_664
Ga3 O2 O2 89.7(3) 4_455 6_664
Ga3 O2 O2 95.93(19) 4_445 6_664
O3 O2 O2 68.8(3) 4_454 6_664
La O2 O2 97.5(3) 1_554 6_664
La O2 O2 137.9(3) 4_455 6_664
Ga3 O2 O2 98.94(18) 2_565 6_664
Ga3 O2 O2 144.4(3) . 6_664
O3 O2 O2 46.04(14) 1_654 6_664
O3 O2 O2 95.0(3) 4_455 6_664
La O2 O2 47.50(7) 4 6_664
Ga2 O2 O2 127.8(3) 2_566 6_664
O2 O2 O2 128.7(4) 2_454 6_664
O2 O2 O2 32.49(19) 2_564 6_664
O3 O2 O2 75.69(15) 1_655 6_664
O2 O2 O2 107.6(3) 6_554 6_664
Nb O2 O2 63.90(16) 1_554 6_664
Ga1 O2 O2 63.90(16) 1_554 6_664
O1 O2 O2 141.6(3) 2_455 6_664
O3 O2 O2 77.50(15) 6_655 6_664
Ga2 O2 O2 129.1(3) 1_554 6_664
Ga3 O2 O2 51.6(2) 1_665 6_664
Ga3 O2 O2 58.04(9) 1_655 6_664
O2 O2 O2 112.42(19) 1_556 6_664
O2 O2 O2 67.58(19) 1_554 6_664
O2 O2 O2 159.2(3) 2_455 6_664
O2 O2 O2 68.00(11) 2_565 6_664
O3 O2 O2 127.6(3) 1_554 6_664
O3 O2 O2 77.87(19) 4_444 6_664
Ga2 O2 O2 71.52(17) 1_665 6_664
Ga2 O2 O2 25.36(13) 2_565 6_564
Ga3 O2 O2 123.1(4) 2_564 6_564
La O2 O2 83.4(3) 2_565 6_564
O2 O2 O2 60.19(15) 4_455 6_564
O2 O2 O2 22.55(19) 3_565 6_564
O3 O2 O2 154.6(4) 2_565 6_564
La O2 O2 108.26(19) . 6_564
O2 O2 O2 91.5(3) 5_554 6_564
O3 O2 O2 140.8(3) 5_445 6_564
O1 O2 O2 82.2(2) . 6_564
O3 O2 O2 103.2(3) 3_564 6_564
O1 O2 O2 40.73(18) 1_554 6_564
O3 O2 O2 141.6(3) 3_565 6_564
O1 O2 O2 103.4(3) 2_565 6_564
Nb O2 O2 172.0(3) . 6_564
Ga1 O2 O2 172.0(3) . 6_564
Ga2 O2 O2 92.3(3) 1_664 6_564
O2 O2 O2 123.1(2) 5 6_564
O3 O2 O2 56.0(2) 6_665 6_564
La O2 O2 56.4(2) 2_564 6_564
Ga3 O2 O2 18.79(12) 4_455 6_564
Ga3 O2 O2 129.9(3) 4_445 6_564
O3 O2 O2 32.1(2) 4_454 6_564
La O2 O2 75.9(2) 1_554 6_564
La O2 O2 48.09(7) 4_455 6_564
Ga3 O2 O2 132.6(3) 2_565 6_564
Ga3 O2 O2 60.78(9) . 6_564
O3 O2 O2 124.1(3) 1_654 6_564
O3 O2 O2 68.2(2) 4_455 6_564
La O2 O2 138.3(3) 4 6_564
Ga2 O2 O2 93.44(18) 2_566 6_564
O2 O2 O2 75.7(2) 2_454 6_564
O2 O2 O2 69.7(3) 2_564 6_564
O3 O2 O2 160.7(3) 1_655 6_564
O2 O2 O2 107.6(3) 6_554 6_564
Nb O2 O2 109.8(3) 1_554 6_564
Ga1 O2 O2 109.8(3) 1_554 6_564
O1 O2 O2 105.39(19) 2_455 6_564
O3 O2 O2 159.9(3) 6_655 6_564
Ga2 O2 O2 97.08(18) 1_554 6_564
Ga3 O2 O2 58.0(2) 1_665 6_564
Ga3 O2 O2 145.2(3) 1_655 6_564
O2 O2 O2 112.42(19) 1_556 6_564
O2 O2 O2 67.58(19) 1_554 6_564
O2 O2 O2 99.03(16) 2_455 6_564
O2 O2 O2 93.9(3) 2_565 6_564
O3 O2 O2 43.53(14) 1_554 6_564
O3 O2 O2 127.0(3) 4_444 6_564
Ga2 O2 O2 113.4(3) 1_665 6_564
O2 O2 O2 100.9(3) 6_664 6_564
Ga2 O2 O2 110.0(3) 2_565 6
Ga3 O2 O2 95.0(3) 2_564 6
La O2 O2 105.1(3) 2_565 6
O2 O2 O2 70.6(3) 4_455 6
O2 O2 O2 118.7(2) 3_565 6
O3 O2 O2 75.7(3) 2_565 6
La O2 O2 21.30(17) . 6
O2 O2 O2 134.09(6) 5_554 6
O3 O2 O2 34.0(2) 5_445 6
O1 O2 O2 64.3(2) . 6
O3 O2 O2 90.0(3) 3_564 6
O1 O2 O2 122.3(3) 1_554 6
O3 O2 O2 28.76(19) 3_565 6
O1 O2 O2 118.6(3) 2_565 6
Nb O2 O2 42.46(15) . 6
Ga1 O2 O2 42.46(15) . 6
Ga2 O2 O2 137.62(15) 1_664 6
O2 O2 O2 75.3(3) 5 6
O3 O2 O2 139.6(3) 6_665 6
La O2 O2 152.8(3) 2_564 6
Ga3 O2 O2 138.93(16) 4_455 6
Ga3 O2 O2 52.90(16) 4_445 6
O3 O2 O2 161.67(17) 4_454 6
La O2 O2 93.6(2) 1_554 6
La O2 O2 87.28(15) 4_455 6
Ga3 O2 O2 50.61(15) 2_565 6
Ga3 O2 O2 74.48(15) . 6
O3 O2 O2 95.2(2) 1_654 6
O3 O2 O2 104.3(3) 4_455 6
La O2 O2 87.40(14) 4 6
Ga2 O2 O2 59.51(17) 2_566 6
O2 O2 O2 71.54(18) 2_454 6
O2 O2 O2 159.8(2) 2_564 6
O3 O2 O2 57.44(16) 1_655 6
O2 O2 O2 60.1(2) 6_554 6
Nb O2 O2 93.2(2) 1_554 6
Ga1 O2 O2 93.2(2) 1_554 6
O1 O2 O2 33.38(19) 2_455 6
O3 O2 O2 54.84(16) 6_655 6
Ga2 O2 O2 52.32(16) 1_554 6
Ga3 O2 O2 156.2(3) 1_665 6
Ga3 O2 O2 76.09(14) 1_655 6
O2 O2 O2 54.7(2) 1_556 6
O2 O2 O2 125.3(2) 1_554 6
O2 O2 O2 31.38(18) 2_455 6
O2 O2 O2 105.4(3) 2_565 6
O3 O2 O2 94.45(18) 1_554 6
O3 O2 O2 70.83(19) 4_444 6
Ga2 O2 O2 87.7(2) 1_665 6
O2 O2 O2 129.56(17) 6_664 6
O2 O2 O2 129.55(17) 6_564 6
Ga2 O2 O3 55.8(3) 2_565 5_455
Ga3 O2 O3 135.9(4) 2_564 5_455
La O2 O3 50.55(18) 2_565 5_455
O2 O2 O3 78.3(3) 4_455 5_455
O2 O2 O3 18.6(3) 3_565 5_455
O3 O2 O3 137.5(3) 2_565 5_455
La O2 O3 111.9(3) . 5_455
O2 O2 O3 96.42(15) 5_554 5_455
O3 O2 O3 161.1(4) 5_445 5_455
O1 O2 O3 65.4(2) . 5_455
O3 O2 O3 132.4(3) 3_564 5_455
O1 O2 O3 72.5(2) 1_554 5_455
O3 O2 O3 121.0(3) 3_565 5_455
O1 O2 O3 79.29(18) 2_565 5_455
Nb O2 O3 148.9(2) . 5_455
Ga1 O2 O3 148.9(2) . 5_455
Ga2 O2 O3 81.34(19) 1_664 5_455
O2 O2 O3 90.29(14) 5 5_455
O3 O2 O3 29.2(2) 6_665 5_455
La O2 O3 72.10(18) 2_564 5_455
Ga3 O2 O3 17.43(11) 4_455 5_455
Ga3 O2 O3 162.2(2) 4_445 5_455
O3 O2 O3 38.7(2) 4_454 5_455
La O2 O3 108.6(2) 1_554 5_455
La O2 O3 44.77(13) 4_455 5_455
Ga3 O2 O3 103.7(2) 2_565 5_455
Ga3 O2 O3 85.23(16) . 5_455
O3 O2 O3 135.5(2) 1_654 5_455
O3 O2 O3 36.4(2) 4_455 5_455
La O2 O3 111.5(2) 4 5_455
Ga2 O2 O3 72.86(16) 2_566 5_455
O2 O2 O3 105.2(3) 2_454 5_455
O2 O2 O3 62.2(2) 2_564 5_455
O3 O2 O3 127.8(2) 1_655 5_455
O2 O2 O3 139.56(18) 6_554 5_455
Nb O2 O3 134.7(2) 1_554 5_455
Ga1 O2 O3 134.7(2) 1_554 5_455
O1 O2 O3 123.6(2) 2_455 5_455
O3 O2 O3 165.2(2) 6_655 5_455
Ga2 O2 O3 124.34(19) 1_554 5_455
Ga3 O2 O3 41.69(12) 1_665 5_455
Ga3 O2 O3 151.2(2) 1_655 5_455
O2 O2 O3 86.60(14) 1_556 5_455
O2 O2 O3 93.40(14) 1_554 5_455
O2 O2 O3 100.1(3) 2_455 5_455
O2 O2 O3 61.62(18) 2_565 5_455
O3 O2 O3 72.72(19) 1_554 5_455
O3 O2 O3 156.6(2) 4_444 5_455
Ga2 O2 O3 80.61(15) 1_665 5_455
O2 O2 O3 93.3(3) 6_664 5_455
O2 O2 O3 32.88(17) 6_564 5_455
O2 O2 O3 128.9(2) 6 5_455
Ga2 O2 Ga1 77.2(3) 2_565 1_565
Ga3 O2 Ga1 130.3(4) 2_564 1_565
La O2 Ga1 29.77(14) 2_565 1_565
O2 O2 Ga1 95.2(3) 4_455 1_565
O2 O2 Ga1 38.7(3) 3_565 1_565
O3 O2 Ga1 117.6(3) 2_565 1_565
La O2 Ga1 115.2(2) . 1_565
O2 O2 Ga1 93.73(15) 5_554 1_565
O3 O2 Ga1 157.0(3) 5_445 1_565
O1 O2 Ga1 62.66(16) . 1_565
O3 O2 Ga1 144.7(3) 3_564 1_565
O1 O2 Ga1 91.9(2) 1_554 1_565
O3 O2 Ga1 107.3(3) 3_565 1_565
O1 O2 Ga1 61.03(15) 2_565 1_565
Nb O2 Ga1 129.1(2) . 1_565
Ga1 O2 Ga1 129.1(2) . 1_565
Ga2 O2 Ga1 70.80(15) 1_664 1_565
O2 O2 Ga1 69.83(9) 5 1_565
O3 O2 Ga1 16.89(13) 6_665 1_565
La O2 Ga1 80.88(16) 2_564 1_565
Ga3 O2 Ga1 36.50(8) 4_455 1_565
Ga3 O2 Ga1 176.2(2) 4_445 1_565
O3 O2 Ga1 49.85(16) 4_454 1_565
La O2 Ga1 128.64(19) 1_554 1_565
La O2 Ga1 56.26(11) 4_455 1_565
Ga3 O2 Ga1 86.62(15) 2_565 1_565
Ga3 O2 Ga1 104.48(16) . 1_565
O3 O2 Ga1 129.1(2) 1_654 1_565
O3 O2 Ga1 21.17(11) 4_455 1_565
La O2 Ga1 90.88(16) 4 1_565
Ga2 O2 Ga1 65.73(12) 2_566 1_565
O2 O2 Ga1 126.0(3) 2_454 1_565
O2 O2 Ga1 57.43(17) 2_564 1_565
O3 O2 Ga1 106.8(2) 1_655 1_565
O2 O2 Ga1 160.91(14) 6_554 1_565
Nb O2 Ga1 140.8(2) 1_554 1_565
Ga1 O2 Ga1 140.8(2) 1_554 1_565
O1 O2 Ga1 135.2(2) 2_455 1_565
O3 O2 Ga1 143.9(2) 6_655 1_565
Ga2 O2 Ga1 142.95(17) 1_554 1_565
Ga3 O2 Ga1 35.68(7) 1_665 1_565
Ga3 O2 Ga1 136.20(19) 1_655 1_565
O2 O2 Ga1 73.32(10) 1_556 1_565
O2 O2 Ga1 106.68(10) 1_554 1_565
O2 O2 Ga1 103.9(2) 2_455 1_565
O2 O2 Ga1 40.17(14) 2_565 1_565
O3 O2 Ga1 93.86(18) 1_554 1_565
O3 O2 Ga1 160.8(2) 4_444 1_565
Ga2 O2 Ga1 59.46(10) 1_665 1_565
O2 O2 Ga1 83.1(2) 6_664 1_565
O2 O2 Ga1 53.95(18) 6_564 1_565
O2 O2 Ga1 125.2(3) 6 1_565
O3 O2 Ga1 21.45(9) 5_455 1_565
Ga2 O2 Nb 77.2(3) 2_565 1_565
Ga3 O2 Nb 130.3(4) 2_564 1_565
La O2 Nb 29.77(14) 2_565 1_565
O2 O2 Nb 95.2(3) 4_455 1_565
O2 O2 Nb 38.7(3) 3_565 1_565
O3 O2 Nb 117.6(3) 2_565 1_565
La O2 Nb 115.2(2) . 1_565
O2 O2 Nb 93.73(15) 5_554 1_565
O3 O2 Nb 157.0(3) 5_445 1_565
O1 O2 Nb 62.66(16) . 1_565
O3 O2 Nb 144.7(3) 3_564 1_565
O1 O2 Nb 91.9(2) 1_554 1_565
O3 O2 Nb 107.3(3) 3_565 1_565
O1 O2 Nb 61.03(15) 2_565 1_565
Nb O2 Nb 129.1(2) . 1_565
Ga1 O2 Nb 129.1(2) . 1_565
Ga2 O2 Nb 70.80(15) 1_664 1_565
O2 O2 Nb 69.83(9) 5 1_565
O3 O2 Nb 16.89(13) 6_665 1_565
La O2 Nb 80.88(16) 2_564 1_565
Ga3 O2 Nb 36.50(8) 4_455 1_565
Ga3 O2 Nb 176.2(2) 4_445 1_565
O3 O2 Nb 49.85(16) 4_454 1_565
La O2 Nb 128.64(19) 1_554 1_565
La O2 Nb 56.26(11) 4_455 1_565
Ga3 O2 Nb 86.62(15) 2_565 1_565
Ga3 O2 Nb 104.48(16) . 1_565
O3 O2 Nb 129.1(2) 1_654 1_565
O3 O2 Nb 21.17(11) 4_455 1_565
La O2 Nb 90.88(16) 4 1_565
Ga2 O2 Nb 65.73(12) 2_566 1_565
O2 O2 Nb 126.0(3) 2_454 1_565
O2 O2 Nb 57.43(17) 2_564 1_565
O3 O2 Nb 106.8(2) 1_655 1_565
O2 O2 Nb 160.91(14) 6_554 1_565
Nb O2 Nb 140.8(2) 1_554 1_565
Ga1 O2 Nb 140.8(2) 1_554 1_565
O1 O2 Nb 135.2(2) 2_455 1_565
O3 O2 Nb 143.9(2) 6_655 1_565
Ga2 O2 Nb 142.95(17) 1_554 1_565
Ga3 O2 Nb 35.68(7) 1_665 1_565
Ga3 O2 Nb 136.20(19) 1_655 1_565
O2 O2 Nb 73.32(10) 1_556 1_565
O2 O2 Nb 106.68(10) 1_554 1_565
O2 O2 Nb 103.9(2) 2_455 1_565
O2 O2 Nb 40.17(14) 2_565 1_565
O3 O2 Nb 93.86(18) 1_554 1_565
O3 O2 Nb 160.8(2) 4_444 1_565
Ga2 O2 Nb 59.46(10) 1_665 1_565
O2 O2 Nb 83.1(2) 6_664 1_565
O2 O2 Nb 53.95(18) 6_564 1_565
O2 O2 Nb 125.2(3) 6 1_565
O3 O2 Nb 21.45(9) 5_455 1_565
Ga1 O2 Nb 0.0 1_565 1_565
Ga2 O2 La 14.7(2) 2_565 4_454
Ga3 O2 La 105.7(3) 2_564 4_454
La O2 La 109.5(3) 2_565 4_454
O2 O2 La 52.49(14) 4_455 4_454
O2 O2 La 46.69(11) 3_565 4_454
O3 O2 La 145.2(3) 2_565 4_454
La O2 La 101.9(2) . 4_454
O2 O2 La 86.4(3) 5_554 4_454
O3 O2 La 117.5(3) 5_445 4_454
O1 O2 La 97.8(2) . 4_454
O3 O2 La 78.9(2) 3_564 4_454
O1 O2 La 17.16(16) 1_554 4_454
O3 O2 La 145.9(3) 3_565 4_454
O1 O2 La 120.5(3) 2_565 4_454
Nb O2 La 150.6(2) . 4_454
Ga1 O2 La 150.6(2) . 4_454
Ga2 O2 La 99.9(2) 1_664 4_454
O2 O2 La 149.20(12) 5 4_454
O3 O2 La 79.6(2) 6_665 4_454
La O2 La 50.50(10) 2_564 4_454
Ga3 O2 La 43.71(8) 4_455 4_454
Ga3 O2 La 103.92(17) 4_445 4_454
O3 O2 La 44.63(16) 4_454 4_454
La O2 La 49.83(9) 1_554 4_454
La O2 La 62.09(10) 4_455 4_454
Ga3 O2 La 152.0(2) 2_565 4_454
Ga3 O2 La 46.08(8) . 4_454
O3 O2 La 107.1(2) 1_654 4_454
O3 O2 La 94.02(19) 4_455 4_454
La O2 La 150.9(2) 4 4_454
Ga2 O2 La 110.23(16) 2_566 4_454
O2 O2 La 53.33(19) 2_454 4_454
O2 O2 La 79.4(3) 2_564 4_454
O3 O2 La 173.0(3) 1_655 4_454
O2 O2 La 82.19(17) 6_554 4_454
Nb O2 La 87.49(14) 1_554 4_454
Ga1 O2 La 87.49(14) 1_554 4_454
O1 O2 La 88.91(18) 2_455 4_454
O3 O2 La 134.1(2) 6_655 4_454
Ga2 O2 La 75.21(12) 1_554 4_454
Ga3 O2 La 76.01(13) 1_665 4_454
Ga3 O2 La 125.37(18) 1_655 4_454
O2 O2 La 131.27(10) 1_556 4_454
O2 O2 La 48.73(10) 1_554 4_454
O2 O2 La 96.92(18) 2_455 4_454
O2 O2 La 119.3(2) 2_565 4_454
O3 O2 La 26.10(11) 1_554 4_454
O3 O2 La 101.7(2) 4_444 4_454
Ga2 O2 La 139.31(19) 1_665 4_454
O2 O2 La 103.7(3) 6_664 4_454
O2 O2 La 26.16(11) 6_564 4_454
O2 O2 La 120.50(17) 6 4_454
O3 O2 La 59.03(13) 5_455 4_454
Ga1 O2 La 79.91(12) 1_565 4_454
Nb O2 La 79.91(12) 1_565 4_454
Ga2 O2 O3 61.3(3) 2_565 .
Ga3 O2 O3 151.6(4) 2_564 .
La O2 O3 82.9(2) 2_565 .
O2 O2 O3 32.04(13) 4_455 .
O2 O2 O3 56.8(2) 3_565 .
O3 O2 O3 134.5(3) 2_565 .
La O2 O3 42.29(16) . .
O2 O2 O3 161.5(3) 5_554 .
O3 O2 O3 91.1(3) 5_445 .
O1 O2 O3 29.37(18) . .
O3 O2 O3 122.8(3) 3_564 .
O1 O2 O3 90.4(2) 1_554 .
O3 O2 O3 73.2(2) 3_565 .
O1 O2 O3 129.3(3) 2_565 .
Nb O2 O3 102.5(2) . .
Ga1 O2 O3 102.5(2) . .
Ga2 O2 O3 148.9(3) 1_664 .
O2 O2 O3 91.9(3) 5 .
O3 O2 O3 94.5(2) 6_665 .
La O2 O3 125.0(2) 2_564 .
Ga3 O2 O3 76.94(16) 4_455 .
Ga3 O2 O3 102.6(2) 4_445 .
O3 O2 O3 100.53(16) 4_454 .
La O2 O3 96.47(18) 1_554 .
La O2 O3 25.59(11) 4_455 .
Ga3 O2 O3 77.25(17) 2_565 .
Ga3 O2 O3 46.21(12) . .
O3 O2 O3 152.7(3) 1_654 .
O3 O2 O3 66.27(17) 4_455 .
La O2 O3 129.3(2) 4 .
Ga2 O2 O3 39.92(12) 2_566 .
O2 O2 O3 66.68(19) 2_454 .
O2 O2 O3 132.2(3) 2_564 .
O3 O2 O3 107.0(3) 1_655 .
O2 O2 O3 91.2(2) 6_554 .
Nb O2 O3 134.4(2) 1_554 .
Ga1 O2 O3 134.4(2) 1_554 .
O1 O2 O3 57.06(17) 2_455 .
O3 O2 O3 116.7(2) 6_655 .
Ga2 O2 O3 69.54(16) 1_554 .
Ga3 O2 O3 111.16(19) 1_665 .
Ga3 O2 O3 137.7(2) 1_655 .
O2 O2 O3 59.28(13) 1_556 .
O2 O2 O3 120.72(13) 1_554 .
O2 O2 O3 30.83(16) 2_455 .
O2 O2 O3 95.3(3) 2_565 .
O3 O2 O3 57.37(12) 1_554 .
O3 O2 O3 121.0(2) 4_444 .
Ga2 O2 O3 96.14(18) 1_665 .
O2 O2 O3 161.0(3) 6_664 .
O2 O2 O3 70.24(13) 6_564 .
O2 O2 O3 62.01(15) 6 .
O3 O2 O3 70.02(18) 5_455 .
Ga1 O2 O3 78.13(16) 1_565 .
Nb O2 O3 78.13(16) 1_565 .
La O2 O3 75.98(14) 4_454 .
Ga2 O2 O3 138.4(4) 2_565 4_445
Ga3 O2 O3 71.6(3) 2_564 4_445
La O2 O3 100.6(3) 2_565 4_445
O2 O2 O3 100.4(4) 4_455 4_445
O2 O2 O3 144.8(2) 3_565 4_445
O3 O2 O3 45.4(3) 2_565 4_445
La O2 O3 51.75(17) . 4_445
O2 O2 O3 107.1(2) 5_554 4_445
O3 O2 O3 29.1(3) 5_445 4_445
O1 O2 O3 83.8(3) . 4_445
O3 O2 O3 81.8(2) 3_564 4_445
O1 O2 O3 137.8(3) 1_554 4_445
O3 O2 O3 24.91(16) 3_565 4_445
O1 O2 O3 93.2(2) 2_565 4_445
Nb O2 O3 12.07(11) . 4_445
Ga1 O2 O3 12.07(11) . 4_445
Ga2 O2 O3 107.5(2) 1_664 4_445
O2 O2 O3 61.44(16) 5 4_445
O3 O2 O3 134.5(2) 6_665 4_445
La O2 O3 139.6(2) 2_564 4_445
Ga3 O2 O3 162.7(2) 4_455 4_445
Ga3 O2 O3 46.91(14) 4_445 4_445
O3 O2 O3 167.8(3) 4_454 4_445
La O2 O3 101.3(2) 1_554 4_445
La O2 O3 114.5(2) 4_455 4_445
Ga3 O2 O3 43.00(14) 2_565 4_445
Ga3 O2 O3 101.9(2) . 4_445
O3 O2 O3 71.12(12) 1_654 4_445
O3 O2 O3 110.3(3) 4_455 4_445
La O2 O3 59.10(14) 4 4_445
Ga2 O2 O3 74.30(17) 2_566 4_445
O2 O2 O3 91.6(2) 2_454 4_445
O2 O2 O3 130.1(3) 2_564 4_445
O3 O2 O3 30.50(16) 1_655 4_445
O2 O2 O3 65.6(2) 6_554 4_445
Nb O2 O3 78.99(16) 1_554 4_445
Ga1 O2 O3 78.99(16) 1_554 4_445
O1 O2 O3 57.22(18) 2_455 4_445
O3 O2 O3 29.6(2) 6_655 4_445
Ga2 O2 O3 69.73(16) 1_554 4_445
Ga3 O2 O3 138.7(2) 1_665 4_445
Ga3 O2 O3 49.97(13) 1_655 4_445
O2 O2 O3 59.14(14) 1_556 4_445
O2 O2 O3 120.86(14) 1_554 4_445
O2 O2 O3 61.1(2) 2_455 4_445
O2 O2 O3 93.8(3) 2_565 4_445
O3 O2 O3 121.0(2) 1_554 4_445
O3 O2 O3 57.65(12) 4_444 4_445
Ga2 O2 O3 73.42(16) 1_665 4_445
O2 O2 O3 99.14(16) 6_664 4_445
O2 O2 O3 160.0(3) 6_564 4_445
O2 O2 O3 30.46(14) 6 4_445
O3 O2 O3 145.73(19) 5_455 4_445
Ga1 O2 O3 129.5(2) 1_565 4_445
Nb O2 O3 129.5(2) 1_565 4_445
La O2 O3 144.9(2) 4_454 4_445
O3 O2 O3 90.7(2) . 4_445
Ga2 O2 O3 33.1(2) 2_565 2_465
Ga3 O2 O3 142.0(4) 2_564 2_465
La O2 O3 95.5(3) 2_565 2_465
O2 O2 O3 17.7(3) 4_455 2_465
O2 O2 O3 42.7(3) 3_565 2_465
O3 O2 O3 158.2(4) 2_565 2_465
La O2 O3 61.39(16) . 2_465
O2 O2 O3 134.0(4) 5_554 2_465
O3 O2 O3 102.3(2) 5_445 2_465
O1 O2 O3 54.0(2) . 2_465
O3 O2 O3 107.2(3) 3_564 2_465
O1 O2 O3 62.2(2) 1_554 2_465
O3 O2 O3 100.2(2) 3_565 2_465
O1 O2 O3 138.6(3) 2_565 2_465
Nb O2 O3 125.1(2) . 2_465
Ga1 O2 O3 125.1(2) . 2_465
Ga2 O2 O3 138.7(2) 1_664 2_465
O2 O2 O3 117.3(3) 5 2_465
O3 O2 O3 89.95(17) 6_665 2_465
La O2 O3 97.57(19) 2_564 2_465
Ga3 O2 O3 59.66(14) 4_455 2_465
Ga3 O2 O3 104.8(2) 4_445 2_465
O3 O2 O3 79.0(2) 4_454 2_465
La O2 O3 75.52(16) 1_554 2_465
La O2 O3 25.11(12) 4_455 2_465
Ga3 O2 O3 105.5(2) 2_565 2_465
Ga3 O2 O3 28.38(11) . 2_465
O3 O2 O3 143.9(2) 1_654 2_465
O3 O2 O3 75.7(2) 4_455 2_465
La O2 O3 156.3(2) 4 2_465
Ga2 O2 O3 66.08(15) 2_566 2_465
O2 O2 O3 52.01(19) 2_454 2_465
O2 O2 O3 116.2(3) 2_564 2_465
O3 O2 O3 134.7(2) 1_655 2_465
O2 O2 O3 85.43(14) 6_554 2_465
Nb O2 O3 119.5(2) 1_554 2_465
Ga1 O2 O3 119.5(2) 1_554 2_465
O1 O2 O3 63.41(13) 2_455 2_465
O3 O2 O3 131.6(3) 6_655 2_465
Ga2 O2 O3 65.31(14) 1_554 2_465
Ga3 O2 O3 100.49(18) 1_665 2_465
Ga3 O2 O3 146.2(2) 1_655 2_465
O2 O2 O3 86.66(14) 1_556 2_465
O2 O2 O3 93.34(14) 1_554 2_465
O2 O2 O3 52.67(15) 2_455 2_465
O2 O2 O3 109.6(3) 2_565 2_465
O3 O2 O3 30.9(2) 1_554 2_465
O3 O2 O3 117.8(2) 4_444 2_465
Ga2 O2 O3 118.1(2) 1_665 2_465
O2 O2 O3 147.7(3) 6_664 2_465
O2 O2 O3 46.87(10) 6_564 2_465
O2 O2 O3 82.69(13) 6 2_465
O3 O2 O3 60.8(2) 5_455 2_465
Ga1 O2 O3 77.64(15) 1_565 2_465
Nb O2 O3 77.64(15) 1_565 2_465
La O2 O3 47.70(12) 4_454 2_465
O3 O2 O3 28.35(18) . 2_465
O3 O2 O3 113.1(2) 4_445 2_465
Ga2 O2 O3 50.4(3) 2_565 6
Ga3 O2 O3 121.2(4) 2_564 6
La O2 O3 116.5(3) 2_565 6
O2 O2 O3 11.9(3) 4_455 6
O2 O2 O3 71.5(3) 3_565 6
O3 O2 O3 130.7(3) 2_565 6
La O2 O3 39.94(15) . 6
O2 O2 O3 138.5(4) 5_554 6
O3 O2 O3 73.7(3) 5_445 6
O1 O2 O3 62.5(2) . 6
O3 O2 O3 89.1(3) 3_564 6
O1 O2 O3 69.7(2) 1_554 6
O3 O2 O3 84.2(3) 3_565 6
O1 O2 O3 163.1(3) 2_565 6
Nb O2 O3 100.1(2) . 6
Ga1 O2 O3 100.1(2) . 6
Ga2 O2 O3 161.8(2) 1_664 6
O2 O2 O3 120.2(4) 5 6
O3 O2 O3 118.6(2) 6_665 6
La O2 O3 110.0(2) 2_564 6
Ga3 O2 O3 87.37(16) 4_455 6
Ga3 O2 O3 76.86(16) 4_445 6
O3 O2 O3 103.0(2) 4_454 6
La O2 O3 63.72(15) 1_554 6
La O2 O3 49.25(12) 4_455 6
Ga3 O2 O3 98.8(2) 2_565 6
Ga3 O2 O3 17.18(11) . 6
O3 O2 O3 122.9(2) 1_654 6
O3 O2 O3 98.5(2) 4_455 6
La O2 O3 146.9(2) 4 6
Ga2 O2 O3 71.13(16) 2_566 6
O2 O2 O3 32.97(17) 2_454 6
O2 O2 O3 140.6(3) 2_564 6
O3 O2 O3 116.9(2) 1_655 6
O2 O2 O3 59.92(13) 6_554 6
Nb O2 O3 101.09(18) 1_554 6
Ga1 O2 O3 101.09(18) 1_554 6
O1 O2 O3 34.84(11) 2_455 6
O3 O2 O3 103.0(2) 6_655 6
Ga2 O2 O3 38.41(11) 1_554 6
Ga3 O2 O3 128.69(18) 1_665 6
Ga3 O2 O3 118.12(19) 1_655 6
O2 O2 O3 86.70(14) 1_556 6
O2 O2 O3 93.30(14) 1_554 6
O2 O2 O3 36.39(14) 2_455 6
O2 O2 O3 129.2(3) 2_565 6
O3 O2 O3 36.2(2) 1_554 6
O3 O2 O3 92.14(19) 4_444 6
Ga2 O2 O3 127.7(2) 1_665 6
O2 O2 O3 160.8(3) 6_664 6
O2 O2 O3 71.95(14) 6_564 6
O2 O2 O3 59.62(14) 6 6
O3 O2 O3 89.57(14) 5_455 6
Ga1 O2 O3 105.18(16) 1_565 6
Nb O2 O3 105.18(16) 1_565 6
La O2 O3 61.93(13) 4_454 6
O3 O2 O3 33.86(19) . 6
O3 O2 O3 88.9(2) 4_445 6
O3 O2 O3 28.78(16) 2_465 6
Ga2 O2 O3 92.8(3) 2_565 2_564
Ga3 O2 O3 27.2(2) 2_564 2_564
La O2 O3 127.9(3) 2_565 2_564
O2 O2 O3 113.8(2) 4_455 2_564
O2 O2 O3 117.71(18) 3_565 2_564
O3 O2 O3 66.1(3) 2_565 2_564
La O2 O3 123.8(3) . 2_564
O2 O2 O3 29.7(2) 5_554 2_564
O3 O2 O3 80.0(3) 5_445 2_564
O1 O2 O3 175.1(3) . 2_564
O3 O2 O3 27.6(2) 3_564 2_564
O1 O2 O3 62.2(2) 1_554 2_564
O3 O2 O3 121.0(3) 3_565 2_564
O1 O2 O3 83.7(3) 2_565 2_564
Nb O2 O3 88.09(19) . 2_564
Ga1 O2 O3 88.09(19) . 2_564
Ga2 O2 O3 58.71(15) 1_664 2_564
O2 O2 O3 120.9(3) 5 2_564
O3 O2 O3 103.7(3) 6_665 2_564
La O2 O3 43.51(12) 2_564 2_564
Ga3 O2 O3 100.5(2) 4_455 2_564
Ga3 O2 O3 61.36(15) 4_445 2_564
O3 O2 O3 76.83(19) 4_454 2_564
La O2 O3 49.32(13) 1_554 2_564
La O2 O3 141.2(2) 4_455 2_564
Ga3 O2 O3 128.8(2) 2_565 2_564
Ga3 O2 O3 99.59(19) . 2_564
O3 O2 O3 28.4(2) 1_654 2_564
O3 O2 O3 139.1(2) 4_455 2_564
La O2 O3 81.93(16) 4 2_564
Ga2 O2 O3 170.3(2) 2_566 2_564
O2 O2 O3 79.7(3) 2_454 2_564
O2 O2 O3 63.7(2) 2_564 2_564
O3 O2 O3 95.6(2) 1_655 2_564
O2 O2 O3 62.30(19) 6_554 2_564
Nb O2 O3 20.81(9) 1_554 2_564
Ga1 O2 O3 20.81(9) 1_554 2_564
O1 O2 O3 99.7(2) 2_455 2_564
O3 O2 O3 67.22(15) 6_655 2_564
Ga2 O2 O3 81.72(16) 1_554 2_564
Ga3 O2 O3 84.69(17) 1_665 2_564
Ga3 O2 O3 49.03(12) 1_655 2_564
O2 O2 O3 149.64(13) 1_556 2_564
O2 O2 O3 30.36(13) 1_554 2_564
O2 O2 O3 134.0(2) 2_455 2_564
O2 O2 O3 117.4(2) 2_565 2_564
O3 O2 O3 90.8(2) 1_554 2_564
O3 O2 O3 43.12(18) 4_444 2_564
Ga2 O2 O3 118.00(18) 1_665 2_564
O2 O2 O3 49.38(18) 6_664 2_564
O2 O2 O3 96.2(3) 6_564 2_564
O2 O2 O3 113.9(2) 6 2_564
O3 O2 O3 115.4(2) 5_455 2_564
Ga1 O2 O3 120.0(2) 1_565 2_564
Nb O2 O3 120.0(2) 1_565 2_564
La O2 O3 79.09(15) 4_454 2_564
O3 O2 O3 145.8(2) . 2_564
O3 O2 O3 96.6(2) 4_445 2_564
O3 O2 O3 121.7(2) 2_465 2_564
O3 O2 O3 112.6(2) 6 2_564
Ga2 O2 La 110.9(4) 2_565 4_554
Ga3 O2 La 25.4(2) 2_564 4_554
La O2 La 104.9(3) 2_565 4_554
O2 O2 La 138.55(16) 4_455 4_554
O2 O2 La 121.4(3) 3_565 4_554
O3 O2 La 51.4(2) 2_565 4_554
La O2 La 137.1(3) . 4_554
O2 O2 La 14.59(12) 5_554 4_554
O3 O2 La 87.9(3) 5_445 4_554
O1 O2 La 159.9(3) . 4_554
O3 O2 La 49.3(2) 3_564 4_554
O1 O2 La 81.1(2) 1_554 4_554
O3 O2 La 112.8(2) 3_565 4_554
O1 O2 La 59.2(2) 2_565 4_554
Nb O2 La 81.66(15) . 4_554
Ga1 O2 La 81.66(15) . 4_554
Ga2 O2 La 36.74(9) 1_664 4_554
O2 O2 La 97.5(3) 5 4_554
O3 O2 La 89.2(2) 6_665 4_554
La O2 La 48.89(10) 2_564 4_554
Ga3 O2 La 101.20(18) 4_455 4_554
Ga3 O2 La 73.85(13) 4_445 4_554
O3 O2 La 76.74(19) 4_454 4_554
La O2 La 74.28(14) 1_554 4_554
La O2 La 152.5(2) 4_455 4_554
Ga3 O2 La 111.16(16) 2_565 4_554
Ga3 O2 La 124.41(19) . 4_554
O3 O2 La 24.83(13) 1_654 4_554
O3 O2 La 120.3(2) 4_455 4_554
La O2 La 59.67(10) 4 4_554
Ga2 O2 La 149.49(19) 2_566 4_554
O2 O2 La 104.5(3) 2_454 4_554
O2 O2 La 49.48(18) 2_564 4_554
O3 O2 La 80.21(17) 1_655 4_554
O2 O2 La 82.42(17) 6_554 4_554
Nb O2 La 38.40(7) 1_554 4_554
Ga1 O2 La 38.40(7) 1_554 4_554
O1 O2 La 118.3(2) 2_455 4_554
O3 O2 La 64.96(14) 6_655 4_554
Ga2 O2 La 103.61(16) 1_554 4_554
Ga3 O2 La 71.29(12) 1_665 4_554
Ga3 O2 La 43.65(7) 1_655 4_554
O2 O2 La 129.81(9) 1_556 4_554
O2 O2 La 50.19(9) 1_554 4_554
O2 O2 La 149.0(3) 2_455 4_554
O2 O2 La 93.12(14) 2_565 4_554
O3 O2 La 113.5(2) 1_554 4_554
O3 O2 La 54.78(13) 4_444 4_554
Ga2 O2 La 93.24(14) 1_665 4_554
O2 O2 La 25.62(11) 6_664 4_554
O2 O2 La 105.0(2) 6_564 4_554
O2 O2 La 119.51(16) 6 4_554
O3 O2 La 110.7(2) 5_455 4_554
Ga1 O2 La 106.01(17) 1_565 4_554
Nb O2 La 106.01(17) 1_565 4_554
La O2 La 96.21(15) 4_454 4_554
O3 O2 La 170.6(2) . 4_554
O3 O2 La 92.94(16) 4_445 4_554
O3 O2 La 143.3(2) 2_465 4_554
O3 O2 La 137.5(2) 6 4_554
O3 O2 La 24.98(10) 2_564 4_554
Ga2 O2 O3 78.6(3) 2_565 5_444
Ga3 O2 O3 42.8(2) 2_564 5_444
La O2 O3 155.8(3) 2_565 5_444
O2 O2 O3 87.7(2) 4_455 5_444
O2 O2 O3 115.10(14) 3_565 5_444
O3 O2 O3 79.8(3) 2_565 5_444
La O2 O3 98.8(2) . 5_444
O2 O2 O3 57.8(3) 5_554 5_444
O3 O2 O3 65.3(2) 5_445 5_444
O1 O2 O3 146.8(3) . 5_444
O3 O2 O3 10.2(2) 3_564 5_444
O1 O2 O3 52.42(19) 1_554 5_444
O3 O2 O3 114.7(3) 3_565 5_444
O1 O2 O3 112.0(3) 2_565 5_444
Nb O2 O3 87.5(2) . 5_444
Ga1 O2 O3 87.5(2) . 5_444
Ga2 O2 O3 87.1(2) 1_664 5_444
O2 O2 O3 140.0(2) 5 5_444
O3 O2 O3 124.8(3) 6_665 5_444
La O2 O3 57.40(16) 2_564 5_444
Ga3 O2 O3 105.6(2) 4_455 5_444
Ga3 O2 O3 45.27(14) 4_445 5_444
O3 O2 O3 87.9(2) 4_454 5_444
La O2 O3 23.95(9) 1_554 5_444
La O2 O3 123.71(19) 4_455 5_444
Ga3 O2 O3 133.3(2) 2_565 5_444
Ga3 O2 O3 73.45(15) . 5_444
O3 O2 O3 44.7(2) 1_654 5_444
O3 O2 O3 158.6(2) 4_455 5_444
La O2 O3 102.88(18) 4 5_444
Ga2 O2 O3 151.6(2) 2_566 5_444
O2 O2 O3 51.8(2) 2_454 5_444
O2 O2 O3 88.6(3) 2_564 5_444
O3 O2 O3 104.5(3) 1_655 5_444
O2 O2 O3 36.81(18) 6_554 5_444
Nb O2 O3 20.58(9) 1_554 5_444
Ga1 O2 O3 20.58(9) 1_554 5_444
O1 O2 O3 73.3(2) 2_455 5_444
O3 O2 O3 66.91(14) 6_655 5_444
Ga2 O2 O3 53.89(13) 1_554 5_444
Ga3 O2 O3 107.0(2) 1_665 5_444
Ga3 O2 O3 57.60(14) 1_655 5_444
O2 O2 O3 149.00(15) 1_556 5_444
O2 O2 O3 31.00(15) 1_554 5_444
O2 O2 O3 107.27(19) 2_455 5_444
O2 O2 O3 145.8(2) 2_565 5_444
O3 O2 O3 69.87(17) 1_554 5_444
O3 O2 O3 34.3(2) 4_444 5_444
Ga2 O2 O3 142.43(19) 1_665 5_444
O2 O2 O3 77.8(2) 6_664 5_444
O2 O2 O3 93.0(2) 6_564 5_444
O2 O2 O3 95.6(3) 6 5_444
O3 O2 O3 123.0(3) 5_455 5_444
Ga1 O2 O3 137.7(2) 1_565 5_444
Nb O2 O3 137.7(2) 1_565 5_444
La O2 O3 68.65(14) 4_454 5_444
O3 O2 O3 118.5(2) . 5_444
O3 O2 O3 90.9(2) 4_445 5_444
O3 O2 O3 99.44(17) 2_465 5_444
O3 O2 O3 84.69(17) 6 5_444
O3 O2 O3 28.49(17) 2_564 5_444
La O2 O3 52.80(12) 4_554 5_444
Ga2 O2 O1 88.5(3) 2_565 2_564
Ga3 O2 O1 49.9(3) 2_564 2_564
La O2 O1 98.1(3) 2_565 2_564
O2 O2 O1 124.88(14) 4_455 2_564
O2 O2 O1 94.9(3) 3_565 2_564
O3 O2 O1 76.8(3) 2_565 2_564
La O2 O1 156.4(3) . 2_564
O2 O2 O1 12.9(2) 5_554 2_564
O3 O2 O1 111.1(3) 5_445 2_564
O1 O2 O1 150.0(3) . 2_564
O3 O2 O1 59.8(3) 3_564 2_564
O1 O2 O1 62.18(16) 1_554 2_564
O3 O2 O1 138.1(3) 3_565 2_564
O1 O2 O1 61.83(19) 2_565 2_564
Nb O2 O1 108.23(19) . 2_564
Ga1 O2 O1 108.23(19) . 2_564
Ga2 O2 O1 33.59(13) 1_664 2_564
O2 O2 O1 109.1(3) 5 2_564
O3 O2 O1 70.9(2) 6_665 2_564
La O2 O1 23.89(8) 2_564 2_564
Ga3 O2 O1 74.94(14) 4_455 2_564
Ga3 O2 O1 93.75(16) 4_445 2_564
O3 O2 O1 50.29(16) 4_454 2_564
La O2 O1 71.18(16) 1_554 2_564
La O2 O1 125.9(2) 4_455 2_564
Ga3 O2 O1 130.0(2) 2_565 2_564
Ga3 O2 O1 113.6(2) . 2_564
O3 O2 O1 49.86(15) 1_654 2_564
O3 O2 O1 106.4(2) 4_455 2_564
La O2 O1 77.89(16) 4 2_564
Ga2 O2 O1 150.6(2) 2_566 2_564
O2 O2 O1 101.9(3) 2_454 2_564
O2 O2 O1 31.20(19) 2_564 2_564
O3 O2 O1 103.8(2) 1_655 2_564
O2 O2 O1 94.1(2) 6_554 2_564
Nb O2 O1 53.42(11) 1_554 2_564
Ga1 O2 O1 53.42(11) 1_554 2_564
O1 O2 O1 131.1(3) 2_455 2_564
O3 O2 O1 91.28(17) 6_655 2_564
Ga2 O2 O1 111.20(18) 1_554 2_564
Ga3 O2 O1 51.86(11) 1_665 2_564
Ga3 O2 O1 70.06(11) 1_655 2_564
O2 O2 O1 141.92(13) 1_556 2_564
O2 O2 O1 38.08(13) 1_554 2_564
O2 O2 O1 164.4(2) 2_455 2_564
O2 O2 O1 90.95(16) 2_565 2_564
O3 O2 O1 96.7(2) 1_554 2_564
O3 O2 O1 74.86(16) 4_444 2_564
Ga2 O2 O1 100.15(18) 1_665 2_564
O2 O2 O1 31.03(17) 6_664 2_564
O2 O2 O1 78.7(2) 6_564 2_564
O2 O2 O1 144.7(2) 6 2_564
O3 O2 O1 86.38(18) 5_455 2_564
Ga1 O2 O1 87.34(15) 1_565 2_564
Nb O2 O1 87.34(15) 1_565 2_564
La O2 O1 74.17(14) 4_454 2_564
O3 O2 O1 148.6(2) . 2_564
O3 O2 O1 119.59(18) 4_445 2_564
O3 O2 O1 121.5(2) 2_465 2_564
O3 O2 O1 130.6(2) 6 2_564
O3 O2 O1 32.83(11) 2_564 2_564
La O2 O1 26.65(5) 4_554 2_564
O3 O2 O1 57.81(16) 5_444 2_564
Ga2 O2 O2 111.4(4) 2_565 3
Ga3 O2 O2 59.3(2) 2_564 3
La O2 O2 135.8(2) 2_565 3
O2 O2 O2 84.3(5) 4_455 3
O2 O2 O2 144.3(5) 3_565 3
O3 O2 O2 59.03(19) 2_565 3
La O2 O2 52.5(2) . 3
O2 O2 O2 98.35(9) 5_554 3
O3 O2 O2 6.4(3) 5_445 3
O1 O2 O2 103.2(3) . 3
O3 O2 O2 51.7(3) 3_564 3
O1 O2 O2 102.6(2) 1_554 3
O3 O2 O2 56.2(2) 3_565 3
O1 O2 O2 117.25(19) 2_565 3
Nb O2 O2 38.41(9) . 3
Ga1 O2 O2 38.41(9) . 3
Ga2 O2 O2 116.18(18) 1_664 3
O2 O2 O2 96.48(6) 5 3
O3 O2 O2 167.2(3) 6_665 3
La O2 O2 115.56(12) 2_564 3
Ga3 O2 O2 155.3(2) 4_455 3
Ga3 O2 O2 14.01(12) 4_445 3
O3 O2 O2 146.75(19) 4_454 3
La O2 O2 66.06(17) 1_554 3
La O2 O2 118.0(3) 4_455 3
Ga3 O2 O2 77.47(10) 2_565 3
Ga3 O2 O2 78.6(2) . 3
O3 O2 O2 60.01(13) 1_654 3
O3 O2 O2 142.22(17) 4_455 3
La O2 O2 83.47(11) 4 3
Ga2 O2 O2 98.53(16) 2_566 3
O2 O2 O2 60.9(2) 2_454 3
O2 O2 O2 134.1(3) 2_564 3
O3 O2 O2 61.67(14) 1_655 3
O2 O2 O2 30.5(2) 6_554 3
Nb O2 O2 54.09(8) 1_554 3
Ga1 O2 O2 54.09(8) 1_554 3
O1 O2 O2 38.64(17) 2_455 3
O3 O2 O2 30.64(13) 6_655 3
Ga2 O2 O2 40.06(17) 1_554 3
Ga3 O2 O2 155.5(2) 1_665 3
Ga3 O2 O2 46.39(6) 1_655 3
O2 O2 O2 90.0 1_556 3
O2 O2 O2 90.0 1_554 3
O2 O2 O2 64.3(2) 2_455 3
O2 O2 O2 128.4(2) 2_565 3
O3 O2 O2 93.5(3) 1_554 3
O3 O2 O2 31.85(12) 4_444 3
Ga2 O2 O2 108.04(10) 1_665 3
O2 O2 O2 104.08(11) 6_664 3
O2 O2 O2 136.6(3) 6_564 3
O2 O2 O2 39.1(2) 6 3
O3 O2 O2 162.3(3) 5_455 3
Ga1 O2 O2 163.32(10) 1_565 3
Nb O2 O2 163.32(10) 1_565 3
La O2 O2 112.2(2) 4_454 3
O3 O2 O2 93.3(2) . 3
O3 O2 O2 35.24(13) 4_445 3
O3 O2 O2 101.6(3) 2_465 3
O3 O2 O2 72.9(2) 6 3
O3 O2 O2 74.83(11) 2_564 3
La O2 O2 84.67(9) 4_554 3
O3 O2 O2 59.00(15) 5_444 3
O1 O2 O2 106.66(10) 2_564 3
Ga2 O2 O2 152.0(3) 2_565 4
Ga3 O2 O2 33.5(3) 2_564 4
La O2 O2 96.4(3) 2_565 4
O2 O2 O2 144.3(5) 4_455 4
O2 O2 O2 155.7(5) 3_565 4
O3 O2 O2 6.6(3) 2_565 4
La O2 O2 101.58(19) . 4
O2 O2 O2 57.9(3) 5_554 4
O3 O2 O2 59.05(19) 5_445 4
O1 O2 O2 123.4(2) . 4
O3 O2 O2 65.1(2) 3_564 4
O1 O2 O2 121.8(2) 1_554 4
O3 O2 O2 67.76(19) 3_565 4
O1 O2 O2 58.24(19) 2_565 4
Nb O2 O2 38.41(9) . 4
Ga1 O2 O2 38.41(9) . 4
Ga2 O2 O2 59.52(19) 1_664 4
O2 O2 O2 65.6(3) 5 4
O3 O2 O2 108.1(3) 6_665 4
La O2 O2 93.88(17) 2_564 4
Ga3 O2 O2 138.7(3) 4_455 4
Ga3 O2 O2 58.26(9) 4_445 4
O3 O2 O2 117.8(3) 4_454 4
La O2 O2 97.69(12) 1_554 4
La O2 O2 159.18(12) 4_455 4
Ga3 O2 O2 69.23(11) 2_565 4
Ga3 O2 O2 136.7(2) . 4
O3 O2 O2 31.89(15) 1_654 4
O3 O2 O2 116.1(2) 4_455 4
La O2 O2 30.07(13) 4 4
Ga2 O2 O2 111.02(10) 2_566 4
O2 O2 O2 114.3(2) 2_454 4
O2 O2 O2 81.7(3) 2_564 4
O3 O2 O2 36.27(17) 1_655 4
O2 O2 O2 79.35(16) 6_554 4
Nb O2 O2 54.09(8) 1_554 4
Ga1 O2 O2 54.09(8) 1_554 4
O1 O2 O2 97.99(17) 2_455 4
O3 O2 O2 29.79(12) 6_655 4
Ga2 O2 O2 97.83(16) 1_554 4
Ga3 O2 O2 98.1(2) 1_665 4
Ga3 O2 O2 18.74(8) 1_655 4
O2 O2 O2 90.0 1_556 4
O2 O2 O2 90.0 1_554 4
O2 O2 O2 111.5(2) 2_455 4
O2 O2 O2 82.6(2) 2_565 4
O3 O2 O2 143.4(2) 1_554 4
O3 O2 O2 48.51(14) 4_444 4
Ga2 O2 O2 69.15(15) 1_665 4
O2 O2 O2 49.40(11) 6_664 4
O2 O2 O2 149.2(2) 6_564 4
O2 O2 O2 80.43(14) 6 4
O3 O2 O2 137.3(3) 5_455 4
Ga1 O2 O2 118.9(2) 1_565 4
Nb O2 O2 118.9(2) 1_565 4
La O2 O2 138.73(10) 4_454 4
O3 O2 O2 140.51(18) . 4
O3 O2 O2 50.43(12) 4_445 4
O3 O2 O2 161.4(3) 2_465 4
O3 O2 O2 132.7(2) 6 4
O3 O2 O2 59.64(13) 2_564 4
La O2 O2 45.03(11) 4_554 4
O3 O2 O2 74.54(12) 5_444 4
O1 O2 O2 70.76(14) 2_564 4
O2 O2 O2 60.001(1) 3 4
Ga2 O2 O2 145.6(5) 2_565 6_665
Ga3 O2 O2 81.77(18) 2_564 6_665
La O2 O2 43.0(2) 2_565 6_665
O2 O2 O2 146.53(17) 4_455 6_665
O2 O2 O2 107.2(4) 3_565 6_665
O3 O2 O2 50.3(2) 2_565 6_665
La O2 O2 108.9(3) . 6_665
O2 O2 O2 76.8(3) 5_554 6_665
O3 O2 O2 98.4(3) 5_445 6_665
O1 O2 O2 85.2(3) . 6_665
O3 O2 O2 116.5(2) 3_564 6_665
O1 O2 O2 142.9(4) 1_554 6_665
O3 O2 O2 65.8(2) 3_565 6_665
O1 O2 O2 25.1(2) 2_565 6_665
Nb O2 O2 65.04(12) . 6_665
Ga1 O2 O2 65.04(12) . 6_665
Ga2 O2 O2 51.96(12) 1_664 6_665
O2 O2 O2 24.25(19) 5 6_665
O3 O2 O2 64.6(3) 6_665 6_665
La O2 O2 103.7(2) 2_564 6_665
Ga3 O2 O2 101.8(3) 4_455 6_665
Ga3 O2 O2 107.70(17) 4_445 6_665
O3 O2 O2 98.6(3) 4_454 6_665
La O2 O2 148.1(2) 1_554 6_665
La O2 O2 111.4(2) 4_455 6_665
Ga3 O2 O2 47.01(14) 2_565 6_665
Ga3 O2 O2 160.5(3) . 6_665
O3 O2 O2 79.90(12) 1_654 6_665
O3 O2 O2 62.7(2) 4_455 6_665
La O2 O2 23.40(5) 4 6_665
Ga2 O2 O2 74.8(2) 2_566 6_665
O2 O2 O2 163.6(3) 2_454 6_665
O2 O2 O2 67.39(13) 2_564 6_665
O3 O2 O2 42.01(14) 1_655 6_665
O2 O2 O2 130.4(2) 6_554 6_665
Nb O2 O2 104.28(12) 1_554 6_665
Ga1 O2 O2 104.28(12) 1_554 6_665
O1 O2 O2 127.3(3) 2_455 6_665
O3 O2 O2 75.18(17) 6_655 6_665
Ga2 O2 O2 141.7(3) 1_554 6_665
Ga3 O2 O2 67.0(2) 1_665 6_665
Ga3 O2 O2 72.18(6) 1_655 6_665
O2 O2 O2 57.76(17) 1_556 6_665
O2 O2 O2 122.24(17) 1_554 6_665
O2 O2 O2 109.1(4) 2_455 6_665
O2 O2 O2 29.45(17) 2_565 6_665
O3 O2 O2 162.5(3) 1_554 6_665
O3 O2 O2 101.85(16) 4_444 6_665
Ga2 O2 O2 18.55(11) 1_665 6_665
O2 O2 O2 54.66(11) 6_664 6_665
O2 O2 O2 120.6(3) 6_564 6_665
O2 O2 O2 94.2(2) 6 6_665
O3 O2 O2 90.0(2) 5_455 6_665
Ga1 O2 O2 68.7(2) 1_565 6_665
Nb O2 O2 68.7(2) 1_565 6_665
La O2 O2 142.9(3) 4_454 6_665
O3 O2 O2 114.5(3) . 6_665
O3 O2 O2 72.10(19) 4_445 6_665
O3 O2 O2 136.2(3) 2_465 6_665
O3 O2 O2 144.4(3) 6 6_665
O3 O2 O2 99.54(17) 2_564 6_665
La O2 O2 74.93(11) 4_554 6_665
O3 O2 O2 124.29(17) 5_444 6_665
O1 O2 O2 84.9(2) 2_564 6_665
O2 O2 O2 102.86(10) 3 6_665
O2 O2 O2 53.46(11) 4 6_665
Ga2 O2 O2 65.13(19) 2_565 6_565
Ga3 O2 O2 167.9(5) 2_564 6_565
La O2 O2 48.2(2) 2_565 6_565
O2 O2 O2 62.95(15) 4_455 6_565
O2 O2 O2 32.33(17) 3_565 6_565
O3 O2 O2 136.6(4) 2_565 6_565
La O2 O2 79.2(2) . 6_565
O2 O2 O2 130.0(2) 5_554 6_565
O3 O2 O2 127.7(4) 5_445 6_565
O1 O2 O2 30.72(14) . 6_565
O3 O2 O2 153.1(3) 3_564 6_565
O1 O2 O2 93.2(2) 1_554 6_565
O3 O2 O2 89.5(3) 3_565 6_565
O1 O2 O2 93.5(3) 2_565 6_565
Nb O2 O2 122.0(3) . 6_565
Ga1 O2 O2 122.0(3) . 6_565
Ga2 O2 O2 108.3(3) 1_664 6_565
O2 O2 O2 76.4(3) 5 6_565
O3 O2 O2 54.3(2) 6_665 6_565
La O2 O2 106.0(2) 2_564 6_565
Ga3 O2 O2 48.93(12) 4_455 6_565
Ga3 O2 O2 142.7(3) 4_445 6_565
O3 O2 O2 72.9(2) 4_454 6_565
La O2 O2 120.48(15) 1_554 6_565
La O2 O2 22.37(5) 4_455 6_565
Ga3 O2 O2 78.2(2) 2_565 6_565
Ga3 O2 O2 75.63(7) . 6_565
O3 O2 O2 166.5(3) 1_654 6_565
O3 O2 O2 28.59(19) 4_455 6_565
La O2 O2 112.5(2) 4 6_565
Ga2 O2 O2 39.81(14) 2_566 6_565
O2 O2 O2 99.27(17) 2_454 6_565
O2 O2 O2 94.0(3) 2_564 6_565
O3 O2 O2 110.3(3) 1_655 6_565
O2 O2 O2 130.4(2) 6_554 6_565
Nb O2 O2 163.6(2) 1_554 6_565
Ga1 O2 O2 163.6(2) 1_554 6_565
O1 O2 O2 97.5(2) 2_455 6_565
O3 O2 O2 143.3(3) 6_655 6_565
Ga2 O2 O2 108.67(17) 1_554 6_565
Ga3 O2 O2 72.1(2) 1_665 6_565
Ga3 O2 O2 158.4(3) 1_655 6_565
O2 O2 O2 57.76(17) 1_556 6_565
O2 O2 O2 122.24(17) 1_554 6_565
O2 O2 O2 67.4(2) 2_455 6_565
O2 O2 O2 62.2(3) 2_565 6_565
O3 O2 O2 74.48(13) 1_554 6_565
O3 O2 O2 161.5(3) 4_444 6_565
Ga2 O2 O2 72.9(2) 1_665 6_565
O2 O2 O2 120.6(4) 6_664 6_565
O2 O2 O2 54.65(10) 6_564 6_565
O2 O2 O2 94.2(2) 6 6_565
O3 O2 O2 34.83(16) 5_455 6_565
Ga1 O2 O2 37.66(14) 1_565 6_565
Nb O2 O2 37.66(14) 1_565 6_565
La O2 O2 76.16(11) 4_454 6_565
O3 O2 O2 40.53(13) . 6_565
O3 O2 O2 114.0(3) 4_445 6_565
O3 O2 O2 47.39(11) 2_465 6_565
O3 O2 O2 70.47(13) 6 6_565
O3 O2 O2 149.4(3) 2_564 6_565
La O2 O2 143.4(3) 4_554 6_565
O3 O2 O2 143.59(19) 5_444 6_565
O1 O2 O2 121.0(3) 2_564 6_565
O2 O2 O2 131.6(3) 3 6_565
O2 O2 O2 141.78(17) 4 6_565
O2 O2 O2 89.7(3) 6_665 6_565
Ga2 O2 O2 39.1(2) 2_565 4_454
Ga3 O2 O2 80.0(3) 2_564 4_454
La O2 O2 136.8(3) 2_565 4_454
O2 O2 O2 60.85(12) 4_455 4_454
O2 O2 O2 75.91(5) 3_565 4_454
O3 O2 O2 119.1(3) 2_565 4_454
La O2 O2 99.1(3) . 4_454
O2 O2 O2 74.5(3) 5_554 4_454
O3 O2 O2 93.3(3) 5_445 4_454
O1 O2 O2 119.6(3) . 4_454
O3 O2 O2 49.9(2) 3_564 4_454
O1 O2 O2 15.37(9) 1_554 4_454
O3 O2 O2 138.4(3) 3_565 4_454
O1 O2 O2 126.5(3) 2_565 4_454
Nb O2 O2 123.6(3) . 4_454
Ga1 O2 O2 123.6(3) . 4_454
Ga2 O2 O2 98.85(16) 1_664 4_454
O2 O2 O2 174.5(4) 5 4_454
O3 O2 O2 102.6(3) 6_665 4_454
La O2 O2 47.95(6) 2_564 4_454
Ga3 O2 O2 70.76(15) 4_455 4_454
Ga3 O2 O2 76.6(2) 4_445 4_454
O3 O2 O2 62.44(18) 4_454 4_454
La O2 O2 21.48(10) 1_554 4_454
La O2 O2 86.65(19) 4_455 4_454
Ga3 O2 O2 160.5(3) 2_565 4_454
Ga3 O2 O2 48.05(15) . 4_454
O3 O2 O2 81.7(2) 1_654 4_454
O3 O2 O2 123.1(3) 4_455 4_454
La O2 O2 138.0(2) 4 4_454
Ga2 O2 O2 131.5(2) 2_566 4_454
O2 O2 O2 39.4(2) 2_454 4_454
O2 O2 O2 85.7(3) 2_564 4_454
O3 O2 O2 143.8(3) 1_655 4_454
O2 O2 O2 56.90(19) 6_554 4_454
Nb O2 O2 59.54(14) 1_554 4_454
Ga1 O2 O2 59.54(14) 1_554 4_454
O1 O2 O2 77.1(3) 2_455 4_454
O3 O2 O2 105.1(2) 6_655 4_454
Ga2 O2 O2 57.81(17) 1_554 4_454
Ga3 O2 O2 92.47(16) 1_665 4_454
Ga3 O2 O2 97.29(19) 1_655 4_454
O2 O2 O2 150.85(12) 1_556 4_454
O2 O2 O2 29.15(12) 1_554 4_454
O2 O2 O2 100.1(2) 2_455 4_454
O2 O2 O2 143.0(3) 2_565 4_454
O3 O2 O2 34.82(17) 1_554 4_454
O3 O2 O2 72.4(2) 4_444 4_454
Ga2 O2 O2 162.2(2) 1_665 4_454
O2 O2 O2 96.4(2) 6_664 4_454
O2 O2 O2 54.89(17) 6_564 4_454
O2 O2 O2 110.0(3) 6 4_454
O3 O2 O2 87.3(2) 5_455 4_454
Ga1 O2 O2 107.2(2) 1_565 4_454
Nb O2 O2 107.2(2) 1_565 4_454
La O2 O2 29.23(11) 4_454 4_454
O3 O2 O2 91.9(2) . 4_454
O3 O2 O2 122.4(3) 4_445 4_454
O3 O2 O2 65.60(19) 2_465 4_454
O3 O2 O2 64.77(19) 6 4_454
O3 O2 O2 56.17(14) 2_564 4_454
La O2 O2 78.80(12) 4_554 4_454
O3 O2 O2 39.78(14) 5_444 4_454
O1 O2 O2 65.86(12) 2_564 4_454
O2 O2 O2 87.2(2) 3 4_454
O2 O2 O2 113.29(16) 4 4_454
O2 O2 O2 150.7(2) 6_665 4_454
O2 O2 O2 104.1(2) 6_565 4_454
Ga2 O2 O2 91.6(3) 2_565 4_456
Ga3 O2 O2 140.5(4) 2_564 4_456
La O2 O2 67.41(15) 2_565 4_456
O2 O2 O2 60.85(12) 4_455 4_456
O2 O2 O2 75.91(5) 3_565 4_456
O3 O2 O2 106.8(3) 2_565 4_456
La O2 O2 38.57(18) . 4_456
O2 O2 O2 163.3(4) 5_554 4_456
O3 O2 O2 82.3(3) 5_445 4_456
O1 O2 O2 16.09(10) . 4_456
O3 O2 O2 135.1(4) 3_564 4_456
O1 O2 O2 121.2(3) 1_554 4_456
O3 O2 O2 46.40(19) 3_565 4_456
O1 O2 O2 107.1(3) 2_565 4_456
Nb O2 O2 79.0(2) . 4_456
Ga1 O2 O2 79.0(2) . 4_456
Ga2 O2 O2 134.7(2) 1_664 4_456
O2 O2 O2 62.7(2) 5 4_456
O3 O2 O2 94.3(2) 6_665 4_456
La O2 O2 151.3(3) 2_564 4_456
Ga3 O2 O2 94.87(19) 4_455 4_456
Ga3 O2 O2 100.6(3) 4_445 4_456
O3 O2 O2 119.3(3) 4_454 4_456
La O2 O2 121.0(2) 1_554 4_456
La O2 O2 47.22(14) 4_455 4_456
Ga3 O2 O2 46.50(10) 2_565 4_456
Ga3 O2 O2 74.01(19) . 4_456
O3 O2 O2 140.0(3) 1_654 4_456
O3 O2 O2 58.66(15) 4_455 4_456
La O2 O2 98.65(15) 4 4_456
Ga2 O2 O2 14.83(6) 2_566 4_456
O2 O2 O2 89.6(3) 2_454 4_456
O2 O2 O2 133.8(3) 2_564 4_456
O3 O2 O2 77.5(2) 1_655 4_456
O2 O2 O2 100.8(3) 6_554 4_456
Nb O2 O2 141.1(3) 1_554 4_456
Ga1 O2 O2 141.1(3) 1_554 4_456
O1 O2 O2 63.6(2) 2_455 4_456
O3 O2 O2 98.4(2) 6_655 4_456
Ga2 O2 O2 83.0(2) 1_554 4_456
Ga3 O2 O2 113.33(19) 1_665 4_456
Ga3 O2 O2 118.7(2) 1_655 4_456
O2 O2 O2 29.15(12) 1_556 4_456
O2 O2 O2 150.85(12) 1_554 4_456
O2 O2 O2 29.5(2) 2_455 4_456
O2 O2 O2 75.7(2) 2_565 4_456
O3 O2 O2 87.9(2) 1_554 4_456
O3 O2 O2 119.0(3) 4_444 4_456
Ga2 O2 O2 69.48(9) 1_665 4_456
O2 O2 O2 141.0(2) 6_664 4_456
O2 O2 O2 95.2(2) 6_564 4_456
O2 O2 O2 48.27(15) 6 4_456
O3 O2 O2 81.35(19) 5_455 4_456
Ga1 O2 O2 78.10(14) 1_565 4_456
Nb O2 O2 78.10(14) 1_565 4_456
La O2 O2 106.23(19) 4_454 4_456
O3 O2 O2 30.79(16) . 4_456
O3 O2 O2 68.9(2) 4_445 4_456
O3 O2 O2 59.01(18) 2_465 4_456
O3 O2 O2 58.21(19) 6 4_456
O3 O2 O2 161.9(3) 2_564 4_456
La O2 O2 157.6(2) 4_554 4_456
O3 O2 O2 136.8(3) 5_444 4_456
O1 O2 O2 165.0(3) 2_564 4_456
O2 O2 O2 87.2(2) 3 4_456
O2 O2 O2 113.29(16) 4 4_456
O2 O2 O2 86.6(2) 6_665 4_456
O2 O2 O2 46.57(13) 6_565 4_456
O2 O2 O2 121.7(2) 4_454 4_456
Ga2 O2 O2 91.6(4) 2_565 3_566
Ga3 O2 O2 149.8(4) 2_564 3_566
La O2 O2 40.62(19) 2_565 3_566
O2 O2 O2 75.91(6) 4_455 3_566
O2 O2 O2 60.85(12) 3_565 3_566
O3 O2 O2 110.3(3) 2_565 3_566
La O2 O2 66.75(14) . 3_566
O2 O2 O2 138.9(4) 5_554 3_566
O3 O2 O2 107.6(3) 5_445 3_566
O1 O2 O2 16.09(10) . 3_566
O3 O2 O2 163.3(4) 3_564 3_566
O1 O2 O2 121.2(3) 1_554 3_566
O3 O2 O2 62.23(17) 3_565 3_566
O1 O2 O2 85.2(3) 2_565 3_566
Nb O2 O2 93.82(15) . 3_566
Ga1 O2 O2 93.82(15) . 3_566
Ga2 O2 O2 109.8(3) 1_664 3_566
O2 O2 O2 51.86(15) 5 3_566
O3 O2 O2 66.5(2) 6_665 3_566
La O2 O2 130.7(3) 2_564 3_566
Ga3 O2 O2 75.5(2) 4_455 3_566
Ga3 O2 O2 127.2(2) 4_445 3_566
O3 O2 O2 97.5(3) 4_454 3_566
La O2 O2 140.6(2) 1_554 3_566
La O2 O2 43.45(15) 4_455 3_566
Ga3 O2 O2 49.54(9) 2_565 3_566
Ga3 O2 O2 90.20(19) . 3_566
O3 O2 O2 148.2(2) 1_654 3_566
O3 O2 O2 30.63(17) 4_455 3_566
La O2 O2 90.79(18) 4 3_566
Ga2 O2 O2 14.82(6) 2_566 3_566
O2 O2 O2 111.1(3) 2_454 3_566
O2 O2 O2 105.7(3) 2_564 3_566
O3 O2 O2 82.12(19) 1_655 3_566
O2 O2 O2 128.8(3) 6_554 3_566
Nb O2 O2 166.1(2) 1_554 3_566
Ga1 O2 O2 166.1(2) 1_554 3_566
O1 O2 O2 91.4(2) 2_455 3_566
O3 O2 O2 115.26(19) 6_655 3_566
Ga2 O2 O2 109.7(2) 1_554 3_566
Ga3 O2 O2 85.4(2) 1_665 3_566
Ga3 O2 O2 130.32(17) 1_655 3_566
O2 O2 O2 29.15(12) 1_556 3_566
O2 O2 O2 150.85(12) 1_554 3_566
O2 O2 O2 57.11(19) 2_455 3_566
O2 O2 O2 51.4(3) 2_565 3_566
O3 O2 O2 96.6(2) 1_554 3_566
O3 O2 O2 143.9(2) 4_444 3_566
Ga2 O2 O2 52.69(14) 1_665 3_566
O2 O2 O2 119.4(3) 6_664 3_566
O2 O2 O2 83.3(2) 6_564 3_566
O2 O2 O2 74.33(17) 6 3_566
O3 O2 O2 59.11(19) 5_455 3_566
Ga1 O2 O2 50.90(16) 1_565 3_566
Nb O2 O2 50.90(16) 1_565 3_566
La O2 O2 104.01(19) 4_454 3_566
O3 O2 O2 44.53(15) . 3_566
O3 O2 O2 87.14(15) 4_445 3_566
O3 O2 O2 65.88(19) 2_465 3_566
O3 O2 O2 78.18(19) 6 3_566
O3 O2 O2 168.5(3) 2_564 3_566
La O2 O2 144.4(2) 4_554 3_566
O3 O2 O2 162.8(3) 5_444 3_566
O1 O2 O2 136.8(3) 2_564 3_566
O2 O2 O2 113.29(16) 3 3_566
O2 O2 O2 116.36(17) 4 3_566
O2 O2 O2 71.2(2) 6_665 3_566
O2 O2 O2 28.7(2) 6_565 3_566
O2 O2 O2 130.1(2) 4_454 3_566
O2 O2 O2 28.19(11) 4_456 3_566
Ga2 O2 O2 39.1(2) 2_565 3_564
Ga3 O2 O2 85.4(3) 2_564 3_564
La O2 O2 110.7(3) 2_565 3_564
O2 O2 O2 75.91(5) 4_455 3_564
O2 O2 O2 60.85(12) 3_565 3_564
O3 O2 O2 122.9(3) 2_565 3_564
La O2 O2 123.0(3) . 3_564
O2 O2 O2 61.9(2) 5_554 3_564
O3 O2 O2 119.7(3) 5_445 3_564
O1 O2 O2 119.6(3) . 3_564
O3 O2 O2 66.8(2) 3_564 3_564
O1 O2 O2 15.37(9) 1_554 3_564
O3 O2 O2 166.3(3) 3_565 3_564
O1 O2 O2 102.5(3) 2_565 3_564
Nb O2 O2 144.1(2) . 3_564
Ga1 O2 O2 144.1(2) . 3_564
Ga2 O2 O2 77.9(2) 1_664 3_564
O2 O2 O2 146.8(3) 5 3_564
O3 O2 O2 75.2(3) 6_665 3_564
La O2 O2 26.42(11) 2_564 3_564
Ga3 O2 O2 48.38(16) 4_455 3_564
Ga3 O2 O2 100.93(15) 4_445 3_564
O3 O2 O2 34.6(2) 4_454 3_564
La O2 O2 47.73(7) 1_554 3_564
La O2 O2 83.97(18) 4_455 3_564
Ga3 O2 O2 169.2(3) 2_565 3_564
Ga3 O2 O2 67.07(14) . 3_564
O3 O2 O2 86.52(19) 1_654 3_564
O3 O2 O2 101.9(2) 4_455 3_564
La O2 O2 127.4(3) 4 3_564
Ga2 O2 O2 131.5(2) 2_566 3_564
O2 O2 O2 66.0(2) 2_454 3_564
O2 O2 O2 60.2(3) 2_564 3_564
O3 O2 O2 152.4(3) 1_655 3_564
O2 O2 O2 83.9(2) 6_554 3_564
Nb O2 O2 71.68(11) 1_554 3_564
Ga1 O2 O2 71.68(11) 1_554 3_564
O1 O2 O2 104.2(2) 2_455 3_564
O3 O2 O2 122.8(2) 6_655 3_564
Ga2 O2 O2 85.82(15) 1_554 3_564
Ga3 O2 O2 64.32(19) 1_665 3_564
Ga3 O2 O2 107.09(16) 1_655 3_564
O2 O2 O2 150.85(12) 1_556 3_564
O2 O2 O2 29.15(12) 1_554 3_564
O2 O2 O2 120.2(2) 2_455 3_564
O2 O2 O2 114.9(3) 2_565 3_564
O3 O2 O2 48.00(16) 1_554 3_564
O3 O2 O2 91.17(17) 4_444 3_564
Ga2 O2 O2 134.2(3) 1_665 3_564
O2 O2 O2 79.9(3) 6_664 3_564
O2 O2 O2 38.5(2) 6_564 3_564
O2 O2 O2 137.6(3) 6 3_564
O3 O2 O2 65.8(2) 5_455 3_564
Ga1 O2 O2 82.57(19) 1_565 3_564
Nb O2 O2 82.57(19) 1_565 3_564
La O2 O2 24.46(10) 4_454 3_564
O3 O2 O2 100.3(2) . 3_564
O3 O2 O2 147.8(2) 4_445 3_564
O3 O2 O2 72.13(18) 2_465 3_564
O3 O2 O2 84.01(19) 6 3_564
O3 O2 O2 58.19(13) 2_564 3_564
La O2 O2 72.20(15) 4_554 3_564
O3 O2 O2 57.18(13) 5_444 3_564
O1 O2 O2 49.79(15) 2_564 3_564
O2 O2 O2 113.29(16) 3 3_564
O2 O2 O2 116.36(17) 4 3_564
O2 O2 O2 127.6(3) 6_665 3_564
O2 O2 O2 93.1(2) 6_565 3_564
O2 O2 O2 28.19(11) 4_454 3_564
O2 O2 O2 130.1(2) 4_456 3_564
O2 O2 O2 121.7(2) 3_566 3_564
Ga2 O2 La 119.5(4) 2_565 1_665
Ga3 O2 La 87.7(3) 2_564 1_665
La O2 La 34.99(15) 2_565 1_665
O2 O2 La 143.1(3) 4_455 1_665
O2 O2 La 86.0(4) 3_565 1_665
O3 O2 La 70.1(2) 2_565 1_665
La O2 La 132.1(3) . 1_665
O2 O2 La 64.8(3) 5_554 1_665
O3 O2 La 124.9(3) 5_445 1_665
O1 O2 La 91.0(2) . 1_665
O3 O2 La 119.2(3) 3_564 1_665
O1 O2 La 116.3(2) 1_554 1_665
O3 O2 La 92.6(2) 3_565 1_665
O1 O2 La 12.93(12) 2_565 1_665
Nb O2 La 92.26(16) . 1_665
Ga1 O2 La 92.26(16) . 1_665
Ga2 O2 La 35.44(9) 1_664 1_665
O2 O2 La 46.56(18) 5 1_665
O3 O2 La 39.00(17) 6_665 1_665
La O2 La 80.53(16) 2_564 1_665
Ga3 O2 La 75.72(14) 4_455 1_665
Ga3 O2 La 128.84(17) 4_445 1_665
O3 O2 La 70.41(19) 4_454 1_665
La O2 La 138.9(2) 1_554 1_665
La O2 La 102.48(17) 4_455 1_665
Ga3 O2 La 71.44(12) 2_565 1_665
Ga3 O2 La 152.62(19) . 1_665
O3 O2 La 86.08(17) 1_654 1_665
O3 O2 La 52.51(15) 4_455 1_665
La O2 La 44.79(8) 4 1_665
Ga2 O2 La 84.84(14) 2_566 1_665
O2 O2 La 167.1(3) 2_454 1_665
O2 O2 La 42.40(12) 2_564 1_665
O3 O2 La 69.82(15) 1_655 1_665
O2 O2 La 148.56(10) 6_554 1_665
Nb O2 La 107.62(16) 1_554 1_665
Ga1 O2 La 107.62(16) 1_554 1_665
O1 O2 La 154.7(2) 2_455 1_665
O3 O2 La 98.11(18) 6_655 1_665
Ga2 O2 La 168.21(18) 1_554 1_665
Ga3 O2 La 38.79(7) 1_665 1_665
Ga3 O2 La 87.94(13) 1_655 1_665
O2 O2 La 74.98(9) 1_556 1_665
O2 O2 La 105.02(9) 1_554 1_665
O2 O2 La 127.8(3) 2_455 1_665
O2 O2 La 23.81(8) 2_565 1_665
O3 O2 La 137.7(2) 1_554 1_665
O3 O2 La 116.05(19) 4_444 1_665
Ga2 O2 La 34.70(6) 1_665 1_665
O2 O2 La 44.53(16) 6_664 1_665
O2 O2 La 94.2(2) 6_564 1_665
O2 O2 La 121.3(2) 6 1_665
O3 O2 La 67.44(13) 5_455 1_665
Ga1 O2 La 48.37(8) 1_565 1_665
Nb O2 La 48.37(8) 1_565 1_665
La O2 La 114.76(17) 4_454 1_665
O3 O2 La 117.88(19) . 1_665
O3 O2 La 100.20(17) 4_445 1_665
O3 O2 La 125.79(19) 2_465 1_665
O3 O2 La 151.01(19) 6 1_665
O3 O2 La 93.73(16) 2_564 1_665
La O2 La 70.01(11) 4_554 1_665
O3 O2 La 122.22(19) 5_444 1_665
O1 O2 La 67.77(14) 2_564 1_665
O2 O2 La 128.25(17) 3 1_665
O2 O2 La 70.59(18) 4 1_665
O2 O2 La 28.25(13) 6_665 1_665
O2 O2 La 80.7(2) 6_565 1_665
O2 O2 La 127.99(19) 4_454 1_665
O2 O2 La 99.38(13) 4_456 1_665
O2 O2 La 74.91(18) 3_566 1_665
O2 O2 La 101.1(2) 3_564 1_665
Ga2 O2 O2 145.4(3) 2_565 3_665
Ga3 O2 O2 46.5(3) 2_564 3_665
La O2 O2 75.22(17) 2_565 3_665
O2 O2 O2 172.0(5) 4_455 3_665
O2 O2 O2 128.0(5) 3_565 3_665
O3 O2 O2 29.5(2) 2_565 3_665
La O2 O2 123.9(3) . 3_665
O2 O2 O2 46.2(3) 5_554 3_665
O3 O2 O2 86.6(3) 5_445 3_665
O1 O2 O2 120.9(2) . 3_665
O3 O2 O2 81.1(3) 3_564 3_665
O1 O2 O2 119.4(2) 1_554 3_665
O3 O2 O2 82.1(2) 3_565 3_665
O1 O2 O2 31.45(8) 2_565 3_665
Nb O2 O2 61.09(18) . 3_665
Ga1 O2 O2 61.09(18) . 3_665
Ga2 O2 O2 34.71(7) 1_664 3_665
O2 O2 O2 57.5(3) 5 3_665
O3 O2 O2 80.45(19) 6_665 3_665
La O2 O2 81.16(11) 2_564 3_665
Ga3 O2 O2 112.30(19) 4_455 3_665
Ga3 O2 O2 85.1(2) 4_445 3_665
O3 O2 O2 95.10(19) 4_454 3_665
La O2 O2 111.85(16) 1_554 3_665
La O2 O2 145.7(2) 4_455 3_665
Ga3 O2 O2 72.98(13) 2_565 3_665
Ga3 O2 O2 161.0(2) . 3_665
O3 O2 O2 44.65(17) 1_654 3_665
O3 O2 O2 94.82(18) 4_455 3_665
La O2 O2 20.37(12) 4 3_665
Ga2 O2 O2 109.53(10) 2_566 3_665
O2 O2 O2 137.4(3) 2_454 3_665
O2 O2 O2 57.33(10) 2_564 3_665
O3 O2 O2 47.51(17) 1_655 3_665
O2 O2 O2 104.44(12) 6_554 3_665
Nb O2 O2 68.78(14) 1_554 3_665
Ga1 O2 O2 68.78(14) 1_554 3_665
O1 O2 O2 125.4(2) 2_455 3_665
O3 O2 O2 57.35(19) 6_655 3_665
Ga2 O2 O2 124.6(2) 1_554 3_665
Ga3 O2 O2 71.03(11) 1_665 3_665
Ga3 O2 O2 43.75(14) 1_655 3_665
O2 O2 O2 90.0 1_556 3_665
O2 O2 O2 90.0 1_554 3_665
O2 O2 O2 131.0(3) 2_455 3_665
O2 O2 O2 61.23(10) 2_565 3_665
O3 O2 O2 153.31(15) 1_554 3_665
O3 O2 O2 72.0(2) 4_444 3_665
Ga2 O2 O2 54.77(8) 1_665 3_665
O2 O2 O2 28.19(16) 6_664 3_665
O2 O2 O2 126.9(3) 6_564 3_665
O2 O2 O2 102.97(11) 6 3_665
O3 O2 O2 109.67(19) 5_455 3_665
Ga1 O2 O2 92.44(14) 1_565 3_665
Nb O2 O2 92.44(14) 1_565 3_665
La O2 O2 131.64(13) 4_454 3_665
O3 O2 O2 149.25(13) . 3_665
O3 O2 O2 72.75(19) 4_445 3_665
O3 O2 O2 170.1(2) 2_465 3_665
O3 O2 O2 160.3(2) 6 3_665
O3 O2 O2 63.73(14) 2_564 3_665
La O2 O2 40.04(9) 4_554 3_665
O3 O2 O2 88.22(16) 5_444 3_665
O1 O2 O2 57.72(11) 2_564 3_665
O2 O2 O2 87.70(19) 3 3_665
O2 O2 O2 27.70(19) 4 3_665
O2 O2 O2 36.25(14) 6_665 3_665
O2 O2 O2 123.4(2) 6_565 3_665
O2 O2 O2 118.83(13) 4_454 3_665
O2 O2 O2 118.83(13) 4_456 3_665
O2 O2 O2 107.46(18) 3_566 3_665
O2 O2 O2 107.46(18) 3_564 3_665
La O2 O2 44.29(7) 1_665 3_665
Ga2 O2 O2 97.1(4) 2_565 4_565
Ga3 O2 O2 94.3(3) 2_564 4_565
La O2 O2 40.8(2) 2_565 4_565
O2 O2 O2 128.0(5) 4_455 4_565
O2 O2 O2 68.0(5) 3_565 4_565
O3 O2 O2 88.9(2) 2_565 4_565
La O2 O2 145.7(2) . 4_565
O2 O2 O2 60.3(2) 5_554 4_565
O3 O2 O2 146.0(3) 5_445 4_565
O1 O2 O2 94.4(2) . 4_565
O3 O2 O2 117.0(3) 3_564 4_565
O1 O2 O2 94.2(2) 1_554 4_565
O3 O2 O2 114.1(2) 3_565 4_565
O1 O2 O2 31.45(8) 2_565 4_565
Nb O2 O2 114.87(16) . 4_565
Ga1 O2 O2 114.87(16) . 4_565
Ga2 O2 O2 34.71(7) 1_664 4_565
O2 O2 O2 67.3(2) 5 4_565
O3 O2 O2 20.93(18) 6_665 4_565
La O2 O2 62.86(14) 2_564 4_565
Ga3 O2 O2 54.22(19) 4_455 4_565
Ga3 O2 O2 142.6(2) 4_445 4_565
O3 O2 O2 47.4(2) 4_454 4_565
La O2 O2 123.41(14) 1_554 4_565
La O2 O2 92.0(2) 4_455 4_565
Ga3 O2 O2 91.81(11) 2_565 4_565
Ga3 O2 O2 132.6(3) . 4_565
O3 O2 O2 93.02(16) 1_654 4_565
O3 O2 O2 50.20(19) 4_455 4_565
La O2 O2 66.24(8) 4 4_565
Ga2 O2 O2 92.88(16) 2_566 4_565
O2 O2 O2 144.5(3) 2_454 4_565
O2 O2 O2 26.9(2) 2_564 4_565
O3 O2 O2 92.87(15) 1_655 4_565
O2 O2 O2 151.71(19) 6_554 4_565
Nb O2 O2 108.35(11) 1_554 4_565
Ga1 O2 O2 108.35(11) 1_554 4_565
O1 O2 O2 170.8(2) 2_455 4_565
O3 O2 O2 117.2(2) 6_655 4_565
Ga2 O2 O2 165.26(14) 1_554 4_565
Ga3 O2 O2 15.71(11) 1_665 4_565
Ga3 O2 O2 102.21(14) 1_655 4_565
O2 O2 O2 90.0 1_556 4_565
O2 O2 O2 90.0 1_554 4_565
O2 O2 O2 136.6(2) 2_455 4_565
O2 O2 O2 37.32(17) 2_565 4_565
O3 O2 O2 115.2(2) 1_554 4_565
O3 O2 O2 124.84(18) 4_444 4_565
Ga2 O2 O2 54.77(8) 1_665 4_565
O2 O2 O2 46.99(14) 6_664 4_565
O2 O2 O2 72.1(3) 6_564 4_565
O2 O2 O2 142.39(17) 6 4_565
O3 O2 O2 49.80(19) 5_455 4_565
Ga1 O2 O2 36.15(15) 1_565 4_565
Nb O2 O2 36.15(15) 1_565 4_565
La O2 O2 91.60(19) 4_454 4_565
O3 O2 O2 114.2(2) . 4_565
O3 O2 O2 123.32(17) 4_445 4_565
O3 O2 O2 110.6(3) 2_465 4_565
O3 O2 O2 139.4(2) 6 4_565
O3 O2 O2 89.44(12) 2_564 4_565
La O2 O2 70.79(7) 4_554 4_565
O3 O2 O2 115.45(14) 5_444 4_565
O1 O2 O2 57.72(11) 2_564 4_565
O2 O2 O2 147.70(19) 3 4_565
O2 O2 O2 87.70(19) 4 4_565
O2 O2 O2 51.38(15) 6_665 4_565
O2 O2 O2 73.6(3) 6_565 4_565
O2 O2 O2 107.46(18) 4_454 4_565
O2 O2 O2 107.46(18) 4_456 4_565
O2 O2 O2 79.5(2) 3_566 4_565
O2 O2 O2 79.5(2) 3_564 4_565
La O2 O2 23.15(7) 1_665 4_565
O2 O2 O2 60.0 3_665 4_565
Ga2 O2 O3 144.5(4) 2_565 2_566
Ga3 O2 O3 95.6(3) 2_564 2_566
La O2 O3 59.5(2) 2_565 2_566
O2 O2 O3 111.54(19) 4_455 2_566
O2 O2 O3 114.99(17) 3_565 2_566
O3 O2 O3 56.2(2) 2_565 2_566
La O2 O3 66.84(19) . 2_566
O2 O2 O3 112.5(4) 5_554 2_566
O3 O2 O3 70.0(3) 5_445 2_566
O1 O2 O3 60.8(2) . 2_566
O3 O2 O3 119.3(3) 3_564 2_566
O1 O2 O3 174.2(3) 1_554 2_566
O3 O2 O3 24.6(2) 3_565 2_566
O1 O2 O3 67.3(3) 2_565 2_566
Nb O2 O3 42.07(13) . 2_566
Ga1 O2 O3 42.07(13) . 2_566
Ga2 O2 O3 93.11(18) 1_664 2_566
O2 O2 O3 22.21(16) 5 2_566
O3 O2 O3 94.5(3) 6_665 2_566
La O2 O3 145.3(2) 2_564 2_566
Ga3 O2 O3 124.2(2) 4_455 2_566
Ga3 O2 O3 87.80(17) 4_445 2_566
O3 O2 O3 134.8(2) 4_454 2_566
La O2 O3 142.3(2) 1_554 2_566
La O2 O3 96.51(19) 4_455 2_566
Ga3 O2 O3 6.85(10) 2_565 2_566
Ga3 O2 O3 121.8(2) . 2_566
O3 O2 O3 94.1(2) 1_654 2_566
O3 O2 O3 70.51(16) 4_455 2_566
La O2 O3 45.93(12) 4 2_566
Ga2 O2 O3 48.38(13) 2_566 2_566
O2 O2 O3 124.8(3) 2_454 2_566
O2 O2 O3 109.4(2) 2_564 2_566
O3 O2 O3 27.0(2) 1_655 2_566
O2 O2 O3 106.2(3) 6_554 2_566
Nb O2 O3 112.40(18) 1_554 2_566
Ga1 O2 O3 112.40(18) 1_554 2_566
O1 O2 O3 86.7(2) 2_455 2_566
O3 O2 O3 62.53(13) 6_655 2_566
Ga2 O2 O3 105.19(19) 1_554 2_566
Ga3 O2 O3 104.70(17) 1_665 2_566
Ga3 O2 O3 75.08(15) 1_655 2_566
O2 O2 O3 27.34(13) 1_556 2_566
O2 O2 O3 152.66(13) 1_554 2_566
O2 O2 O3 68.3(2) 2_455 2_566
O2 O2 O3 54.33(19) 2_565 2_566
O3 O2 O3 139.7(2) 1_554 2_566
O3 O2 O3 95.2(2) 4_444 2_566
Ga2 O2 O3 34.86(9) 1_665 2_566
O2 O2 O3 92.65(18) 6_664 2_566
O2 O2 O3 137.4(3) 6_564 2_566
O2 O2 O3 53.37(16) 6 2_566
O3 O2 O3 106.9(2) 5_455 2_566
Ga1 O2 O3 88.54(16) 1_565 2_566
Nb O2 O3 88.54(16) 1_565 2_566
La O2 O3 158.6(2) 4_454 2_566
O3 O2 O3 84.08(18) . 2_566
O3 O2 O3 41.1(2) 4_445 2_566
O3 O2 O3 112.4(2) 2_465 2_566
O3 O2 O3 104.7(2) 6 2_566
O3 O2 O3 122.3(2) 2_564 2_566
La O2 O3 104.31(16) 4_554 2_566
O3 O2 O3 129.41(19) 5_444 2_566
O1 O2 O3 123.57(19) 2_564 2_566
O2 O2 O3 76.24(11) 3 2_566
O2 O2 O3 62.67(13) 4 2_566
O2 O2 O3 42.14(16) 6_665 2_566
O2 O2 O3 83.7(2) 6_565 2_566
O2 O2 O3 162.7(3) 4_454 2_566
O2 O2 O3 53.34(14) 4_456 2_566
O2 O2 O3 55.24(13) 3_566 2_566
O2 O2 O3 169.0(3) 3_564 2_566
La O2 O3 68.03(12) 1_665 2_566
O2 O2 O3 66.29(13) 3_665 2_566
O2 O2 O3 89.49(11) 4_565 2_566
Ga2 O2 O3 61.5(3) 2_565 6_664
Ga3 O2 O3 78.9(3) 2_564 6_664
La O2 O3 90.9(3) 2_565 6_664
O2 O2 O3 101.0(2) 4_455 6_664
O2 O2 O3 64.9(2) 3_565 6_664
O3 O2 O3 107.1(3) 2_565 6_664
La O2 O3 150.3(3) . 6_664
O2 O2 O3 43.57(19) 5_554 6_664
O3 O2 O3 134.1(3) 5_445 6_664
O1 O2 O3 124.9(3) . 6_664
O3 O2 O3 76.3(3) 3_564 6_664
O1 O2 O3 43.08(17) 1_554 6_664
O3 O2 O3 165.2(3) 3_565 6_664
O1 O2 O3 74.8(3) 2_565 6_664
Nb O2 O3 139.0(2) . 6_664
Ga1 O2 O3 139.0(2) . 6_664
Ga2 O2 O3 51.29(15) 1_664 6_664
O2 O2 O3 120.4(3) 5 6_664
O3 O2 O3 55.64(16) 6_665 6_664
La O2 O3 12.56(10) 2_564 6_664
Ga3 O2 O3 45.58(12) 4_455 6_664
Ga3 O2 O3 114.05(19) 4_445 6_664
O3 O2 O3 21.25(16) 4_454 6_664
La O2 O3 70.01(16) 1_554 6_664
La O2 O3 95.24(16) 4_455 6_664
Ga3 O2 O3 145.3(2) 2_565 6_664
Ga3 O2 O3 94.07(17) . 6_664
O3 O2 O3 79.26(19) 1_654 6_664
O3 O2 O3 89.6(2) 4_455 6_664
La O2 O3 102.28(19) 4 6_664
Ga2 O2 O3 132.50(19) 2_566 6_664
O2 O2 O3 93.2(3) 2_454 6_664
O2 O2 O3 32.5(2) 2_564 6_664
O3 O2 O3 131.5(2) 1_655 6_664
O2 O2 O3 104.0(3) 6_554 6_664
Nb O2 O3 75.30(14) 1_554 6_664
Ga1 O2 O3 75.30(14) 1_554 6_664
O1 O2 O3 131.2(3) 2_455 6_664
O3 O2 O3 121.0(2) 6_655 6_664
Ga2 O2 O3 111.54(18) 1_554 6_664
Ga3 O2 O3 40.10(12) 1_665 6_664
Ga3 O2 O3 100.26(16) 1_655 6_664
O2 O2 O3 140.95(12) 1_556 6_664
O2 O2 O3 39.05(12) 1_554 6_664
O2 O2 O3 145.0(3) 2_455 6_664
O2 O2 O3 90.94(18) 2_565 6_664
O3 O2 O3 74.35(17) 1_554 6_664
O3 O2 O3 97.94(15) 4_444 6_664
Ga2 O2 O3 108.17(19) 1_665 6_664
O2 O2 O3 55.8(2) 6_664 6_664
O2 O2 O3 47.97(19) 6_564 6_664
O2 O2 O3 163.6(3) 6 6_664
O3 O2 O3 59.84(15) 5_455 6_664
Ga1 O2 O3 68.46(13) 1_565 6_664
Nb O2 O3 68.46(13) 1_565 6_664
La O2 O3 48.64(12) 4_454 6_664
O3 O2 O3 118.2(2) . 6_664
O3 O2 O3 150.19(19) 4_445 6_664
O3 O2 O3 92.74(16) 2_465 6_664
O3 O2 O3 110.5(2) 6 6_664
O3 O2 O3 55.61(17) 2_564 6_664
La O2 O3 57.39(12) 4_554 6_664
O3 O2 O3 69.5(2) 5_444 6_664
O1 O2 O3 30.81(9) 2_564 6_664
O2 O2 O3 128.06(11) 3 6_664
O2 O2 O3 101.30(17) 4 6_664
O2 O2 O3 99.9(2) 6_665 6_664
O2 O2 O3 94.2(2) 6_565 6_664
O2 O2 O3 54.16(13) 4_454 6_664
O2 O2 O3 140.4(2) 4_456 6_664
O2 O2 O3 118.1(2) 3_566 6_664
O2 O2 O3 27.73(16) 3_564 6_664
La O2 O3 73.94(15) 1_665 6_664
O2 O2 O3 83.98(13) 3_665 6_664
O2 O2 O3 53.81(14) 4_565 6_664
O3 O2 O3 141.8(2) 2_566 6_664
Ga2 O2 O3 125.8(4) 2_565 5_446
Ga3 O2 O3 103.5(3) 2_564 5_446
La O2 O3 76.7(2) 2_565 5_446
O2 O2 O3 87.9(2) 4_455 5_446
O2 O2 O3 112.69(13) 3_565 5_446
O3 O2 O3 69.6(3) 2_565 5_446
La O2 O3 41.00(15) . 5_446
O2 O2 O3 132.9(3) 5_554 5_446
O3 O2 O3 55.7(2) 5_445 5_446
O1 O2 O3 51.4(2) . 5_446
O3 O2 O3 113.1(3) 3_564 5_446
O1 O2 O3 148.9(3) 1_554 5_446
O3 O2 O3 8.64(15) 3_565 5_446
O1 O2 O3 93.1(3) 2_565 5_446
Nb O2 O3 41.62(13) . 5_446
Ga1 O2 O3 41.62(13) . 5_446
Ga2 O2 O3 118.5(2) 1_664 5_446
O2 O2 O3 46.5(2) 5 5_446
O3 O2 O3 112.5(3) 6_665 5_446
La O2 O3 169.4(2) 2_564 5_446
Ga3 O2 O3 129.7(2) 4_455 5_446
Ga3 O2 O3 75.81(16) 4_445 5_446
O3 O2 O3 150.9(2) 4_454 5_446
La O2 O3 123.0(2) 1_554 5_446
La O2 O3 85.05(17) 4_455 5_446
Ga3 O2 O3 21.66(9) 2_565 5_446
Ga3 O2 O3 96.61(18) . 5_446
O3 O2 O3 102.7(2) 1_654 5_446
O3 O2 O3 80.30(19) 4_455 5_446
La O2 O3 68.77(14) 4 5_446
Ga2 O2 O3 41.28(11) 2_566 5_446
O2 O2 O3 99.6(2) 2_454 5_446
O2 O2 O3 135.1(2) 2_564 5_446
O3 O2 O3 41.8(2) 1_655 5_446
O2 O2 O3 88.3(3) 6_554 5_446
Nb O2 O3 111.84(18) 1_554 5_446
Ga1 O2 O3 111.84(18) 1_554 5_446
O1 O2 O3 61.9(2) 2_455 5_446
O3 O2 O3 62.25(15) 6_655 5_446
Ga2 O2 O3 81.65(16) 1_554 5_446
Ga3 O2 O3 126.96(19) 1_665 5_446
Ga3 O2 O3 81.31(15) 1_655 5_446
O2 O2 O3 27.94(12) 1_556 5_446
O2 O2 O3 152.06(12) 1_554 5_446
O2 O2 O3 43.51(19) 2_455 5_446
O2 O2 O3 75.9(2) 2_565 5_446
O3 O2 O3 115.65(19) 1_554 5_446
O3 O2 O3 89.86(19) 4_444 5_446
Ga2 O2 O3 58.71(12) 1_665 5_446
O2 O2 O3 116.26(19) 6_664 5_446
O2 O2 O3 133.0(2) 6_564 5_446
O2 O2 O3 29.45(15) 6 5_446
O3 O2 O3 113.4(2) 5_455 5_446
Ga1 O2 O3 101.26(16) 1_565 5_446
Nb O2 O3 101.26(16) 1_565 5_446
La O2 O3 139.98(19) 4_454 5_446
O3 O2 O3 65.41(15) . 5_446
O3 O2 O3 33.04(18) 4_445 5_446
O3 O2 O3 93.00(17) 2_465 5_446
O3 O2 O3 79.64(19) 6 5_446
O3 O2 O3 129.46(19) 2_564 5_446
La O2 O3 120.99(17) 4_554 5_446
O3 O2 O3 121.1(2) 5_444 5_446
O1 O2 O3 145.55(19) 2_564 5_446
O2 O2 O3 62.07(12) 3 5_446
O2 O2 O3 75.97(11) 4 5_446
O2 O2 O3 67.99(19) 6_665 5_446
O2 O2 O3 81.1(2) 6_565 5_446
O2 O2 O3 138.9(2) 4_454 5_446
O2 O2 O3 37.84(14) 4_456 5_446
O2 O2 O3 54.29(11) 3_566 5_446
O2 O2 O3 163.6(2) 3_564 5_446
La O2 O3 93.10(14) 1_665 5_446
O2 O2 O3 88.38(15) 3_665 5_446
O2 O2 O3 113.01(11) 4_565 5_446
O3 O2 O3 25.85(14) 2_566 5_446
O3 O2 O3 166.81(19) 6_664 5_446
Ga2 O2 O1 37.3(3) 2_565 2_465
Ga3 O2 O1 152.5(4) 2_564 2_465
La O2 O1 70.7(2) 2_565 2_465
O2 O2 O1 48.1(3) 4_455 2_465
O2 O2 O1 13.4(2) 3_565 2_465
O3 O2 O1 163.7(4) 2_565 2_465
La O2 O1 85.59(19) . 2_465
O2 O2 O1 119.1(2) 5_554 2_465
O3 O2 O1 131.9(3) 5_445 2_465
O1 O2 O1 52.7(3) . 2_465
O3 O2 O1 125.8(3) 3_564 2_465
O1 O2 O1 65.2(3) 1_554 2_465
O3 O2 O1 112.1(3) 3_565 2_465
O1 O2 O1 108.7(2) 2_565 2_465
Nb O2 O1 144.6(3) . 2_465
Ga1 O2 O1 144.6(3) . 2_465
Ga2 O2 O1 110.9(2) 1_664 2_465
O2 O2 O1 104.1(2) 5 2_465
O3 O2 O1 59.50(16) 6_665 2_465
La O2 O1 85.69(19) 2_564 2_465
Ga3 O2 O1 33.20(11) 4_455 2_465
Ga3 O2 O1 134.89(19) 4_445 2_465
O3 O2 O1 56.92(18) 4_454 2_465
La O2 O1 93.71(18) 1_554 2_465
La O2 O1 19.12(12) 4_455 2_465
Ga3 O2 O1 105.3(2) 2_565 2_465
Ga3 O2 O1 56.61(10) . 2_465
O3 O2 O1 153.5(3) 1_654 2_465
O3 O2 O1 51.25(19) 4_455 2_465
La O2 O1 137.0(2) 4 2_465
Ga2 O2 O1 64.36(16) 2_566 2_465
O2 O2 O1 79.0(2) 2_454 2_465
O2 O2 O1 89.9(3) 2_564 2_465
O3 O2 O1 138.1(3) 1_655 2_465
O2 O2 O1 113.99(11) 6_554 2_465
Nb O2 O1 135.5(2) 1_554 2_465
Ga1 O2 O1 135.5(2) 1_554 2_465
O1 O2 O1 93.30(13) 2_455 2_465
O3 O2 O1 160.2(2) 6_655 2_465
Ga2 O2 O1 95.25(14) 1_554 2_465
Ga3 O2 O1 71.31(11) 1_665 2_465
Ga3 O2 O1 173.4(2) 1_655 2_465
O2 O2 O1 84.39(16) 1_556 2_465
O2 O2 O1 95.61(16) 1_554 2_465
O2 O2 O1 74.5(2) 2_455 2_465
O2 O2 O1 84.3(2) 2_565 2_465
O3 O2 O1 49.11(17) 1_554 2_465
O3 O2 O1 144.5(2) 4_444 2_465
Ga2 O2 O1 98.96(17) 1_665 2_465
O2 O2 O1 122.2(3) 6_664 2_465
O2 O2 O1 29.57(16) 6_564 2_465
O2 O2 O1 105.81(14) 6 2_465
O3 O2 O1 30.45(10) 5_455 2_465
Ga1 O2 O1 47.89(8) 1_565 2_465
Nb O2 O1 47.89(8) 1_565 2_465
La O2 O1 48.14(15) 4_454 2_465
O3 O2 O1 43.80(13) . 2_465
O3 O2 O1 133.6(2) 4_445 2_465
O3 O2 O1 30.45(10) 2_465 2_465
O3 O2 O1 59.14(11) 6 2_465
O3 O2 O1 125.3(2) 2_564 2_465
La O2 O1 133.4(2) 4_554 2_465
O3 O2 O1 115.8(2) 5_444 2_465
O1 O2 O1 106.78(19) 2_564 2_465
O2 O2 O1 131.9(2) 3 2_465
O2 O2 O1 166.7(2) 4 2_465
O2 O2 O1 113.7(2) 6_665 2_465
O2 O2 O1 28.11(15) 6_565 2_465
O2 O2 O1 76.1(2) 4_454 2_465
O2 O2 O1 65.75(19) 4_456 2_465
O2 O2 O1 56.00(19) 3_566 2_465
O2 O2 O1 67.1(2) 3_564 2_465
La O2 O1 96.24(14) 1_665 2_465
O2 O2 O1 139.9(2) 3_665 2_465
O2 O2 O1 80.2(2) 4_565 2_465
O3 O2 O1 111.2(2) 2_566 2_465
O3 O2 O1 76.13(17) 6_664 2_465
O3 O2 O1 103.49(19) 5_446 2_465
Ga2 O2 O3 71.6(3) 2_565 1_664
Ga3 O2 O3 96.3(3) 2_564 1_664
La O2 O3 61.5(2) 2_565 1_664
O2 O2 O3 108.4(3) 4_455 1_664
O2 O2 O3 53.1(3) 3_565 1_664
O3 O2 O3 108.3(3) 2_565 1_664
La O2 O3 151.5(3) . 1_664
O2 O2 O3 56.89(12) 5_554 1_664
O3 O2 O3 158.8(3) 5_445 1_664
O1 O2 O3 102.4(2) . 1_664
O3 O2 O3 104.2(4) 3_564 1_664
O1 O2 O3 66.52(18) 1_554 1_664
O3 O2 O3 141.0(3) 3_565 1_664
O1 O2 O3 56.8(2) 2_565 1_664
Nb O2 O3 139.5(2) . 1_664
Ga1 O2 O3 139.5(2) . 1_664
Ga2 O2 O3 45.27(14) 1_664 1_664
O2 O2 O3 94.64(19) 5 1_664
O3 O2 O3 26.3(2) 6_665 1_664
La O2 O3 41.14(13) 2_564 1_664
Ga3 O2 O3 33.97(11) 4_455 1_664
Ga3 O2 O3 141.0(2) 4_445 1_664
O3 O2 O3 19.58(17) 4_454 1_664
La O2 O3 98.66(18) 1_554 1_664
La O2 O3 83.66(17) 4_455 1_664
Ga3 O2 O3 118.3(2) 2_565 1_664
Ga3 O2 O3 108.17(17) . 1_664
O3 O2 O3 95.9(2) 1_654 1_664
O3 O2 O3 61.49(14) 4_455 1_664
La O2 O3 90.91(17) 4 1_664
Ga2 O2 O3 106.43(19) 2_566 1_664
O2 O2 O3 116.6(3) 2_454 1_664
O2 O2 O3 23.41(18) 2_564 1_664
O3 O2 O3 119.6(2) 1_655 1_664
O2 O2 O3 133.5(3) 6_554 1_664
Nb O2 O3 100.52(18) 1_554 1_664
Ga1 O2 O3 100.52(18) 1_554 1_664
O1 O2 O3 152.8(2) 2_455 1_664
O3 O2 O3 133.3(2) 6_655 1_664
Ga2 O2 O3 137.73(18) 1_554 1_664
Ga3 O2 O3 12.26(8) 1_665 1_664
Ga3 O2 O3 113.01(18) 1_655 1_664
O2 O2 O3 111.53(13) 1_556 1_664
O2 O2 O3 68.47(13) 1_554 1_664
O2 O2 O3 139.7(3) 2_455 1_664
O2 O2 O3 62.93(16) 2_565 1_664
O3 O2 O3 89.02(18) 1_554 1_664
O3 O2 O3 122.6(2) 4_444 1_664
Ga2 O2 O3 82.00(15) 1_665 1_664
O2 O2 O3 55.9(2) 6_664 1_664
O2 O2 O3 48.28(19) 6_564 1_664
O2 O2 O3 165.8(3) 6 1_664
O3 O2 O3 39.6(2) 5_455 1_664
Ga1 O2 O3 40.71(12) 1_565 1_664
Nb O2 O3 40.71(12) 1_565 1_664
La O2 O3 64.17(12) 4_454 1_664
O3 O2 O3 109.2(2) . 1_664
O3 O2 O3 149.93(18) 4_445 1_664
O3 O2 O3 93.48(14) 2_465 1_664
O3 O2 O3 120.20(19) 6 1_664
O3 O2 O3 79.73(19) 2_564 1_664
La O2 O3 71.11(14) 4_554 1_664
O3 O2 O3 98.50(15) 5_444 1_664
O1 O2 O3 47.85(13) 2_564 1_664
O2 O2 O3 154.46(16) 3 1_664
O2 O2 O3 104.8(2) 4 1_664
O2 O2 O3 79.1(2) 6_665 1_664
O2 O2 O3 73.4(2) 6_565 1_664
O2 O2 O3 80.39(16) 4_454 1_664
O2 O2 O3 118.3(2) 4_456 1_664
O2 O2 O3 91.6(2) 3_566 1_664
O2 O2 O3 52.20(17) 3_564 1_664
La O2 O3 50.85(11) 1_665 1_664
O2 O2 O3 79.05(14) 3_665 1_664
O2 O2 O3 27.92(14) 4_565 1_664
O3 O2 O3 116.8(2) 2_566 1_664
O3 O2 O3 29.47(18) 6_664 1_664
O3 O2 O3 138.13(19) 5_446 1_664
O1 O2 O3 66.47(14) 2_465 1_664
Ga3 O3 Nb 113.3(4) 1_556 1_455
Ga3 O3 Ga1 113.3(4) 1_556 1_455
Nb O3 Ga1 0.0 1_455 1_455
Ga3 O3 La 138.4(4) 1_556 4_455
Nb O3 La 104.4(4) 1_455 4_455
Ga1 O3 La 104.4(4) 1_455 4_455
Ga3 O3 Ga3 95.6(4) 1_556 2_465
Nb O3 Ga3 86.5(3) 1_455 2_465
Ga1 O3 Ga3 86.5(3) 1_455 2_465
La O3 Ga3 103.9(3) 4_455 2_465
Ga3 O3 O3 156.1(6) 1_556 2_465
Nb O3 O3 48.2(3) 1_455 2_465
Ga1 O3 O3 48.2(3) 1_455 2_465
La O3 O3 56.3(2) 4_455 2_465
Ga3 O3 O3 97.6(5) 2_465 2_465
Ga3 O3 O3 66.7(4) 1_556 4_345
Nb O3 O3 46.8(2) 1_455 4_345
Ga1 O3 O3 46.8(2) 1_455 4_345
La O3 O3 149.1(2) 4_455 4_345
Ga3 O3 O3 87.4(2) 2_465 4_345
O3 O3 O3 94.12(8) 2_465 4_345
Ga3 O3 O3 106.7(3) 1_556 3_465
Nb O3 O3 46.8(2) 1_455 3_465
Ga1 O3 O3 46.8(2) 1_455 3_465
La O3 O3 111.8(5) 4_455 3_465
Ga3 O3 O3 39.8(2) 2_465 3_465
O3 O3 O3 72.4(4) 2_465 3_465
O3 O3 O3 60.000(1) 4_345 3_465
Ga3 O3 O2 40.7(3) 1_556 2_455
Nb O3 O2 95.9(4) 1_455 2_455
Ga1 O3 O2 95.9(4) 1_455 2_455
La O3 O2 120.6(4) 4_455 2_455
Ga3 O3 O2 132.9(4) 2_465 2_455
O3 O3 O2 118.7(6) 2_465 2_455
O3 O3 O2 62.7(4) 4_345 2_455
O3 O3 O2 122.3(4) 3_465 2_455
Ga3 O3 O3 63.6(3) 1_556 2_466
Nb O3 O3 118.1(4) 1_455 2_466
Ga1 O3 O3 118.1(4) 1_455 2_466
La O3 O3 113.1(3) 4_455 2_466
Ga3 O3 O3 38.6(3) 2_465 2_466
O3 O3 O3 134.9(7) 2_465 2_466
O3 O3 O3 93.85(8) 4_345 2_466
O3 O3 O3 73.6(3) 3_465 2_466
O2 O3 O3 104.3(4) 2_455 2_466
Ga3 O3 O2 126.9(5) 1_556 5_455
Nb O3 O2 93.7(4) 1_455 5_455
Ga1 O3 O2 93.7(4) 1_455 5_455
La O3 O2 64.8(3) 4_455 5_455
Ga3 O3 O2 39.1(2) 2_465 5_455
O3 O3 O2 74.3(4) 2_465 5_455
O3 O3 O2 119.6(4) 4_345 5_455
O3 O3 O2 60.0(4) 3_465 5_455
O2 O3 O2 167.0(5) 2_455 5_455
O3 O3 O2 63.3(4) 2_466 5_455
Ga3 O3 O2 35.6(2) 1_556 4_456
Nb O3 O2 148.8(4) 1_455 4_456
Ga1 O3 O2 148.8(4) 1_455 4_456
La O3 O2 104.6(3) 4_455 4_456
Ga3 O3 O2 97.5(4) 2_465 4_456
O3 O3 O2 158.2(4) 2_465 4_456
O3 O3 O2 102.2(4) 4_345 4_456
O3 O3 O2 128.5(2) 3_465 4_456
O2 O3 O2 59.0(4) 2_455 4_456
O3 O3 O2 58.9(3) 2_466 4_456
O2 O3 O2 108.9(4) 5_455 4_456
Ga3 O3 O1 86.8(4) 1_556 .
Nb O3 O1 134.5(5) 1_455 .
Ga1 O3 O1 134.5(5) 1_455 .
La O3 O1 53.3(2) 4_455 .
Ga3 O3 O1 133.7(4) 2_465 .
O3 O3 O1 98.2(4) 2_465 .
O3 O3 O1 134.1(5) 4_345 .
O3 O3 O1 164.7(5) 3_465 .
O2 O3 O1 72.7(3) 2_455 .
O3 O3 O1 107.4(4) 2_466 .
O2 O3 O1 106.2(3) 5_455 .
O2 O3 O1 60.0(3) 4_456 .
Ga3 O3 O3 101.3(4) 1_556 6
Nb O3 O3 37.0(3) 1_455 6
Ga1 O3 O3 37.0(3) 1_455 6
La O3 O3 98.2(4) 4_455 6
Ga3 O3 O3 123.08(18) 2_465 6
O3 O3 O3 54.8(4) 2_465 6
O3 O3 O3 52.8(3) 4_345 6
O3 O3 O3 83.3(2) 3_465 6
O2 O3 O3 67.6(3) 2_455 6
O3 O3 O3 146.2(3) 2_466 6
O2 O3 O3 124.7(4) 5_455 6
O2 O3 O3 126.4(4) 4_456 6
O1 O3 O3 101.4(3) . 6
Ga3 O3 O2 111.9(4) 1_556 4_455
Nb O3 O2 80.7(4) 1_455 4_455
Ga1 O3 O2 80.7(4) 1_455 4_455
La O3 O2 56.8(3) 4_455 4_455
Ga3 O3 O2 152.4(4) 2_465 4_455
O3 O3 O2 55.9(4) 2_465 4_455
O3 O3 O2 101.0(3) 4_345 4_455
O3 O3 O2 124.0(2) 3_465 4_455
O2 O3 O2 73.1(4) 2_455 4_455
O3 O3 O2 161.2(3) 2_466 4_455
O2 O3 O2 117.2(4) 5_455 4_455
O2 O3 O2 106.1(4) 4_456 4_455
O1 O3 O2 53.9(3) . 4_455
O3 O3 O2 50.9(3) 6 4_455
Ga3 O3 O3 23.3(3) 1_556 6_556
Nb O3 O3 99.8(4) 1_455 6_556
Ga1 O3 O3 99.8(4) 1_455 6_556
La O3 O3 155.6(4) 4_455 6_556
Ga3 O3 O3 75.5(2) 2_465 6_556
O3 O3 O3 148.0(2) 2_465 6_556
O3 O3 O3 54.8(4) 4_345 6_556
O3 O3 O3 83.6(2) 3_465 6_556
O2 O3 O3 57.7(3) 2_455 6_556
O3 O3 O3 51.5(3) 2_466 6_556
O2 O3 O3 112.0(4) 5_455 6_556
O2 O3 O3 52.2(3) 4_456 6_556
O1 O3 O3 109.2(3) . 6_556
O3 O3 O3 102.4(5) 6 6_556
O2 O3 O3 130.7(4) 4_455 6_556
Ga3 O3 Ga2 65.1(2) 1_556 2_566
Nb O3 Ga2 161.7(5) 1_455 2_566
Ga1 O3 Ga2 161.7(5) 1_455 2_566
La O3 Ga2 73.48(19) 4_455 2_566
Ga3 O3 Ga2 111.8(3) 2_465 2_566
O3 O3 Ga2 126.6(3) 2_465 2_566
O3 O3 Ga2 129.3(4) 4_345 2_566
O3 O3 Ga2 151.3(3) 3_465 2_566
O2 O3 Ga2 70.9(3) 2_455 2_566
O3 O3 Ga2 78.4(3) 2_466 2_566
O2 O3 Ga2 101.4(3) 5_455 2_566
O2 O3 Ga2 31.93(18) 4_456 2_566
O1 O3 Ga2 30.4(3) . 2_566
O3 O3 Ga2 124.70(18) 6 2_566
O2 O3 Ga2 83.2(3) 4_455 2_566
O3 O3 Ga2 84.1(2) 6_556 2_566
Ga3 O3 Ga3 64.1(2) 1_556 4_346
Nb O3 Ga3 59.6(2) 1_455 4_346
Ga1 O3 Ga3 59.6(2) 1_455 4_346
La O3 Ga3 156.7(3) 4_455 4_346
Ga3 O3 Ga3 60.89(18) 2_465 4_346
O3 O3 Ga3 105.80(17) 2_465 4_346
O3 O3 Ga3 28.19(14) 4_345 4_346
O3 O3 Ga3 45.00(19) 3_465 4_346
O2 O3 Ga3 80.0(3) 2_455 4_346
O3 O3 Ga3 67.30(16) 2_466 4_346
O2 O3 Ga3 97.5(3) 5_455 4_346
O2 O3 Ga3 95.3(3) 4_456 4_346
O1 O3 Ga3 150.0(3) . 4_346
O3 O3 Ga3 78.9(3) 6 4_346
O2 O3 Ga3 128.9(3) 4_455 4_346
O3 O3 Ga3 43.25(17) 6_556 4_346
Ga2 O3 Ga3 127.2(3) 2_566 4_346
Ga3 O3 La 73.9(3) 1_556 .
Nb O3 La 102.3(4) 1_455 .
Ga1 O3 La 102.3(4) 1_455 .
La O3 La 81.7(3) 4_455 .
Ga3 O3 La 168.3(3) 2_465 .
O3 O3 La 94.1(5) 2_465 .
O3 O3 La 92.9(4) 4_345 .
O3 O3 La 147.6(4) 3_465 .
O2 O3 La 39.3(2) 2_455 .
O3 O3 La 129.7(4) 2_466 .
O2 O3 La 145.6(3) 5_455 .
O2 O3 La 71.0(3) 4_456 .
O1 O3 La 42.40(15) . .
O3 O3 La 65.28(13) 6 .
O2 O3 La 38.8(2) 4_455 .
O3 O3 La 95.14(18) 6_556 .
Ga2 O3 La 59.44(14) 2_566 .
Ga3 O3 La 116.8(2) 4_346 .
Ga3 O3 O2 116.9(4) 1_556 6_565
Nb O3 O2 128.7(4) 1_455 6_565
Ga1 O3 O2 128.7(4) 1_455 6_565
La O3 O2 36.31(19) 4_455 6_565
Ga3 O3 O2 78.9(3) 2_465 6_565
O3 O3 O2 85.2(2) 2_465 6_565
O3 O3 O2 166.0(5) 4_345 6_565
O3 O3 O2 106.7(5) 3_465 6_565
O2 O3 O2 129.5(4) 2_455 6_565
O3 O3 O2 77.1(2) 2_466 6_565
O2 O3 O2 46.8(3) 5_455 6_565
O2 O3 O2 82.3(2) 4_456 6_565
O1 O3 O2 59.59(18) . 6_565
O3 O3 O2 134.3(4) 6 6_565
O2 O3 O2 90.2(3) 4_455 6_565
O3 O3 O2 122.7(4) 6_556 6_565
Ga2 O3 O2 59.87(18) 2_566 6_565
Ga3 O3 O2 139.1(3) 4_346 6_565
La O3 O2 101.1(2) . 6_565
Ga3 O3 O3 119.9(3) 1_556 5_345
Nb O3 O3 8.2(3) 1_455 5_345
Ga1 O3 O3 8.2(3) 1_455 5_345
La O3 O3 99.5(3) 4_455 5_345
Ga3 O3 O3 81.2(2) 2_465 5_345
O3 O3 O3 43.6(2) 2_465 5_345
O3 O3 O3 53.3(3) 4_345 5_345
O3 O3 O3 42.2(3) 3_465 5_345
O2 O3 O3 104.2(3) 2_455 5_345
O3 O3 O3 115.4(4) 2_466 5_345
O2 O3 O3 85.7(2) 5_455 5_345
O2 O3 O3 155.5(3) 4_456 5_345
O1 O3 O3 136.2(5) . 5_345
O3 O3 O3 43.4(2) 6 5_345
O2 O3 O3 83.0(3) 4_455 5_345
O3 O3 O3 104.4(2) 6_556 5_345
Ga2 O3 O3 166.2(4) 2_566 5_345
Ga3 O3 O3 62.5(2) 4_346 5_345
La O3 O3 108.3(3) . 5_345
O2 O3 O3 121.0(2) 6_565 5_345
Ga3 O3 Ga3 118.2(4) 1_556 .
Nb O3 Ga3 52.9(2) 1_455 .
Ga1 O3 Ga3 52.9(2) 1_455 .
La O3 Ga3 71.9(2) 4_455 .
Ga3 O3 Ga3 134.0(3) 2_465 .
O3 O3 Ga3 40.8(3) 2_465 .
O3 O3 Ga3 79.52(18) 4_345 .
O3 O3 Ga3 97.60(11) 3_465 .
O2 O3 Ga3 78.3(3) 2_455 .
O3 O3 Ga3 170.9(3) 2_466 .
O2 O3 Ga3 114.6(3) 5_455 .
O2 O3 Ga3 128.3(4) 4_456 .
O1 O3 Ga3 81.7(3) . .
O3 O3 Ga3 26.8(2) 6 .
O2 O3 Ga3 27.84(17) 4_455 .
O3 O3 Ga3 126.4(4) 6_556 .
Ga2 O3 Ga3 110.5(3) 2_566 .
Ga3 O3 Ga3 105.0(2) 4_346 .
La O3 Ga3 57.40(15) . .
O2 O3 Ga3 108.2(3) 6_565 .
O3 O3 Ga3 55.6(2) 5_345 .
Ga3 O3 Ga2 114.7(4) 1_556 1_565
Nb O3 Ga2 117.7(3) 1_455 1_565
Ga1 O3 Ga2 117.7(3) 1_455 1_565
La O3 Ga2 57.21(19) 4_455 1_565
Ga3 O3 Ga2 52.01(17) 2_465 1_565
O3 O3 Ga2 89.0(3) 2_465 1_565
O3 O3 Ga2 139.3(4) 4_345 1_565
O3 O3 Ga2 82.7(4) 3_465 1_565
O2 O3 Ga2 146.1(3) 2_455 1_565
O3 O3 Ga2 57.8(2) 2_466 1_565
O2 O3 Ga2 24.38(19) 5_455 1_565
O2 O3 Ga2 87.9(3) 4_456 1_565
O1 O3 Ga2 85.13(19) . 1_565
O3 O3 Ga2 143.7(4) 6 1_565
O2 O3 Ga2 114.0(3) 4_455 1_565
O3 O3 Ga2 109.1(4) 6_556 1_565
Ga2 O3 Ga2 77.04(17) 2_566 1_565
Ga3 O3 Ga2 112.6(3) 4_346 1_565
La O3 Ga2 127.4(2) . 1_565
O2 O3 Ga2 26.86(14) 6_565 1_565
O3 O3 Ga2 109.52(12) 5_345 1_565
Ga3 O3 Ga2 124.3(2) . 1_565
Ga3 O3 O3 64.9(3) 1_556 5_346
Nb O3 O3 78.8(3) 1_455 5_346
Ga1 O3 O3 78.8(3) 1_455 5_346
La O3 O3 142.6(2) 4_455 5_346
Ga3 O3 O3 38.75(19) 2_465 5_346
O3 O3 O3 116.4(3) 2_465 5_346
O3 O3 O3 54.6(2) 4_345 5_346
O3 O3 O3 44.2(2) 3_465 5_346
O2 O3 O3 95.5(3) 2_455 5_346
O3 O3 O3 41.93(18) 2_466 5_346
O2 O3 O3 77.8(3) 5_455 5_346
O2 O3 O3 85.1(3) 4_456 5_346
O1 O3 O3 144.5(5) . 5_346
O3 O3 O3 104.7(2) 6 5_346
O2 O3 O3 155.3(3) 4_455 5_346
O3 O3 O3 41.72(18) 6_556 5_346
Ga2 O3 O3 114.2(3) 2_566 5_346
Ga3 O3 O3 26.53(14) 4_346 5_346
La O3 O3 134.77(16) . 5_346
O2 O3 O3 113.3(3) 6_565 5_346
O3 O3 O3 78.7(3) 5_345 5_346
Ga3 O3 O3 129.6(3) . 5_346
Ga2 O3 O3 87.85(17) 1_565 5_346
Ga3 O3 Nb 45.9(3) 1_556 1_456
Nb O3 Nb 105.6(3) 1_455 1_456
Ga1 O3 Nb 105.6(3) 1_455 1_456
La O3 Nb 137.7(3) 4_455 1_456
Ga3 O3 Nb 49.73(17) 2_465 1_456
O3 O3 Nb 143.1(4) 2_465 1_456
O3 O3 Nb 70.92(9) 4_345 1_456
O3 O3 Nb 70.92(9) 3_465 1_456
O2 O3 Nb 84.9(3) 2_455 1_456
O3 O3 Nb 24.91(15) 2_466 1_456
O2 O3 Nb 84.1(3) 5_455 1_456
O2 O3 Nb 57.6(2) 4_456 1_456
O1 O3 Nb 116.6(3) . 1_456
O3 O3 Nb 123.5(4) 6 1_456
O2 O3 Nb 157.7(3) 4_455 1_456
O3 O3 Nb 28.05(18) 6_556 1_456
Ga2 O3 Nb 86.34(19) 2_566 1_456
Ga3 O3 Nb 47.31(11) 4_346 1_456
La O3 Nb 119.5(2) . 1_456
O2 O3 Nb 101.4(3) 6_565 1_456
O3 O3 Nb 106.3(3) 5_345 1_456
Ga3 O3 Nb 150.2(2) . 1_456
Ga2 O3 Nb 82.5(2) 1_565 1_456
O3 O3 Nb 27.92(16) 5_346 1_456
Ga3 O3 Ga1 45.9(3) 1_556 1_456
Nb O3 Ga1 105.6(3) 1_455 1_456
Ga1 O3 Ga1 105.6(3) 1_455 1_456
La O3 Ga1 137.7(3) 4_455 1_456
Ga3 O3 Ga1 49.73(17) 2_465 1_456
O3 O3 Ga1 143.1(4) 2_465 1_456
O3 O3 Ga1 70.92(9) 4_345 1_456
O3 O3 Ga1 70.92(9) 3_465 1_456
O2 O3 Ga1 84.9(3) 2_455 1_456
O3 O3 Ga1 24.91(15) 2_466 1_456
O2 O3 Ga1 84.1(3) 5_455 1_456
O2 O3 Ga1 57.6(2) 4_456 1_456
O1 O3 Ga1 116.6(3) . 1_456
O3 O3 Ga1 123.5(4) 6 1_456
O2 O3 Ga1 157.7(3) 4_455 1_456
O3 O3 Ga1 28.05(18) 6_556 1_456
Ga2 O3 Ga1 86.34(19) 2_566 1_456
Ga3 O3 Ga1 47.31(11) 4_346 1_456
La O3 Ga1 119.5(2) . 1_456
O2 O3 Ga1 101.4(3) 6_565 1_456
O3 O3 Ga1 106.3(3) 5_345 1_456
Ga3 O3 Ga1 150.2(2) . 1_456
Ga2 O3 Ga1 82.5(2) 1_565 1_456
O3 O3 Ga1 27.92(16) 5_346 1_456
Nb O3 Ga1 0.0 1_456 1_456
Ga3 O3 La 68.0(3) 1_556 2_455
Nb O3 La 54.1(2) 1_455 2_455
Ga1 O3 La 54.1(2) 1_455 2_455
La O3 La 127.9(4) 4_455 2_455
Ga3 O3 La 118.9(3) 2_465 2_455
O3 O3 La 88.2(3) 2_465 2_455
O3 O3 La 31.6(3) 4_345 2_455
O3 O3 La 87.3(3) 3_465 2_455
O2 O3 La 41.9(2) 2_455 2_455
O3 O3 La 118.9(2) 2_466 2_455
O2 O3 La 146.1(3) 5_455 2_455
O2 O3 La 98.2(3) 4_456 2_455
O1 O3 La 104.8(3) . 2_455
O3 O3 La 33.9(2) 6 2_455
O2 O3 La 72.1(2) 4_455 2_455
O3 O3 La 69.3(3) 6_556 2_455
Ga2 O3 La 112.2(2) 2_566 2_455
Ga3 O3 La 59.10(12) 4_346 2_455
La O3 La 62.46(15) . 2_455
O2 O3 La 161.8(3) 6_565 2_455
O3 O3 La 62.33(11) 5_345 2_455
Ga3 O3 La 57.29(13) . 2_455
Ga2 O3 La 170.0(2) 1_565 2_455
O3 O3 La 84.78(15) 5_346 2_455
Nb O3 La 94.01(17) 1_456 2_455
Ga1 O3 La 94.01(17) 1_456 2_455
Ga3 O3 O2 76.7(3) 1_556 3_566
Nb O3 O2 169.5(4) 1_455 3_566
Ga1 O3 O2 169.5(4) 1_455 3_566
La O3 O2 67.2(2) 4_455 3_566
Ga3 O3 O2 89.3(3) 2_465 3_566
O3 O3 O2 123.14(18) 2_465 3_566
O3 O3 O2 142.7(3) 4_345 3_566
O3 O3 O2 128.8(4) 3_465 3_566
O2 O3 O2 94.0(3) 2_455 3_566
O3 O3 O2 62.4(2) 2_466 3_566
O2 O3 O2 77.0(2) 5_455 3_566
O2 O3 O2 41.5(3) 4_456 3_566
O1 O3 O2 46.3(3) . 3_566
O3 O3 O2 147.4(2) 6 3_566
O2 O3 O2 99.0(3) 4_455 3_566
O3 O3 O2 88.4(3) 6_556 3_566
Ga2 O3 O2 25.00(13) 2_566 3_566
Ga3 O3 O2 125.9(3) 4_346 3_566
La O3 O2 83.35(19) . 3_566
O2 O3 O2 40.9(3) 6_565 3_566
O3 O3 O2 161.41(18) 5_345 3_566
Ga3 O3 O2 126.5(3) . 3_566
Ga2 O3 O2 52.71(16) 1_565 3_566
O3 O3 O2 103.7(3) 5_346 3_566
Nb O3 O2 78.7(2) 1_456 3_566
Ga1 O3 O2 78.7(2) 1_456 3_566
La O3 O2 135.9(2) 2_455 3_566
Ga3 O3 Ga3 154.2(4) 1_556 2_464
Nb O3 Ga3 41.71(19) 1_455 2_464
Ga1 O3 Ga3 41.71(19) 1_455 2_464
La O3 Ga3 63.39(19) 4_455 2_464
Ga3 O3 Ga3 89.5(2) 2_465 2_464
O3 O3 Ga3 9.7(2) 2_465 2_464
O3 O3 Ga3 88.45(15) 4_345 2_464
O3 O3 Ga3 62.75(18) 3_465 2_464
O2 O3 Ga3 122.5(4) 2_455 2_464
O3 O3 Ga3 127.7(4) 2_466 2_464
O2 O3 Ga3 70.5(2) 5_455 2_464
O2 O3 Ga3 167.4(3) 4_456 2_464
O1 O3 Ga3 107.7(3) . 2_464
O3 O3 Ga3 55.7(2) 6 2_464
O2 O3 Ga3 64.8(2) 4_455 2_464
O3 O3 Ga3 140.2(3) 6_556 2_464
Ga2 O3 Ga3 135.5(2) 2_566 2_464
Ga3 O3 Ga3 97.23(16) 4_346 2_464
La O3 Ga3 102.2(2) . 2_464
O2 O3 Ga3 88.8(2) 6_565 2_464
O3 O3 Ga3 36.07(19) 5_345 2_464
Ga3 O3 Ga3 46.62(11) . 2_464
Ga2 O3 Ga3 88.21(17) 1_565 2_464
O3 O3 Ga3 106.8(2) 5_346 2_464
Nb O3 Ga3 133.5(2) 1_456 2_464
Ga1 O3 Ga3 133.5(2) 1_456 2_464
La O3 Ga3 87.41(17) 2_455 2_464
O2 O3 Ga3 128.7(2) 3_566 2_464
Ga3 O3 La 64.2(3) 1_556 4_456
Nb O3 La 147.9(4) 1_455 4_456
Ga1 O3 La 147.9(4) 1_455 4_456
La O3 La 92.6(2) 4_455 4_456
Ga3 O3 La 62.8(2) 2_465 4_456
O3 O3 La 139.7(4) 2_465 4_456
O3 O3 La 117.95(11) 4_345 4_456
O3 O3 La 101.7(2) 3_465 4_456
O2 O3 La 98.5(3) 2_455 4_456
O3 O3 La 30.18(15) 2_466 4_456
O2 O3 La 68.9(3) 5_455 4_456
O2 O3 La 40.4(2) 4_456 4_456
O1 O3 La 77.4(3) . 4_456
O3 O3 La 165.5(4) 6 4_456
O2 O3 La 131.0(3) 4_455 4_456
O3 O3 La 65.1(3) 6_556 4_456
Ga2 O3 La 49.61(12) 2_566 4_456
Ga3 O3 La 94.9(2) 4_346 4_456
La O3 La 107.05(17) . 4_456
O2 O3 La 57.63(19) 6_565 4_456
O3 O3 La 143.9(3) 5_345 4_456
Ga3 O3 La 158.8(2) . 4_456
Ga2 O3 La 50.83(12) 1_565 4_456
O3 O3 La 71.4(2) 5_346 4_456
Nb O3 La 47.86(11) 1_456 4_456
Ga1 O3 La 47.86(11) 1_456 4_456
La O3 La 132.0(2) 2_455 4_456
O2 O3 La 32.36(15) 3_566 4_456
Ga3 O3 La 138.7(2) 2_464 4_456
Ga3 O3 O1 157.9(4) 1_556 2_465
Nb O3 O1 88.0(3) 1_455 2_465
Ga1 O3 O1 88.0(3) 1_455 2_465
La O3 O1 28.77(13) 4_455 2_465
Ga3 O3 O1 79.5(3) 2_465 2_465
O3 O3 O1 45.3(2) 2_465 2_465
O3 O3 O1 133.8(3) 4_345 2_465
O3 O3 O1 83.3(4) 3_465 2_465
O2 O3 O1 147.5(4) 2_455 2_465
O3 O3 O1 102.1(4) 2_466 2_465
O2 O3 O1 41.5(3) 5_455 2_465
O2 O3 O1 123.2(3) 4_456 2_465
O1 O3 O1 81.5(2) . 2_465
O3 O3 O1 99.3(4) 6 2_465
O2 O3 O1 75.8(3) 4_455 2_465
O3 O3 O1 153.2(4) 6_556 2_465
Ga2 O3 O1 96.5(2) 2_566 2_465
Ga3 O3 O1 128.3(2) 4_346 2_465
La O3 O1 108.3(2) . 2_465
O2 O3 O1 41.1(2) 6_565 2_465
O3 O3 O1 80.9(2) 5_345 2_465
Ga3 O3 O1 78.6(2) . 2_465
Ga2 O3 O1 45.9(2) 1_565 2_465
O3 O3 O1 116.90(17) 5_346 2_465
Nb O3 O1 125.1(3) 1_456 2_465
Ga1 O3 O1 125.1(3) 1_456 2_465
La O3 O1 133.2(3) 2_455 2_465
O2 O3 O1 81.7(2) 3_566 2_465
Ga3 O3 O1 47.80(16) 2_464 2_465
La O3 O1 94.9(3) 4_456 2_465
Ga3 O3 O2 95.1(4) 1_556 1_456
Nb O3 O2 87.8(3) 1_455 1_456
Ga1 O3 O2 87.8(3) 1_455 1_456
La O3 O2 103.5(3) 4_455 1_456
Ga3 O3 O2 1.33(13) 2_465 1_456
O3 O3 O2 98.5(5) 2_465 1_456
O3 O3 O2 88.3(3) 4_345 1_456
O3 O3 O2 41.1(2) 3_465 1_456
O2 O3 O2 132.8(4) 2_455 1_456
O3 O3 O2 37.6(3) 2_466 1_456
O2 O3 O2 38.9(3) 5_455 1_456
O2 O3 O2 96.4(4) 4_456 1_456
O1 O3 O2 132.5(3) . 1_456
O3 O3 O2 124.41(17) 6 1_456
O2 O3 O2 153.0(3) 4_455 1_456
O3 O3 O2 75.2(2) 6_556 1_456
Ga2 O3 O2 110.5(3) 2_566 1_456
Ga3 O3 O2 61.63(19) 4_346 1_456
La O3 O2 167.3(3) . 1_456
O2 O3 O2 78.0(2) 6_565 1_456
O3 O3 O2 82.5(2) 5_345 1_456
Ga3 O3 O2 135.2(2) . 1_456
Ga2 O3 O2 51.15(18) 1_565 1_456
O3 O3 O2 39.10(17) 5_346 1_456
Nb O3 O2 49.23(17) 1_456 1_456
Ga1 O3 O2 49.23(17) 1_456 1_456
La O3 O2 119.9(2) 2_455 1_456
O2 O3 O2 88.0(3) 3_566 1_456
Ga3 O3 O2 90.5(2) 2_464 1_456
La O3 O2 61.51(18) 4_456 1_456
O1 O3 O2 79.5(2) 2_465 1_456
Ga3 O3 O2 126.9(4) 1_556 3_565
Nb O3 O2 103.9(4) 1_455 3_565
Ga1 O3 O2 103.9(4) 1_455 3_565
La O3 O2 20.06(17) 4_455 3_565
Ga3 O3 O2 124.0(3) 2_465 3_565
O3 O3 O2 58.9(2) 2_465 3_565
O3 O3 O2 138.7(3) 4_345 3_565
O3 O3 O2 126.3(3) 3_465 3_565
O2 O3 O2 101.2(3) 2_455 3_565
O3 O3 O2 127.41(18) 2_466 3_565
O2 O3 O2 84.9(2) 5_455 3_565
O2 O3 O2 99.4(3) 4_456 3_565
O1 O3 O2 40.7(3) . 3_565
O3 O3 O2 86.2(3) 6 3_565
O2 O3 O2 38.8(2) 4_455 3_565
O3 O3 O2 149.86(18) 6_556 3_565
Ga2 O3 O2 67.74(19) 2_566 3_565
Ga3 O3 O2 163.4(3) 4_346 3_565
La O3 O2 61.94(18) . 3_565
O2 O3 O2 51.5(3) 6_565 3_565
O3 O3 O2 101.5(4) 5_345 3_565
Ga3 O3 O2 59.55(18) . 3_565
Ga2 O3 O2 75.70(17) 1_565 3_565
O3 O3 O2 162.69(17) 5_346 3_565
Nb O3 O2 149.1(2) 1_456 3_565
Ga1 O3 O2 149.1(2) 1_456 3_565
La O3 O2 110.8(3) 2_455 3_565
O2 O3 O2 70.67(18) 3_566 3_565
Ga3 O3 O2 67.97(19) 2_464 3_565
La O3 O2 101.27(19) 4_456 3_565
O1 O3 O2 46.91(16) 2_465 3_565
O2 O3 O2 123.6(3) 1_456 3_565
Ga3 O3 Ga2 32.1(2) 1_556 .
Nb O3 Ga2 98.9(3) 1_455 .
Ga1 O3 Ga2 98.9(3) 1_455 .
La O3 Ga2 126.9(3) 4_455 .
Ga3 O3 Ga2 124.7(3) 2_465 .
O3 O3 Ga2 126.6(5) 2_465 .
O3 O3 Ga2 61.0(4) 4_345 .
O3 O3 Ga2 118.9(3) 3_465 .
O2 O3 Ga2 8.7(2) 2_455 .
O3 O3 Ga2 95.8(3) 2_466 .
O2 O3 Ga2 158.9(4) 5_455 .
O2 O3 Ga2 53.6(2) 4_456 .
O1 O3 Ga2 76.4(2) . .
O3 O3 Ga2 73.9(2) 6 .
O2 O3 Ga2 81.6(3) 4_455 .
O3 O3 Ga2 49.30(16) 6_556 .
Ga2 O3 Ga2 69.92(14) 2_566 .
Ga3 O3 Ga2 74.89(15) 4_346 .
La O3 Ga2 46.75(10) . .
O2 O3 Ga2 129.7(2) 6_565 .
O3 O3 Ga2 107.14(10) 5_345 .
Ga3 O3 Ga2 86.46(19) . .
Ga2 O3 Ga2 141.5(2) 1_565 .
O3 O3 Ga2 88.10(15) 5_346 .
Nb O3 Ga2 76.32(14) 1_456 .
Ga1 O3 Ga2 76.32(14) 1_456 .
La O3 Ga2 45.14(9) 2_455 .
O2 O3 Ga2 91.41(19) 3_566 .
Ga3 O3 Ga2 129.4(2) 2_464 .
La O3 Ga2 91.84(16) 4_456 .
O1 O3 Ga2 155.0(3) 2_465 .
O2 O3 Ga2 124.5(2) 1_456 .
O2 O3 Ga2 108.1(2) 3_565 .
Ga3 O3 O2 150.4(4) 1_556 1_455
Nb O3 O2 45.7(2) 1_455 1_455
Ga1 O3 O2 45.7(2) 1_455 1_455
La O3 O2 70.8(2) 4_455 1_455
Ga3 O3 O2 66.29(19) 2_465 1_455
O3 O3 O2 31.6(3) 2_465 1_455
O3 O3 O2 88.4(3) 4_345 1_455
O3 O3 O2 44.3(3) 3_465 1_455
O2 O3 O2 140.1(4) 2_455 1_455
O3 O3 O2 104.5(4) 2_466 1_455
O2 O3 O2 51.7(3) 5_455 1_455
O2 O3 O2 160.5(4) 4_456 1_455
O1 O3 O2 122.8(3) . 1_455
O3 O3 O2 73.0(2) 6 1_455
O2 O3 O2 87.5(3) 4_455 1_455
O3 O3 O2 127.83(17) 6_556 1_455
Ga2 O3 O2 142.2(3) 2_566 1_455
Ga3 O3 O2 86.34(19) 4_346 1_455
La O3 O2 125.4(3) . 1_455
O2 O3 O2 83.7(2) 6_565 1_455
O3 O3 O2 37.65(18) 5_345 1_455
Ga3 O3 O2 69.38(18) . 1_455
Ga2 O3 O2 73.55(18) 1_565 1_455
O3 O3 O2 88.0(2) 5_346 1_455
Nb O3 O2 112.4(2) 1_456 1_455
Ga1 O3 O2 112.4(2) 1_456 1_455
La O3 O2 99.3(2) 2_455 1_455
O2 O3 O2 123.8(3) 3_566 1_455
Ga3 O3 O2 23.24(12) 2_464 1_455
La O3 O2 120.1(2) 4_456 1_455
O1 O3 O2 45.76(16) 2_465 1_455
O2 O3 O2 67.26(16) 1_456 1_455
O2 O3 O2 82.3(3) 3_565 1_455
Ga2 O3 O2 144.5(2) . 1_455
Ga3 O3 Ga2 117.7(4) 1_556 2_565
Nb O3 Ga2 92.4(3) 1_455 2_565
Ga1 O3 Ga2 92.4(3) 1_455 2_565
La O3 Ga2 41.63(18) 4_455 2_565
Ga3 O3 Ga2 143.8(3) 2_465 2_565
O3 O3 Ga2 57.3(3) 2_465 2_565
O3 O3 Ga2 117.4(3) 4_345 2_565
O3 O3 Ga2 129.65(14) 3_465 2_565
O2 O3 Ga2 83.2(3) 2_455 2_565
O3 O3 Ga2 147.08(11) 2_466 2_565
O2 O3 Ga2 105.1(3) 5_455 2_565
O2 O3 Ga2 101.8(3) 4_456 2_565
O1 O3 Ga2 43.5(3) . 2_565
O3 O3 Ga2 66.5(2) 6 2_565
O2 O3 Ga2 16.48(16) 4_455 2_565
O3 O3 Ga2 139.86(19) 6_556 2_565
Ga2 O3 Ga2 73.90(16) 2_566 2_565
Ga3 O3 Ga2 145.1(3) 4_346 2_565
La O3 Ga2 44.76(11) . 2_565
O2 O3 Ga2 73.84(19) 6_565 2_565
O3 O3 Ga2 92.9(3) 5_345 2_565
Ga3 O3 Ga2 41.28(10) . 2_565
Ga2 O3 Ga2 98.26(17) 1_565 2_565
O3 O3 Ga2 170.9(3) 5_346 2_565
Nb O3 Ga2 159.4(2) 1_456 2_565
Ga1 O3 Ga2 159.4(2) 1_456 2_565
La O3 Ga2 88.31(19) 2_455 2_565
O2 O3 Ga2 85.38(19) 3_566 2_565
Ga3 O3 Ga2 66.95(14) 2_464 2_565
La O3 Ga2 117.72(17) 4_456 2_565
O1 O3 Ga2 64.36(17) 2_465 2_565
O2 O3 Ga2 143.8(2) 1_456 2_565
O2 O3 Ga2 22.60(12) 3_565 2_565
Ga2 O3 Ga2 91.20(18) . 2_565
O2 O3 Ga2 87.3(2) 1_455 2_565
Ga3 O3 La 146.0(4) 1_556 2_465
Nb O3 La 73.9(2) 1_455 2_465
Ga1 O3 La 73.9(2) 1_455 2_465
La O3 La 60.96(19) 4_455 2_465
Ga3 O3 La 50.70(15) 2_465 2_465
O3 O3 La 52.3(4) 2_465 2_465
O3 O3 La 110.2(3) 4_345 2_465
O3 O3 La 52.4(3) 3_465 2_465
O2 O3 La 169.5(3) 2_455 2_465
O3 O3 La 83.3(4) 2_466 2_465
O2 O3 La 22.9(2) 5_455 2_465
O2 O3 La 131.5(3) 4_456 2_465
O1 O3 La 112.3(2) . 2_465
O3 O3 La 102.0(3) 6 2_465
O2 O3 La 102.0(3) 4_455 2_465
O3 O3 La 125.8(2) 6_556 2_465
Ga2 O3 La 118.3(2) 2_566 2_465
Ga3 O3 La 96.75(18) 4_346 2_465
La O3 La 139.1(2) . 2_465
O2 O3 La 58.69(17) 6_565 2_465
O3 O3 La 65.71(10) 5_345 2_465
Ga3 O3 La 93.11(17) . 2_465
Ga2 O3 La 44.25(10) 1_565 2_465
O3 O3 La 85.38(13) 5_346 2_465
Nb O3 La 100.3(2) 1_456 2_465
Ga1 O3 La 100.3(2) 1_456 2_465
La O3 La 128.04(18) 2_455 2_465
O2 O3 La 95.9(2) 3_566 2_465
Ga3 O3 La 47.75(9) 2_464 2_465
La O3 La 91.73(18) 4_456 2_465
O1 O3 La 32.34(9) 2_465 2_465
O2 O3 La 51.10(16) 1_456 2_465
O2 O3 La 79.11(18) 3_565 2_465
Ga2 O3 La 171.16(19) . 2_465
O2 O3 La 29.40(12) 1_455 2_465
Ga2 O3 La 94.30(16) 2_565 2_465
Ga3 O3 O2 83.1(3) 1_556 6_455
Nb O3 O2 41.5(2) 1_455 6_455
Ga1 O3 O2 41.5(2) 1_455 6_455
La O3 O2 138.5(3) 4_455 6_455
Ga3 O3 O2 60.60(19) 2_465 6_455
O3 O3 O2 86.17(19) 2_465 6_455
O3 O3 O2 29.3(3) 4_345 6_455
O3 O3 O2 31.1(3) 3_465 6_455
O2 O3 O2 91.2(2) 2_455 6_455
O3 O3 O2 79.7(2) 2_466 6_455
O2 O3 O2 90.3(2) 5_455 6_455
O2 O3 O2 115.1(3) 4_456 6_455
O1 O3 O2 163.5(3) . 6_455
O3 O3 O2 68.1(2) 6 6_455
O2 O3 O2 118.7(3) 4_455 6_455
O3 O3 O2 63.0(2) 6_556 6_455
Ga2 O3 O2 147.0(3) 2_566 6_455
Ga3 O3 O2 19.74(12) 4_346 6_455
La O3 O2 121.6(2) . 6_455
O2 O3 O2 136.9(3) 6_565 6_455
O3 O3 O2 43.3(2) 5_345 6_455
Ga3 O3 O2 91.64(19) . 6_455
Ga2 O3 O2 111.0(2) 1_565 6_455
O3 O3 O2 38.13(19) 5_346 6_455
Nb O3 O2 64.08(17) 1_456 6_455
Ga1 O3 O2 64.08(17) 1_456 6_455
La O3 O2 59.22(14) 2_455 6_455
O2 O3 O2 141.8(3) 3_566 6_455
Ga3 O3 O2 77.50(16) 2_464 6_455
La O3 O2 109.5(2) 4_456 6_455
O1 O3 O2 112.1(2) 2_465 6_455
O2 O3 O2 61.7(3) 1_456 6_455
O2 O3 O2 144.7(2) 3_565 6_455
Ga2 O3 O2 88.14(18) . 6_455
O2 O3 O2 67.7(2) 1_455 6_455
Ga2 O3 O2 132.8(2) 2_565 6_455
La O3 O2 83.05(17) 2_465 6_455
Ga3 O3 O1 94.7(4) 1_556 2_466
Nb O3 O1 127.6(4) 1_455 2_466
Ga1 O3 O1 127.6(4) 1_455 2_466
La O3 O1 74.7(2) 4_455 2_466
Ga3 O3 O1 45.84(16) 2_465 2_466
O3 O3 O1 108.7(4) 2_465 2_466
O3 O3 O1 129.1(3) 4_345 2_466
O3 O3 O1 83.9(3) 3_465 2_466
O2 O3 O1 130.5(3) 2_455 2_466
O3 O3 O1 38.6(2) 2_466 2_466
O2 O3 O1 37.1(2) 5_455 2_466
O2 O3 O1 71.8(3) 4_456 2_466
O1 O3 O1 87.9(2) . 2_466
O3 O3 O1 161.8(3) 6 2_466
O2 O3 O1 129.7(3) 4_455 2_466
O3 O3 O1 89.0(4) 6_556 2_466
Ga2 O3 O1 70.04(16) 2_566 2_466
Ga3 O3 O1 100.9(2) 4_346 2_466
La O3 O1 128.44(19) . 2_466
O2 O3 O1 39.51(18) 6_565 2_466
O3 O3 O1 120.24(18) 5_345 2_466
Ga3 O3 O1 144.6(2) . 2_466
Ga2 O3 O1 20.47(15) 1_565 2_466
O3 O3 O1 74.4(2) 5_346 2_466
Nb O3 O1 63.5(2) 1_456 2_466
Ga1 O3 O1 63.5(2) 1_456 2_466
La O3 O1 157.4(3) 2_455 2_466
O2 O3 O1 45.34(16) 3_566 2_466
Ga3 O3 O1 106.7(2) 2_464 2_466
La O3 O1 32.06(14) 4_456 2_466
O1 O3 O1 66.32(13) 2_465 2_466
O2 O3 O1 44.63(16) 1_456 2_466
O2 O3 O1 91.0(2) 3_565 2_466
Ga2 O3 O1 123.9(2) . 2_466
O2 O3 O1 88.8(2) 1_455 2_466
Ga2 O3 O1 113.22(18) 2_565 2_466
La O3 O1 59.84(15) 2_465 2_466
O2 O3 O1 105.9(2) 6_455 2_466
Ga3 O3 O1 72.6(3) 1_556 2_455
Nb O3 O1 74.5(3) 1_455 2_455
Ga1 O3 O1 74.5(3) 1_455 2_455
La O3 O1 102.5(3) 4_455 2_455
Ga3 O3 O1 150.6(3) 2_465 2_455
O3 O3 O1 86.3(5) 2_465 2_455
O3 O3 O1 63.2(3) 4_345 2_455
O3 O3 O1 116.7(3) 3_465 2_455
O2 O3 O1 32.5(3) 2_455 2_455
O3 O3 O1 136.0(4) 2_466 2_455
O2 O3 O1 160.5(4) 5_455 2_455
O2 O3 O1 88.2(3) 4_456 2_455
O1 O3 O1 73.7(2) . 2_455
O3 O3 O1 39.23(17) 6 2_455
O2 O3 O1 46.4(2) 4_455 2_455
O3 O3 O1 85.8(3) 6_556 2_455
Ga2 O3 O1 88.1(2) 2_566 2_455
Ga3 O3 O1 89.94(18) 4_346 2_455
La O3 O1 31.40(8) . 2_455
O2 O3 O1 130.5(3) 6_565 2_455
O3 O3 O1 81.81(19) 5_345 2_455
Ga3 O3 O1 45.8(2) . 2_455
Ga2 O3 O1 157.4(2) 1_565 2_455
O3 O3 O1 114.00(14) 5_346 2_455
Nb O3 O1 113.8(2) 1_456 2_455
Ga1 O3 O1 113.8(2) 1_456 2_455
La O3 O1 31.79(8) 2_455 2_455
O2 O3 O1 113.0(2) 3_566 2_455
Ga3 O3 O1 90.7(2) 2_464 2_455
La O3 O1 128.6(2) 4_456 2_455
O1 O3 O1 121.1(4) 2_465 2_455
O2 O3 O1 151.5(2) 1_456 2_455
O2 O3 O1 83.0(2) 3_565 2_455
Ga2 O3 O1 40.65(17) . 2_455
O2 O3 O1 111.3(3) 1_455 2_455
Ga2 O3 O1 60.83(17) 2_565 2_455
La O3 O1 138.4(3) 2_465 2_455
O2 O3 O1 90.80(18) 6_455 2_455
O1 O3 O1 157.9(2) 2_466 2_455
Ga3 O3 Ga3 98.5(3) 1_556 4_456
Nb O3 Ga3 148.1(3) 1_455 4_456
Ga1 O3 Ga3 148.1(3) 1_455 4_456
La O3 Ga3 46.90(15) 4_455 4_456
Ga3 O3 Ga3 88.1(2) 2_465 4_456
O3 O3 Ga3 101.75(13) 2_465 4_456
O3 O3 Ga3 163.94(15) 4_345 4_456
O3 O3 Ga3 122.7(4) 3_465 4_456
O2 O3 Ga3 110.5(3) 2_455 4_456
O3 O3 Ga3 73.22(12) 2_466 4_456
O2 O3 Ga3 63.5(2) 5_455 4_456
O2 O3 Ga3 63.1(2) 4_456 4_456
O1 O3 Ga3 46.14(16) . 4_456
O3 O3 Ga3 140.6(3) 6 4_456
O2 O3 Ga3 90.1(2) 4_455 4_456
O3 O3 Ga3 109.1(4) 6_556 4_456
Ga2 O3 Ga3 39.95(9) 2_566 4_456
Ga3 O3 Ga3 140.5(3) 4_346 4_456
La O3 Ga3 88.41(15) . 4_456
O2 O3 Ga3 20.14(14) 6_565 4_456
O3 O3 Ga3 140.84(18) 5_345 4_456
Ga3 O3 Ga3 114.3(2) . 4_456
Ga2 O3 Ga3 40.01(8) 1_565 4_456
O3 O3 Ga3 114.6(3) 5_346 4_456
Nb O3 Ga3 94.51(18) 1_456 4_456
Ga1 O3 Ga3 94.51(18) 1_456 4_456
La O3 Ga3 150.0(2) 2_455 4_456
O2 O3 Ga3 21.79(12) 3_566 4_456
Ga3 O3 Ga3 106.92(17) 2_464 4_456
La O3 Ga3 46.79(9) 4_456 4_456
O1 O3 Ga3 60.10(16) 2_465 4_456
O2 O3 Ga3 86.9(2) 1_456 4_456
O2 O3 Ga3 54.85(14) 3_565 4_456
Ga2 O3 Ga3 109.86(15) . 4_456
O2 O3 Ga3 103.8(2) 1_455 4_456
Ga2 O3 Ga3 74.15(12) 2_565 4_456
La O3 Ga3 78.36(14) 2_465 4_456
O2 O3 Ga3 148.6(3) 6_455 4_456
O1 O3 Ga3 42.73(9) 2_466 4_456
O1 O3 Ga3 119.79(18) 2_455 4_456
Ga3 O3 La 116.0(3) 1_556 1_455
Nb O3 La 34.2(2) 1_455 1_455
Ga1 O3 La 34.2(2) 1_455 1_455
La O3 La 105.0(2) 4_455 1_455
Ga3 O3 La 52.66(14) 2_465 1_455
O3 O3 La 59.3(3) 2_465 1_455
O3 O3 La 59.2(2) 4_345 1_455
O3 O3 La 14.42(11) 3_465 1_455
O2 O3 La 121.2(3) 2_455 1_455
O3 O3 La 87.9(3) 2_466 1_455
O2 O3 La 64.6(2) 5_455 1_455
O2 O3 La 142.2(3) 4_456 1_455
O1 O3 La 156.8(4) . 1_455
O3 O3 La 71.20(12) 6 1_455
O2 O3 La 109.5(3) 4_455 1_455
O3 O3 La 93.95(14) 6_556 1_455
Ga2 O3 La 164.1(3) 2_566 1_455
Ga3 O3 La 51.99(10) 4_346 1_455
La O3 La 136.5(2) . 1_455
O2 O3 La 109.3(2) 6_565 1_455
O3 O3 La 28.56(15) 5_345 1_455
Ga3 O3 La 83.37(14) . 1_455
Ga2 O3 La 88.76(17) 1_565 1_455
O3 O3 La 57.20(17) 5_346 1_455
Nb O3 La 84.61(16) 1_456 1_455
Ga1 O3 La 84.61(16) 1_456 1_455
La O3 La 81.52(13) 2_455 1_455
O2 O3 La 139.4(3) 3_566 1_455
Ga3 O3 La 49.62(8) 2_464 1_455
La O3 La 115.4(2) 4_456 1_455
O1 O3 La 78.18(13) 2_465 1_455
O2 O3 La 53.98(15) 1_456 1_455
O2 O3 La 116.1(2) 3_565 1_455
Ga2 O3 La 120.24(17) . 1_455
O2 O3 La 34.38(13) 1_455 1_455
Ga2 O3 La 115.94(18) 2_565 1_455
La O3 La 51.00(9) 2_465 1_455
O2 O3 La 33.94(13) 6_455 1_455
O1 O3 La 94.15(17) 2_466 1_455
O1 O3 La 107.59(18) 2_455 1_455
Ga3 O3 La 127.9(2) 4_456 1_455
Ga3 O3 O3 43.4(3) 1_556 1_556
Nb O3 O3 127.7(3) 1_455 1_556
Ga1 O3 O3 127.7(3) 1_455 1_556
La O3 O3 120.6(2) 4_455 1_556
Ga3 O3 O3 59.57(19) 2_465 1_556
O3 O3 O3 156.6(4) 2_465 1_556
O3 O3 O3 90.000(1) 4_345 1_556
O3 O3 O3 90.000(1) 3_465 1_556
O2 O3 O3 83.5(3) 2_455 1_556
O3 O3 O3 21.7(3) 2_466 1_556
O2 O3 O3 83.7(3) 5_455 1_556
O2 O3 O3 39.3(3) 4_456 1_556
O1 O3 O3 95.3(3) . 1_556
O3 O3 O3 140.0(3) 6 1_556
O2 O3 O3 145.4(2) 4_455 1_556
O3 O3 O3 37.7(3) 6_556 1_556
Ga2 O3 O3 64.90(17) 2_566 1_556
Ga3 O3 O3 68.99(14) 4_346 1_556
La O3 O3 108.70(14) . 1_556
O2 O3 O3 85.3(2) 6_565 1_556
O3 O3 O3 128.2(3) 5_345 1_556
Ga3 O3 O3 161.61(13) . 1_556
Ga2 O3 O3 73.19(13) 1_565 1_556
O3 O3 O3 49.5(2) 5_346 1_556
Nb O3 O3 22.17(10) 1_456 1_556
Ga1 O3 O3 22.17(10) 1_456 1_556
La O3 O3 106.69(13) 2_455 1_556
O2 O3 O3 56.94(18) 3_566 1_556
Ga3 O3 O3 149.09(14) 2_464 1_556
La O3 O3 28.04(11) 4_456 1_556
O1 O3 O3 119.0(2) 2_465 1_556
O2 O3 O3 58.60(16) 1_456 1_556
O2 O3 O3 127.61(16) 3_565 1_556
Ga2 O3 O3 75.22(13) . 1_556
O2 O3 O3 125.86(17) 1_455 1_556
Ga2 O3 O3 138.80(9) 2_565 1_556
La O3 O3 104.74(12) 2_465 1_556
O2 O3 O3 86.25(16) 6_455 1_556
O1 O3 O3 52.72(17) 2_466 1_556
O1 O3 O3 115.87(18) 2_455 1_556
Ga3 O3 O3 74.45(11) 4_456 1_556
La O3 O3 104.30(12) 1_455 1_556
Ga3 O3 O3 136.6(3) 1_556 1_554
Nb O3 O3 52.3(3) 1_455 1_554
Ga1 O3 O3 52.3(3) 1_455 1_554
La O3 O3 59.4(2) 4_455 1_554
Ga3 O3 O3 120.43(19) 2_465 1_554
O3 O3 O3 23.4(4) 2_465 1_554
O3 O3 O3 90.000(1) 4_345 1_554
O3 O3 O3 90.000(1) 3_465 1_554
O2 O3 O3 96.5(3) 2_455 1_554
O3 O3 O3 158.3(3) 2_466 1_554
O2 O3 O3 96.3(3) 5_455 1_554
O2 O3 O3 140.7(3) 4_456 1_554
O1 O3 O3 84.7(3) . 1_554
O3 O3 O3 40.0(3) 6 1_554
O2 O3 O3 34.6(2) 4_455 1_554
O3 O3 O3 142.3(3) 6_556 1_554
Ga2 O3 O3 115.10(17) 2_566 1_554
Ga3 O3 O3 111.01(14) 4_346 1_554
La O3 O3 71.30(14) . 1_554
O2 O3 O3 94.7(2) 6_565 1_554
O3 O3 O3 51.8(3) 5_345 1_554
Ga3 O3 O3 18.39(13) . 1_554
Ga2 O3 O3 106.81(14) 1_565 1_554
O3 O3 O3 130.5(2) 5_346 1_554
Nb O3 O3 157.83(10) 1_456 1_554
Ga1 O3 O3 157.83(10) 1_456 1_554
La O3 O3 73.31(13) 2_455 1_554
O2 O3 O3 123.06(18) 3_566 1_554
Ga3 O3 O3 30.91(14) 2_464 1_554
La O3 O3 151.95(11) 4_456 1_554
O1 O3 O3 61.0(2) 2_465 1_554
O2 O3 O3 121.40(16) 1_456 1_554
O2 O3 O3 52.38(16) 3_565 1_554
Ga2 O3 O3 104.78(13) . 1_554
O2 O3 O3 54.14(17) 1_455 1_554
Ga2 O3 O3 41.20(10) 2_565 1_554
La O3 O3 75.26(12) 2_465 1_554
O2 O3 O3 93.75(16) 6_455 1_554
O1 O3 O3 127.28(17) 2_466 1_554
O1 O3 O3 64.13(18) 2_455 1_554
Ga3 O3 O3 105.55(11) 4_456 1_554
La O3 O3 75.70(12) 1_455 1_554
O3 O3 O3 179.999(3) 1_556 1_554
Ga3 O3 Ga3 114.1(3) 1_556 4_345
Nb O3 Ga3 12.55(19) 1_455 4_345
Ga1 O3 Ga3 12.55(19) 1_455 4_345
La O3 Ga3 99.0(3) 4_455 4_345
Ga3 O3 Ga3 98.8(2) 2_465 4_345
O3 O3 Ga3 44.12(15) 2_465 4_345
O3 O3 Ga3 50.38(11) 4_345 4_345
O3 O3 Ga3 59.23(12) 3_465 4_345
O2 O3 Ga3 89.3(3) 2_455 4_345
O3 O3 Ga3 130.3(2) 2_466 4_345
O2 O3 Ga3 101.8(3) 5_455 4_345
O2 O3 Ga3 147.0(3) 4_456 4_345
O1 O3 Ga3 122.3(4) . 4_345
O3 O3 Ga3 25.41(12) 6 4_345
O2 O3 Ga3 68.5(2) 4_455 4_345
O3 O3 Ga3 105.2(3) 6_556 4_345
Ga2 O3 Ga3 149.4(3) 2_566 4_345
Ga3 O3 Ga3 68.52(12) 4_346 4_345
La O3 Ga3 90.38(19) . 4_345
O2 O3 Ga3 128.9(2) 6_565 4_345
O3 O3 Ga3 18.02(13) 5_345 4_345
Ga3 O3 Ga3 40.68(9) . 4_345
Ga2 O3 Ga3 124.50(19) 1_565 4_345
O3 O3 Ga3 90.0(2) 5_346 4_345
Nb O3 Ga3 115.62(17) 1_456 4_345
Ga1 O3 Ga3 115.62(17) 1_456 4_345
La O3 Ga3 48.86(9) 2_455 4_345
O2 O3 Ga3 165.5(3) 3_566 4_345
Ga3 O3 Ga3 40.17(8) 2_464 4_345
La O3 Ga3 160.3(2) 4_456 4_345
O1 O3 Ga3 88.0(2) 2_465 4_345
O2 O3 Ga3 100.12(19) 1_456 4_345
O2 O3 Ga3 94.9(2) 3_565 4_345
Ga2 O3 Ga3 93.77(17) . 4_345
O2 O3 Ga3 50.95(15) 1_455 4_345
Ga2 O3 Ga3 81.01(15) 2_565 4_345
La O3 Ga3 80.29(12) 2_465 4_345
O2 O3 Ga3 52.00(13) 6_455 4_345
O1 O3 Ga3 137.7(2) 2_466 4_345
O1 O3 Ga3 64.17(16) 2_455 4_345
Ga3 O3 Ga3 145.7(2) 4_456 4_345
La O3 Ga3 46.23(7) 1_455 4_345
O3 O3 Ga3 137.51(11) 1_556 4_345
O3 O3 Ga3 42.49(11) 1_554 4_345
Ga3 O3 O2 57.0(2) 1_556 1_556
Nb O3 O2 155.4(4) 1_455 1_556
Ga1 O3 O2 155.4(4) 1_455 1_556
La O3 O2 81.3(2) 4_455 1_556
Ga3 O3 O2 115.7(3) 2_465 1_556
O3 O3 O2 131.7(3) 2_465 1_556
O3 O3 O2 119.9(4) 4_345 1_556
O3 O3 O2 153.08(18) 3_465 1_556
O2 O3 O2 61.6(2) 2_455 1_556
O3 O3 O2 79.6(3) 2_466 1_556
O2 O3 O2 110.0(3) 5_455 1_556
O2 O3 O2 26.47(18) 4_456 1_556
O1 O3 O2 33.5(3) . 1_556
O3 O3 O2 119.11(16) 6 1_556
O2 O3 O2 83.0(2) 4_455 1_556
O3 O3 O2 77.3(2) 6_556 1_556
Ga2 O3 O2 9.50(12) 2_566 1_556
Ga3 O3 O2 120.5(2) 4_346 1_556
La O3 O2 54.35(13) . 1_556
O2 O3 O2 69.4(2) 6_565 1_556
O3 O3 O2 162.5(3) 5_345 1_556
Ga3 O3 O2 109.0(2) . 1_556
Ga2 O3 O2 85.72(18) 1_565 1_556
O3 O3 O2 111.3(3) 5_346 1_556
Nb O3 O2 83.55(18) 1_456 1_556
Ga1 O3 O2 83.55(18) 1_456 1_556
La O3 O2 103.3(2) 2_455 1_556
O2 O3 O2 33.10(16) 3_566 1_556
Ga3 O3 O2 141.1(2) 2_464 1_556
La O3 O2 52.91(14) 4_456 1_556
O1 O3 O2 105.6(2) 2_465 1_556
O2 O3 O2 114.4(3) 1_456 1_556
O2 O3 O2 73.34(12) 3_565 1_556
Ga2 O3 O2 60.45(14) . 1_556
O2 O3 O2 151.3(3) 1_455 1_556
Ga2 O3 O2 76.02(16) 2_565 1_556
La O3 O2 127.7(2) 2_465 1_556
O2 O3 O2 140.0(2) 6_455 1_556
O1 O3 O2 76.95(18) 2_466 1_556
O1 O3 O2 80.98(18) 2_455 1_556
Ga3 O3 O2 49.41(13) 4_456 1_556
La O3 O2 167.5(3) 1_455 1_556
O3 O3 O2 63.35(16) 1_556 1_556
O3 O3 O2 116.65(16) 1_554 1_556
Ga3 O3 O2 144.5(2) 4_345 1_556
Ga3 O3 O2 50.0(2) 1_556 3_456
Nb O3 O2 68.9(3) 1_455 3_456
Ga1 O3 O2 68.9(3) 1_455 3_456
La O3 O2 171.5(3) 4_455 3_456
Ga3 O3 O2 71.0(2) 2_465 3_456
O3 O3 O2 116.85(15) 2_465 3_456
O3 O3 O2 27.10(14) 4_345 3_456
O3 O3 O2 59.8(2) 3_465 3_456
O2 O3 O2 66.4(3) 2_455 3_456
O3 O3 O2 67.48(16) 2_466 3_456
O2 O3 O2 109.5(4) 5_455 3_456
O2 O3 O2 83.1(3) 4_456 3_456
O1 O3 O2 135.2(3) . 3_456
O3 O3 O2 79.7(3) 6 3_456
O2 O3 O2 125.2(3) 4_455 3_456
O3 O3 O2 31.2(2) 6_556 3_456
Ga2 O3 O2 114.6(2) 2_566 3_456
Ga3 O3 O2 14.84(11) 4_346 3_456
La O3 O2 104.6(2) . 3_456
O2 O3 O2 144.3(3) 6_565 3_456
O3 O3 O2 73.3(2) 5_345 3_456
Ga3 O3 O2 106.4(2) . 3_456
Ga2 O3 O2 120.4(2) 1_565 3_456
O3 O3 O2 32.79(15) 5_346 3_456
Nb O3 O2 43.88(13) 1_456 3_456
Ga1 O3 O2 43.88(13) 1_456 3_456
La O3 O2 53.12(13) 2_455 3_456
O2 O3 O2 118.7(3) 3_566 3_456
Ga3 O3 O2 109.17(18) 2_464 3_456
La O3 O2 91.0(2) 4_456 3_456
O1 O3 O2 143.1(2) 2_465 3_456
O2 O3 O2 71.48(19) 1_456 3_456
O2 O3 O2 163.9(3) 3_565 3_456
Ga2 O3 O2 60.64(15) . 3_456
O2 O3 O2 100.68(14) 1_455 3_456
Ga2 O3 O2 141.3(2) 2_565 3_456
La O3 O2 111.2(2) 2_465 3_456
O2 O3 O2 33.1(2) 6_455 3_456
O1 O3 O2 104.8(2) 2_466 3_456
O1 O3 O2 81.22(18) 2_455 3_456
Ga3 O3 O2 137.7(2) 4_456 3_456
La O3 O2 66.47(15) 1_455 3_456
O3 O3 O2 63.22(15) 1_556 3_456
O3 O3 O2 116.78(15) 1_554 3_456
Ga3 O3 O2 75.51(15) 4_345 3_456
O2 O3 O2 107.0(3) 1_556 3_456
Ga3 O3 La 25.96(17) 1_556 1_556
Nb O3 La 137.9(3) 1_455 1_556
Ga1 O3 La 137.9(3) 1_455 1_556
La O3 La 112.7(2) 4_455 1_556
Ga3 O3 La 102.6(3) 2_465 1_556
O3 O3 La 159.2(5) 2_465 1_556
O3 O3 La 92.1(3) 4_345 1_556
O3 O3 La 127.44(14) 3_465 1_556
O2 O3 La 48.3(2) 2_455 1_556
O3 O3 La 64.3(3) 2_466 1_556
O2 O3 La 119.2(3) 5_455 1_556
O2 O3 La 11.45(19) 4_456 1_556
O1 O3 La 63.8(3) . 1_556
O3 O3 La 115.9(3) 6 1_556
O2 O3 La 103.3(3) 4_455 1_556
O3 O3 La 45.80(16) 6_556 1_556
Ga2 O3 La 39.26(9) 2_566 1_556
Ga3 O3 La 88.83(17) 4_346 1_556
La O3 La 65.71(12) . 1_556
O2 O3 La 93.4(2) 6_565 1_556
O3 O3 La 145.23(19) 5_345 1_556
Ga3 O3 La 121.7(2) . 1_556
Ga2 O3 La 99.13(17) 1_565 1_556
O3 O3 La 83.2(2) 5_346 1_556
Nb O3 La 57.53(11) 1_456 1_556
Ga1 O3 La 57.53(11) 1_456 1_556
La O3 La 86.77(15) 2_455 1_556
O2 O3 La 52.53(15) 3_566 1_556
Ga3 O3 La 167.9(2) 2_464 1_556
La O3 La 50.34(9) 4_456 1_556
O1 O3 La 133.9(2) 2_465 1_556
O2 O3 La 101.6(2) 1_456 1_556
O2 O3 La 104.40(19) 3_565 1_556
Ga2 O3 La 42.38(7) . 1_556
O2 O3 La 168.8(3) 1_455 1_556
Ga2 O3 La 102.29(15) 2_565 1_556
La O3 La 142.0(2) 2_465 1_556
O2 O3 La 108.3(2) 6_455 1_556
O1 O3 La 82.22(18) 2_466 1_556
O1 O3 La 78.78(18) 2_455 1_556
Ga3 O3 La 73.86(11) 4_456 1_556
La O3 La 139.4(2) 1_455 1_556
O3 O3 La 42.99(12) 1_556 1_556
O3 O3 La 137.01(11) 1_554 1_556
Ga3 O3 La 135.60(19) 4_345 1_556
O2 O3 La 31.65(12) 1_556 1_556
O2 O3 La 75.43(16) 3_456 1_556
Ga3 O3 O1 13.6(3) 1_556 2_456
Nb O3 O1 109.8(3) 1_455 2_456
Ga1 O3 O1 109.8(3) 1_455 2_456
La O3 O1 133.4(3) 4_455 2_456
Ga3 O3 O1 108.7(3) 2_465 2_456
O3 O3 O1 145.0(5) 2_465 2_456
O3 O3 O1 65.4(3) 4_345 2_456
O3 O3 O1 114.6(3) 3_465 2_456
O2 O3 O1 27.2(3) 2_455 2_456
O3 O3 O1 77.1(3) 2_466 2_456
O2 O3 O1 140.1(4) 5_455 2_456
O2 O3 O1 39.7(2) 4_456 2_456
O1 O3 O1 80.1(3) . 2_456
O3 O3 O1 91.0(3) 6 2_456
O2 O3 O1 98.6(3) 4_455 2_456
O3 O3 O1 34.32(14) 6_556 2_456
Ga2 O3 O1 64.07(13) 2_566 2_456
Ga3 O3 O1 69.87(14) 4_346 2_456
La O3 O1 61.12(17) . 2_456
O2 O3 O1 121.6(2) 6_565 2_456
O3 O3 O1 117.41(16) 5_345 2_456
Ga3 O3 O1 105.3(3) . 2_456
Ga2 O3 O1 125.3(2) 1_565 2_456
O3 O3 O1 75.80(19) 5_346 2_456
Nb O3 O1 59.14(16) 1_456 2_456
Ga1 O3 O1 59.14(16) 1_456 2_456
La O3 O1 59.23(16) 2_455 2_456
O2 O3 O1 80.74(19) 3_566 2_456
Ga3 O3 O1 146.5(3) 2_464 2_456
La O3 O1 74.51(17) 4_456 2_456
O1 O3 O1 160.45(19) 2_465 2_456
O2 O3 O1 108.3(3) 1_456 2_456
O2 O3 O1 118.1(2) 3_565 2_456
Ga2 O3 O1 18.84(14) . 2_456
O2 O3 O1 153.7(2) 1_455 2_456
Ga2 O3 O1 105.6(2) 2_565 2_456
La O3 O1 159.4(3) 2_465 2_456
O2 O3 O1 87.15(17) 6_455 2_456
O1 O3 O1 106.1(3) 2_466 2_456
O1 O3 O1 59.49(10) 2_455 2_456
Ga3 O3 O1 101.72(15) 4_456 2_456
La O3 O1 121.08(16) 1_455 2_456
O3 O3 O1 56.38(18) 1_556 2_456
O3 O3 O1 123.62(18) 1_554 2_456
Ga3 O3 O1 107.6(2) 4_345 2_456
O2 O3 O1 54.93(14) 1_556 2_456
O2 O3 O1 55.06(14) 3_456 2_456
La O3 O1 28.30(9) 1_556 2_456
Ga3 O3 O2 44.2(3) 1_556 5_445
Nb O3 O2 79.5(3) 1_455 5_445
Ga1 O3 O2 79.5(3) 1_455 5_445
La O3 O2 133.9(4) 4_455 5_445
Ga3 O3 O2 122.2(3) 2_465 5_445
O3 O3 O2 112.1(4) 2_465 5_445
O3 O3 O2 44.0(3) 4_345 5_445
O3 O3 O2 103.9(3) 3_465 5_445
O2 O3 O2 18.8(3) 2_455 5_445
O3 O3 O2 104.2(3) 2_466 5_445
O2 O3 O2 161.1(4) 5_455 5_445
O2 O3 O2 72.2(2) 4_456 5_445
O1 O3 O2 90.8(2) . 5_445
O3 O3 O2 57.4(3) 6 5_445
O2 O3 O2 79.4(2) 4_455 5_445
O3 O3 O2 52.9(2) 6_556 5_445
Ga2 O3 O2 89.0(2) 2_566 5_445
Ga3 O3 O2 63.75(16) 4_346 5_445
La O3 O2 53.20(16) . 5_445
O2 O3 O2 148.3(2) 6_565 5_445
O3 O3 O2 87.67(13) 5_345 5_445
Ga3 O3 O2 75.35(19) . 5_445
Ga2 O3 O2 158.9(2) 1_565 5_445
O3 O3 O2 83.49(15) 5_346 5_445
Nb O3 O2 80.83(17) 1_456 5_445
Ga1 O3 O2 80.83(17) 1_456 5_445
La O3 O2 26.02(11) 2_455 5_445
O2 O3 O2 110.9(2) 3_566 5_445
Ga3 O3 O2 112.7(2) 2_464 5_445
La O3 O2 108.04(19) 4_456 5_445
O1 O3 O2 153.7(3) 2_465 5_445
O2 O3 O2 122.6(2) 1_456 5_445
O2 O3 O2 113.8(3) 3_565 5_445
Ga2 O3 O2 19.48(10) . 5_445
O2 O3 O2 125.1(2) 1_455 5_445
Ga2 O3 O2 92.9(2) 2_565 5_445
La O3 O2 152.71(19) 2_465 5_445
O2 O3 O2 72.9(2) 6_455 5_445
O1 O3 O2 138.9(3) 2_466 5_445
O1 O3 O2 33.15(18) 2_455 5_445
Ga3 O3 O2 128.90(19) 4_456 5_445
La O3 O2 102.47(17) 1_455 5_445
O3 O3 O2 86.60(14) 1_556 5_445
O3 O3 O2 93.40(14) 1_554 5_445
Ga3 O3 O2 74.88(15) 4_345 5_445
O2 O3 O2 79.6(2) 1_556 5_445
O2 O3 O2 51.61(12) 3_456 5_445
La O3 O2 60.77(13) 1_556 5_445
O1 O3 O2 33.72(16) 2_456 5_445
Ga3 O3 O2 99.3(3) 1_556 .
Nb O3 O2 107.3(4) 1_455 .
Ga1 O3 O2 107.3(4) 1_455 .
La O3 O2 51.3(2) 4_455 .
Ga3 O3 O2 153.5(3) 2_465 .
O3 O3 O2 77.0(4) 2_465 .
O3 O3 O2 118.7(4) 4_345 .
O3 O3 O2 149.05(14) 3_465 .
O2 O3 O2 69.5(3) 2_455 .
O3 O3 O2 134.6(2) 2_466 .
O2 O3 O2 115.7(3) 5_455 .
O2 O3 O2 82.5(2) 4_456 .
O1 O3 O2 27.2(3) . .
O3 O3 O2 75.3(2) 6 .
O2 O3 O2 26.69(17) 4_455 .
O3 O3 O2 122.34(15) 6_556 .
Ga2 O3 O2 56.71(17) 2_566 .
Ga3 O3 O2 145.7(3) 4_346 .
La O3 O2 30.37(12) . .
O2 O3 O2 74.8(2) 6_565 .
O3 O3 O2 109.6(4) 5_345 .
Ga3 O3 O2 54.47(16) . .
Ga2 O3 O2 101.6(2) 1_565 .
O3 O3 O2 164.0(2) 5_346 .
Nb O3 O2 139.9(2) 1_456 .
Ga1 O3 O2 139.9(2) 1_456 .
La O3 O2 87.2(2) 2_455 .
O2 O3 O2 73.03(12) 3_566 .
Ga3 O3 O2 86.59(19) 2_464 .
La O3 O2 104.57(18) 4_456 .
O1 O3 O2 78.49(19) 2_465 .
O2 O3 O2 152.7(3) 1_456 .
O2 O3 O2 31.69(16) 3_565 .
Ga2 O3 O2 76.46(17) . .
O2 O3 O2 107.0(3) 1_455 .
Ga2 O3 O2 19.73(10) 2_565 .
La O3 O2 110.4(2) 2_465 .
O2 O3 O2 143.0(2) 6_455 .
O1 O3 O2 110.70(19) 2_466 .
O1 O3 O2 55.81(16) 2_455 .
Ga3 O3 O2 68.09(15) 4_456 .
La O3 O2 134.9(2) 1_455 .
O3 O3 O2 120.72(13) 1_556 .
O3 O3 O2 59.28(13) 1_554 .
Ga3 O3 O2 95.1(2) 4_345 .
O2 O3 O2 57.37(12) 1_556 .
O2 O3 O2 134.8(3) 3_456 .
La O3 O2 82.56(15) 1_556 .
O1 O3 O2 88.22(19) 2_456 .
O2 O3 O2 83.2(2) 5_445 .
Ga3 O3 O2 94.0(3) 1_556 3_455
Nb O3 O2 22.3(2) 1_455 3_455
Ga1 O3 O2 22.3(2) 1_455 3_455
La O3 O2 118.0(3) 4_455 3_455
Ga3 O3 O2 99.5(2) 2_465 3_455
O3 O3 O2 64.3(2) 2_465 3_455
O3 O3 O2 31.13(14) 4_345 3_455
O3 O3 O2 61.1(2) 3_465 3_455
O2 O3 O2 73.8(3) 2_455 3_455
O3 O3 O2 120.71(15) 2_466 3_455
O2 O3 O2 115.1(3) 5_455 3_455
O2 O3 O2 128.1(3) 4_456 3_455
O1 O3 O2 126.4(3) . 3_455
O3 O3 O2 26.17(19) 6 3_455
O2 O3 O2 77.0(3) 4_455 3_455
O3 O3 O2 85.8(3) 6_556 3_455
Ga2 O3 O2 143.2(3) 2_566 3_455
Ga3 O3 O2 53.82(14) 4_346 3_455
La O3 O2 86.5(2) . 3_455
O2 O3 O2 149.1(2) 6_565 3_455
O3 O3 O2 30.48(14) 5_345 3_455
Ga3 O3 O2 51.24(15) . 3_455
Ga2 O3 O2 139.4(2) 1_565 3_455
O3 O3 O2 78.8(2) 5_346 3_455
Nb O3 O2 100.56(18) 1_456 3_455
Ga1 O3 O2 100.56(18) 1_456 3_455
La O3 O2 31.92(11) 2_455 3_455
O2 O3 O2 167.8(3) 3_566 3_455
Ga3 O3 O2 60.26(15) 2_464 3_455
La O3 O2 148.4(2) 4_456 3_455
O1 O3 O2 108.0(2) 2_465 3_455
O2 O3 O2 100.81(15) 1_456 3_455
O2 O3 O2 110.3(3) 3_565 3_455
Ga2 O3 O2 76.70(17) . 3_455
O2 O3 O2 67.90(17) 1_455 3_455
Ga2 O3 O2 92.2(2) 2_565 3_455
La O3 O2 96.15(17) 2_465 3_455
O2 O3 O2 42.0(2) 6_455 3_455
O1 O3 O2 145.0(2) 2_466 3_455
O1 O3 O2 55.96(15) 2_455 3_455
Ga3 O3 O2 164.7(2) 4_456 3_455
La O3 O2 51.86(12) 1_455 3_455
O3 O3 O2 120.86(14) 1_556 3_455
O3 O3 O2 59.14(14) 1_554 3_455
Ga3 O3 O2 20.22(11) 4_345 3_455
O2 O3 O2 134.8(3) 1_556 3_455
O2 O3 O2 57.65(12) 3_456 3_455
La O3 O2 116.76(19) 1_556 3_455
O1 O3 O2 88.46(19) 2_456 3_455
O2 O3 O2 57.25(14) 5_445 3_455
O2 O3 O2 101.2(3) . 3_455
Ga3 O3 O1 124.0(4) 1_556 1_455
Nb O3 O1 60.6(3) 1_455 1_455
Ga1 O3 O1 60.6(3) 1_455 1_455
La O3 O1 89.3(3) 4_455 1_455
Ga3 O3 O1 33.61(19) 2_465 1_455
O3 O3 O1 64.5(4) 2_465 1_455
O3 O3 O1 84.6(3) 4_345 1_455
O3 O3 O1 24.7(3) 3_465 1_455
O2 O3 O1 147.0(3) 2_455 1_455
O3 O3 O1 72.2(4) 2_466 1_455
O2 O3 O1 36.5(2) 5_455 1_455
O2 O3 O1 130.9(4) 4_456 1_455
O1 O3 O1 140.2(3) . 1_455
O3 O3 O1 96.61(17) 6 1_455
O2 O3 O1 120.4(3) 4_455 1_455
O3 O3 O1 101.06(17) 6_556 1_455
Ga2 O3 O1 136.6(3) 2_566 1_455
Ga3 O3 O1 68.30(14) 4_346 1_455
La O3 O1 158.1(3) . 1_455
O2 O3 O1 82.5(2) 6_565 1_455
O3 O3 O1 53.37(17) 5_345 1_455
Ga3 O3 O1 100.8(2) . 1_455
Ga2 O3 O1 60.40(13) 1_565 1_455
O3 O3 O1 59.34(18) 5_346 1_455
Nb O3 O1 80.3(2) 1_456 1_455
Ga1 O3 O1 80.3(2) 1_456 1_455
La O3 O1 109.80(16) 2_455 1_455
O2 O3 O1 111.6(2) 3_566 1_455
Ga3 O3 O1 56.02(19) 2_464 1_455
La O3 O1 93.2(2) 4_456 1_455
O1 O3 O1 60.55(17) 2_465 1_455
O2 O3 O1 34.66(19) 1_456 1_455
O2 O3 O1 106.7(2) 3_565 1_455
Ga2 O3 O1 143.13(19) . 1_455
O2 O3 O1 32.9(2) 1_455 1_455
Ga2 O3 O1 118.1(2) 2_565 1_455
La O3 O1 28.46(9) 2_465 1_455
O2 O3 O1 55.84(14) 6_455 1_455
O1 O3 O1 67.00(19) 2_466 1_455
O1 O3 O1 135.07(17) 2_455 1_455
Ga3 O3 O1 99.98(17) 4_456 1_455
La O3 O1 28.41(8) 1_455 1_455
O3 O3 O1 93.10(18) 1_556 1_455
O3 O3 O1 86.90(18) 1_554 1_455
Ga3 O3 O1 71.25(16) 4_345 1_455
O2 O3 O1 143.9(2) 1_556 1_455
O2 O3 O1 82.76(18) 3_456 1_455
La O3 O1 136.0(3) 1_556 1_455
O1 O3 O1 135.00(19) 2_456 1_455
O2 O3 O1 128.56(18) 5_445 1_455
O2 O3 O1 136.6(2) . 1_455
O2 O3 O1 80.08(16) 3_455 1_455
Ga3 O3 O2 129.0(4) 1_556 2_465
Nb O3 O2 105.5(3) 1_455 2_465
Ga1 O3 O2 105.5(3) 1_455 2_465
La O3 O2 50.1(2) 4_455 2_465
Ga3 O3 O2 54.40(19) 2_465 2_465
O3 O3 O2 74.6(3) 2_465 2_465
O3 O3 O2 136.9(4) 4_345 2_465
O3 O3 O2 77.1(4) 3_465 2_465
O2 O3 O2 158.2(4) 2_455 2_465
O3 O3 O2 69.5(3) 2_466 2_465
O2 O3 O2 17.4(2) 5_455 2_465
O2 O3 O2 101.9(3) 4_456 2_465
O1 O3 O2 88.9(2) . 2_465
O3 O3 O2 129.3(4) 6 2_465
O2 O3 O2 105.8(2) 4_455 2_465
O3 O3 O2 120.9(4) 6_556 2_465
Ga2 O3 O2 87.3(2) 2_566 2_465
Ga3 O3 O2 114.4(2) 4_346 2_465
La O3 O2 128.7(2) . 2_465
O2 O3 O2 29.73(17) 6_565 2_465
O3 O3 O2 97.25(14) 5_345 2_465
Ga3 O3 O2 111.3(2) . 2_465
Ga2 O3 O2 14.45(11) 1_565 2_465
O3 O3 O2 92.83(15) 5_346 2_465
Nb O3 O2 93.2(2) 1_456 2_465
Ga1 O3 O2 93.2(2) 1_456 2_465
La O3 O2 159.5(2) 2_455 2_465
O2 O3 O2 64.4(2) 3_566 2_465
Ga3 O3 O2 73.78(16) 2_464 2_465
La O3 O2 65.26(16) 4_456 2_465
O1 O3 O2 32.8(2) 2_465 2_465
O2 O3 O2 53.89(15) 1_456 2_465
O2 O3 O2 69.9(2) 3_565 2_465
Ga2 O3 O2 155.3(2) . 2_465
O2 O3 O2 60.22(16) 1_455 2_465
Ga2 O3 O2 91.58(17) 2_565 2_465
La O3 O2 31.57(12) 2_465 2_465
O2 O3 O2 107.6(3) 6_455 2_465
O1 O3 O2 34.29(17) 2_466 2_465
O1 O3 O2 152.2(3) 2_455 2_465
Ga3 O3 O2 47.85(14) 4_456 2_465
La O3 O2 80.13(17) 1_455 2_465
O3 O3 O2 86.66(14) 1_556 2_465
O3 O3 O2 93.34(14) 1_554 2_465
Ga3 O3 O2 110.94(18) 4_345 2_465
O2 O3 O2 96.5(3) 1_556 2_465
O2 O3 O2 125.4(2) 3_456 2_465
La O3 O2 113.19(19) 1_556 2_465
O1 O3 O2 139.7(2) 2_456 2_465
O2 O3 O2 173.2(3) 5_445 2_465
O2 O3 O2 99.5(2) . 2_465
O2 O3 O2 127.71(19) 3_455 2_465
O1 O3 O2 52.83(13) 1_455 2_465
Ga3 O3 O3 63.6(4) 1_556 3_565
Nb O3 O3 123.6(4) 1_455 3_565
Ga1 O3 O3 123.6(4) 1_455 3_565
La O3 O3 81.43(15) 4_455 3_565
Ga3 O3 O3 147.71(19) 2_465 3_565
O3 O3 O3 111.1(4) 2_465 3_565
O3 O3 O3 104.4(5) 4_345 3_565
O3 O3 O3 164.4(5) 3_465 3_565
O2 O3 O3 42.3(3) 2_455 3_565
O3 O3 O3 109.6(3) 2_466 3_565
O2 O3 O3 135.4(3) 5_455 3_565
O2 O3 O3 50.9(3) 4_456 3_565
O1 O3 O3 30.42(5) . 3_565
O3 O3 O3 86.67(12) 6 3_565
O2 O3 O3 55.6(2) 4_455 3_565
O3 O3 O3 86.83(12) 6_556 3_565
Ga2 O3 O3 38.35(10) 2_566 3_565
Ga3 O3 O3 121.1(3) 4_346 3_565
La O3 O3 21.74(13) . 3_565
O2 O3 O3 88.82(18) 6_565 3_565
O3 O3 O3 130.0(2) 5_345 3_565
Ga3 O3 O3 78.20(15) . 3_565
Ga2 O3 O3 112.22(17) 1_565 3_565
O3 O3 O3 128.43(17) 5_346 3_565
Nb O3 O3 105.30(15) 1_456 3_565
Ga1 O3 O3 105.30(15) 1_456 3_565
La O3 O3 77.8(2) 2_455 3_565
O2 O3 O3 63.02(14) 3_566 3_565
Ga3 O3 O3 120.24(12) 2_464 3_565
La O3 O3 85.33(9) 4_456 3_565
O1 O3 O3 110.21(15) 2_465 3_565
O2 O3 O3 146.47(17) 1_456 3_565
O2 O3 O3 64.61(14) 3_565 3_565
Ga2 O3 O3 46.33(18) . 3_565
O2 O3 O3 142.33(17) 1_455 3_565
Ga2 O3 O3 55.22(8) 2_565 3_565
La O3 O3 142.1(2) 2_465 3_565
O2 O3 O3 133.4(3) 6_455 3_565
O1 O3 O3 108.32(14) 2_466 3_565
O1 O3 O3 50.02(17) 2_455 3_565
Ga3 O3 O3 72.26(10) 4_456 3_565
La O3 O3 157.5(2) 1_455 3_565
O3 O3 O3 90.0 1_556 3_565
O3 O3 O3 90.000(1) 1_554 3_565
Ga3 O3 O3 112.0(2) 4_345 3_565
O2 O3 O3 32.64(13) 1_556 3_565
O2 O3 O3 106.6(3) 3_456 3_565
La O3 O3 48.04(13) 1_556 3_565
O1 O3 O3 53.51(19) 2_456 3_565
O2 O3 O3 60.5(2) 5_445 3_565
O2 O3 O3 35.90(12) . 3_565
O2 O3 O3 105.9(3) 3_455 3_565
O1 O3 O3 170.5(2) 1_455 3_565
O2 O3 O3 118.5(2) 2_465 3_565
Ga3 O3 O3 103.3(2) 1_556 4_455
Nb O3 O3 140.0(3) 1_455 4_455
Ga1 O3 O3 140.0(3) 1_455 4_455
La O3 O3 36.1(2) 4_455 4_455
Ga3 O3 O3 106.0(3) 2_465 4_455
O3 O3 O3 92.06(4) 2_465 4_455
O3 O3 O3 164.4(5) 4_345 4_455
O3 O3 O3 135.6(5) 3_465 4_455
O2 O3 O3 101.8(3) 2_455 4_455
O3 O3 O3 91.92(4) 2_466 4_455
O2 O3 O3 75.9(3) 5_455 4_455
O2 O3 O3 68.6(2) 4_456 4_455
O1 O3 O3 30.43(5) . 4_455
O3 O3 O3 121.7(2) 6 4_455
O2 O3 O3 70.88(19) 4_455 4_455
O3 O3 O3 119.97(19) 6_556 4_455
Ga2 O3 O3 38.35(10) 2_566 4_455
Ga3 O3 O3 158.70(16) 4_346 4_455
La O3 O3 72.31(10) . 4_455
O2 O3 O3 29.17(18) 6_565 4_455
O3 O3 O3 135.5(2) 5_345 4_455
Ga3 O3 O3 96.07(11) . 4_455
Ga2 O3 O3 55.08(18) 1_565 4_455
O3 O3 O3 133.7(2) 5_346 4_455
Nb O3 O3 111.44(12) 1_456 4_455
Ga1 O3 O3 111.44(12) 1_456 4_455
La O3 O3 134.7(2) 2_455 4_455
O2 O3 O3 33.16(18) 3_566 4_455
Ga3 O3 O3 99.45(17) 2_464 4_455
La O3 O3 63.79(13) 4_456 4_455
O1 O3 O3 58.48(19) 2_465 4_455
O2 O3 O3 105.0(3) 1_456 4_455
O2 O3 O3 37.70(16) 3_565 4_455
Ga2 O3 O3 103.94(17) . 4_455
O2 O3 O3 104.2(3) 1_455 4_455
Ga2 O3 O3 55.22(8) 2_565 4_455
La O3 O3 84.9(2) 2_465 4_455
O2 O3 O3 166.0(3) 6_455 4_455
O1 O3 O3 61.59(17) 2_466 4_455
O1 O3 O3 102.95(16) 2_455 4_455
Ga3 O3 O3 19.29(12) 4_456 4_455
La O3 O3 135.6(3) 1_455 4_455
O3 O3 O3 90.0 1_556 4_455
O3 O3 O3 90.0 1_554 4_455
Ga3 O3 O3 132.38(11) 4_345 4_455
O2 O3 O3 47.13(14) 1_556 4_455
O2 O3 O3 151.08(16) 3_456 4_455
La O3 O3 77.36(10) 1_556 4_455
O1 O3 O3 101.97(14) 2_456 4_455
O2 O3 O3 120.4(2) 5_445 4_455
O2 O3 O3 49.12(12) . 4_455
O2 O3 O3 147.31(16) 3_455 4_455
O1 O3 O3 111.0(2) 1_455 4_455
O2 O3 O3 58.6(2) 2_465 4_455
O3 O3 O3 60.0 3_565 4_455
Ga3 O3 Ga2 168.1(3) 1_556 1_564
Nb O3 Ga2 77.0(2) 1_455 1_564
Ga1 O3 Ga2 77.0(2) 1_455 1_564
La O3 Ga2 29.76(13) 4_455 1_564
Ga3 O3 Ga2 91.0(2) 2_465 1_564
O3 O3 Ga2 30.57(15) 2_465 1_564
O3 O3 Ga2 123.77(17) 4_345 1_564
O3 O3 Ga2 84.6(3) 3_465 1_564
O2 O3 Ga2 135.5(4) 2_455 1_564
O3 O3 Ga2 117.9(4) 2_466 1_564
O2 O3 Ga2 55.5(2) 5_455 1_564
O2 O3 Ga2 133.6(3) 4_456 1_564
O1 O3 Ga2 81.5(3) . 1_564
O3 O3 Ga2 83.3(3) 6 1_564
O2 O3 Ga2 62.5(2) 4_455 1_564
O3 O3 Ga2 166.3(2) 6_556 1_564
Ga2 O3 Ga2 103.16(18) 2_566 1_564
Ga3 O3 Ga2 127.82(18) 4_346 1_564
La O3 Ga2 98.56(19) . 1_564
O2 O3 Ga2 54.65(17) 6_565 1_564
O3 O3 Ga2 70.9(2) 5_345 1_564
Ga3 O3 Ga2 62.35(12) . 1_564
Ga2 O3 Ga2 62.22(12) 1_565 1_564
O3 O3 Ga2 124.94(16) 5_346 1_564
Nb O3 Ga2 139.5(2) 1_456 1_564
Ga1 O3 Ga2 139.5(2) 1_456 1_564
La O3 Ga2 117.2(2) 2_455 1_564
O2 O3 Ga2 93.43(19) 3_566 1_564
Ga3 O3 Ga2 35.32(7) 2_464 1_564
La O3 Ga2 110.64(18) 4_456 1_564
O1 O3 Ga2 16.37(17) 2_465 1_564
O2 O3 Ga2 91.2(2) 1_456 1_564
O2 O3 Ga2 41.82(14) 3_565 1_564
Ga2 O3 Ga2 144.1(2) . 1_564
O2 O3 Ga2 41.49(14) 1_455 1_564
Ga2 O3 Ga2 53.84(9) 2_565 1_564
La O3 Ga2 40.50(7) 2_465 1_564
O2 O3 Ga2 108.84(18) 6_455 1_564
O1 O3 Ga2 82.69(18) 2_466 1_564
O1 O3 Ga2 105.9(2) 2_455 1_564
Ga3 O3 Ga2 71.71(11) 4_456 1_564
La O3 Ga2 75.87(11) 1_455 1_564
O3 O3 Ga2 135.41(11) 1_556 1_564
O3 O3 Ga2 44.59(11) 1_554 1_564
Ga3 O3 Ga2 74.56(12) 4_345 1_564
O2 O3 Ga2 111.09(19) 1_556 1_564
O2 O3 Ga2 141.93(19) 3_456 1_564
La O3 Ga2 142.42(16) 1_556 1_564
O1 O3 Ga2 159.3(2) 2_456 1_564
O2 O3 Ga2 137.6(2) 5_445 1_564
O2 O3 Ga2 71.04(15) . 1_564
O2 O3 Ga2 94.76(17) 3_455 1_564
O1 O3 Ga2 65.66(16) 1_455 1_564
O2 O3 Ga2 48.98(12) 2_465 1_564
O3 O3 Ga2 106.10(11) 3_565 1_564
O3 O3 Ga2 65.18(15) 4_455 1_564
Ga3 O3 O2 46.5(3) 1_556 6
Nb O3 O2 103.2(3) 1_455 6
Ga1 O3 O2 103.2(3) 1_455 6
La O3 O2 109.1(3) 4_455 6
Ga3 O3 O2 141.8(3) 2_465 6
O3 O3 O2 116.6(5) 2_465 6
O3 O3 O2 74.2(4) 4_345 6
O3 O3 O2 134.0(4) 3_465 6
O2 O3 O2 12.0(3) 2_455 6
O3 O3 O2 108.3(4) 2_466 6
O2 O3 O2 163.0(3) 5_455 6
O2 O3 O2 56.0(3) 4_456 6
O1 O3 O2 60.78(18) . 6
O3 O3 O2 70.88(19) 6 6
O2 O3 O2 65.5(3) 4_455 6
O3 O3 O2 66.47(17) 6_556 6
Ga2 O3 O2 61.76(16) 2_566 6
Ga3 O3 O2 91.97(19) 4_346 6
La O3 O2 28.84(12) . 6
O2 O3 O2 118.6(2) 6_565 6
O3 O3 O2 111.21(15) 5_345 6
Ga3 O3 O2 75.96(19) . 6
Ga2 O3 O2 138.74(19) 1_565 6
O3 O3 O2 106.16(17) 5_346 6
Nb O3 O2 92.22(18) 1_456 6
Ga1 O3 O2 92.22(18) 1_456 6
La O3 O2 50.50(14) 2_455 6
O2 O3 O2 86.08(19) 3_566 6
Ga3 O3 O2 122.3(2) 2_464 6
La O3 O2 96.42(17) 4_456 6
O1 O3 O2 136.9(2) 2_465 6
O2 O3 O2 141.4(2) 1_456 6
O2 O3 O2 90.0(2) 3_565 6
Ga2 O3 O2 18.10(11) . 6
O2 O3 O2 143.5(2) 1_455 6
Ga2 O3 O2 73.55(17) 2_565 6
La O3 O2 167.5(2) 2_465 6
O2 O3 O2 103.0(2) 6_455 6
O1 O3 O2 127.1(2) 2_466 6
O1 O3 O2 32.24(17) 2_455 6
Ga3 O3 O2 100.44(16) 4_456 6
La O3 O2 131.65(19) 1_455 6
O3 O3 O2 86.70(14) 1_556 6
O3 O3 O2 93.30(14) 1_554 6
Ga3 O3 O2 94.71(18) 4_345 6
O2 O3 O2 53.0(2) 1_556 6
O2 O3 O2 78.17(18) 3_456 6
La O3 O2 46.70(12) 1_556 6
O1 O3 O2 33.08(16) 2_456 6
O2 O3 O2 30.18(13) 5_445 6
O2 O3 O2 58.4(2) . 6
O2 O3 O2 81.80(19) 3_455 6
O1 O3 O2 158.73(18) 1_455 6
O2 O3 O2 148.15(16) 2_465 6
O3 O3 O2 30.40(18) 3_565 6
O3 O3 O2 90.24(18) 4_455 6
Ga2 O3 O2 127.2(2) 1_564 6
Ga3 O3 O2 106.4(4) 1_556 2_454
Nb O3 O2 59.3(3) 1_455 2_454
Ga1 O3 O2 59.3(3) 1_455 2_454
La O3 O2 77.9(3) 4_455 2_454
Ga3 O3 O2 144.3(3) 2_465 2_454
O3 O3 O2 53.1(4) 2_465 2_454
O3 O3 O2 76.5(2) 4_345 2_454
O3 O3 O2 105.76(18) 3_465 2_454
O2 O3 O2 66.1(3) 2_455 2_454
O3 O3 O2 168.7(3) 2_466 2_454
O2 O3 O2 126.7(3) 5_455 2_454
O2 O3 O2 116.8(4) 4_456 2_454
O1 O3 O2 76.3(3) . 2_454
O3 O3 O2 25.97(19) 6 2_454
O2 O3 O2 25.1(2) 4_455 2_454
O3 O3 O2 117.2(4) 6_556 2_454
Ga2 O3 O2 102.9(2) 2_566 2_454
Ga3 O3 O2 104.0(2) 4_346 2_454
La O3 O2 46.47(15) . 2_454
O2 O3 O2 113.5(3) 6_565 2_454
O3 O3 O2 63.6(2) 5_345 2_454
Ga3 O3 O2 12.36(10) . 2_454
Ga2 O3 O2 133.5(2) 1_565 2_454
O3 O3 O2 130.3(2) 5_346 2_454
Nb O3 O2 143.8(2) 1_456 2_454
Ga1 O3 O2 143.8(2) 1_456 2_454
La O3 O2 50.00(14) 2_455 2_454
O2 O3 O2 122.5(2) 3_566 2_454
Ga3 O3 O2 58.90(15) 2_464 2_454
La O3 O2 152.5(2) 4_456 2_454
O1 O3 O2 89.0(2) 2_465 2_454
O2 O3 O2 145.6(2) 1_456 2_454
O2 O3 O2 62.40(18) 3_565 2_454
Ga2 O3 O2 74.45(17) . 2_454
O2 O3 O2 81.4(2) 1_455 2_454
Ga2 O3 O2 41.17(13) 2_565 2_454
La O3 O2 105.43(19) 2_465 2_454
O2 O3 O2 94.05(18) 6_455 2_454
O1 O3 O2 152.6(2) 2_466 2_454
O1 O3 O2 33.81(19) 2_455 2_454
Ga3 O3 O2 115.2(2) 4_456 2_454
La O3 O2 92.08(18) 1_455 2_454
O3 O3 O2 149.64(13) 1_556 2_454
O3 O3 O2 30.36(13) 1_554 2_454
Ga3 O3 O2 46.74(14) 4_345 2_454
O2 O3 O2 99.9(2) 1_556 2_454
O2 O3 O2 102.2(2) 3_456 2_454
La O3 O2 109.54(19) 1_556 2_454
O1 O3 O2 93.3(2) 2_456 2_454
O2 O3 O2 64.72(16) 5_445 2_454
O2 O3 O2 49.58(13) . 2_454
O2 O3 O2 52.1(2) 3_455 2_454
O1 O3 O2 112.1(2) 1_455 2_454
O2 O3 O2 121.7(2) 2_465 2_454
O3 O3 O2 67.89(16) 3_565 2_454
O3 O3 O2 95.97(14) 4_455 2_454
Ga2 O3 O2 72.99(15) 1_564 2_454
O2 O3 O2 63.60(15) 6 2_454
Ga3 O3 O2 167.2(4) 1_556 5_454
Nb O3 O2 58.3(2) 1_455 5_454
Ga1 O3 O2 58.3(2) 1_455 5_454
La O3 O2 46.67(17) 4_455 5_454
Ga3 O3 O2 93.5(2) 2_465 5_454
O3 O3 O2 11.6(2) 2_465 5_454
O3 O3 O2 104.85(17) 4_345 5_454
O3 O3 O2 75.0(2) 3_465 5_454
O2 O3 O2 127.5(4) 2_455 5_454
O3 O3 O2 128.0(4) 2_466 5_454
O2 O3 O2 65.3(2) 5_455 5_454
O2 O3 O2 151.1(3) 4_456 5_454
O1 O3 O2 93.4(3) . 5_454
O3 O3 O2 66.1(3) 6 5_454
O2 O3 O2 59.0(3) 4_455 5_454
O3 O3 O2 156.6(2) 6_556 5_454
Ga2 O3 O2 119.4(2) 2_566 5_454
Ga3 O3 O2 113.31(19) 4_346 5_454
La O3 O2 97.7(2) . 5_454
O2 O3 O2 73.7(2) 6_565 5_454
O3 O3 O2 52.8(2) 5_345 5_454
Ga3 O3 O2 49.34(14) . 5_454
Ga2 O3 O2 78.01(17) 1_565 5_454
O3 O3 O2 119.0(2) 5_346 5_454
Nb O3 O2 142.5(2) 1_456 5_454
Ga1 O3 O2 142.5(2) 1_456 5_454
La O3 O2 99.7(2) 2_455 5_454
O2 O3 O2 112.4(2) 3_566 5_454
Ga3 O3 O2 16.74(9) 2_464 5_454
La O3 O2 128.3(2) 4_456 5_454
O1 O3 O2 33.68(18) 2_465 5_454
O2 O3 O2 94.2(3) 1_456 5_454
O2 O3 O2 52.83(12) 3_565 5_454
Ga2 O3 O2 135.8(2) . 5_454
O2 O3 O2 31.0(2) 1_455 5_454
Ga2 O3 O2 56.45(14) 2_565 5_454
La O3 O2 44.75(13) 2_465 5_454
O2 O3 O2 93.59(16) 6_455 5_454
O1 O3 O2 98.1(2) 2_466 5_454
O1 O3 O2 95.1(3) 2_455 5_454
Ga3 O3 O2 90.80(16) 4_456 5_454
La O3 O2 63.38(13) 1_455 5_454
O3 O3 O2 149.00(15) 1_556 5_454
O3 O3 O2 31.00(15) 1_554 5_454
Ga3 O3 O2 55.38(13) 4_345 5_454
O2 O3 O2 126.00(19) 1_556 5_454
O2 O3 O2 125.8(2) 3_456 5_454
La O3 O2 157.2(2) 1_556 5_454
O1 O3 O2 154.6(3) 2_456 5_454
O2 O3 O2 123.0(3) 5_445 5_454
O2 O3 O2 75.98(17) . 5_454
O2 O3 O2 75.59(19) 3_455 5_454
O1 O3 O2 62.2(2) 1_455 5_454
O2 O3 O2 63.81(12) 2_465 5_454
O3 O3 O2 111.66(13) 3_565 5_454
O3 O3 O2 82.73(17) 4_455 5_454
Ga2 O3 O2 19.18(9) 1_564 5_454
O2 O3 O2 123.3(3) 6 5_454
O2 O3 O2 61.4(2) 2_454 5_454
Ga3 O3 La 19.63(18) 1_556 2_456
Nb O3 La 96.4(3) 1_455 2_456
Ga1 O3 La 96.4(3) 1_455 2_456
La O3 La 157.8(3) 4_455 2_456
Ga3 O3 La 84.7(2) 2_465 2_456
O3 O3 La 143.89(15) 2_465 2_456
O3 O3 La 49.85(19) 4_345 2_456
O3 O3 La 87.9(2) 3_465 2_456
O2 O3 La 48.3(2) 2_455 2_456
O3 O3 La 61.6(2) 2_466 2_456
O2 O3 La 121.9(3) 5_455 2_456
O2 O3 La 53.6(2) 4_456 2_456
O1 O3 La 106.1(3) . 2_456
O3 O3 La 93.8(3) 6 2_456
O2 O3 La 120.8(3) 4_455 2_456
O3 O3 La 10.13(18) 6_556 2_456
Ga2 O3 La 84.37(16) 2_566 2_456
Ga3 O3 La 44.48(10) 4_346 2_456
La O3 La 86.60(16) . 2_456
O2 O3 La 130.1(2) 6_565 2_456
O3 O3 La 102.1(2) 5_345 2_456
Ga3 O3 La 116.8(2) . 2_456
Ga2 O3 La 118.9(2) 1_565 2_456
O3 O3 La 48.90(14) 5_346 2_456
Nb O3 La 38.16(8) 1_456 2_456
Ga1 O3 La 38.16(8) 1_456 2_456
La O3 La 60.24(11) 2_455 2_456
O2 O3 La 92.8(2) 3_566 2_456
Ga3 O3 La 138.02(17) 2_464 2_456
La O3 La 72.92(13) 4_456 2_456
O1 O3 La 163.3(3) 2_465 2_456
O2 O3 La 84.5(2) 1_456 2_456
O2 O3 La 145.3(2) 3_565 2_456
Ga2 O3 La 40.09(7) . 2_456
O2 O3 La 130.8(2) 1_455 2_456
Ga2 O3 La 131.27(19) 2_565 2_456
La O3 La 134.2(2) 2_465 2_456
O2 O3 La 63.48(15) 6_455 2_456
O1 O3 La 98.6(2) 2_466 2_456
O1 O3 La 75.66(18) 2_455 2_456
Ga3 O3 La 114.35(16) 4_456 2_456
La O3 La 96.45(14) 1_455 2_456
O3 O3 La 46.46(10) 1_556 2_456
O3 O3 La 133.55(10) 1_554 2_456
Ga3 O3 La 99.82(14) 4_345 2_456
O2 O3 La 76.55(16) 1_556 2_456
O2 O3 La 30.40(12) 3_456 2_456
La O3 La 45.12(7) 1_556 2_456
O1 O3 La 27.26(8) 2_456 2_456
O2 O3 La 42.79(12) 5_445 2_456
O2 O3 La 115.18(19) . 2_456
O2 O3 La 79.78(15) 3_455 2_456
O1 O3 La 107.78(19) 1_455 2_456
O2 O3 La 131.0(2) 2_465 2_456
O3 O3 La 80.76(19) 3_565 2_456
O3 O3 La 122.13(11) 4_455 2_456
Ga2 O3 La 172.30(16) 1_564 2_456
O2 O3 La 57.76(13) 6 2_456
O2 O3 La 107.19(18) 2_454 2_456
O2 O3 La 154.65(18) 5_454 2_456
Ga3 O3 La 97.7(3) 1_556 2_565
Nb O3 La 129.3(4) 1_455 2_565
Ga1 O3 La 129.3(4) 1_455 2_565
La O3 La 42.46(15) 4_455 2_565
Ga3 O3 La 130.8(3) 2_465 2_565
O3 O3 La 88.6(3) 2_465 2_565
O3 O3 La 141.0(4) 4_345 2_565
O3 O3 La 154.2(4) 3_465 2_565
O2 O3 La 81.9(3) 2_455 2_565
O3 O3 La 111.36(15) 2_466 2_565
O2 O3 La 98.6(3) 5_455 2_565
O2 O3 La 69.5(2) 4_456 2_565
O1 O3 La 10.94(19) . 2_565
O3 O3 La 100.2(2) 6 2_565
O2 O3 La 50.02(19) 4_455 2_565
O3 O3 La 119.86(15) 6_556 2_565
Ga2 O3 La 38.48(10) 2_566 2_565
Ga3 O3 La 160.8(2) 4_346 2_565
La O3 La 48.07(9) . 2_565
O2 O3 La 53.01(15) 6_565 2_565
O3 O3 La 129.2(4) 5_345 2_565
Ga3 O3 La 77.50(15) . 2_565
Ga2 O3 La 79.59(13) 1_565 2_565
O3 O3 La 151.9(3) 5_346 2_565
Nb O3 La 124.47(17) 1_456 2_565
Ga1 O3 La 124.47(17) 1_456 2_565
La O3 La 110.0(2) 2_455 2_565
O2 O3 La 48.99(14) 3_566 2_565
Ga3 O3 La 97.96(17) 2_464 2_565
La O3 La 81.27(12) 4_456 2_565
O1 O3 La 70.90(12) 2_465 2_565
O2 O3 La 129.8(2) 1_456 2_565
O2 O3 La 30.24(14) 3_565 2_565
Ga2 O3 La 86.37(14) . 2_565
O2 O3 La 111.9(2) 1_455 2_565
Ga2 O3 La 36.95(6) 2_565 2_565
La O3 La 102.17(15) 2_465 2_565
O2 O3 La 168.1(2) 6_455 2_565
O1 O3 La 85.93(13) 2_466 2_565
O1 O3 La 78.18(14) 2_455 2_565
Ga3 O3 La 43.20(7) 4_456 2_565
La O3 La 146.17(19) 1_455 2_565
O3 O3 La 102.50(9) 1_556 2_565
O3 O3 La 77.50(10) 1_554 2_565
Ga3 O3 La 117.86(19) 4_345 2_565
O2 O3 La 43.20(13) 1_556 2_565
O2 O3 La 146.0(2) 3_456 2_565
La O3 La 74.18(10) 1_556 2_565
O1 O3 La 91.02(13) 2_456 2_565
O2 O3 La 99.35(18) 5_445 2_565
O2 O3 La 25.15(11) . 2_565
O2 O3 La 126.3(2) 3_455 2_565
O1 O3 La 130.50(18) 1_455 2_565
O2 O3 La 81.21(16) 2_465 2_565
O3 O3 La 40.04(8) 3_565 2_565
O3 O3 La 24.84(7) 4_455 2_565
Ga2 O3 La 70.58(11) 1_564 2_565
O2 O3 La 69.93(14) 6 2_565
O2 O3 La 74.30(16) 2_454 2_565
O2 O3 La 83.07(15) 5_454 2_565
La O3 La 117.03(14) 2_456 2_565
Ga3 O3 Ga2 108.2(4) 1_556 2_466
Nb O3 Ga2 73.7(3) 1_455 2_466
Ga1 O3 Ga2 73.7(3) 1_455 2_466
La O3 Ga2 98.6(3) 4_455 2_466
Ga3 O3 Ga2 15.34(10) 2_465 2_466
O3 O3 Ga2 82.7(4) 2_465 2_466
O3 O3 Ga2 84.8(3) 4_345 2_466
O3 O3 Ga2 28.7(3) 3_465 2_466
O2 O3 Ga2 140.8(3) 2_455 2_466
O3 O3 Ga2 54.0(3) 2_466 2_466
O2 O3 Ga2 35.7(2) 5_455 2_466
O2 O3 Ga2 112.9(3) 4_456 2_466
O1 O3 Ga2 140.5(3) . 2_466
O3 O3 Ga2 110.66(9) 6 2_466
O2 O3 Ga2 138.4(3) 4_455 2_466
O3 O3 Ga2 86.32(15) 6_556 2_466
Ga2 O3 Ga2 124.6(2) 2_566 2_466
Ga3 O3 Ga2 61.95(14) 4_346 2_466
La O3 Ga2 175.9(2) . 2_466
O2 O3 Ga2 81.3(2) 6_565 2_466
O3 O3 Ga2 67.57(17) 5_345 2_466
Ga3 O3 Ga2 118.71(17) . 2_466
Ga2 O3 Ga2 55.36(12) 1_565 2_466
O3 O3 Ga2 45.78(10) 5_346 2_466
Nb O3 Ga2 62.96(13) 1_456 2_466
Ga1 O3 Ga2 62.96(13) 1_456 2_466
La O3 Ga2 114.69(16) 2_455 2_466
O2 O3 Ga2 100.6(2) 3_566 2_466
Ga3 O3 Ga2 74.36(12) 2_464 2_466
La O3 Ga2 77.06(16) 4_456 2_466
O1 O3 Ga2 71.22(16) 2_465 2_466
O2 O3 Ga2 16.47(12) 1_456 2_466
O2 O3 Ga2 118.0(2) 3_565 2_466
Ga2 O3 Ga2 133.83(19) . 2_466
O2 O3 Ga2 51.21(14) 1_455 2_466
Ga2 O3 Ga2 133.80(18) 2_565 2_466
La O3 Ga2 39.71(7) 2_465 2_466
O2 O3 Ga2 55.72(14) 6_455 2_466
O1 O3 Ga2 55.35(11) 2_466 2_466
O1 O3 Ga2 145.25(17) 2_455 2_466
Ga3 O3 Ga2 94.76(16) 4_456 2_466
La O3 Ga2 39.46(7) 1_455 2_466
O3 O3 Ga2 74.76(10) 1_556 2_466
O3 O3 Ga2 105.24(10) 1_554 2_466
Ga3 O3 Ga2 85.52(11) 4_345 2_466
O2 O3 Ga2 129.8(2) 1_556 2_466
O2 O3 Ga2 74.71(16) 3_456 2_466
La O3 Ga2 117.71(19) 1_556 2_466
O1 O3 Ga2 120.6(2) 2_456 2_466
O2 O3 Ga2 125.70(19) 5_445 2_466
O2 O3 Ga2 149.7(2) . 2_466
O2 O3 Ga2 89.73(15) 3_455 2_466
O1 O3 Ga2 18.34(16) 1_455 2_466
O2 O3 Ga2 52.98(13) 2_465 2_466
O3 O3 Ga2 162.38(15) 3_565 2_466
O3 O3 Ga2 110.3(2) 4_455 2_466
Ga2 O3 Ga2 79.99(12) 1_564 2_466
O2 O3 Ga2 151.9(2) 6 2_466
O2 O3 Ga2 129.51(18) 2_454 2_466
O2 O3 Ga2 79.61(15) 5_454 2_466
La O3 Ga2 94.46(15) 2_456 2_466
La O3 Ga2 134.08(17) 2_565 2_466
Ga3 O3 O1 47.5(2) 1_556 1_556
Nb O3 O1 158.5(4) 1_455 1_556
Ga1 O3 O1 158.5(4) 1_455 1_556
La O3 O1 97.0(2) 4_455 1_556
Ga3 O3 O1 86.2(2) 2_465 1_556
O3 O3 O1 153.16(12) 2_465 1_556
O3 O3 O1 112.6(2) 4_345 1_556
O3 O3 O1 122.21(15) 3_465 1_556
O2 O3 O1 74.7(3) 2_455 1_556
O3 O3 O1 48.8(3) 2_466 1_556
O2 O3 O1 93.2(3) 5_455 1_556
O2 O3 O1 15.7(2) 4_456 1_556
O1 O3 O1 61.9(2) . 1_556
O3 O3 O1 142.0(2) 6 1_556
O2 O3 O1 113.8(3) 4_455 1_556
O3 O3 O1 58.7(3) 6_556 1_556
Ga2 O3 O1 31.51(13) 2_566 1_556
Ga3 O3 O1 99.3(2) 4_346 1_556
La O3 O1 82.88(14) . 1_556
O2 O3 O1 69.37(19) 6_565 1_556
O3 O3 O1 161.3(4) 5_345 1_556
Ga3 O3 O1 139.6(2) . 1_556
Ga2 O3 O1 72.35(13) 1_565 1_556
O3 O3 O1 82.8(3) 5_346 1_556
Nb O3 O1 55.02(13) 1_456 1_556
Ga1 O3 O1 55.02(13) 1_456 1_556
La O3 O1 113.31(17) 2_455 1_556
O2 O3 O1 30.06(15) 3_566 1_556
Ga3 O3 O1 158.2(2) 2_464 1_556
La O3 O1 25.42(6) 4_456 1_556
O1 O3 O1 110.4(2) 2_465 1_556
O2 O3 O1 84.9(2) 1_456 1_556
O2 O3 O1 97.01(19) 3_565 1_556
Ga2 O3 O1 69.15(11) . 1_556
O2 O3 O1 144.9(2) 1_455 1_556
Ga2 O3 O1 105.41(16) 2_565 1_556
La O3 O1 115.78(18) 2_465 1_556
O2 O3 O1 118.1(2) 6_455 1_556
O1 O3 O1 56.15(13) 2_466 1_556
O1 O3 O1 103.4(2) 2_455 1_556
Ga3 O3 O1 51.64(9) 4_456 1_556
La O3 O1 136.6(2) 1_455 1_556
O3 O3 O1 33.38(12) 1_556 1_556
O3 O3 O1 146.62(12) 1_554 1_556
Ga3 O3 O1 161.57(19) 4_345 1_556
O2 O3 O1 30.88(14) 1_556 1_556
O2 O3 O1 89.57(19) 3_456 1_556
La O3 O1 26.78(4) 1_556 1_556
O1 O3 O1 54.18(12) 2_456 1_556
O2 O3 O1 87.42(15) 5_445 1_556
O2 O3 O1 87.78(16) . 1_556
O2 O3 O1 141.5(2) 3_455 1_556
O1 O3 O1 118.2(3) 1_455 1_556
O2 O3 O1 86.44(17) 2_465 1_556
O3 O3 O1 61.54(10) 3_565 1_556
O3 O3 O1 61.54(10) 4_455 1_556
Ga2 O3 O1 123.33(16) 1_564 1_556
O2 O3 O1 71.30(13) 6 1_556
O2 O3 O1 129.3(2) 2_454 1_556
O2 O3 O1 142.4(2) 5_454 1_556
La O3 O1 62.79(11) 2_456 1_556
La O3 O1 69.47(12) 2_565 1_556
Ga2 O3 O1 101.15(17) 2_466 1_556
Ga3 O3 O3 116.9(4) 1_556 4_344
Nb O3 O3 30.3(2) 1_455 4_344
Ga1 O3 O3 30.3(2) 1_455 4_344
La O3 O3 87.5(2) 4_455 4_344
Ga3 O3 O3 115.1(2) 2_465 4_344
O3 O3 O3 39.2(3) 2_465 4_344
O3 O3 O3 61.78(12) 4_345 4_344
O3 O3 O3 76.32(5) 3_465 4_344
O2 O3 O3 83.3(3) 2_455 4_344
O3 O3 O3 148.2(3) 2_466 4_344
O2 O3 O3 109.3(3) 5_455 4_344
O2 O3 O3 141.5(4) 4_456 4_344
O1 O3 O3 104.3(4) . 4_344
O3 O3 O3 15.94(19) 6 4_344
O2 O3 O3 50.6(2) 4_455 4_344
O3 O3 O3 115.2(4) 6_556 4_344
Ga2 O3 O3 132.3(3) 2_566 4_344
Ga3 O3 O3 84.21(19) 4_346 4_344
La O3 O3 75.0(2) . 4_344
O2 O3 O3 122.1(2) 6_565 4_344
O3 O3 O3 34.1(2) 5_345 4_344
Ga3 O3 O3 22.75(9) . 4_344
Ga2 O3 O3 127.8(2) 1_565 4_344
O3 O3 O3 107.4(3) 5_346 4_344
Nb O3 O3 131.4(2) 1_456 4_344
Ga1 O3 O3 131.4(2) 1_456 4_344
La O3 O3 49.00(16) 2_455 4_344
O2 O3 O3 148.9(3) 3_566 4_344
Ga3 O3 O3 39.75(7) 2_464 4_344
La O3 O3 177.9(3) 4_456 4_344
O1 O3 O3 84.2(2) 2_465 4_344
O2 O3 O3 116.4(2) 1_456 4_344
O2 O3 O3 79.49(19) 3_565 4_344
Ga2 O3 O3 89.8(2) . 4_344
O2 O3 O3 58.04(15) 1_455 4_344
Ga2 O3 O3 63.57(15) 2_565 4_344
La O3 O3 86.50(14) 2_465 4_344
O2 O3 O3 69.24(18) 6_455 4_344
O1 O3 O3 146.3(2) 2_466 4_344
O1 O3 O3 53.3(2) 2_455 4_344
Ga3 O3 O3 133.68(19) 4_456 4_344
La O3 O3 62.63(13) 1_455 4_344
O3 O3 O3 151.78(12) 1_556 4_344
O3 O3 O3 28.22(12) 1_554 4_344
Ga3 O3 O3 17.95(9) 4_345 4_344
O2 O3 O3 129.1(3) 1_556 4_344
O2 O3 O3 88.6(2) 3_456 4_344
La O3 O3 131.4(3) 1_556 4_344
O1 O3 O3 106.9(3) 2_456 4_344
O2 O3 O3 73.3(2) 5_445 4_344
O2 O3 O3 77.1(2) . 4_344
O2 O3 O3 31.04(15) 3_455 4_344
O1 O3 O3 84.7(2) 1_455 4_344
O2 O3 O3 113.37(19) 2_465 4_344
O3 O3 O3 96.7(2) 3_565 4_344
O3 O3 O3 117.09(13) 4_455 4_344
Ga2 O3 O3 68.61(10) 1_564 4_344
O2 O3 O3 85.5(2) 6 4_344
O2 O3 O3 29.47(16) 2_454 4_344
O2 O3 O3 50.65(12) 5_454 4_344
La O3 O3 107.6(2) 2_456 4_344
La O3 O3 100.17(19) 2_565 4_344
Ga2 O3 O3 100.86(17) 2_466 4_344
O1 O3 O3 156.6(3) 1_556 4_344
Ga3 O3 O3 34.1(2) 1_556 4_346
Nb O3 O3 102.4(4) 1_455 4_346
Ga1 O3 O3 102.4(4) 1_455 4_346
La O3 O3 148.7(3) 4_455 4_346
Ga3 O3 O3 62.11(17) 2_465 4_346
O3 O3 O3 147.4(4) 2_465 4_346
O3 O3 O3 61.78(12) 4_345 4_346
O3 O3 O3 76.32(5) 3_465 4_346
O2 O3 O3 71.5(3) 2_455 4_346
O3 O3 O3 38.1(2) 2_466 4_346
O2 O3 O3 97.9(3) 5_455 4_346
O2 O3 O3 54.4(2) 4_456 4_346
O1 O3 O3 114.3(3) . 4_346
O3 O3 O3 112.9(4) 6 4_346
O2 O3 O3 144.6(3) 4_455 4_346
O3 O3 O3 14.14(16) 6_556 4_346
Ga2 O3 O3 85.73(18) 2_566 4_346
Ga3 O3 O3 42.89(18) 4_346 4_346
La O3 O3 107.9(2) . 4_346
O2 O3 O3 112.7(2) 6_565 4_346
O3 O3 O3 105.2(4) 5_345 4_346
Ga3 O3 O3 138.6(2) . 4_346
Ga2 O3 O3 95.94(16) 1_565 4_346
O3 O3 O3 32.2(2) 5_346 4_346
Nb O3 O3 13.94(6) 1_456 4_346
Ga1 O3 O3 13.94(6) 1_456 4_346
La O3 O3 81.4(2) 2_455 4_346
O2 O3 O3 84.00(18) 3_566 4_346
Ga3 O3 O3 138.0(2) 2_464 4_346
La O3 O3 56.22(8) 4_456 4_346
O1 O3 O3 139.0(3) 2_465 4_346
O2 O3 O3 61.77(18) 1_456 4_346
O2 O3 O3 153.3(2) 3_565 4_346
Ga2 O3 O3 63.02(18) . 4_346
O2 O3 O3 120.2(3) 1_455 4_346
Ga2 O3 O3 151.7(3) 2_565 4_346
La O3 O3 112.8(2) 2_465 4_346
O2 O3 O3 62.0(2) 6_455 4_346
O1 O3 O3 76.36(18) 2_466 4_346
O1 O3 O3 99.9(2) 2_455 4_346
Ga3 O3 O3 102.60(13) 4_456 4_346
La O3 O3 88.6(2) 1_455 4_346
O3 O3 O3 28.22(12) 1_556 4_346
O3 O3 O3 151.78(12) 1_554 4_346
Ga3 O3 O3 110.4(2) 4_345 4_346
O2 O3 O3 80.84(19) 1_556 4_346
O2 O3 O3 35.11(18) 3_456 4_346
La O3 O3 51.16(13) 1_556 4_346
O1 O3 O3 46.76(17) 2_456 4_346
O2 O3 O3 66.9(2) 5_445 4_346
O2 O3 O3 132.6(2) . 4_346
O2 O3 O3 92.7(2) 3_455 4_346
O1 O3 O3 90.2(2) 1_455 4_346
O2 O3 O3 107.1(2) 2_465 4_346
O3 O3 O3 96.7(2) 3_565 4_346
O3 O3 O3 117.09(13) 4_455 4_346
Ga2 O3 O3 152.9(2) 1_564 4_346
O2 O3 O3 79.6(2) 6 4_346
O2 O3 O3 130.5(2) 2_454 4_346
O2 O3 O3 151.2(3) 5_454 4_346
La O3 O3 24.22(12) 2_456 4_346
La O3 O3 123.93(18) 2_565 4_346
Ga2 O3 O3 74.05(16) 2_466 4_346
O1 O3 O3 56.37(13) 1_556 4_346
O3 O3 O3 123.6(2) 4_344 4_346
Ga3 O3 O3 140.9(4) 1_556 3_464
Nb O3 O3 30.3(2) 1_455 3_464
Ga1 O3 O3 30.3(2) 1_455 3_464
La O3 O3 74.1(2) 4_455 3_464
Ga3 O3 O3 94.8(3) 2_465 3_464
O3 O3 O3 17.90(13) 2_465 3_464
O3 O3 O3 76.32(5) 4_345 3_464
O3 O3 O3 61.78(12) 3_465 3_464
O2 O3 O3 110.6(3) 2_455 3_464
O3 O3 O3 133.3(4) 2_466 3_464
O2 O3 O3 82.0(3) 5_455 3_464
O2 O3 O3 167.6(4) 4_456 3_464
O1 O3 O3 112.0(3) . 3_464
O3 O3 O3 43.1(2) 6 3_464
O2 O3 O3 62.55(19) 4_455 3_464
O3 O3 O3 130.2(4) 6_556 3_464
Ga2 O3 O3 142.1(2) 2_566 3_464
Ga3 O3 O3 88.9(2) 4_346 3_464
La O3 O3 96.71(18) . 3_464
O2 O3 O3 102.0(3) 6_565 3_464
O3 O3 O3 26.5(3) 5_345 3_464
Ga3 O3 O3 39.32(6) . 3_464
Ga2 O3 O3 101.2(2) 1_565 3_464
O3 O3 O3 103.5(3) 5_346 3_464
Nb O3 O3 131.4(2) 1_456 3_464
Ga1 O3 O3 131.4(2) 1_456 3_464
La O3 O3 74.01(16) 2_455 3_464
O2 O3 O3 141.0(3) 3_566 3_464
Ga3 O3 O3 13.48(9) 2_464 3_464
La O3 O3 150.9(3) 4_456 3_464
O1 O3 O3 61.1(2) 2_465 3_464
O2 O3 O3 95.9(2) 1_456 3_464
O2 O3 O3 75.06(19) 3_565 3_464
Ga2 O3 O3 116.9(2) . 3_464
O2 O3 O3 31.30(17) 1_455 3_464
Ga2 O3 O3 68.82(11) 2_565 3_464
La O3 O3 59.17(16) 2_465 3_464
O2 O3 O3 69.68(19) 6_455 3_464
O1 O3 O3 118.9(3) 2_466 3_464
O1 O3 O3 80.1(2) 2_455 3_464
Ga3 O3 O3 119.4(2) 4_456 3_464
La O3 O3 47.50(14) 1_455 3_464
O3 O3 O3 151.78(12) 1_556 3_464
O3 O3 O3 28.22(12) 1_554 3_464
Ga3 O3 O3 26.91(10) 4_345 3_464
O2 O3 O3 144.8(2) 1_556 3_464
O2 O3 O3 99.2(2) 3_456 3_464
La O3 O3 158.8(3) 1_556 3_464
O1 O3 O3 133.2(3) 2_456 3_464
O2 O3 O3 99.5(2) 5_445 3_464
O2 O3 O3 87.44(16) . 3_464
O2 O3 O3 47.11(16) 3_455 3_464
O1 O3 O3 61.5(2) 1_455 3_464
O2 O3 O3 86.9(2) 2_465 3_464
O3 O3 O3 117.09(13) 3_565 3_464
O3 O3 O3 109.8(2) 4_455 3_464
Ga2 O3 O3 47.80(13) 1_564 3_464
O2 O3 O3 112.3(2) 6 3_464
O2 O3 O3 50.81(12) 2_454 3_464
O2 O3 O3 28.65(14) 5_454 3_464
La O3 O3 126.2(2) 2_456 3_464
La O3 O3 103.59(16) 2_565 3_464
Ga2 O3 O3 79.44(16) 2_466 3_464
O1 O3 O3 171.0(2) 1_556 3_464
O3 O3 O3 27.35(11) 4_344 3_464
O3 O3 O3 131.7(2) 4_346 3_464
Ga3 O3 O3 59.7(2) 1_556 3_466
Nb O3 O3 102.4(4) 1_455 3_466
Ga1 O3 O3 102.4(4) 1_455 3_466
La O3 O3 128.7(4) 4_455 3_466
Ga3 O3 O3 35.9(2) 2_465 3_466
O3 O3 O3 131.7(5) 2_465 3_466
O3 O3 O3 76.32(5) 4_345 3_466
O3 O3 O3 61.78(12) 3_465 3_466
O2 O3 O3 98.8(3) 2_455 3_466
O3 O3 O3 17.87(15) 2_466 3_466
O2 O3 O3 70.5(3) 5_455 3_466
O2 O3 O3 67.2(2) 4_456 3_466
O1 O3 O3 122.5(3) . 3_466
O3 O3 O3 128.3(4) 6 3_466
O2 O3 O3 171.6(3) 4_455 3_466
O3 O3 O3 41.43(19) 6_556 3_466
Ga2 O3 O3 92.34(18) 2_566 3_466
Ga3 O3 O3 49.44(14) 4_346 3_466
La O3 O3 133.0(2) . 3_466
O2 O3 O3 93.7(3) 6_565 3_466
O3 O3 O3 101.2(4) 5_345 3_466
Ga3 O3 O3 154.0(2) . 3_466
Ga2 O3 O3 71.6(2) 1_565 3_466
O3 O3 O3 24.4(2) 5_346 3_466
Nb O3 O3 13.94(6) 1_456 3_466
Ga1 O3 O3 13.94(6) 1_456 3_466
La O3 O3 103.34(19) 2_455 3_466
O2 O3 O3 79.4(2) 3_566 3_466
Ga3 O3 O3 122.7(2) 2_464 3_466
La O3 O3 47.03(12) 4_456 3_466
O1 O3 O3 111.9(3) 2_465 3_466
O2 O3 O3 35.4(2) 1_456 3_466
O2 O3 O3 144.9(3) 3_565 3_466
Ga2 O3 O3 90.20(14) . 3_466
O2 O3 O3 100.2(3) 1_455 3_466
Ga2 O3 O3 164.7(2) 2_565 3_466
La O3 O3 86.3(2) 2_465 3_466
O2 O3 O3 62.44(19) 6_455 3_466
O1 O3 O3 54.3(2) 2_466 3_466
O1 O3 O3 126.6(2) 2_455 3_466
Ga3 O3 O3 91.1(2) 4_456 3_466
La O3 O3 76.10(19) 1_455 3_466
O3 O3 O3 28.22(12) 1_556 3_466
O3 O3 O3 151.78(12) 1_554 3_466
Ga3 O3 O3 114.1(2) 4_345 3_466
O2 O3 O3 91.51(17) 1_556 3_466
O2 O3 O3 50.60(15) 3_456 3_466
La O3 O3 69.08(9) 1_556 3_466
O1 O3 O3 73.07(15) 2_456 3_466
O2 O3 O3 93.50(18) 5_445 3_466
O2 O3 O3 148.8(2) . 3_466
O2 O3 O3 102.9(2) 3_455 3_466
O1 O3 O3 67.6(2) 1_455 3_466
O2 O3 O3 81.0(2) 2_465 3_466
O3 O3 O3 117.09(13) 3_565 3_466
O3 O3 O3 109.8(2) 4_455 3_466
Ga2 O3 O3 125.7(3) 1_564 3_466
O2 O3 O3 106.14(17) 6 3_466
O2 O3 O3 152.7(2) 2_454 3_466
O2 O3 O3 129.3(3) 5_454 3_466
La O3 O3 51.39(9) 2_456 3_466
La O3 O3 128.06(18) 2_565 3_466
Ga2 O3 O3 49.72(17) 2_466 3_466
O1 O3 O3 61.07(12) 1_556 3_466
O3 O3 O3 131.7(2) 4_344 3_466
O3 O3 O3 27.35(11) 4_346 3_466
O3 O3 O3 123.6(2) 3_464 3_466
Ga3 O3 O1 64.5(3) 1_556 1_445
Nb O3 O1 49.0(2) 1_455 1_445
Ga1 O3 O1 49.0(2) 1_455 1_445
La O3 O1 146.3(3) 4_455 1_445
Ga3 O3 O1 95.5(2) 2_465 1_445
O3 O3 O1 94.4(2) 2_465 1_445
O3 O3 O1 8.2(3) 4_345 1_445
O3 O3 O1 67.7(3) 3_465 1_445
O2 O3 O1 55.5(3) 2_455 1_445
O3 O3 O1 99.32(19) 2_466 1_445
O2 O3 O1 127.6(3) 5_455 1_445
O2 O3 O1 99.7(3) 4_456 1_445
O1 O3 O1 126.1(2) . 1_445
O3 O3 O1 48.2(3) 6 1_445
O2 O3 O1 94.3(3) 4_455 1_445
O3 O3 O1 56.1(3) 6_556 1_445
Ga2 O3 O1 124.2(2) 2_566 1_445
Ga3 O3 O1 35.61(14) 4_346 1_445
La O3 O1 84.70(16) . 1_445
O2 O3 O1 174.2(3) 6_565 1_445
O3 O3 O1 56.31(17) 5_345 1_445
Ga3 O3 O1 74.79(19) . 1_445
Ga2 O3 O1 147.5(2) 1_565 1_445
O3 O3 O1 61.70(16) 5_346 1_445
Nb O3 O1 75.43(19) 1_456 1_445
Ga1 O3 O1 75.43(19) 1_456 1_445
La O3 O1 23.58(10) 2_455 1_445
O2 O3 O1 141.2(3) 3_566 1_445
Ga3 O3 O1 89.93(18) 2_464 1_445
La O3 O1 120.9(2) 4_456 1_445
O1 O3 O1 137.07(17) 2_465 1_445
O2 O3 O1 96.4(2) 1_456 1_445
O2 O3 O1 132.8(3) 3_565 1_445
Ga2 O3 O1 54.65(11) . 1_445
O2 O3 O1 93.0(2) 1_455 1_445
Ga2 O3 O1 110.8(2) 2_565 1_445
La O3 O1 116.74(15) 2_465 1_445
O2 O3 O1 37.40(13) 6_455 1_445
O1 O3 O1 136.0(2) 2_466 1_445
O1 O3 O1 55.09(14) 2_455 1_445
Ga3 O3 O1 162.8(2) 4_456 1_445
La O3 O1 65.87(10) 1_455 1_445
O3 O3 O1 92.88(17) 1_556 1_445
O3 O3 O1 87.12(17) 1_554 1_445
Ga3 O3 O1 50.33(15) 4_345 1_445
O2 O3 O1 114.7(2) 1_556 1_445
O2 O3 O1 31.85(17) 3_456 1_445
La O3 O1 88.96(17) 1_556 1_445
O1 O3 O1 61.22(19) 2_456 1_445
O2 O3 O1 36.71(11) 5_445 1_445
O2 O3 O1 110.7(2) . 1_445
O2 O3 O1 30.18(17) 3_455 1_445
O1 O3 O1 92.12(12) 1_455 1_445
O2 O3 O1 144.8(2) 2_465 1_445
O3 O3 O1 96.7(2) 3_565 1_445
O3 O3 O1 156.5(2) 4_455 1_445
Ga2 O3 O1 124.9(2) 1_564 1_445
O2 O3 O1 66.68(14) 6 1_445
O2 O3 O1 70.46(19) 2_454 1_445
O2 O3 O1 105.7(2) 5_454 1_445
La O3 O1 49.61(16) 2_456 1_445
La O3 O1 132.75(19) 2_565 1_445
Ga2 O3 O1 92.95(13) 2_466 1_445
O1 O3 O1 111.7(2) 1_556 1_445
O3 O3 O1 59.2(2) 4_344 1_445
O3 O3 O1 64.9(2) 4_346 1_445
O3 O3 O1 77.1(2) 3_464 1_445
O3 O3 O1 82.3(2) 3_466 1_445
Ga3 O3 La 92.6(4) 1_556 2_466
Nb O3 La 107.2(3) 1_455 2_466
Ga1 O3 La 107.2(3) 1_455 2_466
La O3 La 92.5(3) 4_455 2_466
Ga3 O3 La 21.62(12) 2_465 2_466
O3 O3 La 106.7(5) 2_465 2_466
O3 O3 La 105.9(2) 4_345 2_466
O3 O3 La 61.0(3) 3_465 2_466
O2 O3 La 133.3(3) 2_455 2_466
O3 O3 La 29.0(3) 2_466 2_466
O2 O3 La 34.4(2) 5_455 2_466
O2 O3 La 82.7(3) 4_456 2_466
O1 O3 La 112.3(3) . 2_466
O3 O3 La 144.20(7) 6 2_466
O2 O3 La 149.2(3) 4_455 2_466
O3 O3 La 78.3(3) 6_556 2_466
Ga2 O3 La 91.09(19) 2_566 2_466
Ga3 O3 La 77.95(17) 4_346 2_466
La O3 La 150.45(19) . 2_466
O2 O3 La 61.21(19) 6_565 2_466
O3 O3 La 101.2(2) 5_345 2_466
Ga3 O3 La 147.4(2) . 2_466
Ga2 O3 La 35.66(9) 1_565 2_466
O3 O3 La 52.33(12) 5_346 2_466
Nb O3 La 50.29(11) 1_456 2_466
Ga1 O3 La 50.29(11) 1_456 2_466
La O3 La 137.00(19) 2_455 2_466
O2 O3 La 67.81(18) 3_566 2_466
Ga3 O3 La 100.89(16) 2_464 2_466
La O3 La 43.97(10) 4_456 2_466
O1 O3 La 74.8(2) 2_465 2_466
O2 O3 La 20.34(13) 1_456 2_466
O2 O3 La 111.4(2) 3_565 2_466
Ga2 O3 La 124.74(19) . 2_466
O2 O3 La 78.56(17) 1_455 2_466
Ga2 O3 La 133.90(17) 2_565 2_466
La O3 La 54.56(10) 2_465 2_466
O2 O3 La 81.30(18) 6_455 2_466
O1 O3 La 24.59(7) 2_466 2_466
O1 O3 La 164.1(2) 2_455 2_466
Ga3 O3 La 67.29(12) 4_456 2_466
La O3 La 73.04(13) 1_455 2_466
O3 O3 La 50.17(8) 1_556 2_466
O3 O3 La 129.82(8) 1_554 2_466
Ga3 O3 La 119.17(15) 4_345 2_466
O2 O3 La 96.19(18) 1_556 2_466
O2 O3 La 84.70(17) 3_456 2_466
La O3 La 90.57(14) 1_556 2_466
O1 O3 La 106.1(2) 2_456 2_466
O2 O3 La 131.0(2) 5_445 2_466
O2 O3 La 135.00(19) . 2_466
O2 O3 La 121.15(18) 3_455 2_466
O1 O3 La 49.26(16) 1_455 2_466
O2 O3 La 43.47(12) 2_465 2_466
O3 O3 La 128.82(12) 3_565 2_466
O3 O3 La 85.94(18) 4_455 2_466
Ga2 O3 La 89.78(13) 1_564 2_466
O2 O3 La 136.63(19) 6 2_466
O2 O3 La 159.76(19) 2_454 2_466
O2 O3 La 99.10(17) 5_454 2_466
La O3 La 88.45(14) 2_456 2_466
La O3 La 110.47(14) 2_565 2_466
Ga2 O3 La 33.65(6) 2_466 2_466
O1 O3 La 69.02(12) 1_556 2_466
O3 O3 La 133.9(2) 4_344 2_466
O3 O3 La 64.23(11) 4_346 2_466
O3 O3 La 109.59(19) 3_464 2_466
O3 O3 La 37.51(15) 3_466 2_466
O1 O3 La 113.56(18) 1_445 2_466
Ga3 O3 O2 16.6(2) 1_556 2_456
Nb O3 O2 124.0(3) 1_455 2_456
Ga1 O3 O2 124.0(3) 1_455 2_456
La O3 O2 131.4(3) 4_455 2_456
Ga3 O3 O2 83.8(2) 2_465 2_456
O3 O3 O2 171.7(2) 2_465 2_456
O3 O3 O2 77.8(2) 4_345 2_456
O3 O3 O2 104.28(16) 3_465 2_456
O2 O3 O2 56.2(2) 2_455 2_456
O3 O3 O2 48.5(3) 2_466 2_456
O2 O3 O2 111.0(3) 5_455 2_456
O2 O3 O2 27.7(2) 4_456 2_456
O1 O3 O2 86.6(3) . 2_456
O3 O3 O2 117.7(4) 6 2_456
O2 O3 O2 123.6(3) 4_455 2_456
O3 O3 O2 24.7(2) 6_556 2_456
Ga2 O3 O2 59.59(16) 2_566 2_456
Ga3 O3 O2 67.67(16) 4_346 2_456
La O3 O2 84.86(17) . 2_456
O2 O3 O2 103.0(3) 6_565 2_456
O3 O3 O2 129.1(3) 5_345 2_456
Ga3 O3 O2 134.4(2) . 2_456
Ga2 O3 O2 98.16(19) 1_565 2_456
O3 O3 O2 60.1(2) 5_346 2_456
Nb O3 O2 35.41(11) 1_456 2_456
Ga1 O3 O2 35.41(11) 1_456 2_456
La O3 O2 84.05(16) 2_455 2_456
O2 O3 O2 64.93(18) 3_566 2_456
Ga3 O3 O2 164.9(2) 2_464 2_456
La O3 O2 47.94(12) 4_456 2_456
O1 O3 O2 142.7(3) 2_465 2_456
O2 O3 O2 83.0(2) 1_456 2_456
O2 O3 O2 126.85(18) 3_565 2_456
Ga2 O3 O2 47.92(12) . 2_456
O2 O3 O2 147.6(2) 1_455 2_456
Ga2 O3 O2 125.05(19) 2_565 2_456
La O3 O2 131.8(2) 2_465 2_456
O2 O3 O2 87.41(18) 6_455 2_456
O1 O3 O2 78.1(2) 2_466 2_456
O1 O3 O2 88.6(2) 2_455 2_456
Ga3 O3 O2 86.43(15) 4_456 2_456
La O3 O2 116.49(19) 1_455 2_456
O3 O3 O2 27.34(13) 1_556 2_456
O3 O3 O2 152.66(13) 1_554 2_456
Ga3 O3 O2 127.63(19) 4_345 2_456
O2 O3 O2 53.51(13) 1_556 2_456
O2 O3 O2 55.8(2) 3_456 2_456
La O3 O2 23.17(10) 1_556 2_456
O1 O3 O2 29.09(17) 2_456 2_456
O2 O3 O2 60.84(14) 5_445 2_456
O2 O3 O2 105.37(18) . 2_456
O2 O3 O2 107.5(2) 3_455 2_456
O1 O3 O2 115.7(2) 1_455 2_456
O2 O3 O2 112.4(2) 2_465 2_456
O3 O3 O2 70.01(16) 3_565 2_456
O3 O3 O2 95.42(12) 4_455 2_456
Ga2 O3 O2 157.69(19) 1_564 2_456
O2 O3 O2 59.99(13) 6 2_456
O2 O3 O2 122.3(2) 2_454 2_456
O2 O3 O2 176.2(2) 5_454 2_456
La O3 O2 27.93(10) 2_456 2_456
La O3 O2 96.68(15) 2_565 2_456
Ga2 O3 O2 97.95(18) 2_466 2_456
O1 O3 O2 34.88(12) 1_556 2_456
O3 O3 O2 133.0(2) 4_344 2_456
O3 O3 O2 27.99(14) 4_346 2_456
O3 O3 O2 154.1(2) 3_464 2_456
O3 O3 O2 48.24(10) 3_466 2_456
O1 O3 O2 77.3(2) 1_445 2_456
La O3 O2 77.37(14) 2_466 2_456
Ga3 O3 O2 152.6(4) 1_556 6_564
Nb O3 O2 83.6(3) 1_455 6_564
Ga1 O3 O2 83.6(3) 1_455 6_564
La O3 O2 21.34(17) 4_455 6_564
Ga3 O3 O2 107.3(2) 2_465 6_564
O3 O3 O2 35.61(12) 2_465 6_564
O3 O3 O2 127.83(11) 4_345 6_564
O3 O3 O2 100.5(3) 3_465 6_564
O2 O3 O2 119.7(4) 2_455 6_564
O3 O3 O2 128.9(3) 2_466 6_564
O2 O3 O2 70.0(3) 5_455 6_564
O2 O3 O2 123.8(2) 4_456 6_564
O1 O3 O2 66.6(3) . 6_564
O3 O3 O2 78.9(3) 6 6_564
O2 O3 O2 47.23(14) 4_455 6_564
O3 O3 O2 175.82(14) 6_556 6_564
Ga2 O3 O2 91.96(18) 2_566 6_564
Ga3 O3 O2 140.78(19) 4_346 6_564
La O3 O2 81.71(18) . 6_564
O2 O3 O2 55.64(16) 6_565 6_564
O3 O3 O2 79.2(3) 5_345 6_564
Ga3 O3 O2 53.97(14) . 6_564
Ga2 O3 O2 71.07(15) 1_565 6_564
O3 O3 O2 142.03(18) 5_346 6_564
Nb O3 O2 153.2(2) 1_456 6_564
Ga1 O3 O2 153.2(2) 1_456 6_564
La O3 O2 111.3(2) 2_455 6_564
O2 O3 O2 88.5(2) 3_566 6_564
Ga3 O3 O2 43.66(11) 2_464 6_564
La O3 O2 113.12(18) 4_456 6_564
O1 O3 O2 28.55(17) 2_465 6_564
O2 O3 O2 107.5(2) 1_456 6_564
O2 O3 O2 25.96(19) 3_565 6_564
Ga2 O3 O2 128.0(2) . 6_564
O2 O3 O2 56.34(14) 1_455 6_564
Ga2 O3 O2 36.95(10) 2_565 6_564
La O3 O2 57.37(12) 2_465 6_564
O2 O3 O2 121.0(2) 6_455 6_564
O1 O3 O2 90.81(19) 2_466 6_564
O1 O3 O2 92.8(2) 2_455 6_564
Ga3 O3 O2 68.20(13) 4_456 6_564
La O3 O2 90.22(14) 1_455 6_564
O3 O3 O2 140.95(12) 1_556 6_564
O3 O3 O2 39.05(12) 1_554 6_564
Ga3 O3 O2 77.67(14) 4_345 6_564
O2 O3 O2 98.6(2) 1_556 6_564
O2 O3 O2 152.4(2) 3_456 6_564
La O3 O2 130.05(16) 1_556 6_564
O1 O3 O2 142.1(2) 2_456 6_564
O2 O3 O2 125.9(2) 5_445 6_564
O2 O3 O2 53.94(14) . 6_564
O2 O3 O2 96.75(15) 3_455 6_564
O1 O3 O2 82.71(19) 1_455 6_564
O2 O3 O2 59.95(11) 2_465 6_564
O3 O3 O2 89.26(11) 3_565 6_564
O3 O3 O2 56.50(13) 4_455 6_564
Ga2 O3 O2 17.13(8) 1_564 6_564
O2 O3 O2 110.5(2) 6 6_564
O2 O3 O2 62.45(19) 2_454 6_564
O2 O3 O2 27.49(16) 5_454 6_564
La O3 O2 168.0(2) 2_456 6_564
La O3 O2 55.97(11) 2_565 6_564
Ga2 O3 O2 97.01(15) 2_466 6_564
O1 O3 O2 117.97(16) 1_556 6_564
O3 O3 O2 66.78(14) 4_344 6_564
O3 O3 O2 167.0(2) 4_346 6_564
O3 O3 O2 53.26(15) 3_464 6_564
O3 O3 O2 140.4(3) 3_466 6_564
O1 O3 O2 126.0(2) 1_445 6_564
La O3 O2 103.07(16) 2_466 6_564
O2 O3 O2 151.46(17) 2_456 6_564
Ga3 O3 O2 71.2(3) 1_556 5_456
Nb O3 O2 122.7(4) 1_455 5_456
Ga1 O3 O2 122.7(4) 1_455 5_456
La O3 O2 102.9(3) 4_455 5_456
Ga3 O3 O2 38.12(17) 2_465 5_456
O3 O3 O2 129.5(5) 2_465 5_456
O3 O3 O2 103.48(16) 4_345 5_456
O3 O3 O2 76.4(2) 3_465 5_456
O2 O3 O2 111.4(3) 2_455 5_456
O3 O3 O2 10.17(17) 2_466 5_456
O2 O3 O2 55.7(2) 5_455 5_456
O2 O3 O2 60.6(3) 4_456 5_456
O1 O3 O2 102.1(3) . 5_456
O3 O3 O2 154.9(3) 6 5_456
O2 O3 O2 154.2(3) 4_455 5_456
O3 O3 O2 61.2(3) 6_556 5_456
Ga2 O3 O2 74.96(19) 2_566 5_456
Ga3 O3 O2 76.34(19) 4_346 5_456
La O3 O2 131.0(2) . 5_456
O2 O3 O2 67.0(2) 6_565 5_456
O3 O3 O2 118.6(3) 5_345 5_456
Ga3 O3 O2 170.2(2) . 5_456
Ga2 O3 O2 47.95(14) 1_565 5_456
O3 O3 O2 50.27(19) 5_346 5_456
Nb O3 O2 35.05(11) 1_456 5_456
Ga1 O3 O2 35.05(11) 1_456 5_456
La O3 O2 129.1(2) 2_455 5_456
O2 O3 O2 55.95(15) 3_566 5_456
Ga3 O3 O2 123.8(2) 2_464 5_456
La O3 O2 25.35(11) 4_456 5_456
O1 O3 O2 92.9(3) 2_465 5_456
O2 O3 O2 36.9(2) 1_456 5_456
O2 O3 O2 117.7(2) 3_565 5_456
Ga2 O3 O2 103.16(18) . 5_456
O2 O3 O2 101.2(2) 1_455 5_456
Ga2 O3 O2 138.47(18) 2_565 5_456
La O3 O2 77.13(17) 2_465 5_456
O2 O3 O2 87.03(19) 6_455 5_456
O1 O3 O2 28.42(17) 2_466 5_456
O1 O3 O2 143.8(2) 2_455 5_456
Ga3 O3 O2 64.33(14) 4_456 5_456
La O3 O2 90.19(18) 1_455 5_456
O3 O3 O2 27.94(12) 1_556 5_456
O3 O3 O2 152.06(12) 1_554 5_456
Ga3 O3 O2 135.21(19) 4_345 5_456
O2 O3 O2 77.79(17) 1_556 5_456
O2 O3 O2 77.43(19) 3_456 5_456
La O3 O2 67.78(14) 1_556 5_456
O1 O3 O2 84.3(2) 2_456 5_456
O2 O3 O2 113.4(2) 5_445 5_456
O2 O3 O2 128.99(17) . 5_456
O2 O3 O2 128.8(2) 3_455 5_456
O1 O3 O2 70.5(2) 1_455 5_456
O2 O3 O2 60.11(14) 2_465 5_456
O3 O3 O2 109.62(11) 3_565 5_456
O3 O3 O2 83.39(15) 4_455 5_456
Ga2 O3 O2 108.98(18) 1_564 5_456
O2 O3 O2 113.8(2) 6 5_456
O2 O3 O2 177.3(2) 2_454 5_456
O2 O3 O2 121.1(2) 5_454 5_456
La O3 O2 71.11(14) 2_456 5_456
La O3 O2 104.50(15) 2_565 5_456
Ga2 O3 O2 53.04(13) 2_466 5_456
O1 O3 O2 48.12(13) 1_556 5_456
O3 O3 O2 152.7(2) 4_344 5_456
O3 O3 O2 48.07(10) 4_346 5_456
O3 O3 O2 131.8(2) 3_464 5_456
O3 O3 O2 27.16(14) 3_466 5_456
O1 O3 O2 109.2(2) 1_445 5_456
La O3 O2 22.89(10) 2_466 5_456
O2 O3 O2 55.26(17) 2_456 5_456
O2 O3 O2 118.99(17) 6_564 5_456
Ga3 O3 O3 78.3(2) 1_556 5_445
Nb O3 O3 99.2(4) 1_455 5_445
Ga1 O3 O3 99.2(4) 1_455 5_445
La O3 O3 79.0(3) 4_455 5_445
Ga3 O3 O3 172.9(3) 2_465 5_445
O3 O3 O3 89.5(5) 2_465 5_445
O3 O3 O3 93.4(3) 4_345 5_445
O3 O3 O3 145.4(3) 3_465 5_445
O2 O3 O3 42.6(2) 2_455 5_445
O3 O3 O3 134.2(4) 2_466 5_445
O2 O3 O3 143.6(3) 5_455 5_445
O2 O3 O3 75.4(3) 4_456 5_445
O1 O3 O3 43.1(2) . 5_445
O3 O3 O3 62.31(15) 6 5_445
O2 O3 O3 34.2(2) 4_455 5_445
O3 O3 O3 99.18(13) 6_556 5_445
Ga2 O3 O3 62.44(18) 2_566 5_445
Ga3 O3 O3 118.41(15) 4_346 5_445
La O3 O3 4.64(6) . 5_445
O2 O3 O3 100.6(3) 6_565 5_445
O3 O3 O3 104.9(3) 5_345 5_445
Ga3 O3 O3 53.06(17) . 5_445
Ga2 O3 O3 127.3(2) 1_565 5_445
O3 O3 O3 138.00(15) 5_346 5_445
Nb O3 O3 123.96(19) 1_456 5_445
Ga1 O3 O3 123.96(19) 1_456 5_445
La O3 O3 62.34(7) 2_455 5_445
O2 O3 O3 85.8(2) 3_566 5_445
Ga3 O3 O3 97.6(3) 2_464 5_445
La O3 O3 110.8(2) 4_456 5_445
O1 O3 O3 104.9(3) 2_465 5_445
O2 O3 O3 171.8(3) 1_456 5_445
O2 O3 O3 59.0(2) 3_565 5_445
Ga2 O3 O3 50.39(4) . 5_445
O2 O3 O3 120.8(3) 1_455 5_445
Ga2 O3 O3 40.86(18) 2_565 5_445
La O3 O3 135.0(3) 2_465 5_445
O2 O3 O3 121.49(18) 6_455 5_445
O1 O3 O3 130.4(2) 2_466 5_445
O1 O3 O3 30.70(4) 2_455 5_445
Ga3 O3 O3 89.24(19) 4_456 5_445
La O3 O3 133.4(2) 1_455 5_445
O3 O3 O3 113.31(16) 1_556 5_445
O3 O3 O3 66.69(16) 1_554 5_445
Ga3 O3 O3 87.13(19) 4_345 5_445
O2 O3 O3 57.90(16) 1_556 5_445
O2 O3 O3 106.96(14) 3_456 5_445
La O3 O3 70.32(12) 1_556 5_445
O1 O3 O3 65.35(13) 2_456 5_445
O2 O3 O3 55.35(10) 5_445 5_445
O2 O3 O3 27.87(18) . 5_445
O2 O3 O3 84.62(18) 3_455 5_445
O1 O3 O3 153.5(3) 1_455 5_445
O2 O3 O3 127.1(2) 2_465 5_445
O3 O3 O3 25.52(16) 3_565 5_445
O3 O3 O3 72.32(19) 4_455 5_445
Ga2 O3 O3 94.5(2) 1_564 5_445
O2 O3 O3 32.72(11) 6 5_445
O2 O3 O3 42.39(16) 2_454 5_445
O2 O3 O3 93.2(3) 5_454 5_445
La O3 O3 90.41(10) 2_456 5_445
La O3 O3 47.68(15) 2_565 5_445
Ga2 O3 O3 171.8(3) 2_466 5_445
O1 O3 O3 86.97(17) 1_556 5_445
O3 O3 O3 71.3(2) 4_344 5_445
O3 O3 O3 112.1(2) 4_346 5_445
O3 O3 O3 92.3(2) 3_464 5_445
O3 O3 O3 137.55(18) 3_466 5_445
O1 O3 O3 85.16(10) 1_445 5_445
La O3 O3 153.5(2) 2_466 5_445
O2 O3 O3 89.46(16) 2_456 5_445
O2 O3 O3 77.8(2) 6_564 5_445
O2 O3 O3 135.1(2) 5_456 5_445
Ga3 O3 O3 134.3(4) 1_556 5_455
Nb O3 O3 110.5(3) 1_455 5_455
Ga1 O3 O3 110.5(3) 1_455 5_455
La O3 O3 7.39(11) 4_455 5_455
Ga3 O3 O3 99.61(16) 2_465 5_455
O3 O3 O3 62.43(15) 2_465 5_455
O3 O3 O3 156.10(17) 4_345 5_455
O3 O3 O3 112.4(4) 3_465 5_455
O2 O3 O3 122.7(4) 2_455 5_455
O3 O3 O3 105.93(19) 2_466 5_455
O2 O3 O3 61.07(19) 5_455 5_455
O2 O3 O3 99.5(3) 4_456 5_455
O1 O3 O3 52.3(2) . 5_455
O3 O3 O3 105.6(4) 6 5_455
O2 O3 O3 63.1(3) 4_455 5_455
O3 O3 O3 149.0(4) 6_556 5_455
Ga2 O3 O3 69.22(18) 2_566 5_455
Ga3 O3 O3 157.0(2) 4_346 5_455
La O3 O3 84.8(2) . 5_455
O2 O3 O3 29.00(14) 6_565 5_455
O3 O3 O3 104.9(3) 5_345 5_455
Ga3 O3 O3 79.2(2) . 5_455
Ga2 O3 O3 50.99(5) 1_565 5_455
O3 O3 O3 138.00(15) 5_346 5_455
Nb O3 O3 130.4(2) 1_456 5_455
Ga1 O3 O3 130.4(2) 1_456 5_455
La O3 O3 134.7(3) 2_455 5_455
O2 O3 O3 60.77(17) 3_566 5_455
Ga3 O3 O3 68.94(15) 2_464 5_455
La O3 O3 85.26(16) 4_456 5_455
O1 O3 O3 29.37(5) 2_465 5_455
O2 O3 O3 99.13(17) 1_456 5_455
O2 O3 O3 24.92(16) 3_565 5_455
Ga2 O3 O3 128.1(2) . 5_455
O2 O3 O3 73.93(17) 1_455 5_455
Ga2 O3 O3 47.33(16) 2_565 5_455
La O3 O3 60.33(5) 2_465 5_455
O2 O3 O3 141.3(2) 6_455 5_455
O1 O3 O3 67.75(14) 2_466 5_455
O1 O3 O3 107.9(2) 2_455 5_455
Ga3 O3 O3 39.96(9) 4_456 5_455
La O3 O3 107.38(15) 1_455 5_455
O3 O3 O3 113.31(16) 1_556 5_455
O3 O3 O3 66.69(16) 1_554 5_455
Ga3 O3 O3 105.8(2) 4_345 5_455
O2 O3 O3 77.6(2) 1_556 5_455
O2 O3 O3 170.5(2) 3_456 5_455
La O3 O3 108.37(19) 1_556 5_455
O1 O3 O3 131.5(2) 2_456 5_455
O2 O3 O3 137.9(2) 5_445 5_455
O2 O3 O3 54.63(19) . 5_455
O2 O3 O3 125.0(3) 3_455 5_455
O1 O3 O3 88.76(11) 1_455 5_455
O2 O3 O3 45.24(10) 2_465 5_455
O3 O3 O3 81.80(19) 3_565 5_455
O3 O3 O3 31.02(19) 4_455 5_455
Ga2 O3 O3 34.18(9) 1_564 5_455
O2 O3 O3 110.9(2) 6 5_455
O2 O3 O3 84.9(2) 2_454 5_455
O2 O3 O3 52.24(15) 5_454 5_455
La O3 O3 153.0(2) 2_456 5_455
La O3 O3 41.88(13) 2_565 5_455
Ga2 O3 O3 95.96(9) 2_466 5_455
O1 O3 O3 90.73(18) 1_556 5_455
O3 O3 O3 94.80(19) 4_344 5_455
O3 O3 O3 141.3(2) 4_346 5_455
O3 O3 O3 80.32(19) 3_464 5_455
O3 O3 O3 121.9(2) 3_466 5_455
O1 O3 O3 153.7(3) 1_445 5_455
La O3 O3 86.57(10) 2_466 5_455
O2 O3 O3 125.5(2) 2_456 5_455
O2 O3 O3 28.29(14) 6_564 5_455
O2 O3 O3 95.79(17) 5_456 5_455
O3 O3 O3 82.5(2) 5_445 5_455
Ga3 O3 La 75.6(3) 1_556 1_456
Nb O3 La 80.9(3) 1_455 1_456
Ga1 O3 La 80.9(3) 1_455 1_456
La O3 La 129.0(3) 4_455 1_456
Ga3 O3 La 25.09(13) 2_465 1_456
O3 O3 La 110.4(4) 2_465 1_456
O3 O3 La 65.73(19) 4_345 1_456
O3 O3 La 38.97(7) 3_465 1_456
O2 O3 La 108.8(3) 2_455 1_456
O3 O3 La 37.18(17) 2_466 1_456
O2 O3 La 64.2(3) 5_455 1_456
O2 O3 La 89.7(3) 4_456 1_456
O1 O3 La 144.5(3) . 1_456
O3 O3 La 112.0(2) 6 1_456
O2 O3 La 161.6(3) 4_455 1_456
O3 O3 La 53.21(11) 6_556 1_456
Ga2 O3 La 114.9(2) 2_566 1_456
Ga3 O3 La 37.75(11) 4_346 1_456
La O3 La 147.9(2) . 1_456
O2 O3 La 101.4(2) 6_565 1_456
O3 O3 La 78.8(3) 5_345 1_456
Ga3 O3 La 133.77(17) . 1_456
Ga2 O3 La 75.14(16) 1_565 1_456
O3 O3 La 13.66(8) 5_346 1_456
Nb O3 La 32.76(7) 1_456 1_456
Ga1 O3 La 32.76(7) 1_456 1_456
La O3 La 96.84(15) 2_455 1_456
O2 O3 La 99.1(2) 3_566 1_456
Ga3 O3 La 100.91(15) 2_464 1_456
La O3 La 67.30(14) 4_456 1_456
O1 O3 La 103.7(2) 2_465 1_456
O2 O3 La 25.46(14) 1_456 1_456
O2 O3 La 149.0(2) 3_565 1_456
Ga2 O3 La 101.15(16) . 1_456
O2 O3 La 79.73(17) 1_455 1_456
Ga2 O3 La 166.68(18) 2_565 1_456
La O3 La 72.85(13) 2_465 1_456
O2 O3 La 43.94(13) 6_455 1_456
O1 O3 La 63.72(14) 2_466 1_456
O1 O3 La 127.11(17) 2_455 1_456
Ga3 O3 La 105.76(18) 4_456 1_456
La O3 La 53.24(9) 1_455 1_456
O3 O3 La 51.06(8) 1_556 1_456
O3 O3 La 128.94(8) 1_554 1_456
Ga3 O3 La 93.12(12) 4_345 1_456
O2 O3 La 114.4(2) 1_556 1_456
O2 O3 La 46.13(12) 3_456 1_456
La O3 La 90.29(14) 1_556 1_456
O1 O3 La 87.52(16) 2_456 1_456
O2 O3 La 97.14(17) 5_445 1_456
O2 O3 La 171.61(19) . 1_456
O2 O3 La 85.89(15) 3_455 1_456
O1 O3 La 48.60(15) 1_455 1_456
O2 O3 La 79.30(16) 2_465 1_456
O3 O3 La 137.88(12) 3_565 1_456
O3 O3 La 125.01(18) 4_455 1_456
Ga2 O3 La 113.13(15) 1_564 1_456
O2 O3 La 119.07(18) 6 1_456
O2 O3 La 137.94(18) 2_454 1_456
O2 O3 La 110.42(17) 5_454 1_456
La O3 La 61.35(10) 2_456 1_456
La O3 La 147.76(18) 2_565 1_456
Ga2 O3 La 33.16(6) 2_466 1_456
O1 O3 La 83.86(15) 1_556 1_456
O3 O3 La 111.07(17) 4_344 1_456
O3 O3 La 41.58(12) 4_346 1_456
O3 O3 La 100.73(16) 3_464 1_456
O3 O3 La 22.87(11) 3_466 1_456
O1 O3 La 73.34(14) 1_445 1_456
La O3 La 40.22(7) 2_466 1_456
O2 O3 La 67.89(13) 2_456 1_456
O2 O3 La 130.18(17) 6_564 1_456
O2 O3 La 43.30(11) 5_456 1_456
O3 O3 La 151.42(16) 5_445 1_456
O3 O3 La 124.53(15) 5_455 1_456
Ga3 O3 La 136.9(3) 1_556 1_565
Nb O3 La 108.7(3) 1_455 1_565
Ga1 O3 La 108.7(3) 1_455 1_565
La O3 La 27.32(17) 4_455 1_565
Ga3 O3 La 77.2(2) 2_465 1_565
O3 O3 La 65.9(2) 2_465 1_565
O3 O3 La 152.4(4) 4_345 1_565
O3 O3 La 94.6(4) 3_465 1_565
O2 O3 La 143.0(3) 2_455 1_565
O3 O3 La 88.4(2) 2_466 1_565
O2 O3 La 38.9(2) 5_455 1_565
O2 O3 La 102.4(3) 4_456 1_565
O1 O3 La 70.33(16) . 1_565
O3 O3 La 118.4(4) 6 1_565
O2 O3 La 83.9(2) 4_455 1_565
O3 O3 La 138.8(4) 6_556 1_565
Ga2 O3 La 78.13(15) 2_566 1_565
Ga3 O3 La 136.3(2) 4_346 1_565
La O3 La 106.76(17) . 1_565
O2 O3 La 20.13(15) 6_565 1_565
O3 O3 La 101.17(15) 5_345 1_565
Ga3 O3 La 94.69(16) . 1_565
Ga2 O3 La 30.72(7) 1_565 1_565
O3 O3 La 115.73(11) 5_346 1_565
Nb O3 La 113.2(2) 1_456 1_565
Ga1 O3 La 113.2(2) 1_456 1_565
La O3 La 151.9(2) 2_455 1_565
O2 O3 La 60.94(16) 3_566 1_565
Ga3 O3 La 68.85(11) 2_464 1_565
La O3 La 75.17(13) 4_456 1_565
O1 O3 La 21.05(15) 2_465 1_565
O2 O3 La 76.76(19) 1_456 1_565
O2 O3 La 47.03(13) 3_565 1_565
Ga2 O3 La 146.16(16) . 1_565
O2 O3 La 64.47(16) 1_455 1_565
Ga2 O3 La 68.95(11) 2_565 1_565
La O3 La 42.68(7) 2_465 1_565
O2 O3 La 125.6(2) 6_455 1_565
O1 O3 La 50.03(15) 2_466 1_565
O1 O3 La 129.8(2) 2_455 1_565
Ga3 O3 La 39.67(7) 4_456 1_565
La O3 La 93.41(14) 1_455 1_565
O3 O3 La 101.40(9) 1_556 1_565
O3 O3 La 78.60(9) 1_554 1_565
Ga3 O3 La 109.01(15) 4_345 1_565
O2 O3 La 87.57(16) 1_556 1_565
O2 O3 La 148.2(2) 3_456 1_565
La O3 La 113.44(14) 1_556 1_565
O1 O3 La 141.38(16) 2_456 1_565
O2 O3 La 160.0(2) 5_445 1_565
O2 O3 La 76.88(15) . 1_565
O2 O3 La 129.06(19) 3_455 1_565
O1 O3 La 69.88(11) 1_455 1_565
O2 O3 La 22.90(11) 2_465 1_565
O3 O3 La 100.75(15) 3_565 1_565
O3 O3 La 42.25(15) 4_455 1_565
Ga2 O3 La 35.60(6) 1_564 1_565
O2 O3 La 131.00(17) 6 1_565
O2 O3 La 102.97(17) 2_454 1_565
O2 O3 La 54.27(12) 5_454 1_565
La O3 La 147.81(19) 2_456 1_565
La O3 La 61.12(8) 2_565 1_565
Ga2 O3 La 74.33(11) 2_466 1_565
O1 O3 La 89.38(12) 1_556 1_565
O3 O3 La 104.17(14) 4_344 1_565
O3 O3 La 126.37(17) 4_346 1_565
O3 O3 La 82.15(17) 3_464 1_565
O3 O3 La 102.2(2) 3_466 1_565
O1 O3 La 157.38(18) 1_445 1_565
La O3 La 65.33(10) 2_466 1_565
O2 O3 La 122.30(17) 2_456 1_565
O2 O3 La 40.78(10) 6_564 1_565
O2 O3 La 78.32(14) 5_456 1_565
O3 O3 La 104.7(2) 5_445 1_565
O3 O3 La 22.37(5) 5_455 1_565
La O3 La 102.19(15) 1_456 1_565
Ga3 O3 O1 124.3(4) 1_556 1_554
Nb O3 O1 81.8(3) 1_455 1_554
Ga1 O3 O1 81.8(3) 1_455 1_554
La O3 O1 44.0(2) 4_455 1_554
Ga3 O3 O1 139.9(3) 2_465 1_554
O3 O3 O1 47.5(3) 2_465 1_554
O3 O3 O1 110.7(2) 4_345 1_554
O3 O3 O1 119.36(13) 3_465 1_554
O2 O3 O1 86.6(3) 2_455 1_554
O3 O3 O1 155.39(10) 2_466 1_554
O2 O3 O1 103.4(3) 5_455 1_554
O2 O3 O1 112.2(3) 4_456 1_554
O1 O3 O1 54.3(2) . 1_554
O3 O3 O1 58.4(3) 6 1_554
O2 O3 O1 13.87(17) 4_455 1_554
O3 O3 O1 144.3(3) 6_556 1_554
Ga2 O3 O1 84.70(19) 2_566 1_554
Ga3 O3 O1 137.1(2) 4_346 1_554
La O3 O1 50.45(13) . 1_554
O2 O3 O1 79.0(2) 6_565 1_554
O3 O3 O1 82.1(3) 5_345 1_554
Ga3 O3 O1 32.09(10) . 1_554
Ga2 O3 O1 101.11(16) 1_565 1_554
O3 O3 O1 160.6(3) 5_346 1_554
Nb O3 O1 169.3(2) 1_456 1_554
Ga1 O3 O1 169.3(2) 1_456 1_554
La O3 O1 84.01(17) 2_455 1_554
O2 O3 O1 95.3(2) 3_566 1_554
Ga3 O3 O1 56.99(13) 2_464 1_554
La O3 O1 127.47(17) 4_456 1_554
O1 O3 O1 61.93(17) 2_465 1_554
O2 O3 O1 140.2(2) 1_456 1_554
O2 O3 O1 28.01(14) 3_565 1_554
Ga2 O3 O1 95.08(17) . 1_554
O2 O3 O1 78.33(18) 1_455 1_554
Ga2 O3 O1 10.79(8) 2_565 1_554
La O3 O1 89.15(14) 2_465 1_554
O2 O3 O1 122.7(2) 6_455 1_554
O1 O3 O1 118.4(2) 2_466 1_554
O1 O3 O1 60.09(17) 2_455 1_554
Ga3 O3 O1 82.32(13) 4_456 1_554
La O3 O1 105.42(16) 1_455 1_554
O3 O3 O1 149.59(10) 1_556 1_554
O3 O3 O1 30.41(10) 1_554 1_554
Ga3 O3 O1 70.75(14) 4_345 1_554
O2 O3 O1 86.67(18) 1_556 1_554
O2 O3 O1 136.7(2) 3_456 1_554
La O3 O1 111.81(17) 1_556 1_554
O1 O3 O1 111.4(2) 2_456 1_554
O2 O3 O1 93.18(19) 5_445 1_554
O2 O3 O1 29.71(13) . 1_554
O2 O3 O1 83.32(18) 3_455 1_554
O1 O3 O1 110.3(2) 1_455 1_554
O2 O3 O1 92.17(16) 2_465 1_554
O3 O3 O1 64.00(8) 3_565 1_554
O3 O3 O1 64.00(8) 4_455 1_554
Ga2 O3 O1 49.02(8) 1_564 1_554
O2 O3 O1 78.39(17) 6 1_554
O2 O3 O1 34.54(12) 2_454 1_554
O2 O3 O1 48.06(14) 5_454 1_554
La O3 O1 134.64(18) 2_456 1_554
La O3 O1 47.50(10) 2_565 1_554
Ga2 O3 O1 127.34(16) 2_466 1_554
O1 O3 O1 116.21(13) 1_556 1_554
O3 O3 O1 53.66(13) 4_344 1_554
O3 O3 O1 158.0(2) 4_346 1_554
O3 O3 O1 58.12(12) 3_464 1_554
O3 O3 O1 172.6(2) 3_466 1_554
O1 O3 O1 105.0(2) 1_445 1_554
La O3 O1 135.63(15) 2_466 1_554
O2 O3 O1 133.93(19) 2_456 1_554
O2 O3 O1 33.40(10) 6_564 1_554
O2 O3 O1 145.73(17) 5_456 1_554
O3 O3 O1 46.08(18) 5_445 1_554
O3 O3 O1 50.70(15) 5_455 1_554
La O3 O1 157.88(16) 1_456 1_554
La O3 O1 70.60(10) 1_565 1_554
Ga3 O3 O3 37.62(15) 1_556 5_446
Nb O3 O3 131.0(3) 1_455 5_446
Ga1 O3 O3 131.0(3) 1_455 5_446
La O3 O3 103.0(3) 4_455 5_446
Ga3 O3 O3 124.5(3) 2_465 5_446
O3 O3 O3 137.5(6) 2_465 5_446
O3 O3 O3 93.3(3) 4_345 5_446
O3 O3 O3 144.3(2) 3_465 5_446
O2 O3 O3 35.1(2) 2_455 5_446
O3 O3 O3 86.1(4) 2_466 5_446
O2 O3 O3 134.7(3) 5_455 5_446
O2 O3 O3 28.5(2) 4_456 5_446
O1 O3 O3 49.9(3) . 5_446
O3 O3 O3 99.52(13) 6 5_446
O2 O3 O3 81.6(3) 4_455 5_446
O3 O3 O3 60.88(18) 6_556 5_446
Ga2 O3 O3 36.71(17) 2_566 5_446
Ga3 O3 O3 100.23(19) 4_346 5_446
La O3 O3 43.75(9) . 5_446
O2 O3 O3 96.6(2) 6_565 5_446
O3 O3 O3 139.24(11) 5_345 5_446
Ga3 O3 O3 100.3(2) . 5_446
Ga2 O3 O3 111.2(2) 1_565 5_446
O3 O3 O3 101.8(3) 5_346 5_446
Nb O3 O3 78.32(19) 1_456 5_446
Ga1 O3 O3 78.32(19) 1_456 5_446
La O3 O3 77.04(6) 2_455 5_446
O2 O3 O3 58.9(2) 3_566 5_446
Ga3 O3 O3 146.0(3) 2_464 5_446
La O3 O3 68.39(18) 4_456 5_446
O1 O3 O3 130.4(2) 2_465 5_446
O2 O3 O3 123.5(3) 1_456 5_446
O2 O3 O3 89.4(2) 3_565 5_446
Ga2 O3 O3 33.23(4) . 5_446
O2 O3 O3 169.1(3) 1_455 5_446
Ga2 O3 O3 82.3(2) 2_565 5_446
La O3 O3 154.74(18) 2_465 5_446
O2 O3 O3 117.5(2) 6_455 5_446
O1 O3 O3 98.4(2) 2_466 5_446
O1 O3 O3 60.45(14) 2_455 5_446
Ga3 O3 O3 76.63(17) 4_456 5_446
La O3 O3 151.4(2) 1_455 5_446
O3 O3 O3 64.95(18) 1_556 5_446
O3 O3 O3 115.05(18) 1_554 5_446
Ga3 O3 O3 123.41(16) 4_345 5_446
O2 O3 O3 27.23(16) 1_556 5_446
O2 O3 O3 85.48(18) 3_456 5_446
La O3 O3 21.97(10) 1_556 5_446
O1 O3 O3 30.48(7) 2_456 5_446
O2 O3 O3 52.47(10) 5_445 5_446
O2 O3 O3 62.85(19) . 5_446
O2 O3 O3 108.95(14) 3_455 5_446
O1 O3 O3 158.0(3) 1_455 5_446
O2 O3 O3 123.2(2) 2_465 5_446
O3 O3 O3 27.1(2) 3_565 5_446
O3 O3 O3 72.6(2) 4_455 5_446
Ga2 O3 O3 131.1(2) 1_564 5_446
O2 O3 O3 28.76(11) 6 5_446
O2 O3 O3 88.48(19) 2_454 5_446
O2 O3 O3 138.8(3) 5_454 5_446
La O3 O3 56.40(11) 2_456 5_446
La O3 O3 60.79(16) 2_565 5_446
Ga2 O3 O3 139.7(3) 2_466 5_446
O1 O3 O3 42.99(13) 1_556 5_446
O3 O3 O3 113.6(2) 4_344 5_446
O3 O3 O3 69.78(19) 4_346 5_446
O3 O3 O3 139.2(2) 3_464 5_446
O3 O3 O3 90.62(16) 3_466 5_446
O1 O3 O3 87.57(10) 1_445 5_446
La O3 O3 111.2(2) 2_466 5_446
O2 O3 O3 42.94(15) 2_456 5_446
O2 O3 O3 115.0(2) 6_564 5_446
O2 O3 O3 88.8(2) 5_456 5_446
O3 O3 O3 48.35(8) 5_445 5_446
O3 O3 O3 101.1(2) 5_455 5_446
La O3 O3 110.8(2) 1_456 5_446
La O3 O3 114.30(17) 1_565 5_446
O1 O3 O3 91.0(2) 1_554 5_446
Ga3 O3 O3 95.6(4) 1_556 5_456
Nb O3 O3 147.4(3) 1_455 5_456
Ga1 O3 O3 147.4(3) 1_455 5_456
La O3 O3 55.69(14) 4_455 5_456
Ga3 O3 O3 75.67(19) 2_465 5_456
O3 O3 O3 106.87(16) 2_465 5_456
O3 O3 O3 154.4(2) 4_345 5_456
O3 O3 O3 112.1(4) 3_465 5_456
O2 O3 O3 116.2(3) 2_455 5_456
O3 O3 O3 60.98(19) 2_466 5_456
O2 O3 O3 55.47(18) 5_455 5_456
O2 O3 O3 62.1(3) 4_456 5_456
O1 O3 O3 58.2(2) . 5_456
O3 O3 O3 152.7(4) 6 5_456
O2 O3 O3 102.9(3) 4_455 5_456
O3 O3 O3 101.7(4) 6_556 5_456
Ga2 O3 O3 45.96(19) 2_566 5_456
Ga3 O3 O3 128.1(3) 4_346 5_456
La O3 O3 99.8(2) . 5_456
O2 O3 O3 21.67(15) 6_565 5_456
O3 O3 O3 139.24(11) 5_345 5_456
Ga3 O3 O3 126.0(3) . 5_456
Ga2 O3 O3 31.10(4) 1_565 5_456
O3 O3 O3 101.8(3) 5_346 5_456
Nb O3 O3 83.5(2) 1_456 5_456
Ga1 O3 O3 83.5(2) 1_456 5_456
La O3 O3 158.09(19) 2_455 5_456
O2 O3 O3 22.26(18) 3_566 5_456
Ga3 O3 O3 110.09(15) 2_464 5_456
La O3 O3 36.91(14) 4_456 5_456
O1 O3 O3 62.31(16) 2_465 5_456
O2 O3 O3 74.48(19) 1_456 5_456
O2 O3 O3 66.55(18) 3_565 5_456
Ga2 O3 O3 113.6(2) . 5_456
O2 O3 O3 101.74(15) 1_455 5_456
Ga2 O3 O3 86.76(19) 2_565 5_456
La O3 O3 73.67(5) 2_465 5_456
O2 O3 O3 135.8(3) 6_455 5_456
O1 O3 O3 29.96(8) 2_466 5_456
O1 O3 O3 131.2(2) 2_455 5_456
Ga3 O3 O3 13.02(8) 4_456 5_456
La O3 O3 119.71(15) 1_455 5_456
O3 O3 O3 64.95(18) 1_556 5_456
O3 O3 O3 115.05(18) 1_554 5_456
Ga3 O3 O3 150.25(19) 4_345 5_456
O2 O3 O3 54.80(19) 1_556 5_456
O2 O3 O3 127.3(3) 3_456 5_456
La O3 O3 73.48(18) 1_556 5_456
O1 O3 O3 101.8(2) 2_456 5_456
O2 O3 O3 133.1(2) 5_445 5_456
O2 O3 O3 81.1(2) . 5_456
O2 O3 O3 169.64(19) 3_455 5_456
O1 O3 O3 91.30(12) 1_455 5_456
O2 O3 O3 42.10(10) 2_465 5_456
O3 O3 O3 81.91(19) 3_565 5_456
O3 O3 O3 32.29(19) 4_455 5_456
Ga2 O3 O3 76.31(11) 1_564 5_456
O2 O3 O3 107.72(18) 6 5_456
O2 O3 O3 127.9(3) 2_454 5_456
O2 O3 O3 95.35(16) 5_454 5_456
La O3 O3 108.6(2) 2_456 5_456
La O3 O3 56.07(14) 2_565 5_456
Ga2 O3 O3 83.60(13) 2_466 5_456
O1 O3 O3 48.18(16) 1_556 5_456
O3 O3 O3 143.1(2) 4_344 5_456
O3 O3 O3 93.06(17) 4_346 5_456
O3 O3 O3 123.44(19) 3_464 5_456
O3 O3 O3 78.8(2) 3_466 5_456
O1 O3 O3 157.7(3) 1_445 5_456
La O3 O3 54.55(12) 2_466 5_456
O2 O3 O3 81.4(2) 2_456 5_456
O2 O3 O3 76.31(16) 6_564 5_456
O2 O3 O3 51.74(17) 5_456 5_456
O3 O3 O3 101.1(2) 5_445 5_456
O3 O3 O3 48.35(8) 5_455 5_456
La O3 O3 92.7(2) 1_456 5_456
La O3 O3 41.29(7) 1_565 5_456
O1 O3 O3 94.4(2) 1_554 5_456
O3 O3 O3 81.14(18) 5_446 5_456
loop_
_geom_bond_atom_site_label_1
_geom_bond_atom_site_label_2
_geom_bond_distance
_geom_bond_site_symmetry_2
La O3 2.392(9) 5_445
La O3 2.392(9) 3_565
La O2 2.411(9) 2_455
La O2 2.411(9) 4_455
La O1 2.590(5) .
La O1 2.590(5) 2_455
La O2 2.857(10) 6
La O2 2.857(10) .
La Ga2 3.3971(14) .
La Ga2 3.3971(14) 2_565
La Ga1 3.4736(8) .
La Nb 3.4736(8) .
Ga1 O3 1.991(8) 6_655
Ga1 O3 1.991(8) 4_445
Ga1 O3 1.991(8) 1_655
Ga1 O3 1.991(8) 2_565
Ga1 O3 1.992(8) 5_445
Ga1 O3 1.992(8) 3_565
Ga1 La 3.4736(8) 2
Ga1 La 3.4736(8) 4
Ga1 O2 3.608(9) 2
Ga1 O2 3.608(9) 4
Ga1 O2 3.608(9) .
Ga2 O1 1.773(15) 2_456
Ga2 O2 1.844(8) 6
Ga2 O2 1.844(8) 5_445
Ga2 O2 1.844(8) 2_455
Ga2 O1 3.310(15) 2_455
Ga2 La 3.3971(14) 4_445
Ga2 La 3.3971(14) 2_455
Ga2 O3 3.485(8) 2_456
Ga2 O3 3.485(8) 5_446
Ga2 O3 3.485(8) 6_556
Ga2 La 3.6231(15) 4_446
Ga3 O3 1.820(9) 6
Ga3 O3 1.820(9) 1_554
Ga3 O2 1.857(9) 2_454
Ga3 O2 1.857(9) 4_455
Ga3 O3 2.611(10) 4_344
Ga3 O3 2.611(10) 2_465
Ga3 Nb 3.1851(9) 1_454
Ga3 Nb 3.1851(9) 1_455
Ga3 O1 3.565(7) 1_554
Ga3 O1 3.565(7) 2_455
Ga3 O3 3.689(9) 5_345
Ga3 O3 3.689(9) 3_464
Nb O3 1.991(8) 6_655
Nb O3 1.991(8) 4_445
Nb O3 1.991(8) 1_655
Nb O3 1.991(8) 2_565
Nb O3 1.992(8) 5_445
Nb O3 1.992(8) 3_565
Nb Ga3 3.1850(9) 1_656
Nb Ga3 3.1850(9) 1_655
Nb Ga3 3.1850(9) 4_445
Nb Ga3 3.1850(9) 4_446
Nb Ga3 3.1850(9) 2_565
Nb Ga3 3.1850(9) 2_564
O1 Ga2 1.773(15) 2_566
O1 La 2.590(5) 2_565
O1 La 2.590(5) 4_455
O1 O2 2.956(15) 4_455
O1 O2 2.956(15) .
O1 O2 2.956(15) 3_565
O1 O2 3.090(15) 1_556
O1 O2 3.090(15) 4_456
O1 O2 3.090(15) 3_566
O1 O3 3.169(8) 3_565
O1 O3 3.169(8) 4_455
O1 O3 3.169(8) .
O1 Ga2 3.310(15) 2_565
O1 O2 3.556(10) 5
O1 O2 3.556(10) 2_455
O1 O2 3.556(10) 6_565
O1 Ga3 3.565(7) 2_565
O1 Ga3 3.565(7) 1_556
O1 Ga3 3.565(7) 4_456
O1 O3 4.416(11) 5_445
O1 O3 4.416(11) 6_665
O1 O3 4.416(11) 2_465
O1 Ga3 4.702(11) 2_564
O1 Ga3 4.702(11) 4_455
O1 Ga1 4.782(3) 1_455
O1 Nb 4.782(3) 1_455
O1 Ga1 4.782(3) 1_565
O1 Nb 4.782(3) 1_565
O1 La 4.810(13) 1_556
O1 La 4.810(13) 2_566
O1 La 4.810(13) 4_456
O1 O2 4.842(10) 6
O1 O2 4.842(10) 2_565
O1 O2 4.842(10) 5_455
O1 O3 4.852(14) 5_446
O1 O3 4.852(14) 6_666
O1 O3 4.852(14) 2_466
O1 O3 4.913(13) 2_565
O1 O3 4.913(13) 6
O1 O3 4.913(13) 5_455
O1 Ga2 4.914(4) 1_665
O1 Ga2 4.914(4) 1_565
O1 O1 5.043(11) 2_455
O1 O1 5.043(11) 2_565
O1 O1 5.043(11) 2_465
O1 O1 5.0830 1_554
O1 O1 5.0830 1_556
O1 O3 5.309(11) 2_566
O1 O3 5.309(11) 6_556
O1 O3 5.309(11) 5_456
O1 Ga3 5.321(4) 4_446
O1 Ga3 5.321(4) 1_666
O1 Ga3 5.321(4) 2_465
O1 O3 5.434(9) 1_655
O1 O3 5.434(9) 4_345
O1 O3 5.434(9) 3_575
O1 O2 5.680(15) 5_554
O1 O2 5.680(15) 2_454
O1 O2 5.680(15) 6_564
O1 O3 5.735(15) 3_564
O1 O3 5.735(15) 1_554
O1 O3 5.735(15) 4_454
O1 O1 5.698(17) 2_566
O1 O1 5.698(17) 2_456
O1 O1 5.698(17) 2_466
O1 O3 5.845(8) 4_445
O1 O3 5.845(8) 1_665
O1 O3 5.845(8) 3_465
O1 La 5.910(2) 4
O1 La 5.910(2) 2_455
O1 La 5.910(2) 1_565
O1 O2 6.252(8) 6_665
O1 O2 6.252(8) 5_445
O1 O2 6.253(8) 2_465
O1 O3 6.235(16) 3_566
O2 Ga2 1.844(8) 2_565
O2 Ga3 1.857(9) 2_564
O2 La 2.411(9) 2_565
O2 O2 2.834(14) 4_455
O2 O2 2.835(14) 3_565
O2 O3 2.810(13) 2_565
O2 O2 2.867(19) 5_554
O2 O3 2.881(14) 5_445
O2 O3 3.006(13) 3_564
O2 O1 3.090(15) 1_554
O2 O3 3.348(14) 3_565
O2 O1 3.556(10) 2_565
O2 Ga2 3.690(9) 1_664
O2 O2 3.691(18) 5
O2 O3 3.879(12) 6_665
O2 La 4.004(10) 2_564
O2 Ga3 4.237(9) 4_455
O2 Ga3 4.231(9) 4_445
O2 O3 4.267(12) 4_454
O2 La 4.287(9) 1_554
O2 La 4.323(8) 4_455
O2 Ga3 4.367(9) 2_565
O2 O3 4.467(13) 1_654
O2 O3 4.515(13) 4_455
O2 La 4.524(8) 4
O2 Ga2 4.539(10) 2_566
O2 O2 4.579(9) 2_454
O2 O2 4.579(9) 2_564
O2 O3 4.704(12) 1_655
O2 O2 4.790(19) 6_554
O2 Nb 4.820(9) 1_554
O2 Ga1 4.820(9) 1_554
O2 O1 4.842(10) 2_455
O2 O3 4.849(11) 6_655
O2 Ga2 4.942(10) 1_554
O2 Ga3 4.975(10) 1_665
O2 Ga3 4.970(8) 1_655
O2 O2 5.0830 1_556
O2 O2 5.0830 1_554
O2 O2 5.135(11) 2_455
O2 O2 5.135(11) 2_565
O2 O3 5.189(11) 1_554
O2 O3 5.165(12) 4_444
O2 Ga2 5.259(9) 1_665
O2 O2 5.271(13) 6_664
O2 O2 5.271(13) 6_564
O2 O2 5.32(2) 6
O2 O3 5.346(13) 5_455
O2 Ga1 5.354(9) 1_565
O2 Nb 5.354(9) 1_565
O2 La 5.376(9) 4_454
O2 O3 5.394(13) .
O2 O3 5.371(12) 4_445
O2 O3 5.450(13) 2_465
O2 O3 5.522(13) 6
O2 O3 5.523(14) 2_564
O2 La 5.539(9) 4_554
O2 O3 5.560(12) 5_444
O2 O1 5.680(15) 2_564
O2 O2 5.654(15) 3
O2 O2 5.654(15) 4
O2 O2 5.761(13) 6_665
O2 O2 5.761(13) 6_565
O2 O2 5.820(7) 4_454
O2 O2 5.820(7) 4_456
O2 O2 5.820(7) 3_566
O2 O2 5.820(7) 3_564
O2 La 5.930(9) 1_665
O2 O2 6.067(16) 3_665
O2 O2 6.067(16) 4_565
O2 O3 6.079(13) 2_566
O2 O3 6.136(13) 6_664
O2 O3 6.113(14) 5_446
O2 O1 6.253(8) 2_465
O2 O3 6.343(14) 1_664
O3 Ga3 1.820(9) 1_556
O3 Nb 1.991(8) 1_455
O3 Ga1 1.991(8) 1_455
O3 La 2.392(9) 4_455
O3 Ga3 2.611(10) 2_465
O3 O3 2.656(18) 2_465
O3 O3 2.728(14) 4_345
O3 O3 2.728(14) 3_465
O3 O2 2.810(13) 2_455
O3 O3 2.85(2) 2_466
O3 O2 2.881(14) 5_455
O3 O2 3.006(13) 4_456
O3 O3 3.181(19) 6
O3 O2 3.348(14) 4_455
O3 O3 3.342(18) 6_556
O3 Ga2 3.485(8) 2_566
O3 Ga3 3.689(9) 4_346
O3 O2 3.879(12) 6_565
O3 O3 3.942(16) 5_345
O3 Ga2 4.033(10) 1_565
O3 O3 4.073(19) 5_346
O3 Nb 4.173(10) 1_456
O3 Ga1 4.173(10) 1_456
O3 La 4.244(9) 2_455
O3 O2 4.267(12) 3_566
O3 Ga3 4.383(9) 2_464
O3 La 4.378(10) 4_456
O3 O1 4.416(11) 2_465
O3 O2 4.467(13) 1_456
O3 O2 4.515(13) 3_565
O3 O2 4.704(12) 1_455
O3 Ga2 4.791(10) 2_565
O3 La 4.791(9) 2_465
O3 O2 4.850(11) 6_455
O3 O1 4.852(14) 2_466
O3 O1 4.913(13) 2_455
O3 Ga3 4.932(8) 4_456
O3 La 4.935(8) 1_455
O3 O3 5.0830 1_556
O3 O3 5.0830 1_554
O3 Ga3 5.099(9) 4_345
O3 O2 5.189(11) 1_556
O3 O2 5.165(12) 3_456
O3 La 5.282(8) 1_556
O3 O1 5.309(11) 2_456
O3 O2 5.346(13) 5_445
O3 O2 5.372(12) 3_455
O3 O1 5.434(9) 1_455
O3 O2 5.450(13) 2_465
O3 O3 5.466(14) 3_565
O3 O3 5.466(14) 4_455
O3 Ga2 5.500(9) 1_564
O3 O2 5.521(13) 6
O3 O2 5.523(14) 2_454
O3 O2 5.560(12) 5_454
O3 La 5.609(9) 2_456
O3 La 5.631(8) 2_565
O3 Ga2 5.624(10) 2_466
O3 O1 5.735(15) 1_556
O3 O3 5.769(6) 4_344
O3 O3 5.769(6) 4_346
O3 O3 5.769(6) 3_464
O3 O3 5.769(6) 3_466
O3 O1 5.845(8) 1_445
O3 La 6.033(11) 2_466
O3 O2 6.079(13) 2_456
O3 O2 6.136(13) 6_564
O3 O2 6.113(14) 5_456
O3 O3 6.162(14) 5_445
O3 O3 6.162(14) 5_455
O3 La 6.148(10) 1_456
O3 La 6.168(9) 1_565
O3 O1 6.235(16) 1_554
O3 O3 6.247(12) 5_446
O3 O3 6.247(12) 5_456
