#------------------------------------------------------------------------------
#$Date: 2016-02-20 02:53:41 +0200 (Sat, 20 Feb 2016) $
#$Revision: 176768 $
#$URL: svn://www.crystallography.net/cod/cif/2/10/56/2105693.cif $
#------------------------------------------------------------------------------
#
# This file is available in the Crystallography Open Database (COD),
# http://www.crystallography.net/. The original data for this entry
# were provided by IUCr Journals, http://journals.iucr.org/.
#
# The file may be used within the scientific community so long as
# proper attribution is given to the journal article from which the
# data were obtained.
#
data_2105693
loop_
_publ_author_name
'Clegg, William'
'Tooke, Duncan M.'
_publ_section_title
;
 Alkali metal complexes of 6-methyl-2-pyridone: simple formulae, but not
 so simple structures
;
_journal_issue                   6
_journal_name_full               'Acta Crystallographica Section B'
_journal_page_first              603
_journal_page_last               612
_journal_paper_doi               10.1107/S2052519213025980
_journal_volume                  69
_journal_year                    2013
_chemical_formula_moiety         'Cs +,C6 H6 N O -,H2 O'
_chemical_formula_sum            'C6 H8 Cs N O2'
_chemical_formula_weight         259.04
_chemical_name_systematic
;
 ?
;
_space_group_crystal_system      monoclinic
_space_group_IT_number           14
_space_group_name_Hall           '-P 2ybc'
_space_group_name_H-M_alt        'P 1 21/c 1'
_symmetry_space_group_name_Hall  '-P 2ybc'
_symmetry_space_group_name_H-M   'P 1 21/c 1'
_atom_sites_solution_hydrogens   mixed
_atom_sites_solution_primary     direct
_atom_sites_solution_secondary   difmap
_audit_creation_method           SHELXL-2013
_cell_angle_alpha                90
_cell_angle_beta                 100.605(2)
_cell_angle_gamma                90
_cell_formula_units_Z            4
_cell_length_a                   14.174(3)
_cell_length_b                   8.2056(14)
_cell_length_c                   7.0984(12)
_cell_measurement_reflns_used    3289
_cell_measurement_temperature    160(2)
_cell_measurement_theta_max      28.46
_cell_measurement_theta_min      2.88
_cell_volume                     811.5(3)
_computing_cell_refinement       'Bruker APEX2'
_computing_data_collection       'Bruker SMART'
_computing_data_reduction        'Bruker APEX2'
_computing_molecular_graphics    'Bruker SHELXTL'
_computing_publication_material  'Bruker SHELXTL and local programs'
_computing_structure_refinement  SHELXL-2013
_computing_structure_solution    'Bruker SHELXTL'
_diffrn_ambient_temperature      160(2)
_diffrn_measured_fraction_theta_full 0.980
_diffrn_measured_fraction_theta_max 0.935
_diffrn_measurement_device_type  'Bruker SMART 1K CCD diffractometer'
_diffrn_measurement_method       'thin-slice \w scans'
_diffrn_radiation_type           MoK\a
_diffrn_radiation_wavelength     0.71073
_diffrn_reflns_av_R_equivalents  0.0273
_diffrn_reflns_limit_h_max       19
_diffrn_reflns_limit_h_min       -18
_diffrn_reflns_limit_k_max       10
_diffrn_reflns_limit_k_min       -10
_diffrn_reflns_limit_l_max       9
_diffrn_reflns_limit_l_min       -9
_diffrn_reflns_number            4766
_diffrn_reflns_theta_full        25.242
_diffrn_reflns_theta_max         28.459
_diffrn_reflns_theta_min         2.881
_exptl_absorpt_coefficient_mu    4.505
_exptl_absorpt_correction_T_max  0.460
_exptl_absorpt_correction_T_min  0.294
_exptl_absorpt_correction_type   multi-scan
_exptl_absorpt_process_details   SADABS
_exptl_crystal_colour            colourless
_exptl_crystal_density_diffrn    2.120
_exptl_crystal_density_method    'not measured'
_exptl_crystal_description       plate
_exptl_crystal_F_000             488
_exptl_crystal_size_max          0.400
_exptl_crystal_size_mid          0.400
_exptl_crystal_size_min          0.020
_refine_diff_density_max         2.609
_refine_diff_density_min         -1.826
_refine_ls_extinction_coef       0.0044(10)
_refine_ls_extinction_expression Fc^*^=kFc[1+0.001xFc^2^\l^3^/sin(2\q)]^-1/4^
_refine_ls_extinction_method     SHELXL
_refine_ls_goodness_of_fit_ref   1.048
_refine_ls_hydrogen_treatment    mixed
_refine_ls_matrix_type           full
_refine_ls_number_parameters     101
_refine_ls_number_reflns         1911
_refine_ls_number_restraints     2
_refine_ls_restrained_S_all      1.047
_refine_ls_R_factor_all          0.0417
_refine_ls_R_factor_gt           0.0365
_refine_ls_shift/su_max          0.000
_refine_ls_shift/su_mean         0.000
_refine_ls_structure_factor_coef Fsqd
_refine_ls_weighting_details
;
 w=1/[\s^2^(Fo^2^)+(0.0666P)^2^+0.8610P]
 where P=(Fo^2^+2Fc^2^)/3
;
_refine_ls_weighting_scheme      calc
_refine_ls_wR_factor_gt          0.0930
_refine_ls_wR_factor_ref         0.0980
_reflns_number_gt                1678
_reflns_number_total             1911
_reflns_threshold_expression     'I > 2\s(I)'
_cod_data_source_file            ps5030.cif
_cod_data_source_block           dmt28_4
_cod_original_cell_volume        811.5(2)
_cod_database_code               2105693
#BEGIN Tags that were not found in dictionaries:
_shelx_space_group_comment
;
The symmetry employed for this shelxl refinement is uniquely defined
by the following loop, which should always be used as a source of
symmetry information in preference to the above space-group names.
They are only intended as comments.
;
_shelx_estimated_absorpt_t_min   0.266
_shelx_estimated_absorpt_t_max   0.915
_shelx_hkl_checksum              10953
_shelx_hkl_file
;
   0   0   1    0.13    0.16
   0   0   2  349.32   12.54
   0   0  -3    0.29    0.20
   0   0   3   -0.10    0.30
   0   0   4  108.35    4.35
   0   0  -4  118.19    4.45
   0   0  -5    0.15    0.28
   0   0   5   -0.23    0.38
   0   0   6    1.89    0.54
   0   0  -6    0.86    0.39
   0   0  -7    0.46    0.42
   0   0   7   -0.02    0.33
   0   0  -8   18.81    1.33
   0   0   8   17.49    1.42
   0   0   9   -0.53    0.52
   0   0  -9    1.01    0.57
   0   1   0   -0.24    0.09
   0  -1   0   -0.20    0.10
   0   1   1    9.05    0.48
   0   1   1    9.86    0.45
   0  -1   1    9.00    0.47
   0   1  -2  158.01    6.05
   0   1   2  163.98    5.80
   0  -1   2  157.64    5.80
   0   1  -3  166.89    6.59
   0   1   3  180.97    6.35
   0  -1   3  171.29    6.36
   0   1   4   54.42    2.17
   0   1  -4   48.72    2.17
   0  -1   4   52.79    2.24
   0  -1  -4   49.75    2.14
   0   1  -5  224.43    8.59
   0   1   5  228.35    8.29
   0  -1   5  218.84    8.39
   0  -1  -5  221.83    8.56
   0   1   6   74.74    3.05
   0   1  -6   71.98    3.09
   0  -1   6   68.96    3.15
   0   1   7   85.85    3.53
   0   1  -7   86.85    3.66
   0  -1   7   80.96    3.61
   0   1   8   12.74    1.05
   0   1  -8   14.57    1.17
   0  -1   8   12.60    1.31
   0   1   9   25.38    1.72
   0   1  -9   24.79    1.78
   0  -1   9   21.13    1.59
   0   2   0  483.01   16.29
   0  -2   0  471.11   16.98
   0   2   1  428.86   14.54
   0  -2  -1  431.89   15.16
   0  -2   1  414.52   15.16
   0   2   2  454.19   15.15
   0   2   2  437.43   15.81
   0  -2   2  436.45   15.82
   0   2   3  320.17   11.44
   0   2  -3  311.51   11.95
   0  -2   3  320.91   11.45
   0   2  -4    0.52    0.28
   0   2   4    0.98    0.32
   0  -2   4    1.06    0.37
   0   2  -5    4.66    0.76
   0   2   6    0.27    0.41
   0   2  -6    0.23    0.43
   0  -2   6    0.19    0.59
   0   2   7    2.38    0.55
   0  -2   7    3.02    0.71
   0   2  -8    2.53    0.60
   0   2   8    2.50    0.50
   0  -2   8    2.20    0.67
   0   2   9   20.19    1.33
   0  -2   9   17.01    1.64
   0   3   0    0.40    0.24
   0  -3   0   -0.06    0.22
   0   3   1    1.00    0.25
   0   3  -1    0.49    0.23
   0  -3   1    0.80    0.29
   0  -3  -1    0.68    0.24
   0   3   2  306.93   10.76
   0  -3  -2  309.63   11.23
   0  -3   2  318.46   11.25
   0   3   3    2.41    0.30
   0   3   3    1.85    0.31
   0  -3   3    2.08    0.39
   0   3   4  329.51   11.70
   0   3  -4  319.81   12.21
   0  -3   4  316.95   11.71
   0   3   5    1.63    0.38
   0   3  -5    1.15    0.41
   0  -3   5    1.05    0.44
   0   3  -6  140.87    5.71
   0   3   6  146.89    5.47
   0  -3   6  138.29    5.57
   0   3  -7   -0.02    0.40
   0   3   7   -0.25    0.37
   0  -3   7   -0.99    0.60
   0   3   8   64.91    2.86
   0  -3   8   60.74    3.09
   0   3   9    1.23    0.59
   0  -3   9    0.24    0.59
   0   4   0  127.51    4.43
   0  -4   0  119.86    4.61
   0   4  -1  277.51    9.49
   0   4   1  269.53    9.50
   0  -4   1  271.25    9.92
   0  -4  -1  275.60    9.92
   0   4   2   60.57    2.37
   0  -4   2   63.40    2.53
   0  -4  -2   62.61    2.48
   0   4   3  130.38    4.70
   0  -4  -3  126.76    4.92
   0  -4   3  136.10    4.98
   0   4   4   36.85    1.56
   0  -4   4   37.65    1.79
   0   4   5   18.83    1.11
   0  -4   5   18.37    1.23
   0   4   6    4.23    0.65
   0  -4   6    4.07    0.72
   0   4   7    4.79    0.72
   0   4  -7    3.90    0.71
   0  -4   7    5.92    0.94
   0   4  -8    4.55    0.76
   0   4   8    5.26    0.84
   0  -4   8    4.81    0.92
   0   5   0   -0.04    0.27
   0  -5   0   -0.18    0.32
   0   5   1   16.58    0.96
   0   5  -1   17.90    0.97
   0  -5   1   16.98    1.05
   0  -5  -1   17.69    1.01
   0   5   2   77.69    2.99
   0  -5   2   81.27    3.18
   0  -5  -2   76.84    3.13
   0   5   3  110.17    4.07
   0  -5  -3  108.58    4.24
   0  -5   3  111.64    4.31
   0   5   4   63.21    2.45
   0  -5  -4   60.69    2.59
   0  -5   4   60.92    2.68
   0   5   5  131.30    4.81
   0  -5   5  131.23    5.16
   0  -5  -5  132.83    5.09
   0  -5   6   17.27    1.30
   0  -5   7   67.48    3.18
   0  -5   8    1.35    0.66
   0   6   0  373.34   12.75
   0  -6   0  357.70   13.28
   0   6  -1   11.29    0.87
   0   6   1   10.48    0.85
   0  -6  -1   10.41    0.93
   0  -6   1   11.41    1.01
   0   6  -2  222.04    7.68
   0   6   2  217.76    7.72
   0  -6  -2  214.40    8.05
   0  -6   2  212.00    8.08
   0   6   3   13.09    0.99
   0  -6  -3   12.72    0.95
   0  -6   3   12.12    1.15
   0   6   4   67.56    2.67
   0  -6   4   63.56    2.89
   0  -6  -4   67.03    2.81
   0   6   5    0.63    0.35
   0  -6  -5   -0.01    0.39
   0  -6   5    0.27    0.53
   0  -6  -6    0.12    0.44
   0  -6   6    0.47    0.56
   0  -6   7    0.70    0.60
   0  -6  -7    0.12    0.47
   0   7   0    0.46    0.42
   0  -7   0    0.40    0.48
   0   7  -1   10.12    0.96
   0   7   1    9.14    0.98
   0  -7  -1   10.77    1.00
   0  -7   1   10.87    1.13
   0   7   2    4.06    0.62
   0   7  -2    5.94    0.82
   0  -7  -2    4.21    0.65
   0  -7   2    5.25    0.74
   0   7   3   41.55    1.99
   0  -7  -3   41.15    2.08
   0  -7   3   48.09    2.21
   0   7   4   14.19    1.11
   0  -7  -4   14.85    1.08
   0  -7   4   13.51    1.22
   0   7   5   52.13    2.31
   0  -7   5   52.63    2.54
   0  -7  -5   54.73    2.50
   0   7   6   46.79    2.09
   0  -7   6   45.69    2.30
   0  -7  -6   44.42    2.21
   0  -7  -7   42.80    2.12
   0  -7   7   39.47    2.23
   0   8   0   17.27    1.26
   0  -8   0   16.42    1.40
   0   8   1  197.67    6.92
   0   8  -1  182.35    6.85
   0  -8   1  183.69    7.24
   0  -8  -1  189.27    7.22
   0   8   2   45.21    2.13
   0   8  -2   44.78    2.06
   0  -8   2   44.12    2.31
   0  -8  -2   46.64    2.22
   0   8   3   83.33    3.30
   0  -8   3   78.56    3.51
   0  -8  -3   79.64    3.44
   0   8   4    0.29    0.49
   0  -8   4   -1.05    0.47
   0  -8  -4    0.03    0.46
   0   8   5   12.78    1.11
   0  -8  -5   12.42    1.24
   0  -8   5   12.22    1.29
   0   8   6   -0.32    0.40
   0  -8   6    0.33    0.59
   0  -8  -6    0.07    0.43
   0   9   0    0.48    0.54
   0  -9   0    0.02    0.53
   0   9   1    0.91    0.57
   0   9  -1    0.66    0.54
   0  -9   1    0.57    0.70
   0  -9  -1    0.35    0.55
   0   9   2    8.91    1.18
   0   9  -2    9.57    1.14
   0  -9   2    9.77    1.33
   0  -9  -2    9.54    1.28
   0   9   3    7.01    1.05
   0  -9   3    8.39    1.18
   0  -9  -3    7.42    0.92
   0   9   4   56.68    2.66
   0  -9   4   56.88    2.82
   0  -9  -4   60.62    2.82
   0   9   5    2.89    0.71
   0  -9  -5    1.61    0.60
   0  -9   5    3.12    0.88
   0  10   0   17.87    1.49
   0 -10   0   15.93    1.60
   0  10  -1   58.40    2.72
   0  10   1   61.95    2.80
   0 -10  -1   59.98    2.99
   0 -10   1   53.23    2.89
   0  10   2   41.65    2.13
   0  10  -2   38.71    2.08
   0 -10   2   37.24    2.43
   0 -10  -2   41.38    2.21
   0  10   3   19.41    1.57
   0 -10  -3   20.35    1.61
   0 -10   3   17.80    1.67
  -1   0   9   -0.64    0.50
   1   0  -8    0.14    0.54
  -1   0   8    0.77    0.48
   1   0  -7   -0.04    0.33
  -1   0   7   -0.40    0.34
  -1   0   6   46.99    2.18
   1   0  -6   46.46    2.16
  -1   0   5    0.25    0.38
   1   0  -5   -0.12    0.27
  -1   0   4  184.73    6.85
  -1   0   3   -0.42    0.28
  -1   0   3   -0.22    0.18
  -1   0   2  722.64   25.92
  -1   0   2  733.14   27.08
  -1   0   1   -0.39    0.10
   1   0  -1   -0.23    0.09
  -1   0  -1    0.00    0.11
   1   0   1   -0.26    0.18
  -1   0  -2  109.72    4.13
   1   0   2  105.27    4.03
  -1   0  -3   -0.10    0.21
   1   0   3   -0.02    0.33
  -1   0  -4    4.42    0.63
   1   0   4    6.50    0.76
   1   0   5    0.11    0.45
  -1   0  -5    0.04    0.32
  -1   0  -6   46.07    2.09
   1   0   6   42.40    2.17
  -1   0  -7   -0.02    0.38
  -1   0  -8   52.96    2.54
   1   0   8   48.99    2.55
  -1   0  -9   -0.57    0.37
  -1   1   9   54.35    2.59
   1   1  -9   50.31    2.54
  -1  -1   9   45.66    2.48
   1   1  -8   21.18    1.50
  -1   1   8   18.95    1.26
  -1  -1   8   19.36    1.46
  -1   1   7   96.37    3.87
   1   1  -7   99.79    4.05
  -1  -1   7   90.84    3.96
   1   1  -6   35.41    1.77
  -1   1   6   37.30    1.75
   1  -1  -6   36.19    1.75
  -1  -1   6   32.54    1.86
   1   1  -5   61.32    2.64
  -1   1   5   67.43    2.60
  -1  -1   5   58.03    2.70
   1  -1  -5   61.85    2.62
  -1   1   4   33.17    1.42
   1   1  -4   29.61    1.42
  -1  -1   4   31.51    1.52
  -1   1   3    5.06    0.49
  -1  -1   3    4.55    0.53
  -1  -1   3    5.14    0.57
  -1   1   2    0.00    0.19
  -1   1   2   -0.07    0.13
  -1  -1   2   -0.23    0.17
  -1  -1   2   -0.22    0.19
  -1   1   1   18.45    0.76
   1   1  -1   19.25    0.73
  -1   1   1   19.22    0.75
   1   1   0   50.57    1.78
   1  -1   0   50.09    1.85
  -1  -1   0   50.98    1.85
  -1   1  -1    6.45    0.40
   1   1   1    7.11    0.42
   1  -1   1    6.80    0.41
   1   1   2  194.60    7.11
  -1   1  -2  198.83    7.41
   1  -1   2  194.90    7.10
   1   1   3  325.88   11.61
  -1   1  -3  316.76   12.08
   1  -1   3  320.05   11.61
  -1   1  -4   62.43    2.70
   1   1   4   64.87    2.69
  -1  -1  -4   65.02    2.68
   1  -1   4   68.69    2.77
   1   1   5  252.17    9.56
  -1   1  -5  249.75    9.89
   1  -1   5  273.68    9.68
  -1   1  -6   62.34    2.75
   1   1   6   59.98    2.74
   1  -1   6   65.59    2.89
   1   1   7   95.57    4.13
  -1   1  -7  101.92    4.26
   1  -1   7  105.36    4.26
  -1   1  -8    3.18    0.65
   1  -1   8    3.32    0.76
   1   1   9    4.01    0.80
   1  -1   9    4.94    0.84
  -1   2   9    0.56    0.41
  -1  -2   9    0.68    0.65
  -1   2   8    0.15    0.30
   1   2  -8   -0.17    0.44
   1   2  -7   10.96    1.16
  -1   2   7   13.33    0.94
  -1  -2   7   10.58    1.21
  -1   2   6    9.76    0.84
   1   2  -6    9.11    0.93
  -1  -2   6    8.69    1.16
  -1   2   5  147.74    5.24
   1   2  -5  133.00    5.46
  -1  -2   5  135.08    5.33
   1   2  -4   13.58    0.87
  -1   2   4   14.01    0.77
  -1  -2   4   15.06    0.90
  -1   2   3  304.98   11.20
  -1   2   3  311.77   10.72
  -1  -2   3  317.70   11.23
  -1   2   2  191.81    6.35
  -1   2   2  169.95    6.59
  -1  -2   2  186.08    6.62
  -1   2   1  252.41    8.61
   1   2  -1  249.32    8.59
  -1  -2   1  254.74    8.97
   1  -2  -1  243.56    8.97
   1   2   0   68.77    2.50
  -1  -2   0   71.21    2.61
   1  -2   0   69.85    2.59
   1   2   1  859.63   29.18
  -1  -2  -1  861.33   30.43
   1  -2   1  849.44   30.42
   1   2   2   31.39    1.35
   1   2   2   33.30    1.25
  -1   2  -2   31.12    1.38
   1  -2   2   32.51    1.36
  -1   2  -3   47.98    2.04
   1   2   3   47.90    1.97
   1  -2   3   49.09    1.99
   1   2   4    0.56    0.36
  -1   2  -4    0.05    0.28
   1  -2   4    0.18    0.39
   1   2   5   -0.64    0.35
  -1   2  -5   -0.21    0.33
   1  -2   5    0.75    0.48
  -1   2  -6    6.83    0.85
   1   2   6    8.13    0.96
   1  -2   6    7.38    1.14
  -1   2  -7   41.54    2.16
   1   2   7   42.75    2.17
   1  -2   7   42.88    2.34
   1   2   8    9.10    0.94
   1  -2   8    6.63    1.10
   1   2   9   41.66    2.10
   1  -2   9   40.59    2.41
  -1   3   9   -0.12    0.46
  -1  -3   9   -0.59    0.50
   1   3  -8   80.84    3.51
  -1   3   8   80.29    3.32
  -1  -3   8   69.84    3.50
  -1   3   7    1.53    0.43
  -1  -3   7    0.53    0.62
   1   3  -6   87.70    3.61
  -1   3   6   84.68    3.40
  -1  -3   6   82.12    3.54
   1   3  -5    4.51    0.72
  -1   3   5    5.41    0.60
  -1  -3   5    4.80    0.61
  -1   3   4  101.52    3.87
  -1   3   4   99.76    3.69
  -1  -3   4  104.82    3.94
  -1   3   3    0.51    0.23
  -1  -3   3    0.45    0.31
  -1   3   2    3.27    0.46
   1  -3  -2    4.63    0.47
  -1  -3   2    3.39    0.55
  -1   3   1   20.66    0.95
   1   3  -1   21.84    0.94
  -1  -3   1   21.71    1.01
   1  -3  -1   20.57    0.98
   1   3   0  297.05    9.89
  -1   3   0  286.39    9.88
   1  -3   0  273.50   10.29
  -1  -3   0  288.73   10.31
  -1   3  -1   81.30    2.85
   1   3   1   79.77    2.89
  -1  -3  -1   79.72    3.02
   1  -3   1   77.36    3.02
   1   3   2  292.15   10.00
   1  -3   2  286.57   10.45
   1   3   3   17.87    0.84
   1   3   3   17.29    0.92
   1  -3   3   17.22    0.98
  -1   3  -4  347.49   13.53
   1   3   4  369.02   12.97
   1  -3   4  356.54   12.98
  -1   3  -5    4.49    0.74
   1   3   5    5.28    0.72
   1  -3   5    4.83    0.67
   1   3   6  116.43    4.58
  -1   3  -6  116.22    4.77
   1  -3   6  114.14    4.68
   1   3   7    0.15    0.46
  -1   3  -7   -0.12    0.48
   1  -3   7    0.05    0.61
   1   3   8   32.37    1.88
   1  -3   8   33.71    2.16
  -1   4   8   -0.34    0.38
  -1  -4   8   -0.25    0.66
  -1   4   7   13.33    0.98
  -1  -4   7   13.87    1.16
   1   4  -6   34.41    1.86
  -1   4   6   35.76    1.67
  -1  -4   6   33.77    1.80
  -1   4   5   86.43    3.21
  -1   4   5   87.29    3.41
  -1  -4   5   84.11    3.48
  -1   4   4   45.81    1.83
   1  -4  -4   43.90    1.92
  -1  -4   4   44.28    2.00
  -1   4   3  149.82    5.35
  -1  -4   3  152.47    5.62
   1  -4  -3  147.40    5.58
  -1   4   2  386.61   13.80
   1   4  -2  412.92   13.78
  -1  -4   2  418.23   14.42
   1  -4  -2  381.94   14.38
   1   4  -1  234.98    8.10
  -1   4   1  225.98    8.11
  -1  -4   1  238.18    8.47
   1  -4  -1  229.85    8.44
   1   4   0   60.32    2.29
  -1   4   0   60.76    2.28
   1  -4   0   60.72    2.38
  -1  -4   0   58.02    2.38
   1   4   1  249.10    8.80
  -1   4  -1  256.41    8.77
  -1  -4  -1  252.91    9.19
   1  -4   1  252.19    9.19
   1   4   2   69.48    2.61
  -1  -4  -2   68.59    2.75
   1  -4   2   69.95    2.77
   1   4   3  140.43    4.94
   1  -4   3  139.57    5.23
  -1  -4  -3  133.73    5.19
   1   4   4    5.03    0.54
   1   4   4    5.64    0.75
   1  -4   4    4.72    0.66
   1   4   5    0.21    0.33
   1  -4   5    0.56    0.49
  -1   4  -6   19.18    1.33
   1   4   6   20.42    1.21
   1  -4   6   18.20    1.41
   1   4   7   32.07    1.67
  -1   4  -7   31.82    1.77
   1  -4   7   29.31    1.84
   1   4   8    7.49    0.92
   1  -4   8    5.14    0.90
   1   5  -8    1.51    0.68
  -1  -5   8    1.50    0.62
  -1  -5   7   64.51    3.02
  -1  -5   6   13.93    1.22
   1  -5  -6   15.92    1.05
  -1   5   5   76.91    3.05
  -1  -5   5   84.73    3.40
   1  -5  -5   78.00    3.22
  -1   5   4    4.06    0.62
  -1  -5   4    4.41    0.64
   1  -5  -4    4.45    0.68
  -1   5   3   14.63    0.94
   1  -5  -3   13.54    0.95
  -1  -5   3   13.86    1.08
  -1   5   2    0.38    0.36
   1   5  -2    0.61    0.34
   1  -5  -2    0.91    0.36
  -1  -5   2    1.00    0.42
  -1   5   1   26.48    1.27
   1   5  -1   26.94    1.27
   1  -5  -1   27.12    1.33
  -1  -5   1   27.72    1.36
  -1   5   0    6.65    0.63
   1   5   0    7.00    0.67
  -1  -5   0    6.91    0.71
   1  -5   0    5.98    0.67
  -1   5  -1  217.48    7.51
   1   5   1  210.94    7.54
   1  -5   1  211.37    7.88
  -1  -5  -1  214.40    7.87
   1   5   2   90.32    3.51
   1  -5   2   98.72    3.75
  -1  -5  -2   94.32    3.69
   1   5   3  266.44    9.29
  -1  -5  -3  259.50    9.71
   1  -5   3  267.48    9.74
   1   5   4   19.72    1.04
   1  -5   4   16.93    1.22
  -1  -5  -4   20.90    1.17
   1   5   5  116.53    4.32
  -1  -5  -5  120.08    4.64
   1  -5   5  116.03    4.66
   1  -5   6   16.78    1.23
   1  -5   7   41.67    2.37
   1  -5   8    5.35    0.94
   1  -6  -7    1.12    0.55
  -1  -6   7    0.97    0.54
  -1   6   6   23.72    1.26
  -1  -6   6   21.45    1.44
   1  -6  -6   23.39    1.43
  -1   6   5    2.67    0.44
  -1  -6   5    2.34    0.57
   1  -6  -5    2.07    0.43
  -1   6   4  208.41    7.41
   1  -6  -4  205.94    7.74
  -1  -6   4  206.28    7.82
  -1   6   3   25.14    1.36
   1  -6  -3   25.50    1.40
  -1  -6   3   27.12    1.52
  -1   6   2  262.14    9.50
   1   6  -2  278.18    9.47
  -1  -6   2  276.39    9.95
   1  -6  -2  259.75    9.88
  -1   6   1   19.69    1.12
   1   6  -1   19.07    1.13
  -1  -6   1   19.24    1.20
   1  -6  -1   17.98    1.16
  -1   6   0  330.06   11.75
   1   6   0  339.26   11.77
   1  -6   0  337.67   12.27
  -1  -6   0  339.37   12.28
   1   6   1    7.48    0.81
  -1   6  -1    8.21    0.76
  -1  -6  -1    8.10    0.90
   1  -6   1    6.51    0.91
   1   6   2   71.98    2.69
  -1   6  -2   65.04    2.63
   1  -6   2   62.77    2.86
  -1  -6  -2   69.32    2.85
   1   6   3   39.21    1.79
   1  -6   3   39.57    1.97
  -1  -6  -3   40.93    1.93
   1   6   4    1.25    0.37
  -1  -6  -4    2.20    0.45
   1  -6   4    0.53    0.57
   1   6   5    2.35    0.44
   1  -6   5    2.94    0.70
  -1  -6  -5    1.88    0.55
   1  -6   6   12.17    1.32
  -1  -6  -6   12.79    1.13
  -1  -6  -7    0.13    0.46
   1  -6   7    0.34    0.62
   1  -7  -7   31.90    1.72
  -1  -7   7   26.65    1.85
  -1   7   6   37.66    1.84
  -1  -7   6   37.45    2.01
   1  -7  -6   36.65    1.96
  -1   7   5   25.43    1.44
  -1  -7   5   27.71    1.64
   1  -7  -5   26.17    1.49
  -1   7   4   14.41    1.10
   1  -7  -4   15.34    1.17
  -1  -7   4   17.72    1.28
  -1   7   3    9.30    0.99
  -1  -7   3   11.02    1.07
   1  -7  -3    8.74    0.93
   1   7  -2    0.84    0.46
  -1   7   2    0.86    0.46
   1  -7  -2    0.12    0.44
  -1  -7   2   -0.09    0.50
  -1   7   1   12.02    1.00
   1   7  -1   10.12    0.97
   1  -7  -1   12.02    1.10
  -1  -7   1   11.09    1.11
   1   7   0   19.26    1.27
  -1   7   0   22.58    1.30
  -1  -7   0   22.43    1.34
   1  -7   0   21.85    1.39
   1   7   1   48.43    2.18
  -1   7  -1   51.96    2.17
   1  -7   1   50.10    2.35
  -1  -7  -1   50.33    2.30
  -1   7  -2   68.15    2.72
   1   7   2   65.89    2.81
   1  -7   2   68.82    3.00
  -1  -7  -2   70.04    2.94
   1   7   3   84.83    3.38
   1  -7   3   87.94    3.64
  -1  -7  -3   83.63    3.56
   1   7   4   59.36    2.49
   1  -7   4   59.86    2.74
  -1  -7  -4   56.78    2.61
   1   7   5   93.39    3.68
   1  -7   5   92.91    4.01
  -1  -7  -5   96.07    3.93
  -1  -7  -6   33.82    1.82
   1  -7   6   32.23    1.95
  -1   8   6    0.80    0.51
  -1  -8   6    1.58    0.76
   1  -8  -6    0.99    0.47
  -1   8   5   43.56    2.06
  -1  -8   5   41.43    2.34
   1  -8  -5   41.75    2.17
  -1   8   4   11.11    1.04
  -1  -8   4    9.00    1.15
   1  -8  -4   10.20    1.02
  -1   8   3  170.41    6.37
   1  -8  -3  171.96    6.65
  -1  -8   3  173.04    6.71
   1   8  -2   17.92    1.26
  -1   8   2   18.21    1.28
  -1  -8   2   17.32    1.42
   1  -8  -2   18.97    1.33
  -1   8   1  238.13    8.44
   1   8  -1  236.03    8.40
  -1  -8   1  230.35    8.83
   1  -8  -1  228.09    8.76
   1   8   0   19.01    1.30
  -1   8   0   18.36    1.29
   1  -8   0   17.61    1.32
  -1  -8   0   20.10    1.46
   1   8   1   72.44    2.92
  -1   8  -1   66.27    2.87
  -1  -8  -1   72.45    3.11
   1  -8   1   66.96    3.12
  -1   8  -2    6.25    0.91
   1   8   2    7.71    0.97
  -1  -8  -2    5.43    0.80
   1  -8   2    4.21    0.83
   1   8   3    6.91    1.01
   1  -8   3    3.61    0.77
  -1  -8  -3    4.27    0.70
   1   8   4    1.88    0.54
  -1  -8  -4    1.01    0.61
   1  -8   4    2.65    0.68
   1   8   5   11.84    1.07
  -1  -8  -5    9.26    1.10
   1  -8   5   11.48    1.24
  -1  -8  -6   -1.01    0.54
  -1   9   5    3.71    0.68
  -1  -9   5    4.29    0.94
   1  -9  -5    3.44    0.69
  -1   9   4   21.98    1.51
   1  -9  -4   21.55    1.70
  -1  -9   4   23.13    1.69
  -1   9   3    0.68    0.59
  -1  -9   3    1.18    0.61
   1  -9  -3    0.47    0.54
   1   9  -2   -0.22    0.51
  -1   9   2    0.77    0.56
  -1  -9   2    0.07    0.59
   1  -9  -2   -0.46    0.61
  -1   9   1    2.69    0.74
   1   9  -1    3.99    0.66
   1  -9  -1    2.75    0.73
  -1  -9   1    3.17    0.85
  -1   9   0   38.21    1.99
   1   9   0   34.79    1.92
  -1  -9   0   33.68    2.04
   1  -9   0   38.16    2.07
  -1   9  -1   19.78    1.38
   1   9   1   19.26    1.42
   1  -9   1   18.48    1.53
  -1  -9  -1   19.63    1.45
   1   9   2   87.90    3.71
  -1   9  -2   93.05    3.66
   1  -9   2   95.17    4.03
  -1  -9  -2   89.35    3.90
   1   9   3    8.64    1.10
   1  -9   3    9.49    1.36
  -1  -9  -3    9.43    1.38
   1   9   4   94.08    3.80
  -1  -9  -4   93.01    3.95
   1  -9   4   87.93    4.00
   1   9   5    0.14    0.51
  -1  10   3   50.94    2.46
   1 -10  -3   48.85    2.61
  -1 -10   3   45.93    2.57
   1  10  -2   54.27    2.54
  -1  10   2   54.17    2.61
  -1 -10   2   46.80    2.73
   1 -10  -2   55.86    2.65
  -1  10   1   73.11    3.14
   1  10  -1   73.27    3.16
  -1 -10   1   68.24    3.43
   1 -10  -1   68.17    3.26
   1  10   0   40.36    2.15
  -1  10   0   42.34    2.17
   1 -10   0   39.76    2.37
  -1 -10   0   36.28    2.21
  -1  10  -1   17.30    1.56
   1  10   1   20.69    1.48
  -1 -10  -1   19.61    1.72
   1 -10   1   16.79    1.53
  -1  10  -2   26.02    1.76
   1  10   2   26.42    1.76
  -1 -10  -2   26.77    1.93
   1 -10   2   22.85    1.96
   1  10   3    3.87    0.73
  -1 -10  -3    2.21    0.73
   2   0  -9   -0.38    0.55
   2   0  -8   36.31    2.00
  -2   0   8   40.07    2.00
   2   0  -7   -0.25    0.35
   2   0  -6  126.13    5.13
  -2   0   6  131.04    4.99
  -2   0   5    0.37    0.34
  -2   0   4  692.58   25.86
  -2   0   3   -0.17    0.17
   2   0  -2  508.21   17.30
  -2   0   2  506.25   18.89
  -2   0   1    0.03    0.11
   2   0  -1    0.04    0.09
  -2   0   0   41.61    1.65
  -2   0  -1   -0.14    0.13
   2   0   1   -0.18    0.22
   2   0   2    0.96    0.35
  -2   0  -2    0.15    0.22
  -2   0  -3   -0.30    0.25
   2   0   3   -0.31    0.36
   2   0   4  101.45    3.98
  -2   0  -4  100.51    4.02
   2   0   5   -0.24    0.45
  -2   0  -5    0.18    0.34
   2   0   6   28.92    1.68
  -2   0  -6   26.17    1.53
   2   0   7   -0.45    0.43
   2   0   8   61.18    2.94
  -2   0  -8   59.86    2.85
   2   0   9    0.31    0.66
   2  -1  -9   40.16    2.23
  -2   1   8   18.09    1.15
   2   1  -8   15.47    1.25
   2  -1  -8   14.51    1.18
  -2  -1   8   16.10    1.29
  -2   1   7   43.77    1.98
   2   1  -7   45.25    2.17
  -2  -1   7   40.69    2.11
  -2   1   6   24.27    1.24
   2   1  -6   22.86    1.33
   2  -1  -6   22.43    1.29
  -2  -1   6   21.66    1.42
  -2   1   5    1.33    0.35
  -2  -1   5    1.75    0.46
  -2   1   4    1.08    0.29
  -2   1   4    0.53    0.25
  -2  -1   4    0.37    0.25
  -2   1   3   61.60    2.54
  -2   1   3   65.27    2.31
  -2  -1   3   65.77    2.57
  -2   1   2  103.75    3.51
  -2  -1   2   96.82    3.84
   2   1  -1  299.70   10.22
  -2   1   1  297.63   10.21
   2   1   0   75.49    2.64
  -2   1  -1  485.05   19.37
   2   1   1  569.71   18.55
   2  -1   1  507.68   18.52
  -2   1  -2  239.96    8.73
   2   1   2  217.35    8.37
   2  -1   2  236.81    8.38
   2   1   3  310.20   11.94
  -2   1  -3  340.22   12.44
   2  -1   3  338.76   11.96
   2   1   4   42.30    2.02
  -2   1  -4   45.16    2.00
   2  -1   4   48.05    2.15
   2   1   5  126.87    5.44
  -2   1  -5  139.55    5.61
  -2  -1  -5  147.38    5.60
   2  -1   5  152.88    5.60
   2   1   6   12.03    1.10
  -2   1  -6   10.08    1.05
   2  -1   6   13.96    1.22
  -2   1  -7   15.11    1.23
   2   1   7   17.37    1.32
   2  -1   7   17.18    1.42
   2   1   8    2.33    0.52
  -2   1  -8    2.38    0.57
   2  -1   8    2.93    0.80
   2   2  -9    7.67    1.23
   2   2  -8    1.69    0.55
   2   2  -7   61.80    2.76
  -2   2   7   59.84    2.50
  -2  -2   7   56.01    2.76
  -2   2   6   49.12    2.05
   2   2  -6   52.00    2.24
  -2  -2   6   42.01    2.28
   2   2  -5  218.09    8.42
  -2   2   5  224.07    8.01
  -2  -2   5  214.45    8.14
  -2  -2   4   83.66    3.28
  -2  -2   4   85.47    3.43
  -2   2   3  193.37    6.95
  -2   2   3  198.93    7.25
  -2  -2   3  196.86    7.61
  -2  -2   3  211.44    7.29
  -2   2   2  231.64    8.09
  -2  -2   2  236.38    8.43
  -2   2   1  561.04   18.52
   2   2  -1  517.78   18.49
  -2  -2   1  547.01   19.28
   2   2   0    0.72    0.21
  -2   2   0    0.38    0.19
  -2  -2   0    0.96    0.21
   2  -2   0    0.69    0.19
   2   2   1    5.32    0.44
   2   2   1    5.11    0.48
   2  -2   1    4.28    0.47
   2   2   2   23.25    1.08
  -2   2  -2   22.27    1.06
   2  -2   2   21.56    1.05
   2   2   3    2.63    0.40
  -2   2  -3    1.49    0.32
   2  -2   3    2.12    0.38
  -2   2  -4    2.17    0.41
   2   2   4    2.75    0.50
   2  -2   4    2.56    0.53
   2   2   5   67.09    2.95
  -2   2  -5   70.96    2.99
   2  -2   5   69.94    3.02
   2   2   6    5.02    0.74
  -2   2  -6    6.89    0.88
   2  -2   6    5.23    0.84
   2   2   7   94.45    4.17
   2  -2   7  104.93    4.36
   2   2   8    3.99    0.68
  -2   2  -8    2.82    0.67
   2  -2   8    4.12    0.82
   2   3  -8   71.54    3.35
  -2   3   8   71.50    3.06
   2   3  -7    0.48    0.44
  -2  -3   7    1.34    0.62
  -2   3   6   56.91    2.36
   2   3  -6   58.57    2.58
  -2  -3   6   52.56    2.52
   2   3  -5    1.88    0.42
  -2   3   5    2.70    0.38
  -2  -3   5    2.07    0.46
  -2   3   4    1.18    0.26
  -2  -3   4    1.50    0.42
  -2   3   3    8.67    0.61
  -2  -3   3   10.39    0.71
   2  -3  -3    9.40    0.60
  -2   3   2  148.68    5.27
   2   3  -2  154.64    5.24
  -2  -3   2  151.69    5.50
   2  -3  -2  141.57    5.46
  -2   3   1    0.24    0.23
   2   3  -1    0.40    0.23
   2  -3  -1    0.37    0.19
  -2  -3   1    0.13    0.25
   2   3   0  718.69   24.43
  -2   3   0  737.86   24.42
  -2  -3   0  712.87   25.46
   2  -3   0  690.68   25.44
   2   3   1   12.75    0.71
  -2  -3  -1   13.73    0.78
   2  -3   1   12.24    0.78
   2   3   2  295.20   10.03
   2  -3   2  284.66   10.50
   2   3   3    0.04    0.24
   2   3   3    0.21    0.20
   2  -3   3   -0.10    0.32
   2   3   4  200.95    7.38
  -2   3  -4  199.06    7.68
   2  -3   4  195.22    7.38
  -2   3  -5    1.72    0.42
   2   3   5    1.13    0.44
   2  -3   5    1.09    0.54
  -2   3  -6   28.48    1.64
   2   3   6   29.16    1.61
   2  -3   6   29.99    1.77
  -2   3  -7    0.28    0.45
   2   3   7   -0.64    0.47
   2  -3   7   -0.06    0.58
   2   3   8    8.20    1.17
  -2   3  -8    6.43    0.94
   2  -3   8   10.35    1.58
   2   4  -8    7.07    1.12
  -2   4   8    7.09    0.93
  -2   4   7   45.36    2.03
  -2  -4   7   41.48    2.16
  -2   4   6   39.73    1.81
  -2  -4   6   38.63    1.91
  -2   4   5  123.11    4.53
  -2  -4   5  127.14    4.84
  -2   4   4   76.10    2.86
  -2  -4   4   77.07    3.05
   2  -4  -4   72.83    2.96
  -2   4   3  205.51    7.33
  -2  -4   3  219.51    7.69
   2  -4  -3  199.81    7.62
   2   4  -2  146.89    5.21
  -2   4   2  144.61    5.25
   2  -4  -2  146.44    5.46
  -2  -4   2  150.72    5.49
   2   4  -1  103.16    3.74
  -2   4   1  104.91    3.76
   2  -4  -1  100.61    3.89
  -2  -4   1  104.84    3.93
   2   4   0   46.36    1.86
  -2   4   0   46.68    1.84
  -2  -4   0   47.33    1.96
   2  -4   0   47.37    1.93
  -2   4  -1   50.83    1.90
   2   4   1   48.18    1.94
   2  -4   1   49.34    2.04
  -2  -4  -1   48.76    2.04
   2   4   2   43.29    1.74
  -2  -4  -2   41.57    1.86
   2  -4   2   43.54    1.87
   2   4   3    8.18    0.64
   2  -4   3    8.42    0.83
   2   4   4   33.07    1.61
   2   4   4   31.00    1.40
   2  -4   4   33.66    1.64
   2   4   5   54.59    2.43
   2  -4   5   56.59    2.51
   2   4   6   42.67    2.07
  -2   4  -6   42.42    2.18
   2  -4   6   45.14    2.29
  -2   4  -7   54.66    2.69
   2   4   7   55.41    2.56
   2  -4   7   53.69    2.73
   2   4   8   25.12    1.55
  -2   4  -8   24.85    1.67
   2  -4   8   20.66    1.73
   2   5  -8    9.25    1.14
  -2  -5   8    7.69    1.13
  -2  -5   7   33.98    1.93
   2  -5  -7   34.25    1.72
   2  -5  -6   11.78    0.85
  -2  -5   6    9.27    1.06
  -2   5   5   15.13    0.93
  -2  -5   5   14.86    1.21
   2  -5  -5   14.84    0.98
  -2   5   4    2.09    0.39
   2  -5  -4    1.50    0.36
  -2  -5   4    2.66    0.55
  -2   5   3    9.72    0.79
   2  -5  -3    9.28    0.71
  -2  -5   3    7.39    0.89
   2   5  -2   42.77    1.77
  -2   5   2   38.83    1.77
   2  -5  -2   40.80    1.82
  -2  -5   2   45.22    1.95
   2   5  -1  140.77    5.09
  -2   5   1  141.91    5.10
  -2  -5   1  144.72    5.35
   2  -5  -1  137.99    5.29
  -2   5   0   63.49    2.47
   2   5   0   62.48    2.49
  -2  -5   0   64.29    2.61
   2  -5   0   65.26    2.60
  -2   5  -1  329.64   11.57
   2   5   1  337.36   11.62
   2  -5   1  329.85   12.12
  -2  -5  -1  337.88   12.13
   2   5   2   38.30    1.64
  -2  -5  -2   37.01    1.77
   2  -5   2   37.30    1.75
   2   5   3  225.00    7.98
  -2  -5  -3  230.07    8.39
   2  -5   3  223.27    8.40
   2   5   4    1.71    0.38
  -2  -5  -4    1.57    0.44
   2  -5   4    0.45    0.48
   2  -5   5   95.02    3.91
   2  -5   6    8.27    1.05
  -2   5  -7   12.17    1.13
   2  -5   7    9.98    1.37
  -2  -6   7    1.02    0.49
  -2   6   6   64.69    2.67
  -2  -6   6   66.41    2.93
   2  -6  -6   67.25    2.82
  -2   6   5    3.65    0.51
  -2  -6   5    4.41    0.66
   2  -6  -5    4.25    0.70
  -2   6   4  236.16    8.28
   2  -6  -4  221.90    8.58
  -2  -6   4  237.69    8.70
  -2   6   3    5.95    0.80
  -2  -6   3    5.67    0.92
   2  -6  -3    5.61    0.78
   2   6  -2  215.32    7.63
  -2   6   2  212.55    7.66
  -2  -6   2  221.34    8.05
   2  -6  -2  209.14    7.96
   2   6  -1   40.40    1.82
  -2   6   1   41.85    1.83
  -2  -6   1   41.87    1.97
   2  -6  -1   40.10    1.90
  -2   6   0  126.54    4.70
   2   6   0  126.63    4.70
   2  -6   0  128.67    4.91
  -2  -6   0  129.22    4.93
   2   6   1    0.09    0.33
  -2   6  -1    0.10    0.36
   2  -6   1   -0.17    0.45
  -2  -6  -1    0.65    0.40
   2   6   2    1.06    0.41
  -2  -6  -2    1.10    0.44
   2  -6   2    0.54    0.46
   2   6   3    0.82    0.40
  -2  -6  -3    0.75    0.47
   2  -6   3    0.14    0.46
   2   6   4   27.97    1.44
  -2  -6  -4   29.95    1.60
   2  -6   4   27.60    1.62
   2   6   5   -0.72    0.33
   2  -6   5    0.00    0.51
  -2  -6  -5    0.06    0.48
  -2  -6  -6   57.66    2.55
   2  -6   6   49.64    2.62
   2  -6   7    2.13    0.80
  -2  -6  -7    2.50    0.61
  -2  -7   7   16.16    1.52
   2  -7  -7   16.91    1.35
  -2   7   6    4.73    0.64
  -2  -7   6    6.34    0.90
   2  -7  -6    4.80    0.69
  -2   7   5    5.79    0.83
  -2  -7   5    5.04    0.81
   2  -7  -5    5.08    0.74
  -2   7   4    0.20    0.44
   2  -7  -4   -0.52    0.40
  -2  -7   4    0.02    0.54
  -2   7   3    9.43    0.98
   2   7  -3    8.37    0.93
  -2  -7   3    8.12    1.16
   2  -7  -3   10.01    0.95
   2   7  -2   17.78    1.17
  -2   7   2   17.77    1.20
   2  -7  -2   18.55    1.20
  -2  -7   2   17.76    1.37
   2   7  -1   59.08    2.55
  -2   7   1   62.40    2.56
   2  -7  -1   62.18    2.66
  -2  -7   1   61.72    2.71
   2   7   0   35.99    1.76
  -2   7   0   34.87    1.75
   2  -7   0   38.20    1.83
  -2  -7   0   37.05    1.87
   2   7   1  108.36    4.19
  -2   7  -1  113.08    4.15
  -2  -7  -1  106.20    4.39
   2  -7   1  112.32    4.41
   2   7   2  173.60    6.27
  -2  -7  -2  169.97    6.56
   2  -7   2  171.05    6.60
   2   7   3  135.97    5.08
   2  -7   3  133.31    5.36
  -2  -7  -3  138.38    5.36
   2   7   4   94.40    3.74
   2  -7   4   99.58    4.08
  -2  -7  -4   94.99    4.00
   2   7   5   42.33    2.01
   2  -7   5   42.88    2.33
  -2  -7  -5   45.00    2.18
  -2  -7  -6   21.24    1.51
   2  -7   6   22.41    1.67
  -2   8   6   12.06    1.08
   2  -8  -6    8.80    1.15
  -2  -8   6    8.88    1.16
  -2   8   5   73.84    2.99
  -2  -8   5   69.07    3.31
   2  -8  -5   66.34    3.03
  -2   8   4    8.24    1.05
   2  -8  -4    8.64    1.03
  -2  -8   4    9.79    1.32
  -2   8   3  166.66    6.31
   2   8  -3  174.84    6.27
   2  -8  -3  166.98    6.56
  -2  -8   3  172.03    6.70
   2   8  -2   30.51    1.62
  -2   8   2   29.07    1.66
   2  -8  -2   28.00    1.74
  -2  -8   2   29.34    1.79
   2   8  -1  122.24    4.60
  -2   8   1  115.41    4.60
  -2  -8   1  123.03    4.86
   2  -8  -1  119.58    4.81
  -2   8   0    2.98    0.66
   2   8   0    3.14    0.63
  -2  -8   0    2.90    0.63
   2  -8   0    2.82    0.67
  -2   8  -1   30.25    1.67
   2   8   1   32.96    1.71
   2  -8   1   31.97    1.79
  -2  -8  -1   31.42    1.78
   2   8   2    3.59    0.64
  -2   8  -2    4.45    0.65
  -2  -8  -2    4.33    0.78
   2  -8   2    5.11    0.85
   2   8   3    2.41    0.54
  -2  -8  -3    2.10    0.62
   2  -8   3    2.95    0.73
   2   8   4   -0.09    0.46
   2  -8   4   -0.37    0.60
  -2  -8  -4   -0.19    0.55
   2   8   5   26.64    1.61
   2  -8   5   25.40    1.80
  -2  -8  -5   30.94    1.71
  -2   9   5    1.18    0.55
  -2  -9   5    1.84    0.81
   2  -9  -5    0.62    0.61
  -2   9   4    0.84    0.60
  -2  -9   4    0.62    0.74
   2   9  -3    0.42    0.53
  -2   9   3   -0.02    0.49
   2  -9  -3   -0.16    0.49
  -2  -9   3   -0.16    0.68
   2   9  -2   15.14    1.31
  -2   9   2   17.34    1.35
   2  -9  -2   13.94    1.27
  -2  -9   2   14.13    1.39
  -2   9   1    4.93    0.77
   2   9  -1    5.58    0.82
   2  -9  -1    5.13    0.85
  -2  -9   1    4.98    0.91
  -2   9   0  114.32    4.44
   2   9   0  114.13    4.47
   2  -9   0  116.89    4.72
  -2  -9   0  107.22    4.72
   2   9   1   12.65    1.18
  -2   9  -1   10.64    1.15
   2  -9   1    9.66    1.20
  -2  -9  -1   10.42    1.34
   2   9   2  134.71    5.18
  -2  -9  -2  135.63    5.42
   2  -9   2  132.36    5.46
   2   9   3    2.54    0.66
  -2  -9  -3    1.77    0.75
   2  -9   3    2.50    0.79
   2   9   4  101.63    4.04
  -2  -9  -4  103.56    4.27
   2  -9   4   95.37    4.33
   2   9   5    2.01    0.62
  -2  10   3   51.13    2.53
  -2 -10   3   49.85    2.62
   2 -10  -3   51.36    2.62
   2  10  -2   40.20    2.06
  -2  10   2   39.52    2.13
  -2 -10   2   37.60    2.27
   2 -10  -2   37.74    2.26
   2  10  -1   28.32    1.72
  -2  10   1   26.49    1.83
  -2 -10   1   27.65    2.07
   2 -10  -1   29.11    1.82
   2  10   0   33.31    1.90
  -2  10   0   32.92    1.94
   2 -10   0   31.75    2.14
  -2 -10   0   30.59    1.95
   2  10   1   16.77    1.44
  -2  10  -1   13.59    1.37
   2 -10   1   16.57    1.51
  -2 -10  -1   15.26    1.49
   2  10   2    5.42    0.83
  -2 -10  -2    2.82    0.90
   2 -10   2    3.94    0.75
   3   0  -8  102.50    4.36
   3   0  -7   -0.12    0.35
  -3   0   5   -0.19    0.27
  -3   0   4  488.18   18.28
  -3   0   3   -0.03    0.17
   3   0  -3   -0.13    0.15
   3   0  -2  162.61    5.72
  -3   0   2  167.25    6.24
   3   0  -1   -0.29    0.16
  -3   0   1   -0.19    0.16
  -3   0   0   38.50    1.61
   3   0   1   -0.57    0.26
  -3   0  -1   -0.25    0.19
   3   0   2  267.34    9.59
  -3   0  -2  260.09    9.93
  -3   0  -3    0.18    0.27
   3   0   3   -0.45    0.34
  -3   0  -4  235.28    9.08
   3   0   4  239.09    8.80
  -3   0  -5    0.61    0.37
   3   0   5   -0.25    0.52
   3   0   6  147.90    5.72
  -3   0  -6  141.73    5.80
  -3   0  -7   -0.12    0.46
   3   0   7   -0.36    0.46
   3   0   8  102.06    4.40
   3   1  -8    7.79    1.10
   3   1  -7    7.74    0.95
   3  -1  -7    8.22    0.94
  -3   1   5    4.33    0.63
  -3  -1   5    3.80    0.50
  -3   1   4    8.65    0.61
  -3  -1   4    8.36    0.65
  -3   1   3   79.41    3.17
  -3  -1   3   82.89    3.20
   3   1  -2  249.57    8.65
  -3  -1   2  252.10    9.42
  -3   1   1  317.17   11.80
   3   1  -1  317.62   10.84
  -3   1   1  312.89   10.82
  -3   1   0  101.66    4.30
   3   1   0  122.20    3.91
  -3   1  -1  612.63   22.81
   3  -1   1  612.68   21.78
  -3   1  -2  245.66    9.00
   3   1   2  218.69    8.64
   3  -1   2  250.61    8.65
  -3   1  -3  315.19   11.63
   3   1   3  288.52   11.18
   3  -1   3  318.92   11.21
   3   1   4   14.33    1.07
  -3   1  -4   13.24    0.94
  -3  -1  -4   12.22    0.91
   3  -1   4   13.11    1.13
   3   1   5   19.33    1.33
  -3   1  -5   20.08    1.27
   3  -1   5   21.25    1.49
  -3   1  -6    4.57    0.65
   3   1   6    5.90    0.79
   3  -1   6    6.10    0.98
  -3   1  -7   17.76    1.37
   3   1   7   18.34    1.39
   3  -1   7   18.88    1.52
   3   1   8    1.90    0.55
  -3   1  -8    1.36    0.56
   3  -1   8    1.86    0.71
   3   2  -9   19.46    1.61
   3   2  -7  112.74    4.67
   3   2  -6   62.94    2.54
  -3  -2   6   49.10    2.53
  -3  -2   5  161.41    6.34
  -3   2   4   63.34    2.39
  -3  -2   4   65.83    2.68
  -3   2   3  255.81    8.67
  -3  -2   3  244.96    9.46
   3   2  -2  111.16    3.87
  -3   2   2  108.28    3.89
   3   2  -1   71.97    2.67
  -3   2   1   76.30    2.68
   3   2   0    0.78    0.23
  -3   2   0    0.75    0.21
   3  -2   0    0.80    0.21
  -3  -2   0    0.77    0.23
   3   2   1    5.94    0.46
   3   2   1    6.23    0.53
   3  -2   1    6.13    0.51
  -3   2  -2   57.43    2.40
   3   2   2   61.11    2.37
   3  -2   2   58.84    2.33
   3   2   3  100.14    3.81
  -3   2  -3   97.29    3.89
   3  -2   3   97.20    3.77
   3   2   4   31.92    1.67
  -3   2  -4   33.27    1.62
   3  -2   4   34.47    1.70
  -3   2  -5  242.00    8.98
   3   2   5  213.87    8.64
   3  -2   5  238.21    8.76
   3   2   6   40.23    2.19
  -3   2  -6   45.98    2.19
   3  -2   6   46.49    2.36
  -3   2  -7   68.30    3.12
   3   2   7   62.29    3.09
   3  -2   7   73.36    3.30
  -3   2  -8   10.35    1.10
   3   2   8    8.34    1.13
   3  -2   8   10.47    1.35
   3   3  -8   24.03    1.60
   3   3  -6    0.40    0.40
  -3  -3   6    1.28    0.50
  -3   3   5    0.38    0.24
  -3  -3   5    0.61    0.35
  -3   3   4   94.14    3.44
  -3   3   3   15.51    0.82
  -3  -3   3   16.54    0.87
   3   3  -2  372.20   13.38
  -3   3   2  399.06   13.42
  -3  -3   2  396.67   13.97
   3   3  -1   13.65    0.75
  -3   3   1   14.53    0.76
   3  -3  -1   13.56    0.70
  -3  -3   1   13.84    0.79
  -3   3   0 1000.00   33.35
   3   3   0  970.08   33.36
  -3  -3   0  991.74   34.77
   3  -3   0  949.92   34.74
   3   3   1    0.65    0.26
  -3  -3  -1    0.29    0.27
   3  -3   1    0.60    0.28
   3   3   2  366.10   13.29
   3   3   2  378.31   12.70
   3  -3   2  361.13   13.28
   3   3   3    0.74    0.33
   3  -3   3    0.36    0.34
  -3   3  -4   98.03    4.06
   3   3   4   98.08    3.95
   3  -3   4  104.58    3.97
  -3   3  -5    6.86    0.86
   3   3   5    4.39    0.66
   3  -3   5    6.13    0.85
  -3   3  -6    7.41    0.97
   3   3   6    7.79    0.96
   3  -3   6    7.34    1.18
  -3   3  -7    0.59    0.45
   3   3   7   -0.78    0.45
   3  -3   7    0.76    0.63
  -3   3  -8    3.84    0.68
   3  -3   8    6.42    1.14
   3   4  -8   15.11    1.38
  -3  -4   8   12.41    1.47
  -3  -4   7   46.97    2.28
  -3   4   6   53.93    2.11
  -3  -4   6   50.26    2.32
  -3   4   5  112.51    4.17
  -3  -4   5  110.56    4.40
   3  -4  -5  118.22    4.36
  -3   4   4   52.74    2.16
  -3  -4   4   58.01    2.35
   3  -4  -4   53.26    2.23
  -3   4   3  123.60    4.59
   3   4  -3  125.95    4.55
  -3  -4   3  131.25    4.82
  -3   4   2   23.05    1.14
   3   4  -2   24.25    1.12
  -3  -4   2   24.63    1.26
   3  -4  -2   24.50    1.12
   3   4  -1   76.93    2.97
  -3   4   1   82.78    3.00
  -3  -4   1   84.15    3.13
   3  -4  -1   77.80    3.07
   3   4   0   26.62    1.23
  -3   4   0   28.01    1.22
  -3  -4   0   29.30    1.30
   3  -4   0   26.71    1.26
   3   4   1   -0.09    0.25
   3  -4   1    0.42    0.33
  -3  -4  -1    0.08    0.31
   3   4   2   45.65    1.83
  -3  -4  -2   45.62    1.97
   3  -4   2   45.65    1.96
   3   4   3  120.99    4.34
   3  -4   3  119.21    4.62
   3   4   4   24.59    1.37
   3  -4   4   24.29    1.35
   3   4   5  145.74    5.68
   3  -4   5  148.10    5.72
  -3   4  -6   46.68    2.30
   3   4   6   47.03    2.28
   3  -4   6   49.13    2.49
   3   4   7   59.72    2.73
   3  -4   7   54.96    2.92
  -3   4  -8   19.25    1.57
   3   4   8   18.89    1.44
   3  -4   8   19.35    1.70
  -3  -5   7    6.40    1.00
  -3   5   6   -0.08    0.25
   3  -5  -6    0.10    0.30
  -3  -5   6    0.54    0.45
  -3   5   5   10.96    0.80
   3  -5  -5   10.85    0.81
  -3  -5   5    9.80    1.00
  -3   5   4    4.97    0.71
   3  -5  -4    5.13    0.63
  -3  -5   4    6.37    0.85
   3   5  -3  131.00    4.70
  -3   5   3  124.96    4.75
   3  -5  -3  127.21    4.92
  -3  -5   3  136.66    5.02
   3   5  -2  116.97    4.28
  -3   5   2  114.48    4.30
  -3  -5   2  121.71    4.54
   3  -5  -2  115.39    4.45
   3   5  -1  308.67   10.81
  -3   5   1  316.20   10.82
  -3  -5   1  312.07   11.28
   3  -5  -1  302.77   11.24
  -3   5   0   85.04    3.12
   3   5   0   81.74    3.14
   3  -5   0   81.92    3.25
  -3  -5   0   82.06    3.29
  -3   5  -1  280.16   10.01
   3   5   1  297.15   10.08
  -3  -5  -1  290.06   10.52
   3  -5   1  283.44   10.49
   3   5   2   57.26    2.25
  -3  -5  -2   55.59    2.39
   3  -5   2   53.89    2.39
   3   5   3  147.91    5.40
   3  -5   3  151.55    5.73
  -3  -5  -3  149.17    5.72
   3   5   4   12.84    0.88
   3  -5   4   14.69    1.19
  -3  -5  -4   14.98    1.11
   3  -5   5   27.55    1.66
   3  -5   6   -0.33    0.59
  -3   5  -7    0.05    0.52
   3   5   7    0.96    0.71
   3  -5   7    1.30    0.60
  -3  -6   7    2.13    0.55
  -3   6   6   93.63    3.62
   3  -6  -6   96.56    3.77
  -3  -6   6   89.95    3.85
  -3   6   5    4.65    0.58
  -3  -6   5    4.56    0.68
   3  -6  -5    4.51    0.72
  -3   6   4  166.41    6.18
   3  -6  -4  168.81    6.41
  -3  -6   4  173.90    6.51
   3   6  -3   10.58    0.90
  -3   6   3   10.71    0.93
  -3  -6   3    9.10    1.15
   3  -6  -3    9.60    0.82
  -3   6   2   88.08    3.49
   3   6  -2   91.77    3.49
  -3  -6   2   95.35    3.73
   3  -6  -2   88.60    3.60
   3   6  -1    3.81    0.54
  -3   6   1    3.76    0.55
  -3  -6   1    4.24    0.63
   3  -6  -1    5.14    0.72
  -3   6   0    0.75    0.41
   3   6   0    1.04    0.42
   3  -6   0    1.19    0.43
  -3  -6   0    1.04    0.44
   3   6   1    4.24    0.54
  -3   6  -1    4.55    0.70
  -3  -6  -1    3.72    0.57
   3  -6   1    5.75    0.81
   3   6   2   28.73    1.44
   3  -6   2   26.81    1.53
  -3  -6  -2   29.17    1.54
   3   6   3    2.77    0.49
  -3  -6  -3    2.26    0.54
   3  -6   3    1.95    0.56
   3   6   4  112.04    4.19
   3  -6   4  114.32    4.51
  -3  -6  -4  108.14    4.48
  -3  -6  -5    0.46    0.48
   3  -6   5   -0.15    0.41
   3  -6   6   68.71    3.26
  -3  -6  -6   76.49    3.24
   3  -6   7    0.00    0.78
  -3  -6  -7   -0.28    0.54
  -3  -7   7    2.86    0.74
  -3   7   6    0.37    0.43
  -3  -7   6   -0.66    0.65
   3  -7  -6    0.14    0.32
  -3   7   5    5.43    0.85
   3  -7  -5    4.29    0.63
  -3  -7   5    4.87    0.83
  -3   7   4    9.11    0.95
   3  -7  -4    9.05    0.87
  -3  -7   4   10.42    1.24
   3   7  -3   41.26    1.91
  -3   7   3   42.57    1.97
  -3  -7   3   43.06    2.22
   3  -7  -3   40.13    2.02
   3   7  -2   53.30    2.32
  -3   7   2   53.30    2.33
  -3  -7   2   55.15    2.57
   3  -7  -2   53.55    2.41
   3   7  -1  108.59    4.23
  -3   7   1  111.48    4.25
   3  -7  -1  109.23    4.41
  -3  -7   1  116.30    4.50
   3   7   0   52.20    2.29
  -3   7   0   53.68    2.28
  -3  -7   0   52.38    2.45
   3  -7   0   52.53    2.40
  -3   7  -1  152.42    5.73
   3   7   1  156.42    5.80
  -3  -7  -1  163.25    6.10
   3  -7   1  157.92    6.06
   3   7   2   89.65    3.55
  -3  -7  -2   95.72    3.77
   3  -7   2   86.28    3.72
   3   7   3   74.46    3.04
   3  -7   3   74.26    3.24
  -3  -7  -3   78.64    3.26
   3   7   4   15.64    1.12
   3  -7   4   16.49    1.32
  -3  -7  -4   18.18    1.46
   3   7   5    8.79    0.88
  -3  -7  -5    8.35    1.09
   3  -7   5    7.51    1.22
   3  -7   6    2.16    0.78
  -3  -7  -6    1.01    0.63
  -3   8   6   12.23    1.09
  -3  -8   6   12.60    1.46
   3  -8  -6    9.89    1.18
  -3   8   5   96.42    3.81
  -3  -8   5   92.88    4.11
   3  -8  -5   92.97    3.88
  -3   8   4    8.19    1.02
  -3  -8   4    9.18    1.34
   3  -8  -4    7.67    1.11
  -3   8   3   71.66    3.16
   3   8  -3   78.87    3.11
  -3  -8   3   77.15    3.47
   3  -8  -3   75.86    3.25
   3   8  -2   14.43    1.18
  -3   8   2   14.99    1.21
   3  -8  -2   13.38    1.18
  -3  -8   2   13.91    1.46
  -3   8   1   14.70    1.25
   3   8  -1   15.59    1.21
   3  -8  -1   11.80    1.23
  -3  -8   1   14.95    1.28
   3   8   0    2.13    0.57
  -3   8   0    1.94    0.58
   3  -8   0    1.14    0.61
  -3  -8   0    1.58    0.59
  -3   8  -1    6.09    0.92
   3   8   1    8.07    1.03
  -3  -8  -1    8.61    1.07
   3  -8   1    6.43    1.01
   3   8   2    0.91    0.52
  -3  -8  -2    1.59    0.62
   3  -8   2    1.56    0.55
   3   8   3   31.75    1.78
   3  -8   3   32.40    1.88
  -3  -8  -3   36.80    1.95
   3   8   4    3.08    0.60
  -3  -8  -4    4.87    0.76
   3  -8   4    4.19    0.85
   3   8   5   37.32    1.91
   3  -8   5   35.78    2.23
  -3  -8  -5   39.17    2.13
  -3   9   5    1.21    0.61
   3  -9  -5    0.85    0.66
  -3  -9   5    1.19    0.74
  -3   9   4   24.80    1.54
  -3  -9   4   20.75    1.84
   3  -9  -4   21.76    1.49
   3   9  -3    7.51    1.06
  -3   9   3    4.31    0.79
   3  -9  -3    5.35    0.85
  -3  -9   3    5.81    1.02
  -3   9   2   64.12    2.83
   3   9  -2   63.98    2.81
   3  -9  -2   64.14    2.94
  -3  -9   2   62.25    3.04
  -3   9   1   14.30    1.30
   3   9  -1   13.43    1.24
   3  -9  -1   13.71    1.22
  -3  -9   1   10.60    1.39
   3   9   0  131.13    5.14
  -3   9   0  132.89    5.12
   3  -9   0  133.45    5.41
  -3  -9   0  135.72    5.44
   3   9   1    3.01    0.67
  -3   9  -1    3.26    0.65
   3  -9   1    2.06    0.70
  -3  -9  -1    3.09    0.83
   3   9   2   70.34    3.06
   3  -9   2   67.81    3.20
  -3  -9  -2   74.90    3.29
   3   9   3    0.69    0.53
  -3  -9  -3    0.82    0.71
   3  -9   3    1.67    0.63
   3   9   4   43.66    2.20
   3  -9   4   41.68    2.47
  -3  -9  -4   44.91    2.35
   3  10  -3   23.86    1.61
  -3  10   3   22.25    1.77
   3 -10  -3   19.56    1.52
  -3 -10   3   19.24    1.80
  -3  10   2   18.94    1.55
   3  10  -2   19.07    1.53
  -3 -10   2   16.71    1.61
   3 -10  -2   18.07    1.66
  -3  10   1    3.89    0.82
   3  10  -1    6.00    0.90
  -3 -10   1    6.62    1.07
   3 -10  -1    3.76    0.86
  -3  10   0    0.24    0.67
   3  10   0    0.30    0.55
  -3 -10   0    0.46    0.74
   3 -10   0    0.17    0.72
  -3  10  -1    0.69    0.66
   3  10   1    0.93    0.59
   3 -10   1    0.40    0.78
  -3 -10  -1    0.96    0.66
   3  10   2    4.55    0.84
  -3 -10  -2    3.89    0.88
   3 -10   2    3.88    0.79
  -4   0   6  152.76    6.04
  -4   0   5    0.28    0.26
  -4   0   4   89.54    3.56
  -4   0   3   -0.23    0.20
   4   0  -3    0.14    0.19
  -4   0   2   16.00    0.82
   4   0  -2   16.76    0.80
   4   0  -1   -0.14    0.22
  -4   0   1   -0.20    0.19
   4   0   0  254.36    9.00
  -4   0   0  268.71    9.85
  -4   0  -1    0.06    0.22
   4   0   1   -0.03    0.28
  -4   0  -2  136.04    5.23
   4   0   3   -0.27    0.35
  -4   0  -3    0.09    0.27
   4   0   4  285.85   10.34
  -4   0  -4  274.31   10.68
  -4   0  -5   -0.12    0.32
   4   0   6  197.91    7.48
  -4   0  -6  191.10    7.65
   4   0   7    0.24    0.56
   4   0   8   56.18    2.78
  -4   0  -8   50.76    2.66
   4   1  -9    5.33    0.81
   4   1  -8   -0.76    0.37
  -4  -1   6   18.45    1.21
  -4   1   5   89.12    3.54
  -4  -1   5   86.40    3.57
  -4   1   4   30.76    1.41
  -4  -1   4   30.37    1.45
   4  -1  -4   32.66    1.29
  -4   1   3  219.32    8.31
   4   1  -3  199.60    7.64
  -4  -1   3  223.15    8.32
   4  -1  -3  235.78    7.63
  -4   1   2  263.37    9.71
   4   1  -2  241.17    8.93
  -4  -1   2  260.86    9.71
   4  -1  -2  267.74    8.91
   4   1  -1  460.97   16.12
  -4   1   1  490.04   17.58
   4  -1  -1  485.49   16.11
  -4  -1   1  448.24   17.56
  -4   1   0   51.70    2.20
   4   1   0   56.88    1.96
   4  -1   0   51.58    1.92
   4   1   1  408.58   15.66
  -4   1  -1  462.08   16.39
   4  -1   1  443.80   15.64
  -4   1  -2   57.05    2.36
   4  -1   2   58.27    2.32
   4   1   3  142.09    5.23
  -4   1  -3  136.13    5.36
   4  -1   3  134.25    5.23
   4   1   4    4.93    0.66
  -4   1  -4    4.37    0.68
   4  -1   4    4.55    0.69
   4   1   5    1.70    0.51
  -4   1  -5    0.35    0.36
   4  -1   5    0.44    0.61
   4   1   6    1.87    0.66
  -4   1  -6    1.17    0.44
   4  -1   6    1.84    0.61
  -4   1  -7   15.29    1.26
   4   1   7   16.27    1.35
   4  -1   7   18.11    1.56
  -4   1  -8   15.63    1.36
   4   1   8   12.97    1.22
   4  -1   8   11.70    1.34
   4   2  -9   43.88    2.37
   4   2  -8   10.75    1.14
   4   2  -7  111.10    4.61
  -4  -2   6   33.61    1.79
  -4  -2   5  120.80    4.83
  -4  -2   4   18.80    1.02
  -4   2   3   52.25    1.97
   4   2  -3   51.29    1.96
  -4  -2   3   51.98    2.14
   4   2  -2    3.12    0.41
  -4   2   2    3.00    0.40
  -4   2   1    3.97    0.40
   4   2  -1    3.69    0.42
  -4   2   0   10.58    0.56
   4   2   0   10.57    0.60
   4   2   1   66.21    2.51
   4   2   1   68.28    2.38
  -4   2  -1   61.31    2.59
   4  -2   1   63.21    2.48
  -4   2  -2   59.63    2.40
   4   2   2   57.44    2.36
   4  -2   2   57.94    2.32
   4   2   3  300.39   11.76
  -4   2  -3  339.12   12.26
   4  -2   3  329.96   11.75
   4   2   4   18.89    1.31
  -4   2  -4   22.15    1.24
   4  -2   4   22.68    1.31
   4   2   5  144.86    5.92
  -4   2  -5  155.24    6.09
   4  -2   5  158.09    6.05
   4   2   6   51.77    2.53
  -4   2  -6   50.98    2.44
   4  -2   6   51.68    2.61
   4   2   7   56.08    2.89
  -4   2  -7   59.95    2.83
   4  -2   7   62.54    2.95
  -4   2  -8   12.36    1.36
   4   2   8    9.63    1.18
   4  -2   8   11.54    1.43
   4   3  -8   -0.38    0.58
   4   3  -7    0.36    0.39
  -4   3   5    1.60    0.30
  -4  -3   5    1.27    0.41
  -4   3   4  254.57    8.88
   4   3  -3    1.64    0.30
  -4   3   3    2.05    0.33
   4   3  -2  333.72   11.89
  -4   3   2  355.79   11.92
   4   3  -1    6.92    0.57
  -4   3   1    6.03    0.56
  -4   3   0  458.54   16.16
   4   3   0  469.99   16.18
  -4  -3   0  476.97   16.86
   4  -3   0  478.96   16.84
   4   3   1    2.76    0.33
  -4  -3  -1    2.20    0.36
   4  -3   1    2.61    0.36
   4   3   2   94.55    3.71
   4   3   2   99.99    3.50
   4  -3   2   94.38    3.68
   4   3   3    0.76    0.37
  -4   3  -3    0.41    0.32
   4  -3   3    1.13    0.37
  -4   3  -4   19.68    1.23
   4   3   4   20.66    1.26
   4  -3   4   19.52    1.25
  -4   3  -5    1.90    0.50
   4   3   5    1.41    0.51
   4  -3   5    2.02    0.63
   4   3   6    4.22    0.72
  -4   3  -6    3.25    0.63
   4  -3   6    4.81    0.89
   4   3   7    0.01    0.52
  -4   3  -7    0.45    0.54
   4  -3   7    0.29    0.62
  -4   3  -8   46.92    2.49
   4   3   8   42.74    2.42
   4  -3   8   43.76    2.58
   4   4  -8   22.51    1.56
   4   4  -7   77.16    3.42
  -4   4   6   54.74    2.20
  -4   4   5   79.38    3.02
  -4   4   4   21.98    1.12
   4   4  -3   37.64    1.58
  -4   4   3   38.20    1.62
   4   4  -2   12.21    0.78
  -4   4   2   11.35    0.77
   4  -4  -2   11.50    0.71
  -4  -4   2   11.77    0.90
   4   4  -1    0.35    0.29
  -4   4   1    0.49    0.31
  -4  -4   1    0.67    0.36
   4  -4  -1    0.48    0.22
  -4   4   0   23.67    1.11
   4   4   0   23.22    1.10
   4  -4   0   23.03    1.15
  -4  -4   0   22.99    1.17
   4   4   1   60.84    2.41
  -4  -4  -1   63.96    2.55
   4  -4   1   62.98    2.52
   4   4   2  123.84    4.47
  -4  -4  -2  125.72    4.74
   4  -4   2  121.87    4.71
   4   4   3  167.35    5.92
   4  -4   3  165.65    6.27
   4   4   4   52.93    2.38
   4  -4   4   53.65    2.38
   4   4   5  125.27    4.97
   4  -4   5  125.84    5.02
   4   4   6   50.53    2.48
   4  -4   6   53.97    2.59
   4   4   7   35.49    2.03
  -4   4  -7   39.70    2.17
   4  -4   7   37.46    2.43
  -4   5   6    6.32    0.72
  -4   5   5   67.97    2.66
  -4  -5   5   64.90    2.83
  -4   5   4   11.69    0.90
   4  -5  -4   13.41    0.82
  -4  -5   4   13.97    1.03
   4   5  -3  222.56    7.95
  -4   5   3  219.84    8.00
  -4  -5   3  237.18    8.39
   4  -5  -3  222.77    8.29
   4   5  -2   62.56    2.52
  -4   5   2   63.19    2.55
  -4  -5   2   66.75    2.72
   4  -5  -2   65.01    2.59
  -4   5   1  319.29   10.98
   4   5  -1  310.40   10.96
  -4  -5   1  323.88   11.46
   4  -5  -1  303.97   11.39
   4   5   0    5.90    0.71
  -4   5   0    6.14    0.69
  -4  -5   0    6.66    0.81
   4  -5   0    7.99    0.79
   4   5   1  182.42    6.43
  -4  -5  -1  181.54    6.73
   4  -5   1  175.75    6.70
   4   5   2   14.76    0.94
   4  -5   2   14.92    1.03
  -4  -5  -2   15.82    1.07
   4   5   3   38.44    1.68
  -4  -5  -3   39.48    1.87
   4  -5   3   36.51    1.84
   4   5   4    4.54    0.63
  -4  -5  -4    3.32    0.63
   4  -5   4    3.89    0.63
   4  -5   5    2.83    0.70
   4   5   6    1.02    0.65
   4  -5   6    1.27    0.68
  -4   5  -7   14.18    1.29
   4   5   7   16.45    1.57
   4  -5   7   16.32    1.49
  -4   6   7    0.97    0.43
  -4   6   6   70.32    2.84
  -4   6   5    0.19    0.34
  -4  -6   5    1.60    0.59
  -4   6   4   70.34    2.99
  -4  -6   4   80.74    3.24
   4  -6  -4   74.55    3.08
   4   6  -3    0.28    0.42
  -4   6   3    0.01    0.38
  -4  -6   3    0.17    0.58
   4  -6  -3   -0.20    0.32
  -4   6   2    2.55    0.52
   4   6  -2    2.89    0.51
  -4  -6   2    2.15    0.62
   4  -6  -2    2.83    0.46
   4   6  -1   12.88    1.00
  -4   6   1   13.96    0.99
  -4  -6   1   13.90    1.07
   4  -6  -1   12.04    1.01
  -4   6   0   55.66    2.27
   4   6   0   53.00    2.30
  -4  -6   0   56.70    2.43
   4  -6   0   54.92    2.39
   4   6   1    3.19    0.52
  -4  -6  -1    2.58    0.57
   4  -6   1    3.25    0.58
   4   6   2  119.55    4.44
  -4  -6  -2  116.30    4.67
   4  -6   2  119.76    4.66
   4   6   3   11.68    0.92
  -4  -6  -3   10.21    1.03
   4  -6   3    9.37    1.06
   4   6   4  171.13    6.16
  -4  -6  -4  168.17    6.56
   4  -6   4  169.21    6.56
   4  -6   5    1.08    0.53
  -4  -6  -5    0.32    0.49
   4  -6   6   58.16    2.88
  -4  -6  -6   63.30    2.87
  -4   7   7    1.08    0.50
  -4   7   6   11.18    1.03
  -4   7   5   29.22    1.50
   4  -7  -5   25.09    1.49
  -4  -7   5   25.63    1.74
   4   7  -4   39.86    1.88
  -4   7   4   39.86    1.92
  -4  -7   4   38.67    2.16
   4  -7  -4   39.70    1.91
  -4   7   3   98.14    3.91
   4   7  -3  104.68    3.91
   4  -7  -3   97.21    4.02
  -4  -7   3  103.39    4.21
  -4   7   2  125.50    4.92
   4   7  -2  133.45    4.91
  -4  -7   2  135.36    5.23
   4  -7  -2  129.73    5.09
  -4   7   1  133.31    4.99
   4   7  -1  131.55    4.99
  -4  -7   1  133.90    5.27
   4  -7  -1  135.93    5.19
   4   7   0  104.13    4.00
  -4   7   0  101.89    3.95
  -4  -7   0  104.44    4.19
   4  -7   0  104.28    4.17
  -4   7  -1   96.67    3.86
   4   7   1  103.24    3.95
  -4  -7  -1  104.69    4.18
   4  -7   1  104.25    4.15
   4   7   2   52.31    2.34
  -4  -7  -2   56.61    2.56
   4  -7   2   52.72    2.50
   4   7   3   13.55    1.06
   4  -7   3   13.65    1.21
  -4  -7  -3   14.15    1.25
   4   7   4    0.31    0.42
  -4  -7  -4   -1.04    0.54
   4  -7   4    1.17    0.54
   4   7   5   -0.20    0.40
  -4  -7  -5    0.22    0.55
   4  -7   5   -0.15    0.44
   4  -7   6    6.61    0.95
  -4  -7  -6    9.32    1.45
  -4   8   6    6.12    0.76
   4  -8  -6    4.22    0.64
  -4  -8   6    3.41    0.77
  -4   8   5   46.82    2.24
  -4  -8   5   47.73    2.49
  -4   8   4    2.80    0.63
   4  -8  -4    2.53    0.60
  -4  -8   4    3.88    0.85
  -4   8   3   11.03    1.13
   4   8  -3   12.23    1.12
   4  -8  -3   11.95    1.20
  -4  -8   3   12.06    1.47
  -4   8   2    0.66    0.57
   4   8  -2    0.89    0.54
  -4  -8   2    0.54    0.71
   4  -8  -2    0.37    0.49
  -4   8   1    5.68    0.75
   4   8  -1    5.21    0.75
   4  -8  -1    5.77    0.72
  -4  -8   1    5.67    0.86
   4   8   0    0.91    0.55
  -4   8   0   -0.20    0.48
  -4  -8   0    1.37    0.65
   4  -8   0    0.83    0.61
   4   8   1   80.33    3.32
  -4   8  -1   78.27    3.23
   4  -8   1   81.96    3.52
  -4  -8  -1   83.99    3.53
   4   8   2    7.76    1.06
   4  -8   2    9.99    1.19
  -4  -8  -2    9.57    1.23
   4   8   3   85.64    3.60
   4  -8   3   89.32    3.84
  -4  -8  -3   95.22    3.93
   4   8   4    6.57    0.92
   4  -8   4    3.84    0.72
  -4  -8  -4    5.00    0.79
   4  -8   5   52.99    2.83
  -4  -8  -5   62.39    2.94
  -4   9   5    2.88    0.69
  -4  -9   5    2.81    0.75
   4  -9  -5    2.40    0.64
  -4   9   4   72.52    3.18
   4  -9  -4   73.63    3.24
  -4  -9   4   70.89    3.48
   4   9  -3    5.04    0.79
  -4   9   3    5.55    0.78
   4  -9  -3    6.27    1.02
  -4  -9   3    4.96    1.05
  -4   9   2  114.70    4.50
   4   9  -2  111.87    4.45
   4  -9  -2  112.78    4.67
  -4  -9   2  111.08    4.79
  -4   9   1    5.51    0.83
   4   9  -1    5.72    0.81
   4  -9  -1    5.50    0.83
  -4  -9   1    5.60    0.88
  -4   9   0  139.57    5.39
   4   9   0  141.37    5.44
  -4  -9   0  144.28    5.73
   4  -9   0  142.89    5.69
  -4   9  -1    1.11    0.58
   4   9   1    2.49    0.67
   4  -9   1    1.98    0.78
  -4  -9  -1    2.96    0.79
   4   9   2   48.30    2.34
  -4  -9  -2   52.42    2.67
   4  -9   2   48.53    2.55
   4   9   3    0.99    0.60
  -4  -9  -3   -0.08    0.64
   4  -9   3   -0.28    0.53
   4   9   4    1.01    0.55
   4  -9   4    1.59    0.67
  -4  -9  -4    0.47    0.73
   4  10  -3    3.42    0.74
   4 -10  -3    3.77    0.84
  -4 -10   3    4.39    1.07
   4  10  -2    0.10    0.63
  -4  10   2    1.53    0.71
   4 -10  -2    2.07    0.61
  -4 -10   2    1.56    0.74
  -4  10   1    0.11    0.70
   4  10  -1    3.12    0.78
  -4 -10   1   -0.23    0.82
   4 -10  -1    1.05    0.78
   4  10   0    2.90    0.80
  -4  10   0    3.68    0.79
   4 -10   0    3.93    0.75
  -4 -10   0    2.72    0.95
  -4  10  -1   28.02    1.68
   4  10   1   25.71    1.68
  -4 -10  -1   24.33    1.82
   4 -10   1   24.22    1.92
   4  10   2   39.15    2.22
   4 -10   2   41.78    2.40
  -4 -10  -2   41.69    2.42
   5   0  -9    0.07    0.45
  -5   0   7   -0.26    0.41
  -5   0   6   65.83    2.84
  -5   0   5   -0.39    0.29
   5   0  -4   10.35    0.74
  -5   0   4    8.87    0.72
  -5   0   3   -0.13    0.24
   5   0  -3   -0.30    0.24
  -5   0   2   27.55    1.25
   5   0  -2   28.23    1.21
   5   0  -1   -0.03    0.26
  -5   0   1    0.18    0.21
  -5   0   0  403.32   15.13
   5   0   0  404.34   13.85
  -5   0  -1    0.19    0.26
  -5   0  -2  180.03    7.17
   5   0   2  195.18    6.93
   5   0   3   -0.34    0.34
  -5   0  -3    0.08    0.32
   5   0   4  301.25   11.11
  -5   0  -4  302.40   11.53
  -5   0  -5    0.04    0.41
   5   0   5    0.15    0.55
   5   0   6   54.55    2.56
  -5   0  -6   52.29    2.57
  -5   0  -7   -0.48    0.47
   5   0   7    0.07    0.62
   5   0   8    8.61    1.42
   5   1  -9    2.12    0.63
   5   1  -8    1.97    0.58
  -5   1   7   67.60    3.06
  -5  -1   7   70.51    3.15
  -5  -1   6   41.49    2.01
  -5   1   5  140.29    5.63
   5  -1  -5  148.57    5.18
  -5  -1   5  143.53    5.67
   5   1  -4   66.14    2.72
  -5   1   4   74.83    2.93
   5  -1  -4   72.28    2.67
  -5  -1   4   74.37    2.94
   5   1  -3  250.48    9.31
  -5   1   3  269.06   10.10
  -5  -1   3  275.92   10.12
   5  -1  -3  274.64    9.27
   5   1  -2   97.26    3.76
  -5   1   2  104.53    4.04
   5  -1  -2  112.34    3.72
  -5  -1   2  103.32    4.04
  -5   1   1  244.90    9.03
   5   1  -1  222.18    8.29
   5  -1  -1  236.63    8.25
  -5  -1   1  253.23    9.02
   5   1   0   65.90    2.25
  -5   1   0   61.92    2.50
   5  -1   0   58.07    2.19
  -5  -1   0   57.21    2.43
  -5   1  -1   76.47    2.98
   5  -1   1   71.20    2.80
  -5   1  -2    1.02    0.32
   5   1   2    1.13    0.37
   5  -1   2    0.92    0.33
   5   1   3   17.49    1.08
  -5   1  -3   16.38    1.04
   5  -1   3   15.97    1.17
   5   1   4    0.21    0.42
  -5   1  -4    0.61    0.36
   5  -1   4    1.26    0.52
   5   1   5   55.39    2.54
  -5   1  -5   54.53    2.56
   5  -1   5   54.78    2.65
  -5  -1  -5   58.87    2.55
   5   1   6   34.41    1.95
  -5   1  -6   33.96    1.89
   5  -1   6   34.85    1.95
   5   1   7   43.91    2.24
  -5   1  -7   43.40    2.28
   5  -1   7   42.79    2.42
   5   1   8   10.62    1.17
  -5   1  -8    6.47    1.08
   5  -1   8    8.86    1.22
   5   2  -9   51.82    2.86
   5   2  -8    8.41    1.08
  -5  -2   6   14.99    1.10
   5  -2  -5   23.35    1.09
  -5  -2   5   22.22    1.25
   5  -2  -4    7.69    0.63
  -5  -2   4    7.22    0.69
   5   2  -3   12.33    0.76
  -5  -2   3   11.18    0.76
   5   2  -2   28.35    1.21
  -5   2   2   27.90    1.19
   5   2  -1  117.09    3.99
  -5   2   1  105.78    3.95
   5   2   0   12.97    0.72
  -5   2  -1  461.85   16.71
   5   2   1  423.64   15.95
   5   2   1  455.45   15.27
   5  -2   1  439.36   15.92
   5   2   2   73.14    2.98
  -5   2  -2   77.23    3.08
   5  -2   2   76.52    2.95
   5   2   3  247.32    9.63
  -5   2  -3  269.09   10.02
   5  -2   3  269.26    9.62
  -5   2  -4   16.59    1.12
   5   2   4   17.77    1.27
   5  -2   4   15.31    1.19
  -5   2  -5   93.96    4.06
   5   2   5  100.05    4.03
   5  -2   5   96.51    4.12
  -5   2  -6   15.74    1.31
   5   2   6   17.19    1.45
   5  -2   6   16.11    1.57
   5   2   7   22.03    1.73
  -5   2  -7   20.92    1.53
   5  -2   7   23.12    1.60
  -5   2  -8    0.33    0.52
   5   2   8    1.50    0.59
   5  -2   8    0.44    0.79
   5  -3  -6   78.01    2.98
  -5  -3   6   75.69    3.37
  -5  -3   5    0.23    0.40
  -5   3   4  320.01   11.12
  -5   3   3    6.23    0.59
   5   3  -3    7.62    0.60
  -5   3   2  282.61    9.96
   5   3  -2  291.04    9.97
  -5   3   1    1.95    0.33
   5   3  -1    2.18    0.34
   5   3   0  216.55    7.43
  -5   3   0  213.74    7.40
  -5  -3   0  206.55    7.73
   5   3   1    2.91    0.38
  -5  -3  -1    2.70    0.40
   5  -3   1    3.30    0.52
   5   3   2   13.21    0.90
  -5   3  -2   11.68    0.85
   5   3   2   14.67    0.78
   5  -3   2   12.35    0.87
   5   3   3    0.02    0.40
  -5   3  -3    0.37    0.34
   5  -3   3    0.57    0.39
   5   3   4   12.86    1.13
  -5   3  -4   14.98    1.11
   5  -3   4   14.01    1.14
  -5   3  -5   -0.46    0.41
   5   3   5   -0.51    0.44
   5  -3   5   -0.06    0.51
   5   3   6   45.53    2.41
  -5   3  -6   53.53    2.49
   5  -3   6   53.12    2.76
  -5   3  -7    0.21    0.46
   5   3   7    1.28    0.63
   5  -3   7   -0.36    0.69
  -5   4   6   17.89    1.05
  -5   4   5    7.36    0.71
   5   4  -4    0.87    0.36
  -5   4   4    1.26    0.35
  -5   4   3    3.90    0.61
   5   4  -3    5.22    0.64
   5   4  -2   34.72    1.50
  -5   4   2   33.68    1.49
  -5   4   1  108.47    3.87
   5   4  -1  100.37    3.86
  -5  -4   1  107.61    4.02
  -5   4   0   66.77    2.53
   5   4   0   67.01    2.56
   5  -4   0   66.69    2.62
  -5  -4   0   65.73    2.68
   5   4   1  259.66    8.99
   5  -4   1  247.51    9.35
  -5  -4  -1  263.06    9.40
   5   4   2  162.56    5.77
   5  -4   2  160.23    6.05
  -5  -4  -2  162.21    6.10
   5   4   3  199.21    6.91
   5   4   3  191.39    7.34
   5  -4   3  194.72    7.29
   5   4   4   74.55    3.32
  -5   4  -4   80.19    3.43
   5  -4   4   85.20    3.36
   5   4   5   58.02    2.72
   5  -4   5   62.62    2.82
  -5   4  -6   18.01    1.34
   5   4   6   15.40    1.31
   5  -4   6   17.51    1.44
   5   4   7    6.66    1.09
  -5   4  -7    8.06    1.14
   5  -4   7    6.11    1.11
  -5   5   6   11.52    0.88
  -5   5   5  108.52    4.07
   5   5  -4   11.37    0.88
  -5   5   4   11.14    0.92
   5   5  -3  251.56    8.92
  -5   5   3  247.07    8.95
  -5  -5   3  262.07    9.37
   5   5  -2   68.34    2.75
  -5   5   2   70.13    2.76
   5  -5  -2   69.86    2.80
  -5  -5   2   73.16    2.93
  -5   5   1  212.88    7.42
   5   5  -1  201.74    7.39
   5  -5  -1  204.89    7.65
  -5  -5   1  214.44    7.74
  -5   5   0    4.66    0.68
   5   5   0    5.12    0.71
   5  -5   0    5.60    0.70
  -5  -5   0    6.52    0.80
  -5   5  -1   50.23    2.07
   5   5   1   51.49    2.16
  -5  -5  -1   51.57    2.27
   5  -5   1   53.62    2.23
   5   5   2    1.60    0.43
   5  -5   2    2.81    0.50
  -5  -5  -2    2.79    0.55
   5   5   3   -0.05    0.33
   5  -5   3    0.09    0.41
  -5  -5  -3   -0.16    0.44
   5  -5   4    0.34    0.43
   5  -5   5   28.50    1.67
   5   5   6    2.37    0.76
   5  -5   6    1.87    0.79
   5   5   7   41.94    2.43
   5  -5   7   38.87    2.44
  -5   6   7    1.04    0.42
  -5   6   6   27.98    1.48
  -5   6   5    3.08    0.52
  -5   6   4    1.90    0.47
   5   6  -4    1.62    0.47
   5   6  -3    0.41    0.41
  -5   6   3    0.49    0.39
  -5  -6   3    0.45    0.56
   5  -6  -3    0.12    0.30
   5   6  -2   25.35    1.42
  -5   6   2   28.28    1.44
   5  -6  -2   27.50    1.37
  -5  -6   2   27.76    1.60
   5   6  -1    0.17    0.39
  -5   6   1    0.60    0.41
  -5  -6   1   -0.07    0.45
   5  -6  -1    0.26    0.34
  -5   6   0  189.71    6.74
   5   6   0  182.22    6.78
  -5  -6   0  186.04    7.09
   5  -6   0  193.46    7.04
   5   6   1    2.45    0.53
  -5  -6  -1    3.82    0.67
   5  -6   1    3.74    0.56
   5   6   2  191.89    6.94
  -5  -6  -2  197.72    7.32
   5  -6   2  188.31    7.25
   5   6   3    0.10    0.37
   5  -6   3    1.35    0.53
  -5  -6  -3    0.56    0.51
   5   6   4  146.18    5.38
  -5  -6  -4  148.44    5.80
   5  -6   4  144.21    5.76
  -5  -6  -5    4.20    0.72
   5  -6   5    3.80    0.78
  -5  -6  -6   32.54    1.98
   5  -6   6   33.62    2.08
  -5   7   7   10.09    0.99
  -5   7   6   35.60    1.77
  -5   7   5   66.25    2.81
   5   7  -4   62.56    2.59
  -5   7   4   61.43    2.65
   5   7  -3  100.57    3.86
  -5   7   3   98.90    3.91
  -5  -7   3  100.15    4.16
  -5   7   2   89.37    3.58
   5   7  -2   89.01    3.57
   5  -7  -2   90.89    3.67
  -5  -7   2   92.02    3.82
  -5   7   1   90.94    3.54
   5   7  -1   88.28    3.55
  -5  -7   1   90.34    3.74
   5  -7  -1   89.54    3.65
   5   7   0   42.53    1.98
  -5   7   0   40.25    1.92
  -5  -7   0   43.38    2.09
   5  -7   0   40.61    1.99
   5   7   1   24.46    1.39
  -5   7  -1   21.80    1.31
   5  -7   1   22.60    1.45
  -5  -7  -1   25.50    1.55
   5   7   2    4.69    0.66
  -5  -7  -2    5.54    0.82
   5  -7   2    4.06    0.70
   5   7   3    0.28    0.45
   5  -7   3    0.14    0.57
  -5  -7  -3   -0.41    0.59
   5   7   4    6.64    0.89
   5  -7   4    6.01    0.85
  -5  -7  -4    5.40    0.84
  -5  -7  -5   17.05    1.52
   5  -7   5   18.39    1.42
  -5   8   6    1.13    0.50
  -5   8   5   14.59    1.32
   5  -8  -5   17.91    1.40
  -5  -8   5   15.30    1.41
  -5   8   4    0.41    0.52
   5   8  -4    1.38    0.51
  -5  -8   4    1.98    0.70
  -5   8   3    0.14    0.56
   5   8  -3    0.40    0.49
  -5  -8   3    0.21    0.68
   5  -8  -3    0.05    0.44
  -5   8   2    3.54    0.65
   5   8  -2    2.15    0.59
   5  -8  -2    2.15    0.64
  -5  -8   2    2.92    0.81
  -5   8   1   48.35    2.24
   5   8  -1   45.70    2.27
   5  -8  -1   49.03    2.35
  -5  -8   1   50.21    2.50
   5   8   0    3.45    0.66
  -5   8   0    4.33    0.68
  -5  -8   0    3.56    0.85
   5  -8   0    3.89    0.65
  -5   8  -1   94.04    3.76
   5   8   1   95.03    3.87
   5  -8   1   96.29    4.03
  -5  -8  -1  102.61    4.15
   5   8   2   18.47    1.32
   5  -8   2   18.31    1.46
  -5  -8  -2   18.76    1.47
   5   8   3   97.95    4.01
  -5  -8  -3  104.50    4.36
   5  -8   3  101.83    4.27
   5   8   4    1.34    0.54
  -5  -8  -4    1.17    0.63
   5  -8   4    1.81    0.63
  -5  -9   5    1.63    0.69
  -5   9   4   95.90    3.96
   5  -9  -4  102.75    4.18
  -5  -9   4   92.03    4.28
  -5   9   3    6.65    0.90
   5   9  -3    5.83    0.84
  -5  -9   3    5.43    1.02
   5  -9  -3    6.39    0.84
   5   9  -2   94.85    4.01
  -5   9   2  103.61    4.09
   5  -9  -2  101.72    4.18
  -5  -9   2  100.48    4.40
  -5   9   1    5.19    0.75
   5   9  -1    3.37    0.70
  -5  -9   1    2.20    0.74
   5  -9  -1    3.26    0.79
   5   9   0   56.88    2.68
  -5   9   0   59.92    2.65
   5  -9   0   58.04    2.76
  -5  -9   0   59.22    2.83
   5   9   1    2.86    0.67
  -5   9  -1    1.16    0.56
  -5  -9  -1    1.94    0.70
   5  -9   1    1.33    0.66
   5   9   2    5.69    0.82
   5  -9   2    4.76    0.84
  -5  -9  -2    5.11    1.03
   5   9   3    0.99    0.58
  -5  -9  -3    0.01    0.65
   5  -9   3    1.43    0.70
   5   9   4   11.71    1.20
   5  10  -3    0.27    0.67
   5 -10  -3   -0.26    0.71
  -5 -10   3   -0.45    0.92
   5  10  -2   10.50    1.35
  -5  10   2   11.15    1.37
   5 -10  -2   11.18    1.38
  -5 -10   2    9.40    1.57
  -5  10   1   20.06    1.54
   5  10  -1   15.39    1.49
  -5 -10   1   17.14    1.72
   5 -10  -1   17.80    1.69
  -5  10   0   26.31    1.66
   5  10   0   23.86    1.69
  -5 -10   0   22.13    2.02
   5 -10   0   25.85    1.82
   5  10   1   30.09    1.90
   5 -10   1   30.34    1.83
  -5 -10  -1   28.49    2.13
   6   0  -9    0.63    0.51
  -6   0   7   -0.20    0.41
  -6   0   6    2.62    0.46
   6   0  -5   -0.04    0.40
  -6   0   5    0.06    0.32
   6   0  -4   78.54    2.99
  -6   0   4   75.24    3.14
  -6   0   3   -0.14    0.23
   6   0  -3   -0.31    0.29
  -6   0   2  314.88   11.77
   6   0  -2  310.44   10.87
   6   0  -1   -0.27    0.28
  -6   0   1   -0.18    0.24
  -6   0   0  647.80   24.32
   6   0   0  654.80   22.28
  -6   0  -1   -0.27    0.32
  -6   0  -2  387.29   14.69
   6   0   2  392.46   14.08
   6   0   3    0.13    0.39
  -6   0  -3    0.71    0.39
   6   0   4  170.21    6.52
  -6   0  -4  172.33    6.74
  -6   0  -5   -0.90    0.45
   6   0   6   14.15    1.24
   6   0   7   -0.39    0.62
  -6   0  -8    3.26    0.80
   6   0   8    3.04    0.96
   6   1  -9   26.20    1.75
   6  -1  -9   28.15    1.73
  -6   1   8   10.80    1.25
  -6  -1   7  101.37    4.27
  -6  -1   6   82.00    3.44
   6   1  -5  147.90    5.76
  -6   1   5  158.49    6.23
   6  -1  -5  169.00    5.75
  -6  -1   5  164.99    6.27
  -6   1   4   44.12    1.96
   6   1  -4   45.93    1.90
   6  -1  -4   44.14    1.82
  -6  -1   4   45.93    2.00
   6   1  -3  144.40    5.13
  -6   1   3  141.78    5.50
  -6  -1   3  141.54    5.51
   6  -1  -3  142.29    5.05
  -6   1   2   91.86    3.40
   6   1  -2   80.80    3.15
  -6  -1   2   87.29    3.37
   6  -1  -2   81.54    3.09
  -6   1   1   28.29    1.25
   6   1  -1   24.09    1.17
  -6  -1   1   27.38    1.23
   6  -1  -1   26.31    1.11
  -6   1   0    3.52    0.58
   6   1   0    3.32    0.51
   6  -1   0    3.51    0.39
  -6  -1   0    3.33    0.48
  -6   1  -1    0.65    0.33
   6   1   1   -0.05    0.20
  -6   1  -2   14.11    0.91
   6   1   2   13.34    0.94
   6  -1   2   13.62    0.95
  -6   1  -3   93.13    3.80
   6   1   3   92.57    3.69
   6  -1   3   92.95    3.75
  -6   1  -4   29.32    1.61
   6   1   4   29.01    1.62
   6  -1   4   32.04    1.78
   6   1   5  106.40    4.35
  -6   1  -5  106.74    4.49
   6  -1   5  107.71    4.38
   6   1   6   47.08    2.36
  -6   1  -6   44.40    2.35
   6  -1   6   47.99    2.42
  -6   1  -7   67.12    3.20
   6   1   7   67.06    3.06
   6  -1   7   69.62    3.25
  -6  -2   7   15.77    1.29
  -6  -2   6    0.81    0.44
   6  -2  -6    0.73    0.31
  -6  -2   5    3.48    0.53
   6  -2  -5    3.82    0.56
  -6   2   4    7.81    0.67
   6   2  -4    7.66    0.74
   6  -2  -4    8.00    0.61
  -6  -2   4    8.49    0.71
   6   2  -3  101.65    3.68
   6  -2  -3   97.60    3.62
   6   2  -2  150.04    5.35
   6  -2  -2  150.94    5.32
   6   2  -1  266.71    9.10
   6  -2  -1  256.43    9.06
  -6   2   0   61.47    2.66
   6   2   0   69.60    2.42
   6  -2   0   62.15    2.35
   6   2   1  333.80   11.25
  -6   2  -1  339.97   12.35
   6   2   1  303.10   11.75
  -6   2  -2  114.19    4.35
   6   2   2  102.54    4.16
   6  -2   2  109.83    4.15
   6   2   3  165.74    6.36
  -6   2  -3  170.46    6.58
   6  -2   3  168.24    6.34
   6   2   4   32.16    1.76
  -6   2  -4   32.73    1.68
   6  -2   4   29.25    1.76
   6   2   5   38.14    2.03
  -6   2  -5   34.17    1.96
   6  -2   5   36.92    2.04
  -6   2  -6    3.83    0.71
   6   2   6    4.84    0.85
   6  -2   6    2.68    0.95
  -6   2  -7   -0.22    0.55
   6   2   7    0.23    0.69
   6  -2   7   -0.49    0.56
   6   3  -8   59.48    2.88
  -6  -3   7    0.32    0.56
   6  -3  -7    0.49    0.34
   6  -3  -6  171.40    6.15
  -6  -3   6  170.32    6.78
   6  -3  -5    1.47    0.39
   6   3  -4  275.88    9.64
  -6   3   3   14.39    0.82
   6   3  -3   12.93    0.84
  -6   3   2  185.27    6.45
   6   3  -2  179.94    6.45
  -6   3   1    0.51    0.27
   6   3  -1    0.28    0.29
   6   3   0   11.86    0.76
  -6   3   0   10.37    0.68
   6   3   1    2.55    0.38
   6  -3   1    1.89    0.34
   6   3   2   18.29    0.94
   6   3   2   17.75    1.09
  -6   3  -2   16.99    1.07
   6  -3   2   16.53    0.99
  -6   3  -3    0.30    0.40
   6   3   3    0.26    0.43
   6  -3   3    0.08    0.36
   6   3   4  123.08    5.08
  -6   3  -4  134.82    5.26
   6  -3   4  131.33    5.12
  -6   3  -5   -0.26    0.47
   6   3   5   -0.85    0.47
   6  -3   5    0.18    0.56
   6   3   6  100.07    4.34
  -6   3  -6  103.65    4.51
   6  -3   6  108.61    4.56
  -6   3  -7    0.92    0.69
   6   3   7    1.03    0.68
   6  -3   7    0.46    0.88
   6  -4  -7   10.19    0.75
  -6   4   5    5.62    0.70
   6   4  -4    0.59    0.37
  -6   4   4    1.61    0.39
   6   4  -3   60.77    2.38
  -6   4   3   59.47    2.38
  -6   4   2   76.98    2.96
   6   4  -2   78.96    2.99
  -6   4   1  173.06    6.04
   6   4  -1  165.60    6.05
  -6   4   0   67.93    2.61
   6   4   0   65.64    2.65
  -6  -4   0   71.74    2.79
   6   4   1  209.68    7.47
  -6  -4  -1  215.38    7.84
   6  -4   1  209.93    7.78
   6   4   2  138.09    4.85
   6  -4   2  133.76    5.08
  -6  -4  -2  128.43    5.12
   6   4   3   99.37    4.14
   6  -4   3  106.04    4.07
   6   4   4   14.21    1.21
   6  -4   4   17.53    1.19
   6   4   5   13.00    1.21
   6  -4   5   15.84    1.45
  -6   4  -6    1.41    0.60
   6   4   6    1.90    0.64
   6  -4   6    2.08    0.77
  -6   4  -7   -0.50    0.62
   6   4   7    0.32    0.56
   6  -4   7   -0.55    0.70
  -6   5   6   25.89    1.38
  -6   5   5  129.97    4.82
   6   5  -4   50.21    2.10
  -6   5   4   49.17    2.11
  -6   5   3  156.86    5.69
   6   5  -3  155.85    5.68
  -6   5   2   20.10    1.13
   6   5  -2   19.07    1.15
   6   5  -1   50.43    2.14
  -6   5   1   51.64    2.12
   6   5   0    1.86    0.42
  -6   5   0    2.20    0.43
   6  -5   0    2.37    0.46
  -6  -5   0    2.09    0.51
   6   5   1    0.30    0.37
   6  -5   1    0.04    0.39
  -6  -5  -1    0.18    0.46
   6   5   2    5.86    0.78
  -6  -5  -2    6.91    1.04
   6  -5   2    6.72    0.89
   6   5   3   41.40    1.80
   6  -5   3   41.16    2.02
  -6  -5  -3   39.59    2.04
   6  -5   4    4.75    0.73
   6  -5   5   71.41    3.22
   6   5   6   23.85    1.85
   6  -5   6   25.99    1.82
  -6   5  -7   52.91    2.70
  -6   6   7    1.15    0.47
  -6   6   6    4.25    0.59
  -6   6   5    0.89    0.44
  -6   6   4   28.52    1.56
   6   6  -4   31.53    1.55
  -6   6   3    1.73    0.48
   6   6  -3    0.94    0.51
  -6  -6   3    1.86    0.62
  -6   6   2  102.99    3.94
   6   6  -2  100.34    3.93
  -6  -6   2  106.33    4.16
   6  -6  -2  103.57    4.04
  -6   6   1   13.21    1.00
   6   6  -1   11.68    1.01
  -6  -6   1   13.38    1.17
   6  -6  -1   12.46    1.00
  -6   6   0  275.35    9.67
   6   6   0  270.34    9.72
  -6  -6   0  279.15   10.16
   6  -6   0  271.76   10.07
   6   6   1    7.86    0.91
   6  -6   1    8.20    0.93
  -6  -6  -1    7.69    1.11
   6   6   2  156.64    5.84
   6  -6   2  160.24    6.12
  -6  -6  -2  161.93    6.21
   6   6   3    3.18    0.53
   6  -6   3    2.98    0.60
  -6  -6  -3    3.38    0.68
   6   6   4   73.00    2.95
   6  -6   4   74.57    3.19
  -6  -6  -4   72.48    3.32
   6  -6   5    5.06    0.77
  -6  -6  -5    4.18    0.78
  -6  -6  -6    3.25    0.78
   6  -6   6    3.81    0.90
  -6   7   7   33.22    1.74
  -6   7   6   32.19    1.72
  -6   7   5   56.92    2.51
   6   7  -4   26.88    1.51
  -6   7   4   26.49    1.56
   6   7  -3   54.57    2.39
  -6   7   3   52.29    2.37
  -6  -7   3   54.84    2.58
  -6   7   2   36.93    1.88
   6   7  -2   38.93    1.89
   6  -7  -2   40.02    1.91
  -6  -7   2   40.33    2.10
  -6   7   1   29.51    1.57
   6   7  -1   28.09    1.61
   6  -7  -1   26.98    1.58
  -6  -7   1   29.03    1.66
  -6   7   0    4.99    0.68
   6   7   0    6.63    0.92
   6  -7   0    6.16    0.91
  -6  -7   0    5.06    0.74
   6   7   1    0.63    0.50
  -6   7  -1    0.25    0.44
  -6  -7  -1    0.56    0.60
   6  -7   1    0.96    0.49
   6   7   2    9.47    1.01
  -6  -7  -2    8.81    1.27
   6  -7   2    8.65    0.98
   6   7   3   18.17    1.25
  -6  -7  -3   18.53    1.57
   6  -7   3   19.02    1.34
   6   7   4   18.81    1.20
  -6  -7  -4   14.48    1.44
   6  -7   4   16.61    1.45
  -6  -7  -5   39.77    2.30
   6  -7   5   38.34    2.20
  -6   8   6    0.07    0.51
  -6   8   5   -1.14    0.48
   6   8  -4    1.71    0.60
  -6   8   4    0.97    0.55
  -6  -8   4    0.89    0.68
   6   8  -3   39.55    2.01
  -6   8   3   38.51    1.97
  -6  -8   3   38.02    2.19
  -6   8   2   17.16    1.32
   6   8  -2   16.53    1.31
   6  -8  -2   17.67    1.21
  -6  -8   2   13.81    1.58
  -6   8   1  127.64    4.85
   6   8  -1  119.53    4.85
  -6  -8   1  126.96    5.16
   6  -8  -1  130.93    5.07
  -6   8   0    9.61    1.09
   6   8   0   10.69    1.14
  -6  -8   0   10.48    1.34
   6  -8   0   10.71    1.18
   6   8   1  129.15    5.08
  -6  -8  -1  136.82    5.41
   6  -8   1  132.74    5.27
   6   8   2   15.91    1.26
  -6  -8  -2   16.51    1.44
   6  -8   2   16.12    1.25
   6   8   3   77.37    3.33
   6  -8   3   78.07    3.55
  -6  -8  -3   86.10    3.70
   6   8   4    6.65    1.03
   6  -8   4    6.42    0.96
  -6  -8  -4    4.08    0.83
  -6   9   4   75.83    3.16
   6   9  -4   70.13    3.07
  -6  -9   4   66.82    3.37
  -6   9   3    8.57    1.15
   6   9  -3    7.66    1.17
   6  -9  -3   10.55    1.33
  -6  -9   3    6.41    1.08
  -6   9   2   36.42    1.97
   6   9  -2   34.45    1.95
   6  -9  -2   35.13    2.00
  -6  -9   2   31.76    2.23
  -6   9   1    1.21    0.66
   6   9  -1    1.91    0.68
   6  -9  -1    0.54    0.64
  -6  -9   1    2.34    0.78
   6   9   0    6.39    0.86
  -6   9   0    5.60    0.82
   6  -9   0    5.80    0.88
  -6  -9   0    4.85    0.91
   6   9   1    0.25    0.55
   6  -9   1    0.15    0.53
  -6  -9  -1    0.08    0.64
   6   9   2    5.79    0.84
   6  -9   2    7.16    1.05
  -6  -9  -2    6.86    1.14
   6   9   3    0.16    0.53
   6  -9   3    0.10    0.74
  -6  -9  -3    0.22    0.68
   6  10  -3    9.34    1.34
   6 -10  -3    9.74    1.15
  -6 -10   3    7.60    1.28
  -6  10   2   23.45    1.73
   6  10  -2   21.56    1.65
  -6 -10   2   18.33    2.01
   6 -10  -2   21.05    1.78
  -6  10   1   36.75    2.08
   6  10  -1   33.17    2.07
   6 -10  -1   39.17    2.10
  -6 -10   1   35.53    2.27
  -6  10   0   31.21    1.95
   6  10   0   34.16    1.97
   6 -10   0   32.80    2.19
  -6 -10   0   34.12    2.31
   6 -10   1   45.01    2.45
  -6 -10  -1   45.12    2.70
  -7   0   8    2.36    0.60
  -7   0   6    0.85    0.44
   7   0  -5   -0.42    0.44
  -7   0   5    0.28    0.33
  -7   0   4  198.30    7.81
   7   0  -4  208.36    7.30
  -7   0   3   -0.18    0.26
   7   0  -3   -0.02    0.34
   7   0  -2  428.33   15.35
  -7   0   2  460.33   16.70
  -7   0   1   -0.48    0.27
   7   0  -1    0.05    0.30
   7   0   0  492.68   16.77
  -7   0   0  482.84   18.30
  -7   0  -1   -0.29    0.33
   7   0   2  135.46    5.01
  -7   0  -2  129.66    5.23
   7   0   3   -0.49    0.43
  -7   0  -3   -0.29    0.40
  -7   0  -4   21.86    1.43
   7   0   4   22.69    1.45
   7   0   5   -0.25    0.51
  -7   0  -5   -0.47    0.45
   7   0   6    3.52    0.72
   7   0   7    1.07    0.72
  -7  -1   8   23.04    1.67
  -7   1   7   78.47    3.39
  -7  -1   7   80.09    3.48
  -7   1   6   37.89    1.90
   7  -1  -6   40.21    1.82
  -7  -1   6   38.29    1.92
   7   1  -5  130.75    4.86
  -7   1   5  129.19    5.22
   7  -1  -5  131.87    4.81
  -7  -1   5  135.01    5.23
   7   1  -4   46.17    1.96
  -7   1   4   44.97    2.02
  -7  -1   4   46.01    2.02
   7  -1  -4   44.46    1.85
   7   1  -3   61.90    2.35
  -7   1   3   58.77    2.46
  -7  -1   3   58.86    2.45
   7  -1  -3   55.67    2.25
   7   1  -2    3.62    0.45
  -7   1   2    4.71    0.57
  -7  -1   2    4.24    0.51
   7  -1  -2    3.44    0.49
   7   1  -1   26.38    1.24
  -7   1   1   26.45    1.31
  -7  -1   1   28.65    1.29
   7  -1  -1   28.00    1.17
   7   1   0    9.10    0.73
  -7   1   0   12.26    0.79
  -7  -1   0   11.50    0.73
   7  -1   0   11.51    0.70
  -7   1  -1   65.84    2.68
   7   1   1   58.84    2.32
  -7   1  -2   69.94    2.95
   7   1   2   69.38    2.82
  -7  -1  -2   70.67    2.93
  -7   1  -3  158.13    6.17
   7   1   3  159.44    5.93
   7  -1   3  150.71    5.98
  -7   1  -4   46.99    2.28
   7   1   4   47.72    2.23
   7  -1   4   45.66    2.31
   7   1   5  125.76    5.04
  -7   1  -5  127.84    5.22
   7  -1   5  125.63    5.07
   7   1   6   39.68    2.07
  -7   1  -6   41.15    2.12
   7  -1   6   36.67    2.17
  -7   1  -7   45.05    2.47
   7   1   7   50.37    2.41
   7  -1   7   50.33    2.57
  -7  -2   8    5.09    0.84
  -7  -2   7   -0.15    0.49
   7  -2  -6    1.23    0.39
  -7  -2   6    0.70    0.39
   7   2  -5   57.96    2.37
  -7   2   5   56.77    2.50
  -7  -2   5   59.10    2.55
   7  -2  -5   55.80    2.28
   7   2  -4   16.46    1.04
  -7  -2   4   15.16    1.03
   7  -2  -4   14.91    0.90
   7   2  -3  157.08    5.62
  -7  -2   3  155.54    6.03
   7  -2  -3  155.42    5.54
   7   2  -2  147.23    5.33
   7  -2  -2  149.90    5.27
  -7   2   1  245.32   10.61
   7   2  -1  302.13    9.78
   7  -2  -1  293.02    9.71
   7   2   0   58.72    2.16
  -7   2   0   54.49    2.36
   7  -2   0   53.74    2.08
  -7   2  -1  270.46   10.23
   7   2   1  263.33    9.27
   7   2   2   36.61    1.66
  -7   2  -2   34.27    1.70
   7  -2   2   33.81    1.62
   7   2   3   79.39    3.21
  -7   2  -3   76.98    3.30
   7  -2   3   76.45    3.20
  -7   2  -4    2.53    0.59
   7   2   4    2.38    0.69
   7  -2   4    1.26    0.72
  -7   2  -5    0.00    0.45
   7   2   5   -0.12    0.61
   7  -2   5    0.28    0.64
  -7   2  -6    2.12    0.54
   7   2   6    2.42    0.77
   7  -2   6    1.87    0.83
  -7   2  -7    4.99    0.76
   7   2   7    7.39    0.96
   7  -2   7    6.20    0.94
   7  -3  -7    0.58    0.35
   7  -3  -6  103.28    3.93
  -7  -3   6  106.43    4.35
   7  -3  -5    4.29    0.59
   7   3  -4  153.43    5.71
   7  -3  -4  163.91    5.72
   7   3  -3    8.46    0.76
   7   3  -2   20.99    1.09
   7   3  -1    0.59    0.35
   7   3   0   87.46    3.27
  -7   3  -1    6.36    0.82
   7   3   1    6.69    0.69
  -7   3  -2  112.13    4.46
   7   3   2  117.40    4.02
   7   3   2   99.16    4.26
   7  -3   2  111.15    4.23
  -7   3  -3    0.73    0.46
   7   3   3    0.33    0.50
   7  -3   3   -0.04    0.43
   7   3   4  210.91    8.16
  -7   3  -4  218.62    8.50
   7  -3   4  219.49    8.19
  -7   3  -5    2.52    0.59
   7   3   5    1.51    0.62
   7  -3   5    3.60    0.82
   7   3   6   93.27    4.02
  -7   3  -6   90.14    4.11
   7  -3   6   97.84    4.20
   7   3   7    0.38    0.66
  -7   3  -7   -1.07    0.49
   7  -3   7    0.27    0.90
   7   4  -8    0.03    0.55
   7  -4  -7    0.28    0.32
   7  -4  -6   14.55    1.01
   7   4  -5   27.78    1.40
  -7   4   4   24.90    1.30
   7   4  -4   26.27    1.34
   7   4  -3  113.21    4.20
  -7   4   3  113.28    4.19
   7   4  -2  127.99    4.66
  -7   4   2  126.25    4.64
   7   4  -1  228.53    8.06
  -7   4   1  227.11    8.02
   7   4   0   76.30    3.00
  -7   4   0   77.18    2.93
  -7  -4   0   79.87    3.11
   7   4   1  210.35    7.27
   7  -4   1  199.61    7.52
  -7  -4  -1  202.62    7.60
   7   4   2   52.23    2.05
   7  -4   2   48.92    2.17
  -7  -4  -2   46.18    2.24
   7   4   3   38.05    2.05
  -7   4  -3   40.82    2.05
   7  -4   3   43.60    1.98
   7   4   4    6.67    1.01
  -7   4  -4    5.91    0.93
   7  -4   4    6.92    1.02
   7   4   5    0.15    0.50
   7  -4   5    0.55    0.59
  -7   4  -6    0.91    0.63
   7   4   6    0.76    0.56
   7  -4   6    0.17    0.85
   7   4   7    3.34    0.81
   7  -4   7    5.13    1.11
   7  -5  -7   67.48    2.80
  -7   5   5   89.66    3.47
   7   5  -5   88.50    3.43
   7   5  -4   18.52    1.15
  -7   5   4   17.63    1.15
   7   5  -3   21.18    1.26
  -7   5   3   22.75    1.25
  -7   5   2    0.05    0.38
   7   5  -2    0.11    0.43
   7   5  -1   -0.15    0.39
  -7   5   1    0.07    0.38
  -7   5   0    2.76    0.50
   7   5   0    2.78    0.50
  -7  -5   0    3.51    0.57
   7   5   1   62.15    2.57
   7  -5   1   59.80    2.60
  -7  -5  -1   66.46    2.77
   7   5   2   43.14    1.92
  -7  -5  -2   43.57    2.17
   7  -5   2   42.28    1.98
   7   5   3  115.17    4.25
  -7  -5  -3  107.48    4.56
   7  -5   3  117.25    4.49
   7  -5   4   12.82    1.18
   7  -5   5   89.86    3.92
  -7   5  -6   18.15    1.62
   7   5   6   20.71    1.82
   7  -5   6   20.88    1.63
  -7   6   6    8.62    0.95
  -7   6   5    5.54    0.85
   7   6  -4  109.70    4.11
  -7   6   4  104.84    4.11
   7   6  -3    6.77    0.93
  -7   6   3    7.06    0.89
   7   6  -2  176.71    6.52
  -7   6   2  181.05    6.52
   7   6  -1    2.97    0.54
  -7   6   1    2.69    0.53
   7   6   0  230.51    8.33
  -7   6   0  225.47    8.25
   7  -6   0  229.12    8.59
  -7  -6   0  243.78    8.71
   7   6   1    1.24    0.52
  -7  -6  -1    0.74    0.63
   7  -6   1    0.83    0.44
   7   6   2   77.93    3.16
   7  -6   2   79.62    3.32
  -7  -6  -2   79.59    3.47
   7   6   3    0.19    0.37
   7  -6   3    0.13    0.55
  -7  -6  -3   -0.37    0.60
   7  -6   4    8.63    1.10
  -7  -6  -4    6.82    0.96
   7  -6   5    0.59    0.59
  -7  -6  -5   -0.39    0.64
   7  -6   6    1.32    0.92
  -7  -6  -6    0.28    0.76
  -7   7   6   23.07    1.42
   7   7  -5   28.24    1.56
  -7   7   5   27.30    1.61
  -7   7   4   13.93    1.15
   7   7  -4   13.56    1.15
   7   7  -3   30.56    1.67
  -7   7   3   30.65    1.68
   7   7  -2    3.77    0.67
  -7   7   2    3.09    0.64
  -7  -7   2    2.83    0.72
   7   7  -1    1.06    0.53
  -7   7   1    0.82    0.49
  -7  -7   1    0.97    0.58
   7  -7  -1    1.11    0.46
   7   7   0    0.81    0.56
  -7   7   0    0.32    0.43
  -7  -7   0    1.05    0.61
   7  -7   0    0.41    0.50
   7   7   1   18.10    1.29
   7  -7   1   18.82    1.31
  -7  -7  -1   17.14    1.40
   7   7   2   29.04    1.60
  -7  -7  -2   29.04    1.89
   7  -7   2   29.62    1.69
   7   7   3   49.34    2.34
  -7  -7  -3   54.22    2.71
   7  -7   3   53.84    2.50
   7   7   4   24.34    1.51
  -7  -7  -4   26.54    1.79
   7  -7   4   25.18    1.56
   7  -7   5   38.80    2.14
  -7  -7  -5   33.96    2.26
  -7   8   5   24.12    1.55
  -7   8   4    4.89    0.77
   7   8  -4    5.05    0.73
  -7   8   3  104.59    4.13
   7   8  -3  100.85    4.09
   7   8  -2   20.85    1.57
  -7   8   2   25.08    1.48
  -7  -8   2   19.07    1.73
  -7   8   1  116.21    4.60
   7   8  -1  117.35    4.68
   7  -8  -1  124.39    4.79
  -7  -8   1  121.57    4.94
   7   8   0    8.55    1.12
  -7   8   0    9.89    0.99
  -7  -8   0    7.71    1.27
   7  -8   0    7.67    1.12
   7   8   1   70.65    3.03
   7  -8   1   70.42    3.12
  -7  -8  -1   69.44    3.30
   7   8   2    4.44    0.76
   7  -8   2    7.15    1.05
  -7  -8  -2    4.59    0.85
   7   8   3   18.84    1.41
   7  -8   3   20.79    1.42
  -7  -8  -3   18.47    1.79
   7   8   4    0.41    0.50
   7  -8   4    0.47    0.68
  -7  -8  -4   -1.00    0.66
  -7   9   4   23.92    1.72
   7   9  -4   22.98    1.58
  -7   9   3    0.21    0.61
   7   9  -3    0.10    0.57
  -7  -9   3   -0.57    0.75
  -7   9   2    3.71    0.71
   7   9  -2    3.51    0.72
   7  -9  -2    4.83    0.82
  -7  -9   2    2.37    0.92
  -7   9   1   -0.29    0.55
   7   9  -1    0.36    0.64
  -7  -9   1   -0.01    0.78
   7  -9  -1    0.29    0.52
  -7   9   0    4.84    0.72
   7   9   0    4.87    0.81
  -7  -9   0    5.20    0.93
   7  -9   0    4.24    0.79
   7   9   1    1.83    0.68
   7  -9   1    2.10    0.71
  -7  -9  -1    2.10    0.71
   7   9   2   34.57    1.93
   7  -9   2   35.28    1.98
  -7  -9  -2   30.73    2.28
   7   9   3    2.99    0.75
   7  -9   3    2.17    0.65
  -7  -9  -3    2.87    0.92
   7 -10  -2   32.61    2.09
  -7 -10   2   30.00    2.38
  -7  10   1   38.31    2.06
  -7 -10   1   33.60    2.23
   7 -10  -1   39.86    2.21
  -7  10   0   27.92    1.72
  -7 -10   0   27.81    2.12
   7 -10   0   31.80    1.83
  -8   0   7    0.13    0.39
   8   0  -6   60.55    2.54
  -8   0   6   55.06    2.60
   8   0  -5    0.52    0.47
  -8   0   5   -0.07    0.38
   8   0  -4  326.01   11.28
  -8   0   4  314.70   12.16
  -8   0   3   -0.10    0.31
   8   0  -3   -0.23    0.40
   8   0  -2  195.19    7.08
  -8   0   2  203.96    7.67
  -8   0   1    0.06    0.29
   8   0  -1   -0.18    0.33
   8   0   0  123.12    4.42
  -8   0   0  122.79    4.84
  -8   0  -1    0.01    0.41
  -8   0  -2   45.23    2.12
  -8   0  -3   -0.07    0.40
   8   0   3    0.27    0.48
   8   0   4    6.17    0.96
  -8   0  -4    6.91    1.03
  -8   0  -5   -0.93    0.44
   8   0   5    0.61    0.50
   8   0   6   34.90    2.04
  -8   0  -6   37.08    2.14
   8   0   7    0.00    0.70
  -8   1   9   39.90    2.36
  -8  -1   8   14.13    1.29
  -8   1   7   34.78    1.82
  -8  -1   7   36.35    1.87
   8   1  -6   19.44    1.29
   8  -1  -6   22.59    1.31
  -8  -1   6   18.09    1.29
   8   1  -5    1.78    0.46
  -8   1   5    1.96    0.44
  -8  -1   5    1.20    0.47
   8  -1  -5    2.44    0.45
  -8   1   4   12.95    0.95
   8   1  -4   14.02    1.01
   8  -1  -4   13.93    0.89
  -8  -1   4   13.37    0.98
   8   1  -3    1.46    0.42
  -8   1   3    1.22    0.35
  -8  -1   3    1.09    0.36
   8  -1  -3    1.34    0.33
   8   1  -2   42.99    1.85
  -8   1   2   45.51    1.96
   8  -1  -2   41.28    1.78
  -8  -1   2   47.09    1.98
   8   1  -1   26.53    1.21
  -8   1   1   21.66    1.24
   8  -1  -1   25.11    1.17
  -8  -1   1   24.89    1.23
   8   1   0    4.52    0.64
  -8   1   0    5.81    0.64
   8  -1   0    5.99    0.68
  -8  -1   0    5.18    0.58
  -8   1  -1  177.40    6.67
   8   1   1  161.14    5.95
  -8   1  -2  117.79    4.81
   8   1   2  120.67    4.55
  -8   1  -3  211.61    8.13
   8   1   3  208.42    7.76
   8  -1   3  204.13    7.81
   8   1   4   34.20    1.82
  -8   1  -4   34.86    1.90
   8  -1   4   34.19    1.82
   8   1   5  113.56    4.63
  -8   1  -5  117.83    4.88
   8  -1   5  113.91    4.70
   8   1   6   21.74    1.42
   8  -1   6   21.67    1.71
  -8   1  -7   21.68    1.78
   8   1   7   21.19    1.51
   8  -1   7   20.79    1.55
  -8  -2   8    0.30    0.51
  -8  -2   7   48.72    2.38
   8  -2  -7   47.03    2.12
  -8   2   6   23.94    1.38
  -8  -2   6   25.38    1.52
   8  -2  -6   23.80    1.28
  -8   2   5   93.69    3.69
   8   2  -5   80.05    3.44
   8  -2  -5   89.17    3.39
  -8  -2   5   93.15    3.70
  -8   2   4   26.54    1.41
   8   2  -4   26.45    1.44
   8  -2  -4   27.70    1.30
  -8  -2   4   29.15    1.44
   8   2  -3  140.64    5.51
  -8  -2   3  158.67    5.93
   8  -2  -3  157.35    5.45
  -8   2   2   54.26    2.22
   8   2  -2   48.16    2.09
   8  -2  -2   49.95    1.99
   8   2  -1  215.15    7.22
  -8   2   1  189.59    7.84
   8  -2  -1  207.08    7.14
  -8   2   0   10.93    0.80
   8   2   0   10.70    0.76
   8  -2   0    8.94    0.65
   8   2   1   81.36    2.97
  -8   2  -1   76.98    3.36
   8   2   2    6.01    0.84
  -8   2  -2    6.00    0.84
   8  -2   2    5.47    0.75
  -8   2  -3    0.19    0.43
   8   2   3    0.39    0.47
   8  -2   3    0.30    0.52
  -8   2  -4    0.28    0.47
   8   2   4   -0.52    0.56
   8  -2   4   -0.87    0.57
   8   2   5   18.07    1.55
  -8   2  -5   17.80    1.46
   8  -2   5   19.32    1.67
  -8   2  -6    8.70    1.33
   8   2   6   10.91    1.31
   8  -2   6    8.51    1.23
  -8   2  -7   40.23    2.39
   8   2   7   36.61    2.06
   8  -2   7   41.44    2.37
  -8  -3   8   70.54    3.38
   8  -3  -7    9.56    0.96
  -8  -3   6   65.50    2.86
   8  -3  -6   63.29    2.61
   8   3  -5    0.99    0.37
   8  -3  -5    1.82    0.38
   8   3  -4   13.56    0.91
   8  -3  -4   10.65    0.82
   8   3  -3    0.45    0.39
   8  -3  -3    0.71    0.34
   8   3  -2   25.55    1.31
   8  -3  -2   27.30    1.26
   8   3  -1    6.77    0.74
   8  -3  -1    5.70    0.60
   8   3   0  129.34    4.57
   8  -3   0  120.62    4.46
   8   3   1    4.64    0.66
  -8   3  -1    2.55    0.56
   8   3   2  157.57    5.72
   8   3   2  160.83    6.07
  -8   3  -2  159.98    6.35
   8  -3   2  160.73    6.00
   8   3   3    0.59    0.52
  -8   3  -3    0.09    0.42
   8  -3   3    0.23    0.53
  -8   3  -4  175.25    6.96
   8   3   4  173.05    6.67
   8  -3   4  170.84    6.71
   8   3   5   -0.01    0.57
  -8   3  -5    0.01    0.50
   8  -3   5    0.04    0.76
   8   3   6   47.64    2.49
   8  -3   6   48.16    2.71
   8   3   7    0.39    0.73
   8  -3   7   -0.89    0.65
   8  -4  -7   24.84    1.38
   8  -4  -6   28.43    1.40
   8   4  -5   67.28    2.72
   8  -4  -5   66.96    2.74
   8   4  -4   67.15    2.72
   8   4  -3  102.67    3.90
   8   4  -2  121.26    4.55
  -8   4   2  124.77    4.54
   8   4  -1  138.70    5.06
  -8   4   1  136.61    5.01
   8   4   0   51.43    2.17
   8   4   1   78.88    2.91
  -8  -4  -1   68.39    3.06
   8   4   2   11.24    0.87
  -8  -4  -2    8.76    1.11
   8  -4   2    8.10    0.84
   8   4   3    1.41    0.64
   8  -4   3    0.33    0.44
   8   4   4    2.37    0.63
   8  -4   4    3.52    0.74
  -8   4  -5   14.62    1.34
   8   4   5   15.83    1.29
   8  -4   5   15.43    1.46
  -8   4  -6   20.16    1.58
   8   4   6   18.79    1.50
   8  -4   6   19.49    1.95
   8  -5  -7   57.58    2.44
   8  -5  -6   10.28    1.03
   8   5  -5   25.50    1.44
  -8   5   4   -0.22    0.38
   8   5  -4    0.39    0.46
  -8   5   3    0.22    0.43
   8   5  -3    0.21    0.45
  -8   5   2    1.38    0.47
   8   5  -2    1.15    0.48
  -8   5   1   58.29    2.39
   8   5  -1   57.56    2.44
  -8   5   0    9.60    0.87
   8   5   0   10.42    0.97
  -8  -5   0    9.27    1.03
   8   5   1  157.69    5.71
  -8  -5  -1  154.08    6.01
   8   5   2   14.28    1.07
   8  -5   2   15.17    1.13
  -8  -5  -2   11.81    1.33
   8   5   3  125.02    4.57
   8  -5   3  127.14    4.84
  -8  -5  -3  114.12    4.88
   8  -5   4   10.34    1.10
   8  -5   5   69.81    3.32
   8   5   6    5.48    1.04
   8  -5   6    3.65    0.92
   8  -6  -7   -0.45    0.46
   8   6  -5    6.78    0.92
  -8   6   5    5.95    0.88
  -8   6   4  160.02    5.87
   8   6  -4  156.70    5.85
   8   6  -3   16.04    1.20
  -8   6   3   15.29    1.17
   8   6  -2  163.99    6.14
  -8   6   2  169.43    6.11
  -8   6   1    7.36    0.88
   8   6  -1    7.71    0.99
  -8   6   0  106.39    4.05
   8   6   0  107.84    4.15
  -8  -6   0  108.43    4.32
   8   6   1   -0.17    0.43
   8  -6   1   -0.12    0.38
  -8  -6  -1   -0.01    0.58
   8   6   2   14.96    1.12
   8  -6   2   14.43    1.11
  -8  -6  -2   13.97    1.47
   8   6   3    0.66    0.44
   8  -6   3    0.57    0.46
  -8  -6  -3    0.78    0.71
  -8  -6  -4    3.45    0.86
   8  -6   5   -1.05    0.64
  -8  -6  -5   -0.74    0.63
  -8   7   6   14.93    1.28
  -8   7   5   15.31    1.23
   8   7  -4    5.35    0.76
  -8   7   4    5.58    0.73
  -8   7   3    0.05    0.46
   8   7  -3    0.28    0.54
   8   7  -2   11.09    1.17
  -8   7   2   10.51    1.09
   8   7  -1   16.44    1.32
  -8   7   1   17.02    1.24
  -8   7   0   29.55    1.55
   8   7   0   28.10    1.69
  -8  -7   0   30.92    1.81
   8   7   1   58.96    2.62
  -8  -7  -1   59.57    2.77
   8  -7   1   58.68    2.60
   8   7   2   87.90    3.52
   8  -7   2   89.96    3.65
  -8  -7  -2   81.07    3.77
   8   7   3   69.10    2.98
   8  -7   3   73.27    3.21
  -8  -7  -3   69.48    3.37
   8  -7   4   35.63    1.99
  -8  -7  -4   32.23    2.12
  -8   8   5   64.67    2.87
   8   8  -5   62.48    2.96
   8   8  -4    5.12    0.78
  -8   8   4    4.62    0.78
   8   8  -3  123.89    4.97
  -8   8   3  133.87    5.01
  -8   8   2   14.60    1.31
   8   8  -2   15.24    1.38
   8   8  -1   93.22    3.85
  -8   8   1   91.51    3.72
  -8  -8   1   92.45    3.98
   8   8   0    3.05    0.70
  -8   8   0    3.18    0.68
   8  -8   0    4.11    0.65
  -8  -8   0    3.59    0.78
   8   8   1   21.15    1.52
   8  -8   1   20.41    1.37
  -8  -8  -1   21.59    1.78
   8   8   2   -0.04    0.52
  -8  -8  -2   -0.54    0.65
   8  -8   2    0.24    0.62
   8   8   3   -0.64    0.51
  -8  -8  -3    0.66    0.79
   8  -8   3   -0.55    0.57
   8  -8   4   -0.02    0.51
   8   9  -4    2.30    0.76
   8   9  -3   -0.12    0.65
   8   9  -2    1.77    0.72
  -8   9   2    1.14    0.71
  -8  -9   2    2.17    0.97
   8   9  -1    4.64    0.84
  -8   9   1    4.70    0.78
  -8  -9   1    2.97    0.97
   8   9   0   71.72    3.26
   8  -9   0   75.77    3.29
  -8  -9   0   73.98    3.49
   8   9   1    3.30    0.74
  -8  -9  -1    2.42    0.76
   8   9   2   58.40    2.77
  -8  -9  -2   57.86    3.14
   8  -9   2   61.69    2.92
   9   0  -6  254.20    8.83
  -9   0   6  234.56    9.46
   9   0  -5   -0.15    0.47
  -9   0   5   -0.57    0.32
  -9   0   4  339.79   13.04
   9   0  -4  346.55   12.06
  -9   0   3   -0.20    0.31
   9   0  -3   -0.30    0.41
  -9   0   2  114.58    4.60
   9   0  -2  115.82    4.27
   9   0  -1   -0.54    0.32
  -9   0   1    0.09    0.33
  -9   0   0    7.73    0.76
   9   0   0    8.18    0.72
  -9   0  -1   -0.18    0.38
  -9   0  -2   10.89    1.07
  -9   0  -3    0.29    0.49
   9   0   3   -0.20    0.43
   9   0   4   79.54    3.33
  -9   0  -4   78.67    3.49
   9   0   5    0.80    0.57
  -9   0  -6   57.80    2.92
   9   0   6   57.34    2.79
   9   0   7    1.35    0.82
  -9  -1   7   12.28    1.11
   9  -1  -7   10.57    1.38
  -9   1   6    5.74    0.81
   9   1  -6    5.50    0.75
  -9  -1   6    5.56    0.88
   9  -1  -6    4.10    0.70
  -9   1   5    0.30    0.36
   9   1  -5    0.73    0.44
   9  -1  -5   -0.16    0.43
  -9  -1   5    0.14    0.39
  -9   1   4   12.29    0.93
   9   1  -4   11.56    1.04
  -9  -1   4   11.83    0.99
   9  -1  -4   11.23    0.96
  -9   1   3   30.24    1.52
   9   1  -3   32.45    1.53
  -9  -1   3   32.28    1.56
   9  -1  -3   29.22    1.47
   9   1  -2   54.72    2.27
  -9   1   2   57.27    2.44
  -9  -1   2   58.02    2.44
   9  -1  -2   52.83    2.25
  -9   1   1  195.00    7.71
   9   1  -1  215.69    7.09
  -9  -1   1  177.82    7.67
   9  -1  -1  209.78    7.11
  -9   1   0   56.08    2.44
   9   1   0   54.55    2.24
  -9  -1   0   57.85    2.41
   9  -1   0   56.25    2.24
  -9   1  -1  146.79    6.19
  -9  -1  -1  165.37    6.14
   9   1   2   95.01    3.60
  -9   1  -2   87.04    3.85
   9  -1   2   90.04    3.62
  -9   1  -3  130.81    5.32
   9   1   3  129.67    4.99
   9  -1   3  127.46    5.03
   9   1   4   19.19    1.27
  -9   1  -4   18.20    1.42
   9  -1   4   16.45    1.33
   9   1   5   19.91    1.30
   9  -1   5   18.51    1.54
  -9   1  -6    5.00    0.88
   9   1   6    7.78    1.00
   9  -1   6    5.40    0.87
   9   1   7    0.04    0.65
  -9   1  -7    0.67    0.61
   9  -1   7    0.25    0.63
  -9  -2   8    7.03    1.19
  -9  -2   7   56.30    2.63
   9  -2  -7   55.86    2.52
   9   2  -6   66.75    2.88
   9  -2  -6   66.78    2.77
  -9  -2   6   72.70    3.07
   9   2  -5   98.24    4.03
  -9  -2   5  108.02    4.33
   9  -2  -5  108.26    3.97
   9   2  -4   71.93    2.99
  -9  -2   4   78.37    3.15
   9  -2  -4   72.39    2.89
   9   2  -3  161.85    6.01
  -9   2   3  168.60    6.45
   9  -2  -3  159.05    5.91
  -9  -2   3  171.52    6.45
   9   2  -2   19.51    1.20
  -9   2   2   21.84    1.24
   9  -2  -2   20.96    1.08
  -9   2   1   61.20    2.55
   9   2  -1   55.79    2.32
   9  -2  -1   57.66    2.26
  -9   2   0    0.08    0.33
   9   2   0   -0.21    0.32
   9  -2   0   -0.40    0.24
   9   2   1    0.16    0.34
  -9   2  -1    0.45    0.46
  -9   2  -2    6.74    1.01
   9  -2   2    6.72    0.88
  -9   2  -3   26.66    1.66
   9   2   3   27.41    1.47
   9  -2   3   25.93    1.61
   9   2   4    4.08    0.69
  -9   2  -4    5.09    0.74
   9  -2   4    3.98    0.81
   9   2   5   78.28    3.42
  -9   2  -5   77.45    3.65
   9  -2   5   81.78    3.56
   9   2   6   15.91    1.34
   9  -2   6   16.12    1.53
  -9  -3   8   46.25    2.45
   9  -3  -7    0.51    0.40
  -9  -3   7   -0.06    0.49
   9   3  -6   19.87    1.16
  -9  -3   6   20.43    1.42
   9  -3  -6   19.16    1.18
   9   3  -5   -0.39    0.34
   9  -3  -5   -0.38    0.32
  -9  -3   5   -0.15    0.35
   9   3  -4   59.83    2.47
   9  -3  -4   60.62    2.43
   9   3  -3    0.17    0.36
   9  -3  -3    0.04    0.30
   9   3  -2  117.56    4.44
   9  -3  -2  121.10    4.36
   9   3  -1    3.92    0.53
   9  -3  -1    5.49    0.59
   9   3   0  299.56    9.70
  -9   3   0  263.55   10.51
   9  -3   0  262.73    9.57
   9   3   1    0.37    0.35
  -9   3  -1   -0.12    0.47
   9   3   2  173.74    6.36
  -9   3  -2  164.89    6.70
   9  -3   2  163.33    6.30
   9   3   3    5.90    0.79
  -9   3  -3    3.90    0.74
   9  -3   3    7.19    0.90
  -9   3  -4   86.64    3.89
   9   3   4   90.26    3.75
   9  -3   4   89.03    3.87
   9   3   5    1.49    0.67
  -9   3  -5    1.63    0.74
   9  -3   5    0.75    0.70
   9   3   6   17.18    1.55
   9  -3   6   13.88    1.85
  -9  -4   8    3.22    0.79
   9  -4  -8    3.46    0.70
   9  -4  -7   35.02    1.72
   9   4  -6   35.30    1.71
   9  -4  -6   32.27    1.62
   9   4  -5   79.22    3.17
   9  -4  -5   80.26    3.14
   9   4  -4   28.26    1.49
   9  -4  -4   27.80    1.43
   9   4  -3  103.49    3.95
   9  -4  -3  101.64    3.88
   9   4  -2   44.44    2.00
   9   4  -1   48.98    2.12
   9  -4  -1   47.07    2.00
   9   4   0   29.62    1.47
   9  -4   0   25.78    1.29
   9   4   1    0.55    0.41
  -9   4  -2    3.25    0.65
  -9  -4  -2    2.88    0.70
   9  -4   2    4.98    0.81
   9   4   3   32.38    1.94
   9  -4   3   34.74    1.81
   9   4   4   19.33    1.45
  -9   4  -4   18.91    1.44
   9  -4   4   18.31    1.45
   9   4   5   45.57    2.34
   9  -4   5   48.20    2.62
   9   4   6   30.25    1.78
  -9   4  -6   25.41    2.06
   9  -4   6   25.19    1.97
   9  -5  -7    8.10    0.87
   9  -5  -6    0.04    0.30
   9   5  -5   -0.20    0.49
   9  -5  -5    0.30    0.45
   9   5  -4    1.68    0.57
   9   5  -3   32.53    1.73
  -9   5   3   34.93    1.69
  -9   5   2   93.78    3.60
   9   5  -2   91.02    3.62
   9   5  -1  148.08    5.54
  -9   5   1  150.04    5.48
   9   5   0   16.79    1.18
   9   5   1  141.13    4.87
  -9  -5  -1  117.42    5.06
   9   5   2   16.96    1.17
   9  -5   2   18.40    1.15
  -9  -5  -2   18.38    1.52
   9  -5   3  118.29    4.73
  -9  -5  -3  118.20    4.80
   9  -5   4   10.23    1.28
   9  -5   5   27.14    1.83
   9  -6  -7    1.77    0.44
   9  -6  -6   62.96    2.78
   9   6  -5    3.60    0.69
   9   6  -4  140.17    5.32
  -9   6   4  140.83    5.31
   9   6  -3    6.97    1.04
  -9   6   3    8.81    0.95
   9   6  -2   82.90    3.41
  -9   6   2   84.74    3.36
  -9   6   1    0.08    0.47
   9   6  -1    0.27    0.52
  -9   6   0   13.59    1.04
   9   6   0   12.70    1.15
  -9  -6   0   12.35    1.20
   9   6   1    0.88    0.51
  -9  -6  -1    0.42    0.64
   9  -6   1    0.90    0.48
   9   6   2    1.85    0.58
   9  -6   2    1.61    0.58
  -9  -6  -2    1.76    0.80
   9   6   3    1.05    0.49
  -9  -6  -3   -0.69    0.66
   9  -6   3    0.33    0.51
  -9  -6  -4   40.86    2.45
   9  -6   4   43.54    2.17
   9  -6   5    1.71    0.86
  -9  -6  -5    1.54    0.77
  -9   7   5   -0.04    0.58
   9   7  -5   -0.19    0.59
   9   7  -4    0.18    0.60
  -9   7   4   -0.22    0.49
  -9   7   3   17.01    1.30
   9   7  -3   15.61    1.37
  -9   7   2    9.11    1.09
   9   7  -2    9.54    1.14
  -9   7   1   39.22    1.93
   9   7  -1   39.90    2.04
   9   7   0   38.91    1.98
  -9   7   0   38.77    1.83
  -9  -7   0   35.71    2.09
   9   7   1   93.77    3.87
  -9  -7  -1   90.91    4.02
   9  -7   1  101.75    3.94
   9   7   2   74.21    3.03
   9  -7   2   75.88    3.10
  -9  -7  -2   60.42    3.20
   9   7   3   33.40    1.82
  -9  -7  -3   28.20    2.23
   9  -7   3   39.81    1.87
   9  -7   4   18.34    1.54
  -9  -7  -4   18.46    1.71
   9   8  -5   66.75    2.98
  -9   8   4   11.36    1.24
   9   8  -4   11.40    1.33
  -9   8   3   68.48    3.01
   9   8  -3   67.95    3.06
   9   8  -2    6.71    0.88
  -9   8   2    5.55    0.80
   9   8  -1   35.50    2.01
  -9   8   1   34.01    1.83
  -9   8   0   -0.47    0.50
   9   8   0   -0.45    0.61
  -9  -8   0    0.18    0.66
   9   8   1    1.94    0.68
  -9  -8  -1    1.43    0.86
   9   8   2   -0.21    0.50
  -9  -8  -2    0.09    0.74
   9  -8   2    0.27    0.50
   9   8   3    8.58    1.15
   9  -8   3    6.67    1.01
  -9  -8  -3    6.67    1.09
   9   9  -3    1.32    0.78
  -9   9   3    1.14    0.77
   9   9  -2   22.27    1.74
  -9   9   2   24.26    1.62
  -9   9   1    3.09    0.68
   9   9  -1    3.81    0.78
  -9  -9   1    3.04    1.05
  -9   9   0   66.91    2.83
   9   9   0   69.01    3.07
  -9  -9   0   57.82    3.18
   9   9   1    1.85    0.72
  -9  -9  -1    1.21    0.77
   9  -9   1    1.55    0.61
   9  -9   2   60.49    2.67
  -9  -9  -2   45.22    2.92
 -10   0   8   75.27    3.39
 -10   0   7   -0.15    0.47
  10   0  -7   -0.42    0.41
 -10   0   6  108.95    4.70
  10   0  -6  118.56    4.46
  10   0  -5    0.02    0.51
 -10   0   5   -0.33    0.38
 -10   0   4   94.17    3.90
  10   0  -4   94.93    3.71
 -10   0   3   -0.20    0.32
  10   0  -3    0.16    0.44
  10   0  -2   29.70    1.50
 -10   0   2   30.45    1.55
 -10   0   1   -0.30    0.34
  10   0  -1    0.21    0.38
 -10   0   0   21.87    1.19
  10   0   0   19.49    1.11
 -10   0  -1   -0.01    0.42
 -10   0  -2   70.99    3.19
  10   0   3   -0.69    0.42
 -10   0  -3   -0.39    0.49
  10   0   4  165.15    6.34
 -10   0  -4  162.29    6.70
 -10   0  -5   -0.20    0.52
  10   0   5   -0.15    0.60
 -10   0  -6  112.75    4.86
  10   0   6  105.70    4.58
 -10   1   8    4.24    0.67
 -10  -1   8    4.81    0.73
  10   1  -7    0.44    0.55
 -10   1   7    0.35    0.46
 -10  -1   7    0.81    0.59
  10  -1  -7    1.19    0.69
  10   1  -6    8.85    1.10
  10  -1  -6    8.55    1.27
 -10  -1   6    9.24    0.96
 -10   1   5    0.42    0.44
  10   1  -5    0.53    0.47
 -10  -1   5    0.71    0.42
  10  -1  -5    0.79    0.51
 -10   1   4   12.01    0.99
  10   1  -4   14.54    1.09
 -10  -1   4   12.49    1.04
  10  -1  -4   11.55    1.08
 -10   1   3  104.27    4.26
  10   1  -3  105.66    3.98
  10  -1  -3   98.69    3.99
 -10  -1   3  110.75    4.29
  10   1  -2   78.92    2.98
 -10   1   2   73.13    3.21
 -10  -1   2   78.20    3.21
  10  -1  -2   72.92    3.00
 -10   1   1  215.59    7.99
  10   1  -1  215.70    7.32
  10  -1  -1  209.22    7.35
 -10  -1   1  182.23    7.93
  10   1   0   66.36    2.65
 -10   1   0   67.68    2.90
 -10  -1   0   69.42    2.88
  10  -1   0   66.96    2.65
  10   1   1  216.39    8.20
 -10   1  -1  231.48    9.07
 -10  -1  -1  254.06    9.02
 -10   1  -2   27.75    1.69
  10   1   3   68.47    2.86
 -10   1  -3   66.98    3.12
  10  -1   3   65.47    2.91
 -10  -1  -3   70.58    3.15
  10   1   4   11.21    1.05
 -10   1  -4   10.99    1.37
  10  -1   4   13.50    1.25
 -10   1  -5   -0.40    0.55
  10   1   5   -0.68    0.41
  10  -1   5   -0.39    0.65
 -10   1  -6    0.32    0.69
  10   1   6    0.84    0.56
  10  -1   6    2.64    0.66
 -10  -2   8    7.44    1.28
  10   2  -7   46.92    2.32
 -10  -2   7   48.61    2.44
  10  -2  -7   49.22    2.33
 -10   2   6   28.26    1.64
  10   2  -6   27.33    1.64
 -10  -2   6   28.37    1.60
  10  -2  -6   25.41    1.48
 -10   2   5  107.67    4.52
  10   2  -5  113.84    4.29
 -10  -2   5  110.73    4.54
  10  -2  -5  108.60    4.16
  10   2  -4   17.38    1.24
 -10   2   4   15.92    1.14
 -10  -2   4   17.10    1.19
  10  -2  -4   16.17    1.01
 -10   2   3   83.08    3.37
  10   2  -3   80.74    3.19
 -10  -2   3   79.74    3.35
  10  -2  -3   75.28    3.05
 -10   2   2    1.08    0.45
  10   2  -2    0.15    0.44
  10  -2  -2    0.32    0.32
  10   2  -1    7.88    0.79
 -10   2   1    7.98    0.83
  10  -2  -1    7.84    0.70
 -10   2   0    0.36    0.40
  10   2   0    0.04    0.37
  10  -2   0   -0.16    0.37
 -10   2  -1   18.19    1.24
  10   2   1   16.78    1.06
 -10   2  -2   27.00    1.65
  10   2   3  136.28    5.17
 -10   2  -3  133.42    5.52
  10  -2   3  129.23    5.24
 -10   2  -4   26.63    1.83
  10   2   4   26.43    1.48
  10  -2   4   25.04    1.81
  10   2   5   85.20    3.59
 -10   2  -5   87.83    3.93
  10  -2   5   84.96    3.71
 -10   2  -6   23.28    1.94
  10   2   6   27.06    1.54
  10  -2   6   24.89    1.88
 -10  -3   8    4.09    0.80
  10  -3  -8    3.98    0.71
  10  -3  -7   -0.24    0.33
  10   3  -6    7.89    0.83
  10  -3  -6    8.09    0.94
  10   3  -5    2.24    0.48
  10  -3  -5    1.63    0.45
  10   3  -4   85.75    3.42
  10  -3  -4   89.13    3.36
  10   3  -3   14.34    1.05
  10  -3  -3   16.10    0.99
  10   3  -2  140.18    5.34
  10  -3  -2  149.97    5.26
  10   3  -1    5.54    0.80
  10  -3  -1    5.27    0.66
  10   3   0  235.81    8.17
 -10   3   0  231.52    8.88
  10  -3   0  221.34    8.06
 -10   3  -1   -0.04    0.46
  10   3   1    0.18    0.41
 -10   3  -2   84.75    3.73
 -10   3  -3    0.24    0.53
  10   3   3   -0.65    0.52
  10  -3   3    0.43    0.52
  10   3   4   31.18    1.78
 -10   3  -4   28.97    1.96
  10  -3   4   27.17    1.87
  10   3   5    0.14    0.62
 -10   3  -5   -0.76    0.56
  10  -3   5   -0.79    0.74
  10   3   6    0.73    0.72
 -10   3  -6    0.81    0.71
  10  -3   6    0.43    0.78
  10  -4  -8   16.57    1.12
  10  -4  -7   33.16    1.75
  10   4  -6   35.15    1.78
  10  -4  -6   34.35    1.70
  10   4  -5   61.56    2.60
  10  -4  -5   60.39    2.54
  10   4  -4   23.00    1.40
  10  -4  -4   24.96    1.29
  10   4  -3   94.43    3.67
  10  -4  -3   91.78    3.55
  10   4  -2   12.93    1.08
  10  -4  -2   10.08    0.83
  10   4  -1   17.30    1.21
  10  -4  -1   16.97    0.98
  10   4   0    0.76    0.46
  10  -4   0    0.79    0.36
  10   4   1   24.80    1.36
 -10   4  -2   31.37    1.92
  10   4   2   34.64    1.66
 -10  -4  -2   37.15    1.90
  10   4   3   90.84    3.83
  10  -4   3   87.93    3.76
 -10   4  -4   12.04    1.46
  10   4   4   15.00    1.38
  10  -4   4   14.88    1.36
 -10   4  -5   62.01    3.27
  10   4   5   69.43    3.05
  10  -4   5   65.67    3.35
  10   4   6   30.52    1.88
  10  -4   6   27.49    2.13
  10  -5  -7   -0.03    0.44
  10   5  -6    1.54    0.59
  10  -5  -6    0.45    0.38
  10   5  -5   23.90    1.49
  10  -5  -5   23.44    1.32
  10   5  -4   11.95    1.15
  10  -5  -4    9.40    1.07
  10   5  -3  123.73    4.76
  10  -5  -3  124.59    4.69
  10   5  -2   37.98    1.89
  10   5  -1  126.88    4.82
  10   5   0    7.06    0.96
  10  -5   0    6.44    0.74
  10   5   1  106.89    4.14
  10   5   2   26.93    1.55
 -10  -5  -2   32.38    1.92
 -10  -5  -3   42.93    2.21
  10  -5   3   39.35    2.06
  10  -5   4    1.16    0.77
  10  -5   5    0.52    0.76
  10   6  -6   71.92    3.14
  10  -6  -6   70.93    2.99
  10   6  -5    1.71    0.64
  10  -6  -5    3.20    0.70
  10   6  -4   62.36    2.77
  10   6  -3    5.58    0.82
  10   6  -2   14.64    1.26
 -10   6   2   14.59    1.22
 -10   6   1   13.56    1.15
  10   6  -1   12.28    1.23
  10   6   0    7.01    0.83
  10   6   1    0.10    0.48
  10   6   2   31.00    1.75
 -10  -6  -2   31.57    2.05
  10   6   3    0.82    0.49
  10  -6   3    0.48    0.59
 -10  -6  -3    0.50    0.76
  10  -6   4   77.73    3.55
 -10  -6  -4   80.58    3.73
  10  -6   5    0.19    0.77
  10   7  -5   12.72    1.35
  10   7  -4    9.65    1.23
 -10   7   4    9.23    1.20
 -10   7   3   25.71    1.64
  10   7  -3   26.25    1.71
 -10   7   2   59.99    2.63
  10   7  -2   59.01    2.74
 -10   7   1  102.53    4.01
  10   7  -1  102.20    4.12
 -10   7   0   50.79    2.29
  10   7   0   51.14    2.44
  10   7   1   55.38    2.62
  10   7   2   23.22    1.52
  10  -7   2   20.22    1.53
 -10  -7  -2   20.87    1.74
  10   7   3   17.31    1.31
 -10  -7  -3   19.28    1.90
  10  -7   3   15.52    1.38
 -10  -7  -4    3.17    0.93
  10  -7   4    3.61    0.71
  10   8  -5   39.54    2.15
 -10   8   4    3.23    0.75
  10   8  -4    4.14    0.82
 -10   8   3    5.19    0.77
  10   8  -3    6.98    0.96
  10   8  -2    0.57    0.68
 -10   8   2    0.75    0.60
  10   8  -1    1.41    0.69
 -10   8   1    0.90    0.60
  10   8   0    0.83    0.67
  10   8   1   17.78    1.46
 -10  -8  -1   12.50    1.71
  10   8   2    3.28    0.73
  10  -8   2    2.78    0.67
 -10  -8  -2    0.65    0.79
  10   8   3   23.26    1.64
 -10  -8  -3   24.20    2.05
  10  -8   3   22.99    1.53
 -10   9   2   59.17    2.75
 -10  -9  -1   -1.03    0.68
 -11   0   8   79.13    3.56
 -11   0   7    0.66    0.52
  11   0  -7   -0.85    0.46
  11   0  -6   52.40    2.37
 -11   0   6   49.16    2.49
 -11   0   5    0.18    0.49
  11   0  -4    3.39    0.63
 -11   0   4    3.42    0.56
 -11   0   3    0.28    0.35
  11   0  -3   -0.03    0.48
  11   0  -2    5.26    0.80
 -11   0   2    3.86    0.59
 -11   0   1    0.18    0.40
  11   0  -1   -0.19    0.38
 -11   0   0   49.50    2.23
  11   0   0   48.81    2.05
 -11   0  -1   -0.11    0.39
 -11   0  -2   30.03    1.80
 -11   0  -3   -0.37    0.55
  11   0   4  167.51    6.50
 -11   0  -4  169.93    6.95
 -11   0  -5   -0.01    0.73
  11   0   5   -0.02    0.64
 -11   0  -6   58.11    3.03
  11   0   6   49.39    2.66
 -11  -1   8    0.33    0.49
  11   1  -7   10.58    1.25
 -11  -1   7   10.59    1.18
  11  -1  -7   10.43    1.35
  11   1  -6   23.52    1.56
 -11   1   6   26.09    1.63
  11  -1  -6   26.27    1.71
 -11  -1   6   25.57    1.66
 -11   1   5   85.85    3.69
  11   1  -5   90.82    3.49
  11  -1  -5   81.75    3.55
 -11  -1   5   85.80    3.68
 -11   1   4   22.10    1.42
  11   1  -4   23.57    1.36
  11  -1  -4   19.80    1.40
 -11  -1   4   19.88    1.31
 -11   1   3  133.56    5.32
  11   1  -3  133.51    4.92
  11  -1  -3  121.44    4.94
 -11  -1   3  138.56    5.32
  11   1  -2   76.24    2.82
 -11   1   2   58.36    2.98
 -11  -1   2   71.47    3.02
  11  -1  -2   70.55    2.85
 -11   1   1  158.35    6.18
  11   1  -1  163.18    5.70
 -11  -1   1  152.11    6.17
  11  -1  -1  150.86    5.68
  11   1   0   10.87    0.93
 -11   1   0   11.54    0.94
 -11  -1   0   11.65    1.01
  11  -1   0   12.10    0.92
 -11   1  -1   57.66    2.69
 -11  -1  -1   62.42    2.64
 -11   1  -2   11.41    1.31
 -11   1  -3   -0.56    0.59
  11   1   3    0.21    0.47
  11  -1   3    0.32    0.57
  11   1   4   -0.23    0.49
 -11   1  -4    0.01    0.58
  11  -1   4   -0.83    0.57
  11   1   5    3.29    0.67
 -11   1  -5    2.52    0.90
  11  -1   5    4.54    0.73
  11   1   6    8.64    1.08
 -11   1  -6    7.56    1.10
  11  -1   6   10.41    1.28
 -11  -2   8   14.85    1.32
  11  -2  -8   13.84    1.68
  11   2  -7   47.28    2.39
  11  -2  -7   46.71    2.42
 -11  -2   7   51.72    2.53
  11   2  -6    7.01    0.88
  11  -2  -6    8.25    1.08
 -11  -2   6    9.03    0.97
 -11   2   5   29.90    1.72
  11   2  -5   33.14    1.76
  11  -2  -5   29.53    1.61
 -11  -2   5   29.77    1.67
 -11   2   4   -0.18    0.46
  11   2  -4   -0.07    0.51
  11  -2  -4   -0.15    0.37
 -11  -2   4   -0.44    0.43
  11   2  -3    0.99    0.51
 -11   2   3    1.12    0.50
  11  -2  -3    0.98    0.41
 -11  -2   3    1.07    0.48
  11   2  -2    5.04    0.64
 -11   2   2    3.52    0.64
  11  -2  -2    5.04    0.77
 -11   2   1   23.91    1.32
  11   2  -1   21.99    1.21
  11  -2  -1   22.13    1.25
 -11  -2   1   18.21    1.29
 -11   2   0    0.16    0.35
  11   2   0    0.19    0.41
  11  -2   0    0.65    0.49
 -11   2  -1  102.76    4.15
  11   2   1   94.83    3.72
 -11   2  -2    8.14    1.24
  11   2   3  138.93    5.19
 -11   2  -3  125.79    5.57
  11  -2   3  132.05    5.26
  11   2   4   14.27    1.12
  11  -2   4   14.11    1.23
  11   2   5   52.73    2.42
 -11   2  -5   51.16    2.90
  11  -2   5   53.19    2.64
  11   2   6   14.96    1.27
  11  -2   6   16.98    1.70
  11  -3  -8    6.46    0.88
  11   3  -7   -0.33    0.41
 -11  -3   7   -0.04    0.52
  11  -3  -7    0.64    0.46
  11   3  -6   41.11    1.99
  11  -3  -6   44.60    1.97
  11   3  -5    3.31    0.55
  11  -3  -5    3.32    0.62
  11   3  -4  112.64    4.47
  11  -3  -4  122.78    4.45
  11   3  -3    0.70    0.41
  11  -3  -3    0.40    0.41
  11   3  -2  105.22    4.19
  11  -3  -2  114.55    4.12
  11   3  -1    0.60    0.44
 -11   3   1   -0.15    0.38
  11  -3  -1    0.52    0.38
 -11   3   0   60.38    2.61
  11   3   0   57.00    2.45
  11   3   1    2.08    0.50
 -11   3  -1    0.67    0.50
 -11   3  -2   37.54    2.15
  11   3   3    0.59    0.49
 -11   3  -3    0.60    0.69
  11  -3   3    1.20    0.69
 -11   3  -4   -0.68    0.54
  11   3   4   -0.52    0.53
  11  -3   4   -0.85    0.58
 -11   3  -5   -0.54    0.80
  11   3   5   -1.07    0.60
  11  -3   5   -0.16    0.86
  11  -3   6   12.17    1.44
  11  -4  -7   22.18    1.43
  11   4  -6   17.59    1.30
  11  -4  -6   18.02    1.24
  11   4  -5   20.65    1.35
  11  -4  -5   18.74    1.22
  11   4  -4   16.51    1.26
  11  -4  -4   17.73    1.19
  11   4  -3    1.75    0.58
  11  -4  -3    1.74    0.48
  11   4  -2    4.66    0.69
  11  -4  -2    3.94    0.55
  11   4  -1   24.87    1.42
  11  -4  -1   21.30    1.23
  11   4   0   32.77    1.66
  11  -4   0   30.85    1.47
 -11   4  -1   63.68    3.11
  11   4   1   79.97    2.96
  11   4   2   61.75    2.59
 -11   4  -3   75.15    3.64
  11  -4   3   81.91    3.41
  11   4   4   43.02    2.32
 -11   4  -4   40.05    2.46
  11  -4   4   46.81    2.51
 -11   4  -5   45.99    2.85
  11   4   5   53.98    2.53
  11  -4   5   48.70    2.66
  11  -5  -7    7.73    0.95
  11   5  -6   15.36    1.34
  11  -5  -6   12.96    1.19
  11   5  -5   66.79    2.89
  11  -5  -5   66.24    2.78
  11   5  -4   12.15    1.19
  11  -5  -4   10.93    0.95
  11   5  -3  106.13    4.25
  11  -5  -3  109.84    4.14
  11   5  -2    0.68    0.57
  11  -5  -2   -0.15    0.35
  11   5  -1  124.43    4.71
  11  -5  -1  119.40    4.52
  11   5   0    6.29    0.99
  11  -5   0    6.33    0.71
  11   5   1   48.52    2.26
  11   5   2    3.25    0.60
  11  -5   3    0.13    0.62
 -11  -5  -3    1.00    0.64
 -11  -5  -4    4.09    0.94
  11  -5   4    4.06    0.73
  11  -5   5    5.07    1.16
  11   6  -6   40.43    2.13
  11  -6  -6   37.96    1.91
  11   6  -5    1.47    0.65
  11  -6  -5    0.50    0.45
  11   6  -4    8.12    1.18
  11  -6  -4    9.17    1.10
  11   6  -3   -0.87    0.55
  11  -6  -3    0.36    0.55
  11   6  -2    0.69    0.62
  11  -6  -2    1.52    0.58
  11   6  -1    0.31    0.61
  11  -6  -1    0.49    0.51
  11   6   0   52.84    2.49
  11  -6   0   52.83    2.23
  11   6   1    1.71    0.59
  11   6   2   75.35    3.28
 -11  -6  -2   82.52    3.63
 -11  -6  -3   -0.59    0.76
  11  -6   3    2.30    0.57
  11  -6   4   76.83    3.67
 -11  -6  -4   83.56    3.84
  11   7  -5   18.59    1.58
  11  -7  -5   19.92    1.55
  11   7  -4   32.67    1.97
  11   7  -3   72.41    3.24
  11   7  -2  106.60    4.36
  11   7  -1   52.74    2.55
  11   7   0   37.71    2.07
  11   7   1   16.94    1.46
  11   7   2    3.33    0.69
 -11  -7  -2    1.87    0.88
  11  -7   3    1.60    0.70
 -11  -7  -3    0.87    1.00
  11   8  -4   -1.34    0.63
 -11   8   3    0.27    0.70
  11   8  -3    0.59    0.71
  11   8  -2    0.87    0.74
 -11   8   2    0.48    0.66
  11   8  -1   13.17    1.39
 -11   8   1   11.72    1.30
  11   8   0   -0.60    0.65
  11   8   1   36.52    2.10
  11   8   2    4.71    0.85
 -11  -8  -2    3.79    0.96
 -12   0   8   35.08    2.31
 -12   0   7    0.23    0.43
  12   0  -7   -0.73    0.49
  12   0  -6   16.12    1.25
 -12   0   6   16.46    1.35
 -12   0   5    0.61    0.52
  12   0  -5   -0.73    0.48
  12   0  -4   18.57    1.28
 -12   0   4   19.30    1.36
  12   0  -3   -0.91    0.43
 -12   0   3    0.25    0.39
 -12   0   2   47.63    2.27
 -12   0   1    0.00    0.43
  12   0  -1    0.17    0.44
 -12   0   0  153.12    5.85
  12   0   0  139.95    5.31
 -12   0  -1   -0.48    0.35
 -12   0  -2  131.69    5.42
 -12   0  -3   -1.27    0.62
  12   0   5    0.38    0.64
  12   0   6    8.03    1.09
 -12   1   8    6.18    0.91
  12  -1  -8    5.28    0.88
  12   1  -7   31.82    1.89
 -12  -1   7   32.29    1.87
  12  -1  -7   31.35    1.99
  12   1  -6   29.47    1.71
 -12   1   6   27.30    1.71
  12  -1  -6   28.96    1.80
 -12  -1   6   29.18    1.83
 -12   1   5   97.98    4.18
  12   1  -5   99.55    3.91
  12  -1  -5   97.36    3.97
 -12  -1   5   97.45    4.18
  12   1  -4   50.61    2.28
 -12   1   4   52.12    2.48
 -12  -1   4   50.79    2.40
  12  -1  -4   48.40    2.34
  12   1  -3  137.85    5.21
 -12   1   3  140.53    5.69
  12  -1  -3  134.31    5.25
 -12  -1   3  147.04    5.66
  12   1  -2   19.90    1.23
 -12   1   2   15.93    1.28
 -12  -1   2   17.59    1.27
  12  -1  -2   19.65    1.29
 -12   1   1   58.28    2.71
  12   1  -1   64.91    2.55
 -12  -1   1   59.96    2.69
  12  -1  -1   59.68    2.52
  12   1   0   12.58    1.03
 -12   1   0   15.70    1.06
 -12  -1   0   15.44    1.12
  12  -1   0   15.57    1.00
 -12   1  -1    4.43    0.60
 -12   1  -2    0.32    0.52
 -12   1  -4   10.39    1.53
  12   1   4    9.01    1.27
  12   1   5   29.61    1.98
 -12   1  -5   32.00    2.16
  12  -1   5   32.88    1.87
  12   1   6   12.13    1.66
  12  -1   6   14.05    1.52
 -12   2   8   12.00    1.42
  12  -2  -8   12.29    1.58
  12   2  -7   18.67    1.60
 -12  -2   7   19.40    1.50
  12  -2  -7   18.28    1.68
  12   2  -6    0.76    0.64
  12  -2  -6    0.47    0.63
 -12  -2   6    0.37    0.58
  12   2  -5    4.12    0.74
 -12   2   5    2.91    0.64
  12  -2  -5    2.96    0.64
  12   2  -4    0.74    0.58
 -12   2   4    0.40    0.51
  12  -2  -4   -0.44    0.49
  12   2  -3   21.53    1.39
 -12   2   3   20.10    1.46
  12  -2  -3   20.01    1.31
  12   2  -2   26.69    1.44
 -12   2   2   20.10    1.53
  12  -2  -2   25.62    1.44
 -12   2   1  118.26    4.83
  12   2  -1  119.70    4.45
  12  -2  -1  117.37    4.51
  12   2   0   17.08    1.11
 -12   2   0   17.43    1.15
  12  -2   0   17.70    1.20
  12   2   1  120.59    4.48
 -12   2  -1  120.08    4.90
 -12   2  -2   28.57    1.82
 -12   2  -3   50.79    2.66
  12   2   4   15.07    1.27
 -12   2  -4   16.15    1.74
  12  -2   4   13.92    1.32
 -12   2  -5   25.79    1.98
  12   2   5   25.00    1.61
  12  -2   5   25.93    1.87
  12   3  -7   -0.04    0.49
  12  -3  -7    1.85    0.63
  12   3  -6   67.67    2.99
  12  -3  -6   75.51    3.02
  12   3  -5   -0.09    0.42
 -12  -3   5   -0.35    0.45
  12   3  -4  154.73    5.74
  12  -3  -4  152.79    5.67
 -12   3   3    0.40    0.54
  12   3  -3    0.44    0.43
  12  -3  -3    0.60    0.40
  12   3  -2   73.52    3.03
  12  -3  -2   73.88    2.91
  12   3  -1    3.34    0.59
 -12   3   1    2.93    0.52
  12  -3  -1    3.41    0.49
  12   3   0   26.19    1.46
 -12   3  -1    1.52    0.45
  12   3   1    0.15    0.48
 -12   3  -2    0.05    0.50
 -12   3  -3    4.40    0.86
  12   3   4   42.71    2.16
  12  -3   4   41.59    2.40
  12   3   5    1.59    0.64
  12  -3   5    0.68    0.61
  12   4  -7   18.69    1.50
  12  -4  -7   18.09    1.18
  12   4  -6    2.40    0.63
  12  -4  -6    2.28    0.62
  12   4  -5    2.93    0.63
  12  -4  -5    3.37    0.62
  12   4  -4   -0.16    0.51
  12  -4  -4   -0.35    0.41
  12   4  -3   14.98    1.27
  12  -4  -3   14.25    1.09
  12   4  -2   23.76    1.56
  12  -4  -2   26.64    1.38
  12   4  -1   87.89    3.57
  12  -4  -1   90.58    3.47
  12   4   0   19.94    1.34
  12   4   1   89.65    3.57
 -12   4  -3   29.88    2.04
  12   4   4   18.21    1.66
 -12   4  -4   16.37    1.86
  12   4   5    4.54    0.85
  12  -4   5    4.23    1.03
  12   5  -6   29.36    1.81
  12  -5  -6   27.82    1.62
  12   5  -5   65.90    2.95
  12  -5  -5   67.10    2.85
  12   5  -4    8.84    1.18
  12  -5  -4    8.27    1.02
  12   5  -3   76.13    3.24
  12  -5  -3   75.87    3.08
  12   5  -2   18.46    1.44
  12  -5  -2   18.50    1.19
  12   5  -1   53.42    2.45
  12  -5  -1   51.16    2.25
  12   5   0    3.17    0.69
  12   5   1    2.60    0.66
  12   5   2    1.41    0.55
  12  -5   4   -0.69    0.71
 -12  -5  -4    0.31    0.69
  12   6  -6    4.49    0.82
  12   6  -5    1.54    0.70
  12  -6  -5    1.35    0.48
  12   6  -4    2.47    0.73
  12  -6  -4    3.01    0.56
  12   6  -3    0.77    0.66
  12  -6  -3   -0.72    0.39
  12   6  -2   25.25    1.74
  12  -6  -2   28.91    1.47
  12   6  -1    0.23    0.58
  12  -6  -1    0.88    0.38
  12   6   0   93.96    3.89
  12   6   1    1.38    0.58
  12   6   2   71.97    3.12
 -12  -6  -3    2.99    0.81
 -12  -6  -4   51.63    3.00
  12   7  -5   36.02    2.13
  12   7  -4   26.10    1.84
  12  -7  -4   28.58    1.67
  12   7  -3   58.96    2.86
  12  -7  -3   59.79    2.71
  12   7  -2   25.68    1.84
  12  -7  -2   24.56    1.56
  12   7  -1   12.44    1.41
  12  -7  -1   12.32    1.11
  12   7   0    9.10    1.33
  12   7   1    2.24    0.71
  12   7   2    1.04    0.66
 -12  -7  -3    7.78    1.22
  12   8  -2    1.95    0.84
  12   8  -1   24.44    1.82
  12   8   0    2.45    0.87
  13   0  -8    1.55    0.74
 -13   0   7   -0.48    0.48
  13   0  -7    0.43    0.59
 -13   0   6    2.29    0.61
  13   0  -6    3.00    0.61
 -13   0   5    0.03    0.54
  13   0  -4   50.22    2.26
 -13   0   4   48.63    2.46
 -13   0   3   -0.27    0.44
 -13   0   2   67.09    3.15
  13   0  -2   76.36    2.95
  13   0  -1    0.36    0.43
 -13   0   1   -0.43    0.42
 -13   0   0  185.73    7.22
  13   0   0  179.93    6.59
 -13   0  -1   -0.58    0.44
 -13   0  -2  122.59    5.09
 -13   0  -3   -0.19    0.61
 -13   0  -4   22.22    1.83
  13   0   5    0.44    0.47
 -13   1   7   55.76    2.77
  13   1  -7   55.94    2.65
 -13  -1   7   51.14    2.64
  13  -1  -7   53.96    2.66
 -13   1   6   27.50    1.75
  13   1  -6   30.80    1.78
 -13  -1   6   29.34    1.82
  13  -1  -6   27.92    1.82
 -13   1   5   80.77    3.61
  13   1  -5   83.09    3.37
  13  -1  -5   79.42    3.40
 -13  -1   5   80.47    3.61
  13   1  -4   15.45    1.29
 -13   1   4   18.31    1.42
  13  -1  -4   17.45    1.39
 -13  -1   4   17.74    1.34
  13   1  -3   83.52    3.24
 -13   1   3   76.53    3.55
  13  -1  -3   79.88    3.27
 -13  -1   3   77.84    3.45
 -13   1   2    4.77    0.70
  13   1  -2    4.69    0.70
  13  -1  -2    4.81    0.70
 -13  -1   2    4.65    0.68
  13   1  -1    3.29    0.59
 -13   1   1    3.75    0.60
 -13  -1   1    3.57    0.56
  13  -1  -1    2.58    0.56
 -13   1   0    1.60    0.49
  13   1   0    1.19    0.48
  13  -1   0    1.44    0.48
 -13  -1   0    2.00    0.49
 -13   1  -1    6.83    0.89
 -13  -1  -1    6.46    0.80
 -13   1  -2   21.93    1.53
 -13   1  -3   29.68    2.05
 -13   1  -4   11.72    1.48
 -13   1  -5   51.94    3.07
  13   1   5   48.54    2.53
  13  -1   5   51.34    2.54
  13   2  -7    0.37    0.77
 -13  -2   7    1.81    0.60
  13  -2  -7    1.32    0.78
  13   2  -6    2.48    0.72
  13  -2  -6    1.96    0.81
  13   2  -5    9.87    1.23
  13  -2  -5    7.69    0.93
 -13  -2   5    8.87    1.15
 -13   2   4    2.12    0.64
  13   2  -4    2.34    0.64
 -13  -2   4    2.39    0.58
  13  -2  -4    1.16    0.64
 -13   2   3   60.26    3.02
  13   2  -3   67.11    2.81
  13  -2  -3   67.23    2.85
  13   2  -2   22.36    1.32
 -13   2   2   19.10    1.47
  13  -2  -2   19.20    1.42
 -13  -2   2   15.97    1.41
 -13   2   1  127.94    5.25
  13   2  -1  128.96    4.82
  13  -2  -1  130.08    4.89
 -13   2   0   24.65    1.50
  13   2   0   27.84    1.41
  13  -2   0   27.54    1.47
 -13   2  -1   68.61    3.04
 -13   2  -2   33.51    1.95
 -13   2  -3   35.82    2.31
 -13   2  -4    8.65    1.44
  13  -2   4    8.83    1.32
  13   2   5    1.91    0.69
  13  -2   5    1.11    0.73
  13   3  -7    0.09    0.50
  13  -3  -7   -0.07    0.61
  13   3  -6   61.43    2.64
  13  -3  -6   56.30    2.71
  13   3  -5    0.87    0.51
  13  -3  -5    0.70    0.49
  13   3  -4   50.46    2.26
  13  -3  -4   48.23    2.21
  13   3  -3   -0.20    0.45
  13  -3  -3    0.26    0.39
 -13   3   2   29.55    1.79
  13   3  -2   32.11    1.68
  13  -3  -2   29.26    1.58
 -13   3   1    1.89    0.49
  13   3  -1    1.89    0.54
  13  -3  -1    2.41    0.60
 -13   3   0   -0.14    0.35
  13   3   0    0.50    0.50
  13  -3   0   -0.56    0.52
  13   3   1   -0.76    0.47
 -13   3  -2   23.11    1.63
 -13   3  -3   -0.06    0.73
 -13   3  -4   77.42    3.90
  13  -3   4   83.79    3.63
  13   3   5    1.12    0.57
  13  -3   5    1.76    0.72
  13   4  -7    1.08    0.64
  13   4  -6    1.20    0.60
  13  -4  -6    0.85    0.45
  13   4  -5    2.61    0.66
  13  -4  -5    3.64    0.64
  13   4  -4    8.56    1.10
  13  -4  -4   10.08    1.08
  13   4  -3   42.21    2.16
  13  -4  -3   45.26    2.08
  13   4  -2   44.19    2.23
  13  -4  -2   46.49    2.07
  13   4  -1   73.12    3.20
  13  -4  -1   81.92    3.09
 -13   4   0   28.66    1.66
  13   4   0   29.97    1.70
  13  -4   0   32.75    1.55
  13   4   1   63.64    2.75
 -13   4  -2   13.97    1.37
 -13   4  -4    0.71    0.75
  13   5  -6    3.29    0.81
  13  -5  -6    3.03    0.74
  13   5  -5   45.41    2.47
  13  -5  -5   55.29    2.40
  13   5  -4    2.63    0.74
  13  -5  -4    3.21    0.63
  13   5  -3   28.30    1.84
  13  -5  -3   33.17    1.67
  13   5  -2    3.34    0.78
  13  -5  -2    1.52    0.53
  13   5  -1    0.02    0.56
  13  -5  -1    0.52    0.47
  13   5   0    1.72    0.64
  13   5   1    4.84    0.77
  13   5   2    2.07    0.64
  13   6  -5    1.45    0.74
  13  -6  -5    1.24    0.61
  13   6  -4   31.29    1.95
  13  -6  -4   30.36    1.75
  13   6  -3    0.05    0.64
  13  -6  -3    0.69    0.55
  13   6  -2   57.95    2.82
  13  -6  -2   59.62    2.57
  13   6  -1    0.86    0.65
  13  -6  -1    1.07    0.53
  13   6   0   89.26    3.78
  13   6   1    0.75    0.61
  13   6   2   39.48    2.09
  13   7  -3   16.29    1.60
  13  -7  -3   13.78    1.16
  13   7  -2    3.18    0.84
  13  -7  -2    3.26    0.58
  13   7  -1    2.60    0.82
  13  -7  -1    2.38    0.50
  13   7   0    0.91    0.75
  13   7   1    5.72    0.87
  13   7   2   12.38    1.42
 -14   0   7    0.59    0.71
  14   0  -7    0.26    0.67
 -14   0   6   14.47    1.33
  14   0  -6   16.88    1.38
 -14   0   5   -0.32    0.59
  14   0  -5   -0.41    0.50
  14   0  -4   85.75    3.48
 -14   0   4   85.15    3.82
 -14   0   3   -0.09    0.49
  14   0  -3   -0.23    0.48
 -14   0   2   82.98    3.67
  14   0  -2   85.17    3.36
 -14   0   1    0.11    0.38
  14   0  -1   -0.23    0.47
  14   0   0   95.64    3.80
 -14   0   0  101.28    4.14
 -14   0  -1   -0.76    0.36
 -14   0  -4    1.73    0.86
 -14   1   7   34.91    2.26
  14   1  -7   36.76    2.14
  14  -1  -7   36.77    1.99
 -14  -1   7   34.37    2.08
  14   1  -6   12.14    1.37
  14  -1  -6   15.37    1.47
 -14  -1   6   13.02    1.30
  14   1  -5   31.45    1.83
 -14   1   5   34.34    1.96
 -14  -1   5   34.25    1.99
  14  -1  -5   32.66    1.92
  14   1  -4    4.63    0.74
 -14   1   4    5.49    0.83
 -14  -1   4    4.98    0.79
  14  -1  -4    4.91    0.79
 -14   1   3   -0.12    0.56
  14   1  -3    0.67    0.51
  14  -1  -3   -0.29    0.55
 -14  -1   3    0.49    0.45
  14   1  -2   -0.18    0.55
 -14   1   2    0.79    0.48
 -14  -1   2    0.08    0.47
  14  -1  -2   -0.49    0.45
  14   1  -1   18.94    1.29
 -14   1   1   18.56    1.29
  14  -1  -1   17.01    1.17
 -14  -1   1   18.11    1.27
  14   1   0    5.17    0.64
 -14   1   0    6.80    0.96
 -14  -1   0    7.09    0.86
  14  -1   0    6.70    0.88
 -14   1  -1   37.37    1.96
 -14  -1  -1   37.80    1.87
 -14   1  -2   17.18    1.30
 -14   1  -3   39.06    2.25
 -14   1  -4   10.92    1.75
  14   2  -7    5.42    0.95
  14  -2  -7    5.89    0.96
  14   2  -6    9.09    1.33
 -14   2   6    5.10    0.81
  14  -2  -6    5.15    0.97
 -14  -2   6    4.94    0.86
  14   2  -5   48.87    2.42
  14  -2  -5   46.60    2.49
 -14  -2   5   49.25    2.53
  14   2  -4    5.44    0.80
 -14  -2   4    6.11    0.95
  14  -2  -4    5.71    0.86
  14   2  -3   88.07    3.47
 -14   2   3   72.15    3.75
  14  -2  -3   93.19    3.59
 -14   2   2   14.55    1.37
  14   2  -2   19.36    1.22
  14  -2  -2   17.64    1.35
 -14  -2   2   14.01    1.38
 -14   2   1   82.59    3.60
  14   2  -1   84.23    3.31
  14  -2  -1   81.39    3.35
  14   2   0   13.41    1.00
 -14   2   0   10.40    1.09
 -14   2  -1   33.44    1.84
 -14   2  -2    4.74    0.73
 -14   2  -3    3.44    0.77
 -14   2  -4    0.26    0.82
  14   3  -7    0.13    0.53
  14   3  -6   43.54    2.10
  14  -3  -6   40.88    2.29
  14   3  -5    0.51    0.46
  14  -3  -5    0.35    0.60
 -14   3   4   12.23    1.28
  14   3  -4   11.39    1.05
  14  -3  -4   13.92    1.27
  14   3  -3   -0.98    0.48
  14  -3  -3   -0.15    0.55
  14   3  -2    1.33    0.56
  14  -3  -2   -0.52    0.54
  14   3  -1    1.01    0.57
  14  -3  -1    0.11    0.61
  14   3   0   29.50    1.63
 -14   3  -1    0.86    0.49
  14   3   1   -0.10    0.52
 -14   3  -2   35.65    2.02
 -14   3  -3    1.34    0.71
  14   4  -6    7.23    0.93
  14  -4  -6    8.44    1.08
  14   4  -5   34.22    1.96
  14  -4  -5   37.31    1.87
  14   4  -4   26.18    1.65
  14  -4  -4   24.91    1.44
  14   4  -3   67.20    3.06
  14  -4  -3   73.66    2.94
  14   4  -2   45.90    2.30
  14  -4  -2   46.20    2.08
 -14   4   1   49.15    2.37
  14   4  -1   46.49    2.31
  14  -4  -1   50.75    2.24
  14   4   0   26.10    1.61
  14   4   1   13.71    1.28
  14   5  -5   20.55    1.70
  14  -5  -5   23.32    1.58
  14   5  -4    1.79    0.70
  14  -5  -4    2.98    0.74
  14   5  -3    1.70    0.69
  14  -5  -3    1.87    0.67
  14   5  -2   -0.65    0.64
  14  -5  -2    0.31    0.57
  14   5  -1    3.27    0.74
  14  -5  -1    4.72    0.63
  14   5   0    0.85    0.64
  14   5   1   30.55    1.83
  14   6  -4   51.48    2.70
  14  -6  -4   55.65    2.52
  14   6  -3    0.91    0.71
  14  -6  -3    0.29    0.51
  14   6  -2   61.48    3.02
  14  -6  -2   64.61    2.75
  14   6  -1    0.50    0.70
  14  -6  -1    1.81    0.62
  14   6   0   50.40    2.56
  14   6   1    3.76    0.77
  14  -7  -2    1.38    0.65
  14   7   0   10.17    1.44
  15   0  -6   58.18    2.74
  15   0  -5   -0.59    0.55
 -15   0   5   -0.43    0.55
  15   0  -4   97.99    3.92
 -15   0   4   97.48    4.32
  15   0  -3    0.04    0.52
 -15   0   3   -0.50    0.56
  15   0  -2   89.31    3.57
  15   0  -1   -1.02    0.49
 -15   0   0   37.38    1.93
  15   0   0   38.41    1.87
 -15   0  -1    0.27    0.36
 -15   0  -2    0.59    0.46
 -15   0  -3   -0.46    0.57
 -15   0  -4   19.27    1.74
 -15   1   6    0.96    0.72
  15   1  -6   -0.62    0.69
 -15  -1   6    1.53    0.59
  15  -1  -6    0.90    0.60
  15   1  -5    2.44    0.70
 -15   1   5    2.38    0.65
  15  -1  -5    0.74    0.62
 -15  -1   5    2.47    0.74
 -15   1   4    0.18    0.58
  15   1  -4   -1.27    0.58
 -15  -1   4    0.48    0.64
  15  -1  -4    0.74    0.58
 -15   1   3    7.91    1.34
  15   1  -3   10.69    1.19
  15  -1  -3    8.54    1.02
 -15   1   2   14.14    1.21
  15   1  -2   14.07    1.26
  15  -1  -2   14.36    1.12
 -15   1   1   43.51    2.16
  15   1  -1   42.25    2.06
  15  -1  -1   42.25    2.03
 -15  -1   1   45.24    2.22
 -15   1   0   14.45    1.16
  15   1   0   14.22    0.99
 -15  -1   0   14.51    1.14
 -15   1  -1   55.62    2.57
 -15   1  -2   25.60    1.59
 -15   1  -3   24.91    1.83
 -15   2   6   16.65    1.70
  15   2  -6   16.58    1.59
 -15  -2   6   15.39    1.51
  15  -2  -6   14.28    1.57
  15   2  -5   45.81    2.34
 -15   2   5   45.01    2.40
  15  -2  -5   43.20    2.36
  15   2  -4   15.79    1.39
 -15   2   4   14.63    1.43
  15  -2  -4   15.47    1.46
  15   2  -3   69.03    2.92
  15  -2  -3   70.20    2.98
 -15  -2   3   62.53    3.08
 -15   2   2   23.41    1.54
  15   2  -2   20.77    1.31
  15  -2  -2   21.06    1.50
  15   2  -1   31.00    1.64
 -15   2   1   30.35    1.73
  15  -2  -1   30.47    1.67
  15   2   0   10.70    1.01
 -15   2  -1    3.35    0.56
 -15   2  -2    0.66    0.46
 -15   2  -3    4.60    0.88
  15   3  -6   12.36    1.16
  15  -3  -6    8.89    1.29
  15   3  -5    0.45    0.46
  15  -3  -5   -0.38    0.73
  15   3  -4   -0.18    0.47
  15  -3  -4    1.57    0.72
  15   3  -3    0.14    0.50
  15  -3  -3   -0.83    0.63
  15   3  -2   18.40    1.31
  15  -3  -2   16.70    1.54
  15   3  -1   -0.33    0.52
  15  -3  -1    0.29    0.64
 -15   3   0   71.87    3.27
  15   3   0   74.81    3.08
 -15   3  -1    1.71    0.45
  15   3   1    1.57    0.59
 -15   3  -2   60.81    2.87
 -15   3  -3    1.00    0.74
  15   4  -5   34.66    2.00
  15  -4  -5   34.91    2.03
  15   4  -4   20.36    1.55
  15  -4  -4   18.34    1.46
  15   4  -3   42.85    2.24
  15  -4  -3   43.00    2.17
  15   4  -2   19.22    1.49
  15  -4  -2   17.40    1.41
  15   4  -1   21.42    1.47
  15  -4  -1   16.33    1.45
  15   4   0    7.25    1.13
  15   4   1    0.96    0.63
 -15   4  -2    0.05    0.45
  15   5  -4   -0.03    0.65
  15  -5  -4   -0.48    0.42
  15   5  -3    4.73    0.88
  15  -5  -3    3.62    0.61
  15   5  -2    2.33    0.79
  15  -5  -2    1.58    0.51
  15   5  -1   27.73    1.84
  15  -5  -1   30.47    1.63
  15   5   0    9.58    1.28
  15   5   1   43.75    2.28
  15  -6  -3    2.75    0.77
  15   6  -2   42.15    2.43
  15  -6  -2   42.95    2.16
  15   6  -1    1.72    0.76
  15   6   0   15.43    1.60
  15   6   1    1.06    0.69
  16   0  -6   58.94    2.87
  16   0  -5    0.26    0.61
 -16   0   5   -0.18    0.56
  16   0  -4   42.81    2.06
 -16   0   4   35.30    2.25
  16   0  -3   -0.38    0.53
 -16   0   3   -0.37    0.60
  16   0  -2   28.74    1.64
 -16   0   1   -0.09    0.42
 -16   0   0    0.16    0.41
  16   0   0    0.73    0.55
 -16   0  -1   -0.16    0.46
 -16   0  -2   15.75    1.29
 -16   1   5    2.16    0.64
  16   1  -5    2.47    0.74
  16  -1  -5    1.47    0.60
 -16  -1   5    2.05    0.75
  16   1  -4    2.70    0.76
  16  -1  -4    2.51    0.61
 -16  -1   4    1.04    0.74
  16   1  -3   29.95    1.77
 -16   1   3   27.75    1.99
  16  -1  -3   29.38    1.65
 -16   1   2   22.31    1.52
  16   1  -2   23.02    1.56
  16  -1  -2   24.02    1.47
 -16  -1   2   22.35    1.64
  16   1  -1   48.34    2.34
 -16   1   1   56.58    2.55
  16  -1  -1   53.30    2.36
 -16   1   0   20.17    1.33
  16   1   0   18.92    1.24
 -16  -1   0   21.34    1.41
 -16   1  -1   40.22    2.12
 -16  -1  -1   43.65    2.16
 -16   1  -2   15.41    1.38
  16   2  -5   58.23    2.81
 -16   2   5   57.60    2.95
  16  -2  -5   60.37    2.87
 -16  -2   5   63.37    3.07
 -16   2   4    6.98    0.94
  16  -2  -4    9.55    1.35
 -16   2   3   28.38    2.01
  16   2  -3   28.02    1.66
  16  -2  -3   32.03    1.85
  16   2  -2    1.76    0.50
  16  -2  -2    1.63    0.65
  16   2  -1    5.17    0.73
 -16   2   1    5.86    0.85
  16  -2  -1    4.21    0.63
  16   2   0    0.28    0.52
 -16   2   0   -0.56    0.35
 -16   2  -1    0.73    0.43
 -16   2  -2    8.18    1.15
 -16   3   5    0.55    0.52
  16   3  -5    0.98    0.58
  16  -3  -5   -0.96    0.88
  16   3  -4   27.02    1.66
  16  -3  -4   25.18    1.96
  16   3  -3    0.50    0.59
  16  -3  -3    0.24    0.78
  16   3  -2   45.95    2.24
 -16   3   2   47.65    2.37
  16  -3  -2   45.97    2.34
  16   3  -1    0.84    0.64
  16  -3  -1    0.41    0.65
  16   3   0   81.18    3.38
 -16   3   0   81.81    3.60
 -16   3  -1    0.44    0.41
 -16   3  -2   43.65    2.34
  16   4  -4   12.16    1.39
  16  -4  -4    9.68    1.40
  16   4  -3   26.36    1.83
  16  -4  -3   27.28    1.82
  16   4  -2    7.13    0.96
  16  -4  -2    4.85    0.90
  16   4  -1    4.13    0.77
 -16   4   1    4.96    0.82
  16  -4  -1    2.60    0.88
  16   4   0   -0.38    0.59
  16  -5  -3   21.59    1.54
  16   5  -2   10.41    1.46
  16  -5  -2   11.74    1.31
  16   5  -1   47.23    2.47
  16   5   0   10.44    1.37
 -17   0   5   -0.83    0.56
  17   0  -5   -1.08    0.61
  17   0  -4   21.55    1.53
 -17   0   3    0.07    0.57
  17   0  -3   -0.37    0.60
  17   0  -2    1.00    0.67
 -17   0   2    1.47    0.60
 -17   0   1    0.39    0.52
 -17   0   0   11.72    1.17
  17   1  -4    4.57    0.86
  17  -1  -4    7.60    1.08
 -17  -1   4    4.52    0.95
 -17   1   3   50.22    2.75
  17   1  -3   51.12    2.47
  17  -1  -3   48.59    2.39
 -17  -1   3   51.21    2.55
 -17   1   2   21.01    1.47
  17   1  -2   20.15    1.49
 -17  -1   2   20.88    1.67
  17  -1  -2   17.97    1.40
 -17   1   1   53.84    2.61
  17   1  -1   50.30    2.36
 -17  -1   1   62.82    2.79
  17  -1  -1   50.47    2.43
  17   1   0   11.94    1.19
 -17   1   0   13.99    1.17
 -17   1  -1   31.21    1.87
 -17   2   4    3.94    0.80
  17   2  -4    4.49    0.77
 -17  -2   4    2.77    0.76
  17  -2  -4    1.67    0.77
  17   2  -3    3.29    0.65
  17  -2  -3    2.36    0.69
  17   2  -2    0.45    0.50
 -17   2   2    0.02    0.46
  17  -2  -2   -1.02    0.46
 -17   2   1    0.65    0.43
  17   2  -1    0.65    0.55
  17  -2  -1    0.44    0.56
 -17   2   0   -0.48    0.43
  17   2   0   -0.78    0.56
 -17   2  -1   20.64    1.49
 -17   3   4   30.04    2.04
  17  -3  -4   36.08    2.18
 -17   3   3   -0.80    0.69
  17   3  -3   -0.09    0.53
  17  -3  -3   -0.74    0.71
  17   3  -2   47.96    2.38
 -17   3   2   51.35    2.51
  17  -3  -2   48.28    2.47
  17   3  -1    0.21    0.66
  17   3   0   43.15    2.18
  17  -4  -3    3.35    1.02
  17   4  -2    0.35    0.67
 -17   4   2    0.73    0.47
  17  -4  -2    1.19    0.87
  17   4  -1    1.32    0.76
 -17   4   1    2.08    0.52
  17   4   0    1.85    0.71
 -17   4   0    1.53    0.51
 -18   0   3   -0.32    0.55
  18   0  -3    0.57    0.69
  18   0  -2    6.38    0.88
 -18   0   2    5.72    0.85
 -18   0   1   -0.51    0.58
  18   0  -1   -0.67    0.61
  18   1  -3   29.50    1.86
 -18   1   3   31.30    2.08
  18  -1  -3   28.90    1.79
  18   1  -2    9.92    1.21
 -18   1   2   12.08    1.23
  18  -1  -2    9.96    1.22
 -18   1   1   16.44    1.39
  18   1  -1   16.12    1.17
  18  -1  -1   16.42    1.44
 -18  -1   1   18.34    1.42
 -18   1   0    4.71    0.83
  18   2  -3    0.29    0.52
  18  -2  -3    0.39    0.50
 -18  -2   3   -0.63    0.50
  18   2  -2    1.82    0.62
 -18   2   2    1.49    0.56
  18  -2  -2    0.95    0.62
  18   2  -1   20.67    1.43
 -18   2   1   22.57    1.57
  18  -3  -2   31.26    1.85
  18   3  -1    1.31    0.73
  19   0  -2   17.79    1.57
   0   0   0    0.00    0.00
;
_shelx_res_checksum              4660
_shelx_res_file
;
TITL dmt28 in P2(1)/c
CELL 0.71073  14.17410   8.20560   7.09840  90.0000 100.6048  90.0000
ZERR    4.00   0.00250   0.00140   0.00120   0.0000   0.0020   0.0000
LATT  1
SYMM -X, 0.5+Y, 0.5-Z
SFAC C H N O CS
UNIT 24 32 4 8 4
TEMP -113
SIZE 0.4 0.4 0.02
L.S. 8
ACTA
BOND $H
rem CONN CS1 8
EQIV $1 -x+1, y-1/2, -z+1/2
EQIV $2 -x+1, -y+1, -z+1
HTAB O2 O1_$1
HTAB O2 N1_$2
FMAP 2
PLAN 10
DFIX 0.84 0.01 O2 H2A O2 H2B
WGHT    0.066600    0.861000
EXTI    0.004448
FVAR       0.15151
CS1   5    0.422284    0.412479    0.210300    11.00000    0.02296    0.01205 =
         0.02007    0.00001    0.00314    0.00008
O1    4    0.372099    0.454048    0.634547    11.00000    0.02296    0.01282 =
         0.03539    0.00113    0.00937    0.00290
N1    3    0.263367    0.537131    0.817071    11.00000    0.02328    0.01302 =
         0.02511   -0.00150    0.00104   -0.00168
C1    1    0.284804    0.454502    0.664045    11.00000    0.02107    0.01092 =
         0.02308    0.00344    0.00302    0.00137
C2    1    0.210516    0.367289    0.540894    11.00000    0.03035    0.01889 =
         0.02174   -0.00410    0.00304   -0.00032
AFIX  43
H2    2    0.224921    0.307275    0.435287    11.00000   -1.20000
AFIX   0
C3    1    0.117222    0.370462    0.575941    11.00000    0.02646    0.02318 =
         0.02930    0.00307   -0.00199   -0.00099
AFIX  43
H3    2    0.067565    0.312671    0.494846    11.00000   -1.20000
AFIX   0
C4    1    0.097200    0.459809    0.732159    11.00000    0.02238    0.02148 =
         0.03604    0.00488    0.00632    0.00198
AFIX  43
H4    2    0.033698    0.465222    0.757178    11.00000   -1.20000
AFIX   0
C5    1    0.171070    0.539405    0.848425    11.00000    0.02842    0.01614 =
         0.02074    0.00173    0.00662    0.00064
C6    1    0.155347    0.637525    1.020175    11.00000    0.04290    0.04047 =
         0.04209   -0.01588    0.01894    0.00127
AFIX 137
H6A   2    0.196648    0.595251    1.135858    11.00000   -1.50000
H6B   2    0.087996    0.628925    1.033990    11.00000   -1.50000
H6C   2    0.171203    0.752021    1.002041    11.00000   -1.50000
AFIX   0
O2    4    0.586923    0.246063    0.033503    11.00000    0.02352    0.02000 =
         0.02488   -0.00632    0.00465   -0.00322
H2A   2    0.607129    0.159138   -0.007360    11.00000    0.05187
H2B   2    0.634431    0.302606    0.083941    11.00000    0.04020
HKLF 4
REM  dmt28 in P2(1)/c
REM R1 =  0.0365 for    1678 Fo > 4sig(Fo)  and  0.0417 for all    1911 data
REM    101 parameters refined using      2 restraints
END
WGHT      0.0692      0.4246
REM Highest difference peak  2.609,  deepest hole -1.826,  1-sigma level  0.208
Q1    1   0.3801  0.4159  0.2830  11.00000  0.05    2.61
Q2    1   0.4634  0.4141  0.1318  11.00000  0.05    2.35
Q3    1   0.4651  0.4137  0.3031  11.00000  0.05    1.53
Q4    1   0.3770  0.4140  0.1123  11.00000  0.05    1.34
Q5    1   0.3367  0.3988  0.1682  11.00000  0.05    0.88
Q6    1   0.4262  0.3368  0.3832  11.00000  0.05    0.68
Q7    1   0.3576  0.4331  0.3811  11.00000  0.05    0.63
Q8    1   0.5415  0.4435  0.1707  11.00000  0.05    0.63
Q9    1   0.6574  0.0194  0.1701  11.00000  0.05    0.61
Q10   1   0.3256  0.4978  0.6051  11.00000  0.05    0.59
;
_shelxl_version_number           20.13
#END Tags that were not found in dictionaries
loop_
_space_group_symop_operation_xyz
'x, y, z'
'-x, y+1/2, -z+1/2'
'-x, -y, -z'
'x, -y-1/2, z-1/2'
loop_
_atom_site_type_symbol
_atom_site_label
_atom_site_fract_x
_atom_site_fract_y
_atom_site_fract_z
_atom_site_U_iso_or_equiv
_atom_site_adp_type
_atom_site_calc_flag
_atom_site_occupancy
Cs Cs1 0.42228(2) 0.41248(3) 0.21030(4) 0.01846(15) Uani d 1
O O1 0.3721(2) 0.4540(4) 0.6345(5) 0.0232(7) Uani d 1
N N1 0.2634(3) 0.5371(4) 0.8171(6) 0.0209(7) Uani d 1
C C1 0.2848(3) 0.4545(5) 0.6640(6) 0.0185(8) Uani d 1
C C2 0.2105(4) 0.3673(5) 0.5409(7) 0.0239(9) Uani d 1
H H2 0.2249 0.3073 0.4353 0.029 Uiso calc 1
C C3 0.1172(4) 0.3705(6) 0.5759(7) 0.0272(10) Uani d 1
H H3 0.0676 0.3127 0.4948 0.033 Uiso calc 1
C C4 0.0972(3) 0.4598(6) 0.7322(7) 0.0265(9) Uani d 1
H H4 0.0337 0.4652 0.7572 0.032 Uiso calc 1
C C5 0.1711(3) 0.5394(5) 0.8484(6) 0.0215(9) Uani d 1
C C6 0.1553(4) 0.6375(8) 1.0202(9) 0.0404(13) Uani d 1
H H6A 0.1966 0.5953 1.1359 0.061 Uiso calc 1
H H6B 0.0880 0.6289 1.0340 0.061 Uiso calc 1
H H6C 0.1712 0.7520 1.0020 0.061 Uiso calc 1
O O2 0.5869(2) 0.2461(4) 0.0335(4) 0.0228(7) Uani d 1
H H2A 0.607(5) 0.159(5) -0.007(10) 0.052(19) Uiso d 1
H H2B 0.634(3) 0.303(6) 0.084(8) 0.040(18) Uiso d 1
loop_
_atom_site_aniso_label
_atom_site_aniso_U_11
_atom_site_aniso_U_22
_atom_site_aniso_U_33
_atom_site_aniso_U_12
_atom_site_aniso_U_13
_atom_site_aniso_U_23
Cs1 0.0230(2) 0.01205(19) 0.0201(2) 0.00008(8) 0.00314(12) 0.00001(8)
O1 0.0230(16) 0.0128(12) 0.0354(18) 0.0029(12) 0.0094(14) 0.0011(13)
N1 0.0233(19) 0.0130(15) 0.0251(19) -0.0017(14) 0.0010(15) -0.0015(14)
C1 0.021(2) 0.0109(15) 0.023(2) 0.0014(16) 0.0030(17) 0.0034(15)
C2 0.030(2) 0.0189(18) 0.022(2) -0.0003(18) 0.0030(18) -0.0041(17)
C3 0.026(2) 0.023(2) 0.029(2) -0.0010(19) -0.0020(19) 0.0031(19)
C4 0.022(2) 0.021(2) 0.036(3) 0.0020(18) 0.006(2) 0.005(2)
C5 0.028(2) 0.0161(18) 0.021(2) 0.0006(17) 0.0066(17) 0.0017(16)
C6 0.043(3) 0.040(3) 0.042(3) 0.001(3) 0.019(3) -0.016(3)
O2 0.0235(16) 0.0200(16) 0.0249(17) -0.0032(13) 0.0046(13) -0.0063(13)
loop_
_atom_type_symbol
_atom_type_description
_atom_type_scat_dispersion_real
_atom_type_scat_dispersion_imag
_atom_type_scat_source
C C 0.0033 0.0016 'International Tables Vol C Tables 4.2.6.8 and 6.1.1.4'
H H 0.0000 0.0000 'International Tables Vol C Tables 4.2.6.8 and 6.1.1.4'
N N 0.0061 0.0033 'International Tables Vol C Tables 4.2.6.8 and 6.1.1.4'
O O 0.0106 0.0060 'International Tables Vol C Tables 4.2.6.8 and 6.1.1.4'
Cs Cs -0.3680 2.1192 'International Tables Vol C Tables 4.2.6.8 and 6.1.1.4'
loop_
_geom_angle_atom_site_label_1
_geom_angle_atom_site_label_2
_geom_angle_atom_site_label_3
_geom_angle_site_symmetry_1
_geom_angle_site_symmetry_3
_geom_angle
O1 Cs1 O1 4_565 3_666 124.68(8)
O1 Cs1 O1 . 4_565 100.37(9)
O1 Cs1 O1 . 3_666 89.17(8)
O1 Cs1 N1 4_565 1_554 93.03(9)
O1 Cs1 N1 3_666 1_554 128.18(9)
O1 Cs1 N1 . 1_554 120.36(9)
O1 Cs1 C1 4_565 4_565 20.91(9)
O1 Cs1 C1 3_666 4_565 141.98(9)
O1 Cs1 C1 . 4_565 87.98(9)
O1 Cs1 C2 4_565 4_565 38.63(9)
O1 Cs1 C2 3_666 4_565 163.29(9)
O1 Cs1 C2 . 4_565 93.56(9)
O1 Cs1 O2 . . 136.10(8)
O1 Cs1 O2 4_565 . 71.07(8)
O1 Cs1 O2 3_666 . 65.23(8)
O1 Cs1 O2 4_565 4_566 81.14(9)
O1 Cs1 O2 3_666 4_566 52.01(8)
O1 Cs1 O2 . 4_566 68.62(8)
O1 Cs1 O2 4_565 3_665 138.37(8)
O1 Cs1 O2 3_666 3_665 80.23(8)
O1 Cs1 O2 . 3_665 113.97(8)
O1 Cs1 O2 4_565 2_655 149.84(8)
O1 Cs1 O2 3_666 2_655 69.11(8)
O1 Cs1 O2 . 2_655 50.40(8)
O1 Cs1 H2B . . 128.8(9)
O1 Cs1 H2B 4_565 . 83.3(7)
O1 Cs1 H2B 3_666 . 51.3(5)
N1 Cs1 C1 1_554 4_565 84.86(9)
N1 Cs1 C2 1_554 4_565 63.68(9)
N1 Cs1 O2 1_554 . 103.29(9)
N1 Cs1 O2 1_554 4_566 170.29(9)
N1 Cs1 O2 1_554 3_665 49.87(8)
N1 Cs1 O2 1_554 2_655 96.62(8)
N1 Cs1 H2B 1_554 . 110.2(10)
C1 Cs1 C2 4_565 4_565 22.13(10)
C1 Cs1 O2 4_565 . 91.69(9)
C1 Cs1 O2 4_565 4_566 92.09(9)
C1 Cs1 O2 4_565 3_665 134.71(9)
C1 Cs1 O2 4_565 2_655 132.36(9)
C1 Cs1 H2B 4_565 . 104.2(6)
C2 Cs1 O2 4_565 . 102.23(9)
C2 Cs1 O2 4_565 4_566 114.05(9)
C2 Cs1 O2 4_565 3_665 113.38(9)
C2 Cs1 O2 4_565 2_655 124.53(9)
C2 Cs1 H2B 4_565 . 116.1(5)
O2 Cs1 O2 . 4_566 67.53(5)
O2 Cs1 O2 . 3_665 96.90(7)
O2 Cs1 O2 4_566 3_665 132.19(6)
O2 Cs1 O2 . 2_655 133.21(6)
O2 Cs1 O2 4_566 2_655 92.25(7)
O2 Cs1 O2 3_665 2_655 65.236(14)
O2 Cs1 H2B . . 14.0(5)
O2 Cs1 H2B 4_566 . 61.6(10)
O2 Cs1 H2B 3_665 . 92.2(10)
O2 Cs1 H2B 2_655 . 119.3(5)
Cs1 O1 Cs1 4_566 3_666 96.27(9)
Cs1 O1 Cs1 . 4_566 88.66(8)
Cs1 O1 Cs1 . 3_666 90.83(8)
Cs1 O1 C1 . . 122.1(3)
Cs1 O1 C1 4_566 . 99.8(2)
Cs1 O1 C1 3_666 . 143.3(3)
Cs1 N1 C1 1_556 . 107.1(3)
Cs1 N1 C5 1_556 . 112.3(3)
C1 N1 C5 . . 119.8(4)
Cs1 C1 O1 4_566 . 59.3(2)
Cs1 C1 N1 4_566 . 123.0(3)
Cs1 C1 C2 4_566 . 87.8(3)
O1 C1 N1 . . 119.4(4)
O1 C1 C2 . . 121.2(4)
N1 C1 C2 . . 119.3(4)
Cs1 C2 C1 4_566 . 70.0(3)
Cs1 C2 H2 4_566 . 70.4
Cs1 C2 C3 4_566 . 132.7(3)
C1 C2 H2 . . 120.0
C1 C2 C3 . . 119.9(4)
H2 C2 C3 . . 120.0
C2 C3 H3 . . 120.4
C2 C3 C4 . . 119.3(4)
H3 C3 C4 . . 120.4
C3 C4 H4 . . 120.6
C3 C4 C5 . . 118.8(4)
H4 C4 C5 . . 120.6
N1 C5 C4 . . 122.8(4)
N1 C5 C6 . . 115.2(4)
C4 C5 C6 . . 121.9(5)
C5 C6 H6A . . 109.5
C5 C6 H6B . . 109.5
C5 C6 H6C . . 109.5
H6A C6 H6B . . 109.5
H6A C6 H6C . . 109.5
H6B C6 H6C . . 109.5
Cs1 O2 Cs1 . 4_565 88.07(8)
Cs1 O2 Cs1 . 3_665 83.10(7)
Cs1 O2 Cs1 4_565 3_665 90.91(8)
Cs1 O2 Cs1 . 2_645 91.87(8)
Cs1 O2 Cs1 4_565 2_645 87.75(7)
Cs1 O2 Cs1 3_665 2_645 174.83(11)
Cs1 O2 H2A . . 146(5)
Cs1 O2 H2A 4_565 . 70(5)
Cs1 O2 H2A 3_665 . 122(5)
Cs1 O2 H2A 2_645 . 62(5)
Cs1 O2 H2B . . 101(4)
Cs1 O2 H2B 4_565 . 160(4)
Cs1 O2 H2B 3_665 . 73(4)
Cs1 O2 H2B 2_645 . 109(4)
H2A O2 H2B . . 109(7)
loop_
_geom_bond_atom_site_label_1
_geom_bond_atom_site_label_2
_geom_bond_site_symmetry_2
_geom_bond_distance
_geom_bond_publ_flag
Cs1 Cs1 3_665 4.2722(7) ?
Cs1 Cs1 4_566 4.4392(6) ?
Cs1 O1 . 3.237(3) y
Cs1 O1 4_565 3.114(3) y
Cs1 O1 3_666 3.119(3) y
Cs1 N1 1_554 3.405(4) y
Cs1 C1 4_565 3.569(4) ?
Cs1 C2 4_565 3.794(5) ?
Cs1 O2 . 3.156(3) y
Cs1 O2 4_566 3.230(3) y
Cs1 O2 3_665 3.283(3) y
Cs1 O2 2_655 3.302(3) y
Cs1 H2B . 3.41(6) ?
O1 Cs1 4_566 3.114(3) ?
O1 Cs1 3_666 3.119(3) ?
O1 C1 . 1.292(5) ?
N1 Cs1 1_556 3.405(4) ?
N1 C1 . 1.361(6) ?
N1 C5 . 1.367(6) ?
C1 Cs1 4_566 3.569(4) ?
C1 C2 . 1.430(7) ?
C2 Cs1 4_566 3.794(5) ?
C2 H2 . 0.950 ?
C2 C3 . 1.390(7) ?
C3 H3 . 0.950 ?
C3 C4 . 1.401(7) ?
C4 H4 . 0.950 ?
C4 C5 . 1.373(7) ?
C5 C6 . 1.511(7) ?
C6 H6A . 0.980 ?
C6 H6B . 0.980 ?
C6 H6C . 0.980 ?
O2 Cs1 4_565 3.230(3) ?
O2 Cs1 3_665 3.283(3) ?
O2 Cs1 2_645 3.302(3) ?
O2 H2A . 0.840(10) ?
O2 H2B . 0.842(10) ?
loop_
_geom_hbond_atom_site_label_D
_geom_hbond_atom_site_label_H
_geom_hbond_atom_site_label_A
_geom_hbond_site_symmetry_A
_geom_hbond_distance_DH
_geom_hbond_distance_HA
_geom_hbond_distance_DA
_geom_hbond_angle_DHA
_geom_hbond_publ_flag
O2 H2A O1 2_645 0.840(10) 1.957(19) 2.785(4) 168(7) y
O2 H2B N1 3_666 0.842(10) 1.987(14) 2.822(5) 172(6) y
