#------------------------------------------------------------------------------
#$Date: 2016-02-20 02:53:41 +0200 (Sat, 20 Feb 2016) $
#$Revision: 176768 $
#$URL: svn://www.crystallography.net/cod/cif/2/10/54/2105466.cif $
#------------------------------------------------------------------------------
#
# This file is available in the Crystallography Open Database (COD),
# http://www.crystallography.net/. The original data for this entry
# were provided by IUCr Journals, http://journals.iucr.org/.
#
# The file may be used within the scientific community so long as
# proper attribution is given to the journal article from which the
# data were obtained.
#
data_2105466
loop_
_publ_author_name
'Reibenspies, Joseph'
'Bhuvanesh, Nattamai'
_publ_section_title
;
 Absolute structure of <i>R</i>-({-})-2-methylpiperazine and
 <i>S</i>-(+)-2-methylpiperazine
;
_journal_coeditor_code           RY5050
_journal_issue                   3
_journal_name_full               'Acta Crystallographica Section B'
_journal_page_first              288
_journal_page_last               293
_journal_paper_doi               10.1107/S2052519213008713
_journal_volume                  69
_journal_year                    2013
_chemical_formula_sum            'C5 H12 N2'
_chemical_formula_weight         100.17
_chemical_melting_point          363
_chemical_name_systematic
;
S-(+)-2-methylpiperazine
;
_space_group_crystal_system      monoclinic
_space_group_IT_number           4
_space_group_name_Hall           'P 2yb'
_space_group_name_H-M_alt        'P 1 21 1'
_symmetry_space_group_name_Hall  'P 2yb'
_symmetry_space_group_name_H-M   'P 1 21 1'
_atom_sites_solution_hydrogens   mixed
_audit_creation_method           SHELXL-2012
_cell_angle_alpha                90
_cell_angle_beta                 105.254(5)
_cell_angle_gamma                90
_cell_formula_units_Z            2
_cell_length_a                   5.2090(4)
_cell_length_b                   8.4798(6)
_cell_length_c                   7.2037(5)
_cell_measurement_reflns_used    3197
_cell_measurement_temperature    110(2)
_cell_measurement_theta_max      63.64
_cell_measurement_theta_min      6.37
_cell_volume                     306.99(4)
_computing_cell_refinement       'FRAMBO (Bruker, 2002)'
_computing_data_collection       'FRAMBO (Bruker, 2002)'
_computing_data_reduction        'SAINT (Bruker, 2012b)'
_computing_molecular_graphics    'OLEX-2 (Dolomanov, 2009)'
_computing_publication_material  'Ciftab (Sheldrick, 2008)'
_computing_structure_refinement  'SHELXL-2012 (Sheldrick, 2012)'
_computing_structure_solution    'SHELXS (Sheldrick 2008)'
_diffrn_ambient_temperature      110(2)
_diffrn_measured_fraction_theta_full 0.894
_diffrn_measured_fraction_theta_max 0.983
_diffrn_measurement_device       'three-circle diffractometer'
_diffrn_measurement_device_type  'MWPC area detector'
_diffrn_measurement_method       'phi and omega scans'
_diffrn_radiation_monochromator  graphite
_diffrn_radiation_type           CuK\a
_diffrn_radiation_wavelength     1.54178
_diffrn_reflns_av_R_equivalents  0.0369
_diffrn_reflns_limit_h_max       5
_diffrn_reflns_limit_h_min       -5
_diffrn_reflns_limit_k_max       8
_diffrn_reflns_limit_k_min       -9
_diffrn_reflns_limit_l_max       8
_diffrn_reflns_limit_l_min       -8
_diffrn_reflns_number            6541
_diffrn_reflns_theta_full        67.679
_diffrn_reflns_theta_max         63.740
_diffrn_reflns_theta_min         8.246
_exptl_absorpt_coefficient_mu    0.523
_exptl_absorpt_correction_T_max  0.7524
_exptl_absorpt_correction_T_min  0.6485
_exptl_absorpt_correction_type   multi-scan
_exptl_absorpt_process_details
;
SADABS-2009/1 (Bruker,2009) was employed for absorption correction.
wR2(int) was   0.0000 before and   0.0000 after correction.
The ratio of minimum to maximum transmission factors was  -1.#IND.
Additional spherical absorption correction applied with mu*r =  0.0000.
The \l/2 correction was not applied
;
_exptl_crystal_colour            'colorless '
_exptl_crystal_density_diffrn    1.084
_exptl_crystal_description       'plate     '
_exptl_crystal_F_000             112
_exptl_crystal_size_max          0.120
_exptl_crystal_size_mid          0.110
_exptl_crystal_size_min          0.040
_refine_diff_density_max         0.176
_refine_diff_density_min         -0.212
_refine_ls_abs_structure_details
;
 Hooft y determined using 430 Bijvoet Pairs
(Hooft,Straver,& Spek,(2008). J.Appl.Cryst. 41, 96-103)
PLATON (2012,161012) Bijvoet Pairs=430, Coverage=0.92,
Bayesian Statistics=Student_T (Nu=5.0), P2(true)=1.000,
P3(true)=1.0000, P3(rac-twin)=0.2E-07, P3(false)=0.2E-32,
G= 0.9029, G (su)=0.1504
;
_refine_ls_abs_structure_Flack   0.05(8)
_refine_ls_extinction_coef       0.118(19)
_refine_ls_extinction_expression Fc^*^=kFc[1+0.001xFc^2^\l^3^/sin(2\q)]^-1/4^
_refine_ls_extinction_method     SHELXL
_refine_ls_goodness_of_fit_ref   1.030
_refine_ls_hydrogen_treatment    mixed
_refine_ls_matrix_type           full
_refine_ls_number_parameters     72
_refine_ls_number_reflns         965
_refine_ls_number_restraints     1
_refine_ls_restrained_S_all      1.030
_refine_ls_R_factor_all          0.0407
_refine_ls_R_factor_gt           0.0383
_refine_ls_shift/su_max          0.000
_refine_ls_shift/su_mean         0.000
_refine_ls_structure_factor_coef Fsqd
_refine_ls_weighting_details
;
 w=1/[\s^2^(Fo^2^)+(0.1000P)^2^]
 where P=(Fo^2^+2Fc^2^)/3
;
_refine_ls_weighting_scheme      calc
_refine_ls_wR_factor_gt          0.1115
_refine_ls_wR_factor_ref         0.1153
_reflns_number_gt                902
_reflns_number_total             965
_reflns_threshold_expression     'I > 2\s(I)'
_cod_data_source_file            ry5050.cif
_cod_data_source_block           smpip
_cod_database_code               2105466
_cod_database_fobs_code          2105466
#BEGIN Tags that were not found in dictionaries:
_shelx_space_group_comment
;
The symmetry employed for this shelxl refinement is uniquely defined
by the following loop, which should always be used as a source of
symmetry information in preference to the above space-group names.
They are only intended as comments.
;
_shelx_estimated_absorpt_t_min   0.940
_shelx_estimated_absorpt_t_max   0.979
_shelx_hkl_checksum              24465
_shelx_hkl_file
;
  -1   0   0 1167.32 50.1188   3
  -1   0   0 1240.13 45.5387   9
  -1   0   0 1231.06 55.9647  10
  -1   0   0 1335.62 71.1140  18
  -1   0   0 1014.99 57.7468  20
  -1   0   0 1207.32 61.8332  21
   1   0   0 1128.71 49.1116   1
   1   0   0 1186.48 57.5134   2
   1   0   0 1218.20 64.9560   8
   1   0   0 1206.87 53.0247  11
   1   0   0 1048.48 70.5167  18
   1   0   0 1023.69 71.4865  19
   1   0   0 1065.14 57.7763  20
   1   0   0 1160.74 61.6657  21
   2   0   0 2023.78 69.0851  24
   2   0   0 1867.11 107.729   8
   2   0   0 1768.55 74.7974   9
   2   0   0 1984.40 117.277  18
   2   0   0 1871.30 118.210  19
   2   0   0 1866.82 95.8037  20
   2   0   0 1815.98 101.968  21
  -2   0   0 1940.68 102.289  21
  -2   0   0 1937.72 68.8961  24
   2   0   0 1877.98 81.6078   1
   2   0   0 2003.60 95.6589   2
  -2   0   0 1801.90 118.412  19
  -2   0   0 1890.47 95.6590  20
  -2   0   0 2023.78 117.592  18
  -2   0   0 1821.28 87.4569  11
  -2   0   0 1955.37 92.7888  10
  -2   0   0 1915.59 83.2743   3
  -3   0   0 56.4243 8.90366  20
  -3   0   0 76.0851 12.4679  10
  -3   0   0 52.8233 10.5179   3
   3   0   0 71.4148 14.5421   8
   3   0   0 67.1905 11.2948   1
  -3   0   0 51.9866 9.70005  21
  -3   0   0 64.2186 4.55027  24
   3   0   0 60.6649 8.85779  21
   3   0   0 68.1321 12.4142   2
   3   0   0 56.9342 4.38659  24
   4   0   0 92.9370 6.28897  24
   4   0   0 106.821 6.61485  12
   4   0   0 12.8387 19.3720   8
  -4   0   0 103.137 6.44404  24
  -4   0   0 97.0352 6.45654  14
  -5   0   0 3.35402 3.29862  14
   5   0   0 2.67451 3.58212  12
   0  -1   0 1.49002 1.44949  11
   0  -1   0 -0.3016 1.39849  10
   0  -1   0 -0.2180 1.30178   9
   0  -1   0 -0.3118 1.66481   2
   0  -1   0 -0.2057 1.40150   3
   0  -1   0 0.12234 1.49437   8
   0  -1   0 0.03567 1.27806   1
   1  -1   0 5694.44 310.002   8
   1  -1   0 5417.57 275.686   2
   1  -1   0 5832.07 346.914  19
   1  -1   0 5880.38 280.966  20
  -1  -1   0 5607.54 281.108  20
  -1  -1   0 5627.51 280.888  20
  -1  -1   0 5346.20 299.527  21
  -1  -1   0 6209.92 299.567  21
   1  -1   0 5103.85 299.348  21
   1  -1   0 4984.71 280.956  20
   1  -1   0 5501.94 256.535  11
  -1  -1   0 6537.15 347.158  19
  -1  -1   0 5572.45 241.307   3
  -1  -1   0 5811.32 220.339   9
   1  -1   0 6116.41 299.383  21
  -1  -1   0 5719.77 254.925  11
  -1  -1   0 5348.39 343.101  18
   1  -1   0 5988.85 235.965   1
   1   1   0 6153.60 235.249   1
   1   1   0 5752.28 310.695   8
   1   1   0 5285.51 343.330  18
   1   1   0 6289.02 343.246  18
  -1   1   0 5707.83 299.634  21
  -1   1   0 5570.38 343.198  18
   1   1   0 6192.31 281.132  20
   1   1   0 6292.73 299.651  21
   1   1   0 5839.83 276.996   2
   1   1   0 6023.89 347.242  19
  -1   1   0 5238.00 281.157  20
   1   1   0 6119.88 347.108  19
  -1   1   0 5809.31 347.101  19
  -1   1   0 4780.03 346.993  19
  -1   1   0 5058.08 343.276  18
  -1   1   0 5231.33 240.975   3
  -1   1   0 5749.38 267.717  10
   2  -1   0 2711.26 132.195   2
   2  -1   0 2732.17 119.515  23
   2  -1   0 2539.60 165.656  19
   2  -1   0 2663.97 133.947  20
  -2  -1   0 2726.55 133.923  20
  -2  -1   0 2837.18 143.152  21
  -2  -1   0 2755.98 119.689  23
  -2  -1   0 2607.76 113.892  17
   2  -1   0 2915.11 142.854  21
   2  -1   0 2730.54 123.609  11
   2  -1   0 2737.01 113.902  17
   2  -1   0 2574.31 163.779  18
  -2  -1   0 2643.73 121.376  11
   2  -1   0 2811.48 150.027   8
  -2  -1   0 2777.57 116.586   3
  -2  -1   0 2596.00 96.5424  24
   2  -1   0 2740.25 96.4593  24
  -2  -1   0 2515.48 165.748  19
  -2  -1   0 2645.46 129.613  10
   2  -1   0 2683.62 114.099   1
  -2  -1   0 2560.40 163.927  18
   2   1   0 2910.80 166.362  19
   2   1   0 2476.19 112.968   1
   2   1   0 2654.64 96.9527  24
  -2   1   0 2599.28 96.8957  24
   2   1   0 2754.19 106.012   9
  -2   1   0 2637.53 119.501  22
   2   1   0 2687.91 100.448  16
   2   1   0 2734.98 164.147  18
  -2   1   0 2674.76 115.929   3
   2   1   0 2731.84 133.996   2
   2   1   0 2819.98 150.753   8
  -2   1   0 2756.83 129.415  10
  -2   1   0 2596.10 100.409  16
  -2   1   0 2707.39 164.350  18
  -2   1   0 2477.74 134.098  20
  -2   1   0 2806.95 143.402  21
   2   1   0 2568.15 134.273  20
  -2   1   0 2560.66 165.871  19
   2   1   0 2748.16 143.061  21
   3  -1   0 525.437 33.5665  21
   3  -1   0 580.462 32.3725  20
   3  -1   0 537.609 31.0152   1
   3  -1   0 578.621 21.6081  24
  -3  -1   0 590.957 35.1241  10
  -3  -1   0 569.413 21.2684  14
   3  -1   0 567.841 22.0244   4
  -3  -1   0 574.477 31.9680   3
  -3  -1   0 584.769 21.7543  24
   3  -1   0 556.896 29.0739  23
   3  -1   0 617.416 41.1254   8
  -3  -1   0 583.744 32.0695  20
  -3  -1   0 584.775 34.5954  21
   3  -1   0 552.286 27.5925  17
  -3   1   0 576.615 30.9774   3
  -3   1   0 601.661 22.4182  24
  -3   1   0 589.054 23.6820  16
   3   1   0 587.371 21.5201  12
   3   1   0 530.896 35.4083   2
   3   1   0 561.218 22.4610  24
  -3   1   0 583.419 28.5049  22
   3   1   0 599.810 41.2298   8
  -3   1   0 565.914 21.1110  14
  -3   1   0 530.793 34.0556  10
   4  -1   0 6.12716 20.5829   8
  -4  -1   0 32.6975 3.98742  14
   4  -1   0 19.4709 4.01692   4
   4  -1   0 26.8423 4.26234  12
   4  -1   0 5.96926 16.0782   1
   4   1   0 24.6817 3.80374  12
   4   1   0 33.5197 4.81299  24
  -4   1   0 24.1073 3.96311  24
  -4   1   0 22.1969 3.68839  14
   5  -1   0 41.7504 5.24278  12
  -5  -1   0 39.3004 4.41383  14
  -5   1   0 41.8027 4.48791  14
   5   1   0 33.8105 4.42425  12
   0  -2   0 6621.78 280.749   3
   0  -2   0 6688.62 360.104   8
   0  -2   0 6577.84 273.768   1
   0  -2   0 6633.47 298.225  11
   0  -2   0 6255.27 311.307  10
   0   2   0 7601.37 398.369  18
   0   2   0 7213.79 402.793  19
   0   2   0 6131.88 398.320  18
   0   2   0 5942.23 402.735  19
   1  -2   0 8661.54 363.030   1
  -1  -2   0 9200.34 371.451   3
  -1  -2   0 8662.14 431.979  20
  -1  -2   0 9163.89 460.436  21
   1  -2   0 9897.79 460.229  21
  -1  -2   0 8582.08 411.934  10
  -1  -2   0 9386.39 432.041  20
   1  -2   0 9601.14 431.838  20
   1  -2   0 8672.85 460.198  21
   1  -2   0 8256.54 366.254  17
  -1  -2   0 9569.39 384.402  23
  -1  -2   0 8722.79 366.225  17
   1  -2   0 8413.40 431.860  20
   1  -2   0 9201.90 395.122  11
   1  -2   0 8687.83 423.847   2
   1  -2   0 8237.74 476.257   8
  -1  -2   0 9006.24 460.392  21
  -1  -2   0 9263.98 392.897  11
   1  -2   0 8516.52 384.279  23
  -1   2   0 8502.90 528.208  18
   1   2   0 9999.99 426.642   2
   1   2   0 7661.72 460.885  21
   1   2   0 8189.03 528.178  18
  -1   2   0 7861.86 460.875  21
  -1   2   0 8569.56 533.951  19
   1   2   0 9097.44 361.567   1
  -1   2   0 7986.80 533.841  19
   1   2   0 8186.72 324.543  16
   1   2   0 9313.24 533.991  19
   1   2   0 8169.65 534.019  19
  -1   2   0 8746.27 385.847  22
  -1   2   0 9081.69 411.971  10
  -1   2   0 8757.77 324.507  16
   1   2   0 8323.13 432.505  20
  -1   2   0 8996.07 371.241   3
   2  -2   0 384.079 19.2737  17
  -2  -2   0 393.191 19.4270  17
  -2  -2   0 418.126 23.9333  21
   2  -2   0 341.503 22.0771  20
   2  -2   0 446.721 22.6301   1
   2  -2   0 412.793 28.2108   8
  -2  -2   0 413.967 22.7192   3
   2  -2   0 412.251 23.5068  21
  -2  -2   0 450.838 25.2234  10
   2  -2   0 419.260 23.8713  11
   2  -2   0 404.506 20.2762  23
  -2  -2   0 387.137 20.5091  23
   2   2   0 449.799 20.1717  22
   2   2   0 401.299 16.7317  16
  -2   2   0 434.082 28.2734  18
  -2   2   0 417.947 20.0667  22
   2   2   0 409.342 28.6024  19
  -2   2   0 431.216 24.5704  10
   2   2   0 423.277 28.2619  18
  -2   2   0 440.071 28.8954  19
   2   2   0 434.004 26.3482   2
  -2   2   0 422.873 16.7943  16
  -2   2   0 400.677 21.4867   3
   2   2   0 406.760 20.3496   9
   2   2   0 435.050 30.2339   8
   3  -2   0 261.321 20.2168   1
  -3  -2   0 230.977 14.9231  23
  -3  -2   0 233.151 10.0918   6
   3  -2   0 253.415 10.3589  14
  -3  -2   0 211.689 16.8916  21
  -3  -2   0 250.500 15.8954  20
  -3  -2   0 233.152 20.1132   3
  -3  -2   0 243.509 10.1509  14
   3  -2   0 227.253 10.4102   7
  -3  -2   0 246.461 22.0400  10
   3  -2   0 239.701 16.4166  21
   3  -2   0 226.241 14.5841  23
  -3  -2   0 259.842 10.8290   5
  -3  -2   0 236.266 14.0557  17
   3  -2   0 227.548 25.4744   8
   3  -2   0 223.978 15.2465  20
   3  -2   0 254.827 14.1852  17
   3  -2   0 236.906 10.6026   4
   3   2   0 237.914 11.7618  16
   3   2   0 229.057 11.2715  24
   3   2   0 218.138 16.4794   9
   3   2   0 245.644 22.7727   2
  -3   2   0 265.917 22.3911  10
   3   2   0 233.571 21.7259  19
   3   2   0 257.474 14.0427  22
  -3   2   0 236.493 10.9446  24
  -3   2   0 214.611 21.7388  19
   3   2   0 241.842 10.5394  12
  -3   2   0 227.886 11.5204  16
   3   2   0 265.187 21.2554  18
  -3   2   0 221.461 13.6959  22
  -3   2   0 214.035 20.0364  11
  -3   2   0 253.384 22.1068  18
   3   2   0 238.803 24.3749   8
   4  -2   0 82.0153 10.4732  17
  -4  -2   0 85.9914 6.33428  14
  -4  -2   0 62.3787 6.53074   6
   4  -2   0 87.1274 6.81688   4
   4  -2   0 67.8621 9.63115  23
   4   2   0 67.9363 6.08733   5
   4   2   0 92.5771 7.83717  24
   4   2   0 104.881 6.68683  12
  -4   2   0 87.8672 7.14137  24
  -4   2   0 91.2858 6.44562  14
  -5  -2   0 23.5232 3.62568  14
   5  -2   0 27.0386 4.07827   4
  -5   2   0 22.4311 3.79904  14
   5   2   0 18.9983 4.07290  12
   0  -3   0 -1.2644 4.87813  10
   0  -3   0 -0.7447 0.96325  17
   0  -3   0 0.95596 0.99960  17
   0  -3   0 1.67059 0.95011  23
   0  -3   0 -0.1462 3.64753   1
   0  -3   0 -0.6041 3.28640   3
   0  -3   0 0.66012 4.79641  11
   0  -3   0 0.06733 0.80676  23
   0   3   0 -0.9404 3.99016   9
   0   3   0 2.65366 2.38572  19
   0   3   0 0.95771 1.70526  19
   0   3   0 0.15617 1.52370  18
   0   3   0 1.58770 5.27181   2
   0   3   0 1.38229 2.14216  18
   0   3   0 1.34877 4.51992   8
   1  -3   0 52.8649 8.04017   8
   1  -3   0 53.4652 7.56581   1
   1  -3   0 48.3536 3.66426  17
  -1  -3   0 45.3700 6.44950  11
  -1  -3   0 51.3225 7.41313   3
   1  -3   0 49.6608 3.61102  23
   1  -3   0 51.1386 8.03126  11
  -1  -3   0 47.4018 3.68736  17
  -1  -3   0 47.7073 3.76177  23
  -1  -3   0 55.5329 7.51286  10
  -1   3   0 42.7603 5.62156  19
   1   3   0 51.3363 9.45264   8
  -1   3   0 54.1890 2.66753  16
   1   3   0 46.1405 6.50061   9
   1   3   0 47.9482 2.79722  16
   1   3   0 53.8947 5.77622  18
   1   3   0 46.6516 5.48851  19
   1   3   0 48.7210 3.32132  22
  -1   3   0 62.9885 8.47931   3
  -1   3   0 50.4966 5.39274  18
   1   3   0 52.2673 8.01029   2
  -1   3   0 52.0290 3.33413  22
  -1   3   0 29.0085 6.09470  10
  -2  -3   0 2213.20 115.620  21
   2  -3   0 2194.53 104.009  11
   2  -3   0 2262.62 97.5156  23
   2  -3   0 2217.02 92.8714  17
   2  -3   0 2177.47 123.368   8
  -2  -3   0 2258.23 92.9277  17
   2  -3   0 2170.48 107.881  20
   2  -3   0 2056.32 114.987  21
  -2  -3   0 2246.60 97.6600   3
   2  -3   0 1991.41 107.896  20
  -2  -3   0 2283.59 97.7660  23
   2  -3   0 2187.94 115.025  21
  -2  -3   0 2117.47 108.307  20
   2  -3   0 2174.12 95.4536   1
  -2  -3   0 2256.72 107.875  10
  -2   3   0 2080.46 134.332  18
   2   3   0 2216.05 134.404  18
  -2   3   0 2100.06 107.483  10
   2   3   0 1991.12 111.605   2
   2   3   0 2194.42 125.794   8
   2   3   0 2129.85 135.910  19
   2   3   0 2121.58 88.8084   9
  -2   3   0 2246.67 96.3504   3
  -2   3   0 2225.33 82.0040  16
  -2   3   0 2231.96 97.7684  22
   2   3   0 2221.09 82.1600  16
  -2   3   0 2222.72 136.290  19
   2   3   0 2292.46 97.7672  22
   3  -3   0 63.7281 7.80954  23
   3  -3   0 33.4447 12.8455   1
   3  -3   0 71.2549 7.78539  17
  -3  -3   0 70.1916 7.66995  20
   3  -3   0 58.4030 7.55630  21
   3  -3   0 63.3668 5.83965  15
  -3  -3   0 49.5924 14.1585  10
  -3  -3   0 72.7055 8.23682  17
  -3  -3   0 74.9873 6.25024   5
  -3  -3   0 70.2963 6.32010  13
   3  -3   0 75.5862 7.00012  20
  -3  -3   0 73.5962 9.12849  21
   3  -3   0 84.6349 5.78378  14
  -3  -3   0 74.6416 5.67488  14
   3  -3   0 70.4884 5.90874   7
  -3  -3   0 79.9980 8.96587  23
   3  -3   0 67.9228 5.84641   4
  -3  -3   0 75.7192 13.4661   3
  -3  -3   0 60.8311 5.43965   6
  -3   3   0 59.9306 14.1515  10
   3   3   0 56.1666 12.6023  19
   3   3   0 87.7115 12.3299   9
  -3   3   0 78.5914 6.29825  16
   3   3   0 75.3232 8.23973  22
   3   3   0 55.9315 17.0617   8
  -3   3   0 29.9215 12.0087  19
   3   3   0 73.4481 6.80562  16
  -3   3   0 68.1569 14.2371  18
   3   3   0 75.3735 16.7839   2
   3   3   0 73.6682 12.8594  18
   3   3   0 69.7633 5.84753  12
  -3   3   0 73.7141 7.64782  22
   4  -3   0 35.8499 5.31858   7
  -4  -3   0 39.0306 4.47845   6
   4  -3   0 37.1625 7.85782  17
  -4  -3   0 40.9327 8.07080  17
   4  -3   0 56.1521 8.89652  23
   4  -3   0 55.4823 5.24151   4
  -4  -3   0 31.4610 8.42592  23
  -4  -3   0 43.3736 4.67741  14
  -4   3   0 48.2671 5.58563  14
   4   3   0 52.6600 6.50729  24
  -4   3   0 29.8085 4.98110  24
   4   3   0 22.7019 3.95193  12
   5  -3   0 269.547 12.0538   4
   5   3   0 265.631 11.7134  12
  -5   3   0 258.289 11.4495  14
   0  -4   0 945.079 46.7601  10
   0  -4   0 931.177 40.2167   1
   0  -4   0 830.562 44.5009  11
   0   4   0 797.594 54.9327  18
   0   4   0 951.803 54.6646  18
   0   4   0 881.991 52.7009   8
   0   4   0 915.083 38.2057   9
   0   4   0 819.811 46.8233   2
   0   4   0 928.265 55.0939  19
   1  -4   0 371.907 20.1546   1
  -1  -4   0 378.337 22.2296  10
   1  -4   0 340.215 15.3969  17
   1  -4   0 331.839 23.0451  11
  -1  -4   0 370.030 20.8022   3
  -1  -4   0 342.184 16.1967  23
  -1  -4   0 354.978 15.3598  17
   1  -4   0 332.300 15.9433  23
   1  -4   0 318.034 15.2245  17
   1  -4   0 310.297 16.0037  23
  -1   4   0 341.114 21.7231  10
   1   4   0 356.852 23.2072  18
   1   4   0 326.296 25.0617   8
  -1   4   0 358.197 13.5130  16
  -1   4   0 368.929 22.8495  18
   1   4   0 359.971 23.4686  19
   1   4   0 369.365 19.1513   9
   1   4   0 333.261 16.0840  22
   1   4   0 354.120 23.6538   2
  -1   4   0 361.052 21.3758   3
  -1   4   0 359.337 23.4165  19
   1   4   0 335.481 13.6164  16
  -2  -4   0 25.0845 10.0834  10
  -2  -4   0 22.3347 3.86756  23
   2  -4   0 20.1534 3.02589  14
  -2  -4   0 17.6784 3.68084  13
   2  -4   0 14.2581 3.11875   4
  -2  -4   0 13.2151 2.87619  14
   2  -4   0 17.1535 11.7344  11
   2  -4   0 14.9809 3.27854   7
  -2  -4   0 22.2504 8.99732   3
   2  -4   0 14.6089 3.49134  15
  -2  -4   0 11.2551 3.05296   5
  -2  -4   0 22.6438 3.03623   6
  -2  -4   0 16.6051 3.23589  12
  -2  -4   0 22.4395 3.84436  17
   2  -4   0 33.1803 10.3038   1
   2  -4   0 24.6158 3.64908  17
   2  -4   0 19.7851 3.38622  23
   2   4   0 23.9311 14.2021   8
   2   4   0 14.1531 8.19486   9
  -2   4   0 14.7658 6.52706  18
   2   4   0 21.1322 6.83667  18
  -2   4   0 14.0066 2.66713  16
   2   4   0 17.0498 7.34941  19
   2   4   0 12.0454 13.7530   2
  -2   4   0 20.5202 4.11672  22
   2   4   0 8.85618 3.29423  22
   2   4   0 7.32185 2.85703  16
  -2   4   0 9.49416 8.05894  19
  -2   4   0 14.0886 9.68327  10
  -3  -4   0 51.1092 4.82242  14
  -3  -4   0 22.9470 15.1390  10
   3  -4   0 56.3799 16.1999   1
   3  -4   0 39.5804 4.73741  15
  -3  -4   0 39.4760 4.19143   6
   3  -4   0 56.5211 7.69986  23
  -3  -4   0 45.4370 14.0335   3
   3  -4   0 47.8065 7.18473  17
  -3  -4   0 52.0491 6.48735  17
  -3  -4   0 47.9049 5.36126  13
   3  -4   0 48.6946 5.67762   4
  -3  -4   0 46.1125 5.14985   5
  -3  -4   0 55.3621 7.25801  23
   3  -4   0 47.1049 5.38683  14
   3  -4   0 46.2863 5.61969   7
  -3   4   0 52.1341 7.91385  22
  -3   4   0 70.0334 17.3570  10
   3   4   0 47.8565 5.68828  12
   3   4   0 48.2684 7.35933  22
   3   4   0 53.2014 12.7653   9
  -3   4   0 52.7013 6.07041  16
   3   4   0 41.2786 20.0845   8
   3   4   0 56.0040 19.7703   2
   3   4   0 59.1962 6.28770  16
   4  -4   0 163.188 13.0417  23
  -4  -4   0 188.434 13.1586  17
   4  -4   0 181.163 9.73931   7
  -4  -4   0 161.019 14.4086  23
   4  -4   0 169.519 12.6701  17
  -4  -4   0 171.768 8.93422   6
  -4  -4   0 167.435 8.75580  14
   4  -4   0 162.922 9.66772   4
  -4   4   0 190.051 9.30051  14
   4   4   0 184.621 9.23736  12
   4   4   0 148.415 11.0587  24
   5  -4   0 316.908 13.3000   4
  -5   4   0 318.734 12.6789  14
   5   4   0 299.831 12.8991  12
   5   4   0 298.985 12.8147   5
   0  -5   0 -0.4996 9.54238  10
   0  -5   0 -0.8940 10.9301  11
   0   5   0 0.70989 8.37328   3
   0   5   0 2.54827 8.27973   9
   0   5   0 -0.2313 4.35113  19
   0   5   0 0.21275 3.86044  18
  -1  -5   0 39.4615 8.89520   3
   1  -5   0 41.9777 12.5996  11
  -1  -5   0 25.3939 3.75575   5
   1  -5   0 39.0419 10.1741   1
  -1  -5   0 46.8595 5.20283  13
   1  -5   0 43.3397 4.93186   7
   1  -5   0 44.8825 4.83470  15
   1  -5   0 43.6802 4.50620  14
  -1  -5   0 43.9609 4.39962   6
  -1  -5   0 35.2297 11.5357  10
  -1  -5   0 44.1350 4.53210  14
  -1   5   0 48.2254 7.15531  18
   1   5   0 33.9495 9.23675   9
  -1   5   0 50.4768 7.84571  19
   1   5   0 47.5953 7.27129  18
   1   5   0 35.9745 14.4348   2
   1   5   0 46.5369 8.16038  19
  -1   5   0 45.2914 3.45009  16
   1   5   0 42.5217 3.78356  16
   1   5   0 45.3593 4.37387  22
  -1   5   0 43.1536 4.47548  22
  -1   5   0 43.5029 10.7228   3
  -1   5   0 38.7544 9.77141  10
   2  -5   0 13.0519 3.52603  15
  -2  -5   0 21.6857 3.56604  14
   2  -5   0 21.6033 3.34505  23
   2  -5   0 12.9063 14.0077  11
  -2  -5   0 20.6295 12.3859  10
   2  -5   0 20.8335 3.40704  14
  -2  -5   0 25.4706 4.02684  23
  -2  -5   0 10.9074 10.9574   3
   2  -5   0 19.6627 3.72506   7
  -2  -5   0 16.4504 3.67290   5
  -2  -5   0 17.8118 4.08481  13
   2  -5   0 10.6726 13.0451   1
   2  -5   0 26.1003 3.92178   4
  -2  -5   0 25.0470 3.62402  17
  -2  -5   0 13.5546 3.35476  12
   2  -5   0 22.9333 3.35456  17
  -2  -5   0 15.2004 3.14468   6
   2   5   0 12.1985 11.1324   9
   2   5   0 15.5353 4.17643  22
   2   5   0 25.2394 7.37225  18
   2   5   0 24.6700 3.92227  16
   2   5   0 14.4826 17.0326   2
  -2   5   0 23.0773 3.39506  16
   2   5   0 25.0304 18.1875   8
  -2   5   0 23.7767 4.29569  22
  -2   5   0 21.4395 7.98907  18
  -2   5   0 19.3408 12.0834  10
  -3  -5   0 143.782 8.92976  14
  -3  -5   0 155.791 8.50083   6
   3  -5   0 169.437 9.28770   4
   3  -5   0 154.997 9.14432  15
  -3  -5   0 170.993 11.1362  17
   3  -5   0 159.377 8.67733  14
   3  -5   0 141.348 10.5075  23
   3  -5   0 157.213 10.0246  17
  -3  -5   0 169.852 9.48467   5
   3  -5   0 166.114 9.08496   7
  -3  -5   0 153.918 11.4737  23
  -3  -5   0 164.024 9.31815  13
   3   5   0 144.303 9.94339  16
  -3   5   0 157.594 12.7799  22
   3   5   0 153.609 12.5270  22
   3   5   0 159.924 9.02437  12
  -3   5   0 154.783 9.53887  16
   4  -5   0 59.5542 6.40746  15
  -4  -5   0 65.8652 6.04790   6
   4  -5   0 57.7444 6.57598   7
   4  -5   0 57.5841 6.52004   4
  -4  -5   0 63.2324 6.95903  13
  -4   5   0 65.5699 6.13494  14
   4   5   0 61.6360 5.96378  12
   4   5   0 55.5633 6.25780   5
   5  -5   0 138.255 7.35755   4
   5   5   0 132.559 7.07836  12
  -5   5   0 147.368 6.89084  14
   0  -6   0 256.579 10.8280   6
   0  -6   0 209.411 23.6760  11
   0  -6   0 242.828 23.9317  10
   0  -6   0 235.303 10.6702  14
   0  -6   0 238.085 11.1669   7
   0   6   0 259.403 17.9113  19
   0   6   0 218.189 22.8563   3
   0   6   0 268.402 17.2860  18
   0   6   0 236.798 10.1717  16
   0   6   0 228.143 12.1233  22
  -1  -6   0 12.5335 3.39160   6
   1  -6   0 8.41871 14.7742  11
  -1  -6   0 5.16227 10.0358   3
   1  -6   0 8.62476 3.61961  15
   1  -6   0 7.76697 3.39953  14
   1  -6   0 10.6324 3.21978   6
   1  -6   0 11.1224 3.51702   7
  -1  -6   0 4.99963 3.40653   5
  -1  -6   0 5.99614 3.15401  14
  -1  -6   0 11.7967 13.2310  10
  -1  -6   0 7.43754 4.00058  13
  -1   6   0 8.40092 6.22601  18
  -1   6   0 13.5233 2.84293  16
   1   6   0 8.18259 6.34061  18
   1   6   0 11.8473 3.44502  16
  -1   6   0 8.00002 4.17622  22
   1   6   0 13.1781 11.8425   9
  -1   6   0 11.0299 12.2414  10
   1   6   0 11.9736 4.05770  22
  -1   6   0 1.46791 12.7913   3
  -2  -6   0 313.287 12.8708   6
   2  -6   0 308.417 13.0946  14
   2  -6   0 299.385 13.6277   4
  -2  -6   0 296.616 13.9128  13
  -2  -6   0 301.118 13.6658   5
   2  -6   0 302.418 13.2756  15
  -2  -6   0 290.008 12.9311  14
   2  -6   0 301.960 13.5235   7
   2   6   0 277.204 16.6029  22
   2   6   0 305.581 14.1567  16
  -2   6   0 311.017 13.5430  16
   3  -6   0 1.23281 4.13492  15
  -3  -6   0 0.00420 3.53254   6
  -3  -6   0 0.53701 4.14774   5
  -3  -6   0 4.71100 4.03714  14
   3  -6   0 1.60988 3.56716   7
  -3  -6   0 4.12026 4.35252  13
   3  -6   0 1.89609 3.68674  14
   3  -6   0 3.90035 4.26717   4
  -3   6   0 -0.7732 6.73844  22
   3   6   0 2.75817 4.76448  16
   3   6   0 4.21521 7.36086  22
   3   6   0 -0.1437 4.24545  12
  -3   6   0 3.43914 4.67954  16
   4  -6   0 73.0643 6.38936  15
  -4  -6   0 80.0296 6.52459  13
  -4  -6   0 90.1782 6.03025   6
   4  -6   0 82.0879 6.47365   7
   4  -6   0 86.2202 6.52228   4
   4   6   0 87.3231 6.18530   5
   4   6   0 79.9535 6.23727  12
  -4   6   0 80.7142 6.00746  14
   0  -7   0 -2.5408 3.68941   7
   0  -7   0 -1.1182 3.43436  14
   0  -7   0 -0.8738 3.63280   6
   0   7   0 -1.0070 3.14041  16
   0   7   0 -0.5313 4.25523  22
   1  -7   0 7.93145 3.60520   6
  -1  -7   0 8.29554 3.66237  14
  -1  -7   0 8.30460 3.73575   6
   1  -7   0 6.98238 3.82844   7
  -1  -7   0 4.07811 4.28295  13
   1  -7   0 6.20181 3.74288  14
   1  -7   0 3.76605 3.73757  15
  -1   7   0 7.85523 4.05730  16
  -1   7   0 5.19775 4.94144  22
   1   7   0 5.58011 3.82809  16
   1   7   0 4.56090 4.56785  22
  -2  -7   0 275.283 13.1463  13
  -2  -7   0 269.538 12.7187   5
  -2  -7   0 276.276 12.0591  14
   2  -7   0 267.506 12.6902  15
   2  -7   0 283.463 12.8541   7
   2  -7   0 262.467 12.2120  14
  -2   7   0 290.000 13.0388  16
   2   7   0 272.393 13.5625  16
   2   7   0 259.344 16.0759  22
  -2   7   0 258.440 16.1408  22
  -3  -7   0 596.375 22.2363   6
   3  -7   0 598.534 22.4341  14
   3  -7   0 571.669 23.3003   4
  -3  -7   0 577.974 23.6545  13
   4  -7   0 111.448 6.42850   7
  -4  -7   0 105.806 6.48588  13
  -4  -7   0 106.176 5.83597   6
   4  -7   0 103.964 6.28860  15
   4  -7   0 93.8337 6.73380   4
   4   7   0 105.430 6.30153   5
   0  -8   0 16.9152 3.75070   6
   0  -8   0 14.0962 3.85809  14
   0  -8   0 20.6637 4.40611   7
   0   8   0 7.48860 3.55794  16
   0   8   0 9.63908 4.86966  22
  -1  -8   0 480.568 19.7633  13
   1  -8   0 491.627 19.6515   7
   1  -8   0 471.435 19.3083  15
  -1  -8   0 490.890 18.7522  14
   1  -8   0 492.885 18.8774  14
  -1  -8   0 500.893 18.8650   6
  -1   8   0 434.538 19.6184  16
   2  -8   0 323.293 14.0361  15
   2  -8   0 332.192 13.7136  14
   2  -8   0 319.343 14.1635   7
  -2  -8   0 335.095 13.6889   6
  -2  -8   0 314.522 14.4783  13
   3  -8   0 7.13596 3.11755  15
  -3  -8   0 8.69726 3.25073  13
  -3  -8   0 7.43709 3.04949   6
   3  -8   0 6.18480 3.08202   7
   3  -8   0 5.91527 2.94038  14
   3   8   0 5.02608 3.02868   5
   0  -9   0 6.78415 3.23250   6
   0  -9   0 0.61202 3.10213  14
   1  -9   0 185.944 8.89480  14
  -1  -9   0 196.622 8.86603   6
   1  -9   0 182.656 9.24372   7
   2  -9   0 350.061 13.3081  15
   2  -9   0 328.586 13.3651   7
  -2  -9   0 344.465 12.9671   6
  -2  -9   0 287.679 13.3572  13
   2  -9   0 318.821 12.8792  14
  -5   0   1 9.10402 3.66405  14
   5   0  -1 9.61544 3.92777  12
   4   0  -1 1187.40 87.8655   8
  -4   0   1 1717.33 71.7403   3
  -3   0   1 1.25201 6.80513  21
   3   0  -1 -2.7894 8.56167   8
  -3   0   1 2.01053 4.15975  20
   3   0  -1 3.97011 5.88807  21
  -3   0   1 1.65108 7.03791   3
   3   0  -1 3.26042 5.43833  20
  -3   0   1 1.73932 1.99893  24
   3   0  -1 -0.3804 2.55185  24
  -3   0   1 -0.1588 8.91799  10
   3   0  -1 2.94303 8.23950   1
  -2   0   1 435.309 22.2004  10
   2   0  -1 404.150 21.7068  20
   2   0  -1 393.485 15.1860  24
   2   0  -1 374.150 15.6705  16
  -2   0   1 411.472 26.3098  18
  -2   0   1 371.289 17.8905   9
   2   0  -1 404.621 26.6207   8
   2   0  -1 377.637 21.9873   2
   2   0  -1 404.263 20.1079   1
  -2   0   1 378.524 14.8769  24
  -2   0   1 399.979 21.3979  20
  -2   0   1 384.747 26.4022  19
  -2   0   1 394.750 22.7966  21
   2   0  -1 393.689 26.4133  18
  -2   0   1 318.695 18.3748  17
   2   0  -1 402.723 20.0818  11
   2   0  -1 375.304 18.5361  22
   2   0  -1 399.209 22.6900  21
  -2   0   1 396.768 20.2603   3
  -1   0   1 426.162 27.6749  19
   1   0  -1 449.367 20.9315  11
   1   0  -1 441.785 27.5833  18
  -1   0   1 410.556 27.3233  18
   1   0  -1 443.961 23.9571  21
  -1   0   1 401.293 18.2537   9
   1   0  -1 463.227 27.8553  19
  -1   0   1 445.182 20.2983   3
  -1   0   1 426.149 23.9942  21
   1   0  -1 371.956 19.8201   1
   1   0  -1 442.356 25.8331   8
  -1   0   1 444.132 23.1638   2
   1   0  -1 421.400 22.5174  20
  -1   0   1 454.223 24.0885  21
  -1   0   1 446.682 22.5237  20
  -1   0   1 459.151 21.6324  10
   0   0   1 3635.77 152.312   3
   0   0   1 3458.11 217.495  18
   0   0  -1 4165.93 217.523  18
   0   0  -1 3292.87 178.123  20
   0   0  -1 3302.00 189.830  21
   0   0  -1 3254.21 219.877  19
   0   0  -1 3308.68 217.479  18
   0   0  -1 3836.13 169.267  10
   0   0   1 3376.73 178.147  20
   0   0   1 3901.22 189.988  21
   0   0   1 3811.09 178.239  20
   0   0   1 3744.09 219.973  19
   0   0  -1 3338.43 162.572  11
   0   0   1 4126.91 196.874   8
   1   0   1 861.212 31.8114  24
  -1   0  -1 899.914 43.2450  10
   1   0   1 883.878 44.7968   2
  -1   0  -1 909.360 54.1542  18
   1   0   1 832.889 34.9482   9
   1   0   1 865.833 53.7987  18
   1   0   1 804.878 50.2868   8
   1   0   1 878.744 44.0783  20
  -1   0  -1 859.071 37.8824   3
   1   0   1 838.280 54.4419  19
   1   0   1 873.231 37.8321   1
  -1   0  -1 904.411 41.6316  11
   1   0   1 857.261 46.9589  21
  -1   0  -1 838.240 44.0698  20
  -1   0  -1 910.424 47.2455  21
  -1   0  -1 893.952 54.7335  19
  -2   0  -1 16.6089 6.25935  11
   2   0   1 18.1712 4.48264  21
   2   0   1 19.2119 4.82449   9
  -2   0  -1 15.7837 3.18481  22
   2   0   1 18.5406 8.38205   8
   2   0   1 16.0929 4.11867  23
   2   0   1 19.3780 4.18807  20
   2   0   1 13.6879 6.14076   1
   2   0   1 23.1311 5.51618  18
  -2   0  -1 8.57678 6.54185  10
   2   0   1 14.5924 2.22515  24
   2   0   1 18.1257 4.01263  17
  -2   0  -1 16.2754 5.71977  19
   2   0   1 24.2603 8.67710  19
  -2   0  -1 14.4170 5.94281   3
  -2   0  -1 23.5234 6.12198  21
  -2   0  -1 13.0812 2.45533  16
  -2   0  -1 11.6496 2.25573  24
   2   0   1 18.2893 7.36164   2
  -2   0  -1 11.9543 5.06736  18
  -2   0  -1 14.7781 3.96006  20
   3   0   1 75.3511 5.44200  12
  -3   0  -1 60.7717 5.30711   7
   3   0   1 82.6381 9.72693  20
   3   0   1 89.1834 11.5441  21
   3   0   1 63.9107 13.5875   2
   3   0   1 117.508 19.4197   8
  -3   0  -1 74.6880 5.39720  14
   3   0   1 80.0642 5.11056  24
  -3   0  -1 72.6245 5.24731  24
  -3   0  -1 99.9346 15.3613  10
  -4   0  -1 46.7693 5.71586  24
  -4   0  -1 46.4666 5.40611  14
   4   0   1 48.3756 5.05724  12
  -5   0  -1 17.6031 3.27720  14
   5   0   1 26.8377 4.19165  12
   5  -1  -1 66.5498 6.41487   4
  -5  -1   1 71.8806 6.42057   6
   5   1  -1 74.0689 6.18553  12
  -5   1   1 78.9930 6.07498  14
   5   1  -1 53.4614 6.34565  24
  -4  -1   1 102.029 6.73219  14
  -4  -1   1 106.717 6.76933   6
   4  -1  -1 104.051 5.65847  24
   4  -1  -1 116.340 7.40134   4
   4  -1  -1 122.064 18.3321   1
  -4  -1   1 111.054 17.1496   3
  -4   1   1 104.441 6.78470  24
  -4   1   1 101.134 6.74454  14
   4   1  -1 108.463 6.80520  12
  -4   1   1 17.1252 15.6023  10
   4   1  -1 67.9846 18.9550   8
   4   1  -1 107.967 7.22736  24
  -4   1   1 114.731 7.05380   6
   3  -1  -1 4425.45 254.284   8
  -3  -1   1 4681.66 163.966  24
   3  -1  -1 4516.59 194.397   1
   3  -1  -1 4513.42 228.422  20
  -3  -1   1 4638.77 228.014  20
  -3  -1   1 4568.96 243.155  21
  -3  -1   1 4696.28 203.598  23
   3  -1  -1 4383.33 242.946  21
  -3  -1   1 4491.16 193.923  17
  -3  -1   1 4577.90 198.738   3
  -3  -1   1 4581.28 219.986  10
   3  -1  -1 4830.97 164.411  24
  -3   1   1 4438.06 219.641  10
   3   1  -1 4447.18 171.030  16
   3   1  -1 4684.61 227.175   2
   3   1  -1 4622.67 165.093  24
   3   1  -1 4642.42 279.152  18
   3   1  -1 4306.28 203.274  22
   3   1  -1 4646.87 282.704  19
  -3   1   1 4804.08 164.863  24
   3   1  -1 4475.31 193.454   1
  -3   1   1 4609.67 198.150   3
   3   1  -1 4580.31 255.628   8
   2  -1  -1 5706.29 389.432  18
  -2  -1   1 6778.69 250.618   9
  -2  -1   1 6706.42 270.380  17
   2  -1  -1 6648.34 352.002   8
   2  -1  -1 6779.16 291.296  11
   2  -1  -1 6325.27 283.680  23
   2  -1  -1 7029.92 339.841  21
   2  -1  -1 5982.57 312.425   2
   2  -1  -1 6096.64 270.388  17
   2  -1  -1 6330.53 230.624  24
  -2  -1   1 6390.36 230.307  24
  -2  -1   1 6665.29 283.610  23
  -2  -1   1 6070.20 274.639   3
   2  -1  -1 5987.45 268.395   1
  -2  -1   1 6477.15 304.132  10
  -2  -1   1 6664.11 318.506  20
  -2  -1   1 6931.29 339.702  21
   2  -1  -1 6725.61 319.106  20
   2   1  -1 6396.58 393.692  19
  -2   1   1 6366.44 393.934  19
   2   1  -1 6404.01 268.161   1
  -2   1   1 6373.85 304.040  10
   2   1  -1 6232.69 339.955  21
   2   1  -1 7137.83 389.937  18
  -2   1   1 6475.62 230.950  24
  -2   1   1 6608.78 248.674   9
   2   1  -1 6532.10 284.369  22
  -2   1   1 6426.12 319.352  20
   2   1  -1 6282.08 319.175  20
  -2   1   1 6492.92 274.476   3
   2   1  -1 6715.19 239.269  16
  -2   1   1 6662.43 284.595  22
  -2   1   1 5971.62 239.190  16
  -2   1   1 6591.83 389.728  18
   2   1  -1 6520.90 314.817   2
   2   1  -1 5950.10 353.188   8
  -2   1   1 6467.29 340.113  21
   2   1  -1 5948.86 230.972  24
   1  -1  -1 6501.17 359.551  21
   1  -1  -1 6367.94 412.174  18
  -1  -1   1 6575.13 337.152  20
  -1  -1   1 6852.69 289.725   3
   1  -1  -1 6803.18 337.585  20
  -1  -1   1 7272.24 337.162  20
  -1  -1   1 6241.38 320.258  10
  -1  -1   1 6921.18 416.274  19
   1  -1  -1 7537.80 307.979  11
   1  -1  -1 6160.50 370.982   8
  -1  -1   1 7602.53 332.823   2
  -1  -1   1 7801.53 359.293  21
  -1  -1   1 6310.37 264.489   9
  -1  -1   1 6360.43 411.772  18
   1  -1  -1 7485.55 416.733  19
  -1  -1   1 6642.52 359.335  21
  -1   1   1 6862.69 320.872  10
  -1   1   1 6715.24 337.706  20
   1   1  -1 7226.52 283.183   1
   1   1  -1 6480.19 306.030  11
   1   1  -1 6710.54 359.596  21
   1   1  -1 7254.40 411.989  18
  -1   1   1 7093.16 289.842   3
   1   1  -1 6832.21 337.415  20
   1   1  -1 7547.71 416.735  19
   1   1  -1 6839.52 301.085  22
  -1   1   1 5913.56 263.433   9
  -1   1   1 6735.95 412.095  18
   0  -1   1 445.066 24.2537   2
   0  -1  -1 480.904 22.8185  11
   0  -1  -1 462.665 25.1820  21
   0  -1  -1 455.926 25.3023  21
   0  -1   1 467.406 19.2020   9
   0  -1   1 489.980 27.5799   8
   0  -1   1 453.634 20.8612   1
   0  -1  -1 467.446 29.2705  19
   0  -1  -1 457.902 23.6862  20
   0  -1  -1 481.070 19.9517   1
   0  -1   1 460.414 20.2707   3
   0  -1  -1 474.240 29.0271  18
   0  -1  -1 478.579 23.6125  20
   0  -1  -1 483.709 23.4629  10
   0   1   1 472.383 24.1065   2
   0   1  -1 475.119 28.7196  19
   0   1  -1 484.089 23.3315  20
   0   1   1 443.434 26.2990   8
   0   1   1 458.803 21.1089   3
   0   1   1 441.331 29.0146  18
   0   1   1 447.769 28.9435  18
   0   1   1 449.326 29.3821  19
   0   1  -1 466.464 28.4316  18
   0   1   1 456.553 19.3431   9
   0   1  -1 435.499 24.7810  21
   0   1  -1 453.995 22.6303  10
   0   1   1 467.778 23.8530  20
   0   1  -1 469.546 22.4823  11
   0   1  -1 445.933 28.4261  18
   0   1   1 472.482 25.3814  21
   0   1   1 480.820 29.2343  19
   1  -1   1 165.823 8.78909  23
   1  -1   1 172.947 9.51270  20
  -1  -1  -1 154.613 12.2373  18
   1  -1   1 181.058 12.0298  19
  -1  -1  -1 183.192 9.96973  20
   1  -1   1 162.770 8.40808  17
   1  -1   1 167.657 10.1788   1
  -1  -1  -1 168.616 10.3761  11
   1  -1   1 170.646 13.7004   8
   1  -1   1 150.300 11.1638   2
  -1  -1  -1 180.304 10.6019  21
  -1  -1  -1 169.049 12.3843  19
   1  -1   1 165.123 9.65505  20
  -1  -1  -1 168.905 11.6176  10
   1  -1   1 142.473 11.3896  18
  -1  -1  -1 164.715 6.74820  24
   1  -1   1 153.269 9.95522  21
   1  -1   1 171.568 8.04397   9
   1  -1   1 173.880 10.0510  21
  -1  -1  -1 165.459 9.59033   3
   1   1   1 176.362 8.58522  22
  -1   1  -1 161.185 8.35046  22
  -1   1  -1 165.674 6.98794  16
   1   1   1 162.570 8.73709   1
  -1   1  -1 161.976 8.40817   3
   1   1   1 178.796 9.14507   9
  -1   1  -1 194.706 12.3375  18
  -1   1  -1 140.876 11.9592  19
   1   1   1 164.349 12.0302  18
   1   1   1 168.322 13.1766   8
   1   1   1 173.140 12.3399  19
  -1   1  -1 184.808 12.3165  19
  -1   1  -1 187.711 11.2977  10
  -1   1  -1 156.256 9.78682  20
  -1   1  -1 164.782 10.4870  21
   1   1   1 169.638 10.8542  21
  -1   1  -1 177.758 11.2077  11
  -1   1  -1 146.443 12.0620  18
   1   1   1 186.528 12.1102   2
   1   1   1 168.588 9.98160  20
   2  -1   1 289.508 16.0259  20
  -2  -1  -1 279.500 18.0423  21
   2  -1   1 293.004 22.3994   8
  -2  -1  -1 303.790 19.1037  10
   2  -1   1 282.957 16.8613   1
   2  -1   1 285.300 10.6089  24
   2  -1   1 247.433 14.6651  23
   2  -1   1 291.873 17.3275  21
  -2  -1  -1 254.880 14.9507  23
  -2  -1  -1 279.281 11.0748  24
  -2  -1  -1 293.823 14.4652  17
  -2  -1  -1 274.007 16.7360  11
   2  -1   1 283.108 19.0011   2
  -2  -1  -1 278.578 16.5804   3
  -2  -1  -1 269.983 16.4921  20
   2  -1   1 289.735 14.1654  17
   2   1   1 278.695 14.6572   9
  -2   1  -1 278.641 11.8754  16
  -2   1  -1 291.545 20.8259  19
   2   1   1 289.677 19.7662   2
  -2   1  -1 280.384 11.3506  24
   2   1   1 259.095 17.8327  21
  -2   1  -1 261.022 17.8234  11
   2   1   1 254.232 16.4085  20
  -2   1  -1 310.013 21.0832  18
   2   1   1 248.627 21.9524   8
   2   1   1 260.641 15.5171   1
   2   1   1 265.441 11.3134  24
  -2   1  -1 277.235 18.6688  10
   2   1   1 263.614 14.3572  22
   2   1   1 271.984 20.7389  19
   2   1   1 253.653 20.1653  18
  -2   1  -1 288.607 14.3724  22
   2   1   1 269.382 11.8453  16
   3  -1   1 36.3946 3.97655  12
   3  -1   1 38.8675 7.04110  20
  -3  -1  -1 33.1131 3.56739  14
   3  -1   1 38.4788 7.62284  21
   3  -1   1 41.0526 6.72455  17
  -3  -1  -1 49.1086 13.0480  10
  -3  -1  -1 40.8501 8.08891  20
  -3  -1  -1 29.9650 9.65933  21
   3  -1   1 26.8050 3.76244   7
   3  -1   1 34.2337 3.76728   4
   3  -1   1 40.4693 7.09865  23
   3  -1   1 38.8360 11.7130   1
   3  -1   1 31.7338 15.3979   8
  -3  -1  -1 44.8207 4.07711  24
   3   1   1 50.5013 5.00032  24
   3   1   1 46.8178 4.74826  12
   3   1   1 56.1075 13.9855   2
  -3   1  -1 26.1309 11.5754  10
   3   1   1 43.8653 14.0604   8
  -3   1  -1 32.3526 3.46222  14
  -3   1  -1 32.9256 4.19574  24
   3   1   1 36.7090 3.99725   5
   4  -1   1 57.1654 6.60709  12
  -4  -1  -1 54.6631 5.57323  14
  -4   1  -1 58.1510 6.19709   7
   4   1   1 56.4801 6.06703  24
   4   1   1 57.3350 6.18560  12
  -4   1  -1 57.6735 6.02122  24
  -4   1  -1 58.4068 5.89042  14
   5  -1   1 301.312 13.2663  12
  -5  -1  -1 321.404 12.8204  14
   5   1   1 314.777 13.4153  12
  -5   1  -1 293.911 12.6945  14
   5  -2  -1 319.561 14.1880   4
  -5  -2   1 318.313 13.7022   6
   5   2  -1 317.986 13.9692  12
  -5   2   1 340.742 13.8776  14
  -4  -2   1 323.935 13.8830   6
  -4  -2   1 347.766 19.7836  17
   4  -2  -1 346.014 14.5564   4
  -4  -2   1 309.454 20.8770  23
   4   2  -1 354.690 14.4745  12
  -4   2   1 350.357 14.0240  14
  -4   2   1 320.948 14.7503  24
   4   2  -1 316.208 15.2580  24
  -3  -2   1 1892.61 79.3295  17
   3  -2  -1 1910.12 98.7360  21
  -3  -2   1 1964.28 83.4286  23
  -3  -2   1 1802.77 62.8346   6
  -3  -2   1 1830.00 91.9844  10
  -3  -2   1 1762.28 92.1096  20
   3  -2  -1 1842.53 88.2026  11
  -3  -2   1 1865.92 84.2773   3
   3  -2  -1 1857.26 63.1859  14
   3  -2  -1 1842.52 83.2735  23
   3  -2  -1 1833.12 65.2139   4
   3  -2  -1 1785.42 92.7216  20
   3  -2  -1 1744.01 79.4952  17
  -3  -2   1 1692.23 98.3588  21
   3  -2  -1 1820.82 82.1768   1
  -3  -2   1 1860.67 64.6126   5
  -3  -2   1 1851.45 63.7746  12
   3   2  -1 1712.95 113.965  18
  -3   2   1 1805.84 114.800  18
  -3   2   1 1818.97 69.6398  16
   3   2  -1 1770.12 115.547  19
   3   2  -1 1871.23 108.670   8
   3   2  -1 1851.24 69.5793  16
  -3   2   1 1749.11 92.1079  10
   3   2  -1 1786.90 76.0514   9
  -3   2   1 1871.08 67.1727  24
   3   2  -1 1909.43 82.8204  22
  -3   2   1 1765.48 82.9053  22
  -3   2   1 1686.43 62.7712   6
   3   2  -1 1913.12 96.5614   2
  -3   2   1 1842.24 83.2306   3
   3   2  -1 1830.97 67.2462  24
  -3   2   1 1772.48 115.961  19
  -2  -2   1 30.8190 6.53361   9
   2  -2  -1 20.5034 3.48065  23
  -2  -2   1 25.5116 6.56083  10
  -2  -2   1 26.5240 4.12742  23
  -2  -2   1 34.3742 4.05592  20
  -2  -2   1 36.0039 7.09576   3
   2  -2  -1 27.2158 4.28943  20
   2  -2  -1 26.3566 6.61353   1
  -2  -2   1 30.5994 4.54341  21
   2  -2  -1 36.4589 4.57253  21
   2  -2  -1 46.4572 8.49717  11
  -2  -2   1 23.0388 3.28540  17
   2  -2  -1 33.5167 4.24218  17
   2  -2  -1 34.9543 7.55878   8
   2   2  -1 37.8277 8.58216   2
   2   2  -1 29.0252 2.94169  16
   2   2  -1 36.6705 6.96634  19
  -2   2   1 26.8657 3.63332  22
  -2   2   1 24.3345 3.01989  16
   2   2  -1 27.2213 5.74572   1
  -2   2   1 27.2568 6.45091  19
   2   2  -1 33.9582 8.14751   8
  -2   2   1 20.0925 2.58400  24
  -2   2   1 28.7820 5.30434  18
  -2   2   1 26.7968 6.40511  10
   2   2  -1 26.4259 3.37349  22
  -2   2   1 16.3543 5.78358   3
   2   2  -1 30.8184 6.33292  18
   1  -2  -1 4854.50 226.737  10
   1  -2  -1 5040.94 237.113  20
  -1  -2   1 4990.95 235.208   2
  -1  -2   1 4928.39 225.580  10
  -1  -2   1 4936.05 210.411  23
   1  -2  -1 5079.48 199.834   1
   1  -2  -1 4906.62 217.808  11
   1  -2  -1 4973.62 201.005  17
  -1  -2   1 5043.84 200.593  17
   1  -2  -1 4439.26 236.977  20
   1  -2  -1 5164.98 210.821  23
   1  -2  -1 4694.11 252.553  21
  -1  -2   1 5079.17 204.472   3
  -1  -2   1 5122.01 187.063   9
  -1   2   1 4783.92 185.566   9
  -1   2   1 4806.29 292.754  19
  -1   2   1 4727.67 237.251  20
   1   2  -1 4907.39 199.578   1
   1   2  -1 4890.25 215.142  11
  -1   2   1 4147.75 292.889  19
   1   2  -1 4881.34 289.183  18
  -1   2   1 4849.55 252.996  21
  -1   2   1 4600.15 177.889  16
  -1   2   1 5008.97 289.531  18
  -1   2   1 4005.88 289.568  18
   1   2  -1 4794.49 210.925  22
   1   2  -1 4419.32 262.593   8
  -1   2   1 4469.23 211.528  22
  -1   2   1 4874.22 204.808   3
   1   2  -1 4559.56 292.422  19
   0  -2   1 1174.26 51.2322  23
   0  -2  -1 1173.15 62.1089  21
   0  -2  -1 1180.25 62.2244  21
   0  -2  -1 1180.00 52.0682  23
   0  -2   1 1208.14 59.2496   2
   0  -2   1 1165.25 54.7858  11
   0  -2   1 1172.77 50.5782   1
   0  -2  -1 1145.00 48.8872   1
   0  -2   1 1130.67 56.5255  10
   0  -2  -1 1187.41 58.2930  20
   0  -2  -1 1162.79 55.0294  11
   0  -2   1 1179.49 50.9104   3
   0  -2   1 1208.01 66.3931   8
   0  -2   1 1183.11 46.9562   9
   0   2  -1 1228.74 70.4222  18
   0   2   1 1158.79 64.5496   8
   0   2   1 1129.82 62.5914  21
   0   2   1 1146.90 51.9643  22
   0   2  -1 1137.31 70.3743  18
   0   2   1 1052.66 71.6156  18
   0   2   1 1118.61 46.9688   9
   0   2  -1 1199.61 71.1827  19
   0   2   1 1148.60 58.7508  20
   0   2   1 1180.23 58.7610   2
   0   2   1 1246.09 71.6266  18
   0   2   1 1183.03 72.1825  19
   0   2  -1 1212.67 71.1952  19
   0   2   1 1131.06 72.4429  19
   1  -2   1 163.763 8.34800  17
   1  -2   1 161.117 12.2010  11
  -1  -2  -1 175.903 12.5411  10
   1  -2   1 171.952 8.64651  20
   1  -2   1 179.510 11.3232   1
   1  -2   1 173.484 9.23096  21
  -1  -2  -1 168.328 8.79389  17
   1  -2   1 168.418 8.63437  20
  -1  -2  -1 177.911 9.99813  20
   1  -2   1 172.323 11.8797   2
   1  -2   1 170.409 9.20653  21
  -1  -2  -1 164.313 10.7223  21
   1  -2   1 156.449 7.98067   9
  -1  -2  -1 167.650 10.8844  11
   1  -2   1 169.333 8.81318  23
  -1  -2  -1 146.913 10.0112  20
  -1  -2  -1 190.215 11.1421   3
   1  -2   1 177.487 14.3573   8
  -1  -2  -1 168.310 9.26921  23
  -1  -2  -1 160.267 10.8183  21
  -1   2  -1 177.256 12.4198  18
   1   2   1 159.499 8.76190  22
  -1   2  -1 174.111 6.99822  16
  -1   2  -1 163.441 8.26833  22
  -1   2  -1 184.740 12.3804  19
  -1   2  -1 162.132 12.3786  19
   1   2   1 187.197 12.6015  18
   1   2   1 168.163 7.44342  16
  -1   2  -1 161.138 12.2446  18
  -1   2  -1 171.540 9.46929   3
   1   2   1 166.229 11.6047  21
  -1   2  -1 190.132 12.1843  10
   1   2   1 189.816 13.0522  19
   1   2   1 170.037 14.0861   8
   1   2   1 165.501 10.0814   9
   1   2   1 154.396 10.3337  20
  -2  -2  -1 216.929 15.4104   3
  -2  -2  -1 232.888 13.7117  20
   2  -2   1 217.242 11.5021  17
  -2  -2  -1 207.917 12.0760  17
   2  -2   1 197.702 15.3280   1
  -2  -2  -1 212.523 12.6534  23
   2  -2   1 218.458 20.9755   8
  -2  -2  -1 222.485 8.39966  24
  -2  -2  -1 208.861 16.9530  10
   2  -2   1 202.031 13.3661  21
  -2  -2  -1 230.459 14.8107  21
   2  -2   1 190.972 12.4978  20
   2  -2   1 229.952 12.4619  23
   2   2   1 212.153 13.6371   9
   2   2   1 217.572 19.7331   8
   2   2   1 221.054 18.2964   2
   2   2   1 205.295 9.63541  24
   2   2   1 214.211 17.6101  19
   2   2   1 235.832 12.1159  22
  -2   2  -1 228.684 9.82295  16
  -2   2  -1 225.919 17.0349  11
   2   2   1 218.242 17.2099  18
   2   2   1 205.521 9.90513  16
  -2   2  -1 208.250 17.2239  18
  -2   2  -1 239.829 17.1152  10
  -2   2  -1 215.239 17.2804  19
  -3  -2  -1 37.3761 7.65573  23
   3  -2   1 37.4537 6.31352  23
   3  -2   1 36.9190 6.29017  17
   3  -2   1 42.2896 4.41490  12
   3  -2   1 46.8754 5.19713   4
   3  -2   1 55.8862 13.4480   1
  -3  -2  -1 39.2911 7.49303  20
  -3  -2  -1 42.0359 9.52378  21
   3  -2   1 44.2762 7.37978  20
   3  -2   1 47.5279 8.16465  21
  -3  -2  -1 47.7254 4.63982  14
  -3  -2  -1 56.5025 7.99637  17
   3  -2   1 32.8965 4.24080  15
   3  -2   1 45.9587 5.43228   7
   3  -2   1 37.1626 16.3337   8
  -3  -2  -1 40.1711 13.6924  10
  -3   2  -1 32.0354 3.76777  14
  -3   2  -1 43.9034 10.6147  18
   3   2   1 33.5992 14.3738   2
  -3   2  -1 20.6971 12.3725  10
  -3   2  -1 41.7935 12.9558  11
  -3   2  -1 42.1754 6.28504  22
   3   2   1 30.6853 15.2330   8
  -3   2  -1 33.9417 4.67477  16
   3   2   1 45.6831 5.62206  24
   3   2   1 29.8331 3.64420  12
  -3   2  -1 32.3025 4.35576  24
   3   2   1 44.3704 5.16827   5
  -3   2  -1 16.4521 10.8476  19
   4  -2   1 674.760 27.1789  12
   4  -2   1 701.678 27.7090   4
   4  -2   1 729.041 37.5718  23
  -4  -2  -1 696.569 26.6413  14
  -4   2  -1 744.099 26.8745  14
  -4   2  -1 726.971 28.9502  24
   4   2   1 727.223 28.3919  24
   4   2   1 708.155 27.3005   5
   4   2   1 737.625 27.2276  12
  -5  -2  -1 89.1255 5.94598  14
  -5   2  -1 84.9190 6.00630  14
   5   2   1 91.8318 6.45523  12
   5  -3  -1 19.7468 3.75071   4
  -5  -3   1 21.9336 3.81263   6
   5   3  -1 22.8109 3.90678  12
  -5   3   1 22.5903 3.94076  14
   4  -3  -1 95.7783 11.9474  23
  -4  -3   1 119.682 10.9818  17
   4  -3  -1 120.902 11.7693  17
  -4  -3   1 115.551 7.99504   5
  -4  -3   1 124.934 7.55916   6
  -4  -3   1 97.8077 12.1989  23
   4  -3  -1 129.875 7.87236   4
  -4   3   1 108.047 7.95913  24
   4   3  -1 118.870 7.69041  12
   4   3  -1 105.110 9.00504  24
  -3  -3   1 142.587 8.49923  20
  -3  -3   1 115.134 9.03898  21
   3  -3  -1 137.809 18.3241  11
  -3  -3   1 139.250 19.8626  10
  -3  -3   1 132.572 9.18175  17
   3  -3  -1 116.248 10.2043  21
  -3  -3   1 130.302 7.31732  12
  -3  -3   1 132.303 7.98152  13
   3  -3  -1 129.786 16.4976   1
   3  -3  -1 120.225 7.17659   4
   3  -3  -1 127.751 7.40731  15
   3  -3  -1 120.522 9.54485  17
   3  -3  -1 133.328 9.90116  20
  -3  -3   1 120.109 9.92921  23
  -3  -3   1 121.014 18.1117   3
   3  -3  -1 146.483 10.1045  23
  -3  -3   1 127.450 7.01428   6
   3  -3  -1 129.908 7.12901  14
  -3  -3   1 122.960 7.42108   5
   3  -3  -1 118.438 7.19453   7
  -3   3   1 131.345 7.69300  16
   3   3  -1 102.729 13.9524  19
   3   3  -1 118.175 16.0166   9
  -3   3   1 115.391 17.4153   3
   3   3  -1 104.390 20.1610   8
   3   3  -1 133.943 7.68213  16
  -3   3   1 116.245 9.39082  22
   3   3  -1 122.900 15.1675  18
  -3   3   1 116.438 17.9657  10
  -3   3   1 116.095 6.99564   6
  -3   3   1 125.532 15.0665  18
   3   3  -1 148.093 20.7635   2
  -3   3   1 103.610 16.0145  19
   3   3  -1 132.843 9.29457  22
   2  -3  -1 7324.63 353.495  20
  -2  -3   1 7181.55 306.465   3
   2  -3  -1 7071.91 299.454   1
  -2  -3   1 7054.86 314.705  23
  -2  -3   1 7549.35 299.972  17
  -2  -3   1 7220.48 280.257   9
   2  -3  -1 7640.92 315.096  23
   2  -3  -1 7306.91 376.770  21
   2  -3  -1 7032.58 325.927  11
   2  -3  -1 7184.31 300.528  17
  -2  -3   1 6891.61 338.270  10
   2   3  -1 7045.52 351.739   2
   2   3  -1 7329.68 437.961  19
  -2   3   1 7133.12 306.528   3
  -2   3   1 7339.11 316.406  22
   2   3  -1 6529.63 315.822  22
  -2   3   1 6934.89 438.044  19
  -2   3   1 7326.51 339.602  10
   2   3  -1 6601.20 393.397   8
   2   3  -1 7158.49 432.787  18
  -2   3   1 7215.81 433.077  18
  -2   3   1 7392.10 265.948  16
   1  -3  -1 253.935 12.8612  20
   1  -3  -1 247.593 12.0951  17
  -1  -3   1 237.112 11.6725  23
   1  -3  -1 257.742 16.8157  11
   1  -3  -1 262.692 12.9176  20
  -1  -3   1 258.105 15.0615   3
  -1  -3   1 249.569 14.3247   9
   1  -3  -1 253.600 13.7886  21
  -1  -3   1 253.916 11.1285  17
   1  -3  -1 249.771 12.4766  23
   1  -3  -1 241.421 16.6711  10
   1  -3  -1 252.875 13.7117  21
  -1  -3   1 252.206 15.3221  10
  -1  -3   1 250.777 17.9211   2
   1  -3  -1 262.394 14.5202   1
  -1   3   1 270.676 17.2142  18
   1   3  -1 259.727 16.7773  19
  -1   3   1 254.270 10.3017  16
   1   3  -1 225.738 16.7346  19
   1   3  -1 228.801 14.1227   1
  -1   3   1 269.300 17.6724  19
  -1   3   1 258.278 12.7994   9
   1   3  -1 239.220 16.5906  18
   1   3  -1 254.486 16.7881  18
   1   3  -1 224.572 18.9710   8
  -1   3   1 247.417 16.1605   3
   0  -3  -1 199.404 13.4433  10
   0  -3   1 179.205 13.7951   2
   0  -3   1 203.537 13.0276  10
   0  -3  -1 191.803 9.19787  17
   0  -3  -1 174.609 9.92764   1
   0  -3   1 203.808 15.3247   8
   0  -3  -1 182.492 12.9323  11
   0  -3  -1 186.950 9.67535  23
   0  -3   1 191.203 11.1094   9
   0  -3   1 196.760 11.5281   3
   0  -3   1 169.902 12.6589  11
   0  -3   1 189.487 11.9041   1
   0   3   1 189.769 7.91372  16
   0   3   1 207.667 14.9435  19
   0   3   1 190.457 9.41066  22
   0   3   1 204.177 13.6282   2
   0   3   1 181.332 13.2769   8
   0   3   1 206.091 13.4964  19
   0   3   1 189.558 10.9432   9
   0   3   1 206.230 13.5967  18
   1  -3   1 587.796 26.3000  23
  -1  -3  -1 589.000 31.5677  21
   1  -3   1 574.485 36.5229   8
  -1  -3  -1 528.768 31.4972  21
  -1  -3  -1 565.212 29.7579  20
  -1  -3  -1 601.765 29.4482  20
  -1  -3  -1 624.128 29.0190   3
  -1  -3  -1 590.547 32.1854  10
   1  -3   1 598.152 31.2233  11
   1  -3   1 567.512 31.4013   2
   1  -3   1 597.079 28.8669   1
  -1  -3  -1 582.052 27.1850  23
  -1  -3  -1 574.907 29.8852  11
  -1  -3  -1 614.228 25.8137  17
  -1   3  -1 608.011 31.5790  10
  -1   3  -1 500.004 27.2676   3
   1   3   1 614.868 37.2507  18
   1   3   1 572.562 26.8456  22
  -1   3  -1 538.843 36.5147  18
   1   3   1 575.772 36.3905   8
  -1   3  -1 557.558 36.9997  19
  -1   3  -1 560.269 26.0344  22
   1   3   1 544.017 26.4342   9
   1   3   1 644.754 38.1626  19
  -1   3  -1 572.863 21.8788  16
   1   3   1 585.332 33.6350   2
   1   3   1 562.126 22.5270  16
  -2  -3  -1 20.7664 4.11341  20
  -2  -3  -1 13.8724 9.07013  10
   2  -3   1 10.5641 11.5244   8
  -2  -3  -1 20.1744 8.59681   3
  -2  -3  -1 12.4882 4.04299  17
  -2  -3  -1 12.9348 5.48330  21
   2  -3   1 13.5607 9.08741   1
  -2  -3  -1 12.4051 4.16896  23
   2  -3   1 13.0543 3.52673  23
   2  -3   1 14.4078 3.77661  17
   2   3   1 19.8214 4.16568  22
  -2   3  -1 13.5772 6.67927  18
   2   3   1 6.33834 10.7208   2
   2   3   1 13.8007 7.30308   9
   2   3   1 9.77223 7.34213  19
   2   3   1 15.0982 10.0579   8
   2   3   1 9.96561 5.63712  18
  -2   3  -1 13.0733 2.61064  16
   2   3   1 21.2231 3.39265  16
  -2   3  -1 15.0842 7.38380  19
  -2   3  -1 15.2318 9.22702  10
  -3  -3  -1 709.369 41.3249   3
   3  -3   1 765.930 42.5009   1
  -3  -3  -1 760.798 35.6046  17
   3  -3   1 777.948 36.8380  23
   3  -3   1 747.410 28.0382  15
  -3  -3  -1 767.903 29.0644  13
  -3  -3  -1 717.041 27.4697  14
  -3  -3  -1 767.067 37.8404  23
  -3  -3  -1 759.821 46.5684  10
   3  -3   1 758.860 27.7201  14
   3  -3   1 770.517 35.0946  17
  -3  -3  -1 754.665 27.3329   6
   3  -3   1 781.560 28.5697   7
   3  -3   1 750.131 28.6275   4
   3   3   1 711.619 30.7695  16
   3   3   1 722.879 37.0558   9
  -3   3  -1 750.614 30.7305  16
  -3   3  -1 723.830 44.5771  11
   3   3   1 735.127 27.8028  12
   3   3   1 734.254 29.7248  24
  -3   3  -1 703.358 46.4893  10
   3   3   1 760.857 48.6609   2
   3   3   1 739.468 37.0648  22
   3   3   1 788.416 55.3564   8
  -3   3  -1 772.740 36.8842  22
   4  -3   1 6.51826 4.30328   7
   4  -3   1 6.15395 7.19171  23
  -4  -3  -1 5.93772 8.86555  23
  -4  -3  -1 3.77571 7.91293  17
   4  -3   1 14.5643 7.37533  17
   4  -3   1 6.41544 4.01869   4
  -4  -3  -1 12.1011 3.64847  14
   4   3   1 13.1633 3.75964  12
   4   3   1 6.67164 5.35175  24
   4   3   1 8.92989 3.83046   5
  -4   3  -1 9.67502 5.22334  24
  -4   3  -1 9.58369 3.73677  14
  -5  -3  -1 87.1204 5.60306  14
   5  -3   1 84.3613 6.39472   4
   5   3   1 86.0897 6.23501  12
  -5   3  -1 103.287 5.84810  14
  -5  -4   1 2.49568 3.04043   6
   5  -4  -1 5.06481 3.16228   4
   5   4  -1 4.05851 3.05486  12
  -5   4   1 3.95796 3.24945  14
   5   4  -1 7.29634 3.17952   5
  -4  -4   1 100.337 6.73899   6
   4  -4  -1 93.1880 6.89153  14
   4  -4  -1 74.5774 10.0010  23
  -4  -4   1 101.124 7.44868   5
  -4  -4   1 79.3436 10.4339  23
  -4  -4   1 85.6415 10.1271  17
  -4  -4   1 100.264 8.13982  13
   4  -4  -1 91.7324 10.4781  17
   4  -4  -1 93.9422 7.22755   4
   4   4  -1 89.9333 10.5076  22
  -4   4   1 73.9903 7.91523  24
   4   4  -1 78.3822 8.78551  16
   4   4  -1 101.745 7.28902  12
   3  -4  -1 495.282 19.7549  14
   3  -4  -1 562.882 25.3578  17
  -3  -4   1 488.196 33.3737   3
  -3  -4   1 499.981 20.3797   5
   3  -4  -1 536.904 33.2926   1
  -3  -4   1 501.945 19.9418  12
  -3  -4   1 523.865 24.5372  17
  -3  -4   1 511.762 25.7358  23
  -3  -4   1 502.076 19.6521   6
   3  -4  -1 520.821 25.9083  23
   3  -4  -1 496.558 20.0737  15
  -3  -4   1 508.655 21.0479  13
   3  -4  -1 511.407 20.2528   7
   3  -4  -1 496.581 20.3150   4
   3  -4  -1 510.624 35.0307  11
   3   4  -1 521.803 29.8156   9
  -3   4   1 522.599 26.5124  22
  -3   4   1 492.937 19.3812   6
   3   4  -1 527.146 21.8659  16
   3   4  -1 528.217 25.9986  22
  -3   4   1 505.742 21.9166  16
   3   4  -1 565.740 38.7495  18
   3   4  -1 484.625 43.3521   8
   3   4  -1 489.937 38.8856   2
  -3   4   1 437.296 34.3944  10
   2  -4  -1 11.7291 9.16348   1
  -2  -4   1 20.9366 3.40181  12
  -2  -4   1 16.1061 9.24647  10
   2  -4  -1 18.3799 11.7674  11
  -2  -4   1 19.6355 3.96700  13
   2  -4  -1 23.6969 3.08172  14
  -2  -4   1 14.5935 2.94281   6
  -2  -4   1 19.8124 3.41394  17
   2  -4  -1 17.3630 3.40001  23
  -2  -4   1 13.4802 3.10407  23
   2  -4  -1 17.1683 3.09597   7
  -2  -4   1 14.9345 8.83257   3
   2  -4  -1 25.0788 3.65815   4
   2  -4  -1 19.4892 4.01564  17
  -2  -4   1 23.0886 3.79198   5
   2  -4  -1 26.5720 3.70422  15
   2   4  -1 24.1837 3.31818  16
  -2   4   1 20.1846 10.5730  10
  -2   4   1 24.4384 3.22201  16
  -2   4   1 22.3301 9.03354   3
   2   4  -1 17.4636 11.2862   8
  -2   4   1 20.8658 5.94216  18
   2   4  -1 24.0628 3.62387  22
   2   4  -1 12.3786 5.75632  18
   2   4  -1 13.4871 11.3141   2
  -2   4   1 28.2760 8.10669  19
   2   4  -1 22.0180 8.79713  19
  -2   4   1 16.6686 4.09933  22
   1  -4  -1 92.4538 6.22854  17
   1  -4  -1 106.867 13.6849  11
   1  -4  -1 113.548 6.33522  23
   1  -4  -1 104.277 10.6177   1
   1  -4  -1 112.716 13.4410  10
  -1  -4   1 94.6717 11.1105   3
  -1  -4   1 86.4207 10.9911   9
  -1  -4   1 106.983 11.6369  10
   1   4  -1 96.5172 8.17879  19
  -1   4   1 102.239 5.23905  16
   1   4  -1 104.486 15.1889   8
  -1   4   1 98.8783 8.85584  18
   1   4  -1 100.484 14.1126   2
   1   4  -1 85.5433 7.83453  18
  -1   4   1 110.564 9.31240  19
  -1   4   1 101.965 6.34091  22
  -1   4   1 86.2829 12.7586   3
   0  -4   1 211.213 18.2603   8
   0  -4   1 185.302 12.8891   9
   0  -4  -1 185.276 10.3328  23
   0  -4  -1 185.636 9.89131  17
   0  -4  -1 243.602 16.7915  10
   0  -4   1 229.919 15.7439  11
   0  -4   1 220.531 14.4980   1
   0  -4   1 217.420 14.9380  10
   0  -4   1 221.940 13.6286   3
   0  -4   1 209.120 16.5684   2
   0  -4  -1 199.458 15.9238  11
   0   4   1 211.742 13.1700   9
   0   4   1 226.120 16.3248   2
   0   4   1 193.750 14.9078  18
   0   4   1 208.134 8.60766  16
   0   4   1 200.037 10.1833  22
   0   4   1 211.811 14.9995  19
   1  -4   1 654.013 41.8831   8
  -1  -4  -1 686.201 37.6105  10
   1  -4   1 671.238 33.5104   1
  -1  -4  -1 616.244 34.6904  11
  -1  -4  -1 673.802 29.2549  17
  -1  -4  -1 678.960 30.8823  23
   1  -4   1 632.639 36.2891  11
  -1  -4  -1 661.038 33.9298   3
  -1   4  -1 642.600 42.3709  19
  -1   4  -1 679.065 25.0401  16
   1   4   1 690.209 42.8838  18
  -1   4  -1 650.769 36.9576  10
   1   4   1 668.368 25.9284  16
  -1   4  -1 623.156 29.7196  22
   1   4   1 691.420 31.4535   9
   1   4   1 640.957 43.5329  19
   1   4   1 626.564 42.9481   8
  -1   4  -1 689.996 41.9606  18
   1   4   1 676.488 30.8440  22
   1   4   1 666.929 39.2744   2
  -2  -4  -1 273.640 11.4874  14
   2  -4   1 267.749 11.8466   7
  -2  -4  -1 275.108 14.4955  17
   2  -4   1 261.256 11.9589   4
  -2  -4  -1 280.145 12.0453   5
  -2  -4  -1 264.418 23.3227  10
  -2  -4  -1 277.795 21.4106   3
   2  -4   1 292.421 22.5822   1
  -2  -4  -1 269.478 11.3075   6
  -2  -4  -1 267.263 12.2616  13
   2  -4   1 281.077 11.4779  14
   2  -4   1 263.832 11.8338  15
  -2  -4  -1 281.989 15.5047  23
   2  -4   1 266.012 14.2036  23
   2   4   1 251.140 25.8001   8
   2   4   1 298.296 19.7357   9
   2   4   1 269.722 22.6078  19
   2   4   1 292.909 15.3788  22
   2   4   1 260.576 25.2033   2
  -2   4  -1 291.322 22.6720  10
  -2   4  -1 255.521 21.7640  18
  -2   4  -1 258.340 14.6746  22
  -2   4  -1 274.566 12.0146  16
  -2   4  -1 261.854 22.0101  19
   2   4   1 281.305 21.6455  18
   2   4   1 290.326 12.5806  16
   3  -4   1 200.607 9.94658  14
  -3  -4  -1 217.768 10.9082  13
  -3  -4  -1 200.778 14.7009  23
  -3  -4  -1 208.834 13.7360  17
   3  -4   1 206.074 13.4027  23
  -3  -4  -1 203.764 9.93044   6
   3  -4   1 212.448 10.4950   7
  -3  -4  -1 203.685 10.1554  14
   3  -4   1 219.335 10.6455   4
   3  -4   1 210.072 10.4192  15
   3   4   1 223.562 15.0375  22
   3   4   1 201.233 11.6435  16
   3   4   1 207.986 10.0760  12
  -3   4  -1 197.469 13.6009  22
  -3   4  -1 220.258 11.6359  16
  -4  -4  -1 847.326 31.6349  14
   4  -4   1 855.835 32.9101   7
   4  -4   1 922.586 33.2307   4
   4  -4   1 840.160 32.6099  15
  -4  -4  -1 873.289 40.9607  17
   4  -4   1 778.634 39.7199  17
   4   4   1 847.603 32.5913   5
   4   4   1 911.842 34.4235  24
  -4   4  -1 896.923 31.8389  14
   4   4   1 889.733 32.1282  12
  -5  -5   1 11.8365 2.84011   6
   5  -5  -1 16.4512 3.29095   4
  -5   5   1 15.4661 2.88828  14
   5   5  -1 15.1705 2.91480   5
   5   5  -1 10.2108 2.91791  12
   4  -5  -1 70.6877 9.20995  17
  -4  -5   1 75.8534 8.74918  17
   4  -5  -1 77.2218 6.60460  14
  -4  -5   1 99.3754 7.38798   5
   4  -5  -1 85.3494 7.02502   4
  -4  -5   1 86.8081 6.37520   6
   4  -5  -1 77.2934 6.98516  15
   4  -5  -1 93.2429 7.21925   7
  -4  -5   1 72.4008 7.24405  13
   4   5  -1 72.3243 6.69257  12
  -3  -5   1 136.606 8.80112  13
   3  -5  -1 132.736 7.92493  15
  -3  -5   1 141.113 8.28551   5
   3  -5  -1 140.182 9.76666  17
  -3  -5   1 120.729 8.03132  12
  -3  -5   1 147.033 7.89789   6
  -3  -5   1 124.270 8.85742  17
   3  -5  -1 137.258 8.40584   4
   3  -5  -1 133.106 8.03775  14
   3  -5  -1 137.037 8.34967   7
   3  -5  -1 136.176 10.1451  23
  -3  -5   1 129.605 9.43208  23
  -3   5   1 111.114 8.80840  16
   3   5  -1 138.600 9.09458  16
   3   5  -1 129.014 10.8882  22
  -3   5   1 139.141 11.2951  22
   2  -5  -1 104.741 7.21277  17
  -2  -5   1 92.0575 6.64488  12
   2  -5  -1 74.1510 16.8353  11
   2  -5  -1 92.1610 5.99165   6
   2  -5  -1 100.473 6.59199   4
  -2  -5   1 103.059 14.6511   3
   2  -5  -1 117.961 16.1629   1
   2  -5  -1 104.666 7.44717  23
   2  -5  -1 96.6415 6.25963  14
  -2  -5   1 103.791 6.24717   6
  -2  -5   1 100.894 6.99104   5
   2  -5  -1 90.2145 6.56999   7
  -2  -5   1 104.447 7.27208  13
  -2   5   1 76.4568 13.4626   3
   2   5  -1 96.3332 19.0811   2
   2   5  -1 106.455 6.54008  16
  -2   5   1 99.7799 12.2987  18
   2   5  -1 88.1042 12.2493  18
   2   5  -1 106.882 7.39403  22
  -2   5   1 103.667 16.4246  10
   2   5  -1 94.0229 20.0888   8
   2   5  -1 57.8942 13.0901   9
   1  -5  -1 37.9635 10.7570  10
  -1  -5   1 41.3851 4.84155   5
   1  -5  -1 34.7809 4.09902  17
  -1  -5   1 30.9702 3.32419   6
  -1  -5   1 41.9920 5.20731  13
   1  -5  -1 36.7135 3.92264  23
   1  -5  -1 37.8423 4.28387   6
   1  -5  -1 30.8236 3.65902   7
  -1  -5   1 26.1643 8.60369   3
   1  -5  -1 33.6305 3.98998  15
   1  -5  -1 36.6217 3.58066  14
  -1  -5   1 37.2152 11.0584  10
   1  -5  -1 38.0433 12.4537  11
   1   5  -1 44.9884 6.36813  18
   1   5  -1 33.3968 6.96689  19
  -1   5   1 15.6650 6.51176  19
  -1   5   1 43.0198 4.81926  22
   1   5  -1 33.8720 13.7533   2
   1   5  -1 35.9151 14.6873   8
  -1   5   1 40.7961 11.2161   3
   1   5  -1 40.9747 10.3165   9
  -1   5   1 38.0088 3.83249  16
   0  -5  -1 112.606 6.32300  17
   0  -5   1 119.208 15.5533   1
   0  -5  -1 123.642 6.45154   6
   0  -5  -1 133.633 16.6214  10
   0  -5   1 131.619 15.1644  11
   0  -5  -1 112.124 15.5409  11
   0  -5  -1 106.031 6.65625   7
   0  -5  -1 122.513 6.70196  23
   0  -5  -1 121.720 6.43877  14
   0  -5   1 108.926 14.8167  10
   0   5   1 121.359 13.3409   9
   0   5  -1 120.038 14.8488   3
   0   5   1 89.4602 11.1046  19
   0   5   1 121.594 5.96418  16
   0   5   1 120.691 7.03487  22
   0   5   1 133.260 15.1055   3
   0   5   1 120.484 11.3087  18
   1  -5   1 218.962 9.91512  15
  -1  -5  -1 209.309 10.1715  13
  -1  -5  -1 198.934 18.2229   3
  -1  -5  -1 209.552 9.57563  14
  -1  -5  -1 233.434 11.0095  17
  -1  -5  -1 217.792 9.54494   6
   1  -5   1 212.786 9.49014  14
   1  -5   1 230.094 18.9676   1
   1  -5   1 211.258 20.5324  11
  -1  -5  -1 203.642 11.6589  23
  -1  -5  -1 216.839 20.5793  10
  -1  -5  -1 215.627 9.93355   7
  -1  -5  -1 178.559 9.64674   5
   1  -5   1 215.208 10.0921   7
   1  -5   1 226.905 9.98794   4
  -1   5  -1 240.861 16.3930  18
   1   5   1 218.455 17.6115   9
  -1   5  -1 216.801 9.07736  16
   1   5   1 236.576 18.6739  19
   1   5   1 214.675 17.3627  18
  -1   5  -1 231.304 20.7887  10
   1   5   1 221.366 22.5856   2
   1   5   1 257.114 12.3487  22
  -1   5  -1 223.059 10.8476  22
   1   5   1 237.503 10.1653  16
  -1   5  -1 188.515 16.1168  19
  -2  -5  -1 1129.77 40.1388   6
   2  -5   1 1143.73 41.1398  15
   2  -5   1 1124.44 41.7721   4
  -2  -5  -1 1044.12 56.6965   3
  -2  -5  -1 1126.38 42.6776  13
  -2  -5  -1 1139.38 49.5431  17
  -2  -5  -1 1150.28 52.4158  23
  -2  -5  -1 1073.88 63.6916  10
   2  -5   1 1158.71 41.6609   7
  -2  -5  -1 1115.60 41.4507   5
   2  -5   1 1138.84 40.4733  14
  -2  -5  -1 1166.09 40.5447  14
   2  -5   1 1100.93 56.7341   1
   2   5   1 1048.80 66.7682   2
   2   5   1 1203.10 53.1589   9
  -2   5  -1 983.793 61.9327  10
   2   5   1 1159.85 44.4232  16
   2   5   1 1173.37 53.2529  22
  -2   5  -1 1151.39 43.8454  16
  -2   5  -1 1157.50 52.4960  22
  -3  -5  -1 -0.4797 5.31466  17
   3  -5   1 5.09192 3.55341  14
   3  -5   1 5.19269 4.03520  23
  -3  -5  -1 5.32635 4.66383  13
  -3  -5  -1 5.35432 6.36516  23
  -3  -5  -1 0.76369 3.73708   6
   3  -5   1 -0.7492 3.92405  15
   3  -5   1 7.50665 4.26858  17
   3  -5   1 4.31520 3.93830   4
  -3  -5  -1 2.24358 3.84230  14
   3  -5   1 2.66172 3.54063   7
   3   5   1 0.50525 3.71700  12
   3   5   1 0.30178 4.81487  16
  -3   5  -1 1.43143 4.26829  16
  -3   5  -1 4.19002 5.96407  22
   3   5   1 2.17452 8.22420  22
   4  -5   1 191.359 9.68095  15
  -4  -5  -1 170.682 8.91468   6
  -4  -5  -1 186.250 8.99092  14
   4  -5   1 162.423 9.30936   7
  -4  -5  -1 188.566 9.77122  13
   4  -5   1 157.534 9.30076   4
   4   5   1 177.062 9.24946   5
   4   5   1 174.074 9.12100  12
  -4   5  -1 176.645 8.71772  14
  -4  -6   1 31.1048 3.85409   6
   4  -6  -1 38.7704 4.90553  15
   4  -6  -1 36.7537 4.51592   4
   4  -6  -1 38.5747 4.44761  14
  -4  -6   1 33.2638 4.74623  13
   4  -6  -1 26.1731 4.06541   7
   4   6  -1 25.6333 3.98831  12
   3  -6  -1 79.4429 6.34521  23
   3  -6  -1 92.1312 7.16385  14
  -3  -6   1 94.8747 7.87407  13
   3  -6  -1 107.393 7.36055  15
   3  -6  -1 99.2652 7.54685   4
  -3  -6   1 86.4683 7.69058   5
   3  -6  -1 94.8769 7.27147   7
  -3  -6   1 93.5500 6.74381   6
  -3   6   1 105.299 8.09810  16
   3   6  -1 94.1218 8.33228  16
   3   6  -1 86.9892 10.1669  22
  -3   6   1 90.1355 10.4051  22
  -2  -6   1 6.71369 4.25885  13
  -2  -6   1 4.20090 3.28010   6
   2  -6  -1 3.04883 3.23801   6
  -2  -6   1 -1.2457 4.05272   5
   2  -6  -1 -0.1361 3.48931   7
   2  -6  -1 5.85354 3.91831  15
  -2  -6   1 1.08990 4.03440  12
   2  -6  -1 0.98355 3.28784  14
   2   6  -1 2.08914 3.67803  16
  -2   6   1 0.18430 3.77665  16
  -2   6   1 -2.9462 5.35454  22
   2   6  -1 -0.5585 4.56502  22
  -2   6   1 4.95816 13.9607   3
   1  -6  -1 5.94905 3.11586   6
   1  -6  -1 4.68725 3.57777   7
  -1  -6   1 4.43961 3.68380   5
   1  -6  -1 4.49160 16.5536  11
   1  -6  -1 3.21574 3.58373  15
  -1  -6   1 3.64324 10.0385   3
  -1  -6   1 0.99542 3.73796  13
  -1  -6   1 3.66315 3.15399   6
   1  -6  -1 4.40956 3.18327  14
   1   6  -1 1.67319 4.24959  18
  -1   6   1 2.30697 13.1953   3
   1   6  -1 -3.6221 17.8587   2
  -1   6   1 4.17850 3.13892  16
   1   6  -1 2.96720 11.2354   9
  -1   6   1 5.62384 4.05659  22
   0  -6  -1 224.360 23.4306  11
   0  -6  -1 298.312 26.5028  10
   0  -6  -1 299.650 12.2201  14
   0  -6  -1 308.926 12.2014   6
   0  -6   1 279.994 11.9033  14
   0  -6   1 256.801 11.8354   6
   0  -6   1 282.451 12.4507   7
   0  -6  -1 277.378 12.6071  15
   0  -6  -1 269.364 12.6365  13
   0  -6  -1 274.609 12.7973   7
   0   6   1 313.678 12.8246  16
   0   6   1 287.131 24.6770   3
   0   6  -1 309.051 24.6248  10
   0   6   1 308.020 21.8291  18
   0   6   1 303.156 14.8182  22
   1  -6   1 24.1907 4.15245   4
   1  -6   1 29.6318 3.99263  14
  -1  -6  -1 31.7965 16.7759  10
  -1  -6  -1 25.4581 3.74507  14
   1  -6   1 26.2196 4.20272   7
  -1  -6  -1 22.9629 3.68835   6
  -1  -6  -1 28.3146 4.57002  13
   1  -6   1 23.7341 4.11424  15
  -1  -6  -1 33.3880 4.63747   5
  -1  -6  -1 23.7814 4.01848   7
   1  -6   1 4.83849 13.5899   1
   1   6   1 24.8381 13.6094   9
   1   6   1 28.2403 3.91545  16
  -1   6  -1 13.3791 13.8158  10
   1   6   1 40.2115 5.96914  22
  -1   6  -1 32.4631 3.18738  16
  -1   6  -1 27.6089 4.59475  22
   1   6   1 13.4775 13.1963   3
  -2  -6  -1 783.117 30.3348  13
   2  -6   1 760.344 28.6891  14
  -2  -6  -1 736.031 35.5489  23
   2  -6   1 779.195 29.3176  15
  -2  -6  -1 747.554 33.7962  17
  -2  -6  -1 778.879 29.5136   5
   2  -6   1 812.226 29.7835   7
  -2  -6  -1 815.059 28.5553   6
   2  -6   1 782.228 29.8503   4
  -2  -6  -1 768.007 28.7720  14
  -2   6  -1 740.309 36.9452  22
   2   6   1 779.766 37.9649  22
   2   6   1 803.871 31.6550  16
  -2   6  -1 765.833 30.7928  16
   3  -6   1 592.899 23.9155   7
  -3  -6  -1 615.416 24.5291  13
  -3  -6  -1 610.786 23.2676  14
   3  -6   1 625.442 23.8115  15
   3  -6   1 628.483 23.2704  14
  -3  -6  -1 604.854 22.9128   6
  -3  -6  -1 598.191 27.3364  17
   3  -6   1 621.274 24.2581   4
   3   6   1 598.940 26.1248  16
  -3   6  -1 610.055 25.8508  16
   3   6   1 531.339 31.5426  22
   3   6   1 628.468 23.8747   5
  -4  -6  -1 88.0278 5.65422  14
   4  -6   1 98.3891 6.83850   4
   4  -6   1 92.2322 6.52664   7
   4  -6   1 95.3029 6.41905  15
  -4  -6  -1 86.6594 5.79651   6
  -4   6  -1 86.2136 5.78485  14
   4   6   1 104.521 6.46374   5
   4  -7  -1 -0.5662 3.00602  15
   4  -7  -1 0.44402 3.05033   4
  -4  -7   1 3.07823 2.67140   6
   4  -7  -1 1.50971 3.00952   7
  -4  -7   1 4.73624 3.36313  13
   4   7  -1 1.34677 2.76984  12
   4   7  -1 1.51873 3.17771   5
   3  -7  -1 245.834 11.0508  14
   3  -7  -1 233.980 11.4409  15
  -3  -7   1 238.899 11.5555  13
  -3  -7   1 233.696 10.8430   6
   3  -7  -1 229.398 11.3694   7
  -3  -7   1 215.101 11.3139   5
   2  -7  -1 212.360 10.4607  14
   2  -7  -1 220.209 10.8723  15
   2  -7  -1 210.486 11.0015   7
  -2  -7   1 219.225 11.0179   5
  -2  -7   1 217.030 11.3287  13
  -2  -7   1 215.915 10.3712   6
   2  -7  -1 207.961 10.1601   6
  -2   7   1 210.699 14.1513  22
   2   7  -1 227.703 11.2460  16
   2   7  -1 218.137 13.6643  22
  -2   7   1 219.293 11.2606  16
  -1  -7   1 376.047 16.8830  13
   1  -7  -1 395.726 16.7863  15
  -1  -7   1 397.617 16.0918   6
   1  -7  -1 397.160 16.0511   6
   1  -7  -1 403.388 16.3071  14
   1  -7  -1 389.329 16.7640   7
  -1   7   1 398.684 20.3536  22
  -1   7   1 411.699 17.2699  16
   0  -7   1 28.0264 4.06498  14
   0  -7  -1 32.1492 4.78599   7
   0  -7  -1 32.1249 4.37346   6
   0  -7  -1 29.4482 4.11894  14
   0   7   1 30.1447 4.49789  16
   0   7   1 33.4338 5.38369  22
  -1  -7  -1 15.5951 4.38973   7
  -1  -7  -1 28.5402 4.63134  13
   1  -7   1 21.9880 4.36464   7
  -1  -7  -1 25.2691 4.09196  14
  -1  -7  -1 24.4526 3.89531   6
   1  -7   1 13.6385 4.14123  15
   1  -7   1 15.7440 3.74445  14
  -1   7  -1 22.5056 3.56351  16
   1   7   1 22.2966 5.77014  22
  -1   7  -1 16.8702 5.11259  22
   1   7   1 11.0781 4.57620  16
   2  -7   1 43.3730 4.96257   7
   2  -7   1 42.4077 4.61765  14
   2  -7   1 48.1999 5.42380   4
  -2  -7  -1 46.2765 5.06597  14
  -2  -7  -1 53.3188 5.02354   6
  -2  -7  -1 40.8016 5.10824  13
   2  -7   1 63.8798 5.98441  15
   2   7   1 28.5235 5.34019  16
  -2   7  -1 18.3041 6.30612  22
   2   7   1 31.3687 4.54310   5
   2   7   1 28.5815 7.04148  22
  -2   7  -1 34.6890 4.80390  16
  -3  -7  -1 836.329 31.3318  13
   3  -7   1 799.783 30.5384   7
   3  -7   1 796.804 30.2849  15
   3  -7   1 777.301 29.5354  14
   3  -7   1 812.622 30.9169   4
  -3  -7  -1 804.143 29.5327  14
  -3  -7  -1 825.479 29.4441   6
   3   7   1 819.433 30.3529   5
  -3  -8   1 183.218 9.52160  13
   3  -8  -1 201.816 9.08609  14
  -3  -8   1 187.825 9.00250   6
   3  -8  -1 199.111 9.32309  15
  -2  -8   1 13.3025 4.09899   5
   2  -8  -1 9.60149 3.68240   7
  -2  -8   1 9.76364 3.84069   6
  -2  -8   1 12.2734 4.28787  13
   2  -8  -1 15.2003 4.11370  15
   2  -8  -1 6.78698 3.64682  14
   1  -8  -1 166.442 9.19078   7
   1  -8  -1 156.629 8.76758  14
  -1  -8   1 152.264 8.46785   6
   1  -8  -1 156.787 8.83900  15
   1  -8  -1 153.527 8.50498   6
  -1   8   1 161.279 9.32177  16
   0  -8  -1 0.85810 3.91265   7
   0  -8  -1 3.83245 3.43908   6
   0  -8  -1 -1.1008 3.52956  14
   0   8   1 0.43290 4.20691  16
   0   8   1 2.91173 5.82195  22
  -1  -8  -1 547.912 20.6505   6
   1  -8   1 541.962 21.3153   7
   1  -8   1 532.706 21.0521  15
   1  -8   1 532.123 20.5642  14
  -1  -8  -1 514.019 21.5497  13
  -1  -8  -1 545.416 20.7590  14
   2  -8   1 180.236 9.03551   7
   2  -8   1 165.226 8.46120  14
  -2  -8  -1 170.401 8.69699  14
  -2  -8  -1 164.913 9.09825  13
  -2  -8  -1 170.364 8.46103   6
   2  -8   1 166.137 8.82515  15
   3  -8   1 140.724 7.12213   7
  -3  -8  -1 133.108 6.61311   6
   3  -8   1 139.719 7.11293  15
  -3   8  -1 119.335 6.60278  14
   2  -9  -1 583.191 22.2677   7
   2  -9  -1 589.017 21.6851  14
  -2  -9   1 565.966 21.3675   6
   2  -9  -1 592.706 21.9618  15
  -1  -9   1 0.60134 3.04302   6
   1  -9  -1 3.04158 3.39270   7
   1  -9  -1 6.82507 2.71967   6
   1  -9  -1 5.66931 3.03790  14
   0  -9  -1 349.471 14.0705  14
   0  -9  -1 353.639 14.5513   7
   0  -9  -1 325.099 13.6389   6
  -1  -9  -1 139.528 7.41450  14
  -1  -9  -1 142.649 7.20936   6
  -2  -9  -1 75.8480 4.84030   6
   5   0  -2 28.0296 4.41567   4
  -5   0   2 32.5448 4.41704   6
   4   0  -2 4168.89 146.415  12
  -4   0   2 4308.64 145.072   6
  -4   0   2 4341.42 189.379   3
  -4   0   2 4266.99 152.976  24
   4   0  -2 4121.94 184.389   1
   4   0  -2 4325.76 154.102  24
   4   0  -2 4238.27 150.016   4
  -3   0   2 64.7863 9.43188  21
  -3   0   2 54.0281 3.76125  24
  -3   0   2 64.4022 11.2999  10
  -3   0   2 47.7230 9.24194   3
   3   0  -2 58.7623 13.4179   8
  -3   0   2 55.0588 7.62932  20
   3   0  -2 61.7842 10.6283   1
  -2   0   2 5.39406 5.02539   9
  -2   0   2 3.77368 3.93511  18
   2   0  -2 3.23761 5.36081  19
   2   0  -2 0.63818 2.11440  16
  -2   0   2 3.47476 3.33181  20
  -2   0   2 2.88898 2.99081  23
  -2   0   2 3.67767 4.87761  19
  -2   0   2 2.46652 6.61559   2
   2   0  -2 2.11597 4.53819  18
   2   0  -2 1.30659 2.34002  22
   2   0  -2 0.66184 5.60104   1
  -2   0   2 -0.1547 4.60210   3
   2   0  -2 2.82397 1.99613  24
   2   0  -2 3.16120 3.80011  21
   2   0  -2 1.46927 3.62421  20
   2   0  -2 -0.3099 6.22209   8
   2   0  -2 2.53416 5.68181  11
  -2   0   2 4.13942 1.60458  24
  -2   0   2 -0.7419 5.16795  10
  -2   0   2 2.41956 3.26376  17
  -2   0   2 2.74048 3.68017  21
   1   0  -2 10.2695 1.82264  22
  -1   0   2 12.4779 3.22017  19
  -1   0   2 12.3076 3.11549  21
  -1   0   2 2.77621 1.92610  20
   1   0  -2 8.24699 1.73040  16
  -1   0   2 7.03150 2.28127  10
  -1   0   2 10.2333 1.33029  24
  -1   0   2 3.72325 2.42749  21
  -1   0   2 11.0712 3.06621  18
   1   0  -2 7.64171 3.86926   1
   1   0  -2 12.0171 4.33838  11
  -1   0   2 9.81222 3.50076   3
  -1   0   2 7.04896 4.77184   8
  -1   0   2 7.48402 2.29586  23
   1   0  -2 12.6088 3.82201  18
   1   0  -2 7.18490 2.41050  20
  -1   0   2 8.46570 4.52161   2
  -1   0   2 13.0473 2.74933  20
   1   0  -2 8.98672 2.97328  19
   1   0  -2 12.1407 2.85657  21
  -1   0   2 8.24714 3.65333   9
   0   0   2 38.1161 4.78635  19
   0   0   2 38.5331 4.31921  21
   0   0  -2 33.3426 5.00302  18
   0   0  -2 43.6200 5.19499  19
   0   0  -2 40.5860 4.98322   1
   0   0  -2 42.5528 4.24631  21
   0   0  -2 47.4707 6.35951  11
   0   0   2 40.8290 6.73392   2
   0   0   2 43.4422 4.43989  23
   0   0   2 37.4151 3.98744   3
   0   0   2 43.6415 5.01225  18
   0   0   2 39.2501 2.45461  24
   0   0   2 28.0017 3.94146  20
   0   0   2 45.8605 4.14876  20
   0   0   2 39.9756 5.26005   9
   0   0   2 39.3256 7.38250   8
   0   0   2 29.9467 3.94801  21
   0   0  -2 44.1354 4.02127  20
   0   0  -2 35.3556 4.85650  10
   0   0  -2 40.5137 3.15758  22
  -1   0  -2 103.967 8.99074  19
   1   0   2 110.208 10.8308   2
   1   0   2 102.650 7.16705  20
   1   0   2 106.899 6.86690  17
  -1   0  -2 108.821 9.44148  11
   1   0   2 94.0672 8.10780   9
   1   0   2 97.3928 8.58649   1
   1   0   2 86.0339 8.80271  19
  -1   0  -2 92.5621 7.66131  20
   1   0   2 103.560 12.0156   8
   1   0   2 78.0984 8.52596  18
   1   0   2 97.1344 7.04807  23
   1   0   2 90.4899 7.50887  21
   1   0   2 88.2638 4.54623  24
  -1   0  -2 94.3631 7.85067  21
  -1   0  -2 85.9003 4.94349  16
  -1   0  -2 92.8547 4.72118  24
  -1   0  -2 100.410 6.01972  22
  -1   0  -2 93.7217 9.07173  10
  -1   0  -2 89.8849 9.29464  18
   2   0   2 252.043 14.7627  17
  -2   0  -2 249.656 20.2832  10
   2   0   2 276.352 16.0142  23
  -2   0  -2 269.177 12.2433  16
   2   0   2 279.809 21.7207   2
   2   0   2 268.690 18.0066  21
  -2   0  -2 257.827 21.6754  18
   2   0   2 290.767 11.0949  24
  -2   0  -2 278.806 22.0323  19
  -2   0  -2 260.700 11.4233  24
   2   0   2 270.355 16.7939  20
   2   0   2 255.849 23.7661   8
   2   0   2 253.408 16.5294   9
   2   0   2 266.802 17.7566   1
  -2   0  -2 289.656 19.6227  11
  -3   0  -2 30.2310 3.75866  14
   3   0   2 29.0653 4.04034   5
   3   0   2 39.9928 8.56737  20
   3   0   2 21.8424 3.76124  12
   3   0   2 23.5081 15.2408   2
  -3   0  -2 12.1869 12.8758  10
   3   0   2 29.7317 17.6611   8
  -3   0  -2 31.0995 4.03367   7
  -3   0  -2 29.8719 4.26622  24
   3   0   2 37.2812 3.48480  24
  -4   0  -2 170.270 8.34902  14
  -4   0  -2 142.610 8.14522  24
   4   0   2 146.833 9.06644  12
  -4   0  -2 145.862 8.32352   7
  -5   0  -2 18.3451 3.15744  14
   5   0   2 19.8760 3.62465  12
  -5  -1   2 805.313 28.8276   6
   5  -1  -2 762.658 29.6401   4
   5   1  -2 782.922 30.2746  24
  -5   1   2 781.627 28.7151   6
   5   1  -2 747.777 28.9414  12
   4  -1  -2 35.3557 4.14307  24
   4  -1  -2 32.6328 14.4953   1
   4  -1  -2 27.4971 4.02839   4
  -4  -1   2 35.0289 4.07916   6
  -4  -1   2 35.2261 16.1571   3
   4   1  -2 36.1263 4.59458   4
   4   1  -2 31.9088 4.87086  24
   4   1  -2 36.5722 4.32561  12
   4   1  -2 12.2913 18.2570   8
  -4   1   2 35.0185 4.08318  24
  -4   1   2 40.6656 13.7909   3
   4   1  -2 4.73785 14.2442   1
  -4   1   2 38.0333 4.05288   6
   3  -1  -2 994.830 35.0370  24
   3  -1  -2 962.396 46.1551   1
   3  -1  -2 905.383 49.9864  20
  -3  -1   2 944.526 49.0200  20
  -3  -1   2 926.513 42.6157  17
  -3  -1   2 933.320 33.1722   6
   3  -1  -2 901.303 52.8161  21
  -3  -1   2 922.762 44.2499  23
  -3  -1   2 970.059 47.6477   3
   3  -1  -2 930.510 34.5093   4
  -3  -1   2 951.484 42.4237   9
  -3  -1   2 908.202 52.1631  21
   3   1  -2 934.583 61.6312  18
   3   1  -2 948.354 36.8836  16
   3   1  -2 902.717 61.8205  19
   3   1  -2 946.717 60.3698   8
  -3   1   2 925.072 53.7375  21
  -3   1   2 932.207 33.2047   6
  -3   1   2 964.012 50.6670  20
   3   1  -2 916.712 43.5939  22
   3   1  -2 888.624 51.5432   2
  -3   1   2 980.930 35.2606  24
  -3   1   2 943.382 46.6390   3
   3   1  -2 932.346 35.7349  24
  -3   1   2 883.377 50.0738  10
   3   1  -2 962.159 45.7353   1
   2  -1  -2 1071.10 62.6052  18
  -2  -1   2 998.914 45.9162   3
   2  -1  -2 1027.82 53.9849  21
   2  -1  -2 985.465 50.9541  20
  -2  -1   2 931.982 52.2601   2
  -2  -1   2 1016.90 48.3439  10
   2  -1  -2 1020.98 57.1287   8
   2  -1  -2 986.663 45.2455   1
   2  -1  -2 1015.97 36.3621  24
  -2  -1   2 979.042 45.0048  23
   2  -1  -2 857.525 45.0218  23
   2  -1  -2 944.045 43.4022  17
  -2  -1   2 974.732 43.1236  17
  -2  -1   2 1007.92 50.1402  20
  -2  -1   2 1023.89 53.4685  21
   2  -1  -2 924.890 47.8515  11
  -2  -1   2 1014.04 42.2432   9
   2  -1  -2 920.870 62.3116  19
  -2   1   2 923.474 44.6844  22
  -2   1   2 956.853 40.8120   9
  -2   1   2 950.001 61.8816  18
  -2   1   2 887.325 53.9701  21
   2   1  -2 1014.48 58.8797   8
  -2   1   2 968.744 49.2272  10
   2   1  -2 992.823 37.6437  16
  -2   1   2 973.359 36.3656  24
   2   1  -2 1014.30 62.1313  18
   2   1  -2 1029.19 62.7258  19
   2   1  -2 1001.36 44.7009  22
  -2   1   2 943.754 37.6172  16
  -2   1   2 1017.35 51.0046  20
  -2   1   2 1017.21 45.9831   3
  -1  -1   2 340.061 17.8662  20
  -1  -1   2 370.289 22.9525   8
   1  -1  -2 338.543 18.4069  10
  -1  -1   2 328.930 18.9521  21
   1  -1  -2 359.435 18.8338  11
   1  -1  -2 343.223 17.4540   1
   1  -1  -2 341.915 13.0929  24
  -1  -1   2 347.945 17.1571   3
   1  -1  -2 346.735 18.5271  20
   1  -1  -2 313.545 22.5158  18
  -1  -1   2 356.675 17.9049  20
   1  -1  -2 286.869 22.5464  19
   1  -1  -2 354.421 19.6820  21
  -1  -1   2 353.835 16.2761  23
  -1  -1   2 344.190 19.0415  21
  -1  -1   2 345.412 20.5516   2
  -1  -1   2 347.534 15.6117  17
  -1   1   2 349.460 22.5624  18
   1   1  -2 344.685 17.8280  11
  -1   1   2 351.794 19.9595  21
   1   1  -2 284.865 22.0588  18
   1   1  -2 343.840 18.3106  20
  -1   1   2 353.808 17.6194   3
  -1   1   2 344.594 16.1219  22
   1   1  -2 365.588 22.5579  18
  -1   1   2 329.633 13.1581  24
  -1   1   2 349.424 16.0693   9
   1   1  -2 314.823 22.5126  19
  -1   1   2 347.006 18.6324  20
  -1   1   2 346.826 19.2687   2
   1   1  -2 345.783 17.8076   1
   1   1  -2 302.740 15.7992  22
   1   1  -2 360.351 22.6205  19
   1   1  -2 351.234 19.4658  21
   0  -1  -2 883.377 46.1476  21
   0  -1   2 866.891 44.5302   2
   0  -1   2 865.270 35.1946   9
   0  -1  -2 869.641 42.0686  10
   0  -1   2 835.821 50.1536   8
   0  -1   2 822.750 42.5689  20
   0  -1  -2 837.748 53.0648  18
   0  -1  -2 768.524 36.7853   1
   0  -1   2 827.260 45.3350  21
   0  -1   2 879.339 38.2778   1
   0  -1   2 883.868 42.6236  20
   0  -1   2 891.280 45.4882  21
   0  -1  -2 822.933 53.4891  19
   0  -1  -2 886.902 41.2566  11
   0  -1  -2 855.078 30.9997  24
   0  -1  -2 850.940 43.1589  20
   0  -1   2 796.907 36.2678   3
   0  -1   2 819.098 36.4616  17
   0   1  -2 841.308 38.0371  22
   0   1   2 886.126 53.0905  18
   0   1   2 876.833 35.5119   9
   0   1  -2 833.878 40.9629  10
   0   1   2 869.842 44.5451   2
   0   1  -2 884.274 45.9252  21
   0   1   2 849.065 43.6042  20
   0   1   2 819.395 37.8635   3
   0   1  -2 858.666 53.0796  19
   0   1  -2 879.903 41.1925  11
   0   1   2 821.590 48.7313   8
   0   1   2 834.736 31.1552  24
   0   1   2 837.442 46.4670  21
   0   1   2 745.028 38.2080  22
   0   1  -2 910.253 53.1771  19
   0   1  -2 830.561 31.9702  16
   0   1  -2 840.731 52.4599  18
   1  -1   2 586.763 26.0469  17
  -1  -1  -2 622.293 31.5182  10
   1  -1   2 584.700 32.9506   2
   1  -1   2 587.927 27.3396  23
   1  -1   2 532.273 30.1646  20
  -1  -1  -2 586.056 30.7657  20
   1  -1   2 497.366 30.1538  20
  -1  -1  -2 586.452 21.6668  24
   1  -1   2 618.891 25.5549   9
  -1  -1  -2 556.454 32.8822  21
  -1  -1  -2 600.457 26.9315   3
  -1  -1  -2 564.193 30.0026  11
  -1  -1  -2 573.928 38.2251  19
   1  -1   2 573.140 37.1604   8
   1  -1   2 598.100 27.8591   1
   1  -1   2 628.916 32.2127  21
   1   1   2 571.964 37.5185  18
  -1   1  -2 554.583 22.6126  16
   1   1   2 573.620 32.7933   2
   1   1   2 582.784 21.8425  24
   1   1   2 549.553 26.4002   1
   1   1   2 613.512 31.0514  20
  -1   1  -2 559.161 30.7640  11
   1   1   2 582.288 25.7268   9
   1   1   2 612.796 36.5373   8
  -1   1  -2 608.067 37.6574  18
  -1   1  -2 551.331 26.8576  22
   1   1   2 559.394 38.2150  19
  -1   1  -2 616.178 30.8924  10
   1   1   2 586.993 33.2848  21
  -2  -1  -2 279.034 19.8993  11
  -2  -1  -2 320.176 21.8912  10
   2  -1   2 294.107 17.6457  20
   2  -1   2 305.707 15.6646  17
   2  -1   2 289.937 16.6423  23
  -2  -1  -2 302.217 12.2247  24
   2  -1   2 297.002 23.4366   2
   2  -1   2 302.993 18.9934  21
  -2  -1  -2 294.472 18.8122  20
   2  -1   2 291.973 19.5361   1
   2  -1   2 290.790 26.4736   8
  -2  -1  -2 299.505 20.4839  21
   2   1   2 290.158 22.6076   2
   2   1   2 265.929 20.1057  21
  -2   1  -2 310.019 13.3449  16
   2   1   2 310.216 12.4695  24
  -2   1  -2 291.430 21.5143  10
   2   1   2 318.423 26.4140   8
   2   1   2 310.412 18.9053  20
  -2   1  -2 286.016 12.7081  24
  -2   1  -2 288.992 15.8943  22
   2   1   2 304.268 17.2644   9
  -2   1  -2 279.408 20.9656  11
  -2   1  -2 298.818 23.2810  19
  -2   1  -2 293.124 23.0211  18
  -3  -1  -2 72.0247 5.46678  14
  -3  -1  -2 66.2873 5.60147   7
   3  -1   2 72.1396 20.3264   8
   3  -1   2 74.1446 8.82077  17
  -3  -1  -2 70.9894 5.03963  24
  -3  -1  -2 31.0483 14.7968  10
   3  -1   2 53.7578 8.89655  23
   3  -1   2 66.2593 6.18995  12
   3   1   2 68.8867 18.2092   2
  -3   1  -2 60.1685 15.8242  10
   3   1   2 76.8911 6.12375  12
   3   1   2 49.0959 17.8029   8
   3   1   2 77.0194 6.13295  24
   3   1   2 59.6378 6.13015   5
  -3   1  -2 60.5517 5.58131  14
  -3   1  -2 70.1349 5.90058   7
  -3   1  -2 59.7429 6.10881  24
  -4  -1  -2 175.827 9.38428   7
  -4  -1  -2 197.529 9.03358  14
   4  -1   2 172.980 9.98831  12
   4   1   2 182.394 9.76131  12
  -4   1  -2 162.687 9.85852  24
  -4   1  -2 164.987 8.94519  14
   4   1   2 173.135 9.75504   5
  -4   1  -2 171.142 9.23253   7
  -5  -1  -2 49.2723 4.58036  14
   5  -1   2 41.4457 4.26619  12
   5   1   2 46.5624 5.60563  12
  -5   1  -2 46.8772 4.45608  14
   5  -2  -2 1303.03 47.5302   4
  -5  -2   2 1301.48 45.9228   6
   5   2  -2 1307.90 46.4062  12
  -5   2   2 1254.09 45.7718   6
   4  -2  -2 563.646 22.4206   4
  -4  -2   2 526.967 28.4195  17
  -4  -2   2 578.882 21.6281   6
  -4  -2   2 571.388 30.1261  23
  -4   2   2 585.511 22.9087  24
  -4   2   2 563.637 21.4478  14
   4   2  -2 549.325 23.5288  24
  -4   2   2 560.389 21.4666   6
  -3  -2   2 1136.77 42.0767   5
  -3  -2   2 1094.80 43.3592  13
   3  -2  -2 1086.73 60.6034  20
   3  -2  -2 1169.82 64.7168  21
  -3  -2   2 1156.02 52.2532   9
   3  -2  -2 1154.66 42.2633  24
  -3  -2   2 1160.56 41.5608  12
  -3  -2   2 1207.47 59.6941  20
  -3  -2   2 1125.74 63.6673  21
   3  -2  -2 1192.74 56.0602   1
   3  -2  -2 1131.56 42.3559   4
  -3  -2   2 1164.22 41.0149   6
   3  -2  -2 1189.44 52.7601  17
  -3  -2   2 1247.48 51.9966  17
   3  -2  -2 1173.64 54.7600  23
  -3  -2   2 1191.45 57.3991   3
  -3  -2   2 1236.85 54.2514  23
  -3   2   2 1055.68 61.1433  10
  -3   2   2 1262.42 55.0949  22
   3   2  -2 1226.54 74.4118   8
  -3   2   2 1210.77 43.7502  24
   3   2  -2 1170.15 75.8656  19
  -3   2   2 1189.06 41.0300   6
   3   2  -2 1140.57 53.8430  22
   3   2  -2 1040.31 63.4582   2
   3   2  -2 1085.51 54.5753   1
  -3   2   2 1145.09 56.7961   3
   3   2  -2 1176.98 45.3069  16
   3   2  -2 1189.16 75.5778  18
  -2  -2   2 208.497 14.4039   9
   2  -2  -2 209.153 11.7812  17
  -2  -2   2 209.756 11.5430  20
  -2  -2   2 229.314 15.6293   3
   2  -2  -2 176.985 11.4976  23
  -2  -2   2 223.787 12.9795  21
   2  -2  -2 249.070 14.0425  21
  -2  -2   2 208.278 11.1231  17
  -2  -2   2 208.544 11.8537  20
  -2  -2   2 194.203 11.2398  23
  -2  -2   2 212.486 12.5332  21
  -2  -2   2 210.779 17.3316   2
   2  -2  -2 204.630 14.5432   1
   2  -2  -2 200.801 15.9233  11
   2  -2  -2 200.718 8.32994  24
   2  -2  -2 216.548 13.5121  20
  -2   2   2 230.914 15.6985   3
  -2   2   2 214.799 16.2858  18
  -2   2   2 199.277 11.0753  22
   2   2  -2 187.090 10.6818  22
   2   2  -2 191.050 19.2907   8
   2   2  -2 220.292 16.1898  19
  -2   2   2 201.035 15.2063  10
   2   2  -2 210.523 16.1263  18
   2   2  -2 197.189 14.5007   1
  -2   2   2 197.069 9.42659  16
  -2   2   2 193.845 9.19991  24
   2   2  -2 205.330 9.19385  16
  -2   2   2 213.886 16.8179  19
  -1  -2   2 1050.84 48.2978   3
   1  -2  -2 1083.07 38.8290  24
   1  -2  -2 1202.96 58.1659  21
   1  -2  -2 1121.80 47.5159   1
  -1  -2   2 1071.75 45.7134  17
   1  -2  -2 1055.13 46.3528  17
   1  -2  -2 1066.27 53.5230  10
  -1  -2   2 1088.76 45.0947   9
  -1  -2   2 1046.42 62.8860   8
   1  -2  -2 1086.92 54.4593  20
   1  -2  -2 1010.19 66.4625  18
  -1  -2   2 1062.10 57.0598   2
   1  -2  -2 977.160 67.1271  19
   1  -2  -2 1079.13 52.3072  11
  -1  -2   2 1080.85 47.8829  23
   1  -2  -2 1086.86 48.5356  23
   1   2  -2 1086.87 40.1663  16
  -1   2   2 1135.92 66.7789  18
   1   2  -2 1037.74 47.6212  22
  -1   2   2 1069.56 48.2941  22
  -1   2   2 987.279 39.2790  24
  -1   2   2 1074.70 58.4677  21
  -1   2   2 1009.53 53.8546   2
  -1   2   2 1068.72 40.7899  16
  -1   2   2 1005.34 43.7933   9
   1   2  -2 1073.11 48.1500   1
   1   2  -2 1135.78 66.9130  19
  -1   2   2 1089.66 67.3101  19
  -1   2   2 1048.65 54.8026  20
   1   2  -2 1074.01 65.9555  18
  -1   2   2 1132.28 49.2962   3
   1   2  -2 1029.69 65.7570  18
   1   2  -2 1073.61 66.7084  19
   1   2  -2 1073.23 50.3870  11
   0  -2  -2 4207.02 190.897  11
   0  -2  -2 4009.62 256.112  19
   0  -2   2 4110.08 230.923   8
   0  -2  -2 4274.26 220.948  21
   0  -2  -2 4336.69 207.371  20
   0  -2   2 4033.06 175.788   1
   0  -2   2 3956.78 175.100  17
   0  -2  -2 4188.28 198.540  10
   0  -2   2 4388.61 183.913  23
   0  -2  -2 4129.53 149.791  24
   0  -2  -2 4117.34 253.462  18
   0  -2   2 4316.46 163.409   9
   0  -2   2 4384.06 205.924   2
   0  -2  -2 4241.89 175.828  17
   0  -2  -2 4242.16 173.469   1
   0  -2  -2 3950.85 184.473  23
   0  -2   2 3967.77 177.133   3
   0   2  -2 4147.46 154.903  16
   0   2  -2 4215.67 255.434  19
   0   2  -2 4064.72 252.566  18
   0   2   2 4282.70 205.412   2
   0   2  -2 4157.08 184.184  22
   0   2  -2 4138.51 252.735  18
   0   2   2 4316.07 184.984  22
   0   2   2 4251.04 163.705   9
   0   2  -2 4319.53 190.541  11
   0   2   2 4203.74 253.708  18
   0   2   2 4403.72 256.537  19
   0   2  -2 4386.19 197.206  10
   0   2   2 4118.51 208.022  20
   0   2   2 4138.11 228.662   8
   0   2   2 4130.80 155.676  16
   0   2   2 4293.64 179.223   3
   0   2  -2 3904.48 255.337  19
   1  -2   2 592.637 31.8701  21
  -1  -2  -2 620.129 33.2638  10
   1  -2   2 581.121 31.8451  21
   1  -2   2 616.571 29.7822   1
   1  -2   2 579.538 27.8755  23
  -1  -2  -2 621.680 28.9978   3
  -1  -2  -2 574.281 31.7681  11
  -1  -2  -2 597.448 22.1582  24
   1  -2   2 592.282 25.6836   9
  -1  -2  -2 615.287 34.0279  21
  -1  -2  -2 570.323 28.5165  23
  -1  -2  -2 621.974 31.5430  20
  -1  -2  -2 600.080 27.1922  17
   1  -2   2 604.901 29.9491  20
   1  -2   2 573.622 26.5788  17
   1  -2   2 601.118 29.9138  20
   1  -2   2 614.875 39.4555   8
   1  -2   2 584.558 34.0418   2
   1   2   2 626.665 34.6895   2
  -1   2  -2 607.464 38.6876  18
  -1   2  -2 617.824 32.3941  11
   1   2   2 568.609 32.2727  20
   1   2   2 607.214 39.9318  19
  -1   2  -2 605.239 38.8936  19
   1   2   2 585.852 22.7764  24
   1   2   2 587.609 28.2076  22
   1   2   2 587.576 23.5541  16
   1   2   2 588.759 37.8783   8
   1   2   2 579.367 34.9742  21
  -1   2  -2 615.949 32.3058  10
  -1   2  -2 601.959 27.5895  22
   1   2   2 594.930 39.0001  18
   1   2   2 631.967 27.6188   9
  -1   2  -2 589.987 23.1988  16
  -2  -2  -2 231.269 13.7403  17
   2  -2   2 264.273 13.9715  23
  -2  -2  -2 220.729 9.79979  14
   2  -2   2 224.727 24.1412   8
  -2  -2  -2 229.409 15.4516  20
  -2  -2  -2 230.789 9.51347  24
   2  -2   2 246.828 13.9044  20
   2  -2   2 223.384 14.5172  21
  -2  -2  -2 250.857 14.9251  23
   2  -2   2 248.811 21.9176   2
   2  -2   2 235.835 12.8943  17
   2  -2   2 227.980 17.9640   1
  -2  -2  -2 220.290 17.1952  21
  -2   2  -2 222.669 19.5021  18
   2   2   2 239.885 10.4322   5
   2   2   2 236.763 10.7051  24
  -2   2  -2 237.302 13.2092  22
   2   2   2 233.244 13.6588  22
   2   2   2 245.134 21.1902   2
   2   2   2 228.298 16.2672   9
   2   2   2 230.991 11.1051  16
  -2   2  -2 213.274 18.2785  11
  -2   2  -2 233.659 10.9019  16
  -2   2  -2 222.020 19.7857  10
  -2   2  -2 220.290 19.7169  19
   2   2   2 233.020 24.0263   8
   3  -2   2 251.643 12.0156  15
   3  -2   2 294.615 16.3529  17
   3  -2   2 279.180 12.3629  12
  -3  -2  -2 274.669 11.4087  14
   3  -2   2 244.030 32.6174   8
  -3  -2  -2 254.435 11.6187   7
   3  -2   2 268.358 12.3714   7
   3  -2   2 225.557 23.4797   1
  -3  -2  -2 265.806 27.0233  10
   3  -2   2 273.191 17.4712  23
   3  -2   2 236.888 11.9788   4
   3   2   2 276.243 11.9178  12
   3   2   2 261.265 12.0397   5
  -3   2  -2 256.702 16.5896  22
  -3   2  -2 265.804 11.5473  14
  -3   2  -2 248.679 27.1655  10
   3   2   2 267.574 32.9717   8
  -3   2  -2 274.992 13.0739  24
  -3   2  -2 257.281 13.4658  16
   3   2   2 268.967 12.4148  24
   3   2   2 243.117 27.9823   2
   4  -2   2 454.413 27.3081  23
   4  -2   2 467.280 19.4642  12
   4  -2   2 480.878 25.9957  17
  -4  -2  -2 491.230 18.8829  14
  -4   2  -2 499.603 19.0774  14
  -4   2  -2 486.677 19.4976   7
   4   2   2 473.795 19.6219  24
  -4   2  -2 482.067 20.5577  24
   4   2   2 514.172 19.6108  12
   4   2   2 459.239 19.5767   5
  -5  -2  -2 51.1441 4.52549  14
  -5   2  -2 47.4380 4.42246  14
   5   2   2 55.5095 5.53468  12
   5  -3  -2 28.1903 4.11318   4
  -5  -3   2 32.2066 4.16316   6
   5   3  -2 20.5471 3.55827  12
  -4  -3   2 11.9552 3.98587   5
   4  -3  -2 18.5082 3.96029   4
   4  -3  -2 11.4342 6.83446  17
  -4  -3   2 15.4441 3.73747   6
   4  -3  -2 11.5543 6.61088  23
  -4  -3   2 13.1957 6.95248  23
  -4  -3   2 13.2891 5.81342  17
  -4   3   2 12.3579 4.42559  24
  -4   3   2 15.9077 4.04508   6
   4   3  -2 16.1442 5.76760  16
   4   3  -2 21.3945 7.17807  22
   3  -3  -2 257.640 16.7272  20
   3  -3  -2 278.145 11.9829   4
  -3  -3   2 279.554 23.1201   3
  -3  -3   2 249.559 21.6066   9
  -3  -3   2 302.553 15.6311  23
  -3  -3   2 282.224 14.6111  17
   3  -3  -2 265.865 11.4325  14
   3  -3  -2 304.598 11.7998  15
  -3  -3   2 283.387 12.1479   5
  -3  -3   2 265.366 11.3808   6
   3  -3  -2 206.184 17.1786  21
   3  -3  -2 308.608 16.4259  17
  -3  -3   2 271.448 12.4921  13
   3  -3  -2 268.688 21.7898   1
   3  -3  -2 233.489 15.3662  23
   3  -3  -2 257.695 25.0536  11
  -3  -3   2 259.043 11.7368  12
  -3   3   2 251.290 23.0657  10
   3   3  -2 267.283 24.3819   2
  -3   3   2 257.751 15.1951  22
  -3   3   2 293.779 11.5571   6
   3   3  -2 253.001 29.7459   8
   3   3  -2 271.516 14.7975  22
  -3   3   2 273.433 13.0669  16
  -3   3   2 208.176 23.1039  19
   3   3  -2 293.156 12.7715  16
  -3   3   2 286.858 22.9480   3
   3   3  -2 262.005 21.9364  18
   3   3  -2 248.961 22.4439  19
  -3   3   2 295.621 12.7820  24
  -3   3   2 197.135 22.3222  18
   2  -3  -2 235.032 15.1942  20
  -2  -3   2 266.527 13.3337  23
   2  -3  -2 248.551 16.2818  21
   2  -3  -2 245.198 17.6690   1
   2  -3  -2 257.406 13.9860  17
   2  -3  -2 249.489 19.6416  11
  -2  -3   2 254.949 12.6549  17
   2  -3  -2 265.297 14.2352  23
  -2  -3   2 262.934 18.7168   3
  -2   3   2 298.342 19.8003   3
   2   3  -2 268.570 19.6568  18
  -2   3   2 279.963 11.7525  16
  -2   3   2 248.860 20.1746  19
  -2   3   2 264.179 19.1706  10
   2   3  -2 260.310 19.4735  19
  -2   3   2 242.840 19.5798  18
  -2   3   2 263.112 13.7443  22
   2   3  -2 237.010 17.5919   1
   2   3  -2 255.973 11.1787  16
   2   3  -2 263.862 13.1274  22
   1  -3  -2 356.116 16.7153  17
  -1  -3   2 362.293 19.1619   9
   1  -3  -2 366.400 19.1625  20
   1  -3  -2 356.270 20.1148  21
  -1  -3   2 304.814 15.3394  17
  -1  -3   2 360.314 23.7273   2
  -1  -3   2 335.492 16.1671  23
  -1  -3   2 351.544 25.9601   8
   1  -3  -2 346.571 21.6736  11
  -1  -3   2 329.031 16.0641  23
   1  -3  -2 378.463 18.9765   1
  -1  -3   2 358.503 19.5119   3
  -1  -3   2 308.273 15.2728  17
   1  -3  -2 351.504 22.0737  10
   1  -3  -2 373.657 17.3934  23
  -1   3   2 345.861 17.0599  22
   1   3  -2 368.257 22.9631  18
  -1   3   2 379.485 20.9863   3
  -1   3   2 428.532 24.6492  18
   1   3  -2 336.603 15.7398  22
   1   3  -2 350.077 19.8849   1
  -1   3   2 342.166 14.4407  16
   1   3  -2 368.125 23.2255  19
  -1   3   2 347.931 18.2131   9
   1   3  -2 330.019 19.5186  11
   1   3  -2 345.998 13.3065  16
  -1   3   2 378.084 24.3378  19
   0  -3   2 934.323 51.6107   2
   0  -3   2 965.408 40.8417   9
   0  -3  -2 938.932 51.9404  21
   0  -3  -2 968.172 48.7661  20
   0  -3  -2 963.269 49.5515  10
   0  -3   2 945.172 42.8490   3
   0  -3  -2 950.434 48.2182  11
   0  -3  -2 1017.06 43.9870  23
   0  -3   2 968.102 44.9173   1
   0  -3   2 1000.48 58.1244   8
   0  -3  -2 924.952 41.7556  17
   0   3   2 925.690 61.0814  19
   0   3   2 928.049 43.4993  22
   0   3  -2 992.722 59.0703  18
   0   3   2 904.150 50.4209   2
   0   3   2 997.242 45.2145   3
   0   3  -2 951.310 47.6040  11
   0   3  -2 982.549 59.5498  19
   0   3   2 932.466 36.7353  16
   0   3  -2 929.564 47.8240  10
   0   3   2 997.506 60.6558  18
   0   3   2 978.457 41.1322   9
   1  -3   2 2441.43 107.521  17
   1  -3   2 2531.94 110.648   1
   1  -3   2 2492.91 145.111   8
   1  -3   2 2700.68 112.940  23
  -1  -3  -2 2468.34 124.895  10
  -1  -3  -2 2555.95 114.077  23
  -1  -3  -2 2541.46 112.124   3
  -1  -3  -2 2566.91 108.448  17
   1  -3   2 2484.84 128.091   2
  -1  -3  -2 2530.14 119.461  11
   1   3   2 2618.78 114.174  22
  -1   3  -2 2587.95 120.474  11
  -1   3  -2 2601.92 155.844  18
  -1   3  -2 2262.70 157.204  19
   1   3   2 2570.92 143.577   8
   1   3   2 2637.47 129.554   2
   1   3   2 2673.19 103.364   9
  -1   3  -2 2561.60 113.214  22
  -1   3  -2 2616.19 95.2612  16
   1   3   2 2689.11 156.850  18
  -1   3  -2 2553.05 123.803  10
   1   3   2 2477.48 158.689  19
   1   3   2 2506.46 95.8273  16
  -2  -3  -2 218.596 15.8143  21
   2  -3   2 204.914 9.45622  12
  -2  -3  -2 196.502 12.5442  17
   2  -3   2 222.089 26.6130   8
  -2  -3  -2 219.283 13.8004  23
  -2  -3  -2 201.124 17.5439   3
  -2  -3  -2 196.494 9.04647  14
   2  -3   2 204.399 9.15192  14
  -2  -3  -2 201.731 13.5190  20
   2  -3   2 204.580 9.52556  15
   2  -3   2 212.570 11.7867  17
   2  -3   2 212.880 19.6063   1
  -2  -3  -2 174.834 19.2580  10
   2  -3   2 199.753 9.79401   4
  -2  -3  -2 215.289 9.83689  13
  -2  -3  -2 206.104 9.63508   7
   2  -3   2 198.572 9.60472   7
   2   3   2 225.649 17.3443   9
   2   3   2 187.656 24.0132   8
  -2   3  -2 207.965 21.0213  10
   2   3   2 206.118 10.3799  24
   2   3   2 198.441 10.2946  16
  -2   3  -2 209.258 12.0852  22
   2   3   2 205.906 12.6609  22
  -2   3  -2 203.070 18.2942  18
  -2   3  -2 205.022 18.4062  19
  -2   3  -2 174.336 20.8436  11
   2   3   2 200.174 19.9057  19
   2   3   2 202.297 22.0325   2
   2   3   2 193.948 18.4215  18
   2   3   2 200.454 9.30509  12
   2   3   2 205.094 9.50610   5
  -2   3  -2 207.904 9.97221  16
   3  -3   2 1970.86 88.8802  23
  -3  -3  -2 1877.42 90.5809  23
   3  -3   2 1911.66 69.9240   4
  -3  -3  -2 1815.93 69.0336   7
   3  -3   2 1863.47 68.2697  12
   3  -3   2 1952.45 84.5512  17
   3  -3   2 2028.44 68.8823  15
  -3  -3  -2 1969.26 67.6736  14
  -3  -3  -2 2047.28 71.6280  13
  -3  -3  -2 1930.50 85.5996  17
   3  -3   2 1976.16 69.7366   7
  -3   3  -2 1927.98 67.6988  14
   3   3   2 1933.87 71.9736  24
  -3   3  -2 1904.56 89.3244  22
   3   3   2 1907.21 68.2073  12
   3   3   2 1996.57 69.3101   5
  -3   3  -2 1918.03 75.0260  16
   4  -3   2 102.278 7.88394  12
   4  -3   2 133.923 12.7759  17
   4  -3   2 117.776 8.09894   4
  -4  -3  -2 117.926 7.22012  14
   4   3   2 119.162 7.92631   5
  -4   3  -2 116.905 7.36500  14
  -4   3  -2 109.727 7.63798   7
   4   3   2 114.956 7.74431  12
   4   3   2 110.515 8.75984  24
  -5   3  -2 12.6463 2.78796  14
   5   3   2 10.2724 3.43987  12
   5  -4  -2 185.709 9.41018   4
  -5  -4   2 190.213 9.01806   6
   5   4  -2 194.200 9.16670  12
  -5   4   2 182.401 9.02366  14
   4  -4  -2 261.872 12.3472   4
   4  -4  -2 250.047 17.1153  23
  -4  -4   2 260.380 16.1988  23
  -4  -4   2 250.025 12.7605  13
   4  -4  -2 276.069 17.0670  17
   4  -4  -2 270.289 12.1393  14
  -4  -4   2 273.728 12.0849   6
  -4  -4   2 251.768 12.3156   5
  -4  -4   2 246.006 15.2105  17
  -4   4   2 251.943 11.7712   6
   4   4  -2 275.252 14.1301  16
   4   4  -2 274.445 17.0328  22
  -4   4   2 240.738 13.0549  24
   3  -4  -2 219.091 10.4166   7
   3  -4  -2 206.341 10.3435   4
  -3  -4   2 216.437 11.9388  17
   3  -4  -2 217.740 24.4270   1
   3  -4  -2 233.874 10.2823  14
  -3  -4   2 200.392 11.0895  13
   3  -4  -2 200.170 10.2319  15
   3  -4  -2 195.489 25.0133  11
   3  -4  -2 214.884 13.9168  17
  -3  -4   2 204.085 12.5242  23
  -3  -4   2 207.675 10.0215   6
  -3  -4   2 212.968 10.6668   5
   3  -4  -2 215.815 13.9709  23
  -3  -4   2 226.294 10.5025  12
  -3  -4   2 197.997 24.2591   3
   3   4  -2 202.234 12.7797  22
   3   4  -2 182.010 32.4430   8
   3   4  -2 201.743 26.7744   2
   3   4  -2 225.158 11.2525  16
  -3   4   2 212.249 9.88176   6
  -3   4   2 212.737 22.5886   3
  -3   4   2 193.555 23.2718  10
  -3   4   2 196.296 11.3680  16
  -3   4   2 200.047 13.4590  22
   2  -4  -2 191.771 11.1143  23
  -2  -4   2 184.499 8.90200  12
   2  -4  -2 185.756 11.1164  17
  -2  -4   2 179.625 9.34133  13
   2  -4  -2 172.241 8.37400  14
  -2  -4   2 166.253 9.47599  23
   2  -4  -2 192.900 8.26931   6
   2  -4  -2 181.542 10.9044  21
  -2  -4   2 165.512 17.9644   3
   2  -4  -2 178.182 9.07268  15
   2  -4  -2 177.331 8.78200   7
   2  -4  -2 193.363 20.4276  11
   2  -4  -2 189.268 10.1225  20
   2  -4  -2 189.497 18.1297   1
  -2  -4   2 172.632 8.93606   5
  -2  -4   2 184.981 9.03537  17
  -2  -4   2 183.961 8.43142   6
  -2  -4   2 180.969 16.9623   9
   2   4  -2 181.675 21.1859   2
  -2   4   2 195.314 10.9657  22
   2   4  -2 200.101 10.1910  22
  -2   4   2 163.231 15.9933  18
   2   4  -2 186.853 23.6465   8
  -2   4   2 173.269 18.2591   3
  -2   4   2 179.476 17.9097  10
  -2   4   2 182.193 16.5292  19
   2   4  -2 131.066 15.0203  19
   2   4  -2 184.673 8.50074  16
  -2   4   2 179.536 9.08984  16
  -1  -4   2 129.640 13.4549   3
  -1  -4   2 106.647 16.0088   2
   1  -4  -2 146.990 8.54974  23
   1  -4  -2 125.421 8.41490  17
   1  -4  -2 125.578 15.5613  11
   1  -4  -2 136.784 15.4198  10
  -1  -4   2 118.572 13.0164   9
  -1   4   2 150.957 8.41493  22
  -1   4   2 118.685 14.5597   3
   1   4  -2 143.402 11.0355  19
   1   4  -2 133.933 10.8268  18
  -1   4   2 142.195 13.8191   9
   1   4  -2 132.759 13.9523   1
  -1   4   2 137.959 7.10805  16
   1   4  -2 139.875 17.2949   8
  -1   4   2 162.060 12.8832  18
  -1   4   2 131.425 12.1666  19
   0  -4  -2 2344.07 94.6096  17
   0  -4  -2 2271.27 110.372  10
   0  -4   2 2242.27 127.482   8
   0  -4   2 2176.06 97.7643   1
   0  -4  -2 2194.29 99.2044  23
   0  -4   2 2130.45 89.7539   9
   0  -4   2 2137.70 114.157   2
   0  -4  -2 1978.26 105.220  11
   0   4   2 2240.50 99.2454  22
   0   4   2 2331.47 83.7221  16
   0   4   2 2239.74 112.392   2
   0   4   2 2279.64 90.6149   9
   0   4   2 2341.85 138.618  19
   0   4  -2 2181.44 105.082  11
   0   4  -2 2209.81 135.955  19
   0   4   2 2184.31 136.860  18
   0   4   2 2205.82 99.6594   3
   1  -4   2 1971.30 72.1664   4
   1  -4   2 2024.20 70.8467  15
  -1  -4  -2 2013.74 71.7079   7
  -1  -4  -2 2067.66 73.6796  13
  -1  -4  -2 2081.93 91.3659  23
  -1  -4  -2 2027.40 100.676  20
   1  -4   2 1842.32 117.120   8
  -1  -4  -2 2076.40 86.6491  17
   1  -4   2 2018.73 71.6351   7
  -1  -4  -2 2012.94 69.4023   6
  -1  -4  -2 1874.09 107.221  21
  -1  -4  -2 1991.73 97.3410  11
   1  -4   2 2022.52 90.5196   1
   1   4   2 2004.04 127.476  19
   1   4   2 1962.14 105.144   2
  -1   4  -2 2030.47 100.696  10
  -1   4  -2 1990.62 90.0392  22
  -1   4  -2 2111.09 124.313  18
  -1   4  -2 1943.41 125.469  19
  -1   4  -2 2036.69 75.7142  16
  -1   4  -2 2075.34 98.6655  11
   1   4   2 2090.84 71.6053   5
   1   4   2 2100.98 125.901  18
   1   4   2 1910.29 84.0083   9
   1   4   2 2111.74 76.7318  16
   1   4   2 2142.71 91.4089  22
  -2  -4  -2 330.409 19.5156  23
  -2  -4  -2 352.506 19.2772  20
  -2  -4  -2 351.098 18.0603  17
  -2  -4  -2 344.711 14.7217  13
   2  -4   2 315.416 25.3241   1
  -2  -4  -2 372.180 14.7241   7
   2  -4   2 326.532 14.2054  15
   2  -4   2 290.290 32.6513   8
  -2  -4  -2 338.299 24.5789   3
   2  -4   2 335.059 14.6172   4
   2  -4   2 347.226 17.5329  23
   2  -4   2 353.723 16.6360  17
  -2  -4  -2 336.226 13.7409   6
  -2  -4  -2 325.539 27.2961  10
  -2  -4  -2 338.068 13.8389  14
   2  -4   2 343.952 13.9213  14
   2  -4   2 354.170 14.5133   7
   2  -4   2 344.546 14.4093  12
  -2   4  -2 312.449 27.3067  10
  -2   4  -2 344.417 27.0672  18
   2   4   2 341.579 19.0182  22
   2   4   2 348.380 15.6751  16
  -2   4  -2 343.399 15.2443  16
   2   4   2 341.856 29.8958   2
  -2   4  -2 357.572 28.9684  11
   2   4   2 310.824 23.2884   9
  -2   4  -2 334.556 18.3545  22
   2   4   2 337.648 14.2390   5
  -3  -4  -2 532.832 20.7254  14
   3  -4   2 513.547 26.9097  23
   3  -4   2 553.503 21.7701   4
   3  -4   2 532.660 25.5985  17
  -3  -4  -2 541.739 22.0511  13
   3  -4   2 555.910 21.2780  15
  -3  -4  -2 548.610 27.3512  17
  -3  -4  -2 480.995 29.0811  23
   3  -4   2 544.068 21.6322   7
   3   4   2 493.413 22.3389  24
  -3   4  -2 549.245 23.4974  16
  -3   4  -2 538.736 20.7176  14
  -3   4  -2 539.875 28.2700  22
   3   4   2 532.895 21.3180   5
   3   4   2 526.359 20.9144  12
   4  -4   2 175.140 9.55979   4
  -4  -4  -2 156.028 8.16371  14
   4  -4   2 158.485 9.60690  15
  -4   4  -2 170.925 8.59438  14
   4   4   2 162.887 8.93199  12
   4   4   2 166.528 9.18313   5
  -4   4  -2 177.036 9.01219   7
  -5  -5   2 -0.7787 2.71045   6
   5  -5  -2 -0.2468 2.77459   4
   5   5  -2 0.09697 2.83969   5
   5   5  -2 -0.2104 2.57293  12
  -5   5   2 0.43586 2.94451  14
   4  -5  -2 14.5961 3.88327   4
  -4  -5   2 13.3615 4.31039   5
   4  -5  -2 6.05386 6.28991  17
   4  -5  -2 19.3942 4.26625  14
  -4  -5   2 12.5657 4.74575  13
  -4  -5   2 14.8547 3.74998   6
   4  -5  -2 21.8976 4.73715  15
   4   5  -2 13.7829 5.75152  16
  -4   5   2 2.14750 5.29655  24
   4   5  -2 7.81409 3.90997  12
  -4   5   2 14.3195 4.10213   6
   3  -5  -2 122.526 8.29706   7
  -3  -5   2 122.909 8.82964  13
   3  -5  -2 133.090 7.90187  14
  -3  -5   2 132.285 8.45917   5
  -3  -5   2 126.523 7.75273   6
   3  -5  -2 127.999 10.5835  23
   3  -5  -2 137.398 8.25827   4
   3  -5  -2 120.450 8.24714  15
  -3  -5   2 126.729 8.25448  12
   3  -5  -2 124.232 10.3120  17
  -3   5   2 122.500 10.9617  22
   3   5  -2 104.319 9.50970  22
   3   5  -2 124.726 8.55616  16
  -3   5   2 150.015 9.31908  16
  -3   5   2 116.096 7.88183   6
   2  -5  -2 262.813 25.5932  11
   2  -5  -2 272.042 14.2116  17
   2  -5  -2 283.509 14.3796  23
   2  -5  -2 255.209 11.6519   7
  -2  -5   2 239.575 11.0507   6
  -2  -5   2 238.811 21.6601   9
  -2  -5   2 246.263 11.3916  12
  -2  -5   2 242.665 23.1842   3
   2  -5  -2 245.379 11.6250  15
   2  -5  -2 241.952 10.8505   6
  -2  -5   2 261.186 11.9598   5
   2  -5  -2 240.483 11.1067  14
  -2  -5   2 246.921 12.1928  13
  -2   5   2 243.084 12.0665  16
   2   5  -2 222.453 19.2425  18
  -2   5   2 229.997 23.3111  10
   2   5  -2 251.696 29.7738   8
   2   5  -2 260.465 11.4432  16
   2   5  -2 258.544 13.7179  22
  -2   5   2 254.260 21.5293  18
   2   5  -2 230.840 27.0129   2
  -2   5   2 284.749 14.8614  22
  -2   5   2 211.557 22.8658   3
  -1  -5   2 290.268 20.9935   9
   1  -5  -2 308.515 14.5512  23
   1  -5  -2 278.745 24.5457  11
   1  -5  -2 251.687 11.9611   7
   1  -5  -2 269.519 12.0232  15
  -1  -5   2 234.125 19.5272   3
   1  -5  -2 282.990 11.5303  14
  -1  -5   2 274.614 11.6718  12
   1  -5  -2 273.946 11.3029   6
   1  -5  -2 279.495 24.6207  10
  -1  -5   2 281.305 12.0872   5
   1  -5  -2 276.989 14.0221  17
  -1  -5   2 268.632 12.2706  13
  -1   5   2 267.249 20.9117  18
   1   5  -2 246.487 27.5922   8
  -1   5   2 273.207 23.3938   3
  -1   5   2 293.329 21.1109  19
  -1   5   2 273.720 12.3046  16
  -1   5   2 281.400 14.4871  22
   1   5  -2 248.544 18.1885  18
   1   5  -2 251.569 18.5459  19
   0  -5   2 109.587 6.81352   4
   0  -5   2 92.6264 16.1133   2
   0  -5  -2 110.248 6.48546  13
   0  -5  -2 107.023 6.75081   7
   0  -5  -2 104.003 6.23265  14
   0  -5  -2 120.672 18.0811  11
   0  -5  -2 106.793 6.23657   6
   0  -5  -2 104.793 7.42252  23
   0  -5  -2 99.4957 6.56718  15
   0  -5  -2 122.820 7.60652  17
   0  -5  -2 113.845 19.0252  10
   0  -5   2 109.942 17.7316   8
   0   5   2 103.361 6.61348  16
   0   5   2 119.195 15.7348   9
   0   5   2 87.7827 13.3323   3
   0   5   2 112.756 13.3038  19
   0   5   2 119.889 7.63484  22
   0   5   2 98.8598 12.5730  18
   0   5  -2 102.837 15.2026  11
  -1  -5  -2 565.456 21.7285   7
   1  -5   2 477.577 32.6478   1
  -1  -5  -2 564.498 20.6563   6
  -1  -5  -2 542.332 21.9157  13
   1  -5   2 546.886 21.1720  15
   1  -5   2 556.001 21.7770   4
  -1  -5  -2 539.341 27.1325  23
  -1  -5  -2 545.580 20.8244  14
  -1  -5  -2 526.203 35.6325  10
  -1  -5  -2 581.077 25.7672  17
   1  -5   2 563.908 21.4624   7
  -1   5  -2 582.715 21.6496  16
   1   5   2 545.702 31.2910   9
   1   5   2 570.999 34.0874   3
  -1   5  -2 517.342 25.6931  22
  -1   5  -2 550.329 36.8190  19
   1   5   2 575.517 38.8230  18
  -1   5  -2 578.709 36.3812  18
   1   5   2 487.224 39.2296  19
   1   5   2 582.734 27.4383  22
  -1   5  -2 527.531 35.9081  11
   1   5   2 599.887 23.0486  16
   1   5   2 530.961 21.0572   5
   1   5   2 487.793 37.1371   2
  -2  -5  -2 3337.88 147.268  23
   2  -5   2 3356.56 116.745   4
   2  -5   2 3212.81 112.836  14
  -2  -5  -2 3304.56 118.915  13
  -2  -5  -2 3229.40 139.690  17
   2  -5   2 3305.14 115.730   7
   2  -5   2 3315.78 114.455  15
  -2  -5  -2 3207.38 113.055  14
  -2  -5  -2 3246.85 112.173   6
  -2  -5  -2 3324.62 115.779   7
  -2   5  -2 3270.63 123.621  16
   2   5   2 3405.52 148.208  22
   2   5   2 3214.93 124.170  16
   2   5   2 3198.54 115.334   5
  -3  -5  -2 277.804 16.0913  17
  -3  -5  -2 282.068 12.5097  14
   3  -5   2 291.773 13.0254  15
  -3  -5  -2 289.163 18.3310  23
  -3  -5  -2 278.538 13.4276  13
   3  -5   2 285.528 13.1971   7
   3  -5   2 284.480 13.5178   4
   3   5   2 279.391 13.0242   5
  -3   5  -2 286.194 12.6458  14
  -3   5  -2 273.030 17.4899  22
  -3   5  -2 275.798 14.3638  16
   4  -5   2 217.755 10.3320  15
   4  -5   2 220.699 10.6544   4
  -4  -5  -2 205.639 9.67838  14
   4   5   2 219.037 10.4371  12
   4   5   2 219.607 10.4268   5
  -4   5  -2 222.572 9.74274  14
  -4  -6   2 38.5871 4.87586  13
  -4  -6   2 34.3713 4.60696   5
  -4  -6   2 28.4296 3.97401   6
   4  -6  -2 30.3259 4.83005  15
   4  -6  -2 39.7123 4.43482  14
   4  -6  -2 33.5496 4.59835   7
   4  -6  -2 35.0450 4.42412   4
   4   6  -2 26.8239 4.12201  12
   3  -6  -2 4.14450 4.59843  23
  -3  -6   2 -0.6009 3.60029   6
   3  -6  -2 7.85712 3.99470  14
  -3  -6   2 6.76454 4.48844  13
   3  -6  -2 2.20406 3.89148   7
   3  -6  -2 5.36487 4.23297   4
   3  -6  -2 3.33007 4.09607  15
   3  -6  -2 0.94431 4.62206  17
  -3  -6   2 2.18168 3.81314   5
  -3  -6   2 4.25000 4.01925  12
  -3   6   2 3.14073 3.99926   6
   3   6  -2 -0.0512 5.34613  22
  -3   6   2 2.37323 6.78197  22
   3   6  -2 -0.9661 4.76371  16
  -3   6   2 2.01299 4.69389  16
  -2  -6   2 367.542 14.7554   6
   2  -6  -2 333.825 15.2257  15
  -2  -6   2 356.485 15.5740   5
   2  -6  -2 363.210 15.4334   7
   2  -6  -2 334.629 17.9654  23
   2  -6  -2 350.718 14.5528   6
  -2  -6   2 351.805 15.9025  13
  -2  -6   2 334.117 15.0672  12
   2  -6  -2 376.768 17.4687  17
   2  -6  -2 348.783 14.9418  14
  -2   6   2 364.500 16.4043  16
  -2   6   2 374.980 19.6373  22
   2   6  -2 352.049 15.5790  16
   2   6  -2 358.496 18.3355  22
   1  -6  -2 134.576 22.0586  11
   1  -6  -2 184.832 9.91063  17
   1  -6  -2 179.396 8.71612   6
  -1  -6   2 183.659 9.31993  12
   1  -6  -2 177.583 10.0638  23
   1  -6  -2 181.939 9.50602  15
   1  -6  -2 152.571 23.7184  10
  -1  -6   2 169.651 9.61185  13
   1  -6  -2 170.860 8.92101  14
  -1  -6   2 177.839 9.05440   6
   1  -6  -2 163.883 9.43428   7
  -1  -6   2 174.250 9.42259   5
  -1   6   2 173.676 11.3615  22
  -1   6   2 187.547 9.74152  16
  -1   6   2 209.746 25.6327   3
   0  -6  -2 234.184 11.5531  15
   0  -6  -2 239.301 10.7384  14
   0  -6  -2 219.954 11.1273  13
   0  -6   2 249.598 11.5787   4
   0  -6  -2 223.684 27.5863  10
   0  -6  -2 247.933 12.8532  23
   0  -6  -2 248.617 10.8004   6
   0  -6  -2 248.782 12.3570  17
   0  -6  -2 254.740 11.4272   7
   0   6   2 267.393 26.1673   3
   0   6   2 216.202 11.7181  16
   1  -6   2 1123.19 42.1241   4
   1  -6   2 1108.27 41.2216  15
  -1  -6  -2 1127.93 40.3084   6
  -1  -6  -2 1151.41 41.8880   7
  -1  -6  -2 1159.82 52.0566  23
  -1  -6  -2 1155.61 49.4941  17
  -1  -6  -2 1117.58 42.7208  13
   1  -6   2 1050.99 41.5346   7
  -1  -6  -2 1146.57 40.6829  14
   1   6   2 1166.70 53.3748  22
  -1   6  -2 1134.61 43.2086  16
   1   6   2 1133.99 44.8155  16
  -1   6  -2 1136.65 51.4986  22
   2  -6   2 101.665 7.82508   4
  -2  -6  -2 104.845 7.14498  14
  -2  -6  -2 90.1573 9.56860  23
  -2  -6  -2 93.6639 7.95191   7
   2  -6   2 86.2130 6.62032  14
  -2  -6  -2 90.1303 8.35599  17
   2  -6   2 88.5115 7.13704  15
  -2  -6  -2 98.6097 7.15592  13
  -2  -6  -2 78.3285 6.78665   6
   2  -6   2 97.0083 7.05445   7
  -2   6  -2 97.9143 7.60211  16
   2   6   2 109.090 9.36260  16
   2   6   2 89.3092 10.7828  22
  -2   6  -2 88.1857 9.62476  22
   2   6   2 98.9025 7.36366   5
  -3  -6  -2 154.910 8.25147  14
   3  -6   2 155.206 8.71237   7
   3  -6   2 144.648 8.91835  15
  -3  -6  -2 147.839 8.29113   6
   3  -6   2 148.956 9.13974   4
  -3   6  -2 146.846 8.31629  14
   3   6   2 150.152 8.77437   5
   4  -6   2 122.585 7.29346   4
  -4   6  -2 136.379 6.93903   7
   4   6   2 135.561 7.18119   5
   4  -7  -2 1.65906 3.09309  15
  -4  -7   2 6.97712 3.19139   5
   4  -7  -2 0.84523 3.05664   7
  -4  -7   2 9.04356 3.34400  13
  -4  -7   2 8.23926 2.92714   6
   4  -7  -2 4.84153 2.98873  14
   4   7  -2 2.91074 2.58471  12
  -3  -7   2 9.10820 3.87950  12
   3  -7  -2 11.5099 3.88511  15
  -3  -7   2 5.47943 3.59921   6
   3  -7  -2 2.09344 3.84638   7
   3  -7  -2 12.6449 3.80264  14
  -3  -7   2 10.9860 3.86683   5
  -3  -7   2 8.79418 4.09161  13
  -3   7   2 10.8944 3.90625   6
  -2  -7   2 76.9671 7.13414  12
   2  -7  -2 84.9349 6.31432   6
   2  -7  -2 87.1687 7.18268  15
   2  -7  -2 87.6701 6.71491  14
  -2  -7   2 79.0511 7.41133   5
  -2  -7   2 77.5007 7.20132  13
  -2  -7   2 73.0554 6.47113   6
   2  -7  -2 90.4586 7.22213   7
  -2   7   2 70.4594 7.48909  16
   2   7  -2 72.3234 6.37894  16
   2   7  -2 79.1364 8.18281  22
  -2   7   2 66.4032 9.32137  22
   1  -7  -2 712.247 26.2061   6
   1  -7  -2 720.786 27.5459   7
   1  -7  -2 688.834 27.0282  15
   1  -7  -2 716.100 26.4615  14
  -1  -7   2 695.253 27.7262  13
  -1   7   2 677.391 34.1287  22
  -1   7   2 711.148 29.0981  16
   0  -7  -2 174.254 8.76752  14
   0  -7  -2 153.360 9.54176   7
   0  -7  -2 165.791 8.53295   6
   0   7   2 153.540 9.77183  16
   0   7   2 159.423 11.7653  22
  -1  -7  -2 87.3120 6.58629   6
   1  -7   2 90.8164 7.03222  15
   1  -7   2 86.8207 6.78245   7
  -1  -7  -2 95.6459 7.56555   7
  -1  -7  -2 89.5229 7.11814  13
  -1  -7  -2 87.8448 6.47426  14
   1  -7   2 84.9921 7.79854   4
   1   7   2 87.3387 8.22827  16
  -1   7  -2 70.8950 8.12645  22
  -1   7  -2 63.1975 5.94667  16
   1   7   2 79.4799 9.03954  22
   2  -7   2 637.817 24.8918  14
   2  -7   2 677.029 25.7713  15
  -2  -7  -2 682.192 25.2424  14
  -2  -7  -2 684.073 26.7216  13
   2  -7   2 681.711 26.4201   4
   2  -7   2 683.361 26.0173   7
  -2  -7  -2 644.439 24.8831   6
   2   7   2 663.511 25.8160   5
  -3  -7  -2 409.073 15.9292   6
  -3  -7  -2 404.781 16.1421  14
   3  -7   2 422.548 17.2346   4
   3  -7   2 420.597 16.9626   7
   3  -7   2 432.470 16.7514  15
  -3   7  -2 407.830 15.9817  14
   3   7   2 419.156 17.3328  13
   3   7   2 422.332 16.8517   5
   3  -8  -2 354.691 14.3483  15
  -3  -8   2 347.783 14.6494  13
   3  -8  -2 334.953 14.3421   7
  -3  -8   2 339.581 13.8092   6
   3  -8  -2 345.624 13.9516  14
  -3  -8   2 350.622 14.3045   5
  -2  -8   2 262.902 12.3340   5
  -2  -8   2 261.659 11.9369   6
   2  -8  -2 291.582 12.4173  15
  -2  -8   2 283.133 12.6643  13
   2  -8  -2 271.076 12.6344   7
   2  -8  -2 278.816 12.1300  14
  -2   8   2 282.631 12.0910   6
   1  -8  -2 16.0670 4.22483  15
   1  -8  -2 26.5730 3.97150   6
   1  -8  -2 26.0030 4.29113   7
   1  -8  -2 11.8341 3.82625  14
   0  -8  -2 260.478 11.4603  14
   0  -8  -2 244.454 12.2154   7
   0  -8  -2 242.578 11.0655   6
  -1  -8  -2 61.9072 6.54152   7
  -1  -8  -2 44.5989 5.46576  14
   1  -8   2 56.6183 5.92026  15
  -1  -8  -2 62.8287 5.42955   6
   1   8   2 58.5913 6.43971  13
  -2  -8  -2 91.4875 6.13595   6
   2  -8   2 87.4069 6.26884   7
  -2  -8  -2 94.9995 6.16772  14
   2  -8   2 94.1760 6.64140  15
   2   8   2 105.149 6.95866  13
   2  -9  -2 199.686 9.12027  15
   2  -9  -2 190.055 8.58466  14
   2  -9  -2 182.024 8.86909   7
   1  -9  -2 4.12976 3.16572   7
   1  -9  -2 3.77620 2.59058   6
   1  -9  -2 2.86658 2.88518  14
   0  -9  -2 267.890 11.2566   6
   0  -9  -2 269.991 11.9662   7
   0  -9  -2 278.790 11.5662  14
  -1  -9  -2 34.0882 4.07305   6
  -1  -9  -2 27.1913 3.38677  14
   5   0  -3 41.1400 4.82232   4
  -5   0   3 37.3513 4.59106   6
   4   0  -3 198.918 10.3404  24
  -4   0   3 185.263 9.57922   6
   4   0  -3 203.016 10.2768   4
   3   0  -3 61.0043 11.5220   1
  -3   0   3 50.6596 4.90018   6
  -3   0   3 53.6187 8.66588  20
   3   0  -3 62.0857 16.2150   8
  -3   0   3 49.9994 7.76991  17
  -3   0   3 58.5210 10.4831  21
  -3   0   3 55.5120 3.56986  24
   3   0  -3 57.5466 5.50109   4
  -3   0   3 40.0007 10.3050   3
   3   0  -3 53.2994 5.65439  24
   2   0  -3 62.1054 5.00492  16
   2   0  -3 66.4934 10.1066  18
  -2   0   3 67.8467 8.92566   9
  -2   0   3 66.6234 6.74733  23
   2   0  -3 70.1076 5.64362  22
  -2   0   3 70.6208 7.22150  17
  -2   0   3 60.6498 11.8533   2
   2   0  -3 65.9576 4.76853  24
  -2   0   3 77.1685 9.47444   3
   2   0  -3 68.2860 8.75645  19
   2   0  -3 71.4446 10.4840   1
  -2   0   3 61.8287 7.99621  21
   2   0  -3 49.6098 10.1532   8
  -2   0   3 61.7777 3.72407  24
  -2   0   3 67.8077 6.89130  20
   2   0  -3 59.7385 9.83291  11
   1   0  -3 220.637 14.6036   1
   1   0  -3 233.041 15.2745  21
  -1   0   3 225.649 15.0056  21
  -1   0   3 245.531 12.5660  17
  -1   0   3 242.692 9.46026  24
   1   0  -3 239.184 10.0798  24
   1   0  -3 242.657 18.1133  18
   1   0  -3 240.093 14.6331  20
   1   0  -3 253.336 18.0155  19
  -1   0   3 255.063 19.0988   8
  -1   0   3 257.073 17.4795   2
   1   0  -3 244.508 15.5148  11
   1   0  -3 220.635 12.2514  22
  -1   0   3 235.747 14.4534   3
  -1   0   3 260.863 14.3140  20
  -1   0   3 218.644 12.9171  23
   1   0  -3 235.894 10.4814  16
   0   0   3 244.665 14.3747   9
   0   0  -3 227.033 10.4963  16
   0   0  -3 241.006 18.1490  19
   0   0  -3 246.492 15.6016  21
   0   0   3 242.792 12.7635   3
   0   0  -3 240.029 14.8116  10
   0   0   3 225.086 13.5104  23
   0   0   3 251.511 12.6901  17
   0   0  -3 231.562 12.3272  22
   0   0  -3 267.173 16.3174  11
   0   0   3 244.176 20.1001   8
   0   0   3 243.772 17.9810   2
   0   0   3 239.142 9.52637  24
   0   0  -3 241.204 9.92915  24
   0   0   3 274.294 15.8034  21
   0   0  -3 243.834 14.4345  20
   0   0  -3 215.892 14.2030   1
   0   0   3 242.951 14.3419  20
   0   0  -3 238.623 17.9359  18
  -1   0  -3 34.1583 3.77398  16
  -1   0  -3 33.6108 9.78137  11
   1   0   3 46.1768 9.25874   1
   1   0   3 35.7400 6.27326  20
  -1   0  -3 31.5476 3.75725  24
  -1   0  -3 20.2417 5.51544  18
   1   0   3 36.6580 3.02221  24
   1   0   3 40.0154 11.2908   2
  -1   0  -3 33.8895 4.93382  22
   1   0   3 36.1400 5.51163  17
   1   0   3 28.3028 10.2515   8
  -1   0  -3 24.0663 8.07050  10
   1   0   3 41.1838 7.97242   9
   1   0   3 37.6350 6.32336  21
   1   0   3 34.1563 5.73503  23
  -2   0  -3 287.275 12.1471   7
   2   0   3 288.966 29.1756   8
   2   0   3 296.172 17.3268  17
   2   0   3 291.255 11.3137  24
   2   0   3 300.094 18.4822  23
   2   0   3 298.027 19.1574  20
   2   0   3 254.583 26.1279   2
  -2   0  -3 260.069 24.3130  10
   2   0   3 279.895 12.4371  15
   2   0   3 296.378 12.4563  12
  -2   0  -3 293.067 11.7992  14
  -2   0  -3 286.573 12.7147  24
   2   0   3 284.047 12.5247   5
   2   0   3 283.644 20.3345  21
  -2   0  -3 302.239 23.7986  11
   3   0   3 0.65753 4.15724   5
  -3   0  -3 -0.7050 3.26003  14
  -3   0  -3 4.09268 3.42107   7
  -3   0  -3 0.69331 3.81094  24
   3   0   3 0.47944 4.01235  12
   4   0   3 314.321 13.4913  12
  -4   0  -3 279.583 12.7871   7
  -4   0  -3 293.941 12.5970  14
   5  -1  -3 317.198 13.9486   4
  -5  -1   3 309.159 13.4562   6
  -5   1   3 311.039 13.5753   6
   5   1  -3 307.384 13.9455   4
  -4  -1   3 16.6945 3.64536   6
   4  -1  -3 19.7610 3.61778  24
  -4  -1   3 9.34144 8.11459  23
  -4  -1   3 24.8411 7.49666  17
   4  -1  -3 38.7699 4.77215   4
   4   1  -3 6.59083 22.1253   8
  -4   1   3 26.0767 3.51088  24
   4   1  -3 18.4367 4.61307   4
  -4   1   3 25.0144 3.71362   6
   4   1  -3 19.6836 4.78732  24
   3  -1  -3 -1.2872 10.8289   1
  -3  -1   3 2.66449 4.95942  23
  -3  -1   3 -0.3281 5.46995  17
  -3  -1   3 0.41448 7.01018  21
   3  -1  -3 1.57642 7.41768  21
   3  -1  -3 1.76887 2.85632  24
  -3  -1   3 0.52530 3.69988  13
  -3  -1   3 1.01717 10.8728   9
  -3  -1   3 1.07060 3.23256  12
   3  -1  -3 -0.6769 7.26932  20
  -3  -1   3 3.84695 10.1903   3
  -3  -1   3 1.54853 4.27578  20
   3  -1  -3 1.30217 3.12872   4
  -3  -1   3 2.58269 2.76073   6
  -3   1   3 0.85425 6.94060  20
   3   1  -3 -0.1674 8.99471  18
   3   1  -3 -4.7357 12.6396   8
   3   1  -3 -0.9250 12.2028   2
   3   1  -3 -1.6136 9.99812   1
   3   1  -3 0.54086 3.54237  24
  -3   1   3 0.76782 2.92831   6
   3   1  -3 1.12454 3.34617   4
   3   1  -3 2.75339 3.74385  22
  -3   1   3 1.60586 8.48741  21
   3   1  -3 3.34496 10.4210  19
  -3   1   3 -2.4151 9.41966   3
  -3   1   3 1.29435 2.59416  24
   3   1  -3 1.85065 3.38050  16
  -2  -1   3 310.829 17.3364  20
  -2  -1   3 280.524 15.6815  23
  -2  -1   3 311.746 17.8079   9
   2  -1  -3 275.494 19.0870  21
  -2  -1   3 302.698 18.5175  21
  -2  -1   3 291.049 18.8817   3
  -2  -1   3 308.717 22.4682   2
   2  -1  -3 307.148 20.8185  11
   2  -1  -3 305.564 19.3486   1
   2  -1  -3 273.117 18.1391  20
  -2  -1   3 301.057 15.4410  17
   2  -1  -3 310.440 12.4619  24
   2   1  -3 315.487 22.3824  18
   2   1  -3 285.562 15.1414  22
  -2   1   3 305.365 19.9124  21
  -2   1   3 302.344 12.3459  24
  -2   1   3 290.421 18.4519  20
   2   1  -3 306.325 19.6262   1
   2   1  -3 307.000 13.0538  16
   2   1  -3 298.600 22.2777  19
   2   1  -3 291.617 23.8163   8
  -2   1   3 290.147 17.3291   9
  -2   1   3 298.930 18.9251   3
  -1  -1   3 297.388 19.9080   2
  -1  -1   3 286.383 13.9603  17
   1  -1  -3 284.037 20.9554  18
  -1  -1   3 286.230 16.0546   9
  -1  -1   3 292.746 14.7448  23
   1  -1  -3 293.278 16.6975   1
   1  -1  -3 267.080 20.7299  19
   1  -1  -3 278.399 16.9177  10
   1  -1  -3 284.086 11.5646  24
  -1  -1   3 302.123 22.1164   8
  -1  -1   3 295.752 15.8654   3
   1  -1  -3 258.720 17.7607  21
  -1  -1   3 293.986 16.9646  21
   1  -1  -3 259.099 16.5521  20
  -1  -1   3 299.971 15.8302  20
   1  -1  -3 290.551 18.2904  11
  -1   1   3 239.403 19.9871  18
   1   1  -3 300.339 17.3169   1
   1   1  -3 304.997 20.4677  19
   1   1  -3 303.109 20.4912  18
  -1   1   3 287.369 18.1041  21
  -1   1   3 282.330 11.5171  24
  -1   1   3 265.659 19.9889   8
  -1   1   3 273.157 16.7396  20
  -1   1   3 288.864 19.3067   2
   1   1  -3 280.343 17.2999  11
   1   1  -3 272.193 14.0106  22
   1   1  -3 286.335 12.0532  16
  -1   1   3 278.779 20.3540  19
  -1   1   3 313.184 16.2930   9
  -1   1   3 290.199 16.8507   3
   0  -1  -3 1038.93 50.8263  10
   0  -1  -3 1012.39 52.1056  20
   0  -1   3 1013.88 46.5247  23
   0  -1  -3 993.001 64.1327  18
   0  -1   3 1033.35 43.3423   9
   0  -1   3 1036.60 54.6594   2
   0  -1   3 1060.52 54.9769  21
   0  -1  -3 942.366 64.5266  19
   0  -1  -3 997.329 45.2448   1
   0  -1  -3 1003.52 37.2951  24
   0  -1   3 1008.47 44.1697  17
   0  -1   3 1031.94 51.3777  20
   0  -1  -3 958.677 55.6255  21
   0  -1   3 1083.07 61.5927   8
   0  -1  -3 1020.55 50.2791  11
   0   1   3 1043.71 52.6871  20
   0   1   3 1030.27 56.2044  21
   0   1  -3 1036.93 63.8188  18
   0   1   3 994.456 64.0080  18
   0   1   3 1008.91 37.3572  24
   0   1  -3 933.113 45.9915  22
   0   1   3 1061.34 54.5086   2
   0   1  -3 1109.14 50.9131  11
   0   1   3 1012.85 60.0760   8
   0   1  -3 1061.13 46.5520   1
   0   1  -3 1046.41 64.3084  19
   0   1   3 934.674 45.4847   3
   0   1  -3 967.535 38.6634  16
   0   1   3 966.439 64.6203  19
   0   1   3 987.082 43.1246   9
   1  -1   3 1242.18 62.9787  20
   1  -1   3 1137.22 66.8908  21
  -1  -1  -3 1276.64 68.5129  21
  -1  -1  -3 1240.80 62.9161  10
   1  -1   3 1223.38 56.8502  23
  -1  -1  -3 1254.33 61.1492  11
   1  -1   3 1120.61 74.6713   8
   1  -1   3 1289.32 67.0934   2
   1  -1   3 1293.91 57.0324   1
   1  -1   3 1226.72 54.0448  17
  -1  -1  -3 1262.89 45.3912  24
   1  -1   3 1274.55 52.1475   9
  -1  -1  -3 1266.20 63.6962  20
   1   1   3 1183.99 52.7286   9
  -1   1  -3 1242.92 47.3969  16
   1   1   3 1280.14 45.5297  24
   1   1   3 1029.27 66.2925   2
   1   1   3 1276.94 74.3456   8
  -1   1  -3 1297.17 56.3075  22
  -1   1  -3 1231.46 78.2791  18
   1   1   3 1211.64 68.5469  21
  -1   1  -3 1120.22 61.4336  11
  -1   1  -3 1273.69 62.6483  10
   1   1   3 1257.82 64.3911  20
  -2  -1  -3 47.7678 11.9103  21
  -2  -1  -3 56.0657 5.02263  14
  -2  -1  -3 64.6201 5.38923   7
  -2  -1  -3 67.2180 4.93875  24
   2  -1   3 67.5830 5.97627   5
  -2  -1  -3 89.0853 15.0733  10
   2  -1   3 73.0809 9.63026  23
   2  -1   3 76.4382 9.75939  21
   2  -1   3 78.3645 17.0845   8
   2  -1   3 71.6162 6.38133  15
   2  -1   3 60.7663 8.32685  20
   2  -1   3 89.1653 14.4578   1
   2  -1   3 70.1220 5.98875  12
  -2  -1  -3 76.5072 11.0422  20
   2  -1   3 69.0157 8.82187  17
  -2  -1  -3 68.1839 13.3418  11
   2  -1   3 72.9549 16.9661   2
  -2   1  -3 71.6217 7.85361  22
  -2   1  -3 59.5333 6.16325  24
   2   1   3 52.1808 10.4550  21
   2   1   3 72.6348 12.7293   9
  -2   1  -3 70.7662 14.0739  18
   2   1   3 73.0329 10.7220  20
  -2   1  -3 65.8710 14.4587  11
   2   1   3 86.3283 17.3955   2
  -2   1  -3 91.9812 14.9579  10
  -2   1  -3 79.1790 5.45397  14
  -2   1  -3 78.5430 6.55920  16
   2   1   3 78.8323 6.10561   5
  -2   1  -3 67.7261 13.9364  19
   2   1   3 63.1113 5.43118  24
  -2   1  -3 72.3368 5.64435   7
   2   1   3 76.3248 5.87644  12
   2   1   3 77.7770 18.0678   8
  -3  -1  -3 24.1892 3.84806  14
   3  -1   3 18.1223 7.67007  17
  -3  -1  -3 20.5433 3.83420   7
   3  -1   3 24.7277 4.59321  12
  -3  -1  -3 26.6249 4.00122  24
   3  -1   3 13.7441 8.16441  23
  -3   1  -3 22.5539 5.06395  24
   3   1   3 35.9337 4.98031  12
  -3   1  -3 17.8473 3.74273  14
   3   1   3 26.4551 4.79800   5
  -3   1  -3 23.1767 3.98977   7
   3   1   3 22.7408 3.69980  24
  -4  -1  -3 68.0323 6.09731   7
  -4  -1  -3 81.5418 6.13545  14
   4  -1   3 67.3311 6.84490  12
  -4   1  -3 73.2541 5.93919  14
   4   1   3 71.4905 6.74542   5
  -4   1  -3 83.6965 6.24679   7
   4   1   3 75.2660 7.35098  12
   5  -2  -3 359.733 15.3161   4
  -5  -2   3 372.160 14.8147   6
   5   2  -3 347.245 14.7334  12
  -5   2   3 321.877 14.4615   6
  -4  -2   3 55.6842 8.25133  17
  -4  -2   3 58.2328 5.90024   6
  -4  -2   3 66.0775 6.39501  12
  -4  -2   3 63.2793 9.04447  23
   4  -2  -3 65.8950 6.63862   4
   4   2  -3 51.8045 6.66906  24
   4   2  -3 64.5041 6.01550   4
  -4   2   3 67.1206 6.54332   6
  -4   2   3 55.3708 5.72200  24
  -3  -2   3 26.6275 4.25711   5
   3  -2  -3 40.7692 7.65364  20
   3  -2  -3 38.1903 12.7348   1
   3  -2  -3 22.2503 7.38606  21
  -3  -2   3 33.0063 5.59831  23
  -3  -2   3 31.9793 5.32771  17
   3  -2  -3 25.0626 3.79368   4
  -3  -2   3 22.1282 3.53522   6
  -3  -2   3 19.5614 4.55867  20
  -3  -2   3 22.9777 11.8588   9
   3  -2  -3 28.7124 3.11793  24
  -3  -2   3 31.7643 3.95653  12
  -3  -2   3 29.9167 6.30531  21
  -3  -2   3 42.7171 12.4829   3
  -3  -2   3 34.4749 4.81510  13
   3   2  -3 27.5862 12.7766   1
  -3   2   3 31.4270 3.84971   6
   3   2  -3 38.7620 12.2800  19
   3   2  -3 31.1587 4.59691  16
   3   2  -3 39.0618 10.5864  18
  -3   2   3 35.2744 3.96739  24
   3   2  -3 36.6824 14.7890   2
   3   2  -3 42.5777 4.34196   4
   3   2  -3 23.4000 14.8973   8
   3   2  -3 34.4241 5.33575  22
  -3   2   3 16.8722 10.9605   3
  -2  -2   3 120.723 15.8175   2
   2  -2  -3 124.588 10.9637  21
   2  -2  -3 123.005 9.72642  23
  -2  -2   3 137.656 13.6573   9
   2  -2  -3 132.352 9.93762  17
  -2  -2   3 133.577 7.95667  20
  -2  -2   3 138.737 8.65981  17
   2  -2  -3 146.962 6.52962  24
  -2  -2   3 147.584 9.07279  23
   2  -2  -3 120.256 10.7121  20
   2  -2  -3 140.299 15.0480  11
  -2  -2   3 153.295 15.4024   3
  -2  -2   3 113.821 8.44820  21
   2  -2  -3 112.423 13.3060   1
   2   2  -3 142.427 7.15184  16
  -2   2   3 127.330 14.0535   3
   2   2  -3 142.498 13.5070  18
  -2   2   3 140.138 13.6316  18
   2   2  -3 138.145 13.3988  19
   2   2  -3 139.758 14.6140   1
  -2   2   3 131.695 7.43139  16
   2   2  -3 119.115 16.7486   8
  -2   2   3 114.758 12.4682   9
  -2   2   3 129.747 8.60868  22
   2   2  -3 147.582 8.22839  22
  -2   2   3 142.403 13.3723  19
  -2   2   3 138.371 7.16478  24
  -2   2   3 116.839 13.4980  10
  -1  -2   3 561.606 26.6012  23
   1  -2  -3 576.115 32.3300  21
   1  -2  -3 575.212 26.3340  17
   1  -2  -3 564.463 28.0141   1
   1  -2  -3 534.865 27.0454  23
   1  -2  -3 539.442 30.9075  10
   1  -2  -3 551.577 31.5353  11
  -1  -2   3 581.004 38.2601   8
  -1  -2   3 580.854 27.0342   9
  -1  -2   3 528.594 25.1775  17
  -1  -2   3 543.533 27.8556   3
   1  -2  -3 553.453 21.2411  24
  -1   2   3 533.713 37.3293  19
   1   2  -3 585.648 22.0961  16
   1   2  -3 581.520 26.1491  22
  -1   2   3 580.061 26.7614   9
  -1   2   3 572.839 26.5705  22
  -1   2   3 527.208 30.8860  20
  -1   2   3 542.993 33.0682  21
  -1   2   3 592.798 28.9816   3
  -1   2   3 585.465 32.6235   2
   1   2  -3 579.349 30.0545  11
  -1   2   3 585.071 21.8166  24
  -1   2   3 524.968 37.2583  18
   1   2  -3 589.636 37.0967  19
   1   2  -3 567.755 36.7484  18
  -1   2   3 557.536 22.6239  16
   0  -2  -3 6319.15 337.252  21
   0  -2  -3 6474.36 268.303  17
   0  -2   3 6066.26 280.921  23
   0  -2  -3 6484.73 291.381  11
   0  -2  -3 6237.33 281.558  23
   0  -2   3 6635.97 249.728   9
   0  -2  -3 6301.42 316.442  20
   0  -2  -3 6394.06 302.169  10
   0  -2   3 6408.00 267.568  17
   0  -2  -3 6334.65 228.826  24
   0  -2   3 6511.72 314.128   2
   0  -2   3 6557.13 352.426   8
   0   2   3 6645.10 387.170  18
   0   2  -3 6368.58 390.222  19
   0   2  -3 6363.15 268.116   1
   0   2   3 6691.25 314.199   2
   0   2  -3 6657.44 290.850  11
   0   2   3 6256.56 229.322  24
   0   2   3 6509.97 282.520  22
   0   2   3 6256.31 272.580   3
   0   2  -3 6538.13 237.087  16
   0   2   3 6351.76 250.040   9
   0   2  -3 6645.49 281.875  22
   0   2   3 6279.30 338.214  21
   0   2  -3 6160.62 386.064  18
   0   2   3 6185.51 317.344  20
   0   2   3 6150.28 237.487  16
   0   2   3 6132.21 391.277  19
  -1  -2  -3 1168.77 61.5884  10
   1  -2   3 1177.87 65.2071   2
   1  -2   3 1141.29 73.5246   8
  -1  -2  -3 1268.83 43.7545  24
  -1  -2  -3 1231.65 55.5711  23
  -1  -2  -3 1181.46 66.1894  21
   1  -2   3 1231.40 52.0379  17
   1  -2   3 1192.95 56.0137   1
  -1  -2  -3 1169.68 52.5577  17
   1  -2   3 1256.83 54.6393  23
  -1  -2  -3 1185.58 60.5930  11
   1  -2   3 1137.69 62.8705  21
  -1  -2  -3 1192.99 61.4521  20
   1  -2   3 1039.99 62.7681  21
  -1   2  -3 1277.24 54.3582  22
   1   2   3 1157.25 65.8409   2
   1   2   3 1155.15 72.1251   8
  -1   2  -3 1184.58 60.8014  11
  -1   2  -3 1174.90 60.9355  10
  -1   2  -3 1227.17 45.7686  16
  -1   2  -3 1214.29 75.7924  18
   1   2   3 1144.46 51.8601   9
   1   2   3 1222.54 44.3170  24
   2  -2   3 205.902 12.5623  21
  -2  -2  -3 196.055 9.02426  14
  -2  -2  -3 199.083 8.74895  24
   2  -2   3 201.689 11.6076  20
  -2  -2  -3 181.590 21.4462  10
  -2  -2  -3 200.044 18.1185  21
  -2  -2  -3 198.531 14.5662  20
   2  -2   3 202.498 9.95361  12
   2  -2   3 200.956 28.0518   8
   2  -2   3 194.981 13.5775  23
   2  -2   3 210.051 12.6300  17
   2  -2   3 189.149 20.5243   1
   2  -2   3 191.795 9.81656   4
   2  -2   3 191.860 24.7362   2
   2  -2   3 211.471 10.0568   7
  -2  -2  -3 194.233 9.28970   7
   2  -2   3 189.990 9.92287  15
   2   2   3 181.149 9.68555  13
  -2   2  -3 208.396 19.9646  18
  -2   2  -3 199.103 21.7675  11
   2   2   3 186.856 9.52907  12
  -2   2  -3 195.444 19.8789  19
   2   2   3 184.595 27.2104   8
   2   2   3 178.026 18.9900   9
  -2   2  -3 208.500 10.5862  16
  -2   2  -3 171.001 21.8134  10
  -2   2  -3 195.872 9.10476  14
   2   2   3 211.678 9.87351  24
   2   2   3 180.643 9.68191   5
   2   2   3 169.538 23.1455   2
  -2   2  -3 178.092 12.4158  22
   3  -2   3 55.5406 5.59177  12
   3  -2   3 46.9833 8.25280  17
  -3  -2  -3 49.9476 5.66482  14
   3  -2   3 41.6032 5.35916   4
   3  -2   3 45.1545 9.07595  23
  -3  -2  -3 48.1120 5.95086   7
   3  -2   3 51.1364 5.76110  15
  -3   2  -3 45.2461 5.22853   7
   3   2   3 46.9744 5.43778  24
   3   2   3 43.1807 5.16692  12
  -3   2  -3 56.4532 5.31743  14
   3   2   3 44.4922 5.33543   5
  -3   2  -3 45.1294 6.33819  24
  -4  -2  -3 7.21403 3.66609   7
   4  -2   3 8.09843 3.79982  12
  -4  -2  -3 9.01375 3.32041  14
   4   2   3 14.2439 4.34305  12
  -4   2  -3 10.5916 3.65573   7
   4   2   3 11.2684 4.26577   5
  -4   2  -3 8.06699 3.28870  14
   5  -3  -3 10.8142 3.51264   4
  -5  -3   3 10.4856 3.42437   6
   5   3  -3 11.0135 3.69565  12
  -5   3   3 8.57802 3.72699   6
  -4  -3   3 34.0794 4.67099   6
  -4  -3   3 55.3306 7.55519  17
   4  -3  -3 39.6113 4.74892   4
  -4  -3   3 56.8441 5.66672  12
  -4  -3   3 42.5177 7.71179  23
  -4  -3   3 47.7896 5.95696  13
  -4  -3   3 54.9690 5.81867   5
   4   3  -3 48.1197 8.13289  22
  -4   3   3 52.3081 6.39402  24
  -4   3   3 42.0938 4.93003   6
   4   3  -3 50.5677 6.29024  16
   3  -3  -3 805.284 39.5421  23
  -3  -3   3 803.330 29.6939  12
  -3  -3   3 799.404 31.1547  13
   3  -3  -3 803.820 47.3235  11
  -3  -3   3 830.506 38.1553  23
   3  -3  -3 815.671 29.6571  15
   3  -3  -3 769.011 38.0559  17
  -3  -3   3 842.027 36.5171  17
  -3  -3   3 774.875 30.1457   5
   3  -3  -3 733.389 42.7871   1
  -3  -3   3 789.218 44.7238   3
   3  -3  -3 843.341 44.2720  20
  -3  -3   3 772.142 29.1565   6
  -3  -3   3 761.707 40.9146   9
   3  -3  -3 799.198 30.1874   4
  -3   3   3 754.152 44.3701   3
  -3   3   3 783.898 29.1549   6
   3   3  -3 714.026 55.8079   8
   3   3  -3 768.399 50.6673   2
   3   3  -3 849.234 38.4665  22
   3   3  -3 705.708 42.9419   1
   3   3  -3 795.583 30.1546   4
  -3   3   3 801.958 31.5500  24
   3   3  -3 786.416 54.2926  18
   3   3  -3 833.208 32.3301  16
  -2  -3   3 157.364 17.0460   3
   2  -3  -3 168.695 17.5186  11
   2  -3  -3 167.277 8.60296  15
  -2  -3   3 172.315 8.66721  12
  -2  -3   3 175.152 19.5151   2
  -2  -3   3 184.000 10.0323  17
  -2  -3   3 150.613 16.5441   9
  -2  -3   3 184.786 10.3980  23
   2  -3  -3 185.291 16.7736   1
   2  -3  -3 164.657 11.6944  23
  -2  -3   3 157.291 9.13651  13
   2  -3  -3 180.472 13.6100  21
  -2  -3   3 192.466 8.88546   4
  -2  -3   3 183.005 9.12952   5
   2  -3  -3 167.927 11.9230  17
   2  -3  -3 201.970 13.5360  20
  -2   3   3 167.243 9.22703  24
   2   3  -3 201.696 10.4435  22
  -2   3   3 176.525 17.0118  10
  -2   3   3 173.838 10.9047  22
   2   3  -3 177.311 17.6313   1
  -2   3   3 161.033 16.4008  18
   2   3  -3 188.117 22.6092   8
   2   3  -3 201.414 16.1963  18
  -2   3   3 169.543 16.1327  19
  -2   3   3 163.423 18.1164   3
  -2   3   3 204.717 9.70417  16
   2   3  -3 187.601 16.4727  19
   2   3  -3 176.673 8.79645  16
  -1  -3   3 3867.54 160.536  23
  -1  -3   3 3668.34 145.999   9
   1  -3  -3 3574.48 175.653  10
   1  -3  -3 3740.14 154.606  17
  -1  -3   3 3494.87 157.264   3
   1  -3  -3 3710.24 193.469  21
  -1  -3   3 3717.83 152.875  17
  -1  -3   3 3504.96 184.154   2
   1  -3  -3 3492.85 181.664  20
   1  -3  -3 3953.53 154.754   1
   1  -3  -3 3670.05 161.750  23
   1  -3  -3 3486.46 169.787  11
  -1  -3   3 3723.80 205.603   8
  -1   3   3 3713.42 131.830  24
  -1   3   3 3715.10 159.672   3
  -1   3   3 3516.08 144.703   9
   1   3  -3 3255.68 223.385  19
  -1   3   3 3464.67 222.521  18
   1   3  -3 3661.74 221.320  18
  -1   3   3 3540.12 136.521  16
   1   3  -3 3740.30 161.136  22
   1   3  -3 3857.16 135.667  16
   1   3  -3 3713.52 156.525   1
  -1   3   3 3539.84 224.787  19
  -1   3   3 3695.38 161.972  22
   0  -3  -3 191.031 17.5931  11
   0  -3  -3 185.468 16.1806  10
   0  -3   3 191.381 10.0063  23
   0  -3  -3 179.578 10.9906  17
   0  -3   3 209.707 18.2354   2
   0  -3   3 192.098 14.3145   9
   0  -3  -3 191.841 13.3308  21
   0  -3   3 177.917 20.2551   8
   0  -3  -3 193.050 11.6762  23
   0  -3  -3 187.010 12.5085  20
   0  -3   3 189.726 9.47556  17
   0   3   3 193.547 9.46527  16
   0   3   3 201.525 16.6843  18
   0   3  -3 193.434 9.94864  22
   0   3   3 186.626 18.7135   2
   0   3   3 182.278 16.6578  19
   0   3   3 205.514 11.1463  22
   0   3   3 193.626 9.44104  24
   0   3  -3 203.798 17.1499  11
   0   3   3 222.613 15.8611   9
   0   3  -3 180.186 14.7719  18
   0   3  -3 194.712 8.33907  16
   0   3   3 194.357 15.6302   3
   0   3  -3 191.120 15.0658  19
  -1  -3  -3 256.707 11.2486   7
  -1  -3  -3 261.763 17.8836  21
  -1  -3  -3 260.107 15.6293  23
  -1  -3  -3 265.755 10.6829  14
  -1  -3  -3 240.175 20.6677  10
   1  -3   3 255.424 11.5754   4
  -1  -3  -3 264.575 14.3908  17
   1  -3   3 270.139 11.4783  15
   1  -3   3 267.605 21.6945   1
   1  -3   3 248.324 11.1412  12
   1  -3   3 266.527 13.8795  23
   1  -3   3 235.386 21.9208   2
   1  -3   3 281.066 13.2115  17
   1  -3   3 269.424 27.0246   8
  -1  -3  -3 259.403 21.1624  11
   1  -3   3 255.843 11.1825   7
  -1  -3  -3 255.107 15.9005  20
   1   3   3 220.637 21.0901  18
  -1   3  -3 249.057 20.2762  19
   1   3   3 222.438 19.0530   3
  -1   3  -3 246.982 20.5652  18
   1   3   3 251.183 11.1184   5
   1   3   3 255.718 12.3794  16
   1   3   3 263.528 22.6162  19
  -1   3  -3 287.025 11.7570  16
   1   3   3 250.599 11.9377  24
   1   3   3 237.138 19.1230   9
   1   3   3 263.087 14.6175  22
   1   3   3 270.487 24.0866   2
  -1   3  -3 266.893 13.5887  22
  -1   3  -3 270.834 22.1817  11
  -2  -3  -3 229.343 10.8897   7
   2  -3   3 240.990 11.0720  12
   2  -3   3 216.395 31.9665   8
   2  -3   3 192.835 13.9953  23
   2  -3   3 250.728 24.1320   1
   2  -3   3 225.904 11.1759   4
   2  -3   3 234.825 11.1730   7
  -2  -3  -3 220.699 23.8219  10
  -2  -3  -3 242.231 15.1200  17
  -2  -3  -3 196.076 16.4931  23
  -2  -3  -3 233.664 10.3065  14
   2  -3   3 224.755 13.3663  17
   2  -3   3 241.835 10.9973  15
   2   3   3 226.609 10.9036   5
  -2   3  -3 241.278 11.7684  16
  -2   3  -3 228.821 10.3033  14
  -2   3  -3 204.118 24.9868  11
   2   3   3 211.757 10.9377  13
   2   3   3 232.805 10.7823  12
  -2   3  -3 247.671 14.7798  22
   2   3   3 245.785 28.4860   2
   2   3   3 240.591 22.2478   9
   2   3   3 250.235 11.9204  24
   3  -3   3 483.399 25.7245  23
   3  -3   3 491.302 19.2684  12
   3  -3   3 488.944 24.4342  17
   3  -3   3 467.753 19.5013  15
   3  -3   3 453.139 19.6013   4
  -3  -3  -3 475.336 19.0682   7
  -3  -3  -3 495.509 18.6030  14
  -3   3  -3 442.021 18.4847  14
   3   3   3 470.768 20.1766  24
  -3   3  -3 446.486 21.4735  16
   3   3   3 468.743 20.3284  13
  -3   3  -3 462.995 26.0240  22
   3   3   3 460.821 19.0190  12
   3   3   3 477.464 19.4930   5
  -4  -3  -3 40.2717 4.85890  14
   4  -3   3 47.7658 4.81243  12
  -4   3  -3 43.5637 5.28925   7
  -4   3  -3 42.2682 4.27599  14
   4   3   3 44.2085 4.79407   5
   4   3   3 45.4702 5.06738  12
  -5  -4   3 22.7923 3.53462   6
   5  -4  -3 28.1965 3.93390   4
   5   4  -3 32.0010 3.96992  12
  -5   4   3 30.0656 3.96193   6
  -4  -4   3 117.954 9.63285  17
   4  -4  -3 132.184 8.17913   4
   4  -4  -3 129.690 12.7537  23
   4  -4  -3 129.984 12.4841  17
  -4  -4   3 122.289 8.47383   5
  -4  -4   3 138.650 9.12415  13
  -4  -4   3 122.584 11.2809  23
  -4  -4   3 136.525 8.30109  12
  -4  -4   3 140.941 8.10967   6
  -4   4   3 112.744 8.87554  24
  -4   4   3 127.398 8.09768   6
   4   4  -3 114.112 11.3026  22
   4   4  -3 131.047 9.62669  16
  -3  -4   3 549.288 22.6817   5
   3  -4  -3 585.968 22.3485  15
  -3  -4   3 563.477 27.6528  23
   3  -4  -3 567.024 29.6317  23
  -3  -4   3 569.943 22.3773  12
   3  -4  -3 613.120 29.2993  17
   3  -4  -3 595.966 22.3625  14
  -3  -4   3 562.113 26.3459  17
  -3  -4   3 586.114 23.5356  13
  -3  -4   3 557.166 21.9403   6
  -3   4   3 562.541 24.0535  24
   3   4  -3 560.844 24.0417  16
   3   4  -3 578.689 28.5904  22
  -3   4   3 538.973 24.6663  16
  -3   4   3 577.470 21.9659   6
  -3   4   3 560.680 29.0432  22
  -2  -4   3 353.789 17.3292  23
  -2  -4   3 356.389 16.3673  17
  -2  -4   3 351.580 14.4241   6
   2  -4  -3 376.208 14.6262  14
   2  -4  -3 366.860 15.3287   7
  -2  -4   3 340.588 24.3248   9
   2  -4  -3 359.771 15.2153  15
   2  -4  -3 376.660 14.4837   6
  -2  -4   3 352.367 15.9282  13
   2  -4  -3 394.601 19.7208  17
   2  -4  -3 377.103 20.9686  20
  -2  -4   3 359.656 26.1425   3
  -2  -4   3 386.222 15.5569   5
  -2  -4   3 367.955 15.1846  12
   2  -4  -3 359.173 19.6886  23
  -2  -4   3 362.274 30.5212   2
  -2  -4   3 379.424 15.1473   4
   2  -4  -3 367.624 22.1838  21
   2  -4  -3 384.556 26.5478   1
   2  -4  -3 356.095 28.6289  11
   2   4  -3 289.331 26.3150  18
   2   4  -3 416.772 18.6809  22
  -2   4   3 384.701 19.3620  22
   2   4  -3 341.559 27.1872  19
  -2   4   3 352.436 27.7819  19
   2   4  -3 391.705 15.6356  16
  -2   4   3 344.880 26.4944   3
   2   4  -3 327.355 26.0259   1
   2   4  -3 346.703 34.6587   8
  -2   4   3 369.406 28.1606  18
  -2   4   3 316.380 25.9113  10
  -2   4   3 408.223 16.6309  16
  -1  -4   3 739.127 36.6933   9
   1  -4  -3 745.335 28.5030   7
  -1  -4   3 760.252 46.4385   2
   1  -4  -3 722.237 43.7413  11
  -1  -4   3 771.380 28.7918   4
   1  -4  -3 781.028 36.3987  23
   1  -4  -3 764.273 35.0590  17
   1  -4  -3 791.913 40.0141  20
   1  -4  -3 793.198 44.5105  10
   1  -4  -3 757.832 27.5136  14
  -1  -4   3 768.216 28.5449   5
  -1  -4   3 790.884 28.1845  12
  -1  -4   3 743.535 52.4430   8
   1  -4  -3 786.099 27.4355   6
   1  -4  -3 776.414 28.3430  15
   1  -4  -3 698.502 42.1666  21
  -1  -4   3 765.036 29.3493  13
  -1   4   3 826.334 30.8418  16
   1   4  -3 772.705 34.8220  22
  -1   4   3 797.939 51.4536  19
  -1   4   3 777.661 36.0987  22
  -1   4   3 778.734 41.3412   3
  -1   4   3 673.792 35.7738   9
   1   4  -3 770.257 49.2938  19
  -1   4   3 716.624 50.6686  18
   1   4  -3 777.797 40.3998   1
   1   4  -3 716.939 48.5305  18
   1   4  -3 786.538 29.3680  16
   0  -4  -3 3805.89 129.920   6
   0  -4   3 3695.63 216.576   8
   0  -4   3 3795.99 134.976   4
   0  -4   3 3860.22 133.602   5
   0  -4   3 3709.60 152.510   9
   0  -4  -3 3976.04 170.376  23
   0  -4  -3 3917.96 180.216  11
   0  -4   3 3957.01 194.593   2
   0  -4  -3 3848.03 130.729  14
   0  -4  -3 3845.50 132.589  15
   0  -4   3 3383.70 132.054  15
   0  -4  -3 3896.88 202.804  21
   0  -4  -3 3908.19 186.228  10
   0  -4  -3 3934.33 190.418  20
   0  -4  -3 3652.88 133.931   7
   0  -4  -3 3816.38 162.198  17
   0  -4   3 3671.55 131.706  12
   0   4  -3 3887.52 165.826   1
   0   4   3 3905.78 168.680   3
   0   4  -3 4091.64 232.400  18
   0   4   3 3766.30 234.556  18
   0   4  -3 3658.96 178.924  11
   0   4   3 3753.36 137.716  13
   0   4   3 3700.70 143.585  16
   0   4   3 3898.01 170.642  22
   0   4  -3 4050.55 234.677  19
   0   4  -3 3875.87 142.319  16
   0   4  -3 3691.72 169.122  22
   0   4   3 3987.51 237.574  19
   0   4   3 3841.95 154.188   9
  -1  -4  -3 1184.18 65.3316  10
   1  -4   3 1212.69 43.1991  12
   1  -4   3 1200.11 44.4424   4
   1  -4   3 1264.55 43.9299   7
  -1  -4  -3 1262.24 42.7271  14
  -1  -4  -3 1248.10 42.3365   6
  -1  -4  -3 1217.49 44.0675   7
   1  -4   3 1199.38 77.5589   8
   1  -4   3 1224.48 53.3754  23
   1  -4   3 1210.93 60.0875   1
  -1  -4  -3 1187.02 53.5023  17
  -1  -4  -3 1240.29 56.8736  23
  -1  -4  -3 1236.63 62.0542  20
  -1  -4  -3 1229.44 66.5023  21
   1  -4   3 1188.63 43.3735  15
  -1  -4  -3 1237.15 64.4506  11
   1   4   3 1086.88 78.2272  18
  -1   4  -3 1185.33 76.7858  18
   1   4   3 1157.41 54.9593   9
  -1   4  -3 1229.82 46.4080  16
   1   4   3 1182.16 59.2478   3
   1   4   3 1212.54 43.7175   5
   1   4   3 1271.92 69.4223   2
  -1   4  -3 1245.30 55.0678  22
   1   4   3 1226.08 47.4853  16
   1   4   3 1024.82 79.0163  19
  -1   4  -3 1153.03 64.3433  11
   1   4   3 1185.24 56.4287  22
  -2  -4  -3 812.444 29.0478  14
   2  -4   3 817.289 37.0271  23
  -2  -4  -3 777.876 39.9766  23
   2  -4   3 780.319 35.0624  17
   2  -4   3 805.228 29.6047  12
  -2  -4  -3 766.499 30.0058   7
  -2  -4  -3 739.991 37.0437  17
   2  -4   3 760.945 29.8281  15
   2  -4   3 780.527 30.1703   7
   2  -4   3 815.739 30.5915   4
   2   4   3 825.964 30.0922   5
  -2   4  -3 804.294 38.5948  22
  -2   4  -3 782.154 32.3423  16
   2   4   3 798.098 31.8809  24
  -3  -4  -3 49.8909 5.33747  14
  -3  -4  -3 28.8957 9.77814  23
   3  -4   3 53.5410 5.43398  12
  -3  -4  -3 23.7940 6.98527  17
   3  -4   3 50.0767 6.66774  23
  -3  -4  -3 49.4085 5.24835   7
   3  -4   3 55.8499 5.65414   4
   3  -4   3 40.5883 5.36826  15
   3  -4   3 44.9601 6.11904  17
   3   4   3 53.9691 6.35840   5
  -3   4  -3 41.4889 4.64329  14
   3   4   3 45.0407 5.41496  13
  -3   4  -3 36.9063 5.94551  16
  -3   4  -3 59.8792 9.21247  22
   3   4   3 55.2796 6.47129  24
   4  -4   3 25.5035 3.96691   4
  -4  -4  -3 23.4573 3.30722  14
   4  -4   3 6.55758 4.01439  15
   4   4   3 32.5198 4.26019   5
  -4   4  -3 26.4877 3.35607  14
   4   4   3 25.4429 4.21172  12
  -4   4  -3 29.4680 3.76708   7
  -5  -5   3 20.4456 2.95668   6
  -5  -5   3 7.16933 3.33722   5
   5  -5  -3 25.2670 3.18722   4
   5   5  -3 12.9857 2.88402  12
  -5   5   3 1.62278 2.91829   6
   4  -5  -3 3.94667 3.76437   4
  -4  -5   3 5.44216 3.81456  12
  -4  -5   3 3.82150 3.61571   6
  -4  -5   3 1.78462 4.27099  13
  -4  -5   3 2.48124 3.67328   5
   4  -5  -3 -1.2009 4.24520  15
  -4   5   3 0.30255 3.79696   6
  -3  -5   3 312.015 14.2299   5
   3  -5  -3 312.925 18.3281  17
   3  -5  -3 313.704 18.3330  23
   3  -5  -3 297.060 13.8278  15
  -3  -5   3 312.180 13.4124   6
   3  -5  -3 310.833 13.4536  14
  -3  -5   3 315.167 13.8753  12
   3  -5  -3 297.473 13.8048   4
   3  -5  -3 305.541 13.8096   7
   3   5  -3 272.161 17.1944  22
  -3   5   3 289.712 17.9953  22
  -3   5   3 303.196 13.4448   6
   3   5  -3 291.276 14.7368  16
  -3   5   3 306.698 15.4314  16
  -2  -5   3 2410.21 103.985   9
  -2  -5   3 2473.53 84.9920  12
  -2  -5   3 2429.41 88.8737  13
   2  -5  -3 2484.02 86.2522   7
  -2  -5   3 2406.02 83.3988   6
   2  -5  -3 2474.80 83.5430   6
   2  -5  -3 2472.55 104.881  17
  -2  -5   3 2423.72 86.2573   5
   2  -5  -3 2462.26 109.288  23
   2  -5  -3 2437.41 85.4784  15
   2  -5  -3 2407.26 84.0202  14
   2   5  -3 2428.77 91.4806  16
   2   5  -3 2416.79 131.725   2
  -2   5   3 2419.76 92.4763  16
   2   5  -3 2309.72 108.613  22
   2   5  -3 2326.39 145.618   8
  -2   5   3 2388.10 109.718  22
   1  -5  -3 55.8189 5.98334   7
   1  -5  -3 51.9371 5.40688  14
  -1  -5   3 53.0506 5.35720   5
  -1  -5   3 48.6255 4.91962  12
  -1  -5   3 53.5001 6.09361  13
  -1  -5   3 47.2440 5.85125   4
   1  -5  -3 61.5017 5.10688   6
  -1  -5   3 45.2340 17.2501   2
   1  -5  -3 58.4085 16.8638  11
   1  -5  -3 55.9495 7.47678  23
   1  -5  -3 56.3139 7.52881  17
   1  -5  -3 62.9972 15.7520  10
   1  -5  -3 60.6729 6.18425  15
  -1  -5   3 65.5316 13.6172   9
  -1   5   3 76.5641 14.7135  19
   1   5  -3 56.8903 4.34802  16
  -1   5   3 50.9280 13.5249   3
   1   5  -3 55.3701 15.2480   1
   1   5  -3 54.8147 8.37628  18
  -1   5   3 54.5772 6.88983  22
   1   5  -3 51.3080 5.30832  22
  -1   5   3 65.7361 11.6949  18
   1   5  -3 43.0465 16.3821   8
  -1   5   3 62.4148 6.21946  16
   0  -5  -3 408.225 20.0311  23
   0  -5  -3 363.644 14.6913   6
   0  -5  -3 371.181 30.2046  11
   0  -5   3 288.100 29.3073   2
   0  -5   3 362.556 15.2277  15
   0  -5   3 389.958 15.4992  12
   0  -5  -3 356.933 29.9762  10
   0  -5   3 346.792 15.4206   5
   0  -5   3 370.101 15.8320   4
   0  -5   3 375.628 35.2554   8
   0  -5  -3 398.520 19.4436  17
   0  -5  -3 373.791 15.5740  15
   0  -5  -3 386.903 14.8902  14
   0  -5  -3 385.207 15.6809   7
   0   5   3 392.479 16.8995  16
   0   5  -3 378.185 25.2390  18
   0   5  -3 347.691 26.3271   1
   0   5   3 337.059 25.3771   9
   0   5   3 379.008 15.9504  13
   0   5  -3 324.609 28.4516  11
   0   5  -3 369.587 17.8010  22
   0   5   3 364.865 29.1856  18
   0   5  -3 367.775 14.9753  16
   0   5   3 371.810 19.7767  22
   0   5   3 382.118 27.5062   3
   1  -5   3 59.3833 5.93299   7
  -1  -5  -3 68.3067 7.63398  17
   1  -5   3 63.6694 6.11960  12
  -1  -5  -3 57.1515 5.72838   6
  -1  -5  -3 77.1604 5.83765  14
   1  -5   3 70.2464 6.58902   4
   1  -5   3 4.85420 20.0870   8
   1  -5   3 69.5495 6.07504  15
  -1  -5  -3 59.6501 6.43722   7
  -1  -5  -3 63.7492 9.13571  23
   1   5   3 51.1245 6.31273   5
  -1   5  -3 64.4235 5.37469  16
   1   5   3 5.74273 19.9182   2
   1   5   3 66.9819 8.17874  22
   1   5   3 75.9547 7.54048  16
  -1   5  -3 37.5595 18.2999  11
  -1   5  -3 64.6724 6.75970  22
   1   5   3 4.76270 12.9640   3
   2  -5   3 947.954 35.9801   7
  -2  -5  -3 990.668 44.0270  17
  -2  -5  -3 989.383 35.0004  14
  -2  -5  -3 904.150 46.9220  23
  -2  -5  -3 973.089 36.2426   7
   2  -5   3 962.635 36.5587   4
   2  -5   3 981.294 35.8480  15
   2  -5   3 971.713 35.4089  12
   2   5   3 982.304 35.9312   5
  -2   5  -3 856.562 38.3710  16
   2   5   3 985.673 37.0788  13
   3  -5   3 65.6204 6.57405   7
   3  -5   3 74.8091 6.96480  15
  -3  -5  -3 70.7101 5.92886  14
   3  -5   3 76.7713 7.21772   4
   3   5   3 74.7175 6.61653  13
   3   5   3 75.7131 6.88162   5
  -4  -5  -3 53.1568 4.38484  14
  -4   5  -3 54.6847 4.56944   7
   4   5   3 55.7862 5.20194   5
   4  -6  -3 112.621 7.60835  15
  -4  -6   3 121.059 7.14297   6
   4  -6  -3 112.750 7.17520  14
   4  -6  -3 113.228 7.41010   4
  -4  -6   3 124.376 7.85225  13
  -4  -6   3 128.831 7.69155   5
  -4   6   3 112.099 7.24273   6
   3  -6  -3 87.1005 7.56707   7
  -3  -6   3 116.842 7.90345   5
   3  -6  -3 92.9539 7.64335  15
   3  -6  -3 94.5518 7.10667  14
  -3  -6   3 95.4396 7.51526  12
   3  -6  -3 91.7106 9.37321  23
   3  -6  -3 102.487 9.08808  17
  -3  -6   3 107.992 7.35143   6
  -3  -6   3 112.717 8.10691  13
  -3   6   3 100.325 7.23630   6
   3   6  -3 104.667 8.58190  16
   3   6  -3 98.7535 10.6177  22
  -2  -6   3 434.340 18.0449   5
  -2  -6   3 421.984 18.5594  13
   2  -6  -3 420.809 22.0628  23
   2  -6  -3 408.802 16.8533   6
   2  -6  -3 427.788 17.9719   7
  -2  -6   3 421.910 17.6856  12
   2  -6  -3 438.631 17.3096  14
   2  -6  -3 427.327 21.5034  17
   2  -6  -3 420.922 17.9194  15
   2   6  -3 410.411 18.0289  16
   2   6  -3 439.816 21.7222  22
  -2   6   3 436.132 22.7334  22
  -2   6   3 407.320 19.3736  16
  -1  -6   3 955.053 35.5322  12
  -1  -6   3 957.419 37.1030  13
   1  -6  -3 956.494 35.1205  14
   1  -6  -3 993.442 36.4414   7
   1  -6  -3 954.441 45.2832  23
   1  -6  -3 975.670 36.1216  15
  -1  -6   3 967.570 36.1582   5
   1  -6  -3 971.437 43.3959  17
  -1   6   3 969.451 45.9606  22
  -1   6   3 952.988 38.9621  16
   0  -6   3 253.559 12.4903   4
   0  -6  -3 244.917 12.1904   7
   0  -6   3 230.286 11.6278  12
   0  -6  -3 269.553 14.2329  17
   0  -6  -3 248.129 14.9948  23
   0  -6  -3 252.841 11.1558   6
   0  -6  -3 254.602 12.3607  15
   0  -6  -3 257.250 11.3905  14
   0   6   3 249.042 12.4598  13
   0   6   3 251.428 13.0812  16
   0   6   3 276.797 15.8312  22
  -1  -6  -3 1396.31 51.1107   7
   1  -6   3 1454.68 50.4509  15
   1  -6   3 1280.11 50.4811   7
  -1  -6  -3 1433.35 49.4992  14
  -1  -6  -3 1337.26 61.2780  17
   1  -6   3 1385.77 51.4764   4
  -1  -6  -3 1386.59 64.3459  23
  -1  -6  -3 1363.39 49.0890   6
   1   6   3 1474.69 55.2099  16
   1   6   3 1427.09 52.4922  13
   1   6   3 1397.77 65.5810  22
  -1   6  -3 1397.65 53.5099  16
  -1   6  -3 1379.80 63.5156  22
  -2  -6  -3 78.9101 6.82577   6
  -2  -6  -3 71.1325 8.71969  17
   2  -6   3 74.7929 7.00844   7
   2  -6   3 87.5432 7.06146  15
   2  -6   3 89.3788 7.84602   4
  -2  -6  -3 79.0422 7.25569   7
  -2  -6  -3 77.4455 6.37639  14
  -2   6  -3 78.7528 7.44637  16
   2   6   3 85.2386 7.45002   5
   2   6   3 87.8066 7.21165  13
  -3  -6  -3 -0.3973 3.08416  14
   3  -6   3 -2.0152 3.80788  15
   3  -6   3 2.09623 3.72732   4
   3   6   3 -2.6987 3.81309   5
   3   6   3 3.37283 3.44279  13
  -4  -7   3 48.8982 5.10041   5
  -4  -7   3 58.7625 5.02144  13
   4  -7  -3 53.9589 5.21029  15
  -4  -7   3 42.9161 4.65950   6
   3  -7  -3 4.34105 3.89840   7
  -3  -7   3 3.47942 3.75389  12
  -3  -7   3 4.19541 3.58812   6
  -3  -7   3 6.49670 3.63767   5
  -3  -7   3 1.61097 4.02790  13
   3  -7  -3 0.26746 3.71484  14
   3  -7  -3 10.6298 3.90886  15
  -3   7   3 3.88732 3.66280   6
  -2  -7   3 295.891 14.0250   5
   2  -7  -3 320.727 13.9672   7
   2  -7  -3 305.256 13.9004  15
   2  -7  -3 304.632 13.3135  14
  -2  -7   3 301.004 13.6650  12
  -2  -7   3 299.555 14.3420  13
  -2   7   3 307.700 15.3724  16
   1  -7  -3 791.614 28.7194   6
  -1  -7   3 752.204 29.2763  12
  -1  -7   3 811.695 29.8834   5
   1  -7  -3 782.368 29.8544  15
   1  -7  -3 743.921 29.9989   7
   1  -7  -3 793.739 28.9615  14
  -1   7   3 765.105 32.3816  16
  -1   7   3 803.684 38.3362  22
   0  -7  -3 48.2839 5.36074   7
   0  -7  -3 43.4689 4.39643   6
   0  -7  -3 36.1399 4.50811  14
   0  -7  -3 28.7277 5.25965  15
   0  -7   3 40.6939 5.31667   4
   0   7   3 33.3121 7.73228  22
   0   7   3 34.1829 5.79827  16
   0   7   3 33.9957 5.13293  13
  -1  -7  -3 213.781 10.1125   6
   1  -7   3 223.464 10.7743  15
   1  -7   3 214.269 11.3728   4
  -1  -7  -3 212.777 10.2698  14
  -1  -7  -3 225.226 11.1759   7
   1   7   3 215.458 12.7828  16
   1   7   3 230.530 11.5600  13
   2  -7   3 31.1221 4.28201   7
   2  -7   3 36.0508 4.62438  15
  -2  -7  -3 22.9637 3.95921   7
  -2  -7  -3 19.4110 3.42655  14
   2  -7   3 29.3888 4.47094   4
  -2  -7  -3 28.8929 3.69684   6
   2   7   3 9.91050 3.84601  13
   3  -8  -3 195.678 9.01216   7
   3  -8  -3 185.081 8.46842  14
  -3  -8   3 188.494 9.03382   5
  -3  -8   3 192.198 9.03867  13
  -3   8   3 179.257 8.47430   6
  -2  -8   3 67.2635 5.75761   5
   2  -8  -3 52.3779 5.89128  15
   2  -8  -3 54.2312 5.84739   7
   2  -8  -3 49.1507 5.38721  14
  -2  -8   3 58.4232 5.98409  13
  -2   8   3 58.4345 5.60389   6
   1  -8  -3 76.0247 6.87789  15
   1  -8  -3 72.0034 6.04360  14
   1  -8  -3 65.6818 6.43001   7
   1  -8  -3 74.0827 5.75660   6
   0  -8  -3 590.937 21.9084   6
   0  -8  -3 589.307 23.0733   7
   0  -8  -3 573.297 22.0820  14
  -1  -8  -3 17.4958 3.44467  14
   1  -8   3 10.3865 3.90169  15
  -1  -8  -3 17.2695 3.25713   6
  -1  -8  -3 17.9635 3.77759   7
   1   8   3 20.1600 4.33321  13
  -2  -8  -3 0.93588 2.73804   6
   2  -8   3 6.09630 3.42055  15
  -2  -8  -3 9.55491 2.66126  14
   2   8   3 3.79120 3.11890  13
   1  -9  -3 82.0287 5.79358   7
   1  -9  -3 84.9538 5.27661  14
   0  -9  -3 19.4124 2.96290  14
   0  -9  -3 18.5267 2.78048   6
   0  -9  -3 26.9327 3.37693   7
   5   0  -4 -1.6231 3.69437   4
  -5   0   4 1.34057 3.48132   6
   4   0  -4 36.0164 5.15333   4
  -4   0   4 34.1697 4.59998   6
   4   0  -4 28.0282 5.14832  24
  -3   0   4 22.5680 7.35651  23
  -3   0   4 17.9557 7.29574  20
   3   0  -4 39.1185 5.04210  24
  -3   0   4 34.7784 4.89751  13
  -3   0   4 13.8781 11.1306   3
  -3   0   4 25.6107 12.9116   9
   3   0  -4 25.3332 12.3688   1
  -3   0   4 28.6846 7.65058  17
   3   0  -4 24.0745 4.12502   4
  -3   0   4 23.4722 3.62487   6
  -2   0   4 204.913 15.0152  21
   2   0  -4 203.540 18.9086  18
  -2   0   4 195.660 17.0546   3
  -2   0   4 204.012 9.75188  13
  -2   0   4 202.045 13.2520  23
  -2   0   4 194.071 7.73026  24
   2   0  -4 212.545 18.8830   1
  -2   0   4 199.763 22.3315   2
   2   0  -4 201.824 12.2087  22
  -2   0   4 211.998 13.3776  17
   2   0  -4 197.623 19.2649  19
  -2   0   4 187.155 17.1679   9
   2   0  -4 188.994 19.3812  11
  -2   0   4 196.277 13.9880  20
   2   0  -4 205.538 9.98358  24
   2   0  -4 200.839 10.3272  16
   2   0  -4 193.453 19.9797   8
  -1   0   4 180.170 15.1337   9
   1   0  -4 201.609 9.70154  16
  -1   0   4 179.365 11.7565  17
   1   0  -4 214.720 16.7513  11
  -1   0   4 208.193 13.3387  20
  -1   0   4 194.726 12.8579  23
   1   0  -4 167.236 9.03219  24
   1   0  -4 204.092 11.4103  22
   1   0  -4 190.497 17.3566  18
  -1   0   4 203.837 19.2727   2
  -1   0   4 192.586 7.52116  24
   1   0  -4 193.052 15.5976   1
  -1   0   4 169.674 20.2638   8
   1   0  -4 175.443 17.0383  19
  -1   0   4 202.344 14.3458  21
   0   0  -4 0.14518 8.10753   1
   0   0  -4 2.14030 7.62692  19
   0   0   4 -0.7809 12.0403   8
   0   0   4 30.3398 5.35228  17
   0   0   4 4.29694 7.80774   9
   0   0   4 -0.0731 11.9806   2
   0   0  -4 4.25407 3.41881  22
   0   0   4 -1.8597 4.45581  20
   0   0  -4 0.65684 6.00835  18
   0   0  -4 -0.7889 2.65747  24
   0   0   4 -2.4206 4.81614  23
   0   0   4 1.80963 5.86180  21
   0   0  -4 -1.7378 9.67694  11
   1   0   4 94.5706 10.1157  20
   1   0   4 104.607 11.0055  23
   1   0   4 102.831 13.1487   9
  -1   0  -4 96.8909 7.30527  16
  -1   0  -4 95.6915 6.03502  15
   1   0   4 78.9037 10.6558  21
  -1   0  -4 102.642 8.61896  22
  -1   0  -4 93.3505 5.80561   7
   1   0   4 97.6312 10.0252  17
  -1   0  -4 83.1294 5.97290  24
   1   0   4 61.7762 5.89953  13
   1   0   4 100.348 17.9362   2
   1   0   4 100.768 6.51665   5
  -1   0  -4 93.5136 15.2839  11
   1   0   4 114.233 19.6366   8
   1   0   4 101.934 6.62395  12
  -2   0  -4 127.534 7.44838  14
   2   0   4 68.6940 22.0212   2
   2   0   4 117.530 25.6807   8
  -2   0  -4 128.093 7.70881  15
  -2   0  -4 81.7829 18.0374  11
   2   0   4 131.740 8.17068   5
   2   0   4 124.701 8.51387  12
  -2   0  -4 135.058 7.45115   7
  -2   0  -4 140.741 7.86124  24
  -3   0  -4 16.1377 4.35175  24
  -3   0  -4 10.0084 3.71592  14
   3   0   4 9.84853 4.35898   5
  -3   0  -4 10.6544 3.65969   7
   3   0   4 14.8547 4.51535  12
   4   0   4 1096.11 39.2707  12
  -4   0  -4 1080.79 39.4796   7
  -4   0  -4 1090.17 38.5422  14
   5  -1  -4 119.722 8.09118   4
  -5  -1   4 112.602 7.21481   6
  -5   1   4 123.807 7.65004   6
   5   1  -4 110.208 7.91243   4
   4  -1  -4 42.5346 5.21633   4
  -4  -1   4 38.0217 9.12420  23
  -4  -1   4 41.9167 4.84942   6
  -4  -1   4 41.4311 8.82026  17
   4  -1  -4 47.7328 5.06233  24
   4   1  -4 44.3113 6.38710  24
  -4   1   4 51.5425 4.95014   6
   4   1  -4 46.3903 5.51677   4
   3  -1  -4 93.3213 16.0733   1
  -3  -1   4 80.1135 15.1539   9
  -3  -1   4 102.656 16.9095   3
  -3  -1   4 82.9508 10.2811  23
  -3  -1   4 76.6417 9.97939  17
  -3  -1   4 76.4359 6.23849   6
  -3  -1   4 79.1880 7.24997  13
  -3  -1   4 74.7137 6.58872  12
   3  -1  -4 74.6377 6.57374   4
   3  -1  -4 83.3261 6.42369  24
  -3  -1   4 59.6488 8.40678  20
  -3   1   4 61.8671 11.7713  21
   3   1  -4 73.1865 17.7657   8
  -3   1   4 72.2203 11.9962  20
   3   1  -4 74.2927 7.28175  16
   3   1  -4 67.6739 7.16649  24
  -3   1   4 72.9336 6.01415   6
   3   1  -4 71.9795 8.15036  22
  -3   1   4 71.4987 13.1785   3
   3   1  -4 81.4406 15.5107   1
  -3   1   4 82.8069 5.11430  24
   3   1  -4 94.9390 6.85862   4
   2  -1  -4 324.931 13.4341  24
   2  -1  -4 277.357 21.9136   1
  -2  -1   4 310.043 13.5805  13
  -2  -1   4 314.200 13.2123   5
  -2  -1   4 292.583 20.1700   9
  -2  -1   4 324.715 18.5974  20
  -2  -1   4 325.300 17.6299  23
   2  -1  -4 297.782 13.0336   4
  -2  -1   4 308.105 16.9199  17
  -2  -1   4 307.298 19.6876  21
   2  -1  -4 294.948 23.5364  11
  -2  -1   4 291.138 21.4475   3
  -2  -1   4 323.344 26.8448   2
   2   1  -4 309.452 22.1944   1
   2   1  -4 271.332 25.6871   8
  -2   1   4 333.806 20.9248   9
   2   1  -4 359.469 25.3027  19
  -2   1   4 311.318 21.7529  21
  -2   1   4 324.340 20.6161  20
   2   1  -4 306.944 24.6276  18
  -2   1   4 310.915 12.9175  24
  -2   1   4 294.686 21.4747   3
   2   1  -4 314.240 16.5609  22
  -2   1   4 310.801 13.4845  13
   2   1  -4 296.880 14.0121  16
  -2   1   4 287.860 12.4370   6
   1  -1  -4 25.9306 3.37583  24
  -1  -1   4 36.5326 5.80607  23
   1  -1  -4 29.3509 7.58058  21
   1  -1  -4 25.9397 6.34723  20
  -1  -1   4 26.9001 5.67706  21
  -1  -1   4 20.5289 11.2657   8
  -1  -1   4 25.4088 8.78768   9
  -1  -1   4 33.1613 5.70205  20
   1  -1  -4 31.2734 10.3679  11
  -1  -1   4 29.8088 5.06274  17
   1  -1  -4 20.3158 8.63673   1
  -1  -1   4 20.5043 10.2785   2
  -1   1   4 26.4885 7.79150   3
   1   1  -4 25.7400 8.02750  18
  -1   1   4 17.6103 12.1683   2
   1   1  -4 28.2650 9.25477   1
   1   1  -4 34.1749 9.27657  19
   1   1  -4 24.7236 4.07190  22
  -1   1   4 39.0972 8.93280   9
  -1   1   4 26.3649 7.02962  21
   1   1  -4 38.4098 4.13723  16
  -1   1   4 27.4604 3.04536  24
  -1   1   4 24.0772 5.82070  20
   1   1  -4 25.0580 10.0821  11
   0  -1  -4 400.704 22.9261   1
   0  -1   4 388.754 31.2977   8
   0  -1   4 400.796 22.8514   9
   0  -1   4 381.255 28.2943   2
   0  -1  -4 390.863 15.7607  24
   0  -1   4 381.626 20.7697  23
   0  -1  -4 363.248 24.6833  11
   0  -1   4 387.205 21.6417  20
   0  -1   4 400.667 19.4915  17
   0  -1   4 383.121 23.1797  21
   0   1   4 378.283 23.2116  20
   0   1   4 383.714 31.1237   8
   0   1  -4 377.221 16.5671  16
   0   1   4 372.689 25.2117  21
   0   1  -4 419.923 19.6920  22
   0   1   4 415.720 15.6008  24
   0   1  -4 402.657 28.5882  19
   0   1  -4 385.135 28.4800  18
   0   1   4 371.471 27.6483   2
   0   1  -4 391.222 25.6196  11
   0   1  -4 383.362 23.5182   1
   0   1   4 383.555 22.5255   9
   1  -1   4 45.3817 7.08768  20
  -1  -1  -4 55.5022 4.63453  24
  -1  -1  -4 54.6877 5.35115  15
   1  -1   4 48.9496 11.4859   9
   1  -1   4 57.7714 5.75412   5
   1  -1   4 40.4941 7.35479  21
   1  -1   4 43.7914 4.63884   4
   1  -1   4 57.3330 17.1695   2
   1  -1   4 62.3532 17.5065   8
   1  -1   4 51.5075 6.67994  17
   1  -1   4 52.5289 7.10008  23
  -1  -1  -4 55.4887 13.9275  11
   1  -1   4 48.7651 5.65399  12
  -1  -1  -4 54.1325 4.97781   7
  -1   1  -4 45.3925 4.85536   7
   1   1   4 42.9890 4.58765   5
   1   1   4 50.9447 5.47280  13
   1   1   4 79.5189 17.3743   2
  -1   1  -4 59.7255 15.3568  11
   1   1   4 49.6632 5.70684  12
  -1   1  -4 45.8577 5.70335  16
  -1   1  -4 51.3927 10.1517  18
   1   1   4 50.7118 4.56234  24
   1   1   4 60.1979 11.9437   9
   1   1   4 58.6036 9.20847  20
   1   1   4 34.6565 8.99662  21
  -1   1  -4 42.0156 11.4997   1
   1   1   4 40.4638 16.2613   8
  -1   1  -4 49.8314 6.81755  22
   2  -1   4 278.733 17.6479  17
   2  -1   4 275.149 12.5753  12
  -2  -1  -4 291.443 12.3094   7
   2  -1   4 290.882 12.8546   5
  -2  -1  -4 269.294 11.8787  14
   2  -1   4 276.675 19.1464  23
  -2  -1  -4 279.287 12.2804  24
  -2  -1  -4 258.927 12.1386  15
   2  -1   4 296.072 13.1078  15
   2   1   4 277.469 11.4071  24
   2   1   4 170.174 31.4603   8
  -2   1  -4 273.703 13.1754  24
   2   1   4 285.664 12.6169  12
  -2   1  -4 270.562 12.4542   7
   2   1   4 288.797 13.0575   5
  -3  -1  -4 912.599 33.1613   7
   3  -1   4 920.295 33.1034  12
   3  -1   4 880.893 45.4188  23
   3  -1   4 901.971 33.2162   5
  -3  -1  -4 912.051 32.3048  14
  -3  -1  -4 842.409 33.0904  24
   3  -1   4 868.794 42.5931  17
   3   1   4 882.620 33.0622  12
   3   1   4 856.050 33.3440   5
  -3   1  -4 879.062 32.1907  14
  -3   1  -4 915.237 33.2244   7
  -3   1  -4 845.921 32.6149  15
  -3   1  -4 890.156 34.4973  24
  -4  -1  -4 210.536 9.22524   7
  -4  -1  -4 175.692 8.61335  14
   4  -1   4 194.473 9.36349  12
  -4   1  -4 190.054 8.70708  14
   4   1   4 200.324 9.46206  12
  -4   1  -4 189.433 9.01621   7
   5  -2  -4 107.590 7.29780   4
   5   2  -4 114.462 7.42669  12
  -5   2   4 113.559 7.29317   6
   4  -2  -4 651.600 24.7537   4
  -4  -2   4 600.616 32.6239  23
  -4  -2   4 624.659 25.5803  13
  -4  -2   4 611.281 24.0555  12
  -4  -2   4 569.408 30.6350  17
  -4  -2   4 646.661 23.8510   6
   4   2  -4 642.739 26.4115  24
  -4   2   4 613.001 23.8461   6
   4   2  -4 629.231 24.6310   4
  -4   2   4 607.407 24.1716  24
   3  -2  -4 47.7089 4.99969   4
  -3  -2   4 38.1088 4.69349  12
  -3  -2   4 44.1693 14.2510   3
  -3  -2   4 37.0140 7.07253  17
   3  -2  -4 40.5186 3.88440  24
  -3  -2   4 32.7558 14.8635   9
  -3  -2   4 28.8097 4.31734   6
  -3  -2   4 33.3399 5.05356   5
   3  -2  -4 31.5552 14.2069   1
   3  -2  -4 5.45410 9.08696  20
  -3  -2   4 37.9969 5.29534  13
  -3  -2   4 41.1264 6.73975  23
   3   2  -4 28.1918 16.6867   8
   3   2  -4 39.7929 6.48725  22
   3   2  -4 31.2988 5.43846  16
  -3   2   4 29.0316 3.97568  24
   3   2  -4 20.9877 14.3227   1
  -3   2   4 40.7603 4.69610   6
   3   2  -4 22.1908 4.12216   4
   3   2  -4 2.15664 10.9292  18
  -3   2   4 46.6276 13.5076   3
   2  -2  -4 76.2788 10.1202  20
  -2  -2   4 37.8594 11.6344   9
  -2  -2   4 79.0545 6.67610  13
  -2  -2   4 87.3587 13.0393   3
  -2  -2   4 87.8229 8.28751  23
   2  -2  -4 84.5536 5.38480  24
   2  -2  -4 105.373 17.5575  11
  -2  -2   4 79.4718 6.40202   5
  -2  -2   4 79.5544 16.7769   2
  -2  -2   4 80.3740 6.33375   4
   2  -2  -4 81.1043 10.9571  21
  -2  -2   4 82.4519 6.06347  12
  -2  -2   4 72.9443 7.26426  17
   2  -2  -4 85.7035 6.21746  15
   2  -2  -4 47.2572 10.7349   1
   2  -2  -4 70.8629 5.91611   4
   2   2  -4 87.8500 12.7881  19
   2   2  -4 86.8635 12.7009  18
   2   2  -4 106.500 14.7779   1
   2   2  -4 77.9520 6.26420  16
   2   2  -4 89.0556 7.02321  22
   2   2  -4 49.6573 14.0367   8
  -2   2   4 81.4957 12.1814   3
  -2   2   4 50.5699 6.10509  13
  -2   2   4 85.8147 5.83956  24
  -2   2   4 63.1374 11.5170   9
  -2   2   4 83.3037 5.54372   6
  -1  -2   4 78.8268 11.1175   9
  -1  -2   4 45.2568 13.3918   2
  -1  -2   4 92.5973 8.08414  23
   1  -2  -4 95.2005 5.61317  24
  -1  -2   4 89.2956 6.07374  12
  -1  -2   4 108.039 7.62898  17
   1  -2  -4 101.690 10.5867  21
  -1  -2   4 93.8905 6.49502  13
   1  -2  -4 79.4152 11.8727   1
  -1  -2   4 102.760 17.2647   8
   1  -2  -4 97.2518 15.6259  11
   1  -2  -4 90.0258 9.92190  20
   1  -2  -4 85.8950 6.09925  15
   1   2  -4 95.5129 14.5389  11
  -1   2   4 95.4270 10.8820  20
   1   2  -4 71.6412 12.4001   1
  -1   2   4 92.9814 6.39175  13
  -1   2   4 105.927 13.9306   9
   1   2  -4 103.015 7.18733  22
  -1   2   4 92.9479 11.7092   3
   1   2  -4 96.8404 12.7619  19
  -1   2   4 110.741 6.12135  24
  -1   2   4 119.098 19.0093   2
  -1   2   4 73.8179 11.5688  21
   1   2  -4 100.819 12.2740  18
   0  -2   4 695.172 26.2898   5
   0  -2  -4 721.545 26.6938  24
   0  -2  -4 680.490 40.1695  11
   0  -2  -4 677.869 25.9680  15
   0  -2  -4 682.590 25.9583   7
   0  -2   4 727.787 33.7714  23
   0  -2   4 741.882 35.2207   9
   0  -2   4 631.428 42.5586   2
   0  -2   4 743.138 49.6059   8
   0  -2   4 722.256 26.6897   4
   0  -2  -4 609.294 40.3133  21
   0  -2   4 716.180 31.8218  17
   0  -2   4 699.514 26.0515  15
   0  -2  -4 660.514 38.2315  20
   0  -2   4 674.513 25.7751  12
   0   2   4 706.049 27.0675  13
   0   2   4 665.479 42.7981   2
   0   2  -4 667.044 33.0342  22
   0   2   4 727.157 39.6146  20
   0   2   4 745.523 27.1768  24
   0   2   4 715.352 26.1200   5
   0   2   4 686.405 34.3003   9
   0   2  -4 742.690 47.0833  18
   0   2  -4 729.541 37.3555   1
   0   2  -4 715.141 28.0120  16
   0   2  -4 734.356 47.1276  19
   0   2  -4 678.332 39.8059  11
   1  -2   4 463.464 35.4817   2
  -1  -2  -4 452.545 17.7703  15
   1  -2   4 447.912 18.1692   5
   1  -2   4 435.833 17.9092  12
  -1  -2  -4 455.845 29.7800  21
  -1  -2  -4 449.098 17.9038   7
  -1  -2  -4 427.544 31.2102  11
  -1  -2  -4 441.364 17.1607  14
   1  -2   4 440.350 23.5613  23
  -1  -2  -4 439.094 30.5752  10
   1  -2   4 454.959 18.5063   4
  -1  -2  -4 421.046 26.4092  20
   1  -2   4 460.866 18.2000  15
   1  -2   4 498.136 22.5278  17
  -1  -2  -4 480.489 18.0153  24
   1  -2   4 390.451 38.0416   8
  -1   2  -4 467.735 33.5186  19
   1   2   4 466.484 34.6712   2
   1   2   4 454.921 18.2022   5
   1   2   4 428.196 26.8440   9
  -1   2  -4 441.659 17.9309   7
  -1   2  -4 410.867 28.3636   1
  -1   2  -4 417.741 32.7171  18
  -1   2  -4 478.666 33.1081  11
   1   2   4 441.299 18.5891  13
  -1   2  -4 482.542 23.1473  22
   1   2   4 468.876 18.5786  24
  -1   2  -4 467.442 19.5945  16
  -2  -2  -4 43.5597 4.78913   7
  -2  -2  -4 50.1608 4.73806  24
   2  -2   4 49.9345 5.17104   5
   2  -2   4 64.2815 6.05285  15
   2  -2   4 54.0722 9.00009  23
   2  -2   4 58.9954 7.88891  17
  -2  -2  -4 49.4777 5.72552  14
   2  -2   4 9.29025 25.6307   2
  -2  -2  -4 58.3997 5.42170  15
   2  -2   4 52.2989 5.38131  12
   2  -2   4 53.9289 5.54755   4
   2   2   4 45.0499 5.22270  12
   2   2   4 44.7075 5.75790  24
  -2   2  -4 43.3428 5.92335  16
  -2   2  -4 61.3856 8.42386  22
   2   2   4 7.27152 17.6482   9
   2   2   4 59.7219 5.64367   5
  -2   2  -4 47.2644 5.86477   7
   2   2   4 5.38406 20.2619   8
   2   2   4 44.2646 5.03466  13
  -3  -2  -4 63.7008 6.10372  14
  -3  -2  -4 60.8875 6.20256   7
   3  -2   4 63.3481 8.85165  17
   3  -2   4 74.9504 6.87125  12
   3   2   4 71.5304 7.28581   5
  -3   2  -4 77.5519 6.45909   7
  -3   2  -4 55.8678 7.26166  24
   3   2   4 62.8856 7.10530  12
  -4  -2  -4 210.557 11.1191   7
   4  -2   4 287.798 11.7533  12
  -4  -2  -4 300.222 11.1989  14
   4   2   4 285.096 11.7238  12
  -4   2  -4 282.322 11.5364   7
   4   2   4 279.093 11.6804   5
   5  -3  -4 105.043 6.95890   4
  -5  -3   4 96.7466 6.61621   6
  -5   3   4 96.5658 6.70155   6
   5   3  -4 102.795 6.81494  12
  -4  -3   4 96.7243 11.6085  23
  -4  -3   4 101.822 8.52005  13
   4  -3  -4 105.213 7.64722   4
  -4  -3   4 101.832 7.36742   6
  -4  -3   4 121.063 8.65821   5
  -4  -3   4 101.600 10.1195  17
  -4  -3   4 108.064 7.91055  12
   4   3  -4 77.7892 10.2998  22
   4   3  -4 100.408 8.05565   4
   4   3  -4 81.7007 9.00616  16
  -4   3   4 107.691 7.48606   6
  -4   3   4 98.0395 7.23601  24
  -3  -3   4 864.043 40.1171  17
  -3  -3   4 870.307 33.3060   5
   3  -3  -4 869.897 33.1480   4
  -3  -3   4 884.164 42.0651  23
  -3  -3   4 904.700 34.3715  13
  -3  -3   4 890.137 32.8048  12
  -3  -3   4 877.513 32.0967   6
   3  -3  -4 876.677 32.8020  15
  -3   3   4 858.354 34.4910  24
   3   3  -4 868.181 33.4857   4
  -3   3   4 861.096 32.2201   6
   3   3  -4 890.228 42.2668  22
   3   3  -4 905.338 35.9033  16
   2  -3  -4 169.850 22.5236  11
   2  -3  -4 136.245 13.1147  17
  -2  -3   4 160.874 9.10093   4
  -2  -3   4 176.250 9.36905   5
   2  -3  -4 134.012 18.8907   1
   2  -3  -4 157.102 14.3728  21
   2  -3  -4 153.418 12.6947  23
  -2  -3   4 170.063 20.4623   9
   2  -3  -4 152.188 13.9517  20
  -2  -3   4 163.943 9.45995  13
  -2  -3   4 178.809 10.4669  17
  -2  -3   4 195.093 11.4042  23
  -2  -3   4 175.444 9.06050  12
   2  -3  -4 161.752 9.00109  15
  -2  -3   4 150.081 23.5158   2
   2   3  -4 166.912 17.8507  18
   2   3  -4 168.549 17.7746  19
   2   3  -4 175.283 20.5096   1
   2   3  -4 171.333 10.4896  22
  -2   3   4 170.227 8.52691   6
   2   3  -4 182.670 9.30391  16
   2   3  -4 152.009 23.9131   8
  -2   3   4 184.633 9.38387  24
  -2   3   4 154.628 20.2312   3
   1  -3  -4 2610.98 92.2058  15
  -1  -3   4 2748.10 139.173   2
   1  -3  -4 2656.53 118.964  23
   1  -3  -4 2509.90 133.594  20
  -1  -3   4 2638.57 93.9438   4
   1  -3  -4 2681.35 141.982  21
   1  -3  -4 2554.37 113.811  17
  -1  -3   4 2624.37 93.1761   5
  -1  -3   4 2725.64 117.510  23
  -1  -3   4 2655.40 111.950  17
  -1  -3   4 2632.57 96.0046  13
   1  -3  -4 2616.49 90.0901   6
  -1  -3   4 2425.07 153.589   8
  -1  -3   4 2660.22 110.050   9
   1  -3  -4 2623.21 93.0127   7
   1   3  -4 2801.59 118.216  22
   1   3  -4 2737.14 117.562   1
  -1   3   4 2580.19 118.115   3
  -1   3   4 2635.46 96.5158  24
  -1   3   4 2635.39 108.726   9
   1   3  -4 2710.01 164.456  19
   1   3  -4 2546.06 162.517  18
  -1   3   4 2683.12 95.8046  13
   0  -3  -4 209.845 13.8685  23
   0  -3  -4 213.108 13.5399  17
   0  -3   4 187.936 18.1032   9
   0  -3   4 196.263 25.8146   8
   0  -3   4 219.331 11.3460  17
   0  -3  -4 210.406 10.1025  15
   0  -3   4 198.855 23.3110   2
   0  -3   4 211.563 10.4199   4
   0  -3  -4 211.329 20.1813  10
   0  -3  -4 201.508 9.92303   7
   0  -3   4 212.417 11.9883  23
   0  -3  -4 209.966 22.1486  11
   0  -3  -4 219.410 15.1049  20
   0  -3  -4 203.011 16.0340  21
   0  -3   4 214.009 9.89538  12
   0  -3   4 214.552 10.1433  15
   0  -3   4 216.086 10.2562   5
   0   3  -4 219.168 10.3159  16
   0   3  -4 215.676 18.4546  19
   0   3  -4 226.238 11.9861  22
   0   3   4 182.273 22.7663   2
   0   3  -4 231.968 21.7238  11
   0   3   4 191.709 9.94458   5
   0   3   4 213.935 10.4555  24
   0   3   4 205.442 10.2356  13
   0   3  -4 188.276 19.2308   1
   0   3  -4 231.205 18.8986  18
   0   3   4 167.716 17.5581   9
   1  -3   4 4.10928 19.6671   8
  -1  -3  -4 2.06520 3.28041   7
  -1  -3  -4 10.4886 11.7148  10
   1  -3   4 9.33872 3.98109   5
   1  -3   4 9.60660 4.27413  15
   1  -3   4 12.8785 4.99591  23
   1  -3   4 9.08732 14.7335   2
   1  -3   4 9.84387 3.96118   4
  -1  -3  -4 5.95656 14.1771  11
   1  -3   4 5.25507 3.65109  12
  -1  -3  -4 6.38083 2.91730  14
   1  -3   4 10.8100 4.27688  17
  -1  -3  -4 11.0175 3.70309  15
  -1   3  -4 8.36703 4.12871  16
  -1   3  -4 14.0752 15.1628  11
   1   3   4 10.5348 3.82967  13
   1   3   4 8.19517 3.85844   5
  -1   3  -4 14.1106 4.87171  22
   1   3   4 15.4061 4.66220  24
   1   3   4 9.67964 17.0057   2
   1   3   4 8.89835 13.4865   9
   2  -3   4 310.421 14.0669  15
  -2  -3  -4 334.525 13.7720   7
   2  -3   4 295.246 16.5883  17
   2  -3   4 307.436 18.2176  23
  -2  -3  -4 304.751 12.9402  14
   2  -3   4 297.661 13.8029  12
   2  -3   4 291.905 14.1107   4
  -2   3  -4 288.983 18.1599  22
   2   3   4 303.912 14.3007  24
   2   3   4 300.477 13.9974   5
  -2   3  -4 288.412 15.2864  16
  -2   3  -4 311.176 13.7560   7
   2   3   4 302.509 14.0903  13
   3  -3   4 67.3077 6.79681  12
  -3  -3  -4 66.6278 5.70387  14
  -3  -3  -4 62.2250 6.32329   7
   3  -3   4 60.6147 6.18862   4
   3  -3   4 67.8342 7.20079  15
   3   3   4 68.2126 6.15146  12
   3   3   4 61.3594 6.91889   5
  -3   3  -4 69.2085 6.33307   7
  -4  -3  -4 152.426 7.08157  14
  -4   3  -4 149.068 7.34547   7
   4   3   4 148.313 7.59869   5
   5  -4  -4 93.7500 6.08112   4
  -5  -4   4 91.2188 5.86570   6
  -5   4   4 95.7348 6.16044   6
   5   4  -4 95.5599 6.29358  12
  -4  -4   4 784.515 30.6027  13
  -4  -4   4 768.372 29.1532  12
   4  -4  -4 778.504 29.5474   4
  -4  -4   4 763.869 28.6091   6
  -4  -4   4 761.412 29.5754   5
  -4  -4   4 709.867 34.0700  17
  -4   4   4 813.105 28.8597   6
  -4   4   4 756.879 30.4722  24
   3  -4  -4 846.434 45.4614  23
  -3  -4   4 971.733 34.0168   6
  -3  -4   4 964.105 35.4504   5
   3  -4  -4 897.750 34.9702   4
  -3  -4   4 915.153 40.6921  17
   3  -4  -4 934.541 44.6625  17
  -3  -4   4 997.987 36.4962  13
   3  -4  -4 894.784 34.7911  15
  -3  -4   4 913.627 42.9787  23
  -3  -4   4 957.108 34.8018  12
   3   4  -4 922.039 37.6884  16
  -3   4   4 924.724 36.8218  24
   3   4  -4 899.386 44.4504  22
  -3   4   4 978.111 34.1321   6
   3   4  -4 921.725 35.2782   4
   2  -4  -4 283.427 12.8558   7
  -2  -4   4 285.685 13.4194  13
  -2  -4   4 270.770 12.9904   4
   2  -4  -4 255.715 16.7700  23
  -2  -4   4 251.211 31.1782   2
  -2  -4   4 280.541 12.7791  12
  -2  -4   4 231.923 24.8135   9
   2  -4  -4 278.108 12.8354  15
   2  -4  -4 285.696 17.8313  17
  -2  -4   4 276.834 13.2493   5
   2  -4  -4 276.779 28.7085  11
  -2   4   4 315.965 28.7449   3
  -2   4   4 285.080 13.8536  24
   2   4  -4 267.186 33.9373   8
   2   4  -4 259.149 25.8701   1
   2   4  -4 301.334 15.4947  22
   2   4  -4 279.970 13.2024  16
   1  -4  -4 712.306 37.8190  20
  -1  -4   4 681.339 26.2359   5
   1  -4  -4 684.940 32.7245  17
  -1  -4   4 673.484 37.5272   9
  -1  -4   4 689.398 26.9210  13
  -1  -4   4 690.638 26.3411   4
  -1  -4   4 633.884 25.7223  12
   1  -4  -4 688.717 33.8824  23
   1  -4  -4 688.324 24.7529   6
  -1  -4   4 671.784 52.3234   8
   1  -4  -4 677.264 43.0240  11
   1  -4  -4 681.406 25.9479   7
  -1  -4   4 724.944 47.9423   2
   1  -4  -4 674.674 25.8947  15
  -1   4   4 639.255 27.2043  24
   1   4  -4 721.832 39.5410   1
   1   4  -4 687.926 32.1127  22
  -1   4   4 649.033 35.7292   9
  -1   4   4 678.831 26.6442  13
  -1   4   4 651.376 33.2316  22
  -1   4   4 673.227 38.5438   3
  -1   4   4 656.342 28.2706  16
   0  -4  -4 232.236 27.3056  11
   0  -4  -4 245.987 15.3359  17
   0  -4  -4 247.804 10.8885   6
   0  -4   4 262.817 11.6070  12
   0  -4   4 262.021 12.2270   4
   0  -4  -4 250.091 10.9067  14
   0  -4   4 254.711 11.6914  15
   0  -4  -4 255.374 16.5038  23
   0  -4  -4 248.682 11.8282  15
   0  -4   4 243.946 12.0245   5
   0  -4  -4 208.212 24.6065  10
   0  -4  -4 262.900 11.8493   7
   0  -4   4 251.764 30.4041   2
   0  -4   4 229.672 30.7967   8
   0   4  -4 227.757 23.3184   1
   0   4  -4 269.436 11.8546  16
   0   4  -4 248.100 24.2056  11
   0   4   4 245.993 13.0562  16
   0   4   4 248.698 12.6304  24
   0   4  -4 264.440 13.7444  22
   0   4   4 248.576 12.0330  13
   0   4   4 243.500 15.3327  22
   0   4   4 249.044 22.5286   9
   1  -4   4 106.716 8.03074   4
   1  -4   4 105.734 7.54479  15
  -1  -4  -4 98.2530 10.3959  17
  -1  -4  -4 89.5116 12.3185  23
   1  -4   4 88.8589 7.01844   7
  -1  -4  -4 105.006 7.32211   7
   1  -4   4 106.374 7.01043  12
  -1  -4  -4 101.970 6.76147  14
  -1  -4  -4 6.65965 20.1944  11
   1  -4   4 96.7896 7.87834   5
  -1  -4  -4 103.032 7.53115  15
   1   4   4 90.8500 7.58401   5
  -1   4  -4 101.537 7.53778  16
  -1   4  -4 89.2778 8.62086  22
   1   4   4 95.8129 8.67331  24
   1   4   4 98.1976 7.34946  13
  -2  -4  -4 126.593 12.8650  17
  -2  -4  -4 165.945 9.29531   7
   2  -4   4 159.720 9.13201  12
  -2  -4  -4 162.374 8.48507  14
   2  -4   4 161.151 9.05447  17
  -2  -4  -4 132.998 16.0394  23
   2  -4   4 162.220 9.84398  23
   2  -4   4 171.111 9.85742   4
   2  -4   4 154.921 9.37018  15
  -2   4  -4 162.292 10.5709  16
  -2   4  -4 137.723 8.94275   7
   2   4   4 156.651 10.3746  24
   2   4   4 165.200 9.43959  13
  -2   4  -4 157.693 12.9207  22
   2   4   4 177.147 9.52749   5
  -3  -4  -4 115.302 7.35914   7
   3  -4   4 116.533 7.34105  12
   3  -4   4 107.996 8.08327   4
   3  -4   4 115.423 7.82574  15
  -3  -4  -4 117.848 7.01194  14
   3   4   4 113.818 7.82833   5
  -3   4  -4 121.354 7.31775   7
   3   4   4 115.384 7.54767  13
  -4  -5   4 17.7186 4.50540  13
  -4  -5   4 7.98895 3.92440  12
  -4  -5   4 16.4297 4.44010   5
   4  -5  -4 3.53271 3.43997   4
  -4  -5   4 13.7434 3.85517   6
  -4   5   4 15.0999 3.96585   6
  -3  -5   4 133.351 8.36826   6
   3  -5  -4 129.651 12.0564  23
   3  -5  -4 121.544 12.7234  17
   3  -5  -4 138.005 8.68146  15
  -3  -5   4 138.514 9.28197  13
  -3  -5   4 156.201 8.96154  12
   3   5  -4 146.559 9.69844  16
   3   5  -4 120.984 10.7220  22
  -3   5   4 132.417 9.97251  24
  -3   5   4 148.084 8.30066   6
   2  -5  -4 2772.39 96.6438  15
  -2  -5   4 2781.97 100.445  13
   2  -5  -4 2859.59 124.069  23
   2  -5  -4 2756.09 119.124  17
  -2  -5   4 2828.69 96.1448  12
   2  -5  -4 2743.27 97.3580   7
  -2  -5   4 2704.41 97.9389   4
   2   5  -4 2745.99 123.232  22
   2   5  -4 2712.16 103.742  16
  -2   5   4 2669.24 124.256  22
  -2   5   4 2602.90 104.817  16
   1  -5  -4 261.788 11.6058   6
  -1  -5   4 263.621 13.1944  13
   1  -5  -4 274.046 12.5329   7
   1  -5  -4 283.385 12.7739  15
   1  -5  -4 270.415 16.4662  23
  -1  -5   4 286.414 12.5000  12
   1  -5  -4 265.846 11.7286  14
  -1  -5   4 267.342 12.9082   4
  -1  -5   4 264.415 12.8797   5
   1  -5  -4 256.709 16.1741  17
  -1   5   4 265.486 12.9376  13
   1   5  -4 250.444 14.4648  22
  -1   5   4 276.366 16.3374  22
  -1   5   4 268.092 13.8576  16
   0  -5  -4 63.8493 6.66466  15
   0  -5  -4 55.8921 5.83979  14
   0  -5  -4 64.2571 9.21776  17
   0  -5   4 54.2813 6.75260   5
   0  -5  -4 55.7652 5.81474   6
   0  -5   4 60.6072 6.78705  15
   0  -5  -4 61.3898 9.35102  23
   0  -5   4 68.1610 7.00038   4
   0  -5   4 63.1188 6.89276  12
   0   5   4 63.9810 6.75573  13
   0   5  -4 69.3027 6.03866  16
   0   5  -4 57.4185 6.79904  22
   0   5   4 47.5889 7.54182  22
   0   5   4 65.6361 7.85248  16
   1  -5   4 109.622 8.10702  12
  -1  -5  -4 106.699 10.4614  17
   1  -5   4 119.249 8.24089   4
  -1  -5  -4 119.866 7.21042  14
  -1  -5  -4 96.0824 12.1865  23
  -1  -5  -4 111.541 8.02814   7
   1  -5   4 112.963 8.01347  15
   1  -5   4 108.178 7.96343   7
  -1   5  -4 116.856 8.26959  16
  -1   5  -4 113.854 9.74239  22
   1   5   4 102.957 9.89612  24
   1   5   4 102.589 8.50338   5
   2  -5   4 14.6214 4.51846   4
  -2  -5  -4 20.6298 3.81755  14
   2  -5   4 12.1671 4.22318  12
  -2  -5  -4 14.8432 4.07048   7
   2  -5   4 20.2424 4.65221  15
  -2  -5  -4 4.55715 6.48042  17
   2   5   4 10.6770 6.09204  24
   2   5   4 15.9425 4.40669  13
  -2   5  -4 13.7533 5.86435  16
   2   5   4 6.09823 4.30831   5
  -3  -5  -4 65.5381 5.35435   7
   3  -5   4 68.2841 6.15216  15
   3  -5   4 72.1990 6.22021   4
  -3  -5  -4 79.0277 5.39731  14
  -3   5  -4 75.5489 5.73159   7
   3   5   4 54.1774 5.46693  13
   3   5   4 76.8472 6.49134   5
  -4  -6   4 121.596 7.35342  12
  -4  -6   4 132.411 7.76167  13
  -4  -6   4 111.966 6.63762   6
  -4  -6   4 129.755 7.38809   5
   4  -6  -4 120.169 7.10418  15
  -4   6   4 125.263 7.10259   6
  -3  -6   4 1124.64 40.9487   5
  -3  -6   4 1112.99 40.2707  12
   3  -6  -4 1112.90 40.2957  15
  -3  -6   4 1072.52 42.0402  13
  -3   6   4 1061.01 39.4152   6
  -2  -6   4 67.5467 7.25110   5
  -2  -6   4 69.9866 6.92788  12
   2  -6  -4 79.9455 9.50796  23
   2  -6  -4 73.7480 9.56852  17
  -2  -6   4 74.3314 7.56502  13
   2  -6  -4 65.0329 6.92076   7
   2  -6  -4 74.5249 6.89407  15
   2  -6  -4 72.5907 6.66166  14
  -2   6   4 28.9696 7.52281  22
   2   6  -4 78.0101 6.79681  16
   2   6  -4 72.2084 7.98042  22
   1  -6  -4 74.7757 9.95407  17
  -1  -6   4 76.9125 8.10895  13
  -1  -6   4 76.8433 7.90189   5
  -1  -6   4 87.2716 7.63110   4
   1  -6  -4 87.9979 7.44519   7
   1  -6  -4 93.0963 6.27135   6
   1  -6  -4 84.3285 9.62420  23
   1  -6  -4 83.4271 6.57376  14
   1  -6  -4 77.1408 7.60994  15
  -1  -6   4 84.0171 7.36313  12
  -1   6   4 82.7179 10.2296  22
  -1   6   4 96.6244 9.15918  16
   1   6  -4 80.9640 7.84769  22
   1   6  -4 73.9847 6.67189  16
   0  -6  -4 290.618 12.4606   6
   0  -6   4 289.532 13.6686   4
   0  -6  -4 297.872 13.6031  15
   0  -6  -4 295.937 12.5588  14
   0  -6  -4 301.683 13.4404   7
   0  -6  -4 289.597 16.6221  17
   0  -6   4 303.283 13.3884  12
   0  -6  -4 302.500 17.9688  23
   0   6   4 293.992 13.9294  13
   0   6  -4 279.849 15.5073  22
   0   6  -4 275.792 13.0902  16
   0   6   4 293.772 15.0378  16
   0   6   4 278.439 17.8647  22
   1  -6   4 46.4804 5.68262  15
   1  -6   4 50.8682 5.43568   4
  -1  -6  -4 22.9929 6.51496  17
   1  -6   4 46.4584 5.30969  12
  -1  -6  -4 44.3040 5.38197  14
  -1  -6  -4 46.6513 5.17740   7
   1   6   4 48.6599 5.55156  13
  -1   6  -4 36.2821 5.37915  16
  -2  -6  -4 63.2552 5.45026  14
   2  -6   4 56.1065 6.26499  15
   2  -6   4 65.4751 6.36732   4
  -2  -6  -4 61.3583 6.19547   7
   2   6   4 61.8334 6.84009   5
   2   6   4 56.3534 6.13573  13
  -2   6  -4 63.4253 6.23611   7
  -3  -7   4 233.002 10.9044  12
  -3  -7   4 248.031 11.3447   5
  -3  -7   4 237.006 11.4382  13
   3  -7  -4 237.602 10.9934   7
  -3   7   4 237.556 10.6310   6
   2  -7  -4 416.564 16.3479  14
   2  -7  -4 425.875 17.2687  15
  -2  -7   4 408.306 17.4040   5
  -2  -7   4 407.681 16.9993  12
  -2  -7   4 413.124 17.7886  13
   2  -7  -4 414.256 17.1850   7
  -2   7   4 406.288 16.5944   6
   1  -7  -4 240.850 10.4985   6
  -1  -7   4 196.145 11.1544  12
   1  -7  -4 235.303 11.6248  15
  -1  -7   4 234.989 11.7324   5
   1  -7  -4 239.918 10.7614  14
   1  -7  -4 259.070 11.6724   7
   0  -7  -4 61.1529 5.68145   6
   0  -7  -4 58.2390 5.51960  14
   0  -7   4 55.6974 6.76949   4
   0  -7   4 46.6694 5.36082  12
   0  -7  -4 65.5472 7.06345  15
   0  -7  -4 58.0947 6.33222   7
   0   7   4 59.9463 7.17525  13
  -1  -7  -4 245.033 11.4045   7
   1  -7   4 237.661 11.6065   4
  -1  -7  -4 241.003 10.6031   6
  -1  -7  -4 239.837 10.6053  14
   1  -7   4 235.979 11.2525  15
   1   7   4 272.546 12.1002  13
   2  -7   4 51.6843 5.11327   4
  -2  -7  -4 42.9755 4.26922  14
   2  -7   4 50.7630 4.99672  15
   2   7   4 46.7262 5.19193  13
  -2  -8   4 1.86790 3.99927  13
   2  -8  -4 9.96435 3.08555   7
  -2  -8   4 0.98844 3.39785   5
   2  -8  -4 11.5292 3.28552  15
  -2  -8   4 1.86899 3.30247  12
   2  -8  -4 8.02986 2.77563  14
  -2   8   4 5.06764 2.99880   6
   1  -8  -4 74.3385 5.49947  14
   1  -8  -4 75.9355 5.21579   6
   1  -8  -4 78.9971 6.09521  15
   1  -8  -4 76.6603 6.11580   7
   0  -8  -4 82.3904 5.36251   6
   0  -8  -4 80.0892 5.40035  14
   0  -8  -4 82.9838 6.23175   7
  -1  -8  -4 50.4617 4.80149   7
  -1  -8  -4 40.5479 4.32413  14
   1   8   4 55.5950 5.41169  13
  -5   0   5 2.43631 3.24885   6
   5   0  -5 9.47502 3.63456   4
   4   0  -5 24.9324 4.74164   4
  -4   0   5 26.7016 4.39455   6
  -3   0   5 -2.2753 3.41577   6
   3   0  -5 -1.7188 4.00847   4
   3   0  -5 -2.5605 4.39717  24
  -3   0   5 0.46414 5.09052  13
  -3   0   5 -0.2448 8.39153  17
  -3   0   5 5.15406 13.7875   3
  -3   0   5 -1.3666 9.15907  23
  -3   0   5 5.36963 15.7339   9
  -2   0   5 20.9325 8.28319  23
  -2   0   5 19.4429 12.3810   9
   2   0  -5 25.6407 4.55213  24
  -2   0   5 20.4300 7.24124  17
  -2   0   5 24.9220 4.60538  13
  -2   0   5 23.6185 4.51224   5
  -2   0   5 45.1801 21.1052   2
   2   0  -5 7.44808 12.2659   1
  -2   0   5 23.8053 7.07600  20
  -1   0   5 15.9827 7.29795  23
   1   0  -5 29.1624 13.5917  11
   1   0  -5 19.4788 4.65978  16
  -1   0   5 19.1477 3.66003   5
  -1   0   5 24.2021 8.53662  21
  -1   0   5 13.1723 3.70102  13
  -1   0   5 15.4743 11.6320   9
  -1   0   5 19.8722 7.28111  20
  -1   0   5 16.2374 6.68159  17
   1   0  -5 18.4275 11.9777   1
  -1   0   5 13.6336 3.78759   4
   1   0  -5 15.8458 3.41123  15
   1   0  -5 20.0792 5.18960  22
  -1   0   5 26.9856 15.0939   2
   1   0  -5 14.8839 4.22972  24
   0   0   5 3213.26 110.100   5
   0   0   5 3022.99 141.785  23
   0   0   5 3207.95 113.449  13
   0   0   5 3192.20 157.735  20
   0   0  -5 3069.77 149.375  11
   0   0   5 3050.71 128.874   9
   0   0   5 3210.64 180.593   8
   0   0   5 3145.21 162.152   2
   0   0   5 3140.79 108.233  12
   0   0  -5 3130.71 108.859  15
   0   0  -5 3082.93 113.942  24
   0   0   5 3061.60 134.545  17
   1   0   5 121.409 12.9800  17
  -1   0  -5 125.792 7.39771   7
   1   0   5 121.082 7.93203   5
   1   0   5 111.739 14.2255  23
   1   0   5 122.048 8.26781  12
  -1   0  -5 134.437 7.72661  15
   1   0   5 28.6060 21.6845   8
  -1   0  -5 111.148 7.55062  24
   1   0   5 120.052 7.79736  13
  -2   0  -5 799.950 31.1187  24
  -2   0  -5 797.780 30.0665   7
   2   0   5 778.919 30.3484   5
   2   0   5 763.464 29.7826  12
  -2   0  -5 826.707 29.9109  15
   3   0   5 67.3291 6.19357   5
   3   0   5 71.4592 6.48365  12
  -3   0  -5 76.6107 5.96535   7
   5  -1  -5 109.793 7.19096   4
  -5  -1   5 94.9008 6.52486   6
   5   1  -5 107.283 7.27453   4
  -5   1   5 110.204 7.06087   6
  -4  -1   5 50.0614 5.10086   6
   4  -1  -5 45.3464 5.37656   4
   4  -1  -5 47.8351 4.85712  24
  -4  -1   5 37.6703 8.63740  17
  -4  -1   5 33.8338 9.56121  23
  -4   1   5 51.7711 5.61140   6
   4   1  -5 49.0406 5.41167   4
   4   1  -5 36.9950 6.35972  24
   3  -1  -5 73.7423 7.06359  24
  -3  -1   5 69.0686 9.47947  17
  -3  -1   5 64.4063 6.36683   6
   3  -1  -5 59.2234 6.92793   4
  -3  -1   5 85.4953 12.5451  23
  -3  -1   5 67.3875 7.81669  13
   3   1  -5 71.1767 6.95691   4
  -3   1   5 61.7856 6.38236   6
   3   1  -5 64.7480 7.93376  24
  -3   1   5 71.2716 8.58152  13
  -2  -1   5 174.272 14.0526  23
  -2  -1   5 155.019 19.7420   9
  -2  -1   5 189.570 13.1396  17
  -2  -1   5 148.810 25.6662   2
  -2  -1   5 167.267 9.77117  13
  -2  -1   5 166.048 12.5364  20
  -2  -1   5 180.322 9.46956   4
  -2  -1   5 169.048 9.27185  12
   2  -1  -5 165.875 9.22561  15
  -2  -1   5 165.484 9.54324   5
   2  -1  -5 169.611 9.03182   4
   2  -1  -5 186.519 9.34347  24
   2  -1  -5 183.631 23.1402  11
   2   1  -5 172.413 11.7423  22
   2   1  -5 170.575 10.1888  16
  -2   1   5 171.555 9.62416  13
  -2   1   5 167.626 15.5045  20
  -2   1   5 165.793 20.6813   9
   2   1  -5 109.411 21.5755   8
  -2   1   5 169.184 7.54331  24
   2   1  -5 165.714 21.7129   1
  -1  -1   5 294.346 18.0033  23
  -1  -1   5 303.366 17.0779  17
   1  -1  -5 315.960 23.8037   1
  -1  -1   5 298.309 13.1158   5
   1  -1  -5 303.501 12.8518  15
  -1  -1   5 298.484 13.5293  13
  -1  -1   5 286.179 23.4560   9
  -1  -1   5 288.959 12.8611  12
  -1  -1   5 310.096 31.6163   8
   1  -1  -5 309.267 13.3190  24
  -1  -1   5 282.548 27.8929   2
  -1  -1   5 281.652 17.5402  20
  -1  -1   5 293.114 13.2488   4
  -1  -1   5 299.192 19.1824  21
   1  -1  -5 349.191 26.1163  11
  -1   1   5 293.619 28.5248   2
   1   1  -5 292.634 25.3613  18
   1   1  -5 249.132 22.6541   1
   1   1  -5 282.399 25.1657  19
   1   1  -5 307.587 23.7931  11
  -1   1   5 304.641 12.0462  24
  -1   1   5 294.175 12.8333   5
  -1   1   5 281.576 21.9860  21
   1   1  -5 319.306 16.9038  22
   1   1  -5 296.525 14.1663  16
  -1   1   5 314.126 20.3549  20
   1   1  -5 289.982 12.4202  15
   0  -1  -5 102.344 6.93303  24
   0  -1   5 102.251 10.1754  20
   0  -1  -5 100.304 17.5088  11
   0  -1  -5 95.4885 6.52380  15
   0  -1   5 109.707 6.61947  12
   0  -1   5 94.3298 9.96775  17
   0  -1   5 102.285 7.31677  13
   0  -1   5 96.9288 10.7781  23
   0  -1   5 93.6446 20.1534   8
   0  -1   5 103.488 15.1102   9
   0  -1   5 97.8165 20.6215   2
   0  -1   5 104.914 6.97333   5
   0  -1  -5 100.308 6.74762   7
   0  -1   5 99.9620 7.63215   4
   0   1   5 101.534 7.18248   5
   0   1  -5 87.9977 14.7020   1
   0   1  -5 117.042 9.18300  22
   0   1  -5 120.728 17.6115  11
   0   1   5 129.996 21.9796   2
   0   1   5 111.712 15.7382   9
   0   1  -5 97.2609 6.68228  15
   0   1   5 96.5022 5.29498  24
   0   1   5 104.354 7.21985  13
   0   1   5 114.268 12.4128  20
  -1  -1  -5 527.514 20.0731   7
   1  -1   5 519.251 20.5494   5
   1  -1   5 539.209 26.5321  17
   1  -1   5 498.491 27.8529  23
   1  -1   5 500.288 20.0491  12
  -1  -1  -5 513.125 19.9288  15
  -1   1  -5 482.461 21.2045  24
  -1   1  -5 534.008 20.1903  15
   1   1   5 487.461 20.7667  13
   1   1   5 508.620 20.0639  12
  -1   1  -5 482.253 22.4195  16
  -1   1  -5 490.877 19.9324   7
  -1   1  -5 503.070 26.6035  22
   2  -1   5 307.679 19.0928  17
   2  -1   5 310.506 14.0121  12
  -2  -1  -5 291.500 13.3088  15
   2  -1   5 292.350 13.8633   5
   2  -1   5 310.199 21.3575  23
  -2  -1  -5 315.524 13.6490  24
  -2  -1  -5 304.668 13.6984   7
  -2   1  -5 309.776 14.6120  24
   2   1   5 325.790 14.1497   5
  -2   1  -5 318.946 13.6420   7
   2   1   5 303.885 13.7803  12
  -2   1  -5 308.095 13.6729  15
  -3  -1  -5 809.361 30.5713   7
   3  -1   5 836.940 30.4499  12
   3  -1   5 808.269 30.3652   5
  -3   1  -5 813.701 30.0322  15
   3   1   5 829.946 30.7441   5
   3   1   5 814.231 30.2217  12
  -3   1  -5 809.986 30.5126   7
  -5  -2   5 13.6038 3.29109   6
   5  -2  -5 13.9746 3.48268   4
   5   2  -5 12.2921 3.68845   4
  -5   2   5 13.7048 3.56452   6
  -4  -2   5 486.708 27.2327  23
  -4  -2   5 463.227 20.7726  13
  -4  -2   5 472.399 25.3604  17
   4  -2  -5 502.656 19.8822   4
  -4  -2   5 494.613 19.0707   6
   4   2  -5 491.841 20.1248   4
   4   2  -5 432.684 21.3971  24
  -4   2   5 496.503 19.0938   6
  -3  -2   5 166.844 14.4592  23
   3  -2  -5 149.975 9.37983   4
  -3  -2   5 149.721 10.0672  13
  -3  -2   5 147.973 9.45478  12
  -3  -2   5 178.752 13.2324  17
  -3  -2   5 155.140 10.3128   5
   3   2  -5 165.346 9.68900   4
  -3   2   5 163.396 8.99364   6
   3   2  -5 147.703 10.7802  16
   3   2  -5 181.571 12.8814  22
  -3   2   5 153.581 8.22103  24
  -2  -2   5 30.9198 4.71552   5
  -2  -2   5 27.3071 4.45943  12
  -2  -2   5 23.5600 23.4959   2
   2  -2  -5 26.0384 3.85196  24
  -2  -2   5 31.2429 5.05982  13
   2  -2  -5 21.1463 4.26250   4
   2  -2  -5 25.4934 4.75031  15
  -2  -2   5 18.1189 3.87400   4
  -2  -2   5 14.3867 14.8646   9
  -2  -2   5 22.3635 5.47442  17
   2  -2  -5 22.0431 18.4919  11
  -2  -2   5 37.8657 7.22323  23
   2  -2  -5 3.26600 12.1515   1
   2  -2  -5 1.69786 8.01702  20
   2   2  -5 33.3572 5.22398  16
  -2   2   5 22.2148 3.71909   6
  -2   2   5 3.51158 11.7525   3
  -2   2   5 1.96990 9.93119  20
   2   2  -5 26.3032 6.16300  22
  -2   2   5 21.3096 12.8740   9
  -2   2   5 27.2648 3.90664  24
  -2   2   5 23.0333 4.73931  13
   2   2  -5 34.3122 15.5360   1
   2   2  -5 22.5110 15.1429   8
  -1  -2   5 86.2563 6.88752   5
  -1  -2   5 91.1963 14.5301   9
  -1  -2   5 96.7299 7.01005  12
  -1  -2   5 85.4713 19.7991   8
  -1  -2   5 84.4522 7.20168  13
  -1  -2   5 93.2047 7.19928   4
  -1  -2   5 92.1073 9.28557  23
   1  -2  -5 108.707 18.2863  11
  -1  -2   5 51.0633 17.9689   2
   1  -2  -5 88.9917 6.71300  15
   1  -2  -5 97.5395 6.27748  24
  -1  -2   5 89.2925 9.08178  17
  -1   2   5 93.6962 6.91367  13
   1   2  -5 85.1559 6.79599  15
   1   2  -5 96.2705 15.9569  18
   1   2  -5 93.4030 15.9051   1
  -1   2   5 97.6140 15.1742   9
  -1   2   5 89.5009 6.17708  24
   1   2  -5 88.2166 8.40544  22
   1   2  -5 64.6305 16.4110  11
   1   2  -5 96.5383 7.34864  16
   0  -2  -5 360.318 14.6531  24
   0  -2   5 361.227 18.6869  17
   0  -2   5 338.084 14.5046  12
   0  -2  -5 310.306 28.9347  11
   0  -2   5 375.372 20.1027  23
   0  -2   5 348.485 15.1352   4
   0  -2  -5 354.579 14.6908  15
   0  -2   5 350.731 15.1260   5
   0  -2  -5 329.257 14.6023   7
   0  -2   5 348.039 35.7840   8
   0  -2   5 350.852 15.3144  13
   0  -2   5 341.004 32.3495   2
   0   2   5 345.642 26.6106   9
   0   2   5 318.159 31.1904   2
   0   2   5 348.517 14.7583  24
   0   2  -5 345.583 15.9865  16
   0   2  -5 349.687 14.4768  15
   0   2  -5 343.355 29.3331  11
   0   2   5 347.115 15.3983  13
   0   2  -5 311.377 26.6522   1
   0   2   5 338.405 14.7954   5
   0   2  -5 352.598 18.9837  22
  -1  -2  -5 1491.94 57.0283  24
  -1  -2  -5 1595.40 56.0534   7
   1  -2   5 1542.15 56.5959   4
  -1  -2  -5 1530.75 55.5301  15
   1  -2   5 1577.11 68.4295  17
   1  -2   5 1605.84 55.3363  12
   1  -2   5 1667.82 72.4648  23
   1  -2   5 1544.82 56.1834   5
  -1   2  -5 1472.18 60.6071  16
  -1   2  -5 1554.18 71.8190  22
   1   2   5 1518.07 57.8336  13
   1   2   5 1547.05 56.0564   5
  -1   2  -5 1527.49 55.7376   7
   1   2   5 1530.08 57.0948  24
  -2  -2  -5 74.8281 7.00937  15
   2  -2   5 76.9735 7.20951  12
   2  -2   5 73.0447 10.3165  23
   2  -2   5 89.2052 10.6243  17
   2  -2   5 87.1733 6.98800   5
  -2  -2  -5 91.9145 7.05877   7
  -2   2  -5 85.3364 6.64530   7
  -2   2  -5 84.2464 6.75597  15
   2   2   5 89.9248 7.30597  13
   2   2   5 81.9626 7.18751   5
  -3  -2  -5 8.02877 3.39205   7
  -3  -2  -5 3.88546 3.16082  14
   3  -2   5 3.55646 3.39559  12
  -3   2  -5 8.15874 3.93138  15
   3   2   5 5.86599 3.71340  12
  -3   2  -5 8.54569 3.38222   7
   3   2   5 2.10322 3.93635   5
  -5  -3   5 507.598 19.8047   6
   5  -3  -5 534.372 20.5517   4
  -5   3   5 552.478 20.0871   6
  -4  -3   5 62.6674 7.74124  13
  -4  -3   5 57.9472 6.32268   6
   4  -3  -5 66.6889 6.51835   4
  -4  -3   5 57.0749 5.92629  12
  -4  -3   5 66.2961 7.49036   5
  -4   3   5 64.5728 6.59166   6
   4   3  -5 61.9396 7.16906   4
  -3  -3   5 72.6908 7.95018   5
  -3  -3   5 77.7989 8.05048  13
   3  -3  -5 74.9033 6.99627   4
  -3  -3   5 86.4409 9.32743  17
  -3  -3   5 101.803 10.5899  23
  -3  -3   5 66.2315 7.57145  12
   3  -3  -5 80.2041 8.19968  15
   3   3  -5 75.7312 8.63965  16
  -3   3   5 82.3250 7.01930   6
   3   3  -5 79.9559 10.1852  22
   3   3  -5 81.9092 7.73454   4
  -3   3   5 78.3708 6.77863  24
  -2  -3   5 32.5576 5.40573  13
   2  -3  -5 29.1767 4.73634  15
  -2  -3   5 23.8162 5.52380  17
  -2  -3   5 31.7494 4.78849   5
  -2  -3   5 29.0362 4.67343  12
  -2  -3   5 34.1015 5.78657  23
  -2  -3   5 31.3973 4.57615   4
  -2   3   5 5.02534 13.9502   3
   2   3  -5 30.1363 6.18077  22
   2   3  -5 28.7780 5.11550  16
  -2   3   5 25.7506 4.97422  13
  -2   3   5 30.5891 4.25079   6
  -2   3   5 26.4781 4.54178  24
  -2   3   5 5.21982 15.4789   9
  -1  -3   5 165.153 9.32633  12
  -1  -3   5 176.801 11.6039  23
  -1  -3   5 153.327 20.0561   9
  -1  -3   5 164.496 10.7773  17
  -1  -3   5 210.499 32.6394   8
  -1  -3   5 178.056 9.83805   5
   1  -3  -5 167.006 9.33473   7
  -1  -3   5 176.593 10.4602  13
  -1   3   5 185.410 9.69492  24
  -1   3   5 194.938 9.78351  13
   1   3  -5 175.125 10.0486  16
  -1   3   5 137.621 19.1355   9
   1   3  -5 168.132 11.6527  22
   0  -3   5 114.578 8.92583  13
   0  -3   5 111.123 7.67709   5
   0  -3  -5 106.220 7.36509   7
   0  -3   5 118.225 7.90598   4
   0  -3   5 112.514 8.68135  17
   0  -3   5 92.9948 8.97761  23
   0  -3   5 104.840 7.41253  12
   0  -3  -5 110.298 7.42024  15
   0   3  -5 7.56454 17.8128  11
   0   3  -5 104.265 9.19652  22
   0   3   5 96.5240 7.61971   5
   0   3  -5 101.041 7.78556  16
   0   3   5 96.5859 7.41741  24
   0   3   5 6.05506 21.2761   2
   0   3   5 108.179 7.60231  13
   1  -3   5 140.514 9.22612   4
  -1  -3  -5 141.544 8.52344  15
  -1  -3  -5 143.607 8.50922   7
   1  -3   5 138.167 9.18650  15
   1  -3   5 138.048 9.09149   5
   1  -3   5 148.988 10.5939  17
   1  -3   5 132.443 11.5781  23
   1  -3   5 144.497 8.49518  12
  -1   3  -5 136.566 11.2831  22
   1   3   5 142.254 8.90033  24
   1   3   5 141.257 8.86247  13
  -1   3  -5 153.261 9.02500   7
   1   3   5 116.608 8.66751   5
  -1   3  -5 137.106 9.53746  16
   2  -3   5 608.182 25.8790   4
   2  -3   5 678.992 30.7606  17
  -2  -3  -5 609.096 24.5570  14
  -2  -3  -5 716.204 25.7895   7
  -2   3  -5 646.125 25.4690   7
   2   3   5 703.534 25.9495   5
   2   3   5 668.726 26.4326  13
  -3  -3  -5 3.36375 3.04265   7
  -3  -3  -5 3.43500 2.93002  14
   3  -3   5 1.46034 2.93452  12
  -3   3  -5 4.57567 3.52734  15
   3   3   5 4.46509 3.47108   5
  -3   3  -5 2.71971 3.19705   7
  -5   4   5 284.594 11.7704   6
  -4  -4   5 563.874 20.5835   6
  -4  -4   5 550.088 21.4396  12
  -4  -4   5 514.951 21.6405   5
   4  -4  -5 515.094 21.2206   4
  -4  -4   5 555.175 22.4977  13
  -4   4   5 548.772 20.9793   6
   3  -4  -5 225.542 11.6382  15
  -3  -4   5 231.768 11.5290  12
  -3  -4   5 235.121 12.0758   5
   3   4  -5 221.980 11.8130   4
  -3   4   5 205.209 11.5280  24
  -3   4   5 239.450 11.0110   6
   3   4  -5 207.863 14.7962  22
   3   4  -5 213.300 12.6451  16
  -2  -4   5 283.751 13.6953   4
   2  -4  -5 307.193 13.6580  15
  -2  -4   5 316.011 14.0144  12
   2  -4  -5 286.999 19.7993  17
   2  -4  -5 257.508 19.4573  23
  -2  -4   5 295.423 14.5379  13
  -2  -4   5 292.329 14.2687   5
   2   4  -5 299.138 17.2783  22
  -2   4   5 289.573 13.0277   6
  -2   4   5 316.272 14.5497  24
   2   4  -5 297.575 14.5047  16
  -1  -4   5 45.7883 5.37819   4
  -1  -4   5 48.2265 5.69458   5
   1  -4  -5 27.6606 8.01166  17
   1  -4  -5 35.5303 4.86631   7
  -1  -4   5 43.9816 5.92367  13
   1  -4  -5 41.4685 5.04144  15
  -1  -4   5 43.0343 5.00639  12
   1  -4  -5 26.0838 7.62142  23
  -1   4   5 42.8886 5.40545  13
  -1   4   5 40.3687 5.51284  24
   1   4  -5 47.1152 7.36723  22
   1   4  -5 30.2728 5.20578  16
   0  -4   5 30.6331 5.00562   4
   0  -4   5 44.6656 5.41336  15
   0  -4  -5 25.5270 8.64272  17
   0  -4  -5 40.9143 5.40567  15
   0  -4   5 41.2059 4.95863  12
   0  -4  -5 37.4169 4.83880   7
   0  -4   5 37.7917 5.25172   5
   0   4   5 43.4211 6.11657  24
   0   4  -5 32.7939 6.48209  22
   0   4   5 40.6654 5.32424  13
   0   4  -5 36.2749 5.34783  16
   1  -4   5 134.411 8.86480   5
   1  -4   5 126.511 8.65507  15
   1  -4   5 132.803 8.55820  12
   1  -4   5 150.336 9.06801   4
  -1  -4  -5 124.945 8.57130  15
  -1   4  -5 141.351 11.5145  22
   1   4   5 130.748 9.13778  24
   1   4   5 117.697 8.58019   5
   1   4   5 132.664 8.72083  13
  -1   4  -5 132.949 9.37043  16
   2  -4   5 183.201 9.79273  12
   2  -4   5 186.312 10.3430   4
  -2  -4  -5 181.565 9.23379  14
  -2  -4  -5 202.611 9.89670   7
   2  -4   5 192.180 10.0562  15
   2   4   5 192.072 10.0859  13
   2   4   5 203.994 10.0803   5
  -2   4  -5 182.810 9.53548   7
   3  -4   5 128.292 7.10055  12
  -3  -4  -5 138.782 7.02476   7
   3   4   5 130.088 7.17724   5
  -3   4  -5 134.545 6.85826   7
  -4  -5   5 41.1128 4.68285  12
  -4  -5   5 44.8005 5.05457  13
  -4  -5   5 42.6453 4.81034   5
  -4   5   5 42.0510 5.04647   6
  -3  -5   5 156.392 9.56097   5
  -3  -5   5 144.828 9.57127  13
   3  -5  -5 158.517 9.02520  15
  -3  -5   5 147.118 9.15692  12
  -3   5   5 161.796 8.82665   6
   3   5  -5 150.158 9.34813   4
  -2  -5   5 325.436 14.4905  12
  -2  -5   5 313.789 15.3457  13
   2  -5  -5 324.519 14.4301   7
   2  -5  -5 305.732 19.5307  23
  -2  -5   5 312.529 14.9052   5
   2  -5  -5 315.623 14.6061  15
  -2  -5   5 319.453 14.4248   4
   2  -5  -5 311.466 19.5554  17
  -2   5   5 323.917 15.5565  24
   2   5  -5 304.989 15.1471  16
   2   5  -5 325.508 18.3476  22
  -2   5   5 318.877 13.7698   6
  -1  -5   5 29.2399 4.93796   5
  -1  -5   5 31.1244 4.89747   4
  -1  -5   5 17.5863 4.44619  12
   1  -5  -5 20.4828 7.06602  17
   1  -5  -5 28.0483 4.49876   7
  -1  -5   5 37.8139 5.64434  13
   1  -5  -5 26.9781 4.73501  15
   1  -5  -5 21.5087 7.49490  23
   1   5  -5 31.6021 6.42541  22
   1   5  -5 33.9946 5.22878  16
  -1   5   5 28.2626 5.00293  13
  -1   5   5 30.3865 5.86477  24
   0  -5  -5 7.34260 7.32575  23
   0  -5  -5 20.6721 4.43631  15
   0  -5   5 8.67340 4.28912  12
   0  -5   5 20.0590 4.92959  15
   0  -5  -5 15.8497 6.76921  17
   0  -5   5 18.9481 4.38622   4
   0  -5  -5 21.4692 4.12346   7
   0  -5   5 27.1825 4.91068   5
   0   5  -5 18.0049 4.60056  16
   0   5   5 14.8570 5.67727  24
   0   5  -5 12.9963 5.52400  22
   0   5   5 26.1972 4.77168  13
  -1  -5  -5 21.1216 3.96623   7
  -1  -5  -5 19.7208 3.59771  14
   1  -5   5 21.5933 4.63928  15
   1  -5   5 35.2046 4.85500  12
   1  -5   5 23.6670 4.29348   4
   1   5   5 25.3797 4.67927  13
  -2  -5  -5 107.529 6.73487  14
   2  -5   5 122.560 7.45062   4
  -2  -5  -5 129.489 7.31694   7
   2  -5   5 120.877 7.42900  12
   2  -5   5 112.980 7.51163  15
   2   5   5 112.881 7.41287  13
  -2   5  -5 132.724 7.31983   7
   2   5   5 118.438 7.55281   5
  -4  -6   5 133.182 7.47535  13
  -3  -6   5 423.195 17.1422  12
  -3  -6   5 390.308 17.2925   5
   3  -6  -5 411.073 17.0083  15
  -3  -6   5 421.772 18.0199  13
  -3   6   5 444.436 16.7837   6
   2  -6  -5 138.645 8.62092   7
  -2  -6   5 166.324 9.03715  12
  -2  -6   5 145.766 9.38234  13
  -2  -6   5 138.108 8.31270   4
  -2  -6   5 134.295 8.99502   5
   2  -6  -5 159.366 8.93642  15
  -2   6   5 147.130 8.20218   6
  -1  -6   5 3.12759 4.73263   5
  -1  -6   5 -0.8790 4.18427  12
   1  -6  -5 3.62957 3.91665   7
  -1  -6   5 6.21186 4.11184   4
   1  -6  -5 4.62791 4.35685  15
   0  -6   5 95.0710 7.38648  12
   0  -6  -5 86.1527 6.40518  14
   0  -6  -5 92.6056 7.04907   7
   0  -6   5 90.6828 7.47160   4
   0  -6  -5 107.689 7.46045  15
   0   6   5 92.9802 7.53731  13
  -1  -6  -5 1.56642 3.12189  14
   1  -6   5 -1.9937 4.04182  15
   1  -6   5 -2.1599 3.55868   4
  -1  -6  -5 2.05645 3.24174   7
   1  -6   5 3.28778 3.97237  12
   1   6   5 2.64174 3.96282  13
  -2  -6  -5 12.8289 2.72676  14
  -2  -6  -5 27.3120 3.08745   7
   2  -6   5 25.1708 3.62700   4
   2   6   5 27.5719 3.70282  13
  -3  -7   5 302.690 13.5399   5
  -3  -7   5 335.206 13.9614  13
   3  -7  -5 334.857 13.2350  15
  -3  -7   5 326.839 13.2535  12
  -3   7   5 333.146 13.0143   6
   2  -7  -5 16.3256 3.62479  15
  -2  -7   5 16.0763 3.99740   5
   2  -7  -5 18.7849 3.37958   7
  -2  -7   5 18.5515 3.91590  13
  -2  -7   5 15.4925 3.74769  12
  -2   7   5 18.3204 3.48283   6
  -1  -7   5 18.9449 3.74762   4
  -1  -7   5 21.4889 4.20156   5
  -1  -7   5 18.5538 4.13542  12
   1  -7  -5 17.7297 3.55473   7
   1  -7  -5 14.8811 3.73846  15
  -1   7   5 18.8433 3.54936   6
   0  -7   5 0.34958 3.69127  12
   0  -7  -5 0.24621 3.32407  15
   0  -7  -5 1.47259 3.32152   7
   0  -7   5 3.24451 3.77739   4
   0  -7  -5 3.71289 2.85124  14
   0   7   5 3.63570 3.67336  13
  -1  -7  -5 32.5612 3.38304   7
  -1  -7  -5 13.5641 2.68093  14
   1  -7   5 25.2458 3.56577   4
   1   7   5 27.1824 3.83667  13
  -5   0   6 8.90107 2.60637   6
   5   0  -6 5.66549 3.12883   4
   4   0  -6 141.960 8.85339   4
  -4   0   6 142.915 7.97403   6
  -3   0   6 -0.8353 9.08399  17
  -3   0   6 0.28772 10.5948  23
   3   0  -6 2.84948 4.07973   4
  -3   0   6 4.53006 5.46390  13
   3   0  -6 4.71431 5.03701  24
   2   0  -6 42.7676 5.79211  24
  -2   0   6 48.4251 5.77295  13
  -2   0   6 23.4703 8.88415  17
   2   0  -6 52.0402 5.44778   4
  -2   0   6 39.7918 11.2237  23
  -1   0   6 -1.5886 4.13840  13
  -1   0   6 1.09613 3.88103   5
  -1   0   6 0.15448 8.33155  17
  -1   0   6 -1.0528 4.17113   4
   1   0  -6 -2.8412 3.92856  15
  -1   0   6 -1.6830 8.54226  23
   1   0  -6 -4.2992 4.63113  24
   0   0  -6 2280.20 85.4207  24
   0   0   6 2287.57 85.0154  13
   0   0   6 2268.49 101.552  17
   0   0   6 2211.02 107.064  23
   0   0   6 2392.29 82.4469   5
   0   0  -6 2413.70 81.5464  15
   1   0   6 -0.9107 4.37652  13
   1   0   6 4.13109 3.90712   5
   1   0   6 2.02523 3.68908  12
  -1   0  -6 -0.5498 4.95936  24
   1   0   6 -0.0306 7.92350  17
   1   0   6 0.32211 9.65754  23
  -1   0  -6 1.24368 3.79973   7
  -1   0  -6 9.83200 3.84797  15
  -2   0  -6 193.952 9.56483  15
   2   0   6 177.056 9.43437  12
   2   0   6 194.700 9.79905   5
  -2   0  -6 201.026 9.59139   7
  -5  -1   6 0.78802 2.64374   6
   5  -1  -6 0.33591 2.84405   4
  -5   1   6 -1.8009 2.76066   6
   5   1  -6 0.65193 2.98100   4
  -4  -1   6 24.4551 5.57242  13
  -4  -1   6 13.1035 3.76139   6
   4  -1  -6 18.1157 4.20488   4
  -4   1   6 19.8501 3.84435   6
   4   1  -6 12.9475 3.98114   4
   3  -1  -6 218.188 11.2530  24
  -3  -1   6 230.422 17.8781  23
  -3  -1   6 221.491 16.6322  17
   3  -1  -6 212.354 11.1193   4
  -3  -1   6 219.876 12.2132  13
   3   1  -6 227.003 11.3528   4
  -3   1   6 218.552 12.0345  13
   3   1  -6 213.376 12.3407  24
  -2  -1   6 525.139 28.5606  17
  -2  -1   6 534.128 22.4181   5
   2  -1  -6 545.732 21.7969   4
   2  -1  -6 567.792 21.8084  15
   2  -1  -6 538.429 22.4873  24
  -2  -1   6 557.701 23.0982  13
  -2  -1   6 489.806 29.3719  23
   2   1  -6 575.519 23.5501  24
  -2   1   6 574.961 22.8594  13
  -1  -1   6 1766.18 62.2951   5
  -1  -1   6 1740.83 64.1987  13
   1  -1  -6 1719.34 61.3975  15
  -1  -1   6 1740.57 76.5143  17
   1  -1  -6 1632.13 64.0911  24
  -1  -1   6 1729.15 80.8458  23
  -1  -1   6 1705.12 61.1549  12
  -1  -1   6 1757.33 62.7354   4
   1   1  -6 1784.34 79.8928  22
   1   1  -6 1708.15 61.1779  15
  -1   1   6 1730.74 64.2094  13
  -1   1   6 1697.14 61.9911   5
   1   1  -6 1719.97 64.7438  24
   1   1  -6 1687.01 67.1840  16
   0  -1   6 401.059 25.2656  23
   0  -1   6 429.374 17.8909  12
   0  -1   6 453.609 19.1369   4
   0  -1   6 417.498 18.7188  13
   0  -1   6 433.037 18.3743   5
   0  -1  -6 447.582 18.6498  24
   0  -1   6 449.913 23.7090  17
   0  -1  -6 451.721 18.1419  15
   0   1  -6 449.312 17.8508  15
   0   1  -6 428.548 19.2524  24
   0   1   6 419.446 18.5587  13
   0   1   6 444.689 18.2319   5
  -1  -1  -6 78.8399 6.99298  24
  -1  -1  -6 76.6451 6.69255  15
   1  -1   6 61.3462 9.83704  23
   1  -1   6 70.4372 9.39666  17
  -1  -1  -6 72.3166 6.64160   7
   1  -1   6 75.8986 6.59567  12
   1  -1   6 85.7777 6.73894   5
  -1   1  -6 71.3962 6.80613   7
  -1   1  -6 82.9254 7.54820  24
   1   1   6 73.1277 6.58588  13
  -1   1  -6 70.9252 6.77133  15
   1   1   6 75.5646 7.08551   5
   2  -1   6 50.5788 6.08069   5
  -2  -1  -6 61.3655 5.80031   7
  -2  -1  -6 53.0252 5.81784  15
   2  -1   6 59.2083 5.73839  12
  -2   1  -6 61.6605 5.84987   7
  -2   1  -6 61.3089 5.64771  15
   2   1   6 58.7785 6.27499  12
   2   1   6 56.2903 6.06978   5
   5  -2  -6 3.54061 2.49563   4
  -5   2   6 2.80034 2.85535   6
   4  -2  -6 14.1013 3.72043   4
  -4  -2   6 15.7394 5.15930  13
  -4   2   6 19.4797 3.61664   6
   4   2  -6 23.5572 4.41326   4
   3  -2  -6 316.280 14.2254   4
  -3  -2   6 328.706 15.4425  13
  -3  -2   6 311.037 15.0957   5
  -3  -2   6 335.045 20.4725  23
  -3  -2   6 314.803 19.1059  17
  -3   2   6 315.348 13.7173   6
   3   2  -6 327.880 14.7889   4
  -2  -2   6 -0.1631 5.02830  13
  -2  -2   6 5.18748 6.16912  17
   2  -2  -6 5.77533 4.40090  15
  -2  -2   6 8.04995 4.60178  12
   2  -2  -6 3.21572 3.68396  24
  -2  -2   6 0.09411 4.52754   5
  -2  -2   6 10.2304 4.17239   4
  -2   2   6 6.14564 4.72683  13
   2   2  -6 3.31677 5.23749  16
   2   2  -6 3.74988 7.10835  22
   1  -2  -6 170.404 9.02786  24
  -1  -2   6 173.336 10.1786   4
  -1  -2   6 172.529 10.7004  13
  -1  -2   6 194.397 14.1506  23
  -1  -2   6 182.956 9.83414  12
  -1  -2   6 179.381 9.98811   5
  -1  -2   6 187.636 13.2954  17
   1  -2  -6 177.140 9.70428  15
   1   2  -6 165.668 13.0782  22
  -1   2   6 185.454 10.2144  13
   1   2  -6 172.676 9.42912  15
   1   2  -6 176.581 11.3178  16
   0  -2   6 532.106 21.7711   5
   0  -2   6 526.445 21.8882   4
   0  -2   6 516.063 22.3098  13
   0  -2  -6 574.682 21.4257  15
   0  -2   6 517.292 26.6876  17
   0  -2   6 569.812 21.5351  12
   0  -2   6 534.248 28.3708  23
   0  -2  -6 521.307 21.2532   7
   0  -2  -6 533.197 21.1067  24
   0   2  -6 546.258 28.0650  22
   0   2  -6 529.391 21.1906  15
   0   2   6 547.394 22.2714  13
   0   2   6 521.234 21.5363   5
   0   2  -6 534.662 23.8563  16
  -1  -2  -6 500.497 20.6600  15
   1  -2   6 509.473 26.2632  17
  -1  -2  -6 536.777 20.8899   7
   1  -2   6 545.557 21.2384   5
   1  -2   6 528.215 20.7918  12
   1   2   6 509.796 21.4624  13
   1   2   6 523.107 21.0815   5
  -1   2  -6 514.707 20.7589  15
   2  -2   6 7.53664 3.32396  12
  -2  -2  -6 7.59114 3.42865  15
   2  -2   6 2.59152 3.39417   5
  -2  -2  -6 2.11869 3.26477   7
   2   2   6 1.75665 3.49735   5
  -2   2  -6 6.60811 3.68372   7
  -2   2  -6 8.65909 3.96790  15
  -4  -3   6 22.6733 4.75784  13
  -4  -3   6 28.4114 4.82645  12
   4  -3  -6 24.0222 3.64839   4
  -4   3   6 28.0637 3.80832   6
   4   3  -6 25.5258 4.50831   4
   3  -3  -6 10.8879 4.84627  15
  -3  -3   6 6.11374 5.67339  17
  -3  -3   6 7.84625 4.80110   5
  -3  -3   6 5.04261 4.76438  13
  -3  -3   6 7.65238 4.52350  12
   3   3  -6 6.95779 4.12874   4
  -3   3   6 3.36894 3.48626   6
   3   3  -6 1.83406 5.87798  16
  -2  -3   6 692.695 27.0192   4
  -2  -3   6 695.938 31.7016  17
   2  -3  -6 700.684 26.4338  15
  -2  -3   6 715.976 27.1666   5
  -2  -3   6 698.567 33.2133  23
  -2  -3   6 672.757 26.4452  12
  -2  -3   6 686.947 27.9980  13
   2   3  -6 649.011 34.7426  22
  -2   3   6 684.692 27.5137  13
   2   3  -6 673.237 28.9696  16
  -2   3   6 655.473 26.4619  24
  -1  -3   6 83.8463 9.28751  23
  -1  -3   6 80.2959 8.01616  17
   1  -3  -6 90.2698 7.61127  15
  -1  -3   6 94.0594 7.94400   5
  -1  -3   6 86.5099 8.28487  13
  -1  -3   6 85.2953 7.33580  12
  -1  -3   6 93.7915 7.84807   4
   1   3  -6 94.8032 8.60513  16
  -1   3   6 89.5373 7.45687  13
  -1   3   6 92.9438 6.56333  24
   1   3  -6 87.8770 10.1130  22
   0  -3   6 178.006 10.0200   4
   0  -3   6 159.121 11.6983  23
   0  -3  -6 183.365 9.46268  15
   0  -3   6 170.937 9.51738  12
   0  -3   6 185.624 9.86202   5
   0  -3   6 158.665 10.5613  17
   0  -3  -6 169.972 9.47058   7
   0   3  -6 155.883 12.7261  22
   0   3   6 153.995 9.69342   5
   0   3   6 158.553 8.33874  24
   0   3   6 165.254 9.54466  13
   0   3  -6 166.712 9.26603  15
   0   3  -6 163.594 10.9679  16
  -1  -3  -6 172.209 9.21290   7
   1  -3   6 159.839 9.63815   5
  -1  -3  -6 164.507 9.15026  15
   1  -3   6 195.081 9.74147  12
   1  -3   6 164.559 9.91923   4
   1   3   6 159.536 9.54337   5
  -1   3  -6 178.313 9.35713  15
   1   3   6 181.438 9.63321  13
  -2  -3  -6 60.4062 5.64534   7
   2  -3   6 64.1770 5.86243  12
   2   3   6 70.0053 6.09335   5
  -2   3  -6 71.9888 5.60339   7
  -2   3  -6 75.1246 5.86280  15
  -4  -4   6 23.1631 4.00813  12
  -4  -4   6 27.7400 4.33699  13
  -4  -4   6 33.9692 4.61655   5
   4   4  -6 31.2639 3.90107   4
  -4   4   6 30.2867 3.50581   6
   3  -4  -6 36.3799 4.97713  15
  -3  -4   6 39.9264 5.40839   5
  -3  -4   6 36.9686 5.00231  12
  -3  -4   6 37.3920 5.36738  13
   3   4  -6 52.4665 6.20147   4
  -3   4   6 49.0353 5.86602   6
  -2  -4   6 64.9037 6.68775  13
  -2  -4   6 62.3135 7.10867  12
   2  -4  -6 63.5983 6.71371  15
  -2  -4   6 55.8513 6.34294   5
  -2  -4   6 64.6269 6.67303   4
   2   4  -6 59.3071 6.87948  16
  -2   4   6 62.6880 6.81995  24
  -2   4   6 63.3056 7.46831  13
  -1  -4   6 90.3909 7.92513   4
   1  -4  -6 99.8639 7.39064  15
  -1  -4   6 96.8642 8.66415  13
  -1  -4   6 104.725 7.74715  12
   1  -4  -6 95.4339 7.58557   7
  -1  -4   6 107.796 8.26826   5
  -1   4   6 103.539 7.76507  13
   1   4  -6 98.6574 8.94563  16
  -1   4   6 97.8992 7.70513  24
   1   4  -6 112.931 10.8974  22
   0  -4  -6 4.13060 3.62936   7
   0  -4   6 2.70408 4.27622   4
   0  -4   6 -1.1436 3.98623  12
   0  -4  -6 -0.7849 3.72579  15
   0  -4   6 2.58640 4.31601   5
   0   4  -6 -0.6731 4.16013  15
   0   4   6 -0.9543 4.06840  13
   1  -4   6 28.1917 4.13819  12
  -1  -4  -6 21.5322 3.83462  15
   1  -4   6 21.5689 4.32570   5
  -1  -4  -6 23.3652 3.93493   7
   1  -4   6 26.6383 4.36962   4
   1   4   6 29.9008 4.49956  13
  -1   4  -6 27.7994 4.20278  15
   1   4   6 27.3086 4.63786   5
   2  -4   6 0.00690 2.82035  12
   2  -4   6 1.51114 3.20071   4
  -2  -4  -6 -0.4438 2.69370   7
  -2   4  -6 1.10579 3.19544  15
   2   4   6 2.65033 3.08018   5
   2   4   6 0.48718 2.84858  13
  -3  -5   6 35.0650 4.63379  12
  -3  -5   6 34.2165 4.74625   5
  -3  -5   6 44.8353 5.20527  13
   3  -5  -6 28.3407 4.12591  15
   3   5  -6 27.0499 4.03330   4
  -3   5   6 39.0295 4.47983   6
   2  -5  -6 25.8168 4.25863  15
  -2  -5   6 16.3261 3.87120   4
  -2  -5   6 19.7691 4.60240   5
  -2  -5   6 29.3284 5.06855  13
  -2  -5   6 10.6253 4.01803  12
  -2   5   6 21.2337 3.76758   6
  -1  -5   6 33.4003 5.10550   5
  -1  -5   6 30.4706 4.50207  12
  -1  -5   6 32.6820 4.56228   4
   1  -5  -6 24.2807 4.40892  15
   1  -5  -6 24.7398 4.06060   7
  -1   5   6 28.1357 4.77720  13
   0  -5  -6 112.206 7.08922   7
   0  -5  -6 100.862 7.01834  15
   0  -5   6 95.4322 7.72039   5
   0  -5   6 103.954 7.17800  12
   0  -5   6 99.9340 7.47409   4
   0   5   6 97.5299 7.29667  13
   1  -5   6 7.58275 3.66239   4
  -1  -5  -6 10.1858 3.14598   7
   1  -5   6 5.98528 3.39362  12
  -1   5  -6 12.6492 3.56216  15
   1   5   6 5.22973 3.26948  13
  -3  -6   6 1.84900 3.19967   5
   3  -6  -6 6.63175 3.16826  15
  -3  -6   6 3.52148 2.91346  12
  -3  -6   6 12.1215 3.59587  13
  -3   6   6 1.72552 3.12645   6
  -2  -6   6 34.4427 4.60097  13
   2  -6  -6 32.9055 4.11873  15
  -2  -6   6 30.5370 4.10928  12
  -2  -6   6 30.6911 4.20674   5
  -2   6   6 26.6875 3.43584   6
   1  -6  -6 39.1357 4.08288   7
  -1  -6   6 40.4281 4.52022  12
   1  -6  -6 28.4763 3.88319  15
  -1  -6   6 33.3205 4.14017   4
  -1  -6   6 34.6282 4.37576   5
  -1   6   6 32.7841 4.15936  13
   0  -6  -6 11.1300 3.16106  15
   0  -6   6 9.68819 3.49783   4
   0  -6   6 10.2190 3.61597  12
   0  -6  -6 11.3025 3.10668   7
   0   6   6 15.1317 3.52738  13
   4   0  -7 1396.31 50.6519   4
  -3   0   7 72.5781 7.71586  13
   3   0  -7 84.8538 6.75151   4
   2   0  -7 336.743 14.5391   4
   2   0  -7 331.975 16.1070  24
   1   0  -7 82.2647 6.76480  15
   1   0  -7 93.7092 8.34174  24
  -1   0   7 84.5614 7.43640  13
  -1   0   7 86.5634 7.40926   5
   0   0   7 105.314 7.52880   5
   0   0  -7 115.664 7.54408  15
   0   0   7 116.496 7.94990  13
   1   0   7 23.2538 3.67003   5
  -1   0  -7 16.4109 3.59149  15
  -4  -1   7 14.0991 4.33533  13
   4  -1  -7 21.5794 3.42947   4
   4   1  -7 21.0079 3.94019   4
  -3  -1   7 260.599 12.9802  13
   3  -1  -7 262.937 11.7779   4
   3   1  -7 265.489 12.1050   4
  -3   1   7 247.664 12.8353  13
   2  -1  -7 257.374 12.2413  15
  -2  -1   7 269.450 13.1720  13
  -2  -1   7 248.808 12.8996   5
  -2   1   7 272.821 13.1182  13
   2   1  -7 276.565 12.6164   4
  -1  -1   7 494.968 19.9553   5
   1  -1  -7 481.819 20.3359  24
   1  -1  -7 483.076 19.4977  15
  -1  -1   7 496.540 20.6887  13
  -1   1   7 484.782 20.4641  13
   1   1  -7 491.349 19.4545  15
  -1   1   7 466.134 19.6749   5
   0  -1   7 21.5625 4.49983  12
   0  -1  -7 26.3342 4.01988  15
   0  -1   7 20.9191 4.53745  13
   0  -1   7 9.71278 3.98638   5
   0   1   7 18.0760 4.29507  13
   0   1  -7 16.5653 3.92740  15
   0   1   7 16.8604 4.09756   5
   1  -1   7 6.21360 3.52223  12
  -1  -1  -7 4.14207 3.48288   7
   1  -1   7 6.27865 3.50360   5
  -1  -1  -7 6.58878 3.22036  15
  -1   1  -7 9.06980 3.30771  15
   1   1   7 9.11152 3.43628  13
   1   1   7 12.0009 3.49001   5
  -3  -2   7 839.529 31.6024   5
  -3  -2   7 814.626 32.7366  13
   3   2  -7 832.528 31.6335   4
  -3   2   7 850.204 32.6456  13
  -2  -2   7 94.3719 7.71829   5
  -2  -2   7 91.5973 7.83762  13
   2  -2  -7 78.0527 6.85083  15
   2   2  -7 88.4373 7.16091   4
  -2   2   7 84.6212 7.43228  13
   1  -2  -7 3.96892 3.91835  15
  -1  -2   7 6.61129 4.77924  13
  -1  -2   7 6.82593 4.00216  12
  -1  -2   7 4.99351 4.13366   5
  -1  -2   7 5.86101 4.02897   4
  -1   2   7 6.12850 4.36749  13
   0  -2   7 39.0753 4.80634  12
   0  -2   7 27.4667 4.60169   4
   0  -2   7 35.1426 4.62600   5
   0  -2  -7 39.7304 4.46367  15
   0   2   7 31.7156 4.48553   5
   0   2   7 40.5359 5.06907  13
   0   2  -7 35.7786 4.39498  15
   1  -2   7 17.7444 3.52524   5
  -1  -2  -7 13.6260 3.29386  15
   1  -2   7 20.4419 3.55641  12
  -1  -2  -7 17.7978 3.38618   7
  -1   2  -7 21.8684 3.57112  15
   1   2   7 15.6300 3.24826   5
   1   2   7 14.1459 3.51050  13
  -3  -3   7 12.5251 4.17480  13
  -3  -3   7 13.7875 4.15953   5
   3   3  -7 12.8164 3.67055   4
   2  -3  -7 417.467 17.0274  15
  -2  -3   7 439.947 18.3242  13
  -2  -3   7 424.540 17.7297   5
  -2  -3   7 399.118 17.0506  12
  -2   3   7 409.926 17.8598  13
  -1  -3   7 -0.0537 4.34743  13
  -1  -3   7 0.82804 3.92788  12
  -1  -3   7 3.54516 3.85931   5
  -1  -3   7 -1.0254 3.66982   4
   1  -3  -7 1.76181 3.62519  15
  -1   3   7 4.01601 4.12249  13
   0  -3   7 7.44676 3.49868  12
   0  -3   7 7.64080 3.92015   4
   0  -3   7 9.81046 3.85334   5
   0  -3  -7 4.66280 3.71370  15
   0  -3  -7 3.52332 3.43237   7
   0   3   7 9.87812 3.45803  13
   0   3  -7 3.74960 3.50352  15
   1  -3   7 40.8940 4.93868  12
  -1  -3  -7 33.6026 3.67126   7
  -1  -3  -7 42.4648 4.48944  15
   1  -3   7 41.7345 5.03710   5
  -1   3  -7 46.0209 4.56225  15
   1   3   7 38.2733 4.30856   5
   1   3   7 41.9937 4.78325  13
  -3  -4   7 161.004 8.41273   5
  -3  -4   7 159.236 8.72579  13
  -3  -4   7 155.149 8.05148  12
   3   4  -7 155.446 8.18072   4
  -2  -4   7 54.9147 6.63313   5
  -2  -4   7 58.9243 6.05259  12
   2  -4  -7 56.5576 5.68312  15
  -2  -4   7 57.1519 6.65598  13
  -2   4   7 60.1777 6.53191  13
   1  -4  -7 87.8861 6.31248  15
  -1  -4   7 89.8139 6.68269  12
  -1  -4   7 92.3284 6.66309   4
  -1  -4   7 97.5423 7.26229   5
  -1   4   7 93.4022 6.99288  13
   0  -4   7 4.95549 3.37896   5
   0  -4   7 1.67559 3.45343   4
   0  -4  -7 2.37624 3.05178  15
   0  -4   7 7.87268 3.27013  12
   0  -4  -7 10.0603 3.03476   7
   0   4  -7 1.00200 3.08528  15
   0   4   7 6.04204 3.14359  13
  -2  -5   7 49.4892 5.10946  12
  -2  -5   7 51.8385 5.42628   5
   2  -5  -7 50.4314 4.78820  15
   2   5  -7 43.5927 5.18948   4
  -1  -5   7 10.9517 3.24103  12
  -1  -5   7 13.9304 3.09684   4
   1  -5  -7 17.2041 3.33832  15
  -1  -5   7 22.5622 3.88054   5
  -1   5   7 20.2902 3.75388  13
  -3   0   8 0.97058 3.81208  13
  -2   0   8 9.66644 3.93926  13
   1   0  -8 11.1947 3.08890  15
  -1   0   8 17.6697 3.80020  13
  -1   0   8 13.9638 3.48649   5
   0   0  -8 10.1152 3.00603  15
   0   0   8 5.86859 2.91103   5
  -3  -1   8 24.7403 4.02678  13
  -3   1   8 1.84250 3.91585  13
   3   1  -8 14.2241 3.03611   4
  -2  -1   8 50.0871 5.59653  13
  -2   1   8 34.7303 4.47885  13
  -1  -1   8 0.78887 3.61504  13
   1  -1  -8 -0.2088 3.40877  15
  -1  -1   8 1.87913 3.33147   5
   1   1  -8 0.81408 3.00058  15
  -1   1   8 2.10644 3.36932  13
   0  -1  -8 20.2184 3.10279  15
   0  -1   8 16.9244 3.36269   5
   0   1   8 5.66258 3.17173   5
   0   1  -8 12.1741 3.01472  15
  -2  -2   8 5.16002 3.62518   5
  -2  -2   8 2.93761 3.39298  13
   2  -2  -8 1.80822 3.13221  15
  -2   2   8 4.35026 3.61774  13
   2   2  -8 7.34183 2.91583   4
  -1  -2   8 12.4184 3.49088  13
   1  -2  -8 24.5289 3.27580  15
  -1  -2   8 24.9129 3.51690   5
   1   2  -8 1.73807 3.27817   4
  -1   2   8 26.3579 3.64466  13
   0   0   0    0.00    0.00   0
;
_shelx_res_checksum              89742
_shelx_res_file
;
TITL smpip in P2(1)
CELL 1.54178 5.2090 8.4798 7.2037 90.000 105.254 90.000
ZERR 2.00 0.0004 0.0006 0.0005 0.000 0.005 0.000
LATT -1
SYMM -x, y+1/2, -z
SFAC C H N
UNIT   10.00   24.00    4.00
OMIT    -4   0   1      !   119.80        280.47       6.47
OMIT     0   0   1      !   782.14       1624.69       6.02
TEMP -163
SIZE .12 .11 .04
ACTA
L.S. 12
FMAP 2
PLAN 5
HTAB
BOND $H
CONF
WGHT    0.100000
EXTI    0.117573
FVAR       3.22621
N1    3   -0.104794   -0.644406   -0.478772    11.00000    0.01737    0.01915 =
         0.02733   -0.00060    0.00639   -0.00267
H1    2    0.043011   -0.591164   -0.472173    11.00000   -1.50000
N4    3   -0.394854   -0.929444   -0.517610    11.00000    0.01878    0.01809 =
         0.03558    0.00111    0.00741   -0.00155
H4    2   -0.549248   -0.980356   -0.516536    11.00000   -1.50000
C2    1   -0.054252   -0.757286   -0.319159    11.00000    0.01874    0.02259 =
         0.02624    0.00125    0.00798    0.00250
AFIX  13
H2B   2    0.087977   -0.832366   -0.332275    11.00000   -1.20000
AFIX   0
C3    1   -0.309844   -0.849209   -0.331417    11.00000    0.02026    0.02185 =
         0.02981    0.00444    0.00852    0.00137
AFIX  23
H3A   2   -0.279151   -0.927815   -0.226248    11.00000   -1.20000
H3B   2   -0.451206   -0.776153   -0.316288    11.00000   -1.20000
AFIX   0
C5    1   -0.444354   -0.815155   -0.675450    11.00000    0.01948    0.02169 =
         0.02983   -0.00029    0.00397    0.00080
AFIX  23
H5A   2   -0.587714   -0.741704   -0.665191    11.00000   -1.20000
H5B   2   -0.501681   -0.870701   -0.800427    11.00000   -1.20000
AFIX   0
C6    1   -0.190960   -0.724296   -0.664386    11.00000    0.02312    0.02335 =
         0.02538    0.00081    0.00815    0.00015
AFIX  23
H6A   2   -0.050134   -0.797500   -0.680131    11.00000   -1.20000
H6B   2   -0.222215   -0.645666   -0.769551    11.00000   -1.20000
AFIX   0
C7    1    0.039375   -0.669515   -0.130238    11.00000    0.03006    0.03626 =
         0.02674   -0.00190    0.00356   -0.00126
AFIX 137
H7B   2    0.202429   -0.611168   -0.128383    11.00000   -1.50000
H7C   2    0.075300   -0.745057   -0.023547    11.00000   -1.50000
H7D   2   -0.099034   -0.595536   -0.116566    11.00000   -1.50000
AFIX   0
HKLF 4 1 1 0 0 0 1 0 0 0 1
REM  smpip in P2(1)
REM R1 =  0.0383 for     902 Fo > 4sig(Fo)  and  0.0407 for all     965 data
REM     72 parameters refined using      1 restraints
END
WGHT      0.0514      0.0378
REM Instructions for potential hydrogen bonds
EQIV $1 -x, y+1/2, -z-1
HTAB N1 N4_$1
EQIV $2 -x-1, y-1/2, -z-1
HTAB N4 N1_$2
REM Highest difference peak  0.176,  deepest hole -0.212,  1-sigma level  0.054
Q1    1  -0.5995 -0.7259 -0.3173  11.00000  0.05    0.16
Q2    1  -0.3557 -0.8129 -0.3214  11.00000  0.05    0.16
Q3    1   0.0933 -0.8405 -0.6773  11.00000  0.05    0.16
Q4    1  -0.6844 -0.6672 -0.5167  11.00000  0.05    0.15
Q5    1  -0.2555 -0.6572 -0.8666  11.00000  0.05    0.14
;
_shelxl_version_number           .002012
#END Tags that were not found in dictionaries
loop_
_space_group_symop_operation_xyz
'x, y, z'
'-x, y+1/2, -z'
loop_
_atom_site_type_symbol
_atom_site_label
_atom_site_fract_x
_atom_site_fract_y
_atom_site_fract_z
_atom_site_U_iso_or_equiv
_atom_site_adp_type
_atom_site_calc_flag
_atom_site_occupancy
N N1 -0.1048(4) -0.64441(18) -0.4788(2) 0.0212(6) Uani d 1
H H1 0.043(6) -0.591(4) -0.472(4) 0.032 Uiso d 1
N N4 -0.3949(4) -0.92944(19) -0.5176(2) 0.0241(6) Uani d 1
H H4 -0.549(6) -0.980(4) -0.517(4) 0.036 Uiso d 1
C C2 -0.0543(4) -0.7573(3) -0.3192(3) 0.0221(7) Uani d 1
H H2B 0.0880 -0.8324 -0.3323 0.027 Uiso calc 1
C C3 -0.3098(4) -0.8492(2) -0.3314(3) 0.0236(7) Uani d 1
H H3A -0.2792 -0.9278 -0.2262 0.028 Uiso calc 1
H H3B -0.4512 -0.7762 -0.3163 0.028 Uiso calc 1
C C5 -0.4444(4) -0.8152(3) -0.6755(3) 0.0241(7) Uani d 1
H H5A -0.5877 -0.7417 -0.6652 0.029 Uiso calc 1
H H5B -0.5017 -0.8707 -0.8004 0.029 Uiso calc 1
C C6 -0.1910(4) -0.7243(3) -0.6644(3) 0.0236(7) Uani d 1
H H6A -0.0501 -0.7975 -0.6801 0.028 Uiso calc 1
H H6B -0.2222 -0.6457 -0.7696 0.028 Uiso calc 1
C C7 0.0394(4) -0.6695(3) -0.1302(3) 0.0318(6) Uani d 1
H H7B 0.2024 -0.6112 -0.1284 0.048 Uiso calc 1
H H7C 0.0753 -0.7451 -0.0235 0.048 Uiso calc 1
H H7D -0.0990 -0.5955 -0.1166 0.048 Uiso calc 1
loop_
_atom_site_aniso_label
_atom_site_aniso_U_11
_atom_site_aniso_U_22
_atom_site_aniso_U_33
_atom_site_aniso_U_12
_atom_site_aniso_U_13
_atom_site_aniso_U_23
N1 0.0174(10) 0.0192(12) 0.0273(11) -0.0027(7) 0.0064(7) -0.0006(8)
N4 0.0188(10) 0.0181(12) 0.0356(11) -0.0015(7) 0.0074(7) 0.0011(8)
C2 0.0187(11) 0.0226(14) 0.0262(13) 0.0025(8) 0.0080(9) 0.0013(9)
C3 0.0203(11) 0.0218(15) 0.0298(12) 0.0014(9) 0.0085(9) 0.0044(9)
C5 0.0195(11) 0.0217(14) 0.0298(12) 0.0008(8) 0.0040(9) -0.0003(9)
C6 0.0231(11) 0.0233(14) 0.0254(12) 0.0001(9) 0.0081(9) 0.0008(9)
C7 0.0301(11) 0.0363(13) 0.0267(11) -0.0013(10) 0.0036(8) -0.0019(10)
loop_
_atom_type_symbol
_atom_type_description
_atom_type_scat_dispersion_real
_atom_type_scat_dispersion_imag
_atom_type_scat_source
C C 0.0181 0.0091 'International Tables Vol C Tables 4.2.6.8 and 6.1.1.4'
H H 0.0000 0.0000 'International Tables Vol C Tables 4.2.6.8 and 6.1.1.4'
N N 0.0311 0.0180 'International Tables Vol C Tables 4.2.6.8 and 6.1.1.4'
loop_
_geom_angle_atom_site_label_1
_geom_angle_atom_site_label_2
_geom_angle_atom_site_label_3
_geom_angle
C6 N1 C2 111.34(16)
C6 N1 H1 109.9(18)
C2 N1 H1 108.5(18)
C5 N4 C3 110.65(16)
C5 N4 H4 110.1(17)
C3 N4 H4 105.4(17)
N1 C2 C7 109.44(18)
N1 C2 C3 108.33(16)
C7 C2 C3 111.90(15)
N1 C2 H2B 109.0
C7 C2 H2B 109.0
C3 C2 H2B 109.0
N4 C3 C2 109.84(15)
N4 C3 H3A 109.7
C2 C3 H3A 109.7
N4 C3 H3B 109.7
C2 C3 H3B 109.7
H3A C3 H3B 108.2
N4 C5 C6 108.86(18)
N4 C5 H5A 109.9
C6 C5 H5A 109.9
N4 C5 H5B 109.9
C6 C5 H5B 109.9
H5A C5 H5B 108.3
N1 C6 C5 109.78(16)
N1 C6 H6A 109.7
C5 C6 H6A 109.7
N1 C6 H6B 109.7
C5 C6 H6B 109.7
H6A C6 H6B 108.2
C2 C7 H7B 109.5
C2 C7 H7C 109.5
H7B C7 H7C 109.5
C2 C7 H7D 109.5
H7B C7 H7D 109.5
H7C C7 H7D 109.5
loop_
_geom_bond_atom_site_label_1
_geom_bond_atom_site_label_2
_geom_bond_distance
N1 C6 1.460(3)
N1 C2 1.466(3)
N1 H1 0.88(3)
N4 C5 1.464(3)
N4 C3 1.465(3)
N4 H4 0.91(3)
C2 C7 1.515(3)
C2 C3 1.525(3)
C2 H2B 1.0000
C3 H3A 0.9900
C3 H3B 0.9900
C5 C6 1.512(3)
C5 H5A 0.9900
C5 H5B 0.9900
C6 H6A 0.9900
C6 H6B 0.9900
C7 H7B 0.9800
C7 H7C 0.9800
C7 H7D 0.9800
loop_
_geom_torsion_atom_site_label_1
_geom_torsion_atom_site_label_2
_geom_torsion_atom_site_label_3
_geom_torsion_atom_site_label_4
_geom_torsion
C6 N1 C2 C7 178.94(15)
C6 N1 C2 C3 -58.81(19)
C5 N4 C3 C2 -60.0(2)
N1 C2 C3 N4 58.2(2)
C7 C2 C3 N4 178.95(17)
C3 N4 C5 C6 59.6(2)
C2 N1 C6 C5 59.8(2)
N4 C5 C6 N1 -58.7(2)
