#------------------------------------------------------------------------------
#$Date: 2016-02-20 02:53:41 +0200 (Sat, 20 Feb 2016) $
#$Revision: 176768 $
#$URL: svn://www.crystallography.net/cod/cif/2/10/54/2105467.cif $
#------------------------------------------------------------------------------
#
# This file is available in the Crystallography Open Database (COD),
# http://www.crystallography.net/. The original data for this entry
# were provided by IUCr Journals, http://journals.iucr.org/.
#
# The file may be used within the scientific community so long as
# proper attribution is given to the journal article from which the
# data were obtained.
#
data_2105467
loop_
_publ_author_name
'Reibenspies, Joseph'
'Bhuvanesh, Nattamai'
_publ_section_title
;
 Absolute structure of <i>R</i>-({-})-2-methylpiperazine and
 <i>S</i>-(+)-2-methylpiperazine
;
_journal_coeditor_code           RY5050
_journal_issue                   3
_journal_name_full               'Acta Crystallographica Section B'
_journal_page_first              288
_journal_page_last               293
_journal_paper_doi               10.1107/S2052519213008713
_journal_volume                  69
_journal_year                    2013
_chemical_formula_sum            'C5 H14.71 Br2 N2 O0.36'
_chemical_formula_weight         268.40
_chemical_name_systematic
;
R-(-)-2-methylpiperazinediium dibromide
;
_space_group_crystal_system      monoclinic
_space_group_IT_number           4
_space_group_name_Hall           'P 2yb'
_space_group_name_H-M_alt        'P 1 21 1'
_symmetry_space_group_name_Hall  'P 2yb'
_symmetry_space_group_name_H-M   'P 1 21 1'
_atom_sites_solution_hydrogens   mixed
_audit_creation_method           SHELXL-2012
_cell_angle_alpha                90
_cell_angle_beta                 106.911(2)
_cell_angle_gamma                90
_cell_formula_units_Z            2
_cell_length_a                   6.0418(3)
_cell_length_b                   11.5649(5)
_cell_length_c                   7.1333(3)
_cell_measurement_reflns_used    8198
_cell_measurement_temperature    110(2)
_cell_measurement_theta_max      63.87
_cell_measurement_theta_min      7.54
_cell_volume                     476.87(4)
_computing_cell_refinement       'FRAMBO (Bruker, 2002)'
_computing_data_collection       'FRAMBO (Bruker, 2002)'
_computing_data_reduction        'SAINT (Bruker, 2012b)'
_computing_molecular_graphics    'OLEX-2 (Dolomanov, 2009)'
_computing_publication_material  'Ciftab (Sheldrick, 2008)'
_computing_structure_refinement  'SHELXL-2012 (Sheldrick, 2012)'
_computing_structure_solution    'SHELXS (Sheldrick 2008)'
_diffrn_ambient_temperature      110(2)
_diffrn_measured_fraction_theta_full 0.908
_diffrn_measured_fraction_theta_max 0.988
_diffrn_measurement_device_type  'MWPC area detector'
_diffrn_measurement_method       'phi and omega scans'
_diffrn_radiation_type           CuK\a
_diffrn_radiation_wavelength     1.54178
_diffrn_reflns_av_R_equivalents  0.0335
_diffrn_reflns_limit_h_max       6
_diffrn_reflns_limit_h_min       -6
_diffrn_reflns_limit_k_max       13
_diffrn_reflns_limit_k_min       -13
_diffrn_reflns_limit_l_max       8
_diffrn_reflns_limit_l_min       -8
_diffrn_reflns_number            10680
_diffrn_reflns_theta_full        67.679
_diffrn_reflns_theta_max         63.887
_diffrn_reflns_theta_min         6.486
_exptl_absorpt_coefficient_mu    10.281
_exptl_absorpt_correction_T_max  0.4636
_exptl_absorpt_correction_T_min  0.2435
_exptl_absorpt_correction_type   multi-scan
_exptl_absorpt_process_details
;
SADABS-2009/1 (Bruker,2009) was employed for absorption correction.
wR2(int) was   0.1305 before and   0.0486 after correction.
The ratio of minimum to maximum transmission factors was   0.5252.
Additional spherical absorption correction applied with mu*r =  0.6000.
The \l/2 correction factor of 0.0015 was applied.
;
_exptl_crystal_colour            'colorless '
_exptl_crystal_density_diffrn    1.869
_exptl_crystal_description       'plate     '
_exptl_crystal_F_000             263
_exptl_crystal_size_max          0.210
_exptl_crystal_size_mid          0.110
_exptl_crystal_size_min          0.040
_refine_diff_density_max         0.513
_refine_diff_density_min         -0.644
_refine_ls_abs_structure_details
;
 Flack x determined using 697 quotients [(I+)-(I-)]/[(I+)+(I-)]
 (Parsons and Flack (2004), Acta Cryst. A60, s61).
;
_refine_ls_abs_structure_Flack   0.041(13)
_refine_ls_extinction_coef       0.0158(10)
_refine_ls_extinction_expression Fc^*^=kFc[1+0.001xFc^2^\l^3^/sin(2\q)]^-1/4^
_refine_ls_extinction_method     SHELXL
_refine_ls_goodness_of_fit_ref   1.029
_refine_ls_hydrogen_treatment    constr
_refine_ls_matrix_type           full
_refine_ls_number_parameters     96
_refine_ls_number_reflns         1537
_refine_ls_number_restraints     1
_refine_ls_restrained_S_all      1.028
_refine_ls_R_factor_all          0.0199
_refine_ls_R_factor_gt           0.0196
_refine_ls_shift/su_max          0.000
_refine_ls_shift/su_mean         0.000
_refine_ls_structure_factor_coef Fsqd
_refine_ls_weighting_details
;
 w=1/[\s^2^(Fo^2^)+(0.0500P)^2^+0.0247P]
 where P=(Fo^2^+2Fc^2^)/3
;
_refine_ls_weighting_scheme      calc
_refine_ls_wR_factor_gt          0.0594
_refine_ls_wR_factor_ref         0.0597
_reflns_number_gt                1517
_reflns_number_total             1537
_reflns_threshold_expression     'I > 2\s(I)'
_cod_data_source_file            ry5050.cif
_cod_data_source_block           rmpipbr
_cod_database_code               2105467
_cod_database_fobs_code          2105467
#BEGIN Tags that were not found in dictionaries:
_shelx_space_group_comment
;
The symmetry employed for this shelxl refinement is uniquely defined
by the following loop, which should always be used as a source of
symmetry information in preference to the above space-group names.
They are only intended as comments.
;
_shelx_estimated_absorpt_t_min   0.221
_shelx_estimated_absorpt_t_max   0.684
_shelx_hkl_checksum              29333
_shelx_hkl_file
;
   1   0   0 48.9767 5.77451   3
   1   0   0 46.3831 5.15457  10
   1   0   0 50.6853 4.77326  11
   1   0   0 45.4957 5.27175  13
  -1   0   0 60.2495 7.51523  21
  -1   0   0 43.9055 5.09278  19
  -1   0   0 43.4646 5.19621  20
  -1   0   0 43.8413 5.30277  18
  -1   0   0 44.2554 4.07596   2
  -1   0   0 71.5205 12.5278   1
  -2   0   0 2443.18 116.525  21
   2   0   0 2271.83 100.927  20
   2   0   0 2078.33 110.739  10
  -2   0   0 2290.04 103.200  18
   2   0   0 2273.58 116.725  11
  -2   0   0 2251.51 88.9128  15
  -2   0   0 2224.77 123.913   1
  -2   0   0 2240.56 92.8296   2
   2   0   0 2223.18 101.463  19
   2   0   0 2333.54 108.398   3
   2   0   0 2401.26 117.589  11
  -3   0   0 22.4820 11.2809  18
   3   0   0 23.1386 2.90908  26
   3   0   0 20.9618 11.8872   3
   3   0   0 26.0213 2.99317   8
  -3   0   0 20.5001 26.5977   1
   3   0   0 31.7806 11.3618  20
  -3   0   0 34.0092 16.1856  21
   3   0   0 36.6186 11.7368  11
   3   0   0 19.1454 8.29154  10
  -4   0   0 85.4950 7.55980  24
   4   0   0 72.6207 18.5366  10
   4   0   0 84.0280 19.8020  11
   4   0   0 64.9899 8.57359  14
   4   0   0 80.5646 20.1720  20
   4   0   0 65.7524 6.13708  26
  -4   0   0 94.7073 13.1209   4
  -4   0   0 70.3580 7.27081   7
  -4   0   0 66.1810 8.12718  25
  -4   0   0 61.3613 27.7636  21
   4   0   0 68.5403 6.27450   8
  -4   0   0 90.6354 43.1548   1
   5   0   0 4569.67 184.435  14
   5   0   0 4857.61 173.170  26
  -5   0   0 4943.99 166.161   7
  -5   0   0 4756.24 160.125  24
   5   0   0 4882.10 173.652   8
  -5   0   0 4843.94 166.366  25
  -5   0   0 4361.53 183.943   4
  -6   0   0 602.068 26.0123  24
  -6   0   0 617.489 29.1849  25
  -6   0   0 635.150 28.0008   7
   0  -1   0 -4.5916 2.69498  13
   0  -1   0 -4.8188 2.86814  19
   0  -1   0 -2.9625 2.87890  11
   0  -1   0 -4.0752 2.98126  18
   0  -1   0 -4.2153 3.00729  10
   0  -1   0 -3.9287 2.59926  10
   0  -1   0 -3.6218 3.31680  13
   0  -1   0 -3.1701 2.55574   1
   0   1   0 -3.9992 2.58535  10
   0   1   0 -4.7956 2.95175  11
   0   1   0 -4.4027 2.74381  11
   0   1   0 -5.4725 2.99485  13
   0   1   0 -2.1951 2.57617  21
   0   1   0 -4.6469 2.51084  12
   0   1   0 -3.9258 2.74287  13
   0   1   0 -4.9804 3.06435  12
   0   1   0 -4.9607 2.47231   3
   0   1   0 4.25382 2.75892  20
  -1  -1   0 1067.76 52.2522  13
  -1  -1   0 1033.36 55.9755  21
  -1  -1   0 953.160 54.2626  13
   1  -1   0 1058.28 51.9260  10
   1  -1   0 1073.11 54.6157  11
   1  -1   0 1046.66 45.2050   2
   1  -1   0 1050.89 52.3534  10
   1  -1   0 1028.53 55.7246  11
  -1  -1   0 977.927 55.3975  10
  -1  -1   0 1033.33 56.3279  11
  -1  -1   0 992.061 56.6125  12
  -1  -1   0 999.047 59.6583  12
  -1  -1   0 1005.63 52.1834  18
  -1  -1   0 980.975 45.4282   2
   1  -1   0 983.738 49.9099  19
   1   1   0 1146.08 49.0815  20
  -1   1   0 1141.62 53.3562   3
   1   1   0 1193.58 54.0053  10
  -1   1   0 1126.54 48.3027  20
  -1   1   0 1118.79 55.1199  21
   1   1   0 1249.87 57.8908  11
   1   1   0 1101.37 55.8486  10
   1   1   0 1103.99 55.1076  13
  -1   1   0 1115.17 57.4603   1
   1   1   0 1158.44 51.1427   3
  -1   1   0 1162.94 48.7184  18
   1   1   0 1066.93 57.4623  12
   1   1   0 1091.32 59.1340  11
  -2  -1   0 4244.09 172.625  15
  -2  -1   0 4593.29 198.716  18
   2  -1   0 4435.70 222.730  11
   2  -1   0 4199.54 194.981  19
  -2  -1   0 4519.62 178.412   2
   2  -1   0 4473.57 178.953   2
   2  -1   0 4453.06 210.443  10
   2  -1   0 4629.74 222.001  11
  -2  -1   0 4599.46 225.991   1
   2  -1   0 4389.61 206.252   3
   2  -1   0 4571.61 210.009  10
  -2  -1   0 4133.43 156.982   9
  -2   1   0 4618.07 155.287   9
  -2   1   0 4754.04 218.202  21
  -2   1   0 4141.14 194.362  18
  -2   1   0 4636.04 191.478  20
   2   1   0 4665.55 204.281   3
   2   1   0 4720.90 191.991  20
  -2   1   0 4095.78 221.716   1
   2   1   0 4132.54 214.191  10
   2   1   0 4457.85 226.557  11
   2   1   0 4253.68 225.083  11
   2   1   0 4506.12 168.878  14
   2   1   0 4444.19 158.376   8
   2   1   0 4458.04 157.974  26
  -2   1   0 4577.06 171.546  15
   2   1   0 3802.22 211.694  10
   3  -1   0 1859.26 93.6951  10
  -3  -1   0 1846.59 105.411  21
  -3  -1   0 1986.86 118.960   1
  -3  -1   0 1894.34 70.3458   9
   3  -1   0 1922.38 89.5767  20
   3  -1   0 2060.32 100.115  11
  -3  -1   0 1995.92 75.6140  15
  -3  -1   0 1752.38 91.7114  18
   3  -1   0 2026.16 97.9673   3
   3   1   0 1967.34 91.1129  20
   3   1   0 1848.03 69.3130   8
   3   1   0 1843.86 69.1245  26
   3   1   0 1817.54 97.0210  10
  -3   1   0 1536.90 112.022   1
   3   1   0 2037.10 106.052  11
  -3   1   0 1868.04 104.458  21
   3   1   0 1847.89 75.1377  14
  -4  -1   0 460.384 22.1015  25
  -4  -1   0 437.549 49.7526  21
  -4  -1   0 462.943 27.9715   4
  -4  -1   0 441.800 64.3263   1
  -4  -1   0 459.244 21.4095   7
   4  -1   0 472.045 36.0669  11
   4  -1   0 471.794 20.1150   8
   4  -1   0 438.802 38.3096  20
   4  -1   0 459.015 19.9944  26
   4  -1   0 464.425 35.1816  10
  -4  -1   0 451.864 20.2929  24
  -4   1   0 410.209 26.6893   4
  -4   1   0 543.829 21.6307   7
  -4   1   0 515.840 62.9921   1
   4   1   0 511.789 25.1901  14
   4   1   0 511.118 21.1148   8
   4   1   0 490.585 41.9816  20
   4   1   0 525.576 42.5319  10
  -4   1   0 519.935 20.4901  24
  -4   1   0 529.732 52.4787  21
   4   1   0 507.762 21.0371  26
  -4   1   0 517.777 22.2203  25
   4   1   0 479.815 42.2417  11
  -5  -1   0 609.589 26.9286   7
   5  -1   0 565.152 28.7720  14
  -5  -1   0 603.045 27.7801  25
  -5  -1   0 608.340 34.7807   4
   5  -1   0 582.224 26.0565  26
   5  -1   0 565.247 25.9489   8
  -5  -1   0 568.954 25.0458  24
  -5   1   0 595.872 27.7538  25
  -5   1   0 623.116 26.7125   7
   5   1   0 615.856 27.6897  26
  -5   1   0 570.644 24.8158  24
   5   1   0 580.050 31.5713  14
   5   1   0 599.357 27.6917   8
  -6  -1   0 412.303 22.8406  25
  -6  -1   0 445.133 28.8298   4
  -6  -1   0 431.599 20.6359  24
  -6  -1   0 455.141 22.5794   7
  -6   1   0 453.004 21.9633   7
  -6   1   0 452.602 23.6086  25
  -6   1   0 440.701 20.1523  24
   0  -2   0 3447.42 158.807  19
   0  -2   0 3801.58 149.719   2
   0  -2   0 3628.20 189.413  12
   0  -2   0 3580.75 176.404  10
   0  -2   0 3833.71 173.669  13
   0  -2   0 3700.49 172.887   1
   0  -2   0 3664.63 185.611  11
   0  -2   0 3841.32 188.261  11
   0  -2   0 3405.06 162.346  18
   0   2   0 3929.58 156.645  20
   0   2   0 3572.23 173.448  13
   0   2   0 3554.61 188.196  12
   0   2   0 3367.21 186.085  11
   0   2   0 3499.21 186.314  12
   0   2   0 3448.38 175.684  21
   0   2   0 3671.64 173.726  13
   0   2   0 3868.08 167.915   3
   0   2   0 3524.24 175.722  10
   1  -2   0 2446.74 99.8195   2
  -1  -2   0 2445.34 125.733  11
  -1  -2   0 2336.92 102.199   2
   1  -2   0 2574.34 116.045  10
  -1  -2   0 2413.13 118.839  13
   1  -2   0 2406.72 114.329  13
   1  -2   0 2414.67 125.648  11
  -1  -2   0 2198.56 125.836  12
   1  -2   0 2459.64 109.063  19
  -1  -2   0 2590.18 116.725  13
  -1  -2   0 2284.42 113.482  18
  -1  -2   0 2489.65 123.355   1
  -1  -2   0 2372.47 120.703  10
  -1  -2   0 2497.21 105.468  19
  -1  -2   0 2551.34 130.290  12
   1  -2   0 2424.92 106.853  18
   1  -2   0 2289.34 121.488  11
   1   2   0 2501.25 93.9626  14
   1   2   0 2247.35 125.612  11
   1   2   0 2446.01 128.008  11
   1   2   0 2562.13 119.576  10
  -1   2   0 2322.73 115.268   1
   1   2   0 2257.71 126.268  12
  -1   2   0 2206.60 117.449  21
   1   2   0 2443.89 121.194  10
   1   2   0 2332.71 110.969   3
  -1   2   0 2333.03 114.724   3
  -1   2   0 2456.24 104.860  20
   1   2   0 2325.80 106.461  20
   1   2   0 2458.74 119.162  13
   1   2   0 2368.23 120.142  21
  -2  -2   0 3169.53 189.215  12
   2  -2   0 3813.60 186.734  11
  -2  -2   0 3550.17 152.081   2
   2  -2   0 3707.58 177.574  10
   2  -2   0 3657.75 175.969   3
   2  -2   0 3586.85 188.609  11
   2  -2   0 3665.72 163.858  18
  -2  -2   0 3821.98 175.576  13
   2  -2   0 3466.97 167.718  19
  -2  -2   0 3608.28 172.184  18
  -2  -2   0 3795.62 133.544   9
   2  -2   0 3753.14 152.754   2
   2  -2   0 4027.82 177.768  10
  -2  -2   0 3725.47 146.161  15
  -2  -2   0 3733.85 192.289   1
  -2  -2   0 3896.01 186.631  21
  -2  -2   0 3137.17 176.599  13
  -2  -2   0 3829.20 193.531  12
  -2   2   0 3694.07 130.120   9
   2   2   0 3955.70 164.064  20
   2   2   0 4054.77 182.538  10
  -2   2   0 3871.00 184.339  21
  -2   2   0 3754.92 184.884   1
   2   2   0 3824.91 195.027  11
  -2   2   0 3690.82 144.467  15
   2   2   0 3565.51 171.083   3
  -2   2   0 3786.94 162.035  20
  -3  -2   0 1658.55 66.0174   9
  -3  -2   0 1672.22 90.3646  18
  -3  -2   0 1797.44 99.8878  21
  -3  -2   0 1799.80 111.708   1
   3  -2   0 1830.99 87.4085  10
   3  -2   0 1800.12 92.1322  11
   3  -2   0 1735.38 92.3974   3
  -3  -2   0 1736.67 70.7499  15
   3   2   0 1807.48 86.6386  20
   3   2   0 1753.85 64.5742  26
  -3   2   0 1466.49 99.6423   1
   3   2   0 1776.35 70.6484  14
   3   2   0 1731.15 93.9178  10
   3   2   0 1594.25 100.771  11
  -3   2   0 1745.07 97.3336  21
   3   2   0 1778.95 64.7883   8
  -3   2   0 1825.15 84.3379  20
   4  -2   0 2632.02 126.582  20
  -4  -2   0 2652.24 92.5218   7
  -4  -2   0 2645.80 103.628   4
   4  -2   0 2569.84 136.750   3
  -4  -2   0 2578.34 95.1081   9
  -4  -2   0 2786.95 164.692   1
  -4  -2   0 2600.31 92.4812  25
  -4  -2   0 2560.85 102.930  15
  -4  -2   0 2613.53 88.9173  24
   4  -2   0 2784.40 130.893  10
  -4   2   0 2524.78 91.4227   7
   4   2   0 2662.43 96.4604   8
   4   2   0 2619.93 141.253  10
   4   2   0 2613.54 96.1923  26
  -4   2   0 2376.14 146.362  21
   4   2   0 2529.55 129.417  20
   4   2   0 2519.75 148.675  21
  -4   2   0 2577.48 88.3201  24
  -4   2   0 2467.88 94.4260   6
  -4   2   0 2445.14 91.5740  25
   4   2   0 2518.30 103.812  14
  -5  -2   0 554.160 24.3518  24
   5  -2   0 524.134 26.3427  14
  -5  -2   0 548.362 25.4835   7
   5  -2   0 554.755 24.1151   8
  -5  -2   0 576.603 31.6826   4
   5  -2   0 538.707 23.9853  26
  -5   2   0 542.892 24.7849   7
   5   2   0 565.072 31.2428  14
   5   2   0 540.178 26.9090  26
   5   2   0 504.562 26.5906   8
  -5   2   0 516.964 23.1854  24
  -5   2   0 534.680 26.0590  25
  -6  -2   0 189.785 15.2804  25
  -6  -2   0 202.211 18.0342   4
  -6  -2   0 191.076 14.8621   7
  -6   2   0 191.133 14.1750   7
  -6   2   0 203.831 16.9215  25
  -6   2   0 185.852 12.2918  24
   0  -3   0 -7.2603 8.57585   2
   0  -3   0 -9.9299 3.06651  14
   0  -3   0 -6.7166 8.38272  10
   0  -3   0 -7.1971 11.2411  12
   0  -3   0 -6.4207 7.16634   1
   0  -3   0 -7.3929 7.84672  13
   0  -3   0 -10.351 8.75117  11
   0  -3   0 -11.031 9.44811  18
   0  -3   0 -5.1461 8.70368  19
   0   3   0 -12.511 8.68300  13
   0   3   0 -6.6972 7.03833  21
   0   3   0 -8.0526 6.70909  20
   0   3   0 -10.195 2.98336  17
   0   3   0 -9.9479 6.79970   3
   0   3   0 -7.9440 8.51202  11
   0   3   0 -8.2056 7.27682  12
   0   3   0 -6.4933 7.88125  10
   0   3   0 -9.7560 8.46447  13
   0   3   0 -11.286 8.49852  12
  -1  -3   0 5788.79 251.745  15
  -1  -3   0 6682.31 333.811  12
   1  -3   0 6321.66 306.920  10
  -1  -3   0 7348.01 265.634   2
   1  -3   0 7004.40 262.118   2
  -1  -3   0 6534.87 305.383  13
   1  -3   0 5967.82 302.463  13
   1  -3   0 5590.16 229.079  26
  -1  -3   0 5683.56 310.118  10
  -1  -3   0 6779.06 312.280   1
  -1  -3   0 6248.41 230.362  17
  -1  -3   0 6705.89 251.315  16
   1  -3   0 6627.90 329.017  11
   1  -3   0 6858.45 309.256  10
  -1  -3   0 6055.63 327.706  11
   1  -3   0 5544.29 229.650   8
   1  -3   0 6227.91 242.094  14
  -1  -3   0 7048.96 278.298  19
   1  -3   0 6129.29 322.918  11
   1  -3   0 7269.34 282.730  18
   1  -3   0 6905.92 282.014  19
   1  -3   0 6083.91 331.171  12
   1   3   0 6294.37 244.827  14
   1   3   0 6589.80 330.182  12
  -1   3   0 6098.32 323.643  12
  -1   3   0 5428.00 225.529   9
  -1   3   0 6486.22 299.644  13
   1   3   0 6575.87 312.244  21
   1   3   0 6393.35 230.980   8
   1   3   0 6853.42 307.378  13
   1   3   0 6362.00 329.682  11
  -1   3   0 6750.91 274.083  20
   1   3   0 7092.25 277.600  20
   1   3   0 6522.15 232.095  17
   1   3   0 6346.10 292.603   3
   1   3   0 6322.65 230.347  26
   1   3   0 6506.26 310.534  10
  -2  -3   0 767.981 43.2386   2
  -2  -3   0 731.520 50.4472  18
  -2  -3   0 789.400 33.5809   9
   2  -3   0 785.432 41.4049   2
  -2  -3   0 817.989 36.2226  15
  -2  -3   0 824.411 53.3956  12
  -2  -3   0 885.665 58.5509   1
  -2  -3   0 814.208 44.7486  13
   2  -3   0 784.474 41.1924  18
   2  -3   0 827.213 50.4209  19
   2  -3   0 860.368 44.5798  10
  -2   3   0 751.741 47.0607  21
  -2   3   0 851.933 49.4406   3
   2   3   0 806.041 31.6851   8
  -2   3   0 758.032 34.1621  15
  -2   3   0 748.924 44.2598   1
   2   3   0 794.613 31.6289  26
   2   3   0 854.816 45.4665  20
   2   3   0 804.718 54.6062  11
   2   3   0 781.690 50.3145  21
   2   3   0 796.318 49.5565  10
   2   3   0 784.390 34.8494  14
  -2   3   0 854.214 42.0329  20
   3  -3   0 371.995 43.3338  19
  -3  -3   0 310.583 18.0925   9
   3  -3   0 292.626 30.7096   3
   3  -3   0 313.405 22.6201  10
  -3  -3   0 246.322 35.3975  18
  -3  -3   0 210.606 37.8335   1
   3  -3   0 319.850 24.3782  11
  -3  -3   0 323.751 18.5838  15
   3   3   0 301.066 15.0243  26
  -3   3   0 288.172 25.0200  20
   3   3   0 292.874 36.3582  11
  -3   3   0 324.714 31.6684  21
   3   3   0 304.525 34.9623  21
   3   3   0 277.375 28.8206  20
   3   3   0 284.028 31.3731  10
   3   3   0 320.390 18.3091  14
   3   3   0 298.936 15.0353   8
  -4  -3   0 1789.62 69.9469   9
  -4  -3   0 1873.21 67.7481  25
   4  -3   0 2040.50 97.3753  10
   4  -3   0 1742.13 104.789   3
  -4  -3   0 1815.88 64.7227  24
  -4  -3   0 1742.24 75.0836   4
  -4  -3   0 1784.46 67.2240   7
  -4  -3   0 1813.06 75.4138  15
   4  -3   0 1806.94 67.7792  26
  -4  -3   0 1789.86 125.805   1
  -4   3   0 1817.79 66.5025  25
   4   3   0 1871.43 70.6494   8
  -4   3   0 1849.21 113.942  21
   4   3   0 1859.95 76.1376  14
  -4   3   0 1760.83 68.6594   6
  -4   3   0 1754.46 63.4728  24
   4   3   0 1759.55 100.510  20
   4   3   0 1811.47 116.383  21
   4   3   0 1870.57 70.5491  26
  -4   3   0 1787.61 66.0697   7
   5  -3   0 137.300 11.7509   8
  -5  -3   0 147.221 16.4877   4
  -5  -3   0 144.440 13.2668  25
  -5  -3   0 130.911 12.1596   7
  -5  -3   0 129.236 11.4160  24
   5  -3   0 131.274 11.5149  26
   5   3   0 139.726 13.7920   8
  -5   3   0 135.528 11.3663   7
  -5   3   0 138.458 12.7820   6
  -5   3   0 143.327 11.0395  24
  -5   3   0 130.488 12.7427  25
   5   3   0 148.594 16.3337  14
   5   3   0 138.516 13.5650  26
  -6  -3   0 1866.01 74.2780   4
  -6  -3   0 1809.21 67.5540  25
  -6  -3   0 1776.58 67.5677   7
  -6   3   0 1751.09 63.7118  24
  -6   3   0 1819.36 68.4090  25
   6   3   0 1867.74 64.7918  24
  -6   3   0 1745.02 66.5342   7
   0  -4   0 5265.94 221.046   2
   0  -4   0 5531.04 273.124  11
   0  -4   0 4983.28 190.354  26
   0  -4   0 4973.07 190.831   8
   0  -4   0 5212.38 254.382  13
   0  -4   0 5390.02 250.492   1
   0  -4   0 5281.22 234.411  19
   0  -4   0 5526.54 259.527  10
   0  -4   0 5298.52 208.857  16
   0  -4   0 5179.54 278.194  12
   0  -4   0 5451.44 201.143  14
   0  -4   0 5148.51 190.384  17
   0  -4   0 5624.81 240.757  18
   0   4   0 5430.83 257.929  21
   0   4   0 5376.57 254.090  13
   0   4   0 5517.45 245.316   3
   0   4   0 5199.24 229.200  20
   0   4   0 4957.60 187.501   9
   0   4   0 5339.68 258.309  10
   0   4   0 5259.58 189.742  17
   0   4   0 5566.33 272.773  12
   0   4   0 4951.23 272.789  11
   0   4   0 4887.96 207.654  15
   0   4   0 5168.26 205.406  16
   1  -4   0 1077.93 64.4875  19
  -1  -4   0 1184.46 68.1113  13
   1  -4   0 1309.17 69.8843  11
  -1  -4   0 1150.74 69.5623  10
   1  -4   0 1219.05 47.7627  14
  -1  -4   0 1188.91 76.7849  12
  -1  -4   0 1242.93 61.7171   2
  -1  -4   0 1245.94 70.4429   1
  -1  -4   0 1229.07 53.4513  15
   1  -4   0 1224.03 46.4433  26
  -1  -4   0 1244.94 61.7584  19
  -1  -4   0 1102.31 66.2134  18
  -1  -4   0 1193.95 48.5637   9
   1  -4   0 1262.08 60.3408   2
   1  -4   0 1265.75 63.0285  18
   1  -4   0 1405.73 70.1367  10
  -1  -4   0 1178.86 51.3580  16
  -1  -4   0 1136.43 74.2795  11
   1  -4   0 1183.51 46.4925   8
  -1   4   0 1054.02 66.7029  12
  -1   4   0 1287.94 51.9177  15
   1   4   0 1201.41 68.5299  21
   1   4   0 1282.11 47.7276  17
  -1   4   0 1249.94 45.5473   9
   1   4   0 1217.90 70.4906  10
   1   4   0 1181.98 46.7057  26
  -1   4   0 1135.68 61.3253  13
  -1   4   0 1191.60 65.0241  21
   1   4   0 1207.15 75.3859  11
   1   4   0 1228.63 73.4546  12
   1   4   0 1211.28 50.3930  14
  -1   4   0 1248.85 66.9051   3
  -1   4   0 1218.26 62.3679  13
  -1   4   0 1268.99 65.3008  12
  -1   4   0 1228.33 59.3694  20
   1   4   0 1159.98 61.3481  20
   1   4   0 1198.35 50.5139  16
   1   4   0 1281.95 69.8649  13
   1   4   0 1267.97 62.0167   3
   1   4   0 1174.51 46.8661   8
  -2  -4   0 1933.78 72.9861   9
  -2  -4   0 1957.03 109.341   1
   2  -4   0 1884.21 102.220  11
  -2  -4   0 1855.44 89.9744   2
  -2  -4   0 1842.88 98.1575  13
   2  -4   0 1872.95 88.3414   2
  -2  -4   0 2055.25 111.403  12
   2  -4   0 1818.49 70.3006  26
   2  -4   0 1853.84 70.5643   8
   2  -4   0 1889.28 100.545  19
   2  -4   0 1934.91 72.7150  14
  -2  -4   0 1923.98 79.6641  15
  -2  -4   0 1953.39 101.520  18
   2  -4   0 1866.93 98.6271  10
   2   4   0 1931.21 104.375  10
   2   4   0 1960.30 111.695  11
   2   4   0 1899.01 71.2729  26
  -2   4   0 1991.14 101.974   3
   2   4   0 1922.76 76.5557  14
   2   4   0 1875.50 72.5430  17
   2   4   0 1957.04 93.4618  20
   2   4   0 1934.24 71.5787   8
  -2   4   0 1846.30 100.354  21
  -2   4   0 1730.62 77.0515  15
  -2   4   0 1842.23 89.0001  20
   2   4   0 1765.38 77.4968  16
  -2   4   0 1827.18 67.7936   9
   2   4   0 1873.63 104.366  21
  -3  -4   0 1068.06 39.9794  24
  -3  -4   0 1128.18 49.6535  15
  -3  -4   0 1148.51 83.7386   1
  -3  -4   0 1079.22 41.4722  25
   3  -4   0 1057.68 43.0228  26
  -3  -4   0 927.507 46.0862  22
  -3  -4   0 1106.20 46.9697   4
   3  -4   0 1157.52 65.2014  11
  -3  -4   0 1153.17 46.1706   9
  -3  -4   0 958.365 72.7850  18
   3  -4   0 1084.98 69.4960   3
  -3  -4   0 1075.18 41.8706   7
   3  -4   0 1088.74 43.2414   8
   3  -4   0 1016.32 77.4951  19
   3  -4   0 1125.98 60.6241  10
  -3   4   0 1049.57 40.1771   7
  -3   4   0 967.556 68.1343  21
  -3   4   0 1087.55 59.6167  20
   3   4   0 996.711 71.8919  21
   3   4   0 1100.84 64.9424  20
   3   4   0 1061.04 43.7087   8
  -3   4   0 1206.24 43.3821   6
   3   4   0 1113.04 43.7550  26
  -3   4   0 1056.32 38.7730  24
   3   4   0 1102.06 77.7655  11
   3   4   0 1071.43 71.1316  10
   4  -4   0 1532.61 97.6734   3
  -4  -4   0 1624.08 60.9612   7
  -4  -4   0 1553.40 66.9638   4
   4  -4   0 1604.73 61.1207   8
  -4  -4   0 1658.20 63.6782   9
   4  -4   0 1568.25 60.8702  26
  -4  -4   0 1594.44 68.8945  15
  -4  -4   0 1622.91 60.6200  25
  -4  -4   0 1571.83 58.0338  24
  -4  -4   0 1577.83 121.095   1
  -4   4   0 1565.12 61.6913   6
   4   4   0 1655.09 64.0131   8
   4   4   0 1631.98 63.6667  26
  -4   4   0 1607.26 59.0124   7
   4   4   0 1685.12 68.7062  14
   4   4   0 1581.86 107.283  21
  -4   4   0 1505.51 59.2900  25
   4   4   0 1577.39 94.8414  20
  -4   4   0 1599.79 87.5391  20
  -4   4   0 1566.63 56.6120  24
  -5  -4   0 1591.67 64.7017   4
  -5  -4   0 1450.54 58.3274   7
   5  -4   0 1487.43 57.8084   8
  -5  -4   0 1531.67 58.5015  25
   5  -4   0 1457.82 61.0289  14
   5  -4   0 1512.77 57.7578  26
  -5   4   0 1435.92 58.3591   6
   5   4   0 1485.64 55.6717  24
   5   4   0 1478.37 61.9706   8
   5   4   0 1571.14 66.3066  14
  -5   4   0 1522.69 54.3863  24
  -5   4   0 1473.18 56.8018   7
  -5   4   0 1524.71 58.6492  25
   5   4   0 1485.22 61.8250  26
  -6  -4   0 117.981 12.5386   4
  -6  -4   0 131.757 11.4825   7
  -6  -4   0 132.319 11.7864  25
   6   4   0 131.872 11.3140  24
  -6   4   0 105.184 10.3107   7
  -6   4   0 120.815 9.58060  24
   0  -5   0 -5.4371 14.3597  19
   0  -5   0 1.14990 19.0066  12
   0  -5   0 -0.1333 5.10895  17
   0  -5   0 13.0241 15.4600  11
   0  -5   0 13.6153 16.0762  13
   0  -5   0 -5.8969 16.2899  18
   0  -5   0 1.22315 6.49729  16
   0  -5   0 8.77350 15.1432   2
   0  -5   0 -1.3200 5.13605  26
   0  -5   0 -0.9362 5.09527   8
   0  -5   0 2.99745 12.9874  10
   0  -5   0 -1.0026 4.61129  14
   0   5   0 -1.7945 4.35913  17
   0   5   0 -1.4521 11.8788   3
   0   5   0 -2.1955 4.95131   9
   0   5   0 11.1219 3.82466  16
   0   5   0 2.68703 12.5160  21
   0   5   0 -0.2229 10.5989  20
   0   5   0 3.53541 14.8093  13
   0   5   0 -3.0752 11.9867  12
   0   5   0 -1.3613 7.03176  15
  -1  -5   0 190.932 13.8393  16
   1  -5   0 215.335 26.4302  10
   1  -5   0 196.338 26.6675  19
  -1  -5   0 147.075 23.9693  18
  -1  -5   0 215.581 26.6085  10
  -1  -5   0 185.209 11.7621  17
  -1  -5   0 181.318 16.6403  15
   1  -5   0 209.172 12.7002   8
   1  -5   0 207.907 12.6734  26
   1  -5   0 215.647 25.5857   2
   1  -5   0 201.604 25.7313  18
  -1  -5   0 197.684 25.4729   1
   1  -5   0 208.644 25.5321  11
  -1  -5   0 226.305 33.0504  12
  -1  -5   0 218.368 24.8477   2
  -1  -5   0 226.162 31.5599  11
  -1  -5   0 262.311 30.5709  13
   1  -5   0 198.070 11.3053  14
  -1  -5   0 169.553 20.8106  19
   1   5   0 196.238 20.2903   3
   1   5   0 201.969 26.2830  12
  -1   5   0 186.970 11.4174   9
  -1   5   0 210.404 20.9779  13
   1   5   0 195.641 22.7977  21
   1   5   0 219.952 29.4524  13
   1   5   0 216.998 30.0047  11
  -1   5   0 229.371 15.5564  15
   1   5   0 198.771 21.9063  20
  -1   5   0 196.683 20.8543  20
   1   5   0 200.253 12.1235  16
  -1   5   0 233.768 26.5833   3
  -1   5   0 220.484 19.1455  12
  -1   5   0 176.106 20.7730  21
   1   5   0 225.840 13.3649  17
   1   5   0 199.518 25.7186  10
   2  -5   0 2436.44 132.457  19
  -2  -5   0 2601.40 119.606   2
   2  -5   0 2606.52 99.0754  14
  -2  -5   0 2457.04 133.038  13
   2  -5   0 2549.42 139.629  11
   2  -5   0 2432.28 133.721  10
   2  -5   0 2580.35 96.4431   8
  -2  -5   0 2703.43 143.473   1
  -2  -5   0 2582.46 107.178  15
   2  -5   0 2507.40 120.058   2
  -2  -5   0 2607.04 147.159  12
  -2  -5   0 2521.40 97.6376   9
   2  -5   0 2562.22 96.1776  26
  -2  -5   0 2525.86 132.157  18
  -2   5   0 2640.67 92.3216   9
  -2   5   0 2404.52 134.066  21
   2   5   0 2533.01 139.731  10
   2   5   0 2560.16 96.4273   8
   2   5   0 2590.29 138.340  21
  -2   5   0 2635.69 104.679  15
   2   5   0 2696.47 97.2384  17
   2   5   0 2680.59 124.223  20
   2   5   0 2526.89 104.452  16
   2   5   0 2634.51 147.604  11
  -2   5   0 2424.04 119.881  20
   2   5   0 2615.13 96.2134  26
   3  -5   0 3172.23 173.805  19
  -3  -5   0 3420.09 181.134  12
   3  -5   0 3347.70 168.784  10
   3  -5   0 3382.11 124.127   8
  -3  -5   0 2916.68 164.422  13
   3  -5   0 3333.58 179.780  11
  -3  -5   0 3400.10 127.366  22
  -3  -5   0 3391.66 128.442   4
  -3  -5   0 3546.51 175.014  18
  -3  -5   0 3494.72 187.867   1
  -3  -5   0 3317.16 118.291   7
   3  -5   0 3320.74 123.711  26
   3  -5   0 3237.66 174.085   3
  -3  -5   0 3324.20 117.207  25
  -3  -5   0 3431.37 137.419  15
   3  -5   0 3405.74 128.098  14
   3   5   0 3341.31 181.040  21
  -3   5   0 3129.80 129.577  23
   3   5   0 3324.65 132.364  14
  -3   5   0 3228.41 177.246  21
   3   5   0 3406.93 124.985   8
   3   5   0 3233.67 179.428  10
   3   5   0 3321.92 190.550  11
   3   5   0 3325.44 124.505  26
  -3   5   0 3277.72 122.076   6
   3   5   0 3365.47 161.353  20
  -3   5   0 3397.00 112.551  24
  -3   5   0 3454.04 156.477  20
  -3   5   0 3263.72 116.230   7
   3   5   0 3379.75 113.789  24
  -4  -5   0 126.973 14.0777   9
   4  -5   0 87.8897 9.91864  26
  -4  -5   0 97.7261 14.6006  15
  -4  -5   0 94.5028 11.1081   7
   4  -5   0 88.7356 8.99587  14
  -4  -5   0 111.147 14.4373  22
  -4  -5   0 114.033 13.3561   4
   4  -5   0 83.4422 9.71323   8
  -4  -5   0 83.9895 10.5216  25
   4   5   0 81.9780 9.48386  24
  -4   5   0 106.564 9.09838  24
  -4   5   0 76.5363 10.4399  25
   4   5   0 80.5075 11.2492  26
  -4   5   0 78.8991 8.42302   7
   4   5   0 90.2202 12.1190   8
   4   5   0 89.1848 13.3783  14
  -4   5   0 72.7380 9.86779   6
  -5  -5   0 396.322 24.7723   4
   5  -5   0 352.424 19.3962  26
   5  -5   0 350.501 19.4187   8
  -5  -5   0 362.321 21.3431  25
  -5   5   0 381.996 18.2869  24
  -5   5   0 394.638 20.4002   7
   5   5   0 372.620 23.6486  26
   5   5   0 409.054 19.8599  24
  -5   5   0 376.395 20.9886   6
   5   5   0 375.540 23.7543   8
  -6  -5   0 123.557 11.3099   4
  -6  -5   0 101.710 9.76275  25
   6   5   0 109.641 9.07797  24
  -6   5   0 120.505 9.37335  24
  -6   5   0 99.2471 9.42308   7
   0  -6   0 7252.46 268.253  26
   0  -6   0 7146.42 268.865   8
   0  -6   0 7643.69 332.251  19
   0  -6   0 7747.50 386.380  11
   0  -6   0 7265.36 293.017  16
   0  -6   0 7422.20 339.841  18
   0  -6   0 7623.62 283.448  14
   0  -6   0 7534.38 268.217  17
   0  -6   0 7756.39 365.828  10
   0  -6   0 7569.53 314.057   2
   0   6   0 7576.24 288.355  16
   0   6   0 7010.50 263.656   9
   0   6   0 6725.73 292.016  15
   0   6   0 7776.72 358.668  13
   0   6   0 7386.85 344.750   3
   0   6   0 7536.76 383.344  12
   0   6   0 7367.32 323.633  20
   0   6   0 7168.74 364.306  21
   0   6   0 7373.10 266.065  17
   1  -6   0 812.352 34.4064  14
   1  -6   0 724.129 53.7001  18
  -1  -6   0 734.320 48.6691   2
   1  -6   0 749.590 51.3609   2
  -1  -6   0 779.195 36.1412  16
   1  -6   0 840.473 55.2720  10
   1  -6   0 733.876 54.8950  19
  -1  -6   0 770.243 32.1821  17
   1  -6   0 809.746 33.8846  26
  -1  -6   0 733.740 47.5736  19
   1  -6   0 812.900 57.6881  11
  -1  -6   0 765.251 54.3309  13
  -1  -6   0 755.026 61.9337  12
  -1  -6   0 770.048 54.6999  18
   1  -6   0 807.999 34.0194   8
  -1   6   0 770.434 37.3964  15
  -1   6   0 707.930 50.6845  21
  -1   6   0 809.563 52.5260   3
  -1   6   0 743.762 47.6187  20
   1   6   0 763.329 54.8647  13
   1   6   0 787.836 34.2494  16
   1   6   0 832.744 33.4842  17
  -1   6   0 774.819 32.5672   9
   1   6   0 719.876 46.2483  20
  -1   6   0 721.882 48.0888  13
  -1   6   0 761.083 48.4608  12
   1   6   0 671.063 49.2620  21
   1   6   0 745.494 55.6319  12
  -2  -6   0 1286.96 74.7180  13
   2  -6   0 1303.40 75.0692  10
  -2  -6   0 1252.47 67.9816   2
  -2  -6   0 1228.86 80.3232   1
   2  -6   0 1201.27 48.7026  14
  -2  -6   0 1235.84 49.6613  22
  -2  -6   0 1232.80 76.1586  18
   2  -6   0 1245.08 82.8445  19
   2  -6   0 1106.96 70.0652   2
   2  -6   0 1206.82 78.2209  11
  -2  -6   0 1182.86 55.5677  15
  -2  -6   0 1156.47 50.3587   9
  -2  -6   0 1201.25 81.9290  12
   2  -6   0 1219.71 48.8547   8
   2  -6   0 1207.75 48.6145  26
   2   6   0 1111.19 44.2807   7
  -2   6   0 1118.75 50.2847  23
  -2   6   0 1176.45 45.0984   9
  -2   6   0 1189.84 67.3691  20
   2   6   0 1253.73 49.1478  17
   2   6   0 1207.22 68.3043  20
  -2   6   0 1253.02 52.9864  15
   2   6   0 1064.63 47.7638  26
   2   6   0 1100.41 48.1656   8
   2   6   0 1117.30 50.9963  14
  -2   6   0 1104.26 42.5634  24
   2   6   0 1148.65 51.2712  16
   2   6   0 1167.23 43.0935  24
   2   6   0 1073.21 73.5176  21
  -2   6   0 1159.56 46.7673   6
  -2   6   0 1174.23 44.0857   7
  -2   6   0 1261.78 77.4936   3
  -3  -6   0 204.948 18.8045   9
  -3  -6   0 215.697 16.9251  22
  -3  -6   0 218.117 15.1890   7
  -3  -6   0 205.106 14.7244  25
   3  -6   0 208.851 16.1935   8
  -3  -6   0 172.178 37.2118   1
   3  -6   0 207.539 16.0499  26
   3  -6   0 190.478 46.0376  19
  -3  -6   0 215.350 16.8021   4
   3  -6   0 197.049 13.6042  14
  -3  -6   0 212.700 21.4227  15
   3  -6   0 135.384 32.9922   3
  -3  -6   0 253.246 42.6515  18
  -3   6   0 251.960 32.5221  20
   3   6   0 208.913 18.3095  17
   3   6   0 187.817 12.9504  24
  -3   6   0 201.844 18.5566  23
   3   6   0 234.100 34.7316  20
  -3   6   0 215.803 12.9123   7
   3   6   0 176.595 34.0411  21
  -3   6   0 207.315 12.0716  24
  -3   6   0 203.505 14.6011   6
   3   6   0 181.148 16.8187  14
   3   6   0 224.185 16.6958   8
   3   6   0 242.608 16.7377  26
   3   6   0 228.391 17.2011  16
   4  -6   0 167.625 15.6342  26
   4  -6   0 164.997 15.0123  14
  -4  -6   0 196.293 19.3234  15
   4  -6   0 177.737 15.7900   8
  -4  -6   0 167.404 16.1080   4
  -4  -6   0 189.530 15.6047   7
  -4  -6   0 176.353 14.7103  25
  -4  -6   0 179.144 16.8565  22
  -4  -6   0 205.331 18.2493   9
   4   6   0 164.296 13.0579  24
   4   6   0 148.680 15.3834  26
  -4   6   0 159.146 14.0806   6
   4   6   0 139.466 15.5704   8
  -4   6   0 146.812 11.7169  24
   4   6   0 148.828 15.9582  14
  -4   6   0 156.767 13.1993   7
  -5  -6   0 2357.70 86.9526  25
  -5  -6   0 2426.86 95.2230   4
   5   6   0 2473.50 83.6373  24
  -5   6   0 2338.99 90.2511   6
  -5   6   0 2328.31 83.2494  24
  -5   6   0 2385.09 86.8705   7
  -6  -6   0 342.056 18.1666   4
   6   6   0 320.530 15.4043   7
   0  -7   0 2.32001 6.55958   8
   0  -7   0 1.94895 8.83688  16
   0  -7   0 3.55836 22.9518   2
   0  -7   0 2.81010 7.20223  17
   0  -7   0 -1.9735 19.6640  10
   0  -7   0 2.92960 23.1179  11
   0  -7   0 4.01232 23.2455  18
   0  -7   0 2.42745 6.80229  14
   0  -7   0 3.81834 6.90272   5
   0  -7   0 0.45462 6.65235  26
   0  -7   0 14.5211 21.5669  19
   0   7   0 0.61290 9.61696  15
   0   7   0 10.6730 22.9524  13
   0   7   0 -1.5087 17.0384  12
   0   7   0 3.25311 16.8554  20
   0   7   0 1.14041 16.0709   3
   0   7   0 3.31326 4.58226  24
   1  -7   0 2894.40 150.131  10
   1  -7   0 2676.91 134.485   2
   1  -7   0 2763.12 103.874  26
  -1  -7   0 2572.53 128.545   2
  -1  -7   0 2663.07 101.652  17
  -1  -7   0 2595.12 132.383  19
  -1  -7   0 2679.50 104.388  22
  -1  -7   0 2657.15 141.029  18
   1  -7   0 2441.66 139.822  18
  -1  -7   0 2751.28 98.3034   5
   1  -7   0 2753.89 104.097   8
  -1  -7   0 2749.45 147.410  13
   1  -7   0 2849.67 159.593  11
  -1  -7   0 2585.55 161.264  12
   1  -7   0 2645.08 108.660  14
   1  -7   0 2722.03 143.756  19
  -1  -7   0 2749.49 111.888  16
  -1   7   0 2650.77 106.202  23
   1   7   0 2750.78 93.0401  24
  -1   7   0 2516.09 138.143  13
  -1   7   0 2770.34 146.903  12
  -1   7   0 2677.28 93.5255  24
   1   7   0 2772.00 131.295  20
   1   7   0 2714.80 147.136  13
   1   7   0 2850.39 102.237  17
  -1   7   0 2874.58 113.517  15
   1   7   0 2798.75 109.738  16
   1   7   0 2732.23 155.366  12
   1   7   0 2630.83 95.9596   7
  -1   7   0 2723.48 99.7582   6
  -1   7   0 2908.75 101.717   9
  -1   7   0 2767.68 97.0000   7
  -1   7   0 2799.29 141.680   3
  -1   7   0 2813.84 133.933  20
  -2  -7   0 825.651 55.1237   2
   2  -7   0 674.126 60.9902   2
   2  -7   0 839.228 36.8785  26
  -2  -7   0 757.808 66.3325  12
   2  -7   0 842.214 36.9676   8
   2  -7   0 776.998 59.9233  10
   2  -7   0 750.808 66.4949  11
  -2  -7   0 848.353 37.1285  22
  -2  -7   0 768.613 59.3349  13
  -2  -7   0 810.315 33.9173   5
   2  -7   0 737.038 72.9366  19
   2  -7   0 849.596 37.4845  14
  -2  -7   0 803.525 62.7196  18
  -2   7   0 813.995 32.0263  24
   2   7   0 775.255 55.1498  20
   2   7   0 801.782 32.6245   7
  -2   7   0 797.618 39.3357  15
  -2   7   0 780.177 56.5345  20
  -2   7   0 816.621 33.8143   9
  -2   7   0 806.057 33.0893   7
   2   7   0 815.773 31.5205  24
  -2   7   0 849.113 38.3541  23
   2   7   0 840.944 37.7740  16
   2   7   0 854.982 36.5371  17
  -2   7   0 813.851 34.6137   6
  -3  -7   0 973.733 42.9808   4
  -3  -7   0 961.218 42.0912  22
  -3  -7   0 903.268 43.8034   9
   3  -7   0 899.719 41.2267   8
   3  -7   0 945.015 42.1586  14
  -3  -7   0 941.933 48.2200  15
   3  -7   0 931.568 41.3787  26
   3   7   0 938.017 44.0750  16
   3   7   0 973.037 36.5128  24
  -3   7   0 962.403 36.5080  24
   3   7   0 920.570 37.5227   7
  -3   7   0 924.116 43.4674  23
  -3   7   0 906.405 40.0122   6
  -3   7   0 892.057 37.5214   7
   3   7   0 931.291 41.8152  17
  -4  -7   0 675.988 33.4340   9
   4  -7   0 567.651 30.4235  26
   4  -7   0 622.617 31.8188  14
  -4  -7   0 602.835 31.0289  22
  -4  -7   0 576.594 27.6601  25
   4  -7   0 627.828 30.9203   8
  -4  -7   0 616.976 35.8680  15
  -4  -7   0 601.117 30.8966   4
  -4   7   0 593.858 32.5154  23
   4   7   0 637.615 27.4091   7
  -4   7   0 576.908 27.4267   7
  -4   7   0 629.065 26.4499  24
   4   7   0 570.174 25.7239  24
  -4   7   0 597.234 29.6625   6
  -5  -7   0 237.003 16.0901  25
  -5  -7   0 260.258 17.8699   4
  -5   7   0 262.362 17.9175   6
  -5   7   0 278.917 17.6909   7
   5   7   0 294.245 14.8544  24
   5   7   0 306.530 15.9715   7
  -5   7   0 287.123 15.8298  24
   0  -8   0 20.9819 27.7688  18
   0  -8   0 29.1635 26.9127   2
   0  -8   0 15.0334 10.1116  16
   0  -8   0 26.6236 7.89320   5
   0  -8   0 20.0729 8.22974  17
   0  -8   0 15.9447 23.6866  19
   0  -8   0 14.3880 8.00574  22
   0   8   0 20.5416 21.2304  20
   0   8   0 20.2906 7.66273   9
   0   8   0 39.5588 20.4650  12
   0   8   0 27.1033 5.74805  24
   0   8   0 24.9070 6.07812   7
   0   8   0 29.9404 10.7153  15
   0   8   0 46.6522 9.41387  23
   0   8   0 21.1102 29.2982  13
  -1  -8   0 1083.43 49.9439  16
   1  -8   0 1071.10 79.3105  19
   1  -8   0 1087.71 75.9905   2
  -1  -8   0 1076.99 44.9552  17
   1  -8   0 1129.14 47.2395  26
  -1  -8   0 1013.77 73.8336  18
  -1  -8   0 977.868 66.9573   2
  -1  -8   0 1098.13 47.0351  22
   1  -8   0 1024.86 49.0258  14
   1  -8   0 1105.56 47.2694   8
   1  -8   0 983.395 74.5620  10
  -1  -8   0 1078.38 44.0928   5
   1  -8   0 1022.20 81.8025  11
   1  -8   0 1067.32 45.7775   5
  -1   8   0 977.634 68.0510  20
   1   8   0 1135.13 40.8077  24
   1   8   0 1129.92 76.2925  13
  -1   8   0 1089.87 43.3480   7
   1   8   0 1139.38 46.6882  16
  -1   8   0 1141.26 43.6911   6
   1   8   0 1105.12 44.3424  17
  -1   8   0 1100.44 47.5974  23
   1   8   0 1065.63 76.9068  12
  -1   8   0 1230.69 52.4845  15
  -1   8   0 1097.98 41.4945  24
  -1   8   0 1140.61 72.7541   3
   1   8   0 1121.06 66.4193  20
   1   8   0 1115.62 42.2274   7
  -1   8   0 1176.89 46.1061   9
  -2  -8   0 911.236 37.1281   5
   2  -8   0 874.903 39.8864   5
  -2  -8   0 889.049 74.3829  18
   2  -8   0 919.174 42.5235  14
   2  -8   0 910.005 71.2674   3
  -2  -8   0 881.856 40.2872  22
   2  -8   0 985.061 89.0434  19
   2  -8   0 938.474 40.7146   8
   2  -8   0 961.084 40.7423  26
  -2   8   0 865.510 68.4143  20
   2   8   0 902.682 39.1087  17
  -2   8   0 879.267 37.6984   9
  -2   8   0 817.097 36.8386   7
  -2   8   0 870.254 35.5328  24
  -2   8   0 851.005 43.4726  15
   2   8   0 891.963 34.3198  24
  -2   8   0 906.470 41.2107  23
   2   8   0 858.448 35.4358   7
   2   8   0 880.751 61.0051  20
   2   8   0 925.482 40.9291  16
  -2   8   0 920.492 37.8973   6
  -3  -8   0 669.018 39.6336  15
  -3  -8   0 656.144 36.5302   9
   3  -8   0 664.866 33.2847   8
   3  -8   0 588.439 34.6098  14
   3  -8   0 681.291 33.0705  26
  -3  -8   0 697.173 32.9614  22
  -3   8   0 631.894 29.9435   7
  -3   8   0 664.806 28.7689  24
  -3   8   0 735.549 34.7886  23
   3   8   0 648.255 32.6175  17
  -3   8   0 714.440 31.3720   6
   3   8   0 651.939 27.3008  24
   3   8   0 647.592 33.5700  16
   3   8   0 660.985 28.2955   7
   4  -8   0 1101.13 50.4031  26
  -4  -8   0 1164.36 50.4141  22
  -4  -8   0 1185.08 51.5809   9
  -4   8   0 1167.32 47.1812   7
  -4   8   0 1226.73 45.3628  24
  -4   8   0 1246.81 49.2369   6
   4   8   0 1245.25 45.6923   7
   4   8   0 1020.32 52.7440  16
   4   8   0 1210.58 43.8468  24
  -5  -8   0 6.96940 6.54506   4
   5   8   0 6.81499 4.76796  24
  -5   8   0 17.6448 6.57816  24
  -5   8   0 3.07885 7.69496   7
  -5   8   0 14.4905 7.02038   6
   0  -9   0 7.94522 10.6211  16
   0  -9   0 3.22675 28.3311  18
   0  -9   0 1.05877 8.87499  17
   0  -9   0 1.30531 7.70064   5
   0  -9   0 1.29234 26.2774  19
   0  -9   0 9.33354 8.44663  22
   0   9   0 0.56765 5.88374   7
   0   9   0 1.16046 8.29570  23
   0   9   0 -1.2577 12.2639  15
   0   9   0 -1.1130 9.28878   9
   0   9   0 6.88871 5.26340  24
   1  -9   0 2962.33 108.025   5
   1  -9   0 2884.23 112.467  26
  -1  -9   0 2944.15 110.027  17
   1  -9   0 2866.13 112.707   8
   1  -9   0 2782.92 118.957  14
  -1  -9   0 2949.75 121.151  16
  -1  -9   0 2873.67 113.264  22
  -1  -9   0 2934.34 106.755   5
  -1   9   0 3049.68 123.468  15
  -1   9   0 2967.82 107.694   6
  -1   9   0 2934.77 105.642   7
  -1   9   0 2961.14 110.334   9
  -1   9   0 3013.64 115.405  23
   1   9   0 2989.11 100.961  24
  -1   9   0 2951.59 101.798  24
   1   9   0 2926.35 104.191   7
   2  -9   0 450.194 27.4158  14
   2  -9   0 444.763 25.4609   8
  -2  -9   0 466.273 22.6666   5
   2  -9   0 509.823 25.9584   5
   2  -9   0 439.913 25.4906  26
   2   9   0 459.914 20.0539  24
  -2   9   0 387.604 23.1545   7
  -2   9   0 397.825 24.8194  23
  -2   9   0 406.819 27.5189  15
  -2   9   0 431.803 22.1848   6
   2   9   0 442.486 23.2078  17
  -2   9   0 442.459 21.4948  24
   2   9   0 447.820 23.0440  16
  -2   9   0 422.872 23.3380   9
   2   9   0 444.718 20.8172   7
   3  -9   0 527.976 27.8631  26
   3  -9   0 508.234 27.7169   8
   3  -9   0 520.529 30.8205  14
  -3  -9   0 536.688 27.0509  22
  -3   9   0 460.535 23.3476  24
   3   9   0 481.484 22.2176   7
   3   9   0 463.585 21.2277  24
  -3   9   0 496.236 24.6312   6
   3   9   0 461.458 26.1987  17
  -3   9   0 475.511 27.0545  23
   3   9   0 461.116 25.8484  16
  -3   9   0 487.519 25.1777   7
   4  -9   0 654.673 33.9827  23
  -4  -9   0 709.534 32.1335  22
  -4   9   0 681.377 29.2587  24
   4   9   0 687.344 27.0693  24
  -4   9   0 671.177 30.9481   7
  -4   9   0 675.323 31.0560   6
   4   9   0 690.601 28.2142   7
  -5   9   0 202.408 14.2992   6
   0 -10   0 2286.40 91.4658  22
   0 -10   0 2274.54 92.9083  23
   0 -10   0 2340.16 90.4863  17
   0 -10   0 2408.51 100.406  16
   0 -10   0 2334.21 86.7947   5
   0  10   0 2386.60 84.4028   7
   0  10   0 2277.59 101.119  15
   0  10   0 2347.31 90.4352   9
  -1 -10   0 100.134 12.8000  16
   1 -10   0 81.2356 13.6133  17
  -1 -10   0 104.390 11.4313   5
  -1 -10   0 115.384 10.8544  17
   1 -10   0 84.2127 16.2447  16
  -1 -10   0 100.125 11.9831  22
   1 -10   0 96.7510 12.0501   5
   1  10   0 116.708 9.76867  24
  -1  10   0 116.484 12.8174   9
  -1  10   0 98.1775 10.7008   7
  -1  10   0 87.7927 14.8282  15
   1  10   0 70.3257 7.87063   7
  -1  10   0 101.168 9.75015  24
  -2 -10   0 81.6458 10.9873  22
   2 -10   0 67.2025 11.4848  26
   2 -10   0 63.4393 13.0887  14
   2 -10   0 75.0376 11.7567   8
  -2 -10   0 87.0713 9.93101   5
   2 -10   0 50.4436 10.1039   5
   2  10   0 80.6855 8.16374  24
   2  10   0 67.3184 7.80426   7
  -2  10   0 52.8232 10.4497  23
  -2  10   0 62.4861 13.5074  15
  -2  10   0 65.2816 8.91446   6
  -2  10   0 68.6744 9.95638   7
  -2  10   0 45.6535 9.54722   9
  -2  10   0 89.0192 9.78319  24
   3 -10   0 70.7734 12.3004  23
  -3 -10   0 58.9796 9.85088  22
   3  10   0 38.1417 6.17765  24
  -3  10   0 45.4133 8.02945   6
   3  10   0 37.5384 6.30545   7
  -3  10   0 49.6451 10.0541   7
  -3  10   0 59.9534 8.93850  24
   4 -10   0 120.788 12.7552  23
  -4 -10   0 132.584 11.3935  22
  -4  10   0 141.446 11.7171  24
   4  10   0 136.992 9.66143   7
  -4  10   0 142.134 12.0587   6
   4  10   0 132.292 9.26397  24
   0 -11   0 5.15206 10.0398  17
   0 -11   0 7.22163 11.6224  16
   0 -11   0 3.77705 7.16218   5
   0 -11   0 -0.4651 9.05231  23
   0 -11   0 0.77192 8.68397  22
   0  11   0 2.02980 5.82389  24
   0  11   0 1.01366 9.49203   9
   0  11   0 3.62070 13.7923  15
   0  11   0 1.40334 6.04725   7
   1 -11   0 312.143 20.4768  23
   1 -11   0 284.760 18.4441   5
  -1 -11   0 290.193 17.9067   5
  -1 -11   0 292.310 18.8803  22
  -1 -11   0 241.776 17.9576  16
   1 -11   0 250.553 24.5558  16
  -1  11   0 282.181 16.6779   7
  -1  11   0 310.434 16.0063  24
   1  11   0 298.142 15.0030  24
  -1  11   0 275.521 19.5549   9
   1  11   0 288.172 15.3476   7
  -2 -11   0 945.061 40.8764  22
   2 -11   0 912.370 38.9121   5
   2 -11   0 879.006 42.0261  23
  -2 -11   0 869.943 37.2022   5
  -2  11   0 947.341 36.3383  24
   2  11   0 947.928 35.0270  24
  -2  11   0 921.272 37.6738   6
  -2  11   0 937.951 37.6651   7
   2  11   0 932.286 36.1153   7
  -3 -11   0 995.585 42.9033  22
   3 -11   0 1015.14 44.7421  23
  -3  11   0 1023.87 40.6628   6
   3  11   0 988.810 38.3616   7
  -3  11   0 1071.85 39.1575  24
   3  11   0 1022.14 37.2239  24
   0 -12   0 885.433 36.9774   5
   0  12   0 903.096 35.0144   7
  -1 -12   0 100.858 10.7460  22
   1 -12   0 105.307 10.2444   5
  -1 -12   0 104.819 9.90497   5
   1 -12   0 112.714 12.1938  23
   1  12   0 91.0397 8.00180   7
  -1  12   0 80.7543 8.10894  24
   1  12   0 109.110 8.60620  24
   2 -12   0 522.817 23.6227   5
  -2 -12   0 529.065 25.2279  22
   2 -12   0 512.675 26.0813  23
  -2 -12   0 497.608 22.4761   5
   2  12   0 522.149 20.9136  24
   2  12   0 498.188 21.2356   7
  -2  12   0 539.250 22.0393  24
   3 -12   0 114.295 10.9708  23
  -3 -12   0 87.9972 8.51620  22
  -3  12   0 121.144 8.89765  24
   3  12   0 128.041 8.41338  24
   0 -13   0 3.46052 5.51726   5
   0  13   0 3.13229 4.20123  24
  -1 -13   0 653.682 25.4044   5
   1 -13   0 492.689 26.5455  23
   1 -13   0 649.636 25.6690   5
   1  13   0 650.251 23.2682  24
  -1  13   0 589.843 23.3878  24
  -6   0   1 41.2472 7.22994  24
  -6   0   1 52.1625 8.92035   7
  -6   0   1 50.1705 10.1980  25
  -6   0   1 27.6465 13.1001   4
  -5   0   1 157.448 11.0182  24
  -5   0   1 148.817 12.9272  25
  -5   0   1 92.8642 14.5445   4
  -5   0   1 133.647 12.0421   7
   5   0  -1 151.660 11.0196  26
   5   0  -1 136.691 11.0015   8
   4   0  -1 6358.67 303.836  10
  -4   0   1 6150.02 215.373   7
   4   0  -1 6710.23 319.195  11
   4   0  -1 6371.50 276.935  20
  -4   0   1 5948.51 236.973   4
  -4   0   1 6416.78 215.304  25
  -4   0   1 6409.46 207.954  24
  -4   0   1 5786.49 326.341   1
  -3   0   1 75.4809 11.2988   2
  -3   0   1 98.5288 16.4421  19
  -3   0   1 100.410 25.1363   1
  -3   0   1 109.683 16.1167  18
  -3   0   1 101.686 19.8538  21
   3   0  -1 108.046 15.1824   3
   3   0  -1 113.728 15.1069  20
  -2   0   1 8187.81 366.311  19
  -2   0   1 8856.24 343.787   2
  -2   0   1 7378.96 388.182   3
  -2   0   1 8733.02 413.824  21
  -2   0   1 8602.19 412.932   1
   2   0  -1 9552.80 362.282  20
  -2   0   1 8715.74 375.720  18
   1   0  -1 3.80372 2.02627  10
   1   0  -1 3.54750 2.52325  11
  -1   0   1 3.70461 3.02094   2
  -1   0   1 4.14831 5.55194   1
   1   0  -1 18.8655 3.81829  11
  -1   0   1 2.57729 3.78318  18
   1   0  -1 4.39190 3.17938  10
  -1   0   1 5.22782 5.18194   3
   1   0  -1 4.73155 2.39066  13
   1   0  -1 14.6840 6.63418  21
  -1   0   1 5.63647 3.96216  19
   0   0   1 3.82212 3.09859  13
   0   0   1 10.5189 3.11805  11
   0   0  -1 8.06632 3.49169   1
   0   0  -1 4.68916 3.03267  11
   0   0  -1 0.98668 3.02727  11
   0   0   1 1.78762 2.72318  13
   0   0   1 4.32172 3.66609   3
   0   0  -1 2.56145 3.14636  21
   0   0   1 3.76304 2.83934  18
   0   0   1 7.22822 2.03375  20
   0   0   1 5.30425 2.25217   2
   0   0   1 4.49958 2.84822  19
   0   0  -1 5.13865 3.14914  10
   0   0   1 2.65333 2.88205  12
   0   0   1 3.87970 2.82743  10
   0   0  -1 5.29372 2.82625  12
   0   0  -1 5.51423 2.93455  13
   1   0   1 3991.49 156.044  14
   1   0   1 4416.99 191.001   3
   1   0   1 3557.20 209.664  12
  -1   0  -1 4495.12 209.749  12
  -1   0  -1 4571.38 209.030  11
  -1   0  -1 3999.26 180.910  18
  -1   0  -1 3872.76 210.110  12
  -1   0  -1 3906.03 194.352  13
  -1   0  -1 4198.72 197.169  10
   1   0   1 4294.66 195.222  13
   1   0   1 4325.50 197.057  10
   1   0   1 4078.91 208.038  11
  -1   0  -1 4364.35 201.208   1
   1   0   1 3782.91 197.430  10
   1   0   1 3591.85 175.725  19
  -1   0  -1 4501.35 200.139  21
   2   0   1 1417.71 73.5192  10
   2   0   1 1495.36 78.6993  11
  -2   0  -1 1467.94 58.1080  15
   2   0   1 1394.50 67.7618  20
  -2   0  -1 1297.97 65.1827  18
   2   0   1 1481.85 52.9335  26
  -2   0  -1 1350.86 86.3029   1
   2   0   1 1424.64 74.0155   3
   2   0   1 1500.41 53.0900   8
   2   0   1 1455.32 56.6250  14
  -2   0  -1 1495.70 78.1752  21
  -2   0  -1 1379.15 52.5451   9
   3   0   1 9070.53 450.885  10
  -3   0  -1 9532.30 366.528  15
  -3   0  -1 9970.85 332.505   9
  -3   0  -1 8223.56 470.348   1
   3   0   1 8736.79 476.581  11
   3   0   1 9727.91 407.105  20
   3   0   1 9957.63 337.849   8
   3   0   1 9510.46 357.762  14
   3   0   1 9916.51 336.990  26
   3   0   1 9456.29 437.627   3
  -4   0  -1 736.244 65.9451  21
   4   0   1 688.612 52.9417  20
   4   0   1 759.261 33.9842  14
   4   0   1 739.175 30.7082   8
  -4   0  -1 625.670 82.9640   1
  -4   0  -1 645.684 38.4694   4
  -4   0  -1 703.365 30.0679  25
  -4   0  -1 718.055 29.6542   7
   4   0   1 768.469 30.7560  26
  -4   0  -1 735.632 28.7597  24
   5   0   1 95.5675 13.4310  14
   5   0   1 171.041 14.4598  26
   5   0   1 131.811 12.2883   8
  -5   0  -1 165.691 13.8189  25
  -5   0  -1 151.604 12.4416   7
  -5   0  -1 153.976 11.6810  24
  -5   0  -1 151.352 19.2401   4
  -6   0  -1 182.289 13.3782   7
  -6   0  -1 174.041 12.5286  24
  -6   0  -1 167.569 14.3073  25
  -6  -1   1 128.655 16.4379   4
  -6  -1   1 134.976 12.4117   7
  -6  -1   1 144.086 11.6066  24
  -6  -1   1 156.456 14.1044  25
  -6   1   1 156.075 14.5051  25
  -6   1   1 130.351 10.5426  24
  -6   1   1 160.620 13.9666   7
  -5  -1   1 383.654 18.5474  24
  -5  -1   1 368.110 26.4388   4
  -5  -1   1 407.065 21.6430  25
  -5  -1   1 398.208 20.3930   7
   5   1  -1 409.503 20.1207   8
   5   1  -1 402.127 19.9360  26
  -5   1   1 405.039 18.4046  24
  -5   1   1 363.038 25.8279   4
   5   1  -1 391.725 24.2729  14
  -5   1   1 421.923 20.0748   7
  -5   1   1 395.273 22.0446  25
  -4  -1   1 1490.96 65.8336   4
  -4  -1   1 1545.05 57.4445   7
   4  -1  -1 1596.93 81.2001  20
  -4  -1   1 1564.45 58.1936  25
  -4  -1   1 1600.88 54.9572  24
  -4  -1   1 1507.45 110.725   1
  -4   1   1 1592.03 54.5547  24
   4   1  -1 1576.28 87.6655  10
   4   1  -1 1644.12 100.940  21
  -4   1   1 1569.24 57.8116  25
   4   1  -1 1568.51 58.1684   8
   4   1  -1 1534.57 57.9645  26
  -4   1   1 1513.62 97.5916  21
   4   1  -1 1629.54 92.9612  11
  -4   1   1 1594.90 56.9385   7
   4   1  -1 1601.92 82.4306  20
  -4   1   1 1355.43 101.696   1
   3  -1  -1 1650.31 82.6051   3
  -3  -1   1 1592.82 81.5052  18
  -3  -1   1 1577.64 100.064   1
  -3  -1   1 1513.56 71.1754   2
   3   1  -1 1637.25 91.0635  11
  -3   1   1 1521.73 77.8762  18
  -3   1   1 1529.92 93.1598   1
  -3   1   1 1555.50 71.3679   2
   3   1  -1 1666.19 77.0295  20
   3   1  -1 1716.68 84.3049  10
  -3   1   1 1543.62 89.8894  21
   3   1  -1 1685.16 92.5110  21
  -2  -1   1 4167.75 174.149  19
  -2  -1   1 3965.62 156.624  15
  -2  -1   1 4074.10 180.871  18
  -2  -1   1 4127.78 203.155   1
  -2  -1   1 4150.13 164.521   2
  -2  -1   1 3562.53 141.804   9
  -2   1   1 4058.14 172.337  20
   2   1  -1 4083.30 182.425   3
  -2   1   1 3855.81 196.853   1
  -2   1   1 4158.69 179.184  18
   2   1  -1 4004.47 193.721  10
   2   1  -1 4085.83 193.790  10
  -2   1   1 3900.15 175.835  19
   2   1  -1 4211.11 172.954  20
  -2   1   1 3777.03 186.698   3
  -2   1   1 3949.60 163.899   2
  -2   1   1 4199.23 197.973  21
   2   1  -1 4427.53 200.896  21
   2   1  -1 3575.90 204.948  11
   2   1  -1 3903.53 204.504  11
  -1  -1   1 131.725 8.78962  13
   1  -1  -1 123.968 11.1514   1
  -1  -1   1 124.351 10.8633  13
  -1  -1   1 117.122 12.3924  11
  -1  -1   1 106.276 11.7879  12
  -1  -1   1 136.396 10.1202   2
  -1  -1   1 124.478 9.08636  10
  -1  -1   1 122.458 9.74291  19
   1  -1  -1 129.261 8.08945  11
  -1  -1   1 127.479 10.0440  12
  -1  -1   1 130.354 11.2202  18
   1  -1  -1 139.208 9.31905  11
   0  -1   1 445.695 24.4020  13
   0  -1  -1 461.675 22.6370  21
   0  -1  -1 445.472 25.5160  12
   0  -1  -1 463.691 26.0430  11
   0  -1  -1 482.821 24.2111  13
   0  -1   1 498.504 21.2592   2
   0  -1   1 442.067 23.7240   3
   0  -1  -1 472.513 24.5476  10
   0  -1  -1 470.934 22.9124  18
   0  -1  -1 457.533 25.7582  11
   0  -1   1 479.052 26.9092  12
   0  -1   1 475.331 24.4970  10
   0  -1   1 480.993 21.7036  18
   0   1  -1 436.105 24.7580  10
   0   1  -1 423.235 25.4580  12
   0   1   1 405.423 22.3213  20
   0   1  -1 435.229 20.6363  20
   0   1   1 447.453 24.0512  13
   0   1   1 431.630 26.1019  12
   0   1   1 437.051 25.2573  11
   0   1   1 424.628 21.5340  19
   0   1  -1 402.263 25.0524  21
   0   1  -1 449.437 23.8334  13
   0   1   1 405.330 25.2106  12
   0   1   1 438.047 24.3888  10
   0   1   1 431.980 20.1587   2
   0   1  -1 403.882 26.2955  11
   0   1  -1 397.275 24.2973  13
   0   1  -1 447.348 24.8312   1
   0   1   1 387.613 24.5667   3
   0   1   1 438.583 24.1115  13
  -1  -1  -1 4705.57 207.952  12
   1  -1   1 3895.98 187.713   3
   1  -1   1 4249.78 191.335  13
  -1  -1  -1 4212.89 205.709  11
  -1  -1  -1 4425.92 196.432  21
   1  -1   1 3593.19 192.800  10
   1  -1   1 3406.99 161.227   2
  -1  -1  -1 4283.00 144.643  17
   1  -1   1 4075.74 203.949  11
   1  -1   1 3723.40 193.894  10
  -1  -1  -1 4354.88 194.868  10
  -1  -1  -1 4065.25 197.943   1
   1  -1   1 3906.34 176.504  19
  -1  -1  -1 4110.38 207.304  12
   1  -1   1 3407.92 206.260  12
   1  -1   1 4401.76 152.966  14
   1  -1   1 3432.06 204.819  11
  -1  -1  -1 4127.19 183.520  18
  -1  -1  -1 4349.42 192.302  13
  -1   1  -1 4025.48 172.860  20
  -1   1  -1 4277.64 196.667  21
  -1   1  -1 3845.44 192.882  10
   1   1   1 4355.84 187.364   3
  -1   1  -1 4024.36 190.515  13
   1   1   1 4229.35 173.799  20
   1   1   1 4107.27 153.701  14
   1   1   1 3586.99 206.580  12
  -1   1  -1 4088.51 196.732   1
  -1   1  -1 3525.51 157.235  15
  -1   1  -1 4345.19 205.207  12
   1   1   1 3947.98 192.329  13
   1   1   1 4253.73 194.249  10
  -1   1  -1 4207.67 190.257  13
   1   1   1 4263.90 205.623  11
  -1   1  -1 3547.60 205.987  12
  -1   1  -1 3997.16 204.901  11
  -2  -1  -1 1501.46 59.8944  15
  -2  -1  -1 1480.10 54.4349   9
  -2  -1  -1 1506.67 79.9073  21
  -2  -1  -1 1297.02 75.7461  13
   2  -1   1 1530.27 77.2818   3
   2  -1   1 1541.84 54.3976   8
   2  -1   1 1545.69 75.5650  10
   2  -1   1 1278.40 69.1040  19
   2  -1   1 1512.77 57.5158  14
  -2  -1  -1 1282.99 70.9864  18
  -2  -1  -1 1324.89 72.5486  13
   2  -1   1 1543.14 79.5351  11
  -2  -1  -1 1282.15 79.5860  12
   2  -1   1 1516.22 54.2307  26
  -2  -1  -1 1428.17 89.3281   1
  -2   1  -1 1548.12 59.4034  15
   2   1   1 1534.01 54.4932  26
  -2   1  -1 1554.08 80.0975  21
  -2   1  -1 1396.98 69.1840  20
   2   1   1 1532.33 70.4376  20
   2   1   1 1504.73 54.6140   8
  -2   1  -1 1510.61 53.6018   9
  -2   1  -1 1390.07 89.2480   1
   2   1   1 1606.73 82.2135  11
   2   1   1 1571.69 77.0920  10
   2   1   1 1437.77 58.7403  14
   2   1   1 1500.36 75.5425   3
   3  -1   1 1055.81 41.7266  14
  -3  -1  -1 992.134 43.2024  15
   3  -1   1 982.531 56.7752  10
   3  -1   1 1061.78 38.9474  26
   3  -1   1 1011.58 61.6387   3
  -3  -1  -1 1034.37 66.3397  21
  -3  -1  -1 1022.34 40.2251   9
   3  -1   1 1040.01 60.6080  11
  -3  -1  -1 1005.58 83.1497   1
   3  -1   1 1077.60 39.0803   8
   3  -1   1 967.106 54.9923  20
   3   1   1 964.852 43.2178  14
   3   1   1 1009.51 39.3116  26
   3   1   1 1020.90 39.4544   8
  -3   1  -1 1020.23 42.3312  15
   3   1   1 985.575 59.2904   3
  -3   1  -1 987.883 38.4508   9
  -3   1  -1 862.927 80.4964   1
   3   1   1 972.371 56.3656  20
   3   1   1 1076.32 60.5807  10
  -3   1  -1 976.423 64.4846  21
   3   1   1 1024.38 64.2454  11
  -4  -1  -1 866.157 94.0276   1
   4  -1   1 849.989 33.8986  26
  -4  -1  -1 816.038 33.2500   7
   4  -1   1 888.648 34.1109   8
   4  -1   1 822.620 58.0606  20
   4  -1   1 839.837 36.5015  14
  -4  -1  -1 830.045 35.5479   9
  -4  -1  -1 844.216 70.1106  21
  -4  -1  -1 815.805 33.6632  25
  -4  -1  -1 803.230 36.2402  15
  -4  -1  -1 821.897 32.0058  24
  -4  -1  -1 788.050 41.1868   4
  -4   1  -1 762.482 42.2944   4
  -4   1  -1 819.032 32.9093   7
   4   1   1 781.235 59.3536  20
   4   1   1 831.699 38.5055  14
   4   1   1 787.651 34.1243  26
  -4   1  -1 864.429 71.0616  21
   4   1   1 814.721 34.2802   8
  -4   1  -1 844.737 31.9059  24
  -4   1  -1 827.902 33.3584  25
  -4   1  -1 781.833 33.4870   6
  -5  -1  -1 523.285 25.1024  25
   5  -1   1 482.274 27.7682  14
   5  -1   1 506.192 24.8657   8
  -5  -1  -1 546.155 32.7989   4
   5  -1   1 464.697 24.4119  26
  -5  -1  -1 510.397 23.0816  24
  -5   1  -1 507.003 24.8317  25
   5   1   1 482.958 25.7526   8
   5   1   1 469.811 28.8622  14
  -5   1  -1 521.630 22.8015  24
  -5   1  -1 533.056 23.9195   7
   5   1   1 512.827 25.9849  26
  -6  -1  -1 976.255 37.2663  24
  -6  -1  -1 1011.11 39.5343  25
  -6  -1  -1 947.024 44.3479   4
  -6   1  -1 981.022 39.8187  25
  -6   1  -1 964.420 38.5724   7
  -6   1  -1 925.520 36.6848  24
  -6  -2   1 2039.66 81.6131   4
  -6  -2   1 1993.59 73.9347  25
  -6  -2   1 2008.10 73.4603   7
  -6   2   1 1866.56 73.3435  25
  -6   2   1 1964.45 72.5207   7
  -6   2   1 1911.00 68.7397  24
  -5  -2   1 1278.71 51.5796  25
  -5  -2   1 1318.97 48.4587  24
  -5  -2   1 1370.66 58.9085   4
  -5  -2   1 1351.72 51.2929   7
  -5   2   1 1265.48 47.4349  24
   5   2  -1 1318.37 57.5187  14
  -5   2   1 1289.14 49.9528   7
  -5   2   1 1236.95 51.2775  25
   5   2  -1 1302.05 52.4983  26
   5   2  -1 1324.69 52.7268   8
  -4  -2   1 1177.38 45.0811  25
  -4  -2   1 1170.07 41.8717  24
  -4  -2   1 1097.98 91.7120   1
  -4  -2   1 1164.97 44.1066   7
  -4  -2   1 1084.72 71.7583  18
   4  -2  -1 1184.43 64.1454  20
  -4  -2   1 1107.38 50.7571   4
  -4   2   1 1154.63 78.9925  21
   4   2  -1 1214.14 49.9345  14
   4   2  -1 1076.55 81.7278  21
  -4   2   1 1082.55 43.7354  25
  -4   2   1 1109.41 42.8560   7
   4   2  -1 1119.31 66.9257  20
   4   2  -1 1200.50 44.7693  26
  -4   2   1 1126.25 41.1418  24
   4   2  -1 1180.22 44.7914   8
  -3  -2   1 13.2904 6.17606   9
   3  -2  -1 6.75846 15.6255  19
  -3  -2   1 0.26686 15.1692  18
  -3  -2   1 17.7888 23.5238   1
  -3  -2   1 11.4737 9.96997   2
  -3  -2   1 15.7463 5.02973  15
   3  -2  -1 10.2816 10.6706   2
   3   2  -1 34.0086 6.87700  14
   3   2  -1 10.2786 17.5832  11
  -3   2   1 5.67955 14.8507   1
   3   2  -1 11.6635 3.35309   8
  -3   2   1 21.9954 9.39449  20
   3   2  -1 21.4760 13.2696  10
   3   2  -1 11.0524 17.2819  21
  -3   2   1 11.2985 14.6987  21
   3   2  -1 8.13765 3.28150  26
   3   2  -1 22.9287 12.7297  20
  -2  -2   1 1780.13 70.0395   9
  -2  -2   1 1887.91 93.3800  18
  -2  -2   1 1835.07 83.0144   2
  -2  -2   1 1952.89 106.516   1
  -2  -2   1 1875.24 85.8710  19
   2   2  -1 1979.12 98.6253  10
  -2   2   1 1856.59 88.6754  19
   2   2  -1 1887.97 69.2859   8
  -2   2   1 1839.46 94.9278   3
  -2   2   1 1868.96 96.6811   1
   2   2  -1 1936.33 73.8834  14
  -2   2   1 1938.15 81.8035   2
   2   2  -1 1911.21 69.1535  26
  -2   2   1 1873.48 97.4123  21
   2   2  -1 1821.89 101.846  21
   2   2  -1 1913.04 105.982  11
  -2   2   1 1961.08 85.1968  20
   2   2  -1 1965.16 87.0298  20
  -1  -2   1 5640.23 208.402   2
  -1  -2   1 5119.46 243.216  10
   1  -2  -1 5119.01 255.975  11
  -1  -2   1 4822.90 258.365  11
  -1  -2   1 5742.51 220.926  19
   1  -2  -1 4794.45 223.406  18
  -1  -2   1 5189.68 260.868  12
  -1  -2   1 5587.31 246.490   1
   1  -2  -1 5035.65 240.180  10
   1  -2  -1 4334.38 241.822  10
  -1  -2   1 4932.96 259.711  12
   1  -2  -1 5417.70 241.120   1
   1  -2  -1 4398.78 253.572  11
  -1  -2   1 5555.58 241.847  13
   1  -2  -1 4306.31 238.549  13
  -1  -2   1 4948.38 239.261  13
   1   2  -1 5615.13 246.325  10
   1   2  -1 5370.14 240.328  13
  -1   2   1 4527.76 196.588  15
   1   2  -1 5005.28 248.967  21
  -1   2   1 5147.70 219.605  19
  -1   2   1 4760.69 215.082  20
   1   2  -1 5752.00 259.700  11
   1   2  -1 4968.97 260.424  12
  -1   2   1 4620.43 235.928   3
  -1   2   1 4816.76 242.045  21
  -1   2   1 5350.19 205.551   2
   1   2  -1 5288.20 192.758  14
   1   2  -1 5083.41 217.348  20
   0  -2   1 3793.67 225.408  11
   0  -2  -1 4940.00 227.949  11
   0  -2   1 4684.54 205.371   3
   0  -2   1 5117.73 197.397  18
   0  -2  -1 4471.58 213.903  10
   0  -2  -1 4642.20 198.325  18
   0  -2   1 5067.37 198.473  19
   0  -2  -1 3890.57 227.773  12
   0  -2   1 5117.11 184.625   2
   0  -2  -1 4161.45 211.471  13
   0  -2   1 4569.62 230.051  12
   0  -2  -1 4023.92 180.427   2
   0  -2  -1 3771.86 213.067   1
   0   2  -1 5082.84 213.043   1
   0   2  -1 3805.72 189.582  20
   0   2  -1 4091.17 211.643  13
   0   2   1 3974.39 225.261  11
   0   2  -1 4385.11 211.438  13
   0   2  -1 4361.70 227.964  11
   0   2   1 4567.91 193.271  20
   0   2  -1 5112.01 218.110  21
   0   2  -1 4503.90 227.643  12
   0   2   1 4673.92 211.217  13
   0   2   1 4478.71 212.159  13
   0   2  -1 4574.02 215.111  10
   0   2   1 4170.97 214.901  10
   0   2   1 4927.39 229.102  12
   0   2   1 4416.68 192.100  19
   1  -2   1 521.714 34.5941  19
  -1  -2  -1 531.834 34.6224  11
   1  -2   1 501.701 21.4397   8
  -1  -2  -1 503.332 23.8469  16
   1  -2   1 517.936 31.6895  10
  -1  -2  -1 531.547 31.9330  21
  -1  -2  -1 517.346 25.2921  19
   1  -2   1 550.051 31.9551  11
   1  -2   1 456.739 29.3783   2
   1  -2   1 554.106 32.6108   3
  -1  -2  -1 504.067 35.5011  18
   1  -2   1 499.051 34.0817  11
   1  -2   1 589.968 31.5417  10
   1  -2   1 495.647 30.5756  13
   1  -2   1 505.806 34.1894  12
  -1  -2  -1 520.398 36.3349   1
  -1  -2  -1 482.931 32.4361  10
  -1  -2  -1 544.388 35.1126  12
   1  -2   1 513.246 21.4098  26
  -1  -2  -1 539.398 31.1946  13
   1  -2   1 497.527 21.7505  14
  -1  -2  -1 517.843 24.0799  15
  -1  -2  -1 514.703 29.3706   2
  -1  -2  -1 539.439 21.1203  17
  -1   2  -1 596.719 33.2885  21
   1   2   1 568.335 31.7887   3
  -1   2  -1 574.626 31.1545  12
   1   2   1 563.006 30.3385  20
   1   2   1 529.299 34.5560  12
  -1   2  -1 552.462 20.7415   9
   1   2   1 558.466 21.4624   8
  -1   2  -1 540.640 30.6630  13
  -1   2  -1 613.609 28.4028  20
   1   2   1 559.966 32.3789  10
   1   2   1 564.504 21.4265  26
  -1   2  -1 534.310 29.5599  13
  -1   2  -1 518.381 33.7072   1
   1   2   1 597.332 35.5205  11
   1   2   1 550.078 33.1703  13
  -1   2  -1 509.033 34.7578  12
  -1   2  -1 585.557 23.3460  15
   1   2   1 569.789 23.4499  14
  -2  -2  -1 1195.09 44.9093   9
  -2  -2  -1 1135.34 76.2687   1
  -2  -2  -1 1219.41 49.2258  15
   2  -2   1 1245.84 43.9780  26
  -2  -2  -1 1102.97 65.4478  18
  -2  -2  -1 1201.54 60.8831  13
   2  -2   1 1206.64 44.0039   8
   2  -2   1 1204.40 64.5934   3
   2  -2   1 1278.41 62.1470  10
   2  -2   1 1255.53 46.1008  14
  -2  -2  -1 1276.35 67.5889  21
   2  -2   1 1093.85 63.0180  19
   2  -2   1 1307.86 65.3189  11
   2   2   1 1129.70 69.3937  11
   2   2   1 1123.77 44.1540  26
  -2   2  -1 1160.84 66.7676  21
   2   2   1 1102.53 61.6006   3
   2   2   1 1164.64 59.3524  20
  -2   2  -1 928.250 72.8717   1
  -2   2  -1 1131.59 42.9524   9
   2   2   1 1066.10 48.2001  14
   2   2   1 1134.88 63.9834  10
   2   2   1 1102.61 44.1991   8
  -2   2  -1 1080.59 47.6065  15
  -3  -2  -1 1487.34 62.6574  15
   3  -2   1 1568.06 56.4272  26
  -3  -2  -1 1507.06 54.5866  25
  -3  -2  -1 1529.66 54.6800   7
   3  -2   1 1554.95 56.5589   8
  -3  -2  -1 1414.14 104.092   1
   3  -2   1 1499.56 84.0697  11
  -3  -2  -1 1478.09 52.7598  24
  -3  -2  -1 1423.46 62.6380   4
   3  -2   1 1523.94 59.4786  14
  -3  -2  -1 1565.01 90.5411  21
   3  -2   1 1468.71 79.9794  10
  -3  -2  -1 1522.26 58.6643   9
   3  -2   1 1435.03 84.7128   3
   3   2   1 1498.07 79.2882  20
  -3   2  -1 1521.84 57.4822   6
   3   2   1 1502.68 62.6076  14
  -3   2  -1 1460.97 53.9849   7
   3   2   1 1446.93 89.9494  11
  -3   2  -1 1433.86 101.963   1
  -3   2  -1 1504.52 61.0794  15
  -3   2  -1 1522.38 52.2690  24
  -3   2  -1 1528.32 55.0243   9
   3   2   1 1509.36 85.0642  10
   3   2   1 1466.29 57.1114   8
  -3   2  -1 1496.92 76.1611  20
  -3   2  -1 1386.95 88.4032  21
  -3   2  -1 1491.35 54.2364  25
   3   2   1 1515.72 57.0787  26
  -4  -2  -1 1214.57 51.5927   9
  -4  -2  -1 1280.94 112.458   1
   4  -2   1 1296.10 49.5015  26
  -4  -2  -1 1228.36 46.4953  24
   4  -2   1 1352.54 77.2347  20
   4  -2   1 1314.95 49.7228   8
  -4  -2  -1 1237.60 48.4085  25
  -4  -2  -1 1220.70 54.1178  15
  -4  -2  -1 1295.22 48.4778   7
  -4  -2  -1 1282.54 56.9822   4
   4  -2   1 1295.20 52.4836  14
  -4  -2  -1 1208.78 88.8024  21
   4   2   1 1260.29 50.6711  26
  -4   2  -1 1241.07 47.6222   7
   4   2   1 1274.65 80.1507  20
   4   2   1 1239.28 55.7558  14
  -4   2  -1 1238.59 45.9422  24
  -4   2  -1 1299.17 93.3280  21
   4   2   1 1270.26 50.7789   8
  -4   2  -1 1264.82 49.5578   6
  -4   2  -1 1231.68 48.3176  25
  -5  -2  -1 2326.96 93.3664   4
  -5  -2  -1 2207.12 79.5391  24
  -5  -2  -1 2211.17 82.6044  25
   5  -2   1 2206.20 90.7164  14
   5  -2   1 2186.40 85.1804  26
   5  -2   1 2252.67 85.5486   8
  -5  -2  -1 2263.92 82.5301   7
  -5   2  -1 2234.18 78.7962  24
  -5   2  -1 2253.83 81.7866   7
   5   2   1 2243.70 87.5004   8
   5   2   1 2245.11 93.9821  14
  -5   2  -1 2287.22 82.8019  25
   5   2   1 2241.02 87.4101  26
  -6  -2  -1 24.6596 7.72709  25
  -6  -2  -1 18.4697 9.87675   4
  -6  -2  -1 13.2399 6.98239   7
  -6   2  -1 25.8388 8.43333  25
  -6   2  -1 12.2356 6.24896   7
  -6   2  -1 14.9967 5.84092  24
  -6  -3   1 32.8198 8.95718  25
  -6  -3   1 28.1729 7.63788   7
  -6  -3   1 31.5579 10.0812   4
  -6   3   1 24.2360 7.68272   7
  -6   3   1 38.8349 7.00704  24
  -5  -3   1 678.604 35.1375   4
  -5  -3   1 685.269 30.9882  25
  -5  -3   1 660.712 28.3368  24
  -5  -3   1 666.396 30.2777   7
  -5   3   1 636.304 28.7044   7
  -5   3   1 662.578 31.2830  25
   5   3  -1 671.991 32.1639   8
  -5   3   1 685.763 27.3267  24
   5   3  -1 701.161 32.2813  26
  -4  -3   1 700.455 33.6190   4
  -4  -3   1 692.894 29.5481   9
  -4  -3   1 712.313 70.6437   1
  -4  -3   1 651.741 29.3467  25
  -4  -3   1 645.323 32.3034  22
  -4  -3   1 677.660 30.5641  15
   4  -3  -1 628.794 51.6467   3
  -4  -3   1 677.712 28.9638   7
  -4  -3   1 656.175 26.8217  24
  -4  -3   1 674.930 59.3011  18
  -4   3   1 659.051 25.7369  24
   4   3  -1 676.455 29.2376  26
   4   3  -1 777.516 57.2312  10
   4   3  -1 684.263 29.4449   8
  -4   3   1 661.381 28.3393   6
   4   3  -1 651.544 50.1389  20
   4   3  -1 640.138 62.0487  21
  -4   3   1 609.999 58.5399  21
   4   3  -1 736.254 33.4754  14
  -4   3   1 692.358 27.1661   7
  -4   3   1 545.120 27.5825  25
  -3  -3   1 6791.84 309.658  18
  -3  -3   1 7088.00 239.145   9
  -3  -3   1 6886.80 338.344   1
   3  -3  -1 6080.22 298.122  19
  -3  -3   1 6594.51 262.380  15
   3  -3  -1 6766.60 276.175   2
  -3  -3   1 6577.93 276.813   2
  -3   3   1 6231.37 329.498  21
  -3   3   1 6746.46 289.440  20
   3   3  -1 7002.39 328.853  10
   3   3  -1 6841.30 336.388  21
   3   3  -1 7091.01 293.703  20
   3   3  -1 6558.41 256.393  14
  -3   3   1 6347.80 314.776   3
   3   3  -1 6722.25 240.396  26
   3   3  -1 6515.89 347.664  11
  -2  -3   1 555.995 34.0636   2
  -2  -3   1 456.892 32.1157  13
   2  -3  -1 524.684 32.5624  10
  -2  -3   1 547.061 26.5111  15
   2  -3  -1 527.232 29.6842   2
  -2  -3   1 558.260 43.5734   1
   2  -3  -1 557.142 32.0511  10
  -2  -3   1 545.773 38.0692  12
   2  -3  -1 514.562 34.2546  11
   2  -3  -1 536.703 33.0402  11
  -2  -3   1 495.934 30.4971  19
  -2  -3   1 585.362 39.9975  18
   2  -3  -1 585.393 32.0579  18
   2  -3  -1 532.724 32.3062   1
  -2  -3   1 548.659 24.5981   9
  -2  -3   1 437.339 35.5588  12
  -2  -3   1 556.833 33.1552  13
  -2   3   1 530.085 29.5458  20
   2   3  -1 536.360 22.4387   8
   2   3  -1 542.104 39.5672  21
   2   3  -1 546.060 22.4250  26
   2   3  -1 522.874 32.8369  20
  -2   3   1 490.639 32.9740  21
   2   3  -1 555.571 25.2106  14
   2   3  -1 542.004 38.1296  10
  -2   3   1 567.338 38.2128   3
  -1  -3   1 2157.78 120.655  12
   1  -3  -1 2138.84 107.656  10
   1  -3  -1 2221.65 93.4207   2
   1  -3  -1 2238.64 78.6987   8
  -1  -3   1 2051.55 101.784  19
   1  -3  -1 2267.83 114.931  11
  -1  -3   1 2262.93 112.467   1
  -1  -3   1 2211.69 82.3736   9
  -1  -3   1 2247.40 89.1793  15
  -1  -3   1 2062.11 105.443  18
  -1  -3   1 2103.51 87.1262  16
   1  -3  -1 2223.36 78.4990  26
   1  -3  -1 2270.75 101.395  18
  -1  -3   1 2202.12 97.9468   2
   1  -3  -1 2111.29 116.539  11
   1  -3  -1 2080.26 105.493   1
  -1  -3   1 2282.23 111.001  13
   1  -3  -1 2226.07 83.4181  14
  -1  -3   1 2242.59 119.184  11
  -1  -3   1 2104.71 111.397  10
  -1  -3   1 2060.40 79.9205  17
   1  -3  -1 2308.84 111.850  10
   1   3  -1 2108.79 80.4445  26
  -1   3   1 2242.35 97.4278  20
  -1   3   1 2098.35 105.611  21
  -1   3   1 2134.75 78.8160   9
   1   3  -1 2102.29 85.9478  14
   1   3  -1 2275.44 114.950  21
   1   3  -1 2233.20 119.436  12
   1   3  -1 2226.75 113.724  10
   1   3  -1 2262.03 121.083  11
  -1   3   1 2165.31 99.9890  19
   1   3  -1 2239.47 99.0548  20
   1   3  -1 2116.65 80.6546   8
   1   3  -1 2222.08 111.003  13
  -1   3   1 2111.46 108.783   3
   0  -3   1 531.380 32.8726  11
   0  -3   1 491.932 31.5760  10
   0  -3  -1 505.719 29.7525  18
   0  -3   1 476.464 32.1587  19
   0  -3  -1 480.948 19.6194  26
   0  -3  -1 482.817 31.1957  13
   0  -3  -1 493.202 19.6854   8
   0  -3  -1 551.341 31.0867  10
   0  -3   1 486.943 35.8748  12
   0  -3   1 465.825 30.0523  18
   0  -3   1 515.292 31.3461  13
   0  -3   1 477.291 30.9404   2
   0  -3  -1 526.918 33.2859  12
   0  -3  -1 546.214 27.1826   2
   0  -3  -1 536.310 35.3411  11
   0  -3   1 489.299 20.6933  14
   0  -3  -1 471.616 21.6280  14
   0  -3   1 514.916 20.2147  17
   0  -3   1 501.384 29.1597   3
   0  -3  -1 498.188 29.2983   1
   0   3  -1 506.262 26.7172  20
   0   3  -1 461.966 35.6552  11
   0   3   1 446.998 27.3452  21
   0   3   1 520.569 29.9749  13
   0   3   1 473.003 19.2826  17
   0   3  -1 507.443 31.6756  12
   0   3  -1 496.763 31.5754  13
   0   3  -1 423.305 20.6816  16
   0   3   1 434.930 20.9270  16
   0   3   1 485.956 32.9534  12
   0   3   1 493.043 26.9252  19
   0   3   1 488.005 31.5278  11
   0   3   1 459.979 29.2416  20
   0   3   1 463.169 22.3718  15
   0   3  -1 465.485 27.3805   1
   0   3  -1 428.538 31.1040  21
   0   3   1 499.650 31.0632   3
   0   3   1 432.029 31.5261  10
   0   3  -1 484.077 31.5197  10
  -1  -3  -1 976.796 58.0328  10
   1  -3   1 1127.87 58.0434  11
   1  -3   1 1118.03 56.0545  13
   1  -3   1 1055.37 39.8873   8
  -1  -3  -1 993.667 55.6484  13
   1  -3   1 1003.28 62.0341  12
   1  -3   1 982.338 48.9264  18
  -1  -3  -1 1084.78 61.8246   1
   1  -3   1 993.990 53.2989   2
   1  -3   1 1155.80 56.9339  10
  -1  -3  -1 1040.36 59.5134  18
   1  -3   1 1066.90 40.4605  14
  -1  -3  -1 983.807 61.2241  11
   1  -3   1 1047.87 39.7925  26
  -1  -3  -1 1044.18 63.1969  12
  -1  -3  -1 1033.33 49.1492  19
  -1  -3  -1 1003.56 39.1188  17
   1  -3   1 1095.84 57.0828   3
  -1  -3  -1 1008.09 51.5154   2
   1  -3   1 1045.61 58.9399  19
  -1  -3  -1 1037.31 43.7666  16
  -1  -3  -1 1003.68 43.8389  15
  -1  -3  -1 1020.98 39.9200   9
  -1   3  -1 1084.71 50.2700  20
   1   3   1 986.750 61.0186  12
   1   3   1 1037.05 53.2748  20
  -1   3  -1 1041.56 57.5978  21
  -1   3  -1 849.975 61.9039  12
   1   3   1 1008.93 58.4565  13
  -1   3  -1 965.174 38.0439   9
  -1   3  -1 1034.54 56.2640  12
   1   3   1 998.396 40.2154  17
   1   3   1 980.148 42.7531  16
   1   3   1 1012.49 39.4585  26
   1   3   1 1106.45 59.2658  10
   1   3   1 1033.46 54.6223   3
  -1   3  -1 899.079 55.1983   1
  -1   3  -1 1024.39 56.5587  13
   1   3   1 999.735 39.4982   8
   1   3   1 1024.24 63.0890  11
   1   3   1 988.116 42.3467  14
  -1   3  -1 1063.03 42.9002  15
  -1   3  -1 946.311 52.8378  13
   2  -3   1 6597.04 314.256   3
  -2  -3  -1 6932.88 336.365   1
   2  -3   1 6366.66 321.362  10
  -2  -3  -1 6853.11 263.361  15
   2  -3   1 6514.98 240.363  26
  -2  -3  -1 6982.49 308.259  18
   2  -3   1 6496.19 300.706  19
   2  -3   1 6512.06 240.971   8
   2  -3   1 6585.75 253.508  14
  -2  -3  -1 6637.62 238.736   9
  -2  -3  -1 6582.10 318.485  13
   2  -3   1 6639.18 339.148  11
  -2  -3  -1 6750.24 350.942  12
  -2  -3  -1 6789.79 328.837  21
   2   3   1 6876.13 310.308   3
   2   3   1 7214.02 293.475  20
   2   3   1 7009.02 240.938  26
   2   3   1 6857.43 347.039  11
   2   3   1 6730.68 262.571  16
  -2   3  -1 6466.64 235.630   9
  -2   3  -1 6447.20 328.776   1
   2   3   1 6999.12 241.525   8
  -2   3  -1 6208.01 261.011  15
  -2   3  -1 6758.37 328.780  21
   2   3   1 7110.37 327.074  10
  -2   3  -1 6551.04 289.085  20
   2   3   1 6760.07 256.934  14
   2   3   1 6316.26 243.187  17
  -3  -3  -1 1185.77 49.2289   9
  -3  -3  -1 1185.58 44.6408  25
   3  -3   1 1182.59 67.0182  10
  -3  -3  -1 1177.05 43.3820  24
  -3  -3  -1 1015.36 87.7514   1
   3  -3   1 1199.16 46.1301   8
   3  -3   1 1214.86 74.6406   3
   3  -3   1 1238.15 48.2599  14
   3  -3   1 1205.01 46.0707  26
  -3  -3  -1 1216.96 52.4989  15
   3  -3   1 1197.40 70.9806  11
  -3  -3  -1 1140.51 44.6846   7
  -3   3  -1 1184.94 46.5510   6
  -3   3  -1 1144.73 50.0797  15
   3   3   1 1206.73 47.3109  26
  -3   3  -1 1129.94 64.4962  20
  -3   3  -1 1183.78 42.5837  24
   3   3   1 1250.24 52.4665  14
   3   3   1 1223.28 47.4532   8
  -3   3  -1 1235.39 44.3226   9
   3   3   1 1224.60 70.0292  20
  -3   3  -1 1194.42 44.1324   7
   3   3   1 1063.13 78.4231  11
  -3   3  -1 1176.66 75.2729  21
   3   3   1 1272.19 75.8707  10
  -3   3  -1 1182.67 44.3225  25
  -4  -3  -1 1606.81 68.6368   4
   4  -3   1 1676.18 61.8270   8
  -4  -3  -1 1556.47 68.3179  15
  -4  -3  -1 1601.21 60.2083   7
   4  -3   1 1647.43 65.2057  14
  -4  -3  -1 1634.23 60.2623  25
   4  -3   1 1634.85 61.5865  26
  -4  -3  -1 1580.17 64.3970   9
  -4  -3  -1 1558.75 58.0727  24
   4   3   1 1622.99 63.8188   8
   4   3   1 1588.96 69.2157  14
   4   3   1 1601.53 63.6784  26
  -4   3  -1 1547.28 56.9570  24
  -4   3  -1 1560.93 59.6488  25
  -4   3  -1 1558.44 59.0638   7
  -4   3  -1 1563.55 61.6670   6
  -5  -3  -1 119.944 11.5072  24
  -5  -3  -1 88.4723 10.7893   7
   5  -3   1 58.0365 10.4304  14
   5  -3   1 88.1196 10.3971   8
  -5  -3  -1 75.4590 10.4622  25
  -5  -3  -1 74.2659 13.6773   4
   5  -3   1 95.9526 10.4985  26
  -5   3  -1 102.443 9.53478  24
   5   3   1 98.4149 12.7913  26
  -5   3  -1 118.900 12.2922  25
  -5   3  -1 81.7507 9.41130   6
   5   3   1 102.652 12.9287   8
   5   3   1 102.878 15.5024  14
  -5   3  -1 92.9115 9.63412   7
  -6  -3  -1 129.897 11.1197   7
  -6  -3  -1 118.565 12.4675   4
  -6  -3  -1 116.005 10.8607  25
   6   3   1 128.138 10.4939  24
  -6   3  -1 144.207 12.6822  25
  -6   3  -1 127.558 10.5861   7
  -6   3  -1 125.710 10.1091  24
  -6  -4   1 1002.09 40.5598  25
  -6  -4   1 1038.00 44.5662   4
  -6  -4   1 986.839 40.4354   7
  -6   4   1 943.770 37.0865  24
  -5  -4   1 749.055 33.8718  25
  -5  -4   1 815.508 34.2989   7
  -5  -4   1 770.288 37.4733   4
  -5   4   1 734.863 29.7615  24
  -5   4   1 756.532 31.7299   7
  -5   4   1 730.630 32.4398   6
   5   4  -1 756.978 34.9980  26
   5   4  -1 819.318 38.9237  14
   5   4  -1 729.717 34.9455   8
   5   4  -1 729.753 31.2791  24
  -4  -4   1 1517.48 106.429   1
  -4  -4   1 1385.96 61.3502  22
  -4  -4   1 1459.44 55.9462  25
  -4  -4   1 1536.42 57.8477   9
  -4  -4   1 1533.58 61.6777   4
  -4  -4   1 1393.86 55.5364   7
  -4  -4   1 1500.90 62.9062  15
   4  -4  -1 1324.56 88.2353   3
  -4  -4   1 1205.69 93.9793  18
   4   4  -1 1518.19 58.3803   8
   4   4  -1 1496.51 62.9560  14
  -4   4   1 1415.18 51.2884  24
   4   4  -1 1537.35 58.2999  26
  -4   4   1 1405.42 56.2746   6
   4   4  -1 1424.60 99.3418  21
  -4   4   1 1410.79 53.3359   7
   4   4  -1 1384.80 83.0215  20
   3  -4  -1 74.2582 17.3465   2
  -3  -4   1 93.0934 11.2058   9
   3  -4  -1 61.1096 25.4179  19
  -3  -4   1 75.3565 9.89837   4
  -3  -4   1 74.4998 8.43079   7
  -3  -4   1 81.3944 10.5877  15
  -3  -4   1 77.9363 9.20196  25
  -3  -4   1 60.5993 10.0910  22
  -3  -4   1 68.6196 20.8496   2
  -3  -4   1 72.0905 27.0433   1
   3  -4  -1 60.4167 16.9923  11
  -3  -4   1 75.4535 29.3096  18
  -3   4   1 94.4701 22.9541   3
   3   4  -1 76.6305 20.5685  20
  -3   4   1 89.3826 9.00278   6
   3   4  -1 65.7319 23.3695  11
   3   4  -1 83.2266 25.2882  21
   3   4  -1 90.7301 10.9286  14
   3   4  -1 87.6062 23.1505  10
  -3   4   1 78.5026 15.5581  20
   3   4  -1 77.2644 8.39497   8
   3   4  -1 90.3403 8.87014  26
   2  -4  -1 2177.76 114.139  10
   2  -4  -1 2385.60 109.099  19
  -2  -4   1 2242.16 83.6657   9
  -2  -4   1 2096.24 104.847  19
  -2  -4   1 2244.14 91.6264  15
  -2  -4   1 2160.48 104.186   2
  -2  -4   1 2303.21 115.005  18
   2  -4  -1 2191.42 119.533  11
  -2  -4   1 2272.78 121.646   1
   2  -4  -1 2194.47 105.198  18
  -2  -4   1 2157.43 124.818  12
   2  -4  -1 2287.51 99.1864   2
  -2  -4   1 2126.80 113.049  13
   2   4  -1 2325.89 121.240  21
  -2   4   1 2198.04 115.578   3
  -2   4   1 2174.28 78.4064   9
   2   4  -1 2125.73 82.1688  26
   2   4  -1 2158.17 82.4997   8
   2   4  -1 2146.68 104.364  20
  -2   4   1 2023.08 112.151  21
  -2   4   1 2251.77 86.9674  15
   2   4  -1 2215.00 88.5558  14
   2   4  -1 2191.98 118.946  10
   2   4  -1 2257.73 126.909  11
  -2   4   1 2227.87 101.582  20
   1  -4  -1 3067.60 139.392  18
  -1  -4   1 2799.76 110.736   9
  -1  -4   1 3103.01 140.018  19
  -1  -4   1 2952.46 121.961  15
  -1  -4   1 3190.60 145.430  18
   1  -4  -1 3221.61 151.103  10
  -1  -4   1 2954.46 162.565  11
  -1  -4   1 3101.24 166.252  12
   1  -4  -1 3060.67 109.068   8
  -1  -4   1 3174.66 152.228  13
   1  -4  -1 3121.74 138.401  19
  -1  -4   1 3031.94 110.077  17
  -1  -4   1 2815.84 138.916   3
  -1  -4   1 3116.41 120.330  16
  -1  -4   1 2759.33 152.859  10
  -1  -4   1 3012.38 133.407   2
   1  -4  -1 2956.27 161.099  11
  -1  -4   1 3132.10 152.304   1
   1  -4  -1 3055.87 115.789  14
   1  -4  -1 3020.26 108.767  26
  -1   4   1 3051.33 134.665  20
   1   4  -1 3030.88 111.197  17
  -1   4   1 3173.19 149.176   3
  -1   4   1 2826.18 143.833  13
   1   4  -1 3076.41 155.472  21
   1   4  -1 2964.16 110.755   8
  -1   4   1 3159.36 143.088  13
  -1   4   1 2982.07 119.676  15
   1   4  -1 3044.77 135.160  20
   1   4  -1 2842.49 161.965  12
   1   4  -1 2893.53 152.336  13
   1   4  -1 3069.27 119.824  16
  -1   4   1 3301.57 154.843  12
  -1   4   1 2655.70 153.159  12
  -1   4   1 2664.24 145.054  21
   1   4  -1 2913.36 117.781  14
  -1   4   1 3069.67 108.584   9
   1   4  -1 2990.30 155.257  10
   1   4  -1 2957.72 110.488  26
   0  -4   1 4305.05 174.095  14
   0  -4   1 5035.69 226.578  10
   0  -4  -1 4626.08 175.140  14
   0  -4  -1 4358.66 179.262  16
   0  -4  -1 4594.30 239.486  11
   0  -4   1 4691.18 206.908  19
   0  -4   1 4937.73 208.834  18
   0  -4   1 4358.33 165.524   8
   0  -4  -1 4544.56 240.217  12
   0  -4  -1 4658.48 222.810  13
   0  -4   1 4685.04 243.362  12
   0  -4   1 4330.62 165.141  26
   0  -4   1 4651.29 235.971  11
   0  -4   1 4677.26 194.117   2
   0  -4  -1 4735.99 201.276  19
   0  -4  -1 4563.13 165.079   8
   0  -4  -1 4603.07 224.086  10
   0  -4  -1 4668.86 165.655  17
   0  -4   1 4656.08 221.903  13
   0  -4   1 4437.21 164.958  17
   0  -4   1 4617.38 180.784  16
   0  -4  -1 4416.63 220.071   1
   0  -4  -1 4584.99 164.674  26
   0  -4  -1 4924.61 191.179   2
   0   4   1 4662.56 201.180  20
   0   4  -1 4648.90 198.727  20
   0   4  -1 4644.07 236.657  12
   0   4  -1 4697.28 165.271  17
   0   4   1 4675.75 178.163  16
   0   4   1 4080.76 235.103  11
   0   4   1 4774.15 220.443  13
   0   4  -1 4778.57 222.780  13
   0   4  -1 4242.91 216.885   1
   0   4  -1 4198.47 162.504   9
   0   4   1 4497.71 164.006  17
   0   4   1 4558.56 180.346  15
   0   4   1 4997.32 216.283   3
   0   4  -1 4327.08 178.107  16
   0   4  -1 4795.94 227.530  21
   0   4  -1 4344.94 180.188  15
   0   4  -1 4186.84 240.129  11
   0   4   1 4200.81 220.235  21
   0   4  -1 4290.95 224.385  10
   0   4   1 4301.22 162.951   9
   0   4   1 4608.21 237.934  12
  -1  -4  -1 2097.46 125.480  12
   1  -4   1 2412.16 119.221  11
   1  -4   1 2197.83 82.7181   8
  -1  -4  -1 2305.76 118.983   1
   1  -4   1 2196.64 82.5085  26
  -1  -4  -1 2213.75 101.419   2
  -1  -4  -1 2255.21 114.389  13
   1  -4   1 2276.01 112.387   3
  -1  -4  -1 2161.48 81.8768  17
  -1  -4  -1 2230.95 113.960  18
   1  -4   1 2231.19 103.407   2
  -1  -4  -1 2067.73 123.903  11
  -1  -4  -1 1948.35 116.617  10
   1  -4   1 2193.78 85.2980  14
  -1  -4  -1 2196.25 82.9705   9
  -1  -4  -1 2236.38 91.1671  15
   1  -4   1 2316.82 115.015  10
  -1  -4  -1 2192.26 90.2720  16
   1  -4   1 2324.22 112.311  19
  -1  -4  -1 2195.53 102.068  19
   1   4   1 2105.33 82.2248   8
   1   4   1 2056.15 116.345  10
   1   4   1 2184.00 116.788  13
  -1   4  -1 2309.08 116.849  12
  -1   4  -1 2154.23 101.073  20
   1   4   1 2202.06 113.794  21
  -1   4  -1 2216.03 115.615  21
   1   4   1 2110.28 87.5727  14
   1   4   1 2185.16 89.0979  16
   1   4   1 2241.40 109.421   3
   1   4   1 2139.97 82.7613  17
  -1   4  -1 2327.53 114.194  13
  -1   4  -1 2327.24 89.6156  15
  -1   4  -1 2285.15 80.0951   9
   1   4   1 2104.60 104.704  20
   1   4   1 2075.00 81.9658  26
   1   4   1 2202.86 123.634  12
   2  -4   1 698.073 28.7284  26
  -2  -4  -1 680.339 44.8603  13
  -2  -4  -1 652.066 56.1364   1
   2  -4   1 718.522 48.4238   3
   2  -4   1 713.201 43.7190  10
  -2  -4  -1 665.145 55.3702  12
   2  -4   1 672.365 28.7189   8
  -2  -4  -1 684.843 52.3616  18
   2  -4   1 672.884 53.9616  19
  -2  -4  -1 617.253 33.1933  15
  -2  -4  -1 688.310 31.1393   9
   2  -4   1 726.659 44.8384  11
  -2   4  -1 690.032 26.6792   9
   2   4   1 691.113 28.9288  26
  -2   4  -1 636.113 45.9308  21
   2   4   1 671.517 28.9191   8
   2   4   1 686.913 32.2271  14
   2   4   1 652.987 44.5583  20
   2   4   1 662.373 54.7420  11
   2   4   1 643.934 48.6207  10
   2   4   1 651.503 30.9257  17
   2   4   1 629.866 31.0459  16
   2   4   1 632.153 46.5214  21
   3  -4   1 2026.46 116.003   3
   3  -4   1 2084.17 80.4783  14
  -3  -4  -1 2019.37 74.3171   7
  -3  -4  -1 2069.03 86.8550  15
   3  -4   1 2108.32 77.5211  26
   3  -4   1 2106.72 115.320  11
   3  -4   1 2073.75 77.6241   8
  -3  -4  -1 2009.00 80.4543   9
  -3  -4  -1 2275.46 134.229   1
  -3  -4  -1 2049.41 72.0262  24
  -3  -4  -1 1881.16 116.870  18
  -3  -4  -1 2101.64 117.512  12
   3  -4   1 2073.28 108.462  10
  -3  -4  -1 2005.09 73.7061  25
  -3  -4  -1 2025.90 82.6090   4
  -3   4  -1 2040.94 73.2897   7
  -3   4  -1 2085.56 70.8816  24
   3   4   1 2096.57 79.1511   8
   3   4   1 1930.42 125.068  11
  -3   4  -1 1988.02 84.1709  15
   3   4   1 1991.88 119.202  21
  -3   4  -1 1953.48 118.132  21
   3   4   1 2070.93 119.153  10
  -3   4  -1 2045.86 73.3416  25
   3   4   1 2050.96 85.0698  14
  -3   4  -1 2028.18 74.0358   9
   3   4   1 2123.10 79.0519  26
  -3   4  -1 2026.00 76.9716   6
   3   4   1 2175.93 109.215  20
  -3   4  -1 1850.75 100.977  20
   4  -4   1 633.319 27.9561   8
   4  -4   1 611.798 28.5406  14
  -4  -4  -1 611.728 26.9469  24
  -4  -4  -1 606.937 27.9032   7
  -4  -4  -1 612.411 28.2915  25
  -4  -4  -1 587.194 33.6009  15
  -4  -4  -1 607.110 33.0336   4
   4  -4   1 628.815 27.8615  26
  -4   4  -1 607.233 25.2375  24
  -4   4  -1 593.959 28.3822   6
  -4   4  -1 619.370 26.4781   7
  -4   4  -1 593.349 27.6279  25
   4   4   1 607.562 30.5309   8
   4   4   1 641.432 33.7735  14
   4   4   1 616.457 30.4710  26
   5  -4   1 1112.66 43.8690  26
  -5  -4  -1 1122.84 47.2460   4
  -5  -4  -1 1078.77 42.0011   7
  -5  -4  -1 1033.90 41.5856  25
   5   4   1 827.414 44.4727  26
  -5   4  -1 1008.31 38.6610  24
  -5   4  -1 1037.36 40.6581   7
   5   4   1 798.413 44.4865   8
  -5   4  -1 1010.57 42.1273  25
  -5   4  -1 937.833 41.1349   6
   5   4   1 1073.28 40.3023  24
  -6  -4  -1 95.1088 9.20697  25
  -6  -4  -1 111.411 9.72687   7
  -6  -4  -1 98.4799 10.7085   4
  -6   4  -1 112.328 9.42131   7
  -6   4  -1 114.226 8.99129  24
   6   4   1 114.507 9.16708  24
  -6  -5   1 201.128 16.1206   4
  -6  -5   1 199.918 14.3857  25
  -5  -5   1 966.166 46.3076  22
  -5  -5   1 1050.41 45.3471   4
  -5  -5   1 1026.82 41.7032  25
  -5  -5   1 982.792 41.5476   7
   5   5  -1 1000.46 44.0029   8
   5   5  -1 1051.80 47.5035  14
  -5   5   1 961.194 39.6333   7
  -5   5   1 922.421 40.9014   6
  -5   5   1 975.942 37.5560  24
   5   5  -1 975.303 38.3687  24
   5   5  -1 942.338 43.5732  26
  -4  -5   1 894.579 40.0054   9
  -4  -5   1 934.435 43.4902  22
  -4  -5   1 902.955 38.2541  25
  -4  -5   1 953.572 42.2065   4
  -4  -5   1 845.984 44.6506  15
  -4  -5   1 897.541 38.4885   7
   4   5  -1 978.442 40.6859   8
  -4   5   1 901.472 38.7831   6
  -4   5   1 903.957 34.4379  24
  -4   5   1 892.082 35.8828   7
   4   5  -1 891.050 35.6790  24
   4   5  -1 969.689 40.4200  26
  -4   5   1 876.168 43.8572  23
   3  -5  -1 174.123 29.1047  11
   3  -5  -1 158.795 11.5677   8
   3  -5  -1 126.500 23.9212   2
  -3  -5   1 211.677 39.7454  18
  -3  -5   1 175.397 34.8213   1
  -3  -5   1 165.777 15.9273  15
  -3  -5   1 195.287 16.3605   9
   3  -5  -1 163.792 11.3592  26
  -3  -5   1 133.089 28.4164   2
  -3  -5   1 153.633 14.0057   4
   3  -5  -1 150.420 22.7239  10
  -3  -5   1 154.214 12.9713   7
   3  -5  -1 168.306 36.3498  19
  -3  -5   1 177.217 15.5296  22
  -3  -5   1 169.945 13.3506  25
   3   5  -1 180.002 30.9365  10
   3   5  -1 161.077 31.0898  11
  -3   5   1 184.152 23.7336  20
   3   5  -1 170.429 15.0342  14
   3   5  -1 190.825 28.6345  20
   3   5  -1 194.317 33.9338  21
   3   5  -1 171.293 13.1139  26
  -3   5   1 156.784 12.5265   6
   3   5  -1 181.490 13.4183   8
  -3   5   1 168.830 15.3752  23
   3   5  -1 158.798 11.0006  24
  -3   5   1 151.899 9.44758  24
  -3   5   1 173.046 33.2296   3
   2  -5  -1 1715.61 66.8632  14
  -2  -5   1 1760.10 74.0345  15
  -2  -5   1 1712.27 93.5887  13
   2  -5  -1 1668.13 82.7557   2
   2  -5  -1 1751.41 63.7771   8
   2  -5  -1 1678.73 99.5232  11
   2  -5  -1 1807.82 92.8544  19
  -2  -5   1 1765.06 99.9287   1
   2  -5  -1 1695.67 95.4890  10
  -2  -5   1 1668.84 67.2553   9
   2  -5  -1 1545.41 86.3106  18
  -2  -5   1 1602.73 85.8583   2
   2  -5  -1 1718.39 63.5879  26
  -2  -5   1 1738.78 104.104  12
   2   5  -1 1604.84 70.6709  16
   2   5  -1 1674.32 85.2423  20
   2   5  -1 1683.29 66.4919  17
   2   5  -1 1689.69 98.6090  21
   2   5  -1 1641.27 97.6514  10
   2   5  -1 1706.77 65.6716  26
  -2   5   1 1717.60 62.1853   9
  -2   5   1 1752.73 84.1992  20
   2   5  -1 1670.62 65.7923   8
   2   5  -1 1677.71 70.2103  14
  -2   5   1 1745.24 69.2505  15
   2   5  -1 1769.77 105.432  11
  -2   5   1 1833.31 96.8677   3
  -1  -5   1 1248.26 64.1402   2
   1  -5  -1 1228.47 71.5112  10
   1  -5  -1 1202.51 46.3731   8
  -1  -5   1 1211.06 69.1674   1
  -1  -5   1 1291.86 80.4294  12
   1  -5  -1 1181.13 65.2983  18
  -1  -5   1 1273.52 72.3325  13
   1  -5  -1 1181.46 61.3146   2
   1  -5  -1 1222.54 75.9995  11
  -1  -5   1 1188.09 65.5499  19
   1  -5  -1 1178.40 49.2253  14
   1  -5  -1 1198.74 46.2142  26
   1  -5  -1 1276.50 66.6901  19
  -1  -5   1 1306.75 70.3642  18
  -1  -5   1 1176.79 54.0332  15
  -1  -5   1 1195.55 49.8530   9
  -1   5   1 1187.26 46.5110   9
  -1   5   1 1261.63 63.5058  20
   1   5  -1 1166.92 74.6227  12
   1   5  -1 1179.05 73.7961  10
   1   5  -1 1135.01 50.3182  14
  -1   5   1 1312.85 70.7154   3
   1   5  -1 1250.15 71.6982  21
   1   5  -1 1215.91 47.6341  17
   1   5  -1 1205.28 50.5339  16
   1   5  -1 1049.89 46.8491  26
   1   5  -1 1073.52 47.0793   8
   1   5  -1 1174.37 61.9473  20
  -1   5   1 1272.43 67.1465  12
   1   5  -1 1222.98 72.3304  13
  -1   5   1 1246.73 62.3492  13
  -1   5   1 1131.67 66.5036  12
  -1   5   1 1170.40 51.8989  15
   0  -5   1 902.676 59.2881  10
   0  -5  -1 1028.89 60.0702  18
   0  -5  -1 938.597 38.1196  26
   0  -5  -1 937.595 38.2748   8
   0  -5   1 940.831 42.5194  16
   0  -5   1 991.478 56.3086  18
   0  -5   1 1022.10 57.3688  19
   0  -5  -1 947.835 60.2932  10
   0  -5   1 922.585 40.0189  14
   0  -5   1 967.423 53.7232   2
   0  -5  -1 953.177 40.6461  14
   0  -5   1 904.336 67.0308  12
   0  -5   1 866.693 58.1224  13
   0  -5  -1 921.001 41.8877  16
   0  -5  -1 1002.66 53.1425   2
   0  -5  -1 962.115 65.4339  11
   0  -5  -1 962.149 38.5384  17
   0  -5   1 943.289 38.3364  17
   0  -5   1 940.869 38.2478  26
   0  -5   1 942.163 61.6464  11
   0  -5   1 974.138 38.4241   8
   0  -5  -1 961.215 53.0916  19
   0   5  -1 975.731 38.6211   9
   0   5  -1 894.176 37.2189  17
   0   5  -1 938.980 43.2483  15
   0   5   1 896.134 56.9439  13
   0   5   1 939.163 38.4685   9
   0   5   1 987.522 61.0066  12
   0   5   1 932.301 36.4459  17
   0   5   1 971.046 43.5025  15
   0   5  -1 925.089 58.4977  13
   0   5  -1 859.689 59.1102  21
   0   5  -1 906.461 59.2631  12
   0   5  -1 890.509 39.5513  16
   0   5   1 957.313 39.2153  16
   0   5   1 1011.28 57.0315   3
   0   5   1 960.554 53.2668  20
   0   5  -1 927.588 51.1272  20
  -1  -5  -1 4333.92 165.692  17
   1  -5   1 4372.68 227.488  10
   1  -5   1 4503.40 198.439   2
   1  -5   1 4519.51 174.294  14
  -1  -5  -1 4591.46 249.778  12
  -1  -5  -1 4402.39 217.999  18
   1  -5   1 4602.09 166.475  26
   1  -5   1 4564.80 238.759  11
  -1  -5  -1 4458.55 181.809  16
  -1  -5  -1 4622.48 230.503   1
  -1  -5  -1 4340.96 203.678  19
  -1  -5  -1 4480.78 197.059   2
   1  -5   1 4633.03 166.925   8
   1  -5   1 4624.50 220.461   3
   1  -5   1 4624.35 213.791  19
  -1  -5  -1 4525.54 226.451  13
  -1   5  -1 4451.05 162.731   9
   1   5   1 4778.46 229.787  13
  -1   5  -1 4510.90 235.081  12
   1   5   1 4457.11 243.113  12
   1   5   1 4747.47 216.725   3
  -1   5  -1 4440.80 222.136  13
  -1   5  -1 4903.20 202.466  20
  -1   5  -1 4613.57 181.464  15
   1   5   1 4545.41 166.938  17
  -1   5  -1 4655.41 230.274  21
   1   5   1 4719.65 205.118  20
   1   5   1 4356.71 225.841  21
   1   5   1 4591.20 179.902  16
   2  -5   1 306.048 31.9734  10
  -2  -5  -1 353.271 42.5612  18
   2  -5   1 276.382 40.1396  19
  -2  -5  -1 302.125 22.1056  15
   2  -5   1 300.084 32.3160  11
  -2  -5  -1 361.132 45.2730   1
   2  -5   1 309.265 37.1490   3
  -2  -5  -1 389.718 46.2118  12
   2  -5   1 303.034 16.8921   8
   2  -5   1 308.089 15.2804  14
   2  -5   1 297.363 16.6663  26
  -2  -5  -1 281.385 20.2231   9
  -2  -5  -1 279.167 32.8936  13
  -2   5  -1 280.342 33.7714  21
   2   5   1 293.689 18.0889  16
   2   5   1 311.325 42.1495  11
  -2   5  -1 300.776 17.1336   6
   2   5   1 289.010 15.2550  24
   2   5   1 306.568 33.6963  20
  -2   5  -1 267.351 14.2612   7
  -2   5  -1 296.773 14.4994   9
   2   5   1 300.435 37.6436  10
  -2   5  -1 303.113 13.8591  24
   2   5   1 273.355 32.3143  21
   2   5   1 290.464 17.2490   8
   2   5   1 302.296 19.4649  14
   2   5   1 332.522 19.6675  17
  -2   5  -1 255.696 26.1144  20
   2   5   1 281.104 17.1328  26
   3  -5   1 312.493 17.9582  26
  -3  -5  -1 332.572 52.9319   1
  -3  -5  -1 311.598 17.8183   7
   3  -5   1 307.523 17.9608   8
  -3  -5  -1 329.735 17.3140  25
  -3  -5  -1 332.922 22.6011   9
  -3  -5  -1 322.534 20.7550  22
   3  -5   1 183.558 35.5837   3
  -3  -5  -1 327.374 23.6233  15
  -3  -5  -1 315.405 20.7449   4
  -3  -5  -1 337.123 48.2551  18
   3  -5   1 300.333 33.9458  10
  -3  -5  -1 336.935 42.6585  12
  -3   5  -1 300.079 14.3140   9
   3   5   1 287.442 19.4586  26
   3   5   1 349.229 43.8660  21
   3   5   1 288.485 38.4244  20
  -3   5  -1 298.684 41.4088  21
   3   5   1 281.775 19.3801   8
  -3   5  -1 295.361 16.1875  25
   3   5   1 292.728 21.1319  14
  -3   5  -1 293.936 15.5273   7
  -3   5  -1 302.255 17.6269   6
   4  -5   1 730.380 32.9991  26
   4  -5   1 723.495 33.5393  14
  -4  -5  -1 720.062 32.4808   7
  -4  -5  -1 762.691 36.8892   4
  -4  -5  -1 721.920 39.4959  15
   4  -5   1 725.124 33.0400   8
  -4  -5  -1 663.596 31.7824  25
   4   5   1 745.391 36.0513   8
  -4   5  -1 713.285 29.1962  24
  -4   5  -1 724.412 32.8670   6
   4   5   1 742.303 31.0259  24
   4   5   1 715.121 37.7779  14
  -4   5  -1 701.213 31.9257  25
   4   5   1 739.464 35.8916  26
  -4   5  -1 713.198 30.5723   7
  -5  -5  -1 167.033 14.5158  25
  -5  -5  -1 167.138 14.5544   7
  -5  -5  -1 149.243 14.4391   4
  -5   5  -1 144.139 11.6933  24
  -5   5  -1 150.715 13.0655   6
  -5   5  -1 163.932 12.8964   7
   5   5   1 169.014 13.5008  24
  -5   5  -1 180.725 15.4296  25
  -6  -6   1 175.469 12.2453  25
  -6  -6   1 179.685 13.9689   4
   6   6  -1 173.646 11.1648   7
  -5  -6   1 307.760 22.0360  22
  -5  -6   1 309.205 19.9827   4
  -5  -6   1 298.581 18.2725  25
  -5   6   1 272.848 18.3740   6
  -5   6   1 249.905 15.3366  24
   5   6  -1 265.545 15.3603  24
  -4  -6   1 2591.78 107.789  15
   4  -6  -1 2447.47 96.3515  26
   4  -6  -1 2423.13 96.5621   8
   4  -6  -1 2548.79 99.8305  14
  -4  -6   1 2551.74 97.0133   9
  -4  -6   1 2619.49 100.561   4
  -4  -6   1 2718.58 101.165  22
  -4  -6   1 2531.07 92.4580  25
   4   6  -1 2513.58 98.4180   8
   4   6  -1 2473.53 104.062  14
   4   6  -1 2589.48 88.1557  24
   4   6  -1 2567.45 98.1965  26
  -4   6   1 2486.68 87.6709  24
  -4   6   1 2399.09 102.493  23
  -4   6   1 2505.24 95.9672   6
  -3  -6   1 64.3727 12.2294  15
   3  -6  -1 71.8731 9.95622   8
  -3  -6   1 49.6833 26.4853   2
  -3  -6   1 107.710 30.8074   1
  -3  -6   1 79.2975 24.9064  12
   3  -6  -1 74.2408 23.0588  10
   3  -6  -1 73.6777 10.0067  26
   3  -6  -1 67.7143 28.1113   2
   3  -6  -1 53.9704 37.9267  19
  -3  -6   1 62.3943 10.7458  22
  -3  -6   1 62.5544 11.9986   9
  -3  -6   1 63.9574 9.09502  25
  -3  -6   1 77.1094 34.8020  18
  -3  -6   1 38.1962 9.01821   5
   3  -6  -1 58.6052 7.87526  14
   3   6  -1 54.7116 9.39799   8
  -3   6   1 57.4087 10.7932  23
   3   6  -1 65.7903 7.59718  24
  -3   6   1 73.5461 21.1006  20
   3   6  -1 70.0323 10.2561  26
   3   6  -1 65.8028 27.8531  21
   3   6  -1 15.5501 23.1077  10
  -3   6   1 68.1940 30.9343   3
   3   6  -1 64.9678 11.4464  14
   3   6  -1 45.4902 26.0002  11
  -3   6   1 48.5801 8.22110   6
  -3   6   1 66.3645 7.43750  24
  -3   6   1 64.6311 9.11819   5
   3   6  -1 62.7700 22.4432  20
  -2  -6   1 3974.65 211.041  12
  -2  -6   1 3826.19 131.786  25
   2  -6  -1 3664.58 194.642  10
  -2  -6   1 3598.56 169.504   2
   2  -6  -1 3906.99 146.817  14
   2  -6  -1 3872.31 139.635   8
   2  -6  -1 3728.01 185.492  19
   2  -6  -1 3936.62 139.320  26
   2  -6  -1 3838.66 207.204  11
   2  -6  -1 3738.12 170.661   2
   2  -6  -1 3750.79 181.716  18
  -2  -6   1 3839.00 141.141   9
  -2  -6   1 3840.37 155.046  15
  -2  -6   1 3765.86 133.433   5
  -2  -6   1 3892.67 192.260  13
  -2   6   1 3799.55 135.643   9
   2   6  -1 3713.62 198.463  21
  -2   6   1 3798.85 144.984  23
   2   6  -1 3861.58 131.893   7
  -2   6   1 3750.91 137.308   6
   2   6  -1 3575.81 140.252   8
   2   6  -1 3756.71 210.797  11
  -2   6   1 3882.77 175.269  20
   2   6  -1 3602.87 139.915  26
   2   6  -1 3728.53 173.522  20
  -2   6   1 3657.78 150.474  15
   2   6  -1 3771.54 151.532  16
   2   6  -1 3765.19 199.945  10
  -2   6   1 4090.33 194.215   3
  -2   6   1 3745.48 133.368   5
   2   6  -1 3570.55 148.509  14
  -2   6   1 3612.74 127.024  24
   2   6  -1 3750.05 126.986  24
   2   6  -1 3960.61 140.986  17
   1  -6  -1 1195.95 70.5372  19
  -1  -6   1 1067.76 79.9369  12
   1  -6  -1 1236.81 47.5529  26
   1  -6  -1 1119.68 66.2803   2
  -1  -6   1 1215.78 66.3268   2
   1  -6  -1 1234.82 71.7517  18
  -1  -6   1 1132.95 69.9557  18
  -1  -6   1 1121.43 72.9763  13
   1  -6  -1 1245.43 47.7466   8
   1  -6  -1 1227.27 49.9942  14
   1  -6  -1 1229.25 78.7741  11
  -1  -6   1 1105.51 66.2719  19
   1  -6  -1 1186.29 75.2167  10
  -1   6   1 1185.04 67.1558  20
   1   6  -1 1176.09 76.8309  12
   1   6  -1 1197.42 47.2865  17
   1   6  -1 1167.93 72.6406  21
   1   6  -1 1209.52 50.2559  16
  -1   6   1 1174.36 67.9173  12
  -1   6   1 1164.47 53.0014  15
  -1   6   1 1232.94 72.5103   3
  -1   6   1 1150.44 63.5588  13
   1   6  -1 1119.52 72.7388  13
   1   6  -1 1148.13 63.4037  20
  -1   6   1 1168.83 46.4731   9
   0  -6  -1 341.285 35.3551   2
   0  -6  -1 339.565 17.9822   8
   0  -6   1 358.873 18.0911  17
   0  -6   1 348.337 18.2409  14
   0  -6  -1 320.689 17.8819  26
   0  -6   1 325.770 19.5907  16
   0  -6   1 316.983 33.7472  18
   0  -6   1 327.181 33.4168   2
   0  -6  -1 334.580 40.3979  11
   0  -6   1 298.038 36.5364  11
   0  -6   1 338.409 33.5078  19
   0  -6  -1 356.351 36.9235  10
   0  -6   1 309.693 16.5532  26
   0  -6  -1 396.947 34.7399  19
   0  -6  -1 341.494 18.4891  14
   0  -6  -1 390.223 43.5389  18
   0  -6   1 328.174 16.8269   8
   0  -6   1 320.706 33.9853  10
   0  -6  -1 315.068 17.5077  17
   0  -6  -1 318.829 20.1564  16
   0   6   1 271.139 32.8041  13
   0   6  -1 273.442 30.8731  12
   0   6   1 286.442 29.1559  20
   0   6  -1 284.636 21.1725  15
   0   6  -1 299.588 28.6914  20
   0   6   1 263.947 20.7802  15
   0   6   1 275.683 29.9031   3
   0   6  -1 326.802 38.1499  21
   0   6  -1 285.303 15.4143  17
   0   6  -1 284.690 17.4273   9
   0   6  -1 266.527 31.4147  13
   0   6   1 282.507 31.8126  12
   0   6   1 263.394 17.0910   9
   0   6  -1 286.798 15.6146  16
  -1  -6  -1 3075.67 166.201  13
   1  -6   1 3333.53 168.580  10
  -1  -6  -1 3205.17 117.617  17
   1  -6   1 3253.12 124.344  14
   1  -6   1 3207.96 161.173   3
  -1  -6  -1 3314.68 130.306  16
  -1  -6  -1 3131.25 146.003   2
  -1  -6  -1 3038.36 162.007  18
  -1  -6  -1 3107.97 184.869  12
   1  -6   1 3060.32 174.586  11
   1  -6   1 3069.71 146.168   2
   1  -6   1 3330.01 118.684  26
   1  -6   1 3307.43 118.863   8
   1  -6   1 3134.47 157.665  19
  -1   6  -1 3113.98 160.413  13
  -1   6  -1 3143.17 147.786  20
   1   6   1 3040.56 118.296  17
  -1   6  -1 3257.53 129.957  15
   1   6   1 3200.38 168.632  13
   1   6   1 3152.32 148.994  20
  -1   6  -1 3163.71 169.040  12
   1   6   1 3085.91 126.821  16
  -1   6  -1 3050.52 169.004  21
  -1   6  -1 3186.00 116.157   9
   1   6   1 3203.56 177.537  12
   2  -6   1 179.770 38.2378  19
  -2  -6  -1 167.391 17.7640   9
   2  -6   1 172.579 29.0200  10
   2  -6   1 170.941 11.7934  14
  -2  -6  -1 179.984 31.8006  13
  -2  -6  -1 181.864 19.3803  15
  -2  -6  -1 180.193 36.2815  12
   2  -6   1 193.949 31.3516  11
  -2  -6  -1 167.641 14.4472  22
  -2  -6  -1 186.906 37.6210   1
   2  -6   1 158.444 13.2716   8
   2  -6   1 161.525 31.7600   3
  -2  -6  -1 171.455 13.4655   7
   2  -6   1 166.613 13.4197  26
  -2  -6  -1 161.071 33.4933  18
  -2   6  -1 172.009 11.2276   7
  -2   6  -1 172.250 25.0239  20
   2   6   1 165.313 15.4592  17
   2   6   1 157.500 11.2390  24
  -2   6  -1 171.918 30.7775  21
  -2   6  -1 168.056 16.4312  15
  -2   6  -1 112.164 10.5544  25
   2   6   1 171.202 28.3754  20
   2   6   1 167.119 13.5123  16
  -2   6  -1 168.360 11.2430   9
  -2   6  -1 156.675 14.8044  23
  -2   6  -1 162.972 12.8373   6
  -2   6  -1 160.936 10.4115  24
  -3  -6  -1 3406.83 144.032  15
  -3  -6  -1 3511.96 131.594  22
  -3  -6  -1 3446.38 133.459   4
  -3  -6  -1 2803.47 192.698   1
  -3  -6  -1 3531.58 123.111   7
   3  -6   1 3399.41 129.485   8
   3  -6   1 3475.26 129.390  26
  -3  -6  -1 3430.30 131.721   9
  -3   6  -1 3506.34 121.448   7
   3   6   1 3584.75 131.145  17
  -3   6  -1 3448.23 121.374  25
  -3   6  -1 3392.17 127.200   6
   3   6   1 3472.03 141.276  16
   3   6   1 3549.32 118.448  24
   4  -6   1 806.851 37.3299  26
  -4  -6  -1 843.614 35.9827   7
  -4  -6  -1 845.769 40.1233   9
  -4  -6  -1 841.225 44.1733  15
   4  -6   1 765.718 37.0636   8
  -4  -6  -1 891.707 39.8901   4
  -4   6  -1 766.677 36.1825  25
  -4   6  -1 800.715 36.7526   6
  -4   6  -1 839.230 32.9291  24
   4   6   1 826.413 33.9139  24
  -4   6  -1 812.467 34.2880   7
  -5  -6  -1 300.660 19.3054   4
  -5   6  -1 256.352 17.2089   6
   5   6   1 259.244 15.1519  24
  -5   6  -1 280.509 16.7651   7
  -5   6  -1 253.926 14.9417  24
  -5   6  -1 268.172 20.7351  25
  -5  -7   1 406.327 22.9747   4
  -5  -7   1 447.004 24.5407  22
  -5  -7   1 447.560 21.7031  25
  -5   7   1 407.203 20.1562  24
  -5   7   1 406.669 22.8966   6
  -4  -7   1 270.846 20.8665   9
   4  -7  -1 268.372 19.5893  26
   4  -7  -1 269.216 19.8271   8
  -4  -7   1 264.375 19.7997  22
  -4  -7   1 261.676 17.1498  25
  -4  -7   1 249.758 24.4286  15
   4  -7  -1 241.866 20.5893  14
  -4  -7   1 253.791 18.3414   4
  -4   7   1 249.390 21.3307  23
   4   7  -1 238.516 19.8178   8
   4   7  -1 239.526 20.8032  14
   4   7  -1 250.219 14.3718  24
   4   7  -1 216.049 19.2761  26
  -4   7   1 266.223 15.3499  24
  -4   7   1 290.311 18.5569   6
   4   7  -1 244.431 15.4014   7
   3  -7  -1 3000.50 115.864  14
   3  -7  -1 2873.77 111.508   8
   3  -7  -1 3068.58 174.688  19
  -3  -7   1 2884.95 103.565  25
  -3  -7   1 2891.98 122.520  15
  -3  -7   1 3030.29 105.533   5
  -3  -7   1 2890.18 111.748   9
  -3  -7   1 2868.54 112.285  22
   3  -7  -1 2864.60 111.129  26
  -3   7   1 2872.79 100.083  24
  -3   7   1 2970.02 115.703  23
   3   7  -1 2849.74 119.312  16
  -3   7   1 2961.53 108.472   6
   3   7  -1 2886.71 99.3863  24
  -3   7   1 2600.51 143.487  20
   3   7  -1 2907.85 111.228  17
  -3   7   1 2789.85 105.549   5
   3   7  -1 3021.48 103.689   7
   2  -7  -1 548.466 55.3092  11
   2  -7  -1 497.462 26.5400  14
  -2  -7   1 493.468 46.7779  13
   2  -7  -1 532.320 26.8130   8
  -2  -7   1 529.545 24.4605   5
   2  -7  -1 540.975 49.6973  10
   2  -7  -1 498.512 52.0639   2
  -2  -7   1 520.403 52.7470  18
   2  -7  -1 547.316 59.9712  19
  -2  -7   1 515.658 23.6934  25
  -2  -7   1 553.492 26.8050  22
   2  -7  -1 554.347 26.8016  26
  -2  -7   1 564.280 54.0415  12
  -2  -7   1 519.303 45.9223   2
  -2   7   1 506.484 28.1138  15
   2   7  -1 534.636 47.8029  21
  -2   7   1 512.203 45.0340  20
  -2   7   1 509.491 27.3747  23
  -2   7   1 533.391 22.8078  24
   2   7  -1 498.877 41.2997  20
   2   7  -1 531.596 25.9734  17
   2   7  -1 540.679 26.6276  16
   2   7  -1 502.967 21.6160  24
  -2   7   1 533.979 24.0442   9
   2   7  -1 540.390 22.9313   7
  -2   7   1 496.347 25.1465   5
  -2   7   1 607.283 52.6167   3
  -2   7   1 543.519 24.9890   6
  -1  -7   1 1031.90 75.3218  12
   1  -7  -1 965.628 69.1052  18
  -1  -7   1 852.154 38.2000  17
   1  -7  -1 934.449 41.8357  14
  -1  -7   1 890.933 37.7751   5
   1  -7  -1 935.067 71.3950  11
   1  -7  -1 948.528 66.0136  19
  -1  -7   1 886.146 42.2822  16
   1  -7  -1 942.198 40.7838   8
   1  -7  -1 932.979 41.0928  22
  -1  -7   1 1009.40 64.0539  18
   1  -7  -1 980.321 40.8712  26
  -1  -7   1 914.012 66.6568  13
  -1  -7   1 874.260 58.3372  19
  -1  -7   1 935.759 40.1889  22
   1  -7  -1 954.935 67.8191  10
  -1  -7   1 900.169 60.4184   2
   1   7  -1 916.988 63.0140  21
  -1   7   1 909.241 35.7619  24
  -1   7   1 942.036 41.1349  23
  -1   7   1 941.719 37.5598   6
   1   7  -1 944.637 36.3519   7
   1   7  -1 874.200 63.5704  13
   1   7  -1 918.058 40.6723  16
   1   7  -1 884.318 55.3013  20
   1   7  -1 899.974 38.6395  17
  -1   7   1 948.631 63.7680   3
  -1   7   1 945.779 38.4587   5
  -1   7   1 1044.16 45.9809  15
   1   7  -1 928.394 34.7602  24
   1   7  -1 948.698 67.1034  12
  -1   7   1 996.728 39.0244   9
  -1   7   1 981.591 62.5602  20
   0  -7   1 704.543 52.5906  19
   0  -7   1 597.721 49.7751   2
   0  -7   1 706.349 34.6481  16
   0  -7   1 701.314 30.8404   8
   0  -7   1 688.088 31.4987  17
   0  -7   1 678.713 29.6600   5
   0  -7  -1 694.487 36.4703  16
   0  -7  -1 685.635 32.3871   8
   0  -7  -1 705.961 62.1349  11
   0  -7   1 689.699 30.6291  26
   0  -7  -1 623.615 52.8562  19
   0  -7  -1 740.600 58.1608  10
   0  -7  -1 722.812 33.5329  14
   0  -7  -1 694.926 31.1740  17
   0  -7   1 687.969 33.1100  14
   0  -7   1 659.104 52.1525  18
   0  -7  -1 625.167 57.9325  18
   0  -7  -1 672.433 32.9124  22
   0  -7  -1 656.506 54.0823   2
   0  -7  -1 674.420 32.2321  26
   0   7   1 661.910 48.4577   3
   0   7   1 713.485 37.0975  15
   0   7   1 684.090 31.5423   9
   0   7  -1 697.544 52.3463  12
   0   7   1 679.869 54.3209  13
   0   7  -1 693.265 37.1446  15
   0   7  -1 661.386 26.8939  24
   0   7   1 739.481 48.2911  20
   0   7  -1 642.200 31.2222   9
   0   7   1 685.667 27.2612  24
   0   7  -1 620.435 53.2556  21
   0   7  -1 654.355 28.1914   7
   0   7   1 694.970 30.2203   5
   0   7   1 727.796 52.9306  12
   0   7  -1 673.904 48.3845  20
   0   7  -1 674.985 50.7564  13
  -1  -7  -1 814.640 66.4498  18
   1  -7   1 843.174 64.0524  10
   1  -7   1 783.518 67.6704  11
   1  -7   1 863.704 37.4809  26
   1  -7   1 822.089 60.2326   2
  -1  -7  -1 828.764 59.0677   2
   1  -7   1 832.062 39.3688  14
  -1  -7  -1 875.372 39.6181  22
  -1  -7  -1 834.555 36.1809   5
   1  -7   1 806.595 62.8762  19
   1  -7   1 814.299 59.4016   3
   1  -7   1 860.461 37.6135   8
  -1  -7  -1 876.027 41.8301  16
   1  -7   1 830.445 36.2832   5
  -1  -7  -1 909.324 36.8492  17
  -1   7  -1 776.757 65.1851  21
  -1   7  -1 900.326 37.3591   9
   1   7   1 928.598 67.2361  12
  -1   7  -1 866.873 33.1533  24
  -1   7  -1 853.730 57.5577  13
  -1   7  -1 864.149 35.3581   6
  -1   7  -1 878.670 58.4245  12
   1   7   1 911.778 67.2217  13
  -1   7  -1 842.371 34.6840   7
  -1   7  -1 915.935 57.2476  20
  -1   7  -1 856.702 38.5689  23
   1   7   1 900.766 38.1214  16
   1   7   1 852.356 32.9581  24
  -1   7  -1 912.444 43.1181  15
   1   7   1 934.935 37.4631  17
   1   7   1 877.081 56.3163  20
   2  -7   1 2070.35 124.766  19
  -2  -7  -1 2137.01 123.169  18
   2  -7   1 2259.85 84.8898   8
  -2  -7  -1 2181.15 85.7740  22
  -2  -7  -1 2166.70 138.757  12
   2  -7   1 2109.08 127.101  10
   2  -7   1 2161.34 87.9826  14
   2  -7   1 2239.42 84.6581  26
   2  -7   1 1931.09 122.857   3
  -2   7  -1 2148.27 81.3335   9
  -2   7  -1 2196.88 81.9937   6
  -2   7  -1 2177.53 78.9249   7
   2   7   1 2194.49 76.0114  24
  -2   7  -1 2089.53 112.325  20
   2   7   1 2279.62 84.5391  17
   2   7   1 2156.55 113.720  20
   2   7   1 2197.62 90.0912  16
  -2   7  -1 2199.47 92.3898  15
  -2   7  -1 2149.91 87.1634  23
   2   7   1 2113.56 77.9019   7
  -2   7  -1 2111.08 75.8257  24
  -3  -7  -1 779.126 44.0155  15
  -3  -7  -1 739.744 36.9670   4
   3  -7   1 765.628 37.0909  14
   3  -7   1 756.827 36.9389   8
   3  -7   1 781.886 37.0016  26
  -3  -7  -1 781.213 36.7983  22
   3   7   1 771.087 32.5098   7
  -3   7  -1 834.645 35.9463   6
   3   7   1 819.467 37.4564  17
   3   7   1 775.473 38.7197  16
  -3   7  -1 810.620 33.4154   7
  -4  -7  -1 660.389 33.7844   4
  -4  -7  -1 726.189 36.6631   9
   4  -7   1 614.373 33.3067  26
   4  -7   1 619.308 33.3996   8
   4   7   1 657.671 35.4135  17
  -4   7  -1 749.034 31.3467   7
  -4   7  -1 755.487 33.2785   6
   4   7   1 673.381 36.0867  16
   4   7   1 768.197 29.7188  24
   4   7   1 752.481 30.4451   7
  -4   7  -1 715.214 29.4182  24
  -5  -7  -1 160.192 14.1475   4
  -5   7  -1 137.847 12.0778   6
   5   7   1 150.081 11.0072   7
  -5   7  -1 138.383 11.6348  24
  -5   7  -1 157.553 13.6363   7
   5   7   1 149.974 10.9096  24
  -5  -8   1 601.481 28.9268   4
  -5  -8   1 625.146 29.4518  22
  -5   8   1 625.087 26.5905  24
  -5   8   1 639.526 29.1214   6
   5   8  -1 644.170 26.1302   7
  -4  -8   1 102.052 10.6102  25
  -4  -8   1 104.653 14.3386   9
  -4  -8   1 149.488 14.3614  22
   4  -8  -1 119.469 13.2812  26
   4  -8  -1 106.528 13.0651   8
  -4   8   1 139.154 13.0674   6
  -4   8   1 139.499 11.9058  24
   4   8  -1 55.9809 12.1475  17
   4   8  -1 73.6958 11.9668  16
  -4   8   1 105.753 14.1008  23
   4   8  -1 108.506 9.57944   7
   4   8  -1 110.101 9.17980  24
  -3  -8   1 21.0193 7.46176  25
   3  -8  -1 20.3711 11.5515  26
  -3  -8   1 27.7705 9.08340  22
   3  -8  -1 16.8782 10.8375  14
  -3  -8   1 31.3138 12.7121   9
   3  -8  -1 29.9596 11.6581   8
  -3  -8   1 25.5905 12.8881  15
  -3  -8   1 20.9349 8.84241   5
  -3   8   1 23.3585 8.47183   6
  -3   8   1 32.7663 9.67187   5
   3   8  -1 15.6510 8.73110  16
   3   8  -1 24.3121 10.4593  17
   3   8  -1 20.6739 5.62648   7
   3   8  -1 20.7786 5.84602  24
  -3   8   1 38.2201 10.9698  23
  -3   8   1 21.1929 7.51738  24
  -2  -8   1 89.4798 10.1251   5
  -2  -8   1 110.879 35.9991  18
   2  -8  -1 72.8806 37.5086   2
   2  -8  -1 107.884 14.1583   8
  -2  -8   1 101.364 11.3066  22
   2  -8  -1 103.168 12.8735  14
   2  -8  -1 68.7473 45.6865  19
   2  -8  -1 103.358 13.7499  26
  -2  -8   1 89.9155 28.9789   2
  -2   8   1 80.3171 30.7910  20
   2   8  -1 93.4325 8.53974  24
  -2   8   1 81.9633 30.9678   3
  -2   8   1 85.7318 9.53116   6
  -2   8   1 79.2785 10.4342   5
   2   8  -1 108.090 23.9285  20
  -2   8   1 64.8515 11.2404  23
   2   8  -1 153.156 12.1097  16
  -2   8   1 114.989 14.8205  15
   2   8  -1 80.4210 8.02689   7
  -2   8   1 122.198 11.0981   9
   2   8  -1 5.11588 25.8440  21
  -2   8   1 92.4016 9.52411  24
   2   8  -1 129.293 10.1585  25
   2   8  -1 113.533 11.8600  17
   1  -8  -1 2423.27 97.9067  14
  -1  -8   1 2380.33 93.7882  23
   1  -8  -1 2295.99 93.8546   8
   1  -8  -1 2339.53 94.6070  22
   1  -8  -1 2259.43 132.273  19
  -1  -8   1 2223.44 127.124  18
  -1  -8   1 2410.17 87.6515   5
  -1  -8   1 2400.42 90.3479  17
   1  -8  -1 2134.88 133.318  18
  -1  -8   1 2308.58 122.741  19
  -1  -8   1 2426.72 92.8620  22
  -1  -8   1 2415.75 121.609   2
   1  -8  -1 2383.92 93.8874  26
  -1  -8   1 2452.89 99.2423  16
   1  -8  -1 2194.50 136.575  10
   1  -8  -1 2357.90 146.995  11
  -1   8   1 2467.81 90.2235   9
   1   8  -1 2352.04 118.555  20
   1   8  -1 2511.25 90.2226  17
  -1   8   1 2401.11 88.4675   5
  -1   8   1 2546.93 84.0592  24
  -1   8   1 2547.37 126.731  20
   1   8  -1 2502.89 85.8176   7
   1   8  -1 2446.69 82.5790  24
   1   8  -1 2510.17 96.9417  16
  -1   8   1 2610.24 102.721  15
  -1   8   1 2493.29 95.5891  23
  -1   8   1 2466.56 88.6200   6
   1   8  -1 2069.06 138.667  12
  -1   8   1 2422.11 129.459   3
   1   8  -1 1934.14 130.509  13
   0  -8  -1 1623.24 97.5225   2
   0  -8  -1 1660.13 69.4037  22
   0  -8   1 1852.08 64.4197   5
   0  -8  -1 1532.61 96.4909  19
   0  -8   1 1764.68 93.2640   2
   0  -8  -1 1573.13 104.042  18
   0  -8   1 1698.56 73.7824  16
   0  -8   1 1659.64 68.7389  23
   0  -8   1 1498.91 95.0760  19
   0  -8  -1 1682.30 65.2279   5
   0  -8   1 1660.69 66.8885  17
   0  -8  -1 1687.59 75.8894  16
   0  -8  -1 1698.98 66.8670  17
   0   8   1 1739.32 68.6504  23
   0   8  -1 1765.04 105.246  12
   0   8  -1 1736.20 62.5331   7
   0   8   1 1703.99 92.4848  20
   0   8  -1 1697.74 75.6130  15
   0   8  -1 1774.95 93.2411  20
   0   8   1 1625.31 66.1947   9
   0   8   1 1671.45 60.0080  24
   0   8   1 1739.36 102.486  12
   0   8  -1 1683.29 59.8299  24
   0   8   1 1651.36 75.3016  15
   0   8  -1 1630.40 66.7410   9
   0   8  -1 1561.23 99.3099  13
   1  -8   1 57.0352 10.9465  14
  -1  -8  -1 31.1705 7.81744  17
   1  -8   1 33.1906 32.4567  19
   1  -8   1 56.0572 9.46640   8
   1  -8   1 50.7891 9.22700  26
   1  -8   1 34.0427 22.8033   3
   1  -8   1 4.97631 26.8428  10
  -1  -8  -1 16.2022 32.7226  18
   1  -8   1 48.6549 8.84900   5
  -1  -8  -1 35.9989 9.26060  22
  -1  -8  -1 50.5339 10.9401  16
  -1  -8  -1 35.1409 8.08531   5
  -1  -8  -1 40.6802 24.1299   2
   1  -8   1 38.9032 26.5128   2
   1  -8   1 7.66883 33.0974  11
  -1   8  -1 36.5111 7.18294   7
   1   8   1 92.0354 23.4436  20
  -1   8  -1 46.3402 25.9682  20
  -1   8  -1 64.5949 10.1944   9
   1   8   1 40.4658 6.46368   7
  -1   8  -1 57.0191 12.2153  15
  -1   8  -1 39.9713 7.30935   6
   1   8   1 45.6295 8.25558  17
   1   8   1 43.9017 6.43225  16
  -1   8  -1 61.5963 7.92789  24
  -1   8  -1 27.8838 23.0962  12
   1   8   1 21.8865 24.2521  12
  -2  -8  -1 474.310 25.7521  22
   2  -8   1 451.969 25.4276  26
   2  -8   1 424.860 26.6067  14
   2  -8   1 476.486 25.5226   8
   2   8   1 447.735 20.8407   7
   2   8   1 442.715 23.9517  16
  -2   8  -1 497.070 29.3062  15
  -2   8  -1 458.183 23.3610   6
  -2   8  -1 486.266 24.2914   9
  -2   8  -1 475.975 23.3831   7
  -2   8  -1 446.856 21.5645  24
   2   8   1 458.094 20.7975  24
   2   8   1 478.696 24.9001  17
  -3  -8  -1 69.7115 15.9894   9
   3  -8   1 72.0193 12.4708  26
  -3  -8  -1 135.897 13.3440  22
   3  -8   1 80.9433 13.6415  14
   3  -8   1 93.4139 14.2589  23
   3  -8   1 77.6438 12.5094   8
   3   8   1 67.3713 7.87804   7
   3   8   1 120.255 13.1147  16
  -3   8  -1 98.3664 11.0327   6
  -3   8  -1 73.6940 9.29071  24
  -3   8  -1 122.739 11.8983   7
   3   8   1 114.409 13.5928  17
   3   8   1 83.3353 8.89646  24
  -4  -8  -1 602.157 29.9077  22
  -4  -8  -1 596.208 30.5539   4
  -4   8  -1 666.491 29.3351   7
   4   8   1 640.494 26.2477  24
  -4   8  -1 637.135 30.0249   6
   4   8   1 590.617 26.1716   7
  -4   8  -1 643.996 27.2221  24
   5   8   1 938.985 32.5679  24
  -5   8  -1 783.125 35.2848   7
  -5   8  -1 908.555 33.8888  24
  -5   8  -1 894.522 36.2628   6
  -5  -9   1 521.013 26.1145  22
  -5   9   1 639.075 26.7912   6
   5   9  -1 635.057 24.1033   7
  -4  -9   1 396.108 21.6745  22
  -4   9   1 324.758 19.4370  24
   4   9  -1 339.930 16.4554  24
   4   9  -1 359.007 17.2271  25
  -4   9   1 358.586 20.0935   6
  -4   9   1 369.832 22.6136  23
   4   9  -1 339.568 17.4981   7
   3  -9  -1 2769.43 108.889   5
   3  -9  -1 2953.33 113.744   8
  -3  -9   1 2930.89 113.840  22
  -3  -9   1 2838.26 105.924   5
   3  -9  -1 2919.34 119.794  14
   3  -9  -1 2904.75 113.327  26
   3   9  -1 2926.99 111.863  17
   3   9  -1 2858.78 100.593  24
   3   9  -1 3028.15 120.309  16
   3   9  -1 3057.50 104.805   7
  -3   9   1 3044.29 117.147  23
  -3   9   1 2998.37 103.399  24
  -3   9   1 3031.04 109.725   6
   2  -9  -1 379.683 24.3536  26
  -2  -9   1 362.369 19.7148   5
   2  -9  -1 375.380 24.7562  14
   2  -9  -1 355.189 24.0850   8
   2  -9  -1 349.215 22.7572   5
  -2  -9   1 367.821 21.1999  22
   2   9  -1 332.866 19.5297  16
  -2   9   1 340.326 25.9163  15
  -2   9   1 330.750 18.9834  24
  -2   9   1 359.032 19.3125   6
  -2   9   1 365.700 20.0851   9
   2   9  -1 353.411 17.9066   7
   2   9  -1 342.535 20.0775  17
   2   9  -1 314.809 16.7772  24
  -2   9   1 326.639 22.2066  23
   1  -9  -1 925.040 44.4950  22
   1  -9  -1 996.366 46.1234  14
  -1  -9   1 1009.03 42.7133  23
  -1  -9   1 964.702 42.0703  22
  -1  -9   1 993.214 40.3537  17
  -1  -9   1 979.588 40.1149   5
   1  -9  -1 938.621 44.1604  26
   1  -9  -1 936.309 44.1699   8
   1  -9  -1 915.699 42.2405   5
  -1  -9   1 977.392 44.6852  16
  -1   9   1 1000.28 49.4724  15
  -1   9   1 1008.03 42.1389   9
  -1   9   1 928.001 43.4935  23
   1   9  -1 940.456 38.2355   7
   1   9  -1 948.634 36.5510  24
  -1   9   1 968.797 37.8919  24
  -1   9   1 971.572 39.5285   6
   0  -9   1 394.457 25.6016  16
   0  -9   1 387.953 22.7268  17
   0  -9  -1 404.676 27.6244  16
   0  -9  -1 399.386 22.3759   5
   0  -9  -1 432.510 22.6575  17
   0  -9   1 406.092 21.4372   5
   0  -9  -1 391.782 23.5104  22
   0  -9   1 393.258 22.2114  23
   0   9   1 391.039 28.6155  15
   0   9  -1 343.062 18.8197   7
   0   9   1 347.826 17.8804  24
   0   9  -1 353.661 18.0291  24
   0   9   1 340.403 22.0780   9
   0   9  -1 378.108 29.5123  15
   0   9  -1 367.870 23.1587   9
   1  -9   1 728.537 37.9592  17
  -1  -9  -1 798.025 39.0033  16
   1  -9   1 777.694 37.5319  23
  -1  -9  -1 810.618 34.4756  17
   1  -9   1 778.428 36.3246   8
   1  -9   1 806.990 34.7256   5
   1  -9   1 755.656 36.3060  26
   1  -9   1 755.876 39.4197  14
  -1  -9  -1 779.989 34.2505   5
  -1  -9  -1 791.675 36.9633  22
   1  -9   1 809.821 42.8071  16
  -1   9  -1 808.625 32.1631  24
  -1   9  -1 736.706 40.8789  15
   1   9   1 800.512 31.1980  24
  -1   9  -1 778.474 36.3153   9
   1   9   1 750.683 31.5065   7
  -1   9  -1 804.090 33.9831   7
   2  -9   1 2348.57 93.9967  23
   2  -9   1 2215.30 90.4924   8
   2  -9   1 2175.50 95.9472  14
   2  -9   1 2246.23 90.3897  26
  -2  -9  -1 2327.68 91.4024  22
   2   9   1 2291.11 87.3399  17
  -2   9  -1 2408.47 85.7704   7
   2   9   1 2396.79 80.7498  24
   2   9   1 2325.03 93.6937  16
  -2   9  -1 2352.24 86.8143   6
   2   9   1 2238.97 82.4668   7
  -2   9  -1 2233.39 97.1046  15
  -2   9  -1 2411.84 82.0235  24
  -2   9  -1 2250.26 87.7948   9
   3  -9   1 407.006 25.1451  23
  -3  -9  -1 392.202 22.9023  22
   3   9   1 373.982 22.3605  16
  -3   9  -1 411.839 22.6328   7
   3   9   1 375.993 18.7733   7
  -3   9  -1 431.542 21.9493   6
  -3   9  -1 387.467 20.4961  24
  -4  -9  -1 1184.18 49.5205  22
   4   9   1 1236.99 45.3996   7
  -4   9  -1 1264.38 49.2241   6
  -4   9  -1 1192.60 45.6559  24
  -4   9  -1 1235.30 48.2522   7
   4   9   1 1213.33 44.2592  24
  -4 -10   1 732.779 32.4204  22
  -4  10   1 702.609 31.0040   6
  -4  10   1 689.899 29.8103  24
   4  10  -1 782.002 29.0438   7
   4  10  -1 681.898 26.9990  24
   3 -10  -1 25.6343 10.2036   5
  -3 -10   1 32.3307 7.75080   5
  -3 -10   1 16.7287 8.55428  22
   3  10  -1 26.8746 5.90948   7
  -3  10   1 50.9730 8.96196  24
   3  10  -1 22.6774 5.74090  24
  -3  10   1 33.9280 7.68570   6
  -3  10   1 37.3126 10.2279  23
   2 -10  -1 945.191 44.1795  26
   2 -10  -1 911.417 42.4468   5
   2 -10  -1 958.879 47.2361  14
   2 -10  -1 936.882 44.3840   8
  -2 -10   1 947.808 42.8369  22
  -2 -10   1 969.847 40.2115   5
  -2  10   1 1024.96 44.5586  23
   2  10  -1 984.247 36.7780  24
   2  10  -1 1035.49 38.7276   7
  -2  10   1 1022.26 39.3972  24
   2  10  -1 947.377 39.3139  17
  -2  10   1 921.249 47.0530  15
  -2  10   1 983.789 40.3286   9
  -2  10   1 1003.41 40.5276   6
   2  10  -1 959.013 41.6743  16
  -1 -10   1 174.945 15.1641  22
  -1 -10   1 186.331 16.1989  16
   1 -10  -1 143.155 14.6790   5
   1 -10  -1 187.490 16.4758  22
  -1 -10   1 180.069 14.2288  17
  -1 -10   1 184.904 14.4571   5
   1  10  -1 185.686 12.6505   7
  -1  10   1 179.878 13.7284   6
  -1  10   1 199.033 13.5146  24
  -1  10   1 174.365 16.1410   9
  -1  10   1 205.455 21.1287  15
  -1  10   1 164.638 16.1719  23
   1  10  -1 176.537 11.6275  24
   0 -10   1 196.552 14.9200   5
   0 -10   1 209.329 16.4094  17
   0 -10  -1 171.015 15.6328  22
   0 -10   1 210.197 19.3043  16
   0 -10   1 167.235 16.1020  23
   0 -10  -1 189.048 16.3169   5
   0 -10  -1 208.071 16.2416  17
   0 -10  -1 178.937 19.2774  16
   0  10   1 162.264 20.6609  15
   0  10   1 170.703 16.1460   9
   0  10  -1 162.435 12.6465   7
   0  10   1 139.898 11.7237  24
   0  10  -1 137.855 11.6719  24
  -1 -10  -1 473.449 26.4502  22
  -1 -10  -1 469.860 24.2566  17
   1 -10   1 476.199 26.6666  23
   1 -10   1 473.118 31.9394  16
  -1 -10  -1 446.012 27.5839  16
   1 -10   1 458.618 28.6950  17
   1 -10   1 471.261 24.9678   5
  -1 -10  -1 474.216 24.8448   5
  -1  10  -1 538.629 22.9509  24
  -1  10  -1 513.726 31.0903  15
   1  10   1 521.553 21.7375  24
  -1  10  -1 525.222 24.3771   7
  -1  10  -1 531.661 27.3985   9
  -2 -10  -1 148.561 14.1012  22
   2 -10   1 149.267 15.5918  23
  -2  10  -1 143.789 12.0562   6
   2  10   1 150.033 11.2090  24
  -2  10  -1 157.244 12.9105  24
   2  10   1 143.986 11.0451   7
  -2  10  -1 158.955 13.7904   9
  -2  10  -1 162.335 13.4524   7
  -3 -10  -1 1200.71 50.4521  22
   3 -10   1 1196.13 52.3378  23
   3  10   1 1184.55 44.8924   7
  -3  10  -1 1263.54 48.3373   7
  -3  10  -1 1187.84 47.8317   6
  -4  10  -1 111.280 9.10403  24
  -4  10  -1 117.399 10.5629   6
   4  10   1 125.372 8.38172  24
  -4 -11   1 272.695 15.4372  22
   4  11  -1 275.423 13.1203   7
  -4  11   1 282.554 14.7048   6
  -3 -11   1 188.216 14.6377  22
   3 -11  -1 196.828 15.2506   5
   3  11  -1 195.505 11.6947   7
  -3  11   1 170.798 12.9245   6
  -3  11   1 190.995 13.5634  24
   3  11  -1 178.578 10.7956  24
  -2 -11   1 758.051 32.8042   5
  -2 -11   1 771.339 35.2530  22
   2 -11  -1 743.234 34.4866   5
  -2  11   1 777.276 31.6549  24
   2  11  -1 782.781 31.2641   7
   2  11  -1 762.077 29.9706  24
  -2  11   1 844.826 36.9916  23
  -2  11   1 739.877 32.4443   6
  -1 -11   1 578.155 29.4141  22
  -1 -11   1 601.491 27.7200   5
  -1  11   1 607.102 29.4826   9
   1  11  -1 610.082 25.2055  24
   1  11  -1 619.140 26.3973   7
  -1  11   1 637.621 26.3601  24
   0 -11   1 513.347 30.9658  16
   0 -11   1 535.518 28.1093  23
   0 -11  -1 562.478 27.0458   5
   0 -11  -1 512.126 32.0506  16
   0 -11   1 564.357 26.6432   5
   0 -11  -1 580.996 29.5021  22
   0  11  -1 567.144 23.7375  24
   0  11   1 592.364 24.0477  24
   0  11  -1 538.890 24.4190   7
  -1 -11  -1 1353.42 54.0602   5
   1 -11   1 1382.25 59.4156  23
  -1 -11  -1 1395.88 58.4260  22
   1 -11   1 1400.31 54.7460   5
   1  11   1 1436.25 51.0123  24
  -1  11  -1 1421.10 51.5130  24
  -1  11  -1 1421.29 53.4487   7
   2 -11   1 107.066 12.4550  23
  -2 -11  -1 127.970 12.0030  22
   2  11   1 102.122 8.50158  24
  -2  11  -1 98.7825 9.66971   7
  -2  11  -1 116.294 10.2970  24
   3 -11   1 26.3181 8.03230  23
  -3 -11  -1 30.6081 7.07336  22
  -3  11  -1 24.9468 6.03106   7
   3  11   1 27.4205 4.95800  24
  -3  11  -1 23.7983 5.60792   6
  -3  11  -1 24.9735 6.30085  24
  -3 -12   1 3.71750 5.91237  22
   3 -12  -1 7.01563 6.62006  23
  -3  12   1 -0.4140 4.96009  24
  -3  12   1 4.04501 4.54684   6
   3  12  -1 1.37224 3.63593  24
   3  12  -1 1.42339 3.73016   7
   2 -12  -1 461.496 23.5498   5
  -2 -12   1 495.974 22.5863   5
   2 -12  -1 509.563 25.7165  23
  -2 -12   1 509.074 24.3400  22
   2  12  -1 508.638 21.2737   7
  -2  12   1 513.033 21.5142  24
   2  12  -1 497.953 20.2085  24
  -1 -12   1 262.219 15.8640   5
   1 -12  -1 251.714 17.6720  23
   1 -12  -1 245.838 16.7133   5
   1  12  -1 247.340 13.8499   7
  -1  12   1 278.837 14.1696  24
   1  12  -1 263.337 13.3529  24
   0 -12  -1 447.783 24.0820  22
   0 -12   1 441.286 23.5062  23
   0 -12   1 494.007 22.6126   5
   0 -12  -1 483.390 22.7704   5
   0  12  -1 449.466 19.8425  24
   0  12  -1 444.417 20.7472   7
   0  12   1 458.610 19.9574  24
  -1 -12  -1 332.722 17.6515   5
   1 -12   1 323.774 17.7801   5
  -1 -12  -1 334.716 19.6026  22
   1 -12   1 326.939 19.6458  23
   1  12   1 335.073 15.5062  24
  -1  12  -1 335.290 16.8959   7
  -1  12  -1 351.190 16.3915  24
   2 -12   1 30.3420 7.31983  23
  -2 -12  -1 38.5550 7.64420  22
  -2  12  -1 39.3126 6.00014  24
  -2  12  -1 32.2407 5.20618   7
   2  12   1 33.9709 5.01412  24
  -1 -13   1 365.548 17.3588   5
   1 -13  -1 363.227 17.6411   5
  -1  13   1 356.444 15.4492  24
   1  13  -1 382.717 15.3103  24
   1  13  -1 339.065 15.6024   7
   0 -13   1 159.850 11.4402   5
   0 -13  -1 155.291 11.2390   5
   0  13  -1 160.788 9.26903  24
   0  13  -1 133.877 9.01654   7
   0  13   1 168.141 9.30132  24
   1 -13   1 26.3530 5.68794   5
   1 -13   1 17.6427 6.48995  23
  -1 -13  -1 25.1368 6.76544  22
  -1  13  -1 22.1528 4.64421  24
   1  13   1 27.0123 4.34015  24
  -6   0   2 4548.19 179.181   4
  -6   0   2 4803.77 163.354   7
  -6   0   2 4597.79 163.555  25
  -5   0   2 32.3781 11.7888   4
  -5   0   2 18.7647 8.49072  25
  -5   0   2 16.7145 6.87933   7
  -4   0   2 626.556 44.1595  18
  -4   0   2 658.989 63.7822   1
  -4   0   2 595.776 30.2824   4
   4   0  -2 681.326 58.1754  21
  -4   0   2 650.415 26.8524  25
  -4   0   2 516.074 26.1578  22
  -3   0   2 167.370 20.3915  19
   3   0  -2 206.774 20.1650  11
   3   0  -2 235.457 30.3228  21
  -3   0   2 196.915 21.2974  18
  -3   0   2 216.227 30.4631   1
  -3   0   2 203.868 20.2627   2
   2   0  -2 9.20395 7.01174  10
  -2   0   2 6.42484 7.82373  18
   2   0  -2 6.36632 6.93156  11
   2   0  -2 2.61286 10.6365   1
   2   0  -2 4.62752 5.19910  20
  -2   0   2 9.52881 8.20536  19
  -2   0   2 1.37403 2.75104  15
  -2   0   2 3.88401 2.16747   9
   2   0  -2 2.51802 5.08665  10
  -2   0   2 1.73480 8.66196   3
  -2   0   2 5.19697 7.10622   2
   2   0  -2 7.74668 12.7612  21
  -1   0   2 5752.14 193.601   9
  -1   0   2 6044.51 243.471  18
  -1   0   2 5695.04 278.296  12
   1   0  -2 5298.36 277.337  11
  -1   0   2 5114.02 214.109  15
  -1   0   2 4975.29 237.879  19
   1   0  -2 5584.52 266.455  21
   0   0  -2 1813.01 95.2988  11
   0   0   2 1788.38 80.2430  19
   0   0  -2 1758.83 90.7501   1
   0   0   2 1644.79 76.5818  20
   0   0   2 1704.81 70.3905  16
   0   0  -2 1763.39 88.4441  21
   0   0   2 1751.97 88.3813  10
   0   0  -2 1706.08 93.7709  12
   0   0  -2 1882.76 87.8444  13
   0   0  -2 1858.39 89.7284  10
   0   0   2 1783.90 94.8455  12
   0   0   2 1786.91 88.0191   3
   0   0   2 1796.14 88.1978  13
   0   0   2 1687.36 92.8214  11
   0   0  -2 1712.02 80.6548  18
   0   0  -2 1766.41 64.7722  17
   0   0   2 1783.48 64.8733  17
   0   0   2 1776.99 73.8977   2
  -1   0  -2 5548.31 265.869  12
  -1   0  -2 4978.92 185.900  17
  -1   0  -2 4391.17 249.427  10
   1   0   2 5255.00 249.670  10
   1   0   2 4845.13 185.700  26
   1   0   2 5071.64 247.477  13
  -1   0  -2 5683.76 246.360  13
  -1   0  -2 5036.81 183.288   9
  -1   0  -2 5579.82 202.772  15
   1   0   2 5338.56 263.857  11
  -1   0  -2 4781.28 264.854  11
  -1   0  -2 5503.88 252.557  21
  -1   0  -2 5493.69 254.912   1
  -1   0  -2 5011.06 230.373  18
   1   0   2 4875.88 186.184   8
   1   0   2 5384.36 196.959  14
   1   0   2 4959.29 266.875  12
  -1   0  -2 5231.34 202.002  16
   1   0   2 5499.91 223.363  19
   1   0   2 5415.63 186.790  17
   1   0   2 4875.19 222.080  20
  -2   0  -2 132.525 16.4984  13
   2   0   2 103.042 16.7047  11
   2   0   2 129.109 17.3187  20
  -2   0  -2 159.212 21.7094  21
   2   0   2 111.768 7.94998   8
  -2   0  -2 111.559 9.67524  15
  -2   0  -2 118.758 29.2846   1
   2   0   2 109.341 8.47841  14
   2   0   2 102.593 15.7608  10
   2   0   2 119.812 20.2489   3
  -2   0  -2 115.561 17.0529  12
   2   0   2 113.444 7.99638  26
  -2   0  -2 105.030 7.99742   9
   3   0   2 2.81718 18.9542   3
   3   0   2 18.7139 5.43013  26
  -3   0  -2 5.58253 6.36792  15
   3   0   2 11.4930 5.87072  14
  -3   0  -2 16.0876 5.01587  24
  -3   0  -2 20.1357 43.3129   1
   3   0   2 15.7321 5.63649   8
   3   0   2 11.1207 17.1134  20
   3   0   2 8.21783 18.0837  11
  -3   0  -2 4.74660 5.10510   9
  -3   0  -2 4.90273 4.60701  25
   3   0   2 14.7361 15.8770  10
  -3   0  -2 4.06563 4.37023   7
  -3   0  -2 7.08502 18.8439  21
  -3   0  -2 14.4974 11.4444   4
  -4   0  -2 2406.46 100.339  15
   4   0   2 2482.27 93.7873   8
   4   0   2 2495.06 93.5331  26
  -4   0  -2 2535.34 85.9106  24
  -4   0  -2 2522.14 88.6241   7
  -4   0  -2 2457.24 92.8982   9
  -4   0  -2 2555.32 88.8003  25
  -4   0  -2 2233.22 102.368   4
   4   0   2 2444.28 99.7585  14
   4   0   2 2437.92 92.2003   6
  -5   0  -2 1113.95 43.3735  25
  -5   0  -2 978.159 51.8637   4
  -5   0  -2 1086.11 42.4998   7
  -6   0  -2 880.963 35.1535  25
  -6   0  -2 917.470 35.0690   7
  -6   0  -2 861.236 33.5377  24
  -6  -1   2 37.6176 8.12770   7
  -6  -1   2 32.9082 12.4051   4
  -6  -1   2 51.9065 10.3637  25
  -6   1   2 42.6050 10.6375  25
  -5  -1   2 692.891 32.2127  25
  -5  -1   2 684.808 30.9310   7
  -5  -1   2 661.248 37.4673   4
   5   1  -2 737.252 30.8848   8
  -5   1   2 728.058 30.5797   7
  -5   1   2 756.735 32.8130  25
  -5   1   2 679.246 35.5538   4
   5   1  -2 748.921 30.8035  26
  -4  -1   2 2538.93 156.805   1
  -4  -1   2 2445.33 101.894   4
  -4  -1   2 2555.06 91.2740   7
   4  -1  -2 2606.11 147.338  21
  -4  -1   2 2688.74 97.7145  22
  -4  -1   2 2464.29 129.737  18
  -4  -1   2 2622.43 92.3454  25
  -4   1   2 2503.91 100.025   4
  -4   1   2 2432.41 126.460  18
   4   1  -2 2790.35 149.771  21
   4   1  -2 2554.50 134.698  10
   4   1  -2 2640.76 143.118  11
   3  -1  -2 1785.82 100.224  21
  -3  -1   2 1692.96 105.162   1
  -3  -1   2 1867.23 90.0347  18
  -3  -1   2 1628.09 84.0590  19
   3  -1  -2 1810.68 82.5367  20
  -3  -1   2 1815.59 81.1756   2
  -3   1   2 1690.99 86.3371  19
   3   1  -2 1728.32 98.8107  11
  -3   1   2 1792.33 80.2549   2
   3   1  -2 1714.81 101.099  21
   3   1  -2 1797.12 93.9159  10
  -3   1   2 1705.83 87.3501  18
  -3   1   2 1691.71 88.6322   3
  -2  -1   2 445.906 28.9643  19
  -2  -1   2 450.765 26.0465   3
  -2  -1   2 450.141 22.4111  15
  -2  -1   2 398.620 35.6463   1
  -2  -1   2 450.652 19.1684   9
   2  -1  -2 489.517 27.0649  10
   2  -1  -2 487.669 28.2048  11
   2  -1  -2 422.216 34.3996  21
  -2  -1   2 449.171 26.0200   3
   2  -1  -2 428.126 27.2881  11
   2  -1  -2 487.924 33.8035   1
  -2  -1   2 455.902 27.2554   2
  -2  -1   2 436.460 30.3007  18
   2  -1  -2 444.170 25.9489  10
  -2   1   2 518.269 24.2227  20
   2   1  -2 555.529 32.4990  11
   2   1  -2 512.480 31.8039  10
  -2   1   2 555.497 29.6545  19
  -2   1   2 524.411 30.2305  18
  -2   1   2 535.319 27.6315   2
   2   1  -2 490.692 26.0853  20
   2   1  -2 526.539 19.8440  14
  -2   1   2 510.708 33.3018   3
   2   1  -2 489.949 19.4283   8
   2   1  -2 512.658 37.6277  21
   2   1  -2 479.298 19.3205  26
   1  -1  -2 1256.19 69.2525  11
   1  -1  -2 1365.40 47.9391   8
   1  -1  -2 1318.33 50.7466  14
   1  -1  -2 1276.43 65.7577  10
   1  -1  -2 1374.27 70.2925  11
  -1  -1   2 1357.77 58.1581   2
  -1  -1   2 1322.83 66.8018  13
  -1  -1   2 1291.18 53.0039  15
   1  -1  -2 1283.15 68.6502   1
   1  -1  -2 1361.35 47.8081  26
   1  -1  -2 1292.51 69.9358  12
  -1  -1   2 1203.59 70.6202  12
  -1  -1   2 1229.20 64.6630  13
  -1  -1   2 1236.75 65.9490   3
  -1  -1   2 1377.17 48.1416   9
  -1  -1   2 1319.84 62.4156  19
  -1  -1   2 1407.49 63.4556  18
   1  -1  -2 1341.80 66.2579  10
  -1  -1   2 1182.87 65.5499  10
   1  -1  -2 1346.82 65.1514  13
   1  -1  -2 1224.11 65.5135  21
  -1  -1   2 1266.77 70.8527  11
  -1   1   2 1341.30 47.4853   9
   1   1  -2 1300.73 48.7136   8
  -1   1   2 1396.23 57.7428   2
  -1   1   2 1230.91 64.1416  13
  -1   1   2 1340.81 69.4306  12
  -1   1   2 1215.51 68.5094   3
   1   1  -2 1376.06 70.7754   1
   1   1  -2 1363.57 51.1615  14
   1   1  -2 1274.08 48.5255  26
  -1   1   2 1203.50 68.1245  12
   1   1  -2 1394.44 68.4277  10
   1   1  -2 1313.52 71.5131  12
  -1   1   2 1348.03 52.4633  15
  -1   1   2 1363.30 63.1051  18
   1   1  -2 1116.60 66.4349  10
  -1   1   2 1271.13 61.5052  19
   1   1  -2 1301.39 65.6839  13
   1   1  -2 1254.15 70.8457  21
  -1   1   2 1321.55 64.0160  13
   1   1  -2 1410.15 71.9507  11
   0  -1   2 2147.21 105.307  13
   0  -1  -2 2121.60 106.419  10
   0  -1  -2 2122.89 77.8009  17
   0  -1   2 2041.39 84.5491  16
   0  -1   2 2193.13 97.0836  19
   0  -1   2 2180.52 106.124  10
   0  -1  -2 2207.10 82.7196  14
   0  -1  -2 2066.03 112.345  12
   0  -1   2 2186.84 114.052  12
   0  -1   2 2134.44 88.9066   2
   0  -1   2 2182.37 111.674  11
   0  -1   2 2091.35 104.015   3
   0  -1  -2 1975.02 107.260   1
   0  -1  -2 2231.59 104.783  13
   0  -1  -2 2150.42 112.964  11
   0  -1   2 2134.69 95.8326  18
   0  -1   2 2152.33 77.9161  17
   0  -1  -2 2158.59 97.5924  18
   0  -1  -2 2105.27 104.282  21
   0   1  -2 2151.40 106.975  10
   0   1   2 2023.75 77.6448  17
   0   1   2 2179.91 105.249   3
   0   1  -2 2185.78 91.9934  20
   0   1   2 2152.80 88.4650   2
   0   1   2 1981.66 94.1765  20
   0   1  -2 2037.61 84.1856  16
   0   1   2 2199.53 113.194  12
   0   1   2 2110.15 105.915  10
   0   1  -2 2140.05 107.373  21
   0   1   2 1984.27 110.917  11
   0   1  -2 2166.35 104.433  13
   0   1   2 2156.56 95.0128  19
   0   1  -2 2158.53 112.707  12
   0   1  -2 2115.07 77.7273  17
   0   1  -2 2218.64 108.121   1
   0   1   2 2115.16 104.586  13
   1  -1   2 4121.30 182.646  19
   1  -1   2 3744.93 163.923  16
   1  -1   2 4473.43 203.656  10
   1  -1   2 4217.97 198.529   3
  -1  -1  -2 4102.87 207.946   1
  -1  -1  -2 3886.80 215.660  11
   1  -1   2 4145.02 150.367  26
  -1  -1  -2 4091.82 190.254  18
   1  -1   2 4110.45 150.724   8
   1  -1   2 4355.96 159.296  14
   1  -1   2 4594.94 167.853   2
  -1  -1  -2 4280.84 204.281  21
   1  -1   2 4467.87 214.356  11
   1  -1   2 3706.54 217.014  12
  -1  -1  -2 4200.96 148.730   9
  -1  -1  -2 3936.03 203.777  10
  -1  -1  -2 4385.61 150.580  17
  -1  -1  -2 4296.71 200.211  13
   1  -1   2 3677.34 150.724  17
  -1  -1  -2 4192.37 216.604  12
   1  -1   2 3888.42 201.055  13
  -1  -1  -2 3988.60 164.144  15
   1   1   2 4418.71 218.142  12
   1   1   2 4317.02 201.943  13
  -1   1  -2 4584.77 208.617   1
   1   1   2 4303.24 197.636   3
   1   1   2 4069.26 181.229  20
   1   1   2 4282.41 179.693  19
   1   1   2 3851.39 159.293  14
  -1   1  -2 4066.82 150.510  17
  -1   1  -2 4472.20 199.975  13
  -1   1  -2 3707.38 215.503  11
  -1   1  -2 3973.26 164.024  15
  -1   1  -2 4024.80 148.184   9
   1   1   2 4200.27 151.232  17
   1   1   2 4290.79 203.875  10
   1   1   2 3920.37 150.377  26
   1   1   2 4248.21 215.132  11
  -1   1  -2 4494.38 205.949  21
   1   1   2 3942.05 150.757   8
  -1   1  -2 4282.95 162.930  16
  -1   1  -2 4541.70 215.764  12
   1   1   2 4158.80 164.003  16
  -1   1  -2 4502.71 180.861  20
   2  -1   2 2077.49 81.9264  14
   2  -1   2 2156.83 77.5851  26
  -2  -1  -2 2019.96 77.1253   9
  -2  -1  -2 2135.15 123.066   1
   2  -1   2 2131.26 114.275  11
  -2  -1  -2 2053.76 105.289  13
  -2  -1  -2 2182.35 112.176  21
   2  -1   2 1988.41 96.9430  20
   2  -1   2 2174.64 77.8257   8
  -2  -1  -2 2137.73 85.2535  15
  -2  -1  -2 2132.33 116.746  12
   2  -1   2 2093.61 108.373  10
   2  -1   2 2250.35 110.693   3
   2   1   2 2029.06 109.114  10
  -2   1  -2 2100.97 84.6865  15
  -2   1  -2 1844.62 112.000  12
  -2   1  -2 2008.98 123.434   1
   2   1   2 2064.47 98.6587  20
  -2   1  -2 1943.02 104.577  13
   2   1   2 2091.19 82.9165  14
   2   1   2 2125.49 77.7412  26
   2   1   2 2198.49 116.680  11
  -2   1  -2 2132.14 112.445  21
  -2   1  -2 2060.85 76.4662   9
   2   1   2 2063.03 107.479   3
   2   1   2 2148.77 77.9682   8
   3  -1   2 178.643 12.1403  14
  -3  -1  -2 196.680 12.9852   9
   3  -1   2 166.305 11.2286   8
  -3  -1  -2 187.624 14.0112  15
  -3  -1  -2 162.970 10.5657  24
   3  -1   2 197.507 27.4454  20
   3  -1   2 163.417 27.0666   3
   3  -1   2 161.170 11.1596  26
  -3  -1  -2 176.981 47.2228   1
   3  -1   2 165.556 23.9222  10
  -3  -1  -2 167.772 10.9600   7
  -3  -1  -2 189.951 17.8804   4
  -3  -1  -2 185.049 29.9540  21
   3  -1   2 152.756 24.6100  11
  -3  -1  -2 173.646 11.0714  25
  -3   1  -2 135.726 17.0942   4
   3   1   2 173.811 11.6351   8
   3   1   2 182.181 11.6905  26
   3   1   2 181.772 26.2651  10
   3   1   2 167.474 26.9341  20
  -3   1  -2 186.280 13.3170  15
   3   1   2 171.843 27.3228   3
   3   1   2 177.062 13.5645  14
   3   1   2 165.095 26.7973  11
  -3   1  -2 167.961 11.3114   6
  -3   1  -2 183.658 11.4575  25
  -3   1  -2 196.904 10.7987   7
  -3   1  -2 163.409 10.1863  24
  -3   1  -2 160.368 50.0857   1
  -3   1  -2 209.488 31.4852  21
   3   1   2 183.735 12.4445   6
   4  -1   2 1035.29 44.0810  26
  -4  -1  -2 1091.88 52.5608   4
  -4  -1  -2 1092.58 40.5940  24
  -4  -1  -2 1051.67 47.6787  15
   4  -1   2 1033.01 44.2012   8
  -4  -1  -2 1040.01 41.6346   7
  -4  -1  -2 1067.07 45.7609   9
  -4  -1  -2 1093.13 42.1206  25
   4  -1   2 1064.12 47.3155  14
  -4   1  -2 1086.44 41.6481   7
   4   1   2 1065.77 48.8995  14
   4   1   2 1036.56 44.3709  26
   4   1   2 1044.06 44.5843   8
  -4   1  -2 1104.34 40.3685  24
  -4   1  -2 998.448 53.4568   4
  -4   1  -2 1086.14 42.2284  25
  -5  -1  -2 546.569 33.6674   4
  -5  -1  -2 517.701 24.6629   7
  -5  -1  -2 520.535 24.0537  24
  -5  -1  -2 533.783 25.4868  25
  -5   1  -2 561.608 23.9463  24
  -5   1  -2 539.734 24.7246   7
  -5   1  -2 515.199 25.5101  25
  -6  -1  -2 391.267 19.7865  25
  -6  -1  -2 432.363 20.1323   7
  -6   1  -2 405.683 18.3589  24
  -6   1  -2 389.380 18.9012   7
  -6   1  -2 408.838 19.6849  25
  -6  -2   2 677.610 31.2617   7
  -6  -2   2 723.157 32.7262  25
  -6  -2   2 734.849 36.7127   4
  -5  -2   2 1186.63 52.4026   4
  -5  -2   2 1129.06 46.3889  25
  -5  -2   2 1105.73 45.2001   7
  -5  -2   2 1131.29 49.2361  22
   5   2  -2 1110.43 46.3784   8
   5   2  -2 1115.84 46.2307  26
   5   2  -2 1154.35 51.2566  14
  -4  -2   2 1208.75 51.1222  22
  -4  -2   2 1231.52 48.5189  25
  -4  -2   2 1192.96 96.8429   1
  -4  -2   2 1290.25 54.6819   4
  -4  -2   2 1232.84 47.5942   7
  -4  -2   2 1189.54 77.6265  18
   4   2  -2 1236.14 48.5415   8
   4   2  -2 1204.48 77.6429  10
   4   2  -2 1327.94 88.3818  21
   4   2  -2 1257.24 84.1001  11
   4   2  -2 1255.75 48.4507  26
   4   2  -2 1261.39 53.6273  14
  -3  -2   2 3046.95 147.456  18
  -3  -2   2 2932.58 166.608   1
  -3  -2   2 2981.53 132.213   2
  -3  -2   2 2987.66 138.790  19
   3  -2  -2 3068.07 156.335   1
   3  -2  -2 2839.70 158.280  21
  -3  -2   2 2959.85 120.211  15
  -3  -2   2 2994.80 108.530   9
  -3   2   2 2923.93 148.746   3
  -3   2   2 3075.84 142.190  18
   3   2  -2 3116.22 110.437   8
   3   2  -2 2991.30 162.113  21
   3   2  -2 2805.18 155.126  10
  -3   2   2 2919.80 133.396  20
   3   2  -2 3096.87 110.141  26
   3   2  -2 2989.43 165.760  11
   3   2  -2 3127.68 116.751  14
  -3   2   2 3171.01 131.145   2
  -3   2   2 3166.91 142.202  19
  -2  -2   2 3489.05 156.866  18
  -2  -2   2 3340.85 120.247   9
   2  -2  -2 3374.73 169.544  11
  -2  -2   2 3350.67 173.344   1
  -2  -2   2 3386.62 142.984   2
   2  -2  -2 3117.95 167.576  21
   2  -2  -2 3570.60 160.845  10
  -2  -2   2 3396.39 133.909  15
   2  -2  -2 3617.50 170.456  11
   2  -2  -2 3259.73 160.682  10
   2  -2  -2 3484.44 166.901   1
  -2  -2   2 3460.69 152.080  19
   2   2  -2 3474.46 177.200  11
   2   2  -2 3061.72 146.421  20
  -2   2   2 3489.28 151.513  19
  -2   2   2 3305.07 144.403  20
   2   2  -2 3289.07 121.881  26
  -2   2   2 3002.98 162.795   3
  -2   2   2 3253.41 140.832   2
   2   2  -2 3395.52 128.516  14
   2   2  -2 3293.18 122.228   8
   2   2  -2 3269.31 173.767  21
  -1  -2   2 1302.53 71.4883  12
   1  -2  -2 1305.73 46.5824  26
   1  -2  -2 1297.16 46.6881   8
  -1  -2   2 1253.94 47.5479   9
  -1  -2   2 1232.33 52.4480  15
  -1  -2   2 1330.77 50.9651  16
   1  -2  -2 1322.60 69.4102  11
   1  -2  -2 1313.93 62.6656  18
  -1  -2   2 1315.41 63.0086  18
  -1  -2   2 1205.61 47.0554  17
   1  -2  -2 1115.52 65.0380  10
   1  -2  -2 1305.28 65.2446  10
  -1  -2   2 1202.48 63.5919   3
  -1  -2   2 1195.01 70.8754  11
  -1  -2   2 1205.08 65.7796  10
  -1  -2   2 1267.95 66.9431  13
   1  -2  -2 1268.80 50.0603  14
   1  -2  -2 1265.97 67.1392   1
  -1  -2   2 1238.36 63.3203  19
   1  -2  -2 1257.80 68.4115  11
  -1  -2   2 1265.98 58.4818   2
  -1   2   2 1345.76 57.3017   2
  -1   2   2 1277.97 62.1587  13
   1   2  -2 1271.64 71.3329  12
   1   2  -2 1251.06 48.2388   8
  -1   2   2 1129.25 66.2439  12
  -1   2   2 1362.43 61.4269  19
   1   2  -2 1254.10 65.5359  13
  -1   2   2 1244.90 46.3619   9
   1   2  -2 1332.48 72.1627  21
  -1   2   2 1197.37 56.4652  20
   1   2  -2 1255.03 48.1081  26
   1   2  -2 1263.18 56.2268  20
  -1   2   2 1241.06 68.6885  12
   1   2  -2 1337.11 69.0827  10
  -1   2   2 1236.28 69.2848   3
   1   2  -2 1263.09 50.4410  14
   1   2  -2 1319.19 72.2682  11
   1   2  -2 1288.62 70.1341   1
   0  -2   2 1164.69 68.7992  12
   0  -2  -2 1152.83 44.6909  26
   0  -2  -2 1150.71 59.2325  21
   0  -2   2 1145.68 49.1836  16
   0  -2  -2 1167.20 62.4230  13
   0  -2  -2 1246.68 68.3708  11
   0  -2  -2 1118.77 48.4160  16
   0  -2  -2 1152.21 44.9813  17
   0  -2  -2 1138.42 66.8458  12
   0  -2   2 1141.47 55.9841  18
   0  -2  -2 1225.41 59.4561  18
   0  -2   2 1250.02 63.6707  10
   0  -2   2 1190.51 44.9731  17
   0  -2   2 1189.52 53.9602   2
   0  -2   2 1179.14 60.7001  19
   0  -2  -2 1211.27 52.8528   2
   0  -2   2 1174.48 63.1742   3
   0  -2  -2 1197.22 63.6754  10
   0  -2  -2 1250.75 65.1151   1
   0  -2  -2 1201.54 48.0912  14
   0  -2  -2 1150.12 44.7894   8
   0  -2   2 1183.59 63.4653  13
   0   2   2 1174.42 63.4949  10
   0   2  -2 1196.27 48.4082  16
   0   2   2 1197.90 66.0556  11
   0   2  -2 1231.98 54.0836  20
   0   2  -2 1152.25 64.2892   1
   0   2  -2 1154.93 68.4897  11
   0   2   2 1245.35 62.3808  13
   0   2   2 1137.44 58.7099  20
   0   2  -2 1176.39 45.0102  17
   0   2   2 1156.86 44.5056  17
   0   2   2 1210.88 44.5555   9
   0   2   2 1128.38 48.5300  16
   0   2   2 1229.83 64.5168   3
   0   2  -2 1232.13 65.4118  21
   0   2  -2 1208.30 62.2321  13
   0   2  -2 1231.24 66.9834  12
   0   2   2 1232.44 67.8565  12
   0   2   2 1236.70 56.0319  19
   0   2   2 1302.60 49.7632  15
   0   2  -2 1263.80 64.8235  10
  -1  -2  -2 3196.23 165.929  12
   1  -2   2 3173.45 113.356  26
   1  -2   2 3058.41 127.609   2
  -1  -2  -2 3065.40 123.507  16
  -1  -2  -2 3146.95 113.330  17
  -1  -2  -2 2857.11 123.816  15
   1  -2   2 3349.28 162.954  11
  -1  -2  -2 2968.90 112.237   9
   1  -2   2 3165.30 154.339  10
  -1  -2  -2 3055.39 165.340  11
  -1  -2  -2 3161.32 148.322  18
   1  -2   2 3161.78 152.120   3
   1  -2   2 3105.04 142.049  19
  -1  -2  -2 2927.13 128.872   2
  -1  -2  -2 3229.39 154.710  21
  -1  -2  -2 3056.02 152.304  13
   1  -2   2 2906.12 113.572  17
   1  -2   2 3155.19 113.623   8
  -1  -2  -2 2870.48 155.195  10
   1  -2   2 2773.90 123.760  16
   1  -2   2 3464.99 156.111  13
   1  -2   2 3043.41 119.311  14
  -1   2  -2 3287.38 123.646  15
   1   2   2 3031.41 139.392  20
   1   2   2 3172.24 151.336   3
   1   2   2 3030.45 113.307  26
   1   2   2 3072.58 114.170  17
  -1   2  -2 3300.35 163.090  12
  -1   2  -2 3203.91 136.975  20
   1   2   2 3125.72 164.037  11
   1   2   2 3261.15 167.136  12
   1   2   2 3026.30 154.229  13
   1   2   2 3008.42 123.476  16
  -1   2  -2 3163.70 111.512   9
   1   2   2 3233.24 136.010  19
  -1   2  -2 3039.18 158.547   1
   1   2   2 3044.43 113.612   8
   1   2   2 3188.87 155.995  10
  -1   2  -2 3318.69 152.244  13
  -2  -2  -2 2020.74 74.6452   9
  -2  -2  -2 2042.48 115.467  12
  -2  -2  -2 2027.43 82.2388  15
   2  -2   2 2047.85 74.5490   8
   2  -2   2 1974.87 109.329  11
   2  -2   2 1974.72 104.384  10
   2  -2   2 2059.60 74.3862  26
   2  -2   2 1978.47 78.4057  14
  -2  -2  -2 2060.21 103.292  13
  -2  -2  -2 2009.50 108.009  21
  -2  -2  -2 2096.41 120.610   1
   2  -2   2 1880.61 105.548   3
   2   2   2 2001.85 76.6402  17
  -2   2  -2 1981.77 107.647  12
   2   2   2 1951.33 112.752  11
   2   2   2 1967.67 74.7258   8
  -2   2  -2 2034.41 81.1292  15
   2   2   2 1996.41 104.148   3
   2   2   2 2033.16 97.6339  20
  -2   2  -2 1712.44 118.949   1
  -2   2  -2 1858.70 101.163  13
   2   2   2 1947.40 81.6880  16
   2   2   2 1986.44 80.1228  14
  -2   2  -2 1946.19 93.9944  20
  -2   2  -2 2012.83 73.1605   9
   2   2   2 1993.83 74.5945  26
   2   2   2 2058.51 107.443  10
   3  -2   2 3019.47 148.276  20
   3  -2   2 3101.09 164.863   3
  -3  -2  -2 3218.19 110.198  25
  -3  -2  -2 3103.43 124.338   4
   3  -2   2 3133.54 170.969  11
  -3  -2  -2 3278.44 107.521  24
  -3  -2  -2 3218.26 110.696   7
   3  -2   2 3189.32 116.675  26
   3  -2   2 3313.61 123.518  14
   3  -2   2 3212.13 117.047   8
  -3  -2  -2 3108.29 188.982   1
  -3  -2  -2 3205.52 117.179   9
  -3  -2  -2 3231.06 171.225  21
  -3  -2  -2 3281.19 128.406  15
   3  -2   2 3147.71 162.022  10
   3   2   2 3093.95 166.576  10
   3   2   2 3075.66 125.830  14
  -3   2  -2 3087.03 114.424   9
   3   2   2 3107.59 152.914  20
   3   2   2 3181.82 117.610   8
  -3   2  -2 3149.59 115.161   6
  -3   2  -2 3164.08 110.143  25
  -3   2  -2 3021.23 126.412  15
  -3   2  -2 2918.39 169.088  21
  -3   2  -2 3232.27 106.948  24
   3   2   2 3129.97 117.188  26
  -3   2  -2 3320.92 110.594   7
   3   2   2 3051.28 160.727   3
   3   2   2 3010.80 175.885  11
  -4  -2  -2 258.239 20.6993   9
  -4  -2  -2 264.830 16.3252  25
  -4  -2  -2 273.430 15.3511  24
   4  -2   2 267.693 16.8683   8
  -4  -2  -2 265.191 23.0294   4
  -4  -2  -2 260.660 15.5892   7
   4  -2   2 273.050 18.1325  14
   4  -2   2 257.552 16.7586  26
  -4  -2  -2 249.666 19.9113  15
  -4   2  -2 262.995 15.8956  25
  -4   2  -2 264.826 14.5326  24
   4   2   2 231.781 17.7934  26
   4   2   2 230.814 17.9035   8
  -4   2  -2 242.063 16.0157   6
  -4   2  -2 246.404 14.9945   7
   4   2   2 216.503 20.2263  14
  -5  -2  -2 301.213 24.4908   4
  -5  -2  -2 281.709 17.3719   7
  -5  -2  -2 307.804 18.0054  25
   5  -2   2 304.562 18.7519   6
  -5  -2  -2 286.154 16.8801  24
  -5   2  -2 276.918 17.8289  25
  -5   2  -2 298.137 16.1731  24
  -5   2  -2 279.905 16.7273   7
  -6  -3   2 46.5680 8.64265   7
  -6  -3   2 55.2994 11.2257   4
  -6  -3   2 56.7968 9.72635  25
  -5  -3   2 2655.12 95.6750  25
  -5  -3   2 2657.00 104.813   4
  -5  -3   2 2492.78 94.9334   7
  -5  -3   2 2486.29 102.457  22
   5   3  -2 2689.92 106.608  14
   5   3  -2 2633.87 99.1313  26
   5   3  -2 2598.30 99.3976   8
  -4  -3   2 132.676 13.9515   4
  -4  -3   2 140.894 14.1747  22
  -4  -3   2 155.881 13.2825   7
  -4  -3   2 162.588 13.9673  25
  -4  -3   2 146.037 36.6034  18
  -4  -3   2 155.283 41.5492   1
   4   3  -2 190.940 17.7686  14
   4   3  -2 222.184 33.5601  10
   4   3  -2 119.636 34.7637  21
   4   3  -2 166.975 12.6080   8
   4   3  -2 153.680 12.4248  26
   3  -3  -2 499.253 35.9683  18
  -3  -3   2 487.907 51.8453   1
  -3  -3   2 433.627 42.7066  18
  -3  -3   2 492.334 23.1373   9
  -3  -3   2 459.177 24.8906  15
   3  -3  -2 500.285 33.0550   2
  -3  -3   2 460.744 36.2246   2
  -3   3   2 487.335 39.6128   3
   3   3  -2 447.840 43.9705  21
   3   3  -2 457.646 42.0299  10
  -3   3   2 447.422 36.3835  19
  -3   3   2 435.535 29.1478  20
  -2  -3   2 3704.04 136.658   9
   2  -3  -2 3749.42 184.877   1
  -2  -3   2 3774.23 183.694  13
  -2  -3   2 3940.93 195.400   1
   2  -3  -2 3859.84 173.575  18
  -2  -3   2 3864.25 172.599  19
  -2  -3   2 3730.29 151.183  15
  -2  -3   2 3959.03 178.684  18
  -2  -3   2 3999.34 197.924  12
   2  -3  -2 3973.63 182.488  10
   2  -3  -2 3907.09 194.111  11
  -2  -3   2 3912.54 163.808   2
   2   3  -2 3746.90 138.042   8
  -2   3   2 3763.98 146.647  15
  -2   3   2 3591.33 185.349   3
   2   3  -2 3775.22 145.916  14
  -2   3   2 3676.82 163.742  20
  -2   3   2 3531.19 170.157  19
   2   3  -2 3628.01 165.765  20
  -2   3   2 3488.82 133.365   9
   2   3  -2 3681.58 137.630  26
   2   3  -2 3748.15 202.444  11
   1  -3  -2 175.334 17.5685   1
  -1  -3   2 157.252 9.68608  17
   1  -3  -2 186.712 16.5157  10
  -1  -3   2 169.845 16.9231   3
  -1  -3   2 170.845 19.8442  13
   1  -3  -2 166.603 8.31943   8
  -1  -3   2 163.137 21.9634  11
  -1  -3   2 180.789 19.4056  18
  -1  -3   2 161.704 20.6565  12
  -1  -3   2 160.303 19.0620  10
  -1  -3   2 117.741 15.9349   2
   1  -3  -2 150.898 10.3309  14
  -1  -3   2 174.287 10.7454  16
  -1  -3   2 167.010 12.5491  15
   1  -3  -2 181.325 15.2674   2
   1  -3  -2 168.977 8.28448  26
  -1  -3   2 185.015 21.7644  19
  -1  -3   2 154.553 10.7564   9
   1  -3  -2 191.565 19.8583  11
  -1   3   2 136.491 12.7890  12
   1   3  -2 107.462 19.5319  21
  -1   3   2 146.015 14.0730  20
  -1   3   2 119.706 15.3231  13
  -1   3   2 172.732 17.3838  12
   1   3  -2 182.947 22.8365  11
   1   3  -2 156.232 10.3888   8
   1   3  -2 167.161 11.1069  14
   1   3  -2 150.227 14.4186  20
  -1   3   2 181.155 16.4045  19
   1   3  -2 163.164 20.7488   1
  -1   3   2 178.033 9.44452   9
   1   3  -2 163.623 10.5513  16
   1   3  -2 172.896 19.1502  13
  -1   3   2 178.608 13.1684  13
   1   3  -2 154.191 10.2559  26
   1   3  -2 167.185 10.0481  17
  -1   3   2 189.189 10.4735  15
   1   3  -2 153.574 20.7676  10
  -1   3   2 222.702 25.9879   3
   1   3  -2 158.902 20.4389  12
   0  -3   2 6784.45 380.912  11
   0  -3  -2 7763.45 334.682  18
   0  -3  -2 8513.40 362.348  10
   0  -3  -2 7387.92 361.143   1
   0  -3  -2 6835.70 293.254  16
   0  -3  -2 7622.12 386.080  12
   0  -3   2 7469.58 294.803  16
   0  -3   2 8196.05 332.834  19
   0  -3   2 7348.11 361.642  10
   0  -3  -2 7146.28 269.536  26
   0  -3  -2 7229.52 304.598   2
   0  -3   2 8059.78 330.392  18
   0  -3   2 6833.05 270.112  26
   0  -3  -2 8053.35 383.726  11
   0  -3   2 7893.47 285.526  14
   0  -3   2 7106.49 270.244  17
   0  -3  -2 7830.98 270.763  17
   0  -3  -2 7144.56 270.215   8
   0  -3  -2 7551.64 286.621  14
   0  -3   2 8416.00 389.028  12
   0  -3   2 8095.77 348.522   3
   0  -3   2 8154.15 308.284   2
   0  -3  -2 6581.51 355.953  13
   0  -3   2 6736.20 270.745   8
   0   3   2 7208.86 269.533  17
   0   3  -2 7797.61 385.392  11
   0   3  -2 7767.95 357.035  13
   0   3  -2 7429.11 384.046  12
   0   3   2 7966.83 350.367   3
   0   3   2 7151.11 355.621  13
   0   3   2 7833.78 293.248  16
   0   3   2 7526.98 324.007  19
   0   3   2 8048.37 326.058  20
   0   3  -2 7079.73 366.568  21
   0   3   2 7636.48 385.371  12
   0   3  -2 7186.48 319.622  20
   0   3  -2 6895.16 292.990  16
   0   3  -2 8137.57 363.669  10
   1  -3   2 1320.48 49.2387  26
  -1  -3  -2 1245.18 76.6574  12
  -1  -3  -2 1347.63 73.6054  18
   1  -3   2 1275.52 50.8930  14
   1  -3   2 1353.51 74.0035  11
  -1  -3  -2 1235.47 54.2465  15
  -1  -3  -2 1245.30 68.6456  21
   1  -3   2 1230.54 69.7011  19
  -1  -3  -2 1321.44 74.1798  10
  -1  -3  -2 1224.76 60.7517   2
   1  -3   2 1286.04 72.1331   3
  -1  -3  -2 1410.18 81.9156  11
  -1  -3  -2 1312.11 76.0278   1
  -1  -3  -2 1255.00 70.0604  13
   1  -3   2 1290.42 49.2934   8
  -1  -3  -2 1198.25 48.6290  17
   1  -3   2 1259.71 48.8735  17
   1  -3   2 1320.78 70.5920  10
   1  -3   2 1253.59 54.5381  16
   1  -3   2 1194.53 58.7184   2
  -1  -3  -2 1222.50 49.2667   9
  -1  -3  -2 1223.97 53.6489  16
   1   3   2 1271.37 72.3502  10
   1   3   2 1281.33 49.7933  17
   1   3   2 1289.60 72.3667  13
   1   3   2 1313.09 70.4916   3
   1   3   2 1246.23 76.3963  12
  -1   3  -2 1313.07 69.2165  13
   1   3   2 1289.26 66.3011  20
   1   3   2 1232.28 49.1520   8
   1   3   2 1268.43 53.3436  16
   1   3   2 1212.02 49.0599  26
  -1   3  -2 1354.70 72.1002  12
   1   3   2 1245.02 52.1633  14
  -1   3  -2 1290.71 48.0847   9
  -1   3  -2 1322.52 61.7923  20
  -1   3  -2 1349.14 73.2642  21
  -1   3  -2 1141.60 73.6295   1
  -1   3  -2 1297.01 53.3782  15
   2  -3   2 409.089 35.6663  19
  -2  -3  -2 393.689 41.6775  12
  -2  -3  -2 371.981 34.1379  21
   2  -3   2 446.057 19.1045   8
   2  -3   2 406.539 32.1162  10
   2  -3   2 429.574 18.9527  14
  -2  -3  -2 381.203 47.4050   1
   2  -3   2 416.086 18.8647  26
   2  -3   2 363.200 36.7607   3
  -2  -3  -2 386.803 32.1999  13
   2  -3   2 422.180 33.8689  11
  -2  -3  -2 429.595 22.8447  15
  -2  -3  -2 394.365 20.3624   9
  -2  -3  -2 424.523 45.4039  18
   2   3   2 363.252 21.0274  16
   2   3   2 372.427 33.0743  20
   2   3   2 364.488 21.9630  17
  -2   3  -2 410.780 20.9214  15
   2   3   2 322.048 36.2956  11
  -2   3  -2 382.834 29.0708  20
  -2   3  -2 397.800 35.9634  21
   2   3   2 392.820 35.9571  10
  -2   3  -2 404.951 18.0807   9
   2   3   2 369.882 18.9780  26
   2   3   2 370.923 21.5927  14
   2   3   2 357.825 18.9880   8
   2   3   2 392.954 34.6160   3
  -3  -3  -2 704.097 56.7535  21
  -3  -3  -2 737.449 35.7957  15
   3  -3   2 618.689 56.3339   3
  -3  -3  -2 769.203 81.6110   1
   3  -3   2 722.269 50.5566  10
  -3  -3  -2 727.392 28.9975  25
   3  -3   2 713.524 30.3262  26
  -3  -3  -2 687.305 28.9461   7
   3  -3   2 704.447 30.3246   8
  -3  -3  -2 735.675 33.7836   9
  -3  -3  -2 681.530 35.5010   4
  -3  -3  -2 725.304 28.7323  24
   3  -3   2 725.496 31.5934  14
  -3   3  -2 701.886 57.6921  21
  -3   3  -2 699.243 28.3464   7
   3   3   2 686.410 55.4552  20
  -3   3  -2 694.984 33.4785  15
  -3   3  -2 685.964 29.1401   9
   3   3   2 558.593 53.0627  10
   3   3   2 703.328 35.8223  14
   3   3   2 671.893 31.4613  26
   3   3   2 679.939 31.5930   8
  -3   3  -2 702.751 30.7928   6
  -3   3  -2 791.160 27.7768  24
  -3   3  -2 655.024 28.5504  25
  -4  -3  -2 343.704 24.8499   9
  -4  -3  -2 315.623 18.2799   7
  -4  -3  -2 291.643 18.5596  25
   4  -3   2 318.313 19.4188  26
  -4  -3  -2 290.245 23.5108  15
  -4  -3  -2 327.157 18.1262  24
   4  -3   2 338.776 20.1611  14
  -4  -3  -2 319.927 24.0642   4
   4  -3   2 332.361 19.5047   8
   4   3   2 308.534 21.7681  26
  -4   3  -2 328.845 18.7102  25
   4   3   2 299.465 24.0264  14
  -4   3  -2 347.098 17.2700   7
   4   3   2 341.673 21.8707   8
  -4   3  -2 345.986 16.6887  24
  -4   3  -2 318.209 18.5570   6
   5  -3   2 2111.00 82.0621   6
  -5  -3  -2 2242.60 88.8962   4
  -5  -3  -2 2111.69 78.9957  25
  -5  -3  -2 2116.81 79.4181   7
  -5   3  -2 2153.22 79.5923  25
  -5   3  -2 2203.53 78.8713   7
  -5   3  -2 2197.53 76.1377  24
  -6  -4   2 1224.41 51.5494   4
  -6  -4   2 1148.13 46.9193  25
  -5  -4   2 604.299 29.6338  25
  -5  -4   2 601.714 32.2054   4
  -5  -4   2 627.059 34.4257  22
  -5  -4   2 597.980 29.1945   7
   5   4  -2 660.747 30.8714  26
   5   4  -2 663.708 31.1222   8
   5   4  -2 653.204 34.8816  14
  -4  -4   2 989.514 45.9542  22
  -4  -4   2 1017.05 41.3808   7
  -4  -4   2 1030.16 41.7326  25
  -4  -4   2 1053.24 45.6589   4
  -4  -4   2 966.461 81.9300  18
  -4  -4   2 1038.84 42.6796   9
  -4  -4   2 1008.52 45.9156  15
  -4  -4   2 1100.68 87.8130   1
   4   4  -2 1039.36 42.5966  26
   4   4  -2 925.014 79.8605  21
   4   4  -2 994.528 42.5477   8
  -4   4   2 963.910 45.2311  23
  -4   4   2 922.598 40.7524   6
   4   4  -2 1055.11 47.7129  14
   3  -4  -2 1189.86 72.2158  19
  -3  -4   2 1223.94 83.9910   1
  -3  -4   2 1165.52 50.3429   4
  -3  -4   2 1110.68 70.3977   2
   3  -4  -2 1194.81 67.0507  18
  -3  -4   2 1117.07 50.2829  22
  -3  -4   2 1235.00 46.6712  25
  -3  -4   2 1276.32 54.1249  15
  -3  -4   2 1180.86 46.1628   7
   3  -4  -2 1200.08 69.0900  11
  -3  -4   2 1253.86 49.8158   9
   3  -4  -2 1268.45 64.4850   2
  -3  -4   2 1096.94 77.7031  18
  -3  -4   2 1159.55 46.8270   5
   3   4  -2 1242.85 48.0851  26
   3   4  -2 1271.86 78.8387  10
  -3   4   2 1149.36 61.0495  20
  -3   4   2 1156.11 75.1170   3
  -3   4   2 1128.69 47.0213   6
   3   4  -2 1228.33 53.0700  14
   3   4  -2 1171.28 80.7140  21
  -3   4   2 1206.89 44.8035   5
  -3   4   2 1197.97 49.8991  23
   3   4  -2 1086.99 81.5073  11
   3   4  -2 1224.44 48.1961   8
  -2  -4   2 2479.36 147.797  12
   2  -4  -2 2728.67 128.282  18
  -2  -4   2 2743.65 110.648  15
  -2  -4   2 2732.72 125.483   2
   2  -4  -2 2699.58 103.477  14
   2  -4  -2 2724.98 118.378   2
   2  -4  -2 2682.67 96.7195  26
  -2  -4   2 2616.48 135.733  18
  -2  -4   2 2682.94 136.587  13
  -2  -4   2 2593.18 130.217  19
   2  -4  -2 2713.08 96.9868   8
  -2  -4   2 2619.36 100.237   9
  -2  -4   2 2815.71 145.953   1
   2  -4  -2 2385.08 143.288  11
   2   4  -2 2828.12 146.039  21
  -2   4   2 2718.53 105.353  15
  -2   4   2 2809.66 127.771  19
   2   4  -2 2663.91 99.8558  26
   2   4  -2 2623.44 122.152  20
   2   4  -2 2696.05 100.145   8
   2   4  -2 2727.70 154.180  11
  -2   4   2 2626.41 96.1959   9
   2   4  -2 2700.98 107.132  14
  -2   4   2 2692.30 139.967   3
  -2   4   2 2598.56 120.459  20
   1  -4  -2 4946.15 234.714  10
  -1  -4   2 4910.77 189.955  16
   1  -4  -2 4783.91 219.064  18
  -1  -4   2 4624.39 173.749   9
   1  -4  -2 5004.85 232.848   1
   1  -4  -2 4692.60 200.570   2
  -1  -4   2 4914.64 220.124  19
  -1  -4   2 4985.26 257.128  12
   1  -4  -2 4856.00 173.027  26
  -1  -4   2 4869.27 174.117  17
  -1  -4   2 4883.79 192.386  15
   1  -4  -2 4853.96 173.485   8
  -1  -4   2 4881.62 235.649  13
   1  -4  -2 4747.12 184.712  14
  -1  -4   2 4585.15 205.764   2
  -1  -4   2 4867.90 221.819  18
   1  -4  -2 4776.10 250.947  11
  -1   4   2 4579.00 171.703   9
   1   4  -2 4892.10 236.179  13
   1   4  -2 4744.39 253.486  12
   1   4  -2 4802.26 237.324   1
  -1   4   2 4829.74 210.274  20
   1   4  -2 4796.08 175.010  26
   1   4  -2 4816.19 256.119  11
  -1   4   2 4755.32 189.092  15
   1   4  -2 4769.97 241.351  10
   1   4  -2 4864.85 175.561   8
  -1   4   2 5049.94 214.061  19
   1   4  -2 4742.40 186.343  14
   1   4  -2 5187.18 244.014  21
  -1   4   2 5051.58 247.297  12
   1   4  -2 4826.54 189.609  16
   1   4  -2 4979.80 175.943  17
  -1   4   2 4045.56 243.745  12
  -1   4   2 4205.94 229.268  13
  -1   4   2 4974.07 227.197  13
   1   4  -2 4853.02 209.161  20
   0  -4  -2 66.4049 8.43685  14
   0  -4  -2 76.4055 7.18966  26
   0  -4   2 51.3778 6.82628  26
   0  -4   2 80.3798 14.9862  18
   0  -4  -2 73.4703 13.2488   2
   0  -4   2 88.2085 7.78909  17
   0  -4  -2 77.1332 7.16122   8
   0  -4   2 66.1674 7.12701  14
   0  -4  -2 74.8317 15.3785   1
   0  -4   2 42.6314 17.6464  19
   0  -4   2 53.0893 17.2369  12
   0  -4   2 86.5058 17.5715  11
   0  -4  -2 73.4003 14.7936  10
   0  -4  -2 87.0444 19.6940  11
   0  -4   2 48.9645 6.81267   8
   0  -4  -2 78.4540 8.30945  17
   0  -4   2 64.3672 14.7425  10
   0  -4  -2 72.6940 17.2142  12
   0  -4   2 47.1749 15.1045   3
   0  -4  -2 88.4005 17.2492  18
   0  -4   2 56.3313 8.58372  16
   0  -4  -2 79.7467 17.5631  13
   0  -4   2 58.7557 15.5941   2
   0  -4   2 59.0647 16.1160  13
   0   4  -2 114.093 9.66618  17
   0   4   2 109.957 7.37195  17
   0   4   2 118.237 14.3797  19
   0   4  -2 106.350 8.42348   9
   0   4  -2 89.2376 15.6802   1
   0   4   2 122.429 9.45369   9
   0   4   2 138.552 19.7721  20
   0   4   2 171.923 22.8411   3
   0   4  -2 109.814 13.2506  20
   0   4   2 147.978 20.0850  12
   0   4  -2 152.712 22.8434  21
   0   4   2 110.722 7.82784  16
   0   4   2 122.694 11.4097  15
   0   4  -2 111.955 10.5821  15
   0   4  -2 96.7929 7.46558  16
   0   4  -2 114.613 17.3106  12
   0   4  -2 157.256 21.9583  13
  -1  -4  -2 1026.20 43.1291  16
  -1  -4  -2 937.427 65.1993  12
  -1  -4  -2 1052.27 64.5875   1
   1  -4   2 927.418 43.8749  16
  -1  -4  -2 945.911 52.8884   2
   1  -4   2 983.450 62.2565  19
   1  -4   2 943.632 38.9850  26
   1  -4   2 1055.22 61.0390  11
   1  -4   2 955.748 39.5640  14
   1  -4   2 972.530 58.4646  10
  -1  -4  -2 939.647 38.3928  17
   1  -4   2 922.841 52.0595   2
   1  -4   2 953.947 39.0643   8
  -1  -4  -2 939.355 62.7766  18
  -1  -4  -2 981.664 59.2662  13
   1  -4   2 1006.06 38.7078  17
   1  -4   2 956.059 61.3519   3
  -1   4  -2 939.928 60.7015  21
  -1   4  -2 932.112 37.5097   9
   1   4   2 924.443 57.9797   3
  -1   4  -2 895.965 49.5615  20
   1   4   2 948.941 41.8416  16
  -1   4  -2 953.860 57.8905  12
   1   4   2 913.474 55.3316  20
  -1   4  -2 925.124 58.3324  13
   1   4   2 940.254 61.5069  13
  -1   4  -2 960.994 42.4595  15
   1   4   2 934.079 39.4827  17
   1   4   2 864.168 62.8904  12
  -2  -4  -2 723.307 34.8942   4
  -2  -4  -2 774.132 29.9609  24
   2  -4   2 743.282 57.3031   3
  -2  -4  -2 809.371 68.3358   1
   2  -4   2 813.319 33.0102  14
   2  -4   2 687.361 56.3033  19
  -2  -4  -2 792.796 61.5980  18
  -2  -4  -2 735.480 34.3298   9
   2  -4   2 765.016 50.2858  10
  -2  -4  -2 726.725 51.3224  13
   2  -4   2 780.719 32.4925   8
   2  -4   2 783.257 53.0899  11
  -2  -4  -2 744.622 37.5282  15
   2  -4   2 782.877 32.4082  26
   2   4   2 752.825 35.5858  16
   2   4   2 721.778 36.2532  14
   2   4   2 736.190 35.3241  17
   2   4   2 756.671 33.1170   8
   2   4   2 814.630 52.4133  20
  -2   4  -2 712.621 54.6888  21
   2   4   2 742.759 52.0024   3
  -2   4  -2 748.972 28.2135  24
   2   4   2 737.009 32.9121  26
  -2   4  -2 697.970 29.3911  25
  -2   4  -2 736.176 45.9186  20
  -2   4  -2 795.564 35.7256  15
   2   4   2 724.103 51.8761  21
  -2   4  -2 713.239 28.9171   7
   2   4   2 651.243 58.4930  11
   2   4   2 784.065 58.7988  10
  -2   4  -2 765.749 31.9663   6
  -2   4  -2 801.913 30.8878   9
  -3  -4  -2 2183.43 86.3965   9
  -3  -4  -2 2105.06 93.0288  15
   3  -4   2 2179.19 83.4230   8
  -3  -4  -2 2115.86 79.0376   7
   3  -4   2 2205.81 83.2828  26
   3  -4   2 2206.49 87.0221  14
   3  -4   2 1992.44 125.832   3
  -3  -4  -2 2190.73 77.0507  24
  -3  -4  -2 2244.06 89.1210   4
  -3  -4  -2 2298.02 147.880   1
  -3   4  -2 2041.28 129.545  21
   3   4   2 2273.57 91.8782  14
   3   4   2 2348.97 95.2741  16
  -3   4  -2 2169.84 75.4548  24
   3   4   2 2132.23 84.7914   8
  -3   4  -2 2103.09 78.2998  25
  -3   4  -2 2194.36 80.3883   9
  -3   4  -2 2183.51 111.269  20
  -3   4  -2 2142.19 90.5009  15
  -3   4  -2 2249.40 82.7004   6
   3   4   2 2085.66 84.5040  26
   3   4   2 2187.82 118.945  20
  -3   4  -2 2169.07 78.2242   7
  -4  -4  -2 1294.13 56.3044   9
   4  -4   2 1287.27 54.8239  14
  -4  -4  -2 1248.33 49.9847   7
  -4  -4  -2 1294.60 49.8894  25
   4  -4   2 1261.20 52.6818   8
  -4  -4  -2 1189.43 58.5829  15
  -4  -4  -2 1295.39 57.4346   4
   4  -4   2 1288.26 52.5498  26
   4   4   2 1192.65 53.9614  26
  -4   4  -2 1308.58 51.6854   6
  -4   4  -2 1318.90 50.1204  25
   4   4   2 1245.42 54.5059   8
   4   4   2 1203.94 57.9368  14
  -4   4  -2 1268.93 48.9471   7
  -4   4  -2 1342.55 47.3103  24
   5  -4   2 302.069 18.2999   6
  -5  -4  -2 294.180 20.6320   4
  -5  -4  -2 295.724 17.4105   7
  -5  -4  -2 265.793 17.0266  25
  -5   4  -2 259.619 18.1795  25
  -5   4  -2 252.191 15.1273  24
   5   4   2 250.662 15.7199  24
  -5   4  -2 257.369 15.9211   7
  -6  -5   2 7.37034 6.91561  25
  -6  -5   2 12.7996 8.28477   4
   6   5  -2 7.35314 5.92635   7
  -5  -5   2 42.9174 9.94512   4
  -5  -5   2 67.5096 9.64660  25
  -5  -5   2 74.4888 13.5266  22
   5   5  -2 43.2022 10.2800   8
   5   5  -2 35.9352 9.77420  26
  -5   5   2 40.5450 8.28748   6
  -4  -5   2 2086.00 78.1244   9
  -4  -5   2 1937.68 84.9297  15
  -4  -5   2 1998.05 74.8127  25
  -4  -5   2 2003.23 81.6713  22
  -4  -5   2 2001.86 80.9103   4
   4   5  -2 2078.45 84.8047  14
  -4   5   2 1994.53 74.4399   5
   4   5  -2 2020.47 78.4544  26
  -4   5   2 1915.32 82.0668  23
   4   5  -2 2020.46 78.6333   8
  -4   5   2 1918.17 76.4922   6
   3  -5  -2 2964.32 152.981  19
  -3  -5   2 3060.91 116.485  22
  -3  -5   2 2975.17 160.015  18
  -3  -5   2 2942.03 168.564   1
   3  -5  -2 2964.18 138.891   2
  -3  -5   2 2992.94 116.483   4
  -3  -5   2 2923.64 109.210   5
   3  -5  -2 2966.43 109.649  26
  -3  -5   2 3022.27 147.309   2
   3  -5  -2 2982.13 148.166  18
   3  -5  -2 2914.52 109.861   8
  -3  -5   2 3229.02 107.973  25
  -3  -5   2 3153.99 125.043  15
  -3  -5   2 3072.98 114.183   9
   3  -5  -2 2950.79 156.714  10
   3  -5  -2 2752.41 162.538  11
   3   5  -2 3117.41 122.221  14
   3   5  -2 3014.82 106.716   7
  -3   5   2 2913.67 139.692  20
   3   5  -2 3104.93 113.882   8
  -3   5   2 2930.36 111.571   6
  -3   5   2 2974.51 162.064   3
   3   5  -2 3128.51 168.949  21
  -3   5   2 3050.05 107.279   5
  -3   5   2 3048.53 117.367  23
   3   5  -2 3206.94 113.723  26
   3   5  -2 3051.83 176.190  11
   2  -5  -2 779.981 29.6142   8
   2  -5  -2 733.715 47.9004  18
  -2  -5   2 782.383 51.8368  13
  -2  -5   2 767.496 34.9332   9
   2  -5  -2 702.722 49.1958  10
   2  -5  -2 713.888 44.6579   2
  -2  -5   2 694.638 51.4113  19
   2  -5  -2 738.582 32.2645  14
   2  -5  -2 716.353 55.2479  11
  -2  -5   2 726.238 58.3415  12
  -2  -5   2 740.736 53.1552   2
  -2  -5   2 757.072 37.6740  15
   2  -5  -2 791.787 29.5822  26
  -2  -5   2 732.573 56.9817  18
   2  -5  -2 737.127 49.7169  19
   2   5  -2 643.736 54.2223  10
   2   5  -2 681.536 33.6551  16
   2   5  -2 704.729 44.3391  20
  -2   5   2 706.379 43.0438  20
   2   5  -2 727.367 35.5863  14
  -2   5   2 736.431 29.6019   9
   2   5  -2 705.804 33.7784  17
  -2   5   2 764.476 32.1522  15
  -2   5   2 724.384 56.4696   3
   2   5  -2 744.758 55.9352  21
   2   5  -2 732.047 32.1522   8
   2   5  -2 724.447 32.0126  26
  -1  -5   2 770.710 40.9884  15
  -1  -5   2 812.171 33.7114  17
  -1  -5   2 771.195 51.1867   2
   1  -5  -2 854.441 53.3697  10
  -1  -5   2 775.762 53.7247  19
   1  -5  -2 783.052 36.5478  14
   1  -5  -2 768.500 50.6627  18
   1  -5  -2 801.017 33.2053  26
  -1  -5   2 777.531 63.4711  12
   1  -5  -2 812.981 33.3417   8
  -1  -5   2 724.242 54.9972  18
   1  -5  -2 775.919 60.1008  11
  -1  -5   2 845.305 37.6178  16
  -1  -5   2 797.131 37.5680   9
  -1  -5   2 754.198 54.5459  13
   1  -5  -2 839.818 49.9659  19
   1  -5  -2 855.375 48.0362   2
   1   5  -2 861.485 58.1574  13
   1   5  -2 747.303 34.8430  26
  -1   5   2 875.498 51.1813  12
   1   5  -2 853.344 38.4224  14
   1   5  -2 896.701 61.2692  10
   1   5  -2 879.280 58.8463  21
  -1   5   2 879.494 37.8248  15
  -1   5   2 886.412 46.2550  13
  -1   5   2 928.810 58.5189   3
   1   5  -2 848.735 36.8268  16
  -1   5   2 913.901 34.8817   9
   1   5  -2 905.442 35.8577  17
   1   5  -2 814.208 58.8174  12
   1   5  -2 884.219 47.2937  20
   1   5  -2 741.332 34.9539   8
   1   5  -2 800.700 52.8121   1
  -1   5   2 869.818 49.7609  20
   0  -5  -2 214.610 15.2001  14
   0  -5   2 187.019 32.5528  12
   0  -5   2 209.838 13.7491  14
   0  -5  -2 214.907 13.2101  26
   0  -5  -2 201.697 22.3173  19
   0  -5  -2 201.817 24.8982   1
   0  -5   2 226.632 28.6126   2
   0  -5   2 210.644 13.7788  26
   0  -5   2 266.889 32.4613  11
   0  -5   2 220.637 16.0361  16
   0  -5  -2 194.964 13.0464   8
   0  -5   2 195.754 13.4571   8
   0  -5  -2 233.757 34.1709  11
   0  -5   2 315.817 35.4729  19
   0  -5  -2 206.406 14.5258  17
   0  -5   2 209.396 28.6723  13
   0  -5  -2 225.773 23.8386   2
   0  -5   2 232.005 30.3429  10
   0  -5  -2 195.527 14.1605  16
   0  -5  -2 289.477 32.8339  18
   0  -5  -2 206.731 26.2659  10
   0  -5   2 222.622 26.1120   3
   0  -5   2 205.365 13.5166  17
   0   5   2 286.111 32.2494   3
   0   5  -2 205.949 13.6740   9
   0   5  -2 211.708 17.2074  15
   0   5  -2 271.329 32.5021  21
   0   5  -2 209.168 26.5614  12
   0   5  -2 226.803 12.7778  16
   0   5   2 230.481 11.9867  16
   0   5   2 235.922 26.1486  20
   0   5   2 201.416 17.0030  15
   0   5   2 221.011 26.3611  13
   0   5  -2 299.864 34.4009  13
   0   5   2 203.155 14.3790   9
   0   5  -2 215.836 22.1862  20
   0   5   2 215.430 28.2553  12
   0   5  -2 227.900 13.3446  17
   1  -5   2 1538.42 58.7101   8
  -1  -5  -2 1537.47 64.1468  16
   1  -5   2 1437.49 59.5641  14
  -1  -5  -2 1446.37 88.8221  18
   1  -5   2 1475.44 85.7749  10
  -1  -5  -2 1523.08 91.8422   1
   1  -5   2 1495.69 58.4302  26
   1  -5   2 1471.30 57.5774  17
   1  -5   2 1489.81 77.9480   2
   1  -5   2 1418.39 65.3180  16
   1  -5   2 1538.55 88.0282  19
   1  -5   2 1493.27 89.6899  11
   1  -5   2 1474.21 87.1083   3
  -1  -5  -2 1417.38 76.7653   2
  -1  -5  -2 1398.94 96.0278  12
  -1  -5  -2 1506.98 86.5396  13
  -1  -5  -2 1497.58 57.4671  17
  -1   5  -2 1426.31 88.4677  21
   1   5   2 1374.86 78.3865  20
   1   5   2 1467.97 82.7682   3
   1   5   2 1408.62 92.0687  12
  -1   5  -2 1438.32 85.3376  12
   1   5   2 1419.47 61.6971  16
  -1   5  -2 1475.09 63.6871  15
   1   5   2 1411.48 89.0154  13
  -1   5  -2 1476.15 74.5003  20
  -1   5  -2 1487.66 56.4867   9
  -2  -5  -2 3016.58 116.982  22
   2  -5   2 2972.18 114.953   8
   2  -5   2 3176.38 169.572  11
  -2  -5  -2 3128.30 117.598   9
   2  -5   2 2969.91 114.656  26
   2  -5   2 2975.48 119.372  23
   2  -5   2 2988.46 160.511  10
   2  -5   2 2975.02 164.145   3
  -2  -5  -2 3002.51 158.959  18
  -2  -5  -2 2932.91 160.975  13
   2  -5   2 3035.07 157.074  19
   2  -5   2 3122.77 119.655  14
  -2  -5  -2 3132.17 176.743   1
  -2  -5  -2 3087.21 182.737  12
  -2  -5  -2 2987.24 127.651  15
  -2  -5  -2 2946.18 118.466   4
   2   5   2 3027.97 124.718  16
  -2   5  -2 3039.02 107.036   7
   2   5   2 3062.14 150.432  20
  -2   5  -2 3052.59 103.453  24
   2   5   2 2978.63 104.765  24
  -2   5  -2 3224.79 112.900   6
   2   5   2 3174.06 117.178  17
  -2   5  -2 3058.12 107.141  25
  -2   5  -2 3129.80 111.414   9
  -2   5  -2 2942.28 167.370  21
  -2   5  -2 3151.79 124.930  15
  -2   5  -2 3110.10 144.305  20
  -3  -5  -2 26.7745 12.8429  15
  -3  -5  -2 30.2945 11.9746   9
   3  -5   2 31.9800 7.83166  14
  -3  -5  -2 39.8024 8.44188   7
   3  -5   2 30.6672 8.75976   8
   3  -5   2 38.8311 9.08195  26
  -3  -5  -2 27.5757 9.90179   4
  -3   5  -2 18.3169 6.91033  25
  -3   5  -2 12.7923 5.84191  24
  -3   5  -2 17.4306 5.69840   7
   3   5   2 27.6337 11.1441  16
   3   5   2 17.3321 6.69846  24
  -3   5  -2 15.1405 7.76471   6
  -3   5  -2 14.0744 6.06919   9
  -3   5  -2 30.8754 11.1675  15
   3   5   2 13.0188 12.1975  17
   4  -5   2 1333.15 56.2091   8
   4  -5   2 1367.40 56.2026  26
  -4  -5  -2 1326.93 53.0980   7
  -4  -5  -2 1400.22 59.5777   9
  -4  -5  -2 1453.60 60.3241   4
   4  -5   2 1289.96 57.9689  14
  -4  -5  -2 1248.48 62.9093  15
  -4   5  -2 1431.61 50.4731  24
  -4   5  -2 1386.14 53.5914  25
  -4   5  -2 1352.08 55.0512   6
  -4   5  -2 1332.84 51.9241   7
   4   5   2 1357.43 51.4561  24
  -5  -5  -2 151.835 14.0857   4
  -5  -5  -2 137.795 11.6257   7
  -5   5  -2 177.936 14.7385  25
  -5   5  -2 148.365 11.8816  24
  -5   5  -2 164.091 12.9133   7
   5   5   2 161.103 12.1862  24
  -6  -6   2 1975.51 74.1636  25
  -6  -6   2 2094.52 81.2297   4
   6   6  -2 2129.01 73.7168   7
  -5  -6   2 173.236 15.4160   4
  -5  -6   2 208.043 18.0155  22
  -5  -6   2 192.274 14.7441  25
   5   6  -2 128.129 14.2291  26
   5   6  -2 132.846 14.3649   8
  -5   6   2 158.869 14.4801   6
   5   6  -2 170.247 12.8528   7
  -4  -6   2 546.847 28.7702   4
  -4  -6   2 616.398 27.4230  25
  -4  -6   2 593.993 29.9248   9
   4  -6  -2 539.465 27.5035  26
  -4  -6   2 587.198 30.7065  22
  -4  -6   2 583.111 32.8551  15
   4   6  -2 542.807 28.6020  26
  -4   6   2 544.350 31.4689  23
  -4   6   2 554.147 27.9562   5
  -4   6   2 536.411 27.6100   6
   4   6  -2 562.529 28.8511   8
   4   6  -2 533.073 32.0721  14
  -4   6   2 565.175 24.2329  24
   4   6  -2 550.151 25.4095   7
  -3  -6   2 402.422 52.1067  18
  -3  -6   2 478.986 25.6844   4
   3  -6  -2 516.311 23.2133   8
   3  -6  -2 457.563 45.9111   2
  -3  -6   2 458.644 53.7794   1
   3  -6  -2 610.328 62.1263  19
  -3  -6   2 476.597 26.6583  22
  -3  -6   2 529.139 29.9489  15
   3  -6  -2 505.122 23.0480  26
  -3  -6   2 513.472 25.4472   5
   3  -6  -2 507.519 25.5132  14
  -3  -6   2 495.189 27.7526   9
  -3  -6   2 510.960 50.5364   2
  -3  -6   2 540.270 23.8568  25
  -3   6   2 458.201 55.0183   3
   3   6  -2 470.984 24.8402   8
   3   6  -2 480.150 24.9078  26
   3   6  -2 499.106 53.7392  21
  -3   6   2 358.029 37.2507  20
   3   6  -2 514.578 22.6128   7
  -3   6   2 505.805 26.8725  23
  -3   6   2 485.939 20.7010  24
  -3   6   2 506.017 24.9994   6
   3   6  -2 479.171 28.4850  14
  -3   6   2 483.935 23.5516   5
   2  -6  -2 187.587 34.5561  11
  -2  -6   2 172.107 16.8042  15
   2  -6  -2 156.251 26.7784  18
  -2  -6   2 177.484 29.0447  19
   2  -6  -2 163.017 13.1208  14
   2  -6  -2 229.921 33.2159  19
  -2  -6   2 224.185 37.3060  18
  -2  -6   2 201.522 32.1767   2
   2  -6  -2 175.445 29.7922  10
  -2  -6   2 180.166 14.6363  22
  -2  -6   2 200.545 34.5694  12
   2  -6  -2 149.061 10.8516  26
  -2  -6   2 162.239 13.2437   5
  -2  -6   2 191.522 30.5826  13
  -2  -6   2 185.213 17.5626   9
   2  -6  -2 156.921 10.9183   8
   2  -6  -2 189.931 27.0515   2
   2   6  -2 150.727 22.8590  20
  -2   6   2 138.803 12.1441   6
   2   6  -2 157.968 13.1663   8
   2   6  -2 161.430 10.5722   7
  -2   6   2 154.332 32.2397   3
  -2   6   2 142.054 11.8773  22
   2   6  -2 131.435 27.3233  21
  -2   6   2 149.705 11.1065   9
  -2   6   2 154.776 11.8097   5
  -2   6   2 118.750 22.4406  20
   2   6  -2 141.227 13.4871  17
   2   6  -2 125.263 13.9028  14
   2   6  -2 138.703 27.7424   1
  -2   6   2 168.609 13.1640  15
   2   6  -2 144.972 12.5882  16
   2   6  -2 142.891 13.1369  26
   2   6  -2 158.974 31.7135  10
   1  -6  -2 6829.91 300.302  19
  -1  -6   2 6745.05 309.185  18
  -1  -6   2 6639.93 358.950  12
  -1  -6   2 7169.03 263.416  16
   1  -6  -2 6829.21 242.302   8
   1  -6  -2 6474.76 331.399  10
  -1  -6   2 6958.40 241.512  17
  -1  -6   2 6695.03 285.179   2
  -1  -6   2 6752.64 301.985  19
   1  -6  -2 6877.07 308.378  18
   1  -6  -2 6786.85 256.800  14
  -1  -6   2 6257.47 326.761  13
   1  -6  -2 5863.90 351.101  11
   1  -6  -2 6452.07 281.824   2
   1  -6  -2 6809.70 241.656  26
   1   6  -2 6776.07 335.230  21
   1   6  -2 6619.42 351.817  12
  -1   6   2 6806.44 238.650   9
  -1   6   2 6728.47 231.345   5
  -1   6   2 6685.05 263.940  15
   1   6  -2 6329.57 291.679  20
   1   6  -2 6879.02 262.292  16
   1   6  -2 6368.50 329.949  13
   1   6  -2 6726.16 242.519  17
  -1   6   2 6792.90 319.828   3
  -1   6   2 6748.77 297.228  20
   1   6  -2 6326.79 229.743   7
   0  -6  -2 525.473 48.5154  18
   0  -6   2 566.422 44.0817   2
   0  -6  -2 539.075 27.9895  16
   0  -6   2 520.949 46.5470  19
   0  -6  -2 542.482 25.1198  26
   0  -6   2 536.915 25.4590  17
   0  -6  -2 498.894 53.5028  11
   0  -6  -2 503.678 26.2929  22
   0  -6  -2 524.103 40.0794  19
   0  -6   2 527.149 27.2501  23
   0  -6  -2 517.101 24.9529   8
   0  -6   2 544.197 25.9065   8
   0  -6   2 539.414 41.7110   3
   0  -6  -2 509.844 25.4429  17
   0  -6  -2 506.612 40.7650   2
   0  -6   2 532.500 25.7092  26
   0  -6  -2 471.867 46.4859  10
   0  -6   2 570.654 28.3999  16
   0  -6  -2 514.218 27.1435  14
   0  -6   2 507.546 26.4672  14
   0   6   2 500.633 30.4487  15
   0   6  -2 510.423 22.8067  17
   0   6   2 460.270 42.9454  13
   0   6  -2 461.218 24.9525   9
   0   6  -2 528.562 31.1749  15
   0   6  -2 487.879 43.5022  12
   0   6  -2 507.026 23.8258  16
   0   6  -2 482.056 47.2643  21
   0   6   2 494.739 44.7024  12
   0   6   2 510.241 43.6431   3
   0   6   2 496.626 25.6552   9
   0   6   2 484.983 40.3895  20
   0   6  -2 464.775 37.0829  20
   0   6  -2 447.775 44.5281  13
   0   6  -2 491.154 23.0949   7
   1  -6   2 1705.97 106.517  11
  -1  -6  -2 1689.14 103.182  13
  -1  -6  -2 1668.56 74.6564  16
   1  -6   2 1729.46 76.3237  16
  -1  -6  -2 1752.98 113.074   1
   1  -6   2 1790.85 102.238  19
   1  -6   2 1678.71 68.1835   8
   1  -6   2 1773.14 71.0200  23
   1  -6   2 1716.74 67.7611  17
   1  -6   2 1590.57 101.385  10
  -1  -6  -2 1638.22 70.1158  22
   1  -6   2 1659.57 99.8722   3
  -1  -6  -2 1589.07 89.9745   2
  -1  -6  -2 1736.98 67.1857  17
   1  -6   2 1626.43 90.7782   2
   1  -6   2 1772.06 68.4151  26
  -1  -6  -2 1583.58 104.396  18
   1  -6   2 1702.14 70.5003  14
   1   6   2 1700.43 106.415  13
  -1   6  -2 1756.09 107.228  21
  -1   6  -2 1721.86 60.1867  24
   1   6   2 1743.57 109.051  12
   1   6   2 1706.53 67.3890  17
  -1   6  -2 1760.14 100.733  12
  -1   6  -2 1711.00 97.5114  13
   1   6   2 1825.73 91.9914  20
  -1   6  -2 1806.25 90.2472  20
  -1   6  -2 1676.58 62.7279   7
   1   6   2 1776.13 71.4195  16
   1   6   2 1706.94 60.9072  24
  -1   6  -2 1699.47 65.0863   6
  -1   6  -2 1825.55 66.7197   9
  -1   6  -2 1767.72 75.4791  15
  -1   6  -2 1725.23 63.2059  25
   1   6   2 1739.65 96.9875   3
   2  -6   2 789.213 66.9046  19
  -2  -6  -2 682.823 70.8797   1
   2  -6   2 707.371 65.1462   3
   2  -6   2 703.849 57.8589  10
   2  -6   2 750.962 34.5153  14
   2  -6   2 787.116 35.1107   8
  -2  -6  -2 747.664 64.3434  18
  -2  -6  -2 728.912 35.4547   4
  -2  -6  -2 783.655 35.8202  22
  -2  -6  -2 790.121 76.5049  12
   2  -6   2 786.615 66.6991  11
   2  -6   2 812.376 35.2369  26
   2  -6   2 784.870 37.4584  23
   2   6   2 746.978 36.5239  16
  -2   6  -2 719.074 29.3110  24
  -2   6  -2 747.280 31.8000  25
   2   6   2 713.398 57.3656  20
  -2   6  -2 720.011 52.7462  20
  -2   6  -2 652.415 30.1661   7
  -2   6  -2 753.683 33.2845   6
  -2   6  -2 762.429 32.3042   9
  -2   6  -2 751.528 39.0477  15
   2   6   2 776.133 30.4717  24
   2   6   2 786.626 36.5578  17
  -2   6  -2 687.461 65.2949  21
  -3  -6  -2 204.391 21.2729   9
   3  -6   2 198.778 17.5529   8
  -3  -6  -2 183.558 17.7639   4
   3  -6   2 207.841 17.6314  26
   3  -6   2 201.878 16.2830  14
  -3  -6  -2 216.449 22.0674  15
  -3  -6  -2 270.759 18.0643   7
  -3   6  -2 195.385 15.9609  25
   3   6   2 188.098 18.1182  16
   3   6   2 152.617 13.6130  24
  -3   6  -2 184.186 13.5237   9
  -3   6  -2 179.594 16.5191   6
  -3   6  -2 187.014 13.4554   7
   3   6   2 188.843 18.2957  17
  -3   6  -2 211.315 18.7259  15
  -3   6  -2 161.964 12.1864  24
  -4  -6  -2 1847.79 76.4938   4
  -4  -6  -2 1822.29 69.3373   7
   4  -6   2 1792.40 73.9007   8
   4  -6   2 1847.77 73.9184  26
  -4   6  -2 1830.49 68.5748   7
  -4   6  -2 1862.20 66.2336  24
   4   6   2 1883.29 66.8878  24
  -4   6  -2 1840.15 70.4381  25
  -4   6  -2 1869.84 72.4022   6
  -5  -6  -2 493.004 24.7032   4
   5   6   2 487.983 20.5012  24
  -5   6  -2 461.508 22.2197   7
  -5   6  -2 489.972 24.2405  25
  -5   6  -2 462.121 21.1958  24
  -5  -7   2 1129.17 49.1752   4
  -5  -7   2 1126.03 45.3355  25
  -5  -7   2 1218.13 50.3354  22
   5   7  -2 1218.44 44.4865   7
  -5   7   2 1103.22 47.6018   6
   4  -7  -2 579.029 31.2463   8
  -4  -7   2 619.519 30.2657   4
  -4  -7   2 607.457 31.3256   9
  -4  -7   2 643.926 34.8438  15
   4  -7  -2 580.335 31.6780  14
  -4  -7   2 624.617 28.0172  25
   4  -7  -2 557.287 31.0543  26
  -4  -7   2 678.636 32.0571  22
  -4   7   2 614.440 29.5975   6
   4   7  -2 593.404 30.5989   8
  -4   7   2 606.084 30.1360   5
   4   7  -2 568.750 30.1853  26
   4   7  -2 607.589 26.5135   7
  -4   7   2 572.865 25.5505  24
  -4   7   2 609.867 33.1149  23
   3  -7  -2 838.504 37.9520  26
  -3  -7   2 920.599 37.2843   5
   3  -7  -2 866.152 38.2376   8
   3  -7  -2 857.603 40.0085  14
  -3  -7   2 858.953 43.8764  15
  -3  -7   2 851.658 41.0022   9
  -3  -7   2 841.535 35.4838  25
  -3   7   2 851.947 40.4839  23
   3   7  -2 824.232 39.3338  17
   3   7  -2 865.392 39.8607  26
   3   7  -2 851.443 34.2057   7
   3   7  -2 866.303 39.7750   8
  -3   7   2 815.749 33.0033  24
   3   7  -2 816.808 40.3604  16
  -3   7   2 809.728 37.0317   6
  -3   7   2 840.685 36.6483   5
  -2  -7   2 896.246 69.3387  18
  -2  -7   2 928.725 48.3287  15
   2  -7  -2 1025.78 73.3734  10
  -2  -7   2 945.872 40.8876  22
   2  -7  -2 974.130 40.1344   8
  -2  -7   2 987.816 74.9794  12
   2  -7  -2 958.136 42.3114  14
  -2  -7   2 931.718 44.7663   9
   2  -7  -2 899.081 70.3692  19
  -2  -7   2 986.526 38.7452   5
   2  -7  -2 911.968 67.6080  18
   2  -7  -2 987.761 40.0284  26
   2  -7  -2 885.014 64.5934   2
  -2  -7   2 931.657 65.1220   2
  -2   7   2 933.148 37.6238   9
  -2   7   2 909.120 70.7985   3
   2   7  -2 840.216 67.4675  21
  -2   7   2 856.488 35.3478  24
  -2   7   2 873.790 61.5867  20
  -2   7   2 910.640 38.4967   6
  -2   7   2 845.257 39.2783  22
   2   7  -2 918.103 36.2296   7
  -2   7   2 901.763 38.4491   5
  -2   7   2 910.039 41.5865  23
   2   7  -2 920.405 41.9037  16
  -2   7   2 919.237 42.6022  15
   2   7  -2 873.267 35.9056  25
   2   7  -2 951.820 40.7237  17
   1  -7  -2 209.035 39.3676  11
   1  -7  -2 200.845 16.8296  14
  -1  -7   2 205.680 14.0575  17
  -1  -7   2 222.676 38.4341  13
  -1  -7   2 223.140 40.4277  12
   1  -7  -2 178.535 35.9496  18
   1  -7  -2 182.293 16.5142  22
  -1  -7   2 223.370 16.2189  23
   1  -7  -2 194.368 32.4026   2
  -1  -7   2 201.061 15.4511  16
  -1  -7   2 210.658 34.9882  18
  -1  -7   2 190.103 15.6808  22
   1  -7  -2 224.885 37.1668  10
  -1  -7   2 128.288 28.2976   2
   1  -7  -2 195.042 32.2213  19
  -1  -7   2 226.367 33.9467  19
  -1  -7   2 174.469 14.0132   5
   1  -7  -2 215.183 15.8404   8
   1  -7  -2 213.986 15.6519  26
  -1   7   2 268.036 35.7107  20
   1   7  -2 228.538 14.9685  17
  -1   7   2 265.902 16.2522   9
  -1   7   2 247.607 16.1485  23
   1   7  -2 255.163 29.6989  20
   1   7  -2 239.164 13.3043  25
  -1   7   2 246.042 20.5244  15
   1   7  -2 251.522 38.6426  13
   1   7  -2 222.343 12.4915  24
  -1   7   2 245.954 13.9137  24
  -1   7   2 292.793 36.7226   3
  -1   7   2 225.049 15.2795   5
  -1   7   2 241.574 14.3576   6
   1   7  -2 298.239 38.8226  12
   1   7  -2 264.571 14.7555  16
   1   7  -2 272.244 38.1672  21
   0  -7   2 3513.77 156.544   2
   0  -7  -2 3103.87 137.370  16
   0  -7  -2 3085.70 172.983  18
   0  -7  -2 3374.46 125.069  17
   0  -7  -2 3273.55 126.022  26
   0  -7  -2 3205.08 127.582  22
   0  -7  -2 3232.18 157.909   2
   0  -7  -2 3106.34 162.198  19
   0  -7   2 3436.61 136.742  16
   0  -7   2 3368.86 128.913  23
   0  -7   2 3397.13 119.075   5
   0  -7   2 3336.17 125.033  17
   0  -7   2 3318.34 165.455  19
   0  -7  -2 3207.35 126.216   8
   0  -7  -2 3316.55 133.129  14
   0   7   2 3452.70 171.076   3
   0   7   2 3483.92 119.601   5
   0   7  -2 3268.82 181.274  21
   0   7   2 3415.12 139.489  15
   0   7   2 3198.06 174.853  13
   0   7  -2 3387.48 157.742  20
   0   7   2 3362.53 113.488  24
   0   7   2 3320.86 121.034   6
   0   7   2 3458.35 184.232  12
   0   7  -2 3461.65 186.355  12
   0   7  -2 3207.20 112.634  24
   0   7  -2 3289.31 174.304  13
   0   7  -2 3216.80 116.251  25
   0   7   2 3414.92 124.509   9
   0   7   2 3492.27 160.034  20
   1  -7   2 1178.91 80.5233  19
   1  -7   2 1049.56 47.0993   8
   1  -7   2 1104.49 47.8815  17
  -1  -7  -2 1078.41 46.0228  17
   1  -7   2 1090.34 75.4983   3
   1  -7   2 1102.59 53.6910  16
   1  -7   2 1097.73 49.6182  14
   1  -7   2 1108.05 72.2291   2
  -1  -7  -2 1160.27 85.0605  18
  -1  -7  -2 1128.96 49.9341  22
   1  -7   2 1061.30 47.1531  26
   1  -7   2 1148.65 49.5000  23
  -1  -7  -2 1113.88 52.7162  16
   1  -7   2 1109.98 44.9564   5
  -1   7  -2 1193.85 84.8589  21
  -1   7  -2 1107.98 43.8735  25
   1   7   2 1181.91 47.5676  16
  -1   7  -2 1129.41 74.4266  12
  -1   7  -2 1086.06 68.7988  20
  -1   7  -2 1100.84 41.4817  24
   1   7   2 1115.47 45.5237  17
   1   7   2 1089.44 67.6705  20
  -1   7  -2 1087.40 43.5407   7
   1   7   2 1123.05 83.3401  13
  -1   7  -2 1147.48 44.5965   6
  -1   7  -2 1124.43 46.8350   9
  -1   7  -2 1121.35 53.6851  15
   1   7   2 1078.66 41.3030  24
   1   7   2 1090.05 80.7393  12
  -2  -7  -2 707.471 34.0062  22
   2  -7   2 720.156 34.3385   8
   2  -7   2 718.146 34.2836  26
   2  -7   2 684.506 35.1279  23
   2  -7   2 701.752 34.4683  14
  -2   7  -2 692.923 37.6166  15
   2   7   2 699.438 33.7826  16
  -2   7  -2 651.644 30.9144  25
  -2   7  -2 684.214 29.9873   7
   2   7   2 709.074 33.8093  17
  -2   7  -2 690.223 31.5158   9
  -2   7  -2 678.562 28.3722  24
   2   7   2 685.257 28.5015  24
  -2   7  -2 683.997 31.6306   6
  -3  -7  -2 151.269 18.9825   9
  -3  -7  -2 174.548 15.5110  22
  -3  -7  -2 197.460 17.4303   4
   3  -7   2 181.986 17.0131   8
   3  -7   2 175.884 16.7527  26
  -3  -7  -2 150.619 20.8917  15
   3  -7   2 166.987 15.7917  14
   3   7   2 156.179 13.0818   7
  -3   7  -2 180.433 15.8666   6
   3   7   2 189.366 16.8828  17
  -3   7  -2 159.822 13.5299   7
  -3   7  -2 164.171 12.6402  24
   3   7   2 180.021 16.9527  16
  -3   7  -2 148.465 14.5131  25
  -3   7  -2 157.044 16.0484  15
   3   7   2 155.897 12.8253  24
  -4  -7  -2 427.210 25.5689   4
   4   7   2 478.260 21.8752   7
  -4   7  -2 460.512 26.1010  25
   4   7   2 486.131 21.8791  24
  -4   7  -2 492.107 25.1327   6
  -4   7  -2 502.875 22.5689  24
  -4   7  -2 512.589 23.7568   7
   5   7   2 443.564 18.7081  24
  -5   7  -2 473.156 20.3536  24
  -5   7  -2 468.260 21.8320   7
  -5  -8   2 720.421 32.2313  22
   5   8  -2 708.525 28.1521   7
  -5   8   2 732.365 31.4973   6
   5   8  -2 701.560 27.9757  25
  -5   8   2 582.793 32.8298  23
  -4  -8   2 410.318 25.5370   9
  -4  -8   2 456.615 24.6714  22
   4  -8  -2 427.128 26.2698  26
   4  -8  -2 444.141 26.5500   8
  -4   8   2 432.198 27.1721  23
  -4   8   2 386.818 24.5688   5
   4   8  -2 444.072 20.5864   7
  -4   8   2 400.126 20.8383  24
  -4   8   2 440.673 23.4506   6
  -3  -8   2 1060.26 42.8316   5
  -3  -8   2 1068.40 46.0381  22
   3  -8  -2 1027.52 47.7139   8
   3  -8  -2 1030.53 47.7548  26
  -3  -8   2 1024.14 51.6508  15
  -3  -8   2 1011.69 47.9520   9
   3   8  -2 992.967 40.2315  25
  -3   8   2 1034.91 43.7544   6
   3   8  -2 1013.01 47.2805  16
  -3   8   2 997.747 40.1895  24
  -3   8   2 1069.89 48.1421  23
  -3   8   2 1023.29 44.1032   5
   3   8  -2 1093.32 41.0260   7
   3   8  -2 1015.76 45.5055  17
   2  -8  -2 1431.79 59.1079   8
   2  -8  -2 1420.38 61.1756  14
   2  -8  -2 1333.30 58.6149  22
   2  -8  -2 1441.37 58.9200  26
  -2  -8   2 1363.90 57.4152  22
  -2  -8   2 1366.19 54.0430   5
   2   8  -2 1394.20 51.8581  25
  -2   8   2 1394.16 61.8218  15
  -2   8   2 1386.37 55.2788   5
   2   8  -2 1378.08 59.7700  16
  -2   8   2 1434.66 54.6441   9
  -2   8   2 1319.49 51.8753  24
  -2   8   2 1359.75 54.7017   6
   2   8  -2 1391.69 56.4819  17
  -2   8   2 1379.71 59.7552  23
  -1  -8   2 6.55028 31.5475  12
  -1  -8   2 13.3818 6.81475   5
   1  -8  -2 7.56479 33.0539   2
  -1  -8   2 7.53981 33.8398  13
   1  -8  -2 14.7308 9.29367  22
  -1  -8   2 7.43835 7.97990  23
   1  -8  -2 8.43512 37.6457  18
  -1  -8   2 1.57979 28.6891  18
   1  -8  -2 11.0194 29.9938  19
  -1  -8   2 14.1152 28.2412   2
  -1  -8   2 16.1100 8.16294  16
   1  -8  -2 30.3462 10.7724  14
   1  -8  -2 14.5907 10.0350   8
   1  -8  -2 15.0225 9.70718  26
  -1  -8   2 10.9256 22.9448  19
  -1  -8   2 19.2991 7.22136  17
  -1  -8   2 13.7191 8.36366  22
   1  -8  -2 5.13236 29.8495  10
   1   8  -2 20.3599 7.23712  17
   1   8  -2 6.24965 5.03274   7
  -1   8   2 11.0779 7.96524   5
  -1   8   2 19.4888 8.08895   9
   1   8  -2 14.7632 6.03913  24
   1   8  -2 5.42871 31.0197  13
  -1   8   2 11.9020 6.78863  24
  -1   8   2 15.0197 25.9922  20
   1   8  -2 4.42983 23.4219  12
   1   8  -2 23.7870 22.0442  20
  -1   8   2 17.3601 27.1278   3
   1   8  -2 7.30918 5.83871  25
   1   8  -2 19.0440 6.25795  16
  -1   8   2 13.4171 8.84632  23
  -1   8   2 8.67157 6.07556   6
  -1   8   2 12.5213 12.7429  15
   1   8  -2 11.0269 24.7259  21
   0  -8   2 154.032 14.6106  23
   0  -8  -2 170.195 14.7638  17
   0  -8  -2 159.141 19.4748  16
   0  -8   2 177.936 15.0762  17
   0  -8  -2 157.033 44.3303  18
   0  -8   2 157.345 33.6489  19
   0  -8  -2 142.313 15.7897  22
   0  -8   2 185.778 17.5380  16
   0  -8   2 166.588 31.4676   2
   0  -8   2 148.047 13.4169   5
   0  -8  -2 159.263 34.4901   2
   0   8  -2 161.164 12.1080   7
   0   8   2 226.650 22.3623  15
   0   8  -2 141.869 27.5510  20
   0   8   2 166.472 12.6632   6
   0   8  -2 151.441 11.5481  24
   0   8  -2 163.147 12.1720  25
   0   8   2 188.812 16.8184   9
   0   8  -2 146.389 31.9234  21
   0   8   2 205.907 31.8835  20
   0   8   2 134.098 29.6775   3
   0   8   2 164.004 12.0624  24
  -1  -8  -2 1032.92 42.7449  17
  -1  -8  -2 1003.34 42.5090   5
   1  -8   2 990.305 48.1434  14
   1  -8   2 1017.16 50.9111  16
  -1  -8  -2 1035.84 49.1814  16
   1  -8   2 957.318 45.8200  17
  -1  -8  -2 1012.95 46.2893  22
   1  -8   2 1027.66 46.5079  26
   1  -8   2 1009.92 42.1481   5
   1  -8   2 983.457 45.9134  23
   1  -8   2 1054.45 46.7898   8
   1   8   2 1050.63 38.8686  24
  -1   8  -2 1034.78 39.2053  24
  -1   8  -2 1063.69 41.5949   7
  -1   8  -2 1008.58 44.9117   9
  -1   8  -2 1017.54 51.5433  15
  -1   8  -2 1009.71 40.9336  25
  -2  -8  -2 1211.08 52.8953  22
   2  -8   2 1218.31 56.0986  14
   2  -8   2 1244.82 54.9291  23
   2  -8   2 1165.83 53.0243   8
   2  -8   2 1132.84 52.7183  26
  -2   8  -2 1199.59 46.3986  24
   2   8   2 1248.43 50.4946  17
  -2   8  -2 1312.51 49.0213   7
  -2   8  -2 1186.56 48.9841  25
  -2   8  -2 1262.60 50.0471   6
  -2   8  -2 1254.45 58.4037  15
   2   8   2 1262.35 45.9261  24
  -2   8  -2 1243.94 51.1081   9
   2   8   2 1212.37 52.8332  16
   3  -8   2 1376.86 59.4767  23
  -3  -8  -2 1343.05 56.5560  22
   3  -8   2 1345.61 58.3716   8
   3  -8   2 1313.31 58.0825  26
   3  -8   2 1408.03 62.7680  14
   3   8   2 1427.98 50.7402  24
   3   8   2 1356.02 59.6008  16
  -3   8  -2 1391.22 51.5102  24
  -3   8  -2 1327.73 54.4744  25
  -3   8  -2 1371.95 53.8114   7
  -3   8  -2 1404.64 55.7248   6
  -4  -8  -2 36.7565 8.52191   4
  -4   8  -2 30.9776 7.79706   7
   4   8   2 37.2108 6.24443  24
  -4   8  -2 49.5242 8.18221   6
  -4   8  -2 39.6515 7.71279  24
  -5  -9   2 1174.01 46.8619  22
   5   9  -2 1086.41 42.0020  25
   5   9  -2 1197.98 42.7229   7
  -5   9   2 1162.57 45.7587   6
  -4  -9   2 350.567 20.6799  22
  -4   9   2 334.798 22.4780  23
   4   9  -2 326.834 16.9903  25
   4   9  -2 346.655 17.2425   7
  -4   9   2 364.816 19.7823   6
  -4   9   2 332.079 19.0720  24
  -3  -9   2 352.879 21.2492  22
   3  -9  -2 328.930 25.2083  26
  -3  -9   2 338.295 19.4568   5
   3  -9  -2 317.428 25.2539   8
   3  -9  -2 365.008 26.3544  14
   3   9  -2 343.399 20.6755  16
  -3   9   2 339.242 22.9133  23
  -3   9   2 328.635 21.4834   5
   3   9  -2 326.415 22.0429  17
  -3   9   2 301.768 18.7326  24
   3   9  -2 296.850 16.6836  25
   2  -9  -2 1252.53 55.8842  14
   2  -9  -2 1234.62 54.6278   8
  -2  -9   2 1277.14 48.6871   5
  -2  -9   2 1216.23 51.2485  22
   2  -9  -2 1214.94 54.3959  26
   2  -9  -2 1240.07 54.4909  22
  -2   9   2 1213.58 48.3806   9
   2   9  -2 1188.56 52.4046  16
   2   9  -2 1185.47 46.4100   7
  -2   9   2 1124.50 55.7751  15
  -2   9   2 1233.85 53.8683  23
  -2   9   2 1119.24 46.4976  24
  -2   9   2 1238.69 48.8613   6
   2   9  -2 1162.41 45.5123  25
  -2   9   2 1244.72 50.5066   5
   2   9  -2 1159.62 49.5808  17
   1  -9  -2 341.726 25.6081   8
  -1  -9   2 384.760 22.1022  16
   1  -9  -2 383.520 25.9440  22
  -1  -9   2 405.163 20.0530  17
  -1  -9   2 359.302 21.7852  23
  -1  -9   2 394.865 20.4520   5
   1  -9  -2 398.754 25.7330  14
   1  -9  -2 363.938 25.7419  26
  -1   9   2 401.621 20.2008  24
  -1   9   2 385.741 21.8521   9
  -1   9   2 384.521 19.8072   6
   1   9  -2 398.527 19.1484   7
   1   9  -2 354.908 17.8579  24
   1   9  -2 362.756 18.3623  25
  -1   9   2 382.832 30.5368  15
  -1   9   2 355.533 23.0720  23
  -1   9   2 406.957 22.8343   5
   0  -9  -2 3078.06 119.303  17
   0  -9  -2 3197.83 123.692  22
   0  -9   2 3091.72 113.561   5
   0  -9  -2 2989.43 115.365   5
   0  -9   2 3142.38 119.605  17
   0  -9   2 3103.34 122.905  23
   0  -9  -2 2971.06 133.477  16
   0  -9   2 3190.76 130.825  16
   0   9   2 3217.31 108.464  24
   0   9   2 3302.52 135.340  15
   0   9  -2 3159.44 110.860  25
   0   9  -2 3281.26 112.396   7
   0   9   2 3162.85 118.938   9
   0   9  -2 3195.61 108.079  24
   1  -9   2 414.189 29.0874  16
   1  -9   2 370.908 25.9621  17
  -1  -9  -2 426.850 22.2044  17
   1  -9   2 406.309 22.3379   5
   1  -9   2 431.468 24.2934  23
  -1  -9  -2 423.955 22.8615   5
  -1  -9  -2 383.918 25.9881  16
  -1  -9  -2 433.318 24.8299  22
  -1   9  -2 431.030 21.5154   7
  -1   9  -2 411.318 20.1460  24
  -1   9  -2 377.574 21.2110  25
  -1   9  -2 386.673 25.4300   9
  -1   9  -2 398.121 29.7614  15
   1   9   2 401.237 19.1772  24
  -2  -9  -2 754.413 34.9184  22
   2  -9   2 724.437 35.9190  23
   2   9   2 708.045 29.1590  24
  -2   9  -2 709.082 30.1901  24
  -2   9  -2 716.854 38.4071  15
  -2   9  -2 712.337 33.7217   9
  -2   9  -2 723.598 31.9554   7
  -2   9  -2 715.197 31.7363   6
   3  -9   2 263.123 19.7030  23
  -3  -9  -2 252.290 17.5355  22
  -3   9  -2 276.279 17.0264   6
   3   9   2 252.473 14.2109  24
  -3   9  -2 260.761 17.5049   7
  -3   9  -2 264.861 16.1632  24
   4   9   2 242.071 12.1054  24
  -4   9  -2 234.063 13.8292  24
  -4   9  -2 262.964 15.0262   7
  -4   9  -2 260.200 14.8634   6
  -4 -10   2 70.0882 9.09156  22
  -4  10   2 92.2408 11.2476  23
  -4  10   2 80.0392 8.66337   6
   4  10  -2 57.2891 6.19407  25
  -3 -10   2 42.6794 7.95685   5
   3 -10  -2 56.1555 11.6862   5
  -3 -10   2 59.0661 9.61326  22
   3  10  -2 35.7716 6.18621   7
  -3  10   2 25.5095 8.61030  24
  -3  10   2 38.0109 7.70614   6
   3  10  -2 36.4176 6.26066  25
  -3  10   2 25.9877 10.1763  23
  -2 -10   2 144.440 13.2508  22
  -2 -10   2 187.350 14.4000   5
   2 -10  -2 119.677 15.6554   8
   2 -10  -2 154.452 16.3877   5
   2 -10  -2 126.759 16.1718  14
   2 -10  -2 123.899 15.7827  26
   2  10  -2 131.555 11.3111   7
  -2  10   2 126.560 15.6419  15
   2  10  -2 102.835 9.73510  17
  -2  10   2 151.570 12.7464   6
   2  10  -2 124.261 10.9128  25
  -2  10   2 157.022 15.8876  23
  -2  10   2 119.970 12.1425  24
   1 -10  -2 1924.99 74.6965   5
  -1 -10   2 1814.97 76.3912  23
   1 -10  -2 1772.04 78.0626  22
  -1 -10   2 1802.65 78.3861  16
  -1 -10   2 1850.80 71.6553  17
  -1  10   2 1997.46 68.7168  24
  -1  10   2 2015.55 87.3287  15
  -1  10   2 1934.39 72.1941   6
   1  10  -2 1903.16 66.8433  24
  -1  10   2 1951.75 74.0892   9
  -1  10   2 1865.33 77.5374  23
   1  10  -2 2000.89 70.0966   7
   0 -10   2 71.3391 12.5105  16
   0 -10  -2 73.4784 14.8991  16
   0 -10   2 70.8371 9.24362   5
   0 -10  -2 78.8371 11.5064   5
   0 -10   2 53.4932 11.0041  17
   0 -10  -2 66.3967 10.9716  17
   0 -10   2 83.0398 11.5575  23
   0 -10  -2 75.5604 12.3845  22
   0  10  -2 70.6920 8.34865   7
   0  10   2 52.1468 17.4082  15
   0  10   2 79.9037 8.69707  24
   0  10   2 53.0133 11.0662   9
   0  10  -2 55.2906 7.62220  24
   1 -10   2 450.651 27.3200  17
  -1 -10  -2 473.225 23.0464  17
   1 -10   2 493.970 25.8924  23
  -1 -10  -2 449.238 23.7503   5
  -1 -10  -2 456.260 26.2427  16
  -1 -10  -2 457.753 25.4207  22
   1 -10   2 443.937 23.0581   5
   1 -10   2 435.830 29.5070  16
  -1  10  -2 470.637 22.6601   7
  -1  10  -2 442.689 30.5525  15
  -1  10  -2 452.901 21.4308  24
   1  10   2 460.726 20.6391  24
  -1  10  -2 478.049 26.9328   9
   2 -10   2 128.183 14.2212  23
  -2 -10  -2 119.572 12.6532  22
  -2  10  -2 105.477 10.2541  24
  -2  10  -2 109.031 10.6334   7
   2  10   2 132.249 10.4183  24
  -3 -10  -2 163.301 13.5358  22
   3 -10   2 155.178 14.6316  23
  -3  10  -2 184.280 12.5854  24
  -3  10  -2 166.659 12.1180   6
  -3  10  -2 166.494 13.3154   7
   3  10   2 172.502 10.6387  24
  -4 -11   2 762.635 32.4807  22
   4  11  -2 784.562 29.5747   7
  -3 -11   2 875.154 37.8672  22
  -3 -11   2 868.830 35.3045   5
   3 -11  -2 888.569 37.8191   5
  -3  11   2 879.634 34.7934  24
   3  11  -2 925.128 34.3911   7
  -3  11   2 883.784 36.2628   6
  -2 -11   2 179.333 15.1035  22
   2 -11  -2 188.652 16.1190   5
  -2 -11   2 202.945 14.6607   5
  -2  11   2 201.598 13.5038   6
  -2  11   2 205.613 14.2909  24
   2  11  -2 187.811 12.2660   7
  -2  11   2 208.300 16.2197  23
  -1 -11   2 250.437 17.1751  23
  -1 -11   2 257.383 16.4908   5
   1 -11  -2 236.227 20.1031  22
   1 -11  -2 261.529 19.1534   5
  -1  11   2 247.068 14.7617  24
  -1  11   2 265.529 18.4965  23
   1  11  -2 260.877 14.6787   7
   1  11  -2 252.351 13.7595  24
   0 -11   2 169.003 15.0792  23
   0 -11  -2 181.752 16.6845  22
   0 -11   2 161.193 13.8642   5
   0 -11  -2 188.682 14.9623   5
   0  11   2 152.257 11.4107  24
   0  11  -2 173.526 12.6212   7
   0  11  -2 159.252 11.9538  24
  -1 -11  -2 454.413 22.1904   5
  -1 -11  -2 399.824 24.0720  22
   1 -11   2 434.146 22.0023   5
   1 -11   2 432.147 23.9978  23
  -1  11  -2 471.663 21.6668   7
   1  11   2 450.226 19.6679  24
  -1  11  -2 461.670 20.5597  24
  -2 -11  -2 848.968 37.9665  22
   2 -11   2 905.552 39.4189  23
  -2  11  -2 884.290 35.2116   7
   2  11   2 879.619 32.9422  24
  -2  11  -2 890.958 33.8456  24
  -3  11  -2 54.1566 6.88802   7
   3  11   2 50.9901 5.16472  24
   3 -12  -2 316.053 17.6633  23
   3  12  -2 302.456 13.7640   7
   2 -12  -2 233.558 15.6958   5
  -2 -12   2 216.990 13.5669   5
  -2  12   2 218.859 12.6844   6
   2  12  -2 226.804 11.9707   7
  -2  12   2 220.700 12.4623  24
  -1 -12   2 811.651 33.5926   5
   1 -12  -2 802.073 34.5288   5
   1 -12  -2 814.603 36.3250  22
  -1  12   2 829.600 31.2619  24
   1  12  -2 812.334 31.8481   7
   1  12  -2 810.470 30.4254  24
   0 -12  -2 89.1226 9.62040   5
   0 -12   2 101.442 11.0803  23
   0 -12  -2 88.5065 11.0174  22
   0 -12   2 88.4648 9.12902   5
   0  12  -2 105.342 8.12049  24
   0  12   2 82.6696 7.52477  24
   0  12  -2 75.4117 7.52082   7
  -1 -12  -2 651.891 30.6092  22
   1 -12   2 671.696 30.7745  23
   1  12   2 638.407 25.4775  24
  -1  12  -2 713.455 26.1883  24
  -1  12  -2 669.907 27.1124   7
   2 -12   2 76.2292 8.43524  23
  -2 -12  -2 85.8938 8.78194  22
   2  12   2 68.5496 5.83315  24
  -2  12  -2 67.9094 6.84161  24
  -2  12  -2 72.6795 6.73418   7
  -1 -13   2 6.75080 5.25237   5
   1 -13  -2 5.33643 5.65337   5
   1  13  -2 4.26773 3.79067   7
  -6   0   3 11.9702 11.7192   4
  -5   0   3 2069.56 80.5276  22
  -5   0   3 2033.40 85.0406   4
  -5   0   3 2049.06 77.4909  25
  -4   0   3 44.6619 22.6488  18
  -4   0   3 58.8874 7.65608   5
  -4   0   3 49.8875 9.75769   4
  -4   0   3 22.5778 8.29658  25
  -4   0   3 62.3028 19.8087   2
  -4   0   3 40.3672 7.22260  22
   4   0  -3 68.5547 25.2927  11
   4   0  -3 34.6777 29.6554   1
   3   0  -3 8762.70 334.538   8
   3   0  -3 9290.58 457.458   1
   3   0  -3 9555.96 445.840  10
   3   0  -3 8730.74 333.666  26
  -3   0   3 9430.72 408.299  19
   3   0  -3 9343.06 462.685  21
  -3   0   3 9236.26 382.539   2
  -3   0   3 9785.31 418.096  18
   3   0  -3 9999.99 471.971  11
  -2   0   3 1000.26 38.4409   9
  -2   0   3 1007.66 55.3700  19
   2   0  -3 955.566 61.1528  21
   2   0  -3 1027.02 39.2138  26
   2   0  -3 1018.02 39.3585   8
   2   0  -3 1003.63 63.6203   1
   2   0  -3 1038.39 57.1699  10
   2   0  -3 1053.67 60.6555  11
  -2   0   3 1005.12 42.8521  15
  -2   0   3 962.099 59.3625   3
   2   0  -3 1069.91 41.2128  14
  -2   0   3 1095.60 51.3543   2
  -2   0   3 1042.56 56.0739  18
  -1   0   3 194.858 10.6036   9
   1   0  -3 198.795 18.9167  21
  -1   0   3 227.655 28.2516   3
   1   0  -3 188.350 18.9746  10
   1   0  -3 201.271 10.4609  26
   1   0  -3 190.300 21.0202  11
  -1   0   3 191.781 17.6021  18
  -1   0   3 187.668 18.4203  13
  -1   0   3 184.051 12.5542  15
  -1   0   3 203.711 18.8168  19
   1   0  -3 195.084 11.1281  14
   1   0  -3 194.444 10.4464   8
  -1   0   3 236.365 16.8484   2
   1   0  -3 200.761 22.5465   1
   0   0  -3 1209.48 64.6279  21
   0   0   3 1208.77 53.8379   2
   0   0   3 1183.67 45.5929  17
   0   0  -3 1216.69 69.3515   1
   0   0  -3 1152.99 49.2350  16
   0   0   3 1141.02 55.8772  20
   0   0  -3 1085.75 70.3531  11
   0   0   3 1231.47 46.0882   9
   0   0  -3 1219.54 45.6854  17
   0   0   3 1189.14 65.7660  10
   0   0  -3 1211.74 64.5459  13
   0   0  -3 1183.20 48.9324  14
   0   0   3 1224.28 68.6974  11
   0   0  -3 1178.49 59.0208  18
   0   0   3 1213.73 50.8885  15
   0   0  -3 1160.36 69.2332  12
   0   0   3 1245.53 59.7776  19
   0   0  -3 1201.04 66.5285  10
   0   0   3 1177.36 65.5257  13
   0   0  -3 1167.27 45.6936  26
   0   0   3 1217.81 71.0385  12
   0   0   3 1214.87 68.9888   3
   0   0  -3 1154.80 45.7521   8
   1   0   3 223.946 23.1284  10
  -1   0  -3 231.138 22.0633  21
  -1   0  -3 209.623 22.9757  12
  -1   0  -3 232.232 30.8992   1
  -1   0  -3 223.802 12.4783   9
   1   0   3 185.790 18.1927  20
   1   0   3 230.586 13.2519  17
  -1   0  -3 207.787 12.3124  16
   1   0   3 206.698 11.9310  26
  -1   0  -3 220.619 11.9933  17
   1   0   3 200.938 13.0462  16
  -1   0  -3 239.674 22.1495  13
  -1   0  -3 210.626 14.3886  15
   1   0   3 199.014 11.8656   8
   1   0   3 210.181 18.9576  19
   1   0   3 204.003 22.5517  11
   1   0   3 291.070 31.4645   3
   1   0   3 196.488 12.0764  14
  -2   0  -3 5985.10 219.828  15
   2   0   3 5731.53 201.128  26
  -2   0  -3 5523.29 267.642  13
   2   0   3 5768.24 201.663   8
  -2   0  -3 5670.89 290.869  12
  -2   0  -3 5413.91 209.058   4
  -2   0  -3 5639.43 292.024   1
   2   0   3 5590.33 202.465  17
   2   0   3 4842.45 288.055  11
   2   0   3 5511.52 268.465   3
  -2   0  -3 5877.88 198.633   9
   2   0   3 5109.06 244.119  20
   2   0   3 5521.81 212.912  14
   2   0   3 4914.65 197.575   6
  -2   0  -3 5686.66 188.413  25
   2   0   3 5622.62 219.581  16
   2   0   3 5251.45 274.704  10
  -2   0  -3 5847.82 278.749  21
  -3   0  -3 2067.97 73.5484   7
   3   0   3 2044.98 77.8407   6
  -3   0  -3 2129.06 121.456  21
  -3   0  -3 2068.75 78.3208   9
   3   0   3 2056.46 79.2727   8
  -3   0  -3 2093.24 86.2700  15
   3   0   3 1989.84 83.9582  14
   3   0   3 2148.37 79.1759  26
   3   0   3 1987.40 107.805  20
  -3   0  -3 2091.31 73.5161  25
  -3   0  -3 2093.16 71.6571  24
  -3   0  -3 1975.40 87.0370   4
   3   0   3 1890.30 117.102   3
  -3   0  -3 1632.36 148.049   1
  -4   0  -3 401.113 19.5231  25
  -4   0  -3 363.219 23.3694   9
   4   0   3 395.092 22.9591  26
  -4   0  -3 350.507 30.4603   4
  -4   0  -3 358.434 18.8983   7
  -4   0  -3 384.082 18.9195  24
   4   0   3 385.817 22.9985   8
   4   0   3 384.661 21.3063   6
   4   0   3 357.985 24.1013  14
  -4   0  -3 358.118 23.8752  15
  -5   0  -3 5.27526 6.35207   7
  -5   0  -3 2.16974 6.78455  25
  -5   0  -3 9.52533 6.80400  24
  -6  -1   3 487.671 25.2144  25
  -6  -1   3 494.545 30.1758   4
  -5  -1   3 1332.47 59.8828   4
  -5  -1   3 1369.29 55.8194  22
  -5  -1   3 1225.88 52.8203  25
   5   1  -3 1363.42 52.9530  26
  -5   1   3 1273.97 57.1422   4
   5   1  -3 1413.02 53.3094   8
  -5   1   3 1317.48 54.2480  22
  -4  -1   3 949.596 59.5490   2
  -4  -1   3 990.144 45.9692   4
  -4  -1   3 990.385 39.5660   5
  -4  -1   3 834.980 63.5268  18
   4  -1  -3 1004.66 75.6841   1
  -4  -1   3 1028.53 42.7352  22
  -4  -1   3 971.714 41.3697  25
  -4   1   3 1075.32 42.0426  22
  -4   1   3 984.763 66.6237  19
  -4   1   3 994.516 58.6772   2
   4   1  -3 1031.87 40.6412  26
  -4   1   3 962.126 43.5973   4
   4   1  -3 1036.43 84.7446   1
   4   1  -3 1038.93 79.5245  21
  -4   1   3 1019.43 64.6054  18
   4   1  -3 1042.46 63.1044  10
   4   1  -3 1030.92 40.7931   8
  -4   1   3 1058.92 39.4732   5
  -3  -1   3 886.594 50.9442   2
   3  -1  -3 856.923 61.4546   1
  -3  -1   3 917.021 40.4141  15
  -3  -1   3 979.871 35.0654   9
   3  -1  -3 980.487 51.8148  10
   3  -1  -3 979.730 55.3664  11
  -3  -1   3 925.979 56.6811  18
  -3  -1   3 904.184 55.4621  19
   3   1  -3 912.445 37.2048  26
   3   1  -3 936.521 59.8641  11
   3   1  -3 895.209 67.2217  21
  -3   1   3 948.921 50.7006   2
   3   1  -3 915.233 68.5427   1
   3   1  -3 910.831 37.3217   8
   3   1  -3 962.348 38.0884  14
  -3   1   3 919.757 55.0763  19
   3   1  -3 833.778 55.6064  10
  -3   1   3 866.404 54.4064  18
  -2  -1   3 1656.79 82.9260  19
   2  -1  -3 1655.31 91.4450   1
  -2  -1   3 1566.49 75.2616   2
  -2  -1   3 1634.14 60.6194   9
   2  -1  -3 1636.60 89.8314  11
  -2  -1   3 1611.37 67.4610  15
   2  -1  -3 1687.14 64.2928  14
  -2  -1   3 1687.44 83.5133  18
   2  -1  -3 1621.89 84.9087  10
  -2   1   3 1674.24 59.8199   9
  -2   1   3 1619.07 82.3569  18
  -2   1   3 1666.39 81.3711  19
   2   1  -3 1571.95 93.4811  21
  -2   1   3 1506.95 90.3486   3
   2   1  -3 1714.16 93.4242  11
   2   1  -3 1773.48 88.5172  10
  -2   1   3 1613.52 66.1825  15
  -2   1   3 1584.40 75.1634   2
   2   1  -3 1623.74 93.6115   1
  -1  -1   3 2822.46 145.323  12
  -1  -1   3 2615.03 137.057   3
   1  -1  -3 2621.99 99.8259   8
   1  -1  -3 2837.85 145.370  11
  -1  -1   3 2791.27 109.565  15
  -1  -1   3 2668.75 116.435   2
   1  -1  -3 2823.94 137.311  10
   1  -1  -3 2775.95 140.242   1
   1  -1  -3 2629.04 99.5889  26
   1  -1  -3 2618.73 134.085  21
   1  -1  -3 2697.36 127.155  18
  -1  -1   3 2607.22 125.913  19
  -1  -1   3 2583.89 126.333  18
  -1  -1   3 2736.97 98.9981   9
   1  -1  -3 2790.74 105.960  14
  -1   1   3 2632.85 138.730   3
  -1   1   3 2644.58 98.4988   9
   1   1  -3 2826.13 100.598   8
   1   1  -3 2919.84 142.630   1
   1   1  -3 2801.59 138.911  10
   1   1  -3 2828.86 146.728  11
   1   1  -3 2571.07 138.793  21
   1   1  -3 2779.82 106.086  14
   1   1  -3 2797.55 100.263  26
  -1   1   3 2834.17 125.177  19
  -1   1   3 2747.10 116.171   2
  -1   1   3 2716.99 108.875  15
   0  -1  -3 3633.85 198.103  12
   0  -1   3 3281.45 195.917  11
   0  -1   3 3906.42 184.568   3
   0  -1  -3 3616.66 183.661  13
   0  -1  -3 3643.22 137.365  17
   0  -1   3 4047.07 200.422  12
   0  -1  -3 3907.05 184.781  21
   0  -1  -3 3764.55 149.174  16
   0  -1  -3 3763.79 137.602   8
   0  -1   3 3155.14 150.213  15
   0  -1  -3 3761.81 137.289  26
   0  -1  -3 3559.59 189.374   1
   0  -1   3 4025.93 169.882  19
   0  -1   3 3514.19 161.926  20
   0  -1  -3 3918.57 171.830  18
   0  -1   3 3918.56 137.480  17
   0  -1   3 4141.35 186.267  13
   0  -1   3 3746.30 149.332  16
   0  -1  -3 3627.75 187.315  10
   0  -1   3 3602.30 186.584  10
   0  -1  -3 3840.73 145.960  14
   0  -1   3 3863.08 156.045   2
   0  -1  -3 4026.67 199.977  11
   0   1  -3 3751.51 198.209  12
   0   1  -3 4018.42 190.800   1
   0   1  -3 3682.75 183.775  13
   0   1  -3 3949.93 137.436  17
   0   1  -3 3913.98 188.750  10
   0   1   3 3497.51 166.093  20
   0   1   3 3929.77 185.251   3
   0   1   3 3842.38 167.581  19
   0   1  -3 3130.69 145.473  14
   0   1   3 3740.23 135.906   9
   0   1   3 3962.92 199.495  12
   0   1  -3 3882.70 169.446  18
   0   1  -3 3970.74 188.177  21
   0   1  -3 3827.76 148.908  16
   0   1   3 4176.56 185.919  13
   0   1   3 3865.79 149.119  16
   0   1   3 3843.11 155.824   2
   0   1   3 3798.60 150.359  15
   0   1  -3 3742.46 199.400  11
   1  -1   3 994.694 41.4700  14
  -1  -1  -3 911.282 61.7750  12
  -1  -1  -3 1022.01 66.4214   1
   1  -1   3 1011.13 43.6974  16
  -1  -1  -3 988.327 44.1405  15
  -1  -1  -3 1039.60 57.9840  21
  -1  -1  -3 1011.32 40.0742   9
   1  -1   3 991.814 59.2129  10
   1  -1   3 1049.91 40.3834  17
   1  -1   3 965.495 39.5571  26
   1  -1   3 974.717 39.6288   8
  -1  -1  -3 1019.76 58.3558  13
   1  -1   3 950.924 61.4686   3
  -1  -1  -3 1014.69 39.2879  17
   1  -1   3 922.560 52.0307  19
   1  -1   3 970.459 50.9332  20
   1  -1   3 1000.04 61.7023  11
  -1   1  -3 1018.54 61.4371  12
   1   1   3 1014.82 39.8607   8
   1   1   3 1026.50 42.0987  14
   1   1   3 1010.00 60.3530  10
  -1   1  -3 1014.65 59.6447  21
  -1   1  -3 1009.91 42.1225  16
   1   1   3 1004.43 62.6014  11
  -1   1  -3 1037.31 57.6350  13
  -1   1  -3 1012.26 39.5319   9
   1   1   3 968.542 43.1224  16
   1   1   3 1002.33 39.7757  26
   1   1   3 967.646 52.9702  20
   1   1   3 980.813 59.8325  13
  -1   1  -3 1031.68 44.0187  15
  -1   1  -3 980.548 39.3729  17
  -1   1  -3 990.028 66.9874   1
   1   1   3 1011.40 64.8954  12
   1   1   3 1070.09 40.4424  17
  -2  -1  -3 863.252 61.9698  12
   2  -1   3 896.568 36.6404   8
  -2  -1  -3 873.636 55.1953  13
   2  -1   3 886.884 38.4004  14
  -2  -1  -3 886.581 37.0620   9
  -2  -1  -3 750.011 32.3993  24
   2  -1   3 873.456 59.8517  11
  -2  -1  -3 951.344 77.3925   1
  -2  -1  -3 890.497 40.9478  15
   2  -1   3 925.900 36.7313  26
  -2  -1  -3 861.253 58.1594  21
   2  -1   3 825.586 50.8556  20
   2  -1   3 902.631 57.6016  10
  -2  -1  -3 866.269 40.3748   4
   2   1   3 896.086 38.1210  17
   2   1   3 889.599 59.1047  10
   2   1   3 874.037 40.3560  16
  -2   1  -3 880.145 33.4589  25
  -2   1  -3 824.997 41.2644   4
  -2   1  -3 929.654 81.1153   1
   2   1   3 884.418 36.6838   8
  -2   1  -3 928.484 36.5920   9
   2   1   3 876.676 39.1300  14
   2   1   3 899.275 60.9773   3
   2   1   3 886.632 61.5165  11
   2   1   3 905.357 36.3694   6
  -2   1  -3 883.420 59.2992  12
   2   1   3 925.838 54.6473  20
   2   1   3 889.653 36.7367  26
  -2   1  -3 842.135 54.2040  13
  -2   1  -3 933.572 40.6410  15
  -2   1  -3 885.985 59.5364  21
  -3  -1  -3 1017.19 108.339   1
  -3  -1  -3 977.497 37.1738  24
   3  -1   3 1012.50 41.7715   8
  -3  -1  -3 1047.89 48.4519   4
  -3  -1  -3 991.442 38.0661   7
  -3  -1  -3 984.125 38.0878  25
   3  -1   3 729.629 60.1566  20
  -3  -1  -3 995.750 46.4619  15
   3  -1   3 1016.37 41.6927  26
  -3  -1  -3 973.533 42.1105   9
   3  -1   3 983.464 43.7937  14
   3  -1   3 968.202 41.0445   6
   3  -1   3 969.383 73.0104   3
   3   1   3 1007.91 41.0881   6
   3   1   3 1008.68 41.9806   8
   3   1   3 980.806 41.7301  26
  -3   1  -3 1003.68 38.3643  25
  -3   1  -3 1020.24 41.2061   9
  -3   1  -3 1001.92 36.9877  24
   3   1   3 911.048 70.3650   3
  -3   1  -3 988.613 37.9086   7
  -3   1  -3 986.202 45.2479  15
   3   1   3 900.013 66.0961  20
   3   1   3 901.458 44.4755  14
  -3   1  -3 963.610 72.5991  21
  -3   1  -3 876.255 49.5558   4
   4  -1   3 526.763 26.5976   6
   4  -1   3 508.573 28.8204  14
  -4  -1  -3 487.768 29.3507  15
  -4  -1  -3 514.042 24.2934   7
  -4  -1  -3 561.089 24.3654  24
  -4  -1  -3 532.704 29.4572   9
   4  -1   3 547.148 27.8271  26
   4  -1   3 545.667 27.7630   8
  -4  -1  -3 548.088 25.0401  25
  -4  -1  -3 521.272 34.7270   4
   4   1   3 510.661 28.0459  26
  -4   1  -3 551.144 24.3838   7
  -4   1  -3 572.678 25.1902  25
  -4   1  -3 539.670 29.4296  15
  -4   1  -3 544.207 23.7868  24
   4   1   3 496.752 30.3738  14
  -4   1  -3 550.357 27.4737   9
   4   1   3 513.304 27.9715   8
   4   1   3 559.875 26.3857   6
  -5  -1  -3 1579.57 57.0011  24
  -5  -1  -3 1553.68 58.4468  25
  -5  -1  -3 1589.20 66.9411   4
  -5  -1  -3 1604.54 58.5297   7
  -5   1  -3 1546.42 56.5825  24
  -5   1  -3 1544.16 58.1976   7
  -5   1  -3 1550.37 58.5872  25
  -6  -2   3 948.125 40.4207  25
  -6  -2   3 1002.25 46.1955   4
  -5  -2   3 538.353 29.1210  22
  -5  -2   3 525.219 26.6457  25
  -5  -2   3 490.334 30.7014   4
   5   2  -3 525.310 25.8068   8
   5   2  -3 523.219 25.7029  26
   5   2  -3 555.277 32.3482  14
   4  -2  -3 424.663 42.7518  18
  -4  -2   3 418.255 46.2787  18
  -4  -2   3 410.761 24.9906   4
  -4  -2   3 408.233 22.1013  25
  -4  -2   3 409.583 40.6299   2
  -4  -2   3 406.392 22.3268  22
  -4  -2   3 439.858 20.9919   5
  -4   2   3 386.893 19.2472   5
  -4   2   3 380.444 21.0003   4
   4   2  -3 423.431 20.6712   8
  -4   2   3 402.110 44.2762  19
   4   2  -3 485.060 56.5616  21
   4   2  -3 423.131 20.6212  26
  -4   2   3 346.852 36.3584   2
  -4   2   3 370.292 21.5918  23
  -4   2   3 381.567 20.1077  22
   4   2  -3 396.554 22.3999  14
  -3  -2   3 1279.24 70.2993   2
  -3  -2   3 1287.47 57.2775   4
   3  -2  -3 1398.69 72.2370  10
   3  -2  -3 1439.47 77.0759  11
  -3  -2   3 1324.90 76.7103  19
  -3  -2   3 1362.35 55.2642  22
   3  -2  -3 1343.24 83.2204   1
  -3  -2   3 1332.26 78.6203  18
  -3  -2   3 1387.77 59.4050  15
  -3  -2   3 1416.09 52.3471   9
   3   2  -3 1478.42 56.6436  14
  -3   2   3 1401.27 75.6034  19
   3   2  -3 1292.26 88.5118  21
  -3   2   3 1384.68 51.7428   5
   3   2  -3 1505.45 54.8461   8
   3   2  -3 1390.92 81.9151  10
  -3   2   3 1395.22 69.3047   2
   3   2  -3 1351.08 86.4120  11
  -3   2   3 1300.07 80.1632   3
  -3   2   3 1342.53 54.9850  22
   3   2  -3 1501.50 54.7414  26
   3   2  -3 1416.40 92.6883   1
   2  -2  -3 3047.52 152.327  10
  -2  -2   3 3156.14 124.489  15
   2  -2  -3 3152.94 161.755  11
  -2  -2   3 3144.44 147.026  18
  -2  -2   3 3226.34 146.442  19
   2  -2  -3 2905.95 145.109  18
  -2  -2   3 3143.13 112.006   9
   2  -2  -3 2976.38 111.628  26
   2  -2  -3 3009.47 111.925   8
  -2  -2   3 3191.16 161.382  12
   2  -2  -3 2977.47 118.604  14
   2  -2  -3 3152.15 158.691   1
  -2  -2   3 3006.13 134.472   2
  -2  -2   3 3086.68 151.788  13
   2   2  -3 3146.06 164.611  21
  -2   2   3 2932.02 158.585   3
   2   2  -3 3106.59 166.381  11
  -2   2   3 2973.59 110.157   9
  -2   2   3 3122.75 121.951  15
   2   2  -3 3198.73 120.115  14
  -2   2   3 3086.93 133.126   2
   2   2  -3 3096.17 158.101  10
   2   2  -3 3185.01 164.324   1
  -2   2   3 3031.54 143.197  19
   2   2  -3 3087.98 114.384   8
   2   2  -3 3099.70 114.079  26
  -1  -2   3 3768.36 145.657  16
  -1  -2   3 3840.11 196.545  12
  -1  -2   3 3770.97 169.799  18
   1  -2  -3 3705.96 185.738   1
   1  -2  -3 3824.69 143.206  14
  -1  -2   3 3886.04 157.300   2
  -1  -2   3 3926.34 183.522  13
   1  -2  -3 3842.23 183.515  10
  -1  -2   3 3633.34 147.782  15
  -1  -2   3 3574.04 180.031   3
  -1  -2   3 3647.81 134.206  17
   1  -2  -3 3797.55 134.596  26
   1  -2  -3 3742.47 170.733  18
  -1  -2   3 3525.93 169.044  19
  -1  -2   3 3572.30 133.635   9
   1  -2  -3 3788.14 134.933   8
   1  -2  -3 3878.54 194.750  11
  -1   2   3 3818.85 155.902   2
   1   2  -3 3782.40 186.365  10
  -1   2   3 3908.14 166.801  19
   1   2  -3 3598.22 135.509  26
  -1   2   3 3495.58 132.475   9
  -1   2   3 3540.14 183.534   3
   1   2  -3 3670.18 143.384  14
  -1   2   3 3692.39 178.300  13
  -1   2   3 3618.15 146.620  15
   1   2  -3 3686.24 196.684  11
   1   2  -3 3513.48 187.801  21
   1   2  -3 3587.35 146.912  16
   1   2  -3 3649.82 135.932   8
  -1   2   3 3662.23 193.605  12
   1   2  -3 3702.58 188.361   1
   1   2  -3 3726.85 135.117  17
   0  -2  -3 164.224 19.3991  13
   0  -2   3 209.854 24.6134  13
   0  -2   3 200.083 23.0441  19
   0  -2   3 175.520 23.7262  12
   0  -2   3 169.366 20.3426  10
   0  -2  -3 164.954 10.4710  16
   0  -2  -3 160.762 11.4506  14
   0  -2   3 174.015 20.8568  11
   0  -2  -3 176.664 20.5318  10
   0  -2  -3 138.462 20.5944  11
   0  -2  -3 162.522 9.96811  26
   0  -2   3 175.947 11.4191  16
   0  -2  -3 154.396 9.85929   8
   0  -2   3 157.297 10.2471  17
   0  -2  -3 235.946 27.8710   1
   0  -2   3 183.005 25.4384   3
   0  -2  -3 165.919 18.9358  18
   0  -2  -3 162.369 21.2663  12
   0  -2   3 160.981 16.1404   2
   0  -2  -3 167.690 10.3860  17
   0   2   3 185.545 22.3275  20
   0   2  -3 194.244 22.9051  10
   0   2  -3 148.962 20.2051  12
   0   2   3 181.178 22.8894  12
   0   2   3 147.423 16.5076  19
   0   2   3 169.557 12.8424  15
   0   2   3 162.537 10.7735  16
   0   2   3 161.740 10.7406   9
   0   2  -3 183.260 25.2929  11
   0   2  -3 171.321 22.3820  21
   0   2   3 219.418 28.0057   3
   0   2  -3 127.642 20.6639   1
   0   2  -3 167.438 10.5163  17
   0   2  -3 161.442 20.1794  13
   0   2  -3 141.623 9.76282  16
   0   2   3 169.264 20.7338  13
   1  -2   3 1751.32 72.5571  16
   1  -2   3 1747.85 86.7286  19
  -1  -2  -3 1783.73 93.6224  13
  -1  -2  -3 1791.52 71.9956  16
  -1  -2  -3 1750.08 93.8209  18
   1  -2   3 1812.74 97.7106   3
   1  -2   3 1653.19 69.2836  14
  -1  -2  -3 1745.92 65.7528  17
  -1  -2  -3 1855.43 103.754  12
   1  -2   3 1716.78 66.3609   8
   1  -2   3 1805.56 99.9884  11
   1  -2   3 1744.83 66.1886  26
   1  -2   3 1773.83 66.4667  17
   1  -2   3 1819.07 95.7932  10
  -1   2  -3 1645.55 65.9483  17
   1   2   3 1782.36 103.916  12
   1   2   3 1656.25 85.8868  20
  -1   2  -3 1583.27 101.201   1
   1   2   3 1752.94 71.9990  16
  -1   2  -3 1688.78 72.3671  15
   1   2   3 1681.93 95.6447  13
   1   2   3 1815.54 66.7913  17
  -1   2  -3 1691.66 92.1359  13
  -1   2  -3 1729.70 65.4768   9
  -1   2  -3 1768.99 98.6500  12
   1   2   3 1761.65 95.9801   3
  -1   2  -3 1675.85 95.5926  21
  -1   2  -3 1730.52 70.2283  16
  -2  -2  -3 408.634 23.4166  15
   2  -2   3 388.314 43.7650   3
   2  -2   3 396.950 35.6699  10
  -2  -2  -3 477.293 58.1251   1
  -2  -2  -3 411.181 23.3031   4
  -2  -2  -3 409.132 18.0230  24
   2  -2   3 399.629 37.5699  11
   2  -2   3 397.404 19.5186  26
  -2  -2  -3 417.293 35.5400  13
  -2  -2  -3 427.770 42.9330  12
   2  -2   3 369.761 31.3692  20
   2  -2   3 396.270 20.1647  14
   2  -2   3 392.810 19.4787   8
  -2  -2  -3 426.781 38.7986  21
  -2  -2  -3 415.218 20.9845   9
   2   2   3 391.947 19.5296   6
   2   2   3 379.651 20.2338  26
   2   2   3 404.234 22.2088  16
   2   2   3 390.956 22.0573  17
  -2   2  -3 358.580 16.5959  24
  -2   2  -3 373.181 17.1464   7
  -2   2  -3 411.281 39.6555  21
   2   2   3 396.937 43.5979  10
   2   2   3 395.065 36.6685  20
   2   2   3 386.490 40.0934   3
  -2   2  -3 365.128 57.3790   1
   2   2   3 381.016 21.9649  14
  -2   2  -3 422.366 22.1770  15
  -2   2  -3 342.463 35.4558  13
  -2   2  -3 370.703 19.3217   6
   2   2   3 374.695 20.2683   8
  -2   2  -3 395.343 17.4540  25
  -3  -2  -3 1065.46 46.8728   9
   3  -2   3 1070.00 45.5592   8
  -3  -2  -3 1112.96 51.6316   4
  -3  -2  -3 1115.88 41.7101  24
   3  -2   3 1050.88 47.4912  14
   3  -2   3 1049.69 45.3597  26
  -3  -2  -3 1034.67 41.7602  25
  -3  -2  -3 1090.57 51.1650  15
  -3   2  -3 1114.36 41.9697   7
  -3   2  -3 1115.11 44.7015   9
  -3   2  -3 1130.90 42.3328  25
   3   2   3 1087.90 46.6423   8
  -3   2  -3 1103.82 49.7081  15
  -3   2  -3 1178.43 41.1420  24
   3   2   3 1102.45 44.6787   6
   3   2   3 1061.75 50.2363  14
   3   2   3 1058.21 46.3645  26
   4  -2   3 1673.33 66.9930   8
  -4  -2  -3 1663.01 61.9436   7
   4  -2   3 1612.22 69.8113  14
  -4  -2  -3 1554.42 71.9981  15
  -4  -2  -3 1686.94 72.7543   4
  -4  -2  -3 1690.87 60.6828  24
  -4  -2  -3 1607.45 67.9877   9
   4  -2   3 1643.08 66.7463  26
   4  -2   3 1693.10 65.6211   6
  -4  -2  -3 1628.07 61.6391  25
  -4   2  -3 1659.27 61.5351   7
  -4   2  -3 1657.36 62.0519  25
  -4   2  -3 1690.34 59.7522  24
  -5  -2  -3 17.1131 6.88314  25
   5  -2   3 8.36594 6.88026   6
  -5  -2  -3 21.5146 10.2314   4
  -5  -2  -3 17.1348 6.83445   7
  -5   2  -3 17.4334 6.64234  24
  -5   2  -3 21.5596 7.55783  25
  -5   2  -3 21.7703 6.34468   7
  -6  -3   3 165.382 13.5976  25
  -6  -3   3 184.316 16.7558   4
  -6  -3   3 147.841 16.2962  22
  -5  -3   3 378.818 22.3618  25
  -5  -3   3 417.751 25.7770   4
  -5  -3   3 388.270 25.9998  22
   5   3  -3 383.263 22.4105   8
   5   3  -3 398.149 28.7844  14
   5   3  -3 424.326 22.7619  26
   4  -3  -3 4158.03 221.328  18
  -4  -3   3 4773.24 175.909  22
  -4  -3   3 4698.44 179.149   4
  -4  -3   3 4703.93 163.655  25
  -4  -3   3 4406.95 209.487   2
  -4  -3   3 4832.77 165.210   5
   4  -3  -3 4607.32 205.754   2
  -4  -3   3 4663.15 163.551   7
  -4  -3   3 4688.98 234.481  18
  -4   3   3 4668.52 177.855  23
   4   3  -3 4891.49 252.690  21
   4   3  -3 4612.92 183.670  14
   4   3  -3 4681.57 255.417   1
  -4   3   3 4254.53 221.014  19
  -4   3   3 4654.09 172.777  22
   4   3  -3 4980.98 172.669   8
  -4   3   3 4675.94 163.109   5
   4   3  -3 4917.48 172.098  26
  -3  -3   3 509.992 42.2072   2
  -3  -3   3 531.404 24.8603   9
   3  -3  -3 556.177 37.2534  11
  -3  -3   3 522.741 48.0098  18
  -3  -3   3 531.520 46.2223  19
  -3  -3   3 515.003 26.1839  22
   3  -3  -3 554.064 35.1043  10
  -3  -3   3 555.461 27.8667   4
  -3  -3   3 494.564 24.0011  25
  -3  -3   3 505.094 24.3282   5
   3  -3  -3 505.718 40.7069  18
  -3  -3   3 506.717 27.9955  15
   3   3  -3 514.869 47.8835  10
   3   3  -3 567.100 25.0415   8
  -3   3   3 530.995 22.5871   5
  -3   3   3 497.616 39.8320  19
  -3   3   3 521.153 23.8914  22
  -3   3   3 526.462 49.5554   3
   3   3  -3 539.105 26.4222  14
   3   3  -3 522.186 51.6113  21
  -3   3   3 486.095 36.3164   2
  -3   3   3 538.960 25.0259  23
   3   3  -3 553.850 24.9351  26
   3   3  -3 529.290 52.8732  11
   3   3  -3 522.622 56.9807   1
   2  -3  -3 3170.99 112.318  26
  -2  -3   3 3117.48 155.378  13
  -2  -3   3 3133.79 126.653  15
  -2  -3   3 3188.45 114.053   9
   2  -3  -3 3144.58 158.200   1
  -2  -3   3 3106.36 166.024  12
   2  -3  -3 3150.60 163.593  11
  -2  -3   3 3291.35 150.708  19
   2  -3  -3 3189.99 154.657  10
   2  -3  -3 3060.06 120.072  14
   2  -3  -3 3128.19 112.530   8
  -2  -3   3 3115.47 138.768   2
  -2  -3   3 3175.45 150.601  18
  -2   3   3 2888.33 160.723   3
   2   3  -3 3104.35 115.301  26
   2   3  -3 2942.77 170.168  11
   2   3  -3 3077.11 121.547  14
  -2   3   3 3068.95 144.696  19
  -2   3   3 3100.39 122.302  15
   2   3  -3 3002.80 165.391   1
   2   3  -3 3086.58 115.598   8
  -2   3   3 3030.18 111.256   9
   2   3  -3 2886.57 161.838  10
   2   3  -3 3194.06 166.751  21
  -2   3   3 2972.45 134.565   2
  -1  -3   3 31.1419 15.1421  12
  -1  -3   3 39.4107 8.20836  15
  -1  -3   3 29.3983 13.7620  18
  -1  -3   3 35.6727 17.2233  19
   1  -3  -3 35.8695 4.67786  26
   1  -3  -3 36.9718 13.4373   1
  -1  -3   3 30.5127 15.1980  13
   1  -3  -3 31.3990 13.4970  11
   1  -3  -3 30.0789 6.02525  14
  -1  -3   3 43.4774 13.3571   2
   1  -3  -3 27.8721 4.40006   8
  -1  -3   3 32.5845 6.61668   9
  -1  -3   3 24.7778 16.1399   3
   1  -3  -3 33.2646 11.5795  10
  -1  -3   3 33.7892 5.47219  17
  -1  -3   3 36.0622 6.12641  16
   1  -3  -3 41.1890 13.5966  18
   1   3  -3 57.3434 16.2038  10
   1   3  -3 76.6110 19.4692  21
  -1   3   3 51.2292 12.0015  13
  -1   3   3 69.2014 21.5407   3
   1   3  -3 43.3477 16.2311   1
  -1   3   3 58.1844 6.07751   9
   1   3  -3 51.1203 7.11912   8
   1   3  -3 60.1754 7.13145  16
  -1   3   3 59.9685 12.8234  19
   1   3  -3 45.1455 6.82892  26
   1   3  -3 58.3761 6.61794  17
  -1   3   3 64.7988 7.64123  15
   1   3  -3 42.0890 16.8130  11
  -1   3   3 61.1332 14.2539  12
   1   3  -3 49.1508 7.33931  14
   0  -3  -3 964.388 46.9100   2
   0  -3   3 830.854 58.4826   3
   0  -3  -3 957.839 37.7108   8
   0  -3   3 963.292 56.4732  19
   0  -3   3 964.570 41.6867  16
   0  -3   3 984.783 37.6897  17
   0  -3  -3 1014.56 60.2510   1
   0  -3  -3 890.007 40.7022  14
   0  -3  -3 927.525 57.2539  10
   0  -3  -3 945.681 37.8194  17
   0  -3   3 957.276 63.5754  12
   0  -3  -3 951.887 40.7176  16
   0  -3  -3 926.431 62.9011  11
   0  -3   3 986.697 48.6099   2
   0  -3  -3 939.534 54.5629  18
   0  -3  -3 938.850 37.5621  26
   0   3   3 907.784 39.9045  16
   0   3  -3 932.018 56.4774  13
   0   3   3 934.234 49.0757  19
   0   3   3 931.463 36.4585  17
   0   3   3 956.367 60.5907   3
   0   3   3 938.601 60.7101  12
   0   3   3 918.279 37.7734   9
   0   3  -3 841.349 58.6447   1
   0   3  -3 933.314 59.2487  21
   0   3   3 913.643 55.3004  13
   0   3   3 943.284 42.3872  15
   0   3  -3 923.528 59.5805  12
   0   3   3 854.720 53.6403  20
  -1  -3  -3 4305.26 218.423  13
  -1  -3  -3 4324.83 227.308   1
   1  -3   3 4435.32 220.176   3
  -1  -3  -3 4570.63 176.062  16
   1  -3   3 4297.05 202.346  19
  -1  -3  -3 4431.07 161.303  17
  -1  -3  -3 4234.72 211.289  18
   1  -3   3 4445.33 233.417  11
  -1  -3  -3 4365.41 237.491  12
   1  -3   3 4543.22 176.993  16
   1  -3   3 4317.46 169.988  14
   1  -3   3 4371.60 162.000   8
   1  -3   3 4579.59 161.817  17
   1  -3   3 4353.50 161.567  26
   1  -3   3 4006.31 220.406  10
   1   3   3 4410.21 238.040  12
  -1   3  -3 4744.34 226.243  21
   1   3   3 4524.50 175.662  16
   1   3   3 4587.94 162.294  17
  -1   3  -3 4406.63 159.041   9
   1   3   3 4233.81 200.058  20
  -1   3  -3 4609.28 233.173  12
   1   3   3 4568.56 217.509   3
  -1   3  -3 4325.73 194.476  20
  -1   3  -3 4594.74 176.252  15
   1   3   3 4351.48 221.140  13
  -1   3  -3 4315.68 217.439  13
  -1   3  -3 4273.36 228.483   1
   2  -3   3 1662.89 68.7741  14
   2  -3   3 1623.25 65.5468  26
  -2  -3  -3 1660.81 108.469  12
  -2  -3  -3 1578.60 66.5254   9
   2  -3   3 1660.64 97.2044  10
  -2  -3  -3 1681.91 73.3192  15
   2  -3   3 1635.75 103.128   3
  -2  -3  -3 1626.92 95.6389  13
  -2  -3  -3 1697.69 60.1807  24
   2  -3   3 1714.59 102.134  11
   2  -3   3 1637.13 65.8048   8
  -2   3  -3 1713.14 58.6636  24
   2   3   3 1697.88 92.3812  20
   2   3   3 1705.53 72.1854  16
  -2   3  -3 1697.23 61.0835  25
  -2   3  -3 1704.97 98.0810  12
  -2   3  -3 1652.89 95.2429  13
  -2   3  -3 1692.34 64.4628   9
  -2   3  -3 1751.55 60.9544   7
   2   3   3 1627.16 67.4618  17
   2   3   3 1729.39 64.5552   6
  -2   3  -3 1762.86 64.8895   6
  -2   3  -3 1740.59 71.8508  15
  -2   3  -3 1652.80 100.963  21
   2   3   3 1721.00 98.9125   3
   3  -3   3 2606.93 101.214   8
  -3  -3  -3 2768.28 103.081   9
  -3  -3  -3 2709.21 107.735   4
  -3  -3  -3 2663.49 111.776  15
   3  -3   3 2562.92 100.879  26
   3  -3   3 2638.61 106.324  14
  -3  -3  -3 2670.79 92.7778  24
   3   3   3 2477.66 104.295  17
  -3   3  -3 2660.63 109.999  15
  -3   3  -3 2679.60 94.4439   7
   3   3   3 2665.18 98.7994   6
  -3   3  -3 2706.06 91.3904  24
  -3   3  -3 2706.44 99.5755   6
   3   3   3 2608.17 111.451  16
  -3   3  -3 2636.08 98.5354   9
   4  -3   3 368.001 24.4520  14
   4  -3   3 383.502 23.3330   8
  -4  -3  -3 390.839 26.5366   4
  -4  -3  -3 415.745 27.5412   9
  -4  -3  -3 395.591 20.3883  24
   4  -3   3 400.290 22.6230   6
   4  -3   3 379.461 23.2389  26
  -4   3  -3 408.868 20.1449   7
  -4   3  -3 423.154 19.5464  24
  -4   3  -3 441.864 21.6595  25
  -5  -3  -3 82.8900 11.2790   4
   5  -3   3 72.7504 9.12094   6
  -5   3  -3 85.8137 8.46155  24
  -5   3  -3 75.9209 8.15467   7
   5   3   3 69.4757 8.48440  24
  -5   3  -3 77.7223 9.08105  25
  -6  -4   3 765.610 32.7818  25
  -6  -4   3 788.752 36.4656   4
  -6  -4   3 756.997 37.2828  22
  -5  -4   3 869.622 40.1247   4
  -5  -4   3 806.236 35.8044  25
  -5  -4   3 758.156 40.2789  22
   5   4  -3 861.152 37.3509   8
   5   4  -3 843.541 37.1790  26
   5   4  -3 810.133 42.1236  14
   5   4  -3 797.529 33.8532   7
  -4  -4   3 255.560 18.8986   4
  -4  -4   3 239.144 18.5081   5
  -4  -4   3 229.814 16.9692   9
  -4  -4   3 235.922 20.0162  22
  -4  -4   3 215.234 17.9585  15
  -4  -4   3 245.268 16.6602  25
  -4   4   3 212.882 14.5374   5
  -4   4   3 211.629 15.2732   6
  -4   4   3 209.871 17.8524  23
   4   4  -3 233.186 16.3218   8
   4   4  -3 247.686 16.3606  26
   4   4  -3 243.920 14.7794   7
   4   4  -3 232.155 21.0158  14
  -4   4   3 231.814 15.2410  22
  -3  -4   3 2018.91 79.8394   9
  -3  -4   3 1969.79 106.778   2
   3  -4  -3 2114.91 75.4795  26
  -3  -4   3 1928.57 117.410  18
   3  -4  -3 2077.23 112.887  11
   3  -4  -3 1976.31 107.191  18
  -3  -4   3 2120.97 82.6261   4
  -3  -4   3 2172.12 114.295  19
   3  -4  -3 2147.26 100.366   2
   3  -4  -3 2117.63 107.893  10
   3  -4  -3 2090.98 75.6431   8
  -3  -4   3 1993.18 81.6422  22
  -3  -4   3 2087.16 87.2013  15
  -3  -4   3 2055.96 76.7652   5
  -3  -4   3 2025.43 75.1871  25
  -3   4   3 2083.11 81.1317  23
   3   4  -3 1927.44 129.964  11
   3   4  -3 2118.30 85.9460  14
   3   4  -3 2198.66 79.9491  26
   3   4  -3 1896.55 73.5529   7
  -3   4   3 2115.27 122.204   3
   3   4  -3 2141.94 125.379  21
  -3   4   3 2008.59 78.6305  22
  -3   4   3 1887.20 77.7047   6
  -3   4   3 2042.75 74.1763   5
   3   4  -3 1876.69 119.920  10
  -3   4   3 2122.32 108.541  19
   3   4  -3 1983.59 124.531   1
   3   4  -3 2126.13 79.9594   8
  -2  -4   3 1316.42 75.7835   2
  -2  -4   3 1362.11 86.5743  12
  -2  -4   3 1238.10 79.4009  19
  -2  -4   3 1411.06 80.1366  13
   2  -4  -3 1435.59 52.5251   8
   2  -4  -3 1381.65 69.7795   2
   2  -4  -3 1368.98 57.4517  14
  -2  -4   3 1387.63 56.2333   9
  -2  -4   3 1376.74 80.7652  18
   2  -4  -3 1403.31 52.3221  26
   2  -4  -3 1355.90 75.7085  18
   2  -4  -3 1296.80 75.9953  10
   2  -4  -3 1380.67 82.0576  11
  -2  -4   3 1430.24 62.6414  15
  -2   4   3 1308.33 86.2728   3
  -2   4   3 1448.36 57.1533  15
   2   4  -3 1396.51 55.4804  26
   2   4  -3 1383.86 87.6804  10
   2   4  -3 1356.34 91.8286  11
   2   4  -3 1362.81 59.4812  14
   2   4  -3 1364.78 86.6181   1
  -2   4   3 1420.76 53.0728   9
   2   4  -3 1411.05 55.7014   8
   2   4  -3 1463.16 87.9161  21
   1  -4  -3 2204.17 115.891   1
  -1  -4   3 2103.11 113.555  19
  -1  -4   3 2277.09 109.552  18
  -1  -4   3 2129.97 117.503  13
  -1  -4   3 2286.88 129.733  12
  -1  -4   3 2281.91 89.3066  16
   1  -4  -3 2242.99 88.2535  14
  -1  -4   3 2193.69 104.743   2
   1  -4  -3 2308.32 81.7339  26
   1  -4  -3 2263.72 124.718  11
   1  -4  -3 2333.19 81.9714   8
  -1  -4   3 2183.49 92.3404  15
   1  -4  -3 2286.72 110.604  18
  -1  -4   3 2095.33 83.6013   9
   1  -4  -3 2313.39 99.9803   2
   1  -4  -3 2104.89 114.912  10
  -1  -4   3 2347.95 81.9800  17
  -1   4   3 2227.03 105.894  19
   1   4  -3 2051.03 89.1840  14
   1   4  -3 2160.49 89.9051  16
   1   4  -3 2017.81 83.7082   8
   1   4  -3 2103.18 119.849   1
   1   4  -3 2096.87 128.985  11
  -1   4   3 2230.61 89.6651  15
   1   4  -3 2202.56 83.7399  17
  -1   4   3 2148.24 119.575   3
  -1   4   3 2117.52 120.650  12
   1   4  -3 2033.47 120.915  10
   1   4  -3 2168.65 123.040  21
  -1   4   3 2230.02 110.218  13
  -1   4   3 2178.77 81.4582   9
   1   4  -3 2073.55 83.6202  26
   0  -4  -3 358.959 28.1626   2
   0  -4   3 346.664 37.1847  13
   0  -4   3 359.253 21.6359  16
   0  -4  -3 324.883 38.1374  11
   0  -4  -3 351.998 19.4793  17
   0  -4  -3 358.329 35.1768   1
   0  -4   3 378.108 31.9646   2
   0  -4   3 358.055 18.7562  17
   0  -4   3 349.559 39.2600  19
   0  -4  -3 346.480 19.6872  16
   0  -4   3 344.719 40.4481  12
   0  -4  -3 365.949 21.5391  14
   0  -4   3 282.362 34.4666   3
   0  -4  -3 332.991 18.1964   8
   0  -4  -3 353.656 34.1758  18
   0  -4  -3 365.355 18.4708  26
   0  -4  -3 339.577 33.2438  10
   0   4  -3 416.016 19.2641  16
   0   4  -3 400.591 20.1305  17
   0   4   3 422.781 38.7486   3
   0   4   3 415.338 35.7170  20
   0   4   3 402.279 22.4559  15
   0   4   3 422.946 37.6484  12
   0   4   3 369.787 28.3196  19
   0   4  -3 392.827 37.5509  21
   0   4   3 430.554 18.6619  16
   0   4  -3 336.474 35.9667   1
   0   4   3 375.362 32.9246  13
   0   4   3 390.346 19.4092   9
   0   4  -3 410.889 34.1889  13
   0   4  -3 397.283 35.3128  12
   1  -4   3 1646.98 65.3836   8
   1  -4   3 1565.49 92.2838  19
  -1  -4  -3 1564.79 97.0282  18
   1  -4   3 1684.56 65.2998  26
  -1  -4  -3 1683.71 66.3970   4
   1  -4   3 1744.90 67.7386  23
  -1  -4  -3 1630.98 64.4290  17
   1  -4   3 1680.51 72.1402  16
   1  -4   3 1556.80 98.8867   3
   1  -4   3 1664.49 67.3768  14
   1  -4   3 1592.15 94.5871  10
  -1  -4  -3 1685.71 70.8433  16
  -1  -4  -3 1634.75 95.3435  13
   1  -4   3 1673.12 64.6297  17
   1  -4   3 1720.31 99.9272  11
  -1  -4  -3 1741.61 103.227   1
  -1  -4  -3 1702.99 104.423  12
  -1   4  -3 1764.60 71.6394  15
  -1   4  -3 1715.21 94.5662  13
  -1   4  -3 1585.77 63.1200   6
   1   4   3 1695.74 69.9781  16
  -1   4  -3 1710.64 59.7125   7
   1   4   3 1593.64 102.524  12
   1   4   3 1637.42 63.0359   6
  -1   4  -3 1677.63 82.0327  20
   1   4   3 1568.49 87.8701  20
  -1   4  -3 1655.97 63.5913   9
  -1   4  -3 1778.05 98.1577  12
  -1   4  -3 1627.71 98.7092  21
   1   4   3 1629.15 96.5889  13
   1   4   3 1610.14 95.3288   3
   1   4   3 1544.77 64.7836  17
   2  -4   3 2314.04 90.4482   8
  -2  -4  -3 2366.50 148.532   1
  -2  -4  -3 2372.97 94.3736   4
   2  -4   3 2382.21 94.3011  14
   2  -4   3 2201.19 136.134   3
  -2  -4  -3 2251.44 145.992  12
   2  -4   3 2291.03 90.1665  26
   2   4   3 2301.50 82.2102  24
  -2   4  -3 2483.78 88.6247   9
  -2   4  -3 2261.68 134.469  21
   2   4   3 2304.29 121.849  20
  -2   4  -3 2375.32 98.7362  15
   2   4   3 2470.80 98.5381  16
  -2   4  -3 2349.78 80.7408  24
  -2   4  -3 2240.49 114.882  20
   2   4   3 2343.69 92.2475  17
  -2   4  -3 2394.60 83.7508   7
  -2   4  -3 2329.69 83.8006  25
   2   4   3 2455.26 130.376   3
   2   4   3 2408.49 87.9918   6
  -2   4  -3 2367.56 88.6451   6
   3  -4   3 416.147 23.4578  14
   3  -4   3 382.974 23.0626  26
   3  -4   3 392.471 23.1704   8
  -3  -4  -3 362.215 28.3653  15
  -3  -4  -3 388.468 27.0013   9
  -3   4  -3 448.092 19.9815   7
  -3   4  -3 431.668 19.4262  24
  -3   4  -3 415.943 22.3510   6
  -3   4  -3 377.373 26.5823  15
   3   4   3 399.723 27.0991  16
  -3   4  -3 400.082 21.4351   9
  -3   4  -3 439.749 21.2671  25
   3   4   3 401.301 28.7837  17
   4  -4   3 611.509 29.9093   6
   4  -4   3 574.029 31.6719  26
  -4  -4  -3 661.463 33.8031   4
   4  -4   3 576.078 32.5975   8
   4   4   3 594.150 26.6846  24
  -4   4  -3 588.227 26.5039   7
  -4   4  -3 605.522 25.8317  24
  -4   4  -3 575.512 27.8423  25
  -5  -4  -3 1.81828 7.62181   4
   5  -4   3 3.01946 6.98222   6
  -5   4  -3 8.90872 6.01703  24
   5   4   3 6.16907 5.70403  24
  -5   4  -3 9.19242 5.82447   7
  -5   4  -3 6.74623 7.18678  25
  -6  -5   3 747.146 31.5664  25
  -6  -5   3 763.734 35.3386  22
  -6  -5   3 753.899 34.9183   4
  -5  -5   3 1610.60 63.4525  25
  -5  -5   3 1655.30 69.3965   4
  -5  -5   3 1651.53 70.1443  22
   5   5  -3 1717.27 73.3231  14
   5   5  -3 1637.06 61.8135   7
   5   5  -3 1739.56 67.8188   8
  -5   5   3 1618.68 71.8349  23
   5   5  -3 1718.96 67.5445  26
  -4  -5   3 271.286 17.5345  25
  -4  -5   3 283.222 19.7609   4
  -4  -5   3 265.830 20.2693   5
  -4  -5   3 266.171 20.3457   9
  -4  -5   3 282.028 21.0596  15
  -4  -5   3 263.027 21.6827  22
  -4   5   3 265.901 20.1605  23
   4   5  -3 309.579 18.9020  26
  -4   5   3 278.526 17.4169  22
   4   5  -3 269.451 24.0564  14
   4   5  -3 274.857 15.9143   7
  -4   5   3 253.814 16.8527   5
   4   5  -3 273.676 18.5483   8
  -4   5   3 242.277 17.7746   6
  -3  -5   3 500.076 22.5221  25
   3  -5  -3 437.642 42.8647  10
  -3  -5   3 400.784 46.9047   2
  -3  -5   3 478.860 27.0440   9
   3  -5  -3 490.057 51.7771  19
   3  -5  -3 408.638 40.8425   2
   3  -5  -3 436.281 19.7104  26
  -3  -5   3 452.973 25.6944  22
   3  -5  -3 476.926 44.3501  18
  -3  -5   3 492.131 27.6340  15
   3  -5  -3 463.929 19.9097   8
  -3  -5   3 584.356 63.0255  18
   3  -5  -3 451.951 24.4791  14
  -3  -5   3 453.778 24.9481   4
  -3  -5   3 437.277 24.0843   5
  -3   5   3 431.256 23.5753  23
   3   5  -3 275.739 43.4314  21
  -3   5   3 425.969 22.9626   6
  -3   5   3 427.873 22.1858  22
  -3   5   3 415.345 20.8480   5
   3   5  -3 450.888 20.3083   7
  -3   5   3 451.566 53.6134   3
   3   5  -3 426.188 23.4126  26
   3   5  -3 440.749 53.1796   1
   3   5  -3 420.456 27.7823  14
   3   5  -3 431.104 23.3957   8
   3   5  -3 409.851 50.7125  10
  -2  -5   3 617.644 32.3157   9
  -2  -5   3 604.858 35.3434  15
   2  -5  -3 568.955 26.5577   8
   2  -5  -3 624.847 45.8607  10
  -2  -5   3 545.018 28.1624   5
  -2  -5   3 625.496 53.4098  19
  -2  -5   3 607.339 56.8254  12
   2  -5  -3 550.867 49.5028  11
  -2  -5   3 580.701 30.1846  22
  -2  -5   3 643.085 31.3459  23
   2  -5  -3 659.915 44.9982   2
  -2  -5   3 601.619 53.2582   2
  -2  -5   3 582.270 53.9680  18
   2  -5  -3 645.047 48.0086  18
  -2  -5   3 635.230 49.7344  13
   2   5  -3 588.591 61.5752  11
  -2   5   3 693.145 29.6712  15
   2   5  -3 656.566 54.8856  21
   2   5  -3 637.149 30.1445   8
   2   5  -3 660.265 26.3354   7
   2   5  -3 637.870 31.1112  16
   2   5  -3 602.426 56.8039  10
  -2   5   3 690.745 27.8704   9
   2   5  -3 630.348 52.9669   1
   2   5  -3 661.531 32.0492  17
  -2   5   3 640.288 47.3424  19
   2   5  -3 662.872 30.1052  26
  -2   5   3 640.922 28.9089   6
  -2   5   3 683.311 28.7299  22
   2   5  -3 616.802 33.5713  14
   2   5  -3 655.730 26.7859  25
  -2   5   3 661.072 28.9328  23
  -2   5   3 696.916 58.2925   3
  -1  -5   3 634.168 49.6791   2
  -1  -5   3 645.628 31.5567  23
  -1  -5   3 642.767 51.6435  13
  -1  -5   3 678.631 53.0514  19
   1  -5  -3 656.172 47.5458  10
  -1  -5   3 658.530 29.2286   5
  -1  -5   3 687.208 31.1835  16
   1  -5  -3 676.381 28.2759  26
   1  -5  -3 674.447 47.8388  18
  -1  -5   3 597.766 48.4426  18
   1  -5  -3 613.233 53.6297  11
   1  -5  -3 691.928 28.4473   8
  -1  -5   3 691.094 28.2126  17
  -1  -5   3 686.448 59.9063  12
   1  -5  -3 666.150 32.3125  14
   1  -5  -3 696.856 43.2160   2
   1   5  -3 622.088 27.0482  25
   1   5  -3 635.750 30.7524  17
  -1   5   3 628.110 27.0789   5
  -1   5   3 641.668 29.1225  22
  -1   5   3 604.736 53.6672   3
   1   5  -3 675.765 31.4993  16
   1   5  -3 657.688 54.0734  21
  -1   5   3 610.093 43.3730  19
  -1   5   3 609.337 40.8673  13
  -1   5   3 674.402 29.9670   9
  -1   5   3 642.247 31.8988  15
  -1   5   3 692.726 46.9723  12
   0  -5   3 5597.35 258.655  19
   0  -5  -3 5220.08 274.541   1
   0  -5   3 5709.20 201.295  17
   0  -5  -3 5476.98 233.648   2
   0  -5  -3 5602.42 201.983  17
   0  -5  -3 5333.09 201.212   8
   0  -5  -3 5464.39 218.676  16
   0  -5   3 5647.90 220.209  16
   0  -5  -3 5367.98 200.826  26
   0  -5   3 5452.42 237.503   2
   0  -5   3 5485.07 208.477  23
   0  -5  -3 5606.59 259.992  18
   0  -5  -3 5261.80 214.554  14
   0  -5  -3 5184.40 276.029  10
   0  -5   3 5255.67 265.892   3
   0  -5  -3 4896.41 294.385  11
   0   5  -3 5760.32 216.844  16
   0   5   3 5558.79 199.288   9
   0   5  -3 5400.56 188.975   7
   0   5  -3 5642.18 282.721  21
   0   5   3 5485.56 269.251   3
   0   5   3 5574.10 220.318  15
   0   5  -3 5590.59 200.564  17
   0   5  -3 5713.97 188.914  25
   0   5  -3 5904.96 293.305  12
   0   5   3 5442.20 197.223   6
   0   5   3 5835.88 203.591  22
   0   5   3 5499.73 292.885  12
   0   5   3 5435.97 248.185  20
   0   5  -3 5583.69 274.439  13
   0   5   3 5441.06 270.760  13
  -1  -5  -3 327.882 19.4959  17
   1  -5   3 343.844 20.3432   8
  -1  -5  -3 364.555 22.4738  22
   1  -5   3 294.547 19.7436  26
   1  -5   3 356.933 46.1762  19
   1  -5   3 323.568 21.4182  23
   1  -5   3 331.215 19.3865  14
   1  -5   3 345.356 19.8570  17
  -1  -5  -3 306.679 41.0716  13
  -1  -5  -3 290.458 43.0072  12
  -1  -5  -3 356.447 22.1954  16
   1  -5   3 340.036 23.5650  16
  -1  -5  -3 383.417 48.4868   1
  -1  -5  -3 342.831 19.8676   4
  -1  -5  -3 391.861 50.8720  18
   1  -5   3 358.517 45.9539   3
   1   5   3 355.233 45.3339  12
  -1   5  -3 354.766 36.6650  12
   1   5   3 368.912 45.9048  13
  -1   5  -3 367.374 33.4368  20
  -1   5  -3 379.107 43.8343  13
  -1   5  -3 347.278 17.4995  25
   1   5   3 334.940 37.6363  20
   1   5   3 414.650 45.4054   3
   1   5   3 337.075 16.6146  24
   1   5   3 344.905 18.6177   6
  -1   5  -3 359.412 23.2132  15
  -1   5  -3 356.872 16.4814   7
  -1   5  -3 329.839 18.8918   9
   1   5   3 353.214 19.6266  16
   1   5   3 348.850 20.1751  17
  -1   5  -3 403.228 44.2942  21
  -1   5  -3 327.139 18.5712   6
   2  -5   3 5.20334 24.9589  10
   2  -5   3 41.5872 9.42003   8
   2  -5   3 35.1716 35.0453   3
  -2  -5  -3 22.4452 9.44939   4
   2  -5   3 30.8958 7.87744  14
  -2  -5  -3 15.1997 41.0935   1
   2  -5   3 39.3549 9.22692  26
   2  -5   3 23.7729 11.3134  23
  -2   5  -3 26.1653 5.66646  24
   2   5   3 32.4927 10.1184  16
   2   5   3 37.3095 11.8406  17
  -2   5  -3 19.4038 5.22567   7
  -2   5  -3 40.8314 30.4689  21
  -2   5  -3 43.8010 7.44648  25
  -2   5  -3 9.46541 20.1585  20
  -2   5  -3 50.4287 12.0082  15
  -2   5  -3 39.3120 8.05584   9
  -2   5  -3 50.0837 8.80980   6
   2   5   3 24.9190 24.9740  20
   2   5   3 31.4240 7.06098  24
   2   5   3 28.0499 8.00020   6
   2   5   3 6.49187 26.1594   3
   3  -5   3 462.605 26.4696  14
  -3  -5  -3 497.338 33.7364  15
   3  -5   3 471.746 26.9941   8
   3  -5   3 465.526 26.7345  26
  -3  -5  -3 479.505 31.3811   9
  -3  -5  -3 499.896 29.1549   4
   3   5   3 509.468 31.1617  17
   3   5   3 461.145 22.7203  24
  -3   5  -3 471.915 24.1172   9
  -3   5  -3 479.959 23.8969  25
  -3   5  -3 491.283 22.5161   7
  -3   5  -3 480.122 25.4369   6
   3   5   3 445.304 29.3005  16
  -3   5  -3 491.006 21.7252  24
  -3   5  -3 476.251 30.0175  15
  -4  -5  -3 191.504 17.3968   4
  -4   5  -3 200.081 13.6677   7
  -4   5  -3 199.818 16.2306  25
  -4   5  -3 202.422 13.9623  24
   4   5   3 199.098 14.1208  24
  -5  -5  -3 1408.69 60.1062   4
  -5   5  -3 1503.95 55.6207   7
  -5   5  -3 1607.54 58.4866  25
  -6  -6   3 21.3006 6.98010   4
  -6  -6   3 16.2807 7.66606  22
   6   6  -3 2.03542 4.46730   7
  -5  -6   3 1464.42 60.4291  22
  -5  -6   3 1424.54 59.4123   4
  -5  -6   3 1482.11 54.8410  25
   5   6  -3 1377.17 52.7928   7
  -5   6   3 1392.11 62.2344  23
  -5   6   3 1359.32 56.1058   6
  -4  -6   3 22.5226 7.87921  25
   4  -6  -3 35.7329 8.94578  26
  -4  -6   3 26.2992 9.44092   4
  -4  -6   3 33.8899 12.1256   9
   4  -6  -3 41.7695 9.02606   8
  -4  -6   3 40.0576 10.9111   5
  -4  -6   3 28.1769 11.5195  15
  -4  -6   3 22.8285 10.6939  22
  -4   6   3 39.9596 9.52128   6
   4   6  -3 28.2972 9.93818  26
  -4   6   3 39.5737 9.25963   5
  -4   6   3 31.3917 10.8254  23
   4   6  -3 38.4657 10.1664   8
   4   6  -3 36.9169 6.86877   7
   4   6  -3 23.5392 13.0585  14
   3  -6  -3 3553.66 143.358  14
  -3  -6   3 3736.44 139.064  22
  -3  -6   3 3805.04 193.908  18
   3  -6  -3 3475.75 168.734   2
   3  -6  -3 3953.10 193.216  19
  -3  -6   3 3725.03 130.963   5
   3  -6  -3 3564.64 133.441  26
  -3  -6   3 3583.58 175.807   2
   3  -6  -3 3550.92 133.750   8
  -3  -6   3 3587.06 149.492  15
  -3  -6   3 3609.33 138.925   4
  -3  -6   3 3724.98 137.846   9
  -3   6   3 3606.48 140.486  23
   3   6  -3 3690.19 127.233   7
   3   6  -3 3515.61 136.673   8
   3   6  -3 4010.91 206.249  21
   3   6  -3 3598.96 136.447  26
  -3   6   3 3541.26 136.194  22
  -3   6   3 3515.38 133.614   6
  -3   6   3 3691.51 197.460   3
  -3   6   3 3553.50 128.879   5
   3   6  -3 3400.67 145.957  14
   2  -6  -3 1310.60 73.4791   2
  -2  -6   3 1231.47 53.5782  22
   2  -6  -3 1297.61 50.5972  26
  -2  -6   3 1243.66 60.4243  15
   2  -6  -3 1270.24 81.5118  10
   2  -6  -3 1152.52 87.4114  11
   2  -6  -3 1279.86 79.9911  18
   2  -6  -3 1286.06 50.6660   8
  -2  -6   3 1341.73 54.4945  23
   2  -6  -3 1260.61 78.6952  19
   2  -6  -3 1281.56 56.0412  14
  -2  -6   3 1401.03 92.8147  12
  -2  -6   3 1179.51 55.4955   9
  -2  -6   3 1306.66 86.9225  18
  -2  -6   3 1321.11 81.9684  19
  -2  -6   3 1315.44 50.9272   5
  -2  -6   3 1301.60 80.6208   2
  -2  -6   3 1326.57 82.6751  13
  -2   6   3 1291.83 54.6829  15
  -2   6   3 1237.50 50.9271   6
  -2   6   3 1225.03 86.8131   3
   2   6  -3 1242.15 55.5622  16
   2   6  -3 1192.39 47.6638   7
  -2   6   3 1293.13 53.4269  23
   2   6  -3 1249.01 48.1359  25
  -2   6   3 1283.30 49.9315   9
  -2   6   3 1241.24 51.9400  22
   2   6  -3 1209.54 53.4871  17
   2   6  -3 1269.01 86.4834  21
  -1  -6   3 457.917 44.3506  19
   1  -6  -3 417.925 45.0173  18
  -1  -6   3 481.021 48.4474   2
   1  -6  -3 473.657 22.7342  26
  -1  -6   3 493.064 24.0480  16
   1  -6  -3 382.090 49.4172  11
  -1  -6   3 479.191 23.3622   5
   1  -6  -3 451.528 44.2813  10
  -1  -6   3 422.937 46.6176  13
  -1  -6   3 448.787 55.4225  12
   1  -6  -3 451.099 26.1582  14
  -1  -6   3 482.509 24.7750  23
  -1  -6   3 495.131 21.8503  17
   1  -6  -3 444.616 22.4718   8
   1  -6  -3 512.208 41.7288  19
   1  -6  -3 515.221 41.8467   2
  -1   6   3 466.329 21.5017   5
   1   6  -3 450.995 50.5926  21
   1   6  -3 482.494 24.2280  16
  -1   6   3 440.983 25.9756  15
   1   6  -3 423.368 21.1387  25
   1   6  -3 455.155 24.1246  17
  -1   6   3 488.600 52.1371   3
  -1   6   3 402.727 22.1748   6
  -1   6   3 419.216 22.5650  23
  -1   6   3 440.208 23.0421  22
   1   6  -3 424.364 20.5805   7
  -1   6   3 438.348 23.7475   9
   0  -6  -3 827.347 39.9030  16
   0  -6   3 803.231 39.5052  16
   0  -6   3 787.550 59.4018   2
   0  -6  -3 789.904 36.0453  17
   0  -6  -3 823.667 66.4701  18
   0  -6  -3 813.727 36.9155  26
   0  -6  -3 732.648 39.6548  14
   0  -6  -3 820.341 37.0524   8
   0  -6  -3 750.174 53.9718   2
   0  -6   3 806.865 35.7989  17
   0  -6  -3 809.878 37.2713  22
   0  -6   3 749.831 33.6678   5
   0  -6   3 775.201 64.8744  19
   0   6  -3 777.201 32.6551  25
   0   6  -3 797.840 32.0252   7
   0   6   3 748.409 41.5926  15
   0   6  -3 780.850 61.7181  12
   0   6   3 849.269 63.5203   3
   0   6  -3 793.749 34.9474  16
   0   6  -3 806.510 65.6202  21
   0   6  -3 760.029 61.0764  13
   0   6  -3 798.565 33.0298  17
   0   6   3 831.265 34.0836   6
   0   6   3 779.848 59.9589  13
   0   6   3 769.280 33.2927   5
   0   6   3 809.190 37.2762   9
   0   6   3 867.943 57.8951  20
   0   6   3 808.827 62.7969  12
   1  -6   3 454.406 54.9507  19
   1  -6   3 426.624 24.4023  23
   1  -6   3 365.375 46.7515   3
  -1  -6  -3 428.177 25.7188  16
  -1  -6  -3 375.750 22.5708   4
   1  -6   3 387.915 22.5393  17
   1  -6   3 372.115 24.3514   8
  -1  -6  -3 393.425 25.2902  22
   1  -6   3 397.911 24.4105  26
  -1  -6  -3 368.169 51.2597   1
  -1  -6  -3 438.405 57.6077  18
  -1  -6  -3 398.875 21.5163  17
   1  -6   3 422.294 27.4797  16
   1   6   3 376.730 21.4858  17
  -1   6  -3 388.755 19.9315  25
  -1   6  -3 400.625 22.2318   9
  -1   6  -3 391.574 26.5414  15
   1   6   3 340.606 38.1572  20
   1   6   3 364.717 18.1550  24
  -1   6  -3 379.506 51.8502  21
   1   6   3 384.210 20.2354  16
   1   6   3 287.095 45.8876  12
   1   6   3 406.276 46.6890   3
  -1   6  -3 363.449 20.5465   6
   1   6   3 213.087 43.9885  13
   1   6   3 363.051 20.0477   6
  -1   6  -3 368.801 18.2848   7
   2  -6   3 3767.13 147.543  14
   2  -6   3 3677.93 144.950  23
  -2  -6  -3 3794.52 141.938  22
   2  -6   3 3572.63 141.434   8
   2  -6   3 3580.99 141.054  26
  -2  -6  -3 3613.54 144.380   4
  -2   6  -3 3762.23 130.920   7
   2   6   3 3753.82 150.821  16
  -2   6  -3 3836.85 131.624  25
  -2   6  -3 3652.89 153.759  15
   2   6   3 3706.94 127.054  24
  -2   6  -3 3789.53 126.579  24
  -2   6  -3 3715.87 137.381   9
   2   6   3 3717.23 140.815  17
  -2   6  -3 3872.39 137.725   6
  -3  -6  -3 950.455 43.8060   4
   3  -6   3 876.344 42.4913   8
   3  -6   3 878.407 43.0607  14
   3  -6   3 897.575 42.5439  26
  -3   6  -3 970.244 37.9579   7
  -3   6  -3 934.314 46.1626  15
  -3   6  -3 916.996 39.3104  25
   3   6   3 965.342 43.7875  17
   3   6   3 941.334 45.1092  16
   3   6   3 942.037 36.7873  24
  -3   6  -3 961.465 41.0361   6
  -3   6  -3 878.582 35.9714  24
  -3   6  -3 913.090 39.1619   9
  -4  -6  -3 466.869 26.6893   4
  -4   6  -3 480.280 22.8180   7
  -4   6  -3 499.974 25.2089  25
  -4   6  -3 472.458 22.0188  24
   4   6   3 497.524 21.7758  24
  -5  -7   3 268.447 18.8652  22
  -5  -7   3 237.964 17.4927   4
  -5   7   3 238.870 17.2339   6
   5   7  -3 250.649 14.1232   7
  -5   7   3 234.124 21.3814  23
   5   7  -3 251.835 14.5977  25
  -4  -7   3 1564.80 69.7945  15
   4  -7  -3 1439.85 67.4688  14
  -4  -7   3 1621.36 65.0837   9
   4  -7  -3 1559.89 63.8793   8
   4  -7  -3 1493.81 63.4320  26
  -4  -7   3 1646.86 65.1369   4
  -4  -7   3 1634.37 61.8618   5
  -4  -7   3 1653.78 66.1002  22
  -4   7   3 1550.54 63.1978   6
  -4   7   3 1612.38 68.0384  23
   4   7  -3 1531.11 58.5921  25
  -4   7   3 1602.26 61.9374   5
   4   7  -3 1545.89 58.4781   7
  -3  -7   3 732.319 37.7726   9
  -3  -7   3 704.278 34.7074  22
   3  -7  -3 710.922 33.3129  26
  -3  -7   3 740.107 32.6035   5
   3  -7  -3 739.921 33.7423   8
  -3  -7   3 693.155 39.6269  15
   3  -7  -3 689.186 37.1306  14
  -3   7   3 722.753 31.9219   5
   3   7  -3 649.581 34.8106  17
   3   7  -3 671.319 35.0059  16
  -3   7   3 743.371 32.9276   6
   3   7  -3 739.593 30.2053  25
  -3   7   3 703.114 35.0800  23
   3   7  -3 694.247 29.5798   7
  -3   7   3 681.615 33.1895  22
   2  -7  -3 1310.39 58.9333  14
  -2  -7   3 1224.24 83.5115   2
   2  -7  -3 1166.23 79.9396   2
   2  -7  -3 1305.10 86.4021  19
   2  -7  -3 1289.08 54.0534   8
  -2  -7   3 1277.01 52.1520   5
  -2  -7   3 1269.65 55.3727  23
   2  -7  -3 1281.11 89.0227  18
   2  -7  -3 1351.35 54.1335  26
  -2  -7   3 1251.01 55.1785  22
  -2   7   3 1305.84 51.7041   5
   2   7  -3 1327.37 49.6863   7
  -2   7   3 1398.77 93.3706   3
  -2   7   3 1306.42 55.9093  23
   2   7  -3 1389.08 57.9468  16
   2   7  -3 1351.72 91.3499  21
   2   7  -3 1320.88 55.1341  17
   2   7  -3 1288.22 49.5350  25
  -2   7   3 1297.91 54.5836  22
  -2   7   3 1316.87 57.5538  15
  -2   7   3 1441.11 52.1682   9
   1  -7  -3 319.285 39.5472  19
  -1  -7   3 390.511 21.3350   5
  -1  -7   3 405.776 20.2732  17
   1  -7  -3 406.947 44.3155   2
  -1  -7   3 356.126 43.5812   2
  -1  -7   3 410.198 22.8734  23
   1  -7  -3 393.783 25.8768  14
   1  -7  -3 426.725 23.6327   8
   1  -7  -3 325.071 47.3396  18
  -1  -7   3 400.078 21.8702  16
   1  -7  -3 411.324 23.4046  26
  -1  -7   3 409.455 47.3359  19
   1   7  -3 420.036 22.0669  16
   1   7  -3 420.978 50.6248  21
   1   7  -3 396.101 21.8533  17
  -1   7   3 390.378 20.9895   5
   1   7  -3 374.202 19.2732  25
  -1   7   3 410.885 23.0203   9
  -1   7   3 382.038 22.0592  23
  -1   7   3 387.398 20.4347   6
   1   7  -3 380.363 19.1313   7
  -1   7   3 378.821 27.0766  15
  -1   7   3 445.947 52.0172   3
   0  -7  -3 1148.10 91.4216  18
   0  -7   3 1165.29 48.3479   5
   0  -7   3 1278.36 78.8239   2
   0  -7   3 1276.34 56.1552  16
   0  -7   3 1260.74 51.1351  17
   0  -7   3 1204.37 84.1964  19
   0  -7  -3 1187.89 52.9372  22
   0  -7   3 1235.37 52.6781  23
   0  -7  -3 1261.62 51.6146  17
   0  -7  -3 1252.19 57.9958  16
   0   7  -3 1187.24 46.6476   7
   0   7  -3 1151.39 46.5019  25
   0   7   3 1218.69 48.6172   5
   0   7   3 1215.31 48.8309   6
   0   7  -3 1101.73 85.2719  21
   0   7   3 1170.64 60.2446  15
   0   7   3 1214.43 45.3108  24
   0   7   3 1204.83 83.0644   3
   0   7   3 1155.77 52.0744   9
  -1  -7  -3 777.831 33.7070  17
  -1  -7  -3 737.026 39.6312  16
   1  -7   3 786.205 41.4352  16
  -1  -7  -3 774.987 37.6040  22
   1  -7   3 799.620 37.3063  23
   1  -7   3 727.822 35.9651  17
   1   7   3 696.584 29.4338  24
  -1   7  -3 705.974 35.4307   9
  -1   7  -3 721.638 41.5003  15
   1   7   3 694.064 32.1232   6
  -1   7  -3 717.795 31.0656   7
  -1   7  -3 717.429 30.4330  24
  -1   7  -3 751.772 32.2869  25
   2  -7   3 935.722 46.7759   8
  -2  -7  -3 973.123 45.2390  22
   2  -7   3 988.083 47.0025  26
  -2  -7  -3 944.641 46.4662   4
   2  -7   3 939.782 47.9939  14
   2  -7   3 998.207 47.3545  23
   2   7   3 1131.06 45.2732  17
  -2   7  -3 1056.57 52.1851  15
  -2   7  -3 1042.79 42.4924  25
   2   7   3 1054.69 45.8174  16
   2   7   3 1083.14 39.6948  24
  -2   7  -3 1046.84 41.1993   7
  -2   7  -3 1044.64 39.6659  24
  -2   7  -3 1027.99 43.6025   6
  -2   7  -3 1066.41 44.7371   9
  -3  -7  -3 774.416 39.3141   4
  -3   7  -3 838.047 36.6861  25
  -3   7  -3 867.610 37.1133   6
   3   7   3 828.368 39.6500  16
  -3   7  -3 835.386 34.9304   7
  -3   7  -3 791.111 32.8876  24
   3   7   3 832.350 32.9847  24
  -4  -7  -3 298.469 18.9230   4
  -4   7  -3 309.564 17.2023   7
  -4   7  -3 332.023 19.1081  25
  -4   7  -3 319.021 16.5845  24
   4   7   3 306.406 15.2809  24
  -5  -8   3 125.649 11.6740  22
  -5   8   3 110.242 13.4410  23
  -5   8   3 105.389 11.0553   6
   5   8  -3 102.615 8.40757   7
   5   8  -3 127.204 9.68316  25
  -4  -8   3 191.233 17.2467  22
  -4  -8   3 192.992 16.0261   5
   4   8  -3 194.497 13.0137   7
   4   8  -3 200.538 13.6140  25
  -4   8   3 232.823 16.8341   6
  -4   8   3 233.201 19.8981  23
  -4   8   3 203.251 17.2383   5
  -3  -8   3 111.322 16.7143   9
   3  -8  -3 119.373 14.9109  26
   3  -8  -3 104.657 16.0478  14
   3  -8  -3 100.601 14.4354   8
  -3  -8   3 100.615 16.3667  15
  -3  -8   3 102.974 12.2961  22
  -3  -8   3 112.287 11.8730   5
   3   8  -3 109.709 12.4275  16
   3   8  -3 106.575 9.62768   7
   3   8  -3 119.912 10.3422  25
  -3   8   3 90.5954 13.5036  23
  -3   8   3 111.132 11.0048   6
   3   8  -3 117.012 13.3647  17
  -3   8   3 129.848 13.0024   5
   2  -8  -3 1558.55 67.3899  26
  -2  -8   3 1650.66 67.3509  22
  -2  -8   3 1613.67 63.4266   5
  -2  -8   3 1604.24 67.5706  23
   2  -8  -3 1658.03 72.3216  14
   2  -8  -3 1555.12 67.5901   8
   2   8  -3 1653.76 61.0470  25
   2   8  -3 1748.92 70.8482  16
  -2   8   3 1610.35 71.4874  15
  -2   8   3 1628.13 64.2831   5
  -2   8   3 1661.89 69.1379  23
   2   8  -3 1643.44 66.1112  17
  -2   8   3 1678.53 64.6903   6
   2   8  -3 1738.48 61.6426   7
  -2   8   3 1686.31 63.3441   9
  -1  -8   3 1684.62 71.0748  23
  -1  -8   3 1733.70 66.3649   5
   1  -8  -3 1746.71 71.8107  26
  -1  -8   3 1780.20 66.6700  17
   1  -8  -3 1863.98 73.1048  22
   1  -8  -3 1724.62 71.9444   8
  -1  -8   3 1705.09 72.3263  16
   1  -8  -3 1761.07 75.6664  14
  -1   8   3 1601.32 78.1331  15
  -1   8   3 1755.84 63.3102  24
   1   8  -3 1761.72 64.5533   7
  -1   8   3 1782.52 69.1830   9
  -1   8   3 1664.73 71.3406  23
   1   8  -3 1681.88 66.8270  17
   1   8  -3 1712.70 63.7362  25
   1   8  -3 1733.37 71.9042  16
  -1   8   3 1749.10 67.0830   5
  -1   8   3 1775.12 67.1944   6
   0  -8  -3 204.934 18.2337  17
   0  -8   3 199.868 16.6739   5
   0  -8   3 190.364 17.0067  23
   0  -8  -3 216.921 22.7846  16
   0  -8  -3 183.122 18.3945  22
   0  -8   3 200.568 18.5825  17
   0  -8   3 205.648 19.1869  16
   0   8   3 225.517 14.1151  24
   0   8   3 237.658 20.2729   9
   0   8  -3 217.901 14.8768  25
   0   8  -3 232.845 14.3216   7
   0   8   3 261.699 26.7653  15
   0   8   3 216.509 14.9394   6
   0   8   3 192.151 17.2461   5
   1  -8   3 952.689 44.0760  17
   1  -8   3 954.571 43.4523  23
  -1  -8  -3 947.304 40.1252  17
  -1  -8  -3 940.490 46.6838  16
   1  -8   3 916.053 47.8696  16
  -1  -8  -3 975.477 44.1920  22
   1   8   3 863.166 35.6051  24
  -1   8  -3 917.505 43.3725   9
  -1   8  -3 894.597 36.4400  24
  -1   8  -3 923.928 38.3426  25
  -1   8  -3 891.593 49.0742  15
  -1   8  -3 940.853 38.5300   7
   2  -8   3 2.19688 15.1131  16
   2  -8   3 5.38805 13.3389  17
  -2  -8  -3 5.24827 8.87616  22
   2  -8   3 2.47282 10.7456  23
  -2   8  -3 11.7501 7.33817  24
  -2   8  -3 26.1482 7.76650   6
  -2   8  -3 8.47257 6.53447   7
   2   8   3 10.9802 5.90623  24
  -2   8  -3 12.6761 14.5185  15
  -2   8  -3 11.2699 8.65989  25
  -2   8  -3 10.0302 10.4208   9
  -3   8  -3 150.202 11.8709  24
  -3   8  -3 131.663 12.9419  25
  -3   8  -3 150.112 12.7093   6
   3   8   3 150.915 10.6644  24
  -3   8  -3 139.016 11.7817   7
   4  -8   3 1081.16 43.8347   6
  -4   8  -3 1084.82 41.5647   7
   4   8   3 1087.17 38.7992  24
  -5  -9   3 352.413 18.3629  22
   5   9  -3 348.924 15.4598   7
  -5   9   3 372.397 18.3862   6
   5   9  -3 346.408 15.5182  25
  -4  -9   3 1767.40 70.2456  22
  -4  -9   3 1734.14 65.3738   5
   4   9  -3 1796.68 63.9771   7
  -4   9   3 1817.14 68.2805   6
  -4   9   3 1702.13 67.3770   5
   4   9  -3 1680.66 63.3479  25
  -4   9   3 1831.40 73.8387  23
  -3  -9   3 171.121 15.0658  22
  -3  -9   3 176.252 14.1523   5
   3  -9  -3 165.531 19.1035   8
   3  -9  -3 171.451 19.4942  26
  -3   9   3 132.197 15.4218  23
   3   9  -3 166.423 12.2431  25
  -3   9   3 171.209 13.8338   6
  -3   9   3 214.715 17.2853   5
   3   9  -3 168.566 15.8458  16
   3   9  -3 177.854 12.2478   7
  -2  -9   3 1447.53 60.4448  22
   2  -9  -3 1425.75 63.4635  26
   2  -9  -3 1528.98 66.5136  14
   2  -9  -3 1485.24 64.1232   8
   2  -9  -3 1468.75 63.5916  22
  -2  -9   3 1474.10 60.9237  23
  -2  -9   3 1504.51 57.6239   5
   2   9  -3 1425.98 58.6487  17
  -2   9   3 1345.50 65.2219  15
  -2   9   3 1540.55 57.5768   9
   2   9  -3 1484.69 54.9483  25
   2   9  -3 1491.00 55.4442   7
  -2   9   3 1449.64 63.1471  23
   2   9  -3 1480.50 62.8235  16
  -2   9   3 1524.53 58.1876   6
  -1  -9   3 152.794 13.2564   5
   1  -9  -3 142.311 16.7873  22
  -1  -9   3 144.354 14.5302  23
   1  -9  -3 119.396 17.2956  26
   1  -9  -3 121.523 17.1440   8
   1  -9  -3 110.684 16.9226  14
  -1   9   3 112.426 11.2624   6
  -1   9   3 107.042 11.2052  24
  -1   9   3 115.453 18.8421  15
   1   9  -3 122.350 10.8169   7
  -1   9   3 136.365 14.3092   5
   1   9  -3 106.844 10.4312  25
  -1   9   3 127.004 15.2517  23
  -1   9   3 123.390 13.6991   9
   0  -9   3 623.056 32.0164  17
   0  -9   3 668.763 32.9810  23
   0  -9   3 689.334 35.3293  16
   0  -9  -3 627.047 40.3771  16
   0  -9   3 691.624 30.9062   5
   0  -9  -3 644.949 35.1175  22
   0  -9  -3 666.004 32.7766   5
   0  -9  -3 708.187 33.3099  17
   0   9   3 678.578 43.8335  15
   0   9   3 665.427 27.9502  24
   0   9   3 666.769 29.7818   6
   0   9  -3 686.561 29.3932   7
   0   9  -3 655.300 28.8825  25
   0   9   3 654.500 34.4592   9
  -1  -9  -3 1053.01 47.0447  22
   1  -9   3 1034.94 47.0826  17
   1  -9   3 1102.59 47.4575  23
   1  -9   3 1068.10 51.5338  16
  -1  -9  -3 1052.81 48.6361  16
  -1  -9  -3 1075.31 43.0928  17
  -1   9  -3 1000.96 46.8843   9
   1   9   3 1000.53 39.4389  24
  -1   9  -3 988.722 41.6078  25
  -1   9  -3 1042.79 42.4557   7
  -1   9  -3 1107.23 41.2222  24
  -1   9  -3 1002.28 53.0943  15
  -2  -9  -3 491.989 26.7688  22
   2  -9   3 518.955 28.3607  23
   2   9   3 527.766 22.4940  24
  -2   9  -3 548.343 25.2176  25
  -2   9  -3 534.211 23.8634  24
   3   9   3 1088.38 39.1459  24
  -3   9  -3 1057.51 42.2165   7
  -3   9  -3 1078.92 42.7774   6
  -3   9  -3 1017.89 41.5462  25
  -3   9  -3 1115.91 40.0936  24
  -4 -10   3 23.3759 6.92754  22
   4 -10  -3 14.0101 8.61247   5
  -4 -10   3 9.01429 5.23122   5
   4  10  -3 21.1377 4.75132  25
  -4  10   3 21.3300 6.07904   6
   4  10  -3 20.1092 4.66411   7
  -4  10   3 12.1004 8.36802  23
  -3 -10   3 1295.25 53.7788  22
  -3 -10   3 1300.96 50.4950   5
   3  10  -3 1240.63 48.0030  25
   3  10  -3 1349.57 48.9708   7
  -3  10   3 1296.59 51.7346   6
  -3  10   3 1356.46 56.7430  23
   2 -10  -3 129.576 16.5580  22
  -2 -10   3 131.377 11.7674   5
  -2  10   3 163.210 16.1071  23
  -2  10   3 146.826 12.4854   6
   2  10  -3 145.207 11.3899   7
   2  10  -3 124.028 10.9403  25
  -1 -10   3 236.605 17.0202  23
   1 -10  -3 271.041 21.9297  22
  -1 -10   3 248.762 16.6798   5
   1 -10  -3 244.198 20.3933   5
   1  10  -3 230.496 13.9817   7
   1  10  -3 192.452 13.3833  25
  -1  10   3 212.547 16.9623   9
  -1  10   3 236.963 15.0502  24
  -1  10   3 219.835 14.8214   6
   0 -10  -3 271.630 19.3183   5
   0 -10   3 270.550 18.2507  23
   0 -10  -3 254.596 19.9737  22
   0 -10   3 258.238 19.5031  16
   0 -10   3 254.462 17.4550   5
   0 -10  -3 250.617 25.2266  16
   0  10   3 253.717 14.8960  24
   0  10  -3 243.317 14.9601  25
   0  10  -3 286.506 16.2614   7
  -1 -10  -3 161.918 14.8727  22
   1 -10   3 123.265 13.1783  23
   1  10   3 127.579 10.5410  24
  -1  10  -3 144.800 11.8984  25
   2 -10   3 1133.32 48.8763  23
  -2 -10  -3 1112.66 47.5347  22
  -2  10  -3 1164.06 42.2467  24
  -2  10  -3 1131.03 44.2893   7
   2  10   3 1152.77 41.4383  24
  -3  10  -3 262.319 14.0920   7
  -3 -11   3 99.9887 9.52664  22
   3 -11  -3 119.178 12.3476   5
  -3 -11   3 118.724 9.71439   5
  -3  11   3 116.782 10.1629   6
   3  11  -3 105.463 8.51193   7
  -3  11   3 138.291 12.6156  23
   2 -11  -3 367.323 23.3683  22
   2 -11  -3 385.522 22.5971   5
  -2 -11   3 397.860 19.3167   5
   2  11  -3 377.240 17.3949   7
  -2  11   3 338.209 18.4504   6
   2  11  -3 363.989 16.8721  25
  -2  11   3 361.617 21.5712  23
  -1 -11   3 374.589 20.1928   5
   1 -11  -3 415.912 23.0342   5
  -1 -11   3 387.761 21.4847  23
   1 -11  -3 413.122 24.3432  22
   1  11  -3 358.751 17.8800  25
  -1  11   3 391.566 19.3925   6
   1  11  -3 398.426 18.4975   7
  -1  11   3 399.276 18.7619  24
   0 -11   3 1172.61 50.1759  23
   0 -11   3 1214.85 46.5134   5
   0 -11  -3 1139.38 46.5838   5
   0 -11  -3 1168.68 50.8476  22
   0  11  -3 1232.65 45.4286   7
   0  11   3 1207.98 43.3785  24
  -1 -11  -3 26.3916 8.41821  22
   1 -11   3 38.6357 8.40111  23
   1  11   3 37.3417 5.41417  24
  -1  11  -3 32.5347 6.08972   7
   2 -11   3 81.2791 8.93483  23
  -2 -11  -3 85.6134 8.69539  22
  -2  11  -3 80.5810 7.43077   7
   2  11   3 73.4801 6.12685  24
  -2 -12   3 183.773 11.4192   5
   2 -12  -3 194.385 13.3032   5
   2  12  -3 185.836 9.85136   7
  -2  12   3 130.509 9.99501   6
  -1 -12   3 471.453 20.8552   5
   1 -12  -3 465.349 23.3616  22
   1 -12  -3 471.177 21.5373   5
   1  12  -3 402.831 19.0645   7
   0 -12   3 170.832 11.6338   5
   0 -12   3 180.381 12.8283  23
   0 -12  -3 180.743 14.3421  22
   0  12  -3 170.563 10.5424   7
  -1 -12  -3 229.982 14.5855  22
   1 -12   3 238.169 13.9405  23
  -1  12  -3 231.753 11.9308   7
  -6   0   4 102.564 12.5026  22
  -6   0   4 60.6751 12.6706   4
  -5   0   4 1553.09 61.6453  22
  -5   0   4 1508.17 57.7362   5
   5   0  -4 1505.67 59.0080  26
  -5   0   4 1390.23 64.1238   4
  -4   0   4 11.4057 8.61576  23
  -4   0   4 40.3666 9.55787   4
  -4   0   4 39.9091 7.33755   5
   4   0  -4 19.8979 7.18189  14
   4   0  -4 10.2914 7.27770   8
  -4   0   4 10.8706 25.2598  19
  -4   0   4 30.3462 22.9122   2
  -4   0   4 14.6679 6.85907  22
   4   0  -4 32.0765 36.9146   1
  -4   0   4 11.2416 26.9562  18
   4   0  -4 18.4463 7.23439  26
   3   0  -4 90.9162 8.98619  14
   3   0  -4 87.5359 19.8213  10
   3   0  -4 81.4838 28.0257   1
  -3   0   4 78.0354 22.1992  18
  -3   0   4 69.9754 9.91796   4
  -3   0   4 81.6625 8.11216   5
  -3   0   4 95.4885 19.6418   2
  -3   0   4 85.9218 7.75644   9
  -3   0   4 117.049 25.5892  19
   3   0  -4 106.827 23.4722  11
  -3   0   4 81.9982 8.62857  22
  -3   0   4 88.8565 10.2103  23
   2   0  -4 5056.91 248.152  10
  -2   0   4 5049.25 197.825  15
   2   0  -4 5050.39 182.245   8
   2   0  -4 4992.64 181.753  26
   2   0  -4 5074.87 262.686  11
  -2   0   4 5025.10 227.353  19
   2   0  -4 5095.07 192.165  14
  -2   0   4 4845.86 211.454   2
  -2   0   4 5176.60 178.794   9
  -2   0   4 4936.98 230.929  18
  -2   0   4 4880.96 245.952   3
   2   0  -4 4751.10 254.399   1
   1   0  -4 1244.71 55.8049  16
  -1   0   4 1336.48 86.2666   3
  -1   0   4 1343.03 51.8848   9
  -1   0   4 1357.41 64.8379   2
   1   0  -4 1362.39 70.9958  18
  -1   0   4 1346.50 79.7318  12
  -1   0   4 1407.98 58.0179  15
   1   0  -4 1289.64 77.0634  10
  -1   0   4 1333.13 74.8822  13
   1   0  -4 1324.17 51.7441  17
   1   0  -4 1303.44 52.0572   8
  -1   0   4 1379.72 70.9774  19
   1   0  -4 1353.87 55.5114  14
   1   0  -4 1341.17 52.1102  26
   1   0  -4 1279.54 82.1497  11
   1   0  -4 1300.90 81.6323   1
   0   0  -4 3287.35 173.413   1
   0   0  -4 3276.25 166.674  21
   0   0   4 3328.95 151.558  19
   0   0   4 3278.94 119.989  17
   0   0  -4 3308.74 130.856  16
   0   0   4 3087.49 178.201  12
   0   0   4 3304.26 170.495   3
   0   0   4 3206.52 166.188  13
   0   0   4 3255.10 130.674  16
   0   0  -4 3296.80 120.573  17
  -1   0  -4 1281.07 50.7950  17
  -1   0  -4 1283.66 82.5182  12
  -1   0  -4 1313.78 76.7171  13
   1   0   4 1300.38 51.8489  17
   1   0   4 1325.28 51.7324   6
  -1   0  -4 1239.49 54.0543   4
   1   0   4 1347.41 85.8510   3
   1   0   4 1297.09 56.2177  16
  -1   0  -4 1280.02 77.4977  21
  -1   0  -4 1284.76 89.6335   1
  -2   0  -4 16.6015 44.1802   1
   2   0   4 22.1173 9.08838  17
  -2   0  -4 8.17383 21.3277  21
   2   0   4 32.2813 9.70884  16
   2   0   4 28.0293 30.1951   3
  -2   0  -4 10.6438 5.09322  25
  -2   0  -4 29.8617 8.47757   9
  -2   0  -4 20.6250 11.1195   4
  -2   0  -4 18.3796 9.56096  15
   2   0   4 14.6375 7.01436   6
   3   0   4 1096.99 49.9474  17
  -3   0  -4 1019.39 51.6915  15
  -3   0  -4 1138.12 43.0554  25
   3   0   4 1090.95 53.1081  16
  -3   0  -4 1101.70 54.6952   4
   3   0   4 1141.40 46.4002   6
  -3   0  -4 1142.17 48.0450   9
  -4   0  -4 539.171 24.7155  24
   4   0   4 561.989 26.8894   6
  -4   0  -4 594.581 34.7454   4
  -4   0  -4 533.868 24.8321  25
  -6  -1   4 714.967 37.0096   4
  -6  -1   4 755.583 35.3362  22
  -6   1   4 686.686 35.5262   4
  -5  -1   4 1524.52 67.4813   4
  -5  -1   4 1537.11 59.8781   5
  -5  -1   4 1535.78 63.6942  22
   5   1  -4 1476.96 61.3575  26
  -5   1   4 1537.13 62.4023  22
  -5   1   4 1530.45 65.1159   4
  -5   1   4 1510.28 59.0521   5
   5   1  -4 1551.01 61.8276   8
   5   1  -4 1633.17 67.1227  14
   4  -1  -4 1523.85 60.7731  14
  -4  -1   4 1503.14 61.2528  22
  -4  -1   4 1488.98 85.2444   2
  -4  -1   4 1557.25 94.5845  18
  -4  -1   4 1490.39 57.3837   5
  -4  -1   4 1405.93 64.1180   4
  -4  -1   4 1521.66 63.3586  23
   4  -1  -4 1378.68 99.8228   1
   4   1  -4 1555.34 62.6350  14
   4   1  -4 1581.55 112.425   1
  -4   1   4 1488.28 62.5245   4
   4   1  -4 1592.47 60.5746  26
  -4   1   4 1472.82 82.2342   2
   4   1  -4 1604.49 60.7688   8
  -4   1   4 1487.96 56.9484   5
  -4   1   4 1444.96 62.3685  23
  -4   1   4 1508.26 60.5727  22
  -3  -1   4 418.141 37.8763   2
   3  -1  -4 468.772 21.4497  14
  -3  -1   4 469.087 41.9670  18
  -3  -1   4 449.492 24.3441   4
  -3  -1   4 449.749 22.0973  22
  -3  -1   4 429.595 22.9184  23
   3  -1  -4 431.180 35.5641  10
   3  -1  -4 424.621 45.0267   1
   3  -1  -4 497.837 20.5905  26
   3  -1  -4 494.251 20.6246   8
  -3  -1   4 439.589 43.0110  19
  -3  -1   4 448.391 20.5846   5
  -3  -1   4 434.764 24.5098  15
   3  -1  -4 445.115 39.7853  11
  -3  -1   4 457.257 19.9816   9
   3   1  -4 390.952 41.8141  11
   3   1  -4 439.323 54.8218   1
  -3   1   4 413.878 22.4264   4
   3   1  -4 439.445 22.0385   8
  -3   1   4 392.174 39.6683  19
  -3   1   4 427.898 39.6469  18
  -3   1   4 432.231 21.4094  22
  -3   1   4 442.921 20.0986   5
   3   1  -4 432.088 22.1796  26
  -3   1   4 438.034 36.0853   2
  -3   1   4 432.760 22.5523  23
   3   1  -4 422.795 39.4775  10
   2  -1  -4 1313.00 77.0764  10
   2  -1  -4 1414.68 56.0395  14
  -2  -1   4 1360.21 68.6870   2
  -2  -1   4 1230.11 73.6107  18
   2  -1  -4 1374.67 52.6439  26
   2  -1  -4 1406.39 75.2307  18
   2  -1  -4 1318.68 83.6648   1
  -2  -1   4 1389.58 52.5215   9
   2  -1  -4 1378.61 52.7728   8
   2  -1  -4 1338.96 82.3110  11
  -2  -1   4 1355.15 58.5892  15
  -2  -1   4 1349.12 75.0993  19
  -2  -1   4 1311.66 57.2321   4
   2   1  -4 1468.47 88.4995   1
  -2   1   4 1158.83 85.5558   3
   2   1  -4 1388.62 53.6148  26
   2   1  -4 1424.37 85.7061  11
  -2   1   4 1419.29 51.9250   9
  -2   1   4 1390.90 57.6777  15
  -2   1   4 1441.88 55.8367  23
   2   1  -4 1211.50 80.0272  21
   2   1  -4 1400.42 56.4062  14
  -2   1   4 1376.13 68.2087   2
   2   1  -4 1393.22 53.7486   8
   2   1  -4 1343.01 79.5644  10
  -2   1   4 1287.53 72.8470  19
   1  -1  -4 1914.27 95.8604  18
  -1  -1   4 1732.27 108.465   3
   1  -1  -4 1950.66 72.0698  26
  -1  -1   4 1901.77 108.599  12
  -1  -1   4 1941.78 96.4436  19
   1  -1  -4 1915.75 107.627   1
  -1  -1   4 1910.83 71.7363   9
   1  -1  -4 1794.06 76.1184  14
  -1  -1   4 1883.98 79.4584  15
   1  -1  -4 1868.68 102.720  10
   1  -1  -4 1969.01 72.2893   8
  -1  -1   4 1863.30 94.4991  18
  -1  -1   4 1917.60 87.3176   2
   1  -1  -4 1985.69 111.060  11
  -1   1   4 1830.01 93.1376  19
  -1   1   4 2006.30 79.4415  15
  -1   1   4 1920.36 71.2834   9
   1   1  -4 1920.75 102.932  21
   1   1  -4 1861.81 72.2495  26
   1   1  -4 1856.79 77.9681  16
   1   1  -4 1867.65 108.866   1
   1   1  -4 1845.10 104.212  10
   1   1  -4 1904.52 111.395  11
  -1   1   4 1924.97 111.786   3
   1   1  -4 1886.51 76.8685  14
   1   1  -4 1888.30 72.4702   8
  -1   1   4 1873.68 86.4565   2
   1   1  -4 1852.48 71.7498  17
   0  -1  -4 1338.88 52.3897  17
   0  -1  -4 1262.54 71.2864  18
   0  -1   4 1354.80 85.6806   3
   0  -1   4 1331.57 71.3970  19
   0  -1  -4 1333.43 56.5453  16
   0  -1   4 1387.59 56.9528  16
   0  -1   4 1387.27 52.0404  17
   0  -1   4 1297.82 84.0608  12
   0  -1   4 1292.89 78.2477  13
   0  -1  -4 1330.20 55.0468   4
   0  -1  -4 1362.48 84.1085   1
   0   1   4 1254.50 54.0221   9
   0   1   4 1338.91 69.1102  19
   0   1   4 1316.66 77.3366  13
   0   1  -4 1370.06 77.3750  21
   0   1  -4 1250.73 75.8462  13
   0   1   4 1341.90 51.4772  17
   0   1  -4 1276.82 84.0358   1
   0   1  -4 1358.68 52.4166  17
   0   1   4 1359.62 84.1727  12
   0   1   4 1415.61 85.6793   3
   0   1   4 1321.10 56.3729  16
   0   1  -4 1365.64 82.7418  12
   0   1  -4 1369.26 56.6016  16
  -1  -1  -4 2853.59 116.846  16
   1  -1   4 2929.43 118.029  16
   1  -1   4 3077.32 157.846   3
   1  -1   4 3062.84 108.770  17
  -1  -1  -4 2882.45 163.142   1
  -1  -1  -4 2842.43 111.787   4
   1  -1   4 2977.53 107.513   6
  -1  -1  -4 2795.65 149.942  13
  -1  -1  -4 2930.67 107.422  17
  -1  -1  -4 3048.96 164.370  12
  -1   1  -4 2774.95 152.644  21
  -1   1  -4 2859.14 100.107  25
  -1   1  -4 2868.66 149.579  13
   1   1   4 2768.24 154.046   3
   1   1   4 2967.10 117.598  16
  -1   1  -4 2751.85 107.194  17
  -1   1  -4 2880.27 112.386   4
  -1   1  -4 2804.33 163.665   1
   1   1   4 2885.75 106.848   6
  -1   1  -4 2769.81 160.264  12
  -2  -1  -4 225.623 18.5032   4
   2  -1   4 222.373 15.3350   6
   2  -1   4 167.681 36.6379   3
   2  -1   4 206.827 18.4996  16
  -2  -1  -4 216.060 20.4005  15
  -2  -1  -4 194.511 16.7364   9
  -2  -1  -4 262.394 54.4715   1
   2   1   4 223.124 18.5508  17
  -2   1  -4 213.089 12.7356  25
   2   1   4 220.962 39.8349   3
  -2   1  -4 225.183 21.0282   4
   2   1   4 243.062 18.3619  16
  -2   1  -4 164.798 30.3996  21
  -2   1  -4 111.530 48.4096   1
  -2   1  -4 204.242 15.4986   9
   2   1   4 241.008 15.6717   6
  -2   1  -4 199.420 17.9228  15
  -3  -1  -4 1538.73 57.5028  25
   3  -1   4 1584.64 62.0784   6
  -3  -1  -4 1511.58 69.3125   4
  -3  -1  -4 1579.56 58.3185  24
   3  -1   4 1521.53 69.6468  16
  -3  -1  -4 1466.35 63.2211   9
  -3  -1  -4 1472.92 69.0115  15
  -3   1  -4 1586.75 62.3291   9
   3   1   4 1559.90 65.7243  17
   3   1   4 1583.17 61.5028   6
  -3   1  -4 1529.68 57.4511  25
  -3   1  -4 1552.11 71.3057   4
  -3   1  -4 1550.58 68.7402  15
   3   1   4 1510.07 69.4212  16
  -4  -1  -4 425.066 20.9503  24
  -4  -1  -4 490.221 29.9816   4
   4  -1   4 432.752 22.7588   6
  -4  -1  -4 436.409 21.3408  25
  -4   1  -4 413.402 20.8305  25
  -4   1  -4 437.281 21.0302  24
   4   1   4 416.211 22.4944   6
  -6  -2   4 271.638 20.7896   4
  -6  -2   4 227.400 20.5389  22
  -6  -2   4 236.304 16.7750  25
  -5  -2   4 786.206 37.9048  22
  -5  -2   4 798.411 35.5113   5
  -5  -2   4 807.187 40.2969   4
  -5  -2   4 777.105 34.5796  25
   5   2  -4 810.387 36.3287   8
   5   2  -4 789.960 36.0945  26
  -5   2   4 738.770 34.8834  22
   5   2  -4 791.077 42.0184  14
  -5   2   4 721.982 33.2565   5
  -5   2   4 763.490 37.1507   4
  -4  -2   4 1819.01 69.1736   5
   4  -2  -4 1888.91 68.7421  26
  -4  -2   4 1801.68 76.6015   4
  -4  -2   4 1889.99 73.8037  22
  -4  -2   4 1756.25 101.855   2
  -4  -2   4 1766.12 68.8904  25
  -4   2   4 1879.17 67.9984   5
   4   2  -4 1899.05 72.7988  26
  -4   2   4 1768.67 73.2269   4
   4   2  -4 1859.62 76.2675  14
  -4   2   4 1813.23 98.0420   2
  -4   2   4 1771.62 71.6506  22
  -4   2   4 1797.35 74.1851  23
   4   2  -4 1821.15 72.7908   8
  -3  -2   4 2817.16 108.007  23
   3  -2  -4 2806.96 151.187  11
   3  -2  -4 2816.88 101.546  26
  -3  -2   4 2589.86 140.387  18
  -3  -2   4 2789.73 105.134  22
  -3  -2   4 2738.57 101.212   9
  -3  -2   4 2690.46 141.862  19
  -3  -2   4 2666.38 113.349  15
  -3  -2   4 2721.14 108.185   4
   3  -2  -4 2863.18 101.829   8
   3  -2  -4 2724.04 141.680  10
   3  -2  -4 2702.90 152.406   1
   3  -2  -4 2746.41 139.612  18
   3  -2  -4 2896.62 107.878  14
  -3  -2   4 2651.08 98.8133   5
  -3  -2   4 2642.53 130.034   2
   3   2  -4 2800.23 109.487  14
   3   2  -4 2736.68 158.258  11
  -3   2   4 2671.64 106.088   4
   3   2  -4 2632.10 160.733   1
  -3   2   4 2648.31 126.643   2
   3   2  -4 2575.48 147.809  10
   3   2  -4 2967.41 105.428   8
   3   2  -4 2955.97 105.127  26
  -3   2   4 2754.98 104.150  22
   3   2  -4 2737.46 156.675  21
  -3   2   4 2787.46 98.0603   5
  -3   2   4 2775.66 106.706  23
  -3   2   4 2767.63 137.243  19
   2  -2  -4 362.899 38.0682   1
  -2  -2   4 363.397 17.0002   5
  -2  -2   4 351.466 32.7308  13
  -2  -2   4 394.175 22.1073  15
   2  -2  -4 339.410 33.9982  11
  -2  -2   4 374.642 18.2665   9
  -2  -2   4 338.121 19.6691   4
  -2  -2   4 370.455 30.9516   2
  -2  -2   4 382.875 20.0126  23
   2  -2  -4 354.905 31.2338  10
  -2  -2   4 354.768 18.1102  22
  -2  -2   4 329.553 38.5142  19
  -2  -2   4 358.273 32.6087  12
   2  -2  -4 373.356 16.8642   8
   2  -2  -4 390.006 18.7385  14
   2  -2  -4 367.199 16.8073  26
   2  -2  -4 376.511 33.6764  18
  -2  -2   4 338.511 32.4328  18
   2   2  -4 294.169 39.7674   1
   2   2  -4 304.977 34.6076  10
   2   2  -4 344.193 18.9792   8
   2   2  -4 352.762 19.0099  26
   2   2  -4 299.342 37.0432  11
   2   2  -4 328.749 19.1359  14
  -2   2   4 316.070 17.2501  22
  -2   2   4 272.604 30.8528  19
  -2   2   4 337.221 47.4287   3
  -2   2   4 325.602 16.0300   5
   2   2  -4 303.135 37.5707  21
  -2   2   4 324.553 17.7898  23
  -2   2   4 329.481 16.7879   9
  -2   2   4 297.996 28.2208   2
  -2   2   4 339.064 18.5032   4
  -1  -2   4 399.904 23.4347  15
  -1  -2   4 363.051 28.9703   2
  -1  -2   4 422.201 37.6419  13
  -1  -2   4 385.705 34.5568  19
   1  -2  -4 385.870 20.8085  14
  -1  -2   4 396.527 20.1667   9
   1  -2  -4 412.762 33.9105  10
   1  -2  -4 361.743 31.5138  18
  -1  -2   4 386.741 43.8913   3
   1  -2  -4 404.768 37.7700  11
  -1  -2   4 395.607 36.7270  12
   1  -2  -4 398.125 37.7107   1
   1  -2  -4 406.592 18.9171   8
   1  -2  -4 396.153 18.7862  26
  -1  -2   4 426.617 32.6147  18
   1   2  -4 406.294 20.6335  16
   1   2  -4 345.977 38.7764  11
  -1   2   4 376.837 30.6490  19
   1   2  -4 402.320 19.6341  17
  -1   2   4 402.707 21.9390  15
   1   2  -4 416.376 35.6380  21
  -1   2   4 353.257 34.9969  12
   1   2  -4 341.624 41.0027   1
  -1   2   4 391.140 28.2091   2
  -1   2   4 426.462 19.4563   9
   1   2  -4 363.552 20.8808  14
   1   2  -4 344.347 35.6247  10
   1   2  -4 378.534 20.0783   8
   1   2  -4 391.038 20.1499  26
  -1   2   4 385.257 31.3289  13
  -1   2   4 400.609 47.0149   3
   0  -2  -4 1029.67 41.8809  17
   0  -2   4 1095.99 43.8979  23
   0  -2  -4 943.087 59.8768  18
   0  -2   4 980.610 69.4419  12
   0  -2   4 933.905 71.2916   3
   0  -2  -4 1031.42 45.1533  16
   0  -2  -4 1079.93 71.7031   1
   0  -2   4 962.566 64.9529  13
   0  -2  -4 1046.64 43.1661   4
   0  -2   4 993.801 60.2674  19
   0  -2   4 1038.62 41.4740  17
   0  -2   4 1023.65 45.6498  16
   0   2  -4 1076.06 42.1232  17
   0   2  -4 957.108 71.3051   1
   0   2   4 1068.26 69.6481  12
   0   2  -4 1043.39 65.1767  21
   0   2   4 1024.83 42.3870   9
   0   2   4 977.656 41.9923   6
   0   2  -4 1057.36 44.8053  16
   0   2  -4 1030.31 68.1485  12
   0   2   4 996.985 40.3050  17
   0   2   4 1040.92 56.2523  19
   0   2   4 944.506 69.5788   3
   0   2   4 1060.87 44.5799  16
   0   2   4 1079.11 65.4882  13
   0   2   4 1085.98 48.1520  15
   0   2  -4 973.198 62.6466  13
  -1  -2  -4 1536.56 100.622   1
   1  -2   4 1594.43 66.7124  16
  -1  -2  -4 1560.83 65.5260  16
   1  -2   4 1569.53 98.4523   3
   1  -2   4 1570.10 60.7622  17
  -1  -2  -4 1542.36 62.9056   4
   1  -2   4 1579.83 61.1435   6
  -1  -2  -4 1499.35 89.0582  13
  -1  -2  -4 1582.56 99.3741  12
  -1  -2  -4 1532.75 59.9379  17
  -1   2  -4 1371.75 63.2178   4
   1   2   4 1483.16 60.6449  17
  -1   2  -4 1567.25 91.5685  21
  -1   2  -4 1508.09 93.6801  12
  -1   2  -4 1499.10 55.4196  25
  -1   2  -4 1559.43 88.8292  13
   1   2   4 1555.54 65.7352  16
  -1   2  -4 1580.17 104.953   1
   2  -2   4 2344.54 88.2129   6
   2  -2   4 2221.84 97.2760  16
  -2  -2  -4 2239.69 92.9994   4
   2  -2   4 2162.54 88.9382  17
   2   2   4 2357.90 96.9752  16
   2   2   4 2296.30 87.0055   6
   2   2   4 2512.57 137.623   3
  -2   2  -4 2283.03 95.5935   4
  -2   2  -4 2263.24 87.6730   9
  -2   2  -4 2242.27 96.9086  15
  -2   2  -4 2274.29 132.649  21
  -2   2  -4 2273.47 81.6586  25
   2   2   4 2429.64 90.6912  17
  -3  -2  -4 358.671 24.2617   9
  -3  -2  -4 394.999 26.8897  15
  -3  -2  -4 404.068 27.6287   4
  -3  -2  -4 382.589 19.6522  24
   3   2   4 356.995 20.9536   6
   3   2   4 359.231 26.2209  16
  -3   2  -4 342.606 18.3423   7
  -3   2  -4 382.272 19.2817  25
  -3   2  -4 336.204 21.5499   9
   3   2   4 324.526 27.2165  17
  -3   2  -4 335.971 25.2569  15
   4  -2   4 305.462 19.0943   6
  -4  -2  -4 326.286 24.6229   4
  -4   2  -4 320.116 17.2768  25
  -4   2  -4 315.185 17.3179  24
  -4   2  -4 301.831 16.9442   7
  -6  -3   4 2474.38 99.5630  22
  -6  -3   4 2579.45 100.623   4
  -6  -3   4 2536.52 90.5574  25
  -5  -3   4 212.313 16.3380  25
  -5  -3   4 208.467 18.6701   5
  -5  -3   4 196.085 19.0375   4
  -5  -3   4 231.253 20.6177  22
  -5   3   4 214.695 15.7138  22
   5   3  -4 182.965 17.3410   8
   5   3  -4 186.525 20.8711  14
  -5   3   4 196.905 15.1334   5
  -5   3   4 214.947 20.6218  23
  -4  -3   4 214.002 18.7472  22
  -4  -3   4 255.427 20.9244   4
  -4  -3   4 234.406 16.8137  25
  -4  -3   4 228.002 17.4315   5
  -4   3   4 244.696 17.5444  23
   4   3  -4 233.308 21.4217  14
   4   3  -4 248.349 18.1857  26
   4   3  -4 246.326 18.0920   8
  -4   3   4 238.695 15.9159  22
  -4   3   4 252.505 15.6125   5
  -3  -3   4 940.895 73.3033  19
  -3  -3   4 1053.55 45.6775   4
   3  -3  -4 1038.01 39.8925   8
  -3  -3   4 1005.73 41.1291   5
  -3  -3   4 1016.40 70.7250  18
  -3  -3   4 1042.79 42.2608   9
   3  -3  -4 945.162 70.3498   1
   3  -3  -4 1020.23 39.8090  26
  -3  -3   4 1019.01 43.3990  22
  -3  -3   4 960.778 65.0627   2
   3  -3  -4 1041.64 43.0151  14
   3  -3  -4 1022.37 63.1071  10
   3  -3  -4 1039.75 66.3990  18
  -3  -3   4 1024.74 45.3176  23
  -3  -3   4 1104.70 48.5438  15
   3   3  -4 1053.24 44.1441   8
   3   3  -4 961.570 75.8265  21
  -3   3   4 890.824 41.5525   6
   3   3  -4 976.283 83.5295   1
  -3   3   4 981.303 65.4615  19
  -3   3   4 982.268 42.4773   4
  -3   3   4 963.865 42.9739  23
  -3   3   4 927.738 74.4540   3
   3   3  -4 1062.36 44.1151  26
   3   3  -4 1021.34 45.7956  14
   3   3  -4 937.293 77.1426  11
  -3   3   4 922.247 58.4813   2
   3   3  -4 917.815 70.6824  10
  -3   3   4 989.635 39.2878   5
  -3   3   4 981.082 41.7561  22
   2  -3  -4 513.789 24.5847  14
  -2  -3   4 475.731 27.8932  15
   2  -3  -4 483.272 40.0529  18
  -2  -3   4 475.490 22.2086   5
   2  -3  -4 481.273 42.1488  11
  -2  -3   4 457.679 40.7405  13
  -2  -3   4 468.165 41.0334  18
   2  -3  -4 505.489 21.6532  26
  -2  -3   4 503.402 40.5653   2
  -2  -3   4 454.970 42.7356  12
  -2  -3   4 462.166 47.7176  19
  -2  -3   4 489.539 23.0546  22
   2  -3  -4 493.078 21.6014   8
   2  -3  -4 532.182 39.7435  10
  -2  -3   4 461.164 25.3294  23
  -2  -3   4 491.087 25.1599   4
  -2  -3   4 499.579 24.2825   9
   2  -3  -4 465.391 43.8617   1
  -2   3   4 486.045 21.8824   9
   2   3  -4 483.552 24.9920   8
   2   3  -4 431.026 48.7644   1
  -2   3   4 496.774 21.2085   5
  -2   3   4 491.529 23.0792  23
  -2   3   4 449.892 38.3701  19
   2   3  -4 480.198 24.9927  26
  -2   3   4 505.293 60.4558   3
   2   3  -4 405.968 42.9792  10
   2   3  -4 470.991 21.8484  25
  -2   3   4 474.613 35.7753   2
   2   3  -4 499.100 48.8726  21
  -2   3   4 474.747 22.4719  22
   2   3  -4 496.296 48.5578  11
  -2   3   4 463.988 23.1041   4
  -2   3   4 493.003 24.4593  15
   2   3  -4 437.440 25.2696  14
  -2   3   4 452.001 24.9541   6
   1  -3  -4 6787.94 348.137  10
   1  -3  -4 6808.23 262.833   4
   1  -3  -4 6683.92 369.235  11
  -1  -3   4 7395.83 296.791   2
  -1  -3   4 7340.74 266.156  23
  -1  -3   4 7514.47 322.916  19
  -1  -3   4 7646.13 347.385  13
  -1  -3   4 7059.53 254.966   9
   1  -3  -4 7081.93 256.712  26
  -1  -3   4 6571.59 244.333   5
  -1  -3   4 7192.39 282.031  15
   1  -3  -4 7013.74 273.192  14
  -1  -3   4 7813.53 374.618  12
   1  -3  -4 6986.80 257.267   8
   1  -3  -4 6855.10 293.996   2
   1  -3  -4 6771.61 322.735  18
   1  -3  -4 7229.93 351.420   1
  -1   3   4 6881.14 368.570  12
  -1   3   4 7089.78 259.501  22
  -1   3   4 7151.85 253.446   9
   1   3  -4 7188.68 257.990  17
   1   3  -4 7550.01 356.557  21
   1   3  -4 7063.33 355.058   1
   1   3  -4 7085.63 258.467  26
   1   3  -4 7041.04 273.958  14
   1   3  -4 7092.29 259.118   8
  -1   3   4 6945.31 263.668  23
  -1   3   4 6833.98 338.783  13
   1   3  -4 7336.64 241.853  25
  -1   3   4 6946.06 254.504   6
  -1   3   4 7144.80 280.069  15
  -1   3   4 7152.94 314.779  19
  -1   3   4 7133.72 346.522   3
   1   3  -4 7455.21 280.206  16
   0  -3   4 1630.13 102.279   3
   0  -3  -4 1442.04 90.5592  18
   0  -3  -4 1785.30 67.4684  17
   0  -3   4 1750.83 107.755  12
   0  -3  -4 1692.26 72.4389  16
   0  -3  -4 1759.90 68.3222   4
   0  -3   4 1871.42 95.6697  19
   0  -3   4 1677.28 66.4331  17
   0  -3   4 1651.77 73.0056  16
   0  -3   4 1823.46 69.5742  23
   0  -3  -4 1760.28 103.744   1
   0   3  -4 1700.21 105.156   1
   0   3   4 1808.39 106.046  12
   0   3  -4 1666.53 67.3476  17
   0   3   4 1674.87 66.1760   6
   0   3   4 1742.71 67.3445   9
   0   3  -4 1797.10 101.520  21
   0   3  -4 1769.15 98.4975  13
   0   3  -4 1701.30 103.284  12
   0   3   4 1702.55 97.3687  13
   0   3   4 1699.58 103.498   3
   0   3   4 1783.28 75.1116  15
   0   3  -4 1735.36 61.9879  25
   0   3  -4 1716.45 71.7739  16
  -1  -3  -4 776.003 34.7178   4
   1  -3   4 770.459 34.7946   6
  -1  -3  -4 767.971 36.7139  16
  -1  -3  -4 793.176 33.2602  17
   1  -3   4 808.058 38.0010  16
  -1  -3  -4 692.810 61.7781  12
  -1  -3  -4 826.349 68.3660   1
   1  -3   4 742.066 65.7506   3
   1  -3   4 783.891 55.1516  19
   1  -3   4 766.523 33.8811  23
   1  -3   4 773.417 33.6598  17
  -1  -3  -4 672.109 56.2990  13
   1   3   4 792.950 63.0490   3
   1   3   4 733.906 32.9525   6
   1   3   4 765.720 35.7986  16
  -1   3  -4 729.310 55.9909  13
  -1   3  -4 677.620 35.1816   9
  -1   3  -4 669.447 55.4433  21
  -1   3  -4 736.739 29.9710  25
  -1   3  -4 730.531 56.5318  12
   1   3   4 734.397 33.6339  17
   2  -3   4 102.220 12.0492  17
  -2  -3  -4 94.6284 13.3181   4
   2  -3   4 143.841 14.6165   6
   2  -3   4 121.436 15.3379  16
  -2   3  -4 98.5217 8.82283   7
  -2   3  -4 87.8411 13.4398  15
   2   3   4 111.212 11.8279   6
  -2   3  -4 107.672 11.8444   9
  -2   3  -4 104.949 9.73660  25
   2   3   4 131.161 14.7309  16
   2   3   4 122.329 15.3070  17
  -3  -3  -4 294.931 26.0925  15
  -3  -3  -4 358.880 24.3965   4
  -3  -3  -4 329.687 24.5847   9
   3  -3   4 306.555 20.7686   6
  -3   3  -4 317.936 20.5119   9
   3   3   4 300.836 17.8413  24
   3   3   4 325.544 24.8645  16
  -3   3  -4 322.006 16.9087   7
  -3   3  -4 346.520 18.0230  25
  -3   3  -4 312.456 25.2677  15
   3   3   4 336.394 27.7784  17
   3   3   4 337.814 19.7915   6
  -4  -3  -4 1510.06 64.8482   4
   4  -3   4 1485.92 60.1911   6
   4   3   4 1513.37 55.0655  24
  -4   3  -4 1522.79 56.7289  25
  -4   3  -4 1481.57 55.9250   7
  -4   3  -4 1529.87 54.6190  24
  -6  -4   4 102.072 12.1112   4
  -6  -4   4 128.184 14.0523  22
  -5  -4   4 638.910 32.1421   4
  -5  -4   4 610.798 32.7871  22
  -5  -4   4 537.784 29.5906   5
  -5  -4   4 596.886 27.3953  25
   5   4  -4 591.693 29.3130  26
  -5   4   4 529.505 26.9054   5
  -5   4   4 542.049 27.8568  22
  -5   4   4 536.216 31.4857  23
   5   4  -4 568.342 29.2510   8
  -4  -4   4 709.946 31.0166  25
  -4  -4   4 728.733 34.4377  15
  -4  -4   4 685.737 35.0570   4
   4  -4  -4 666.467 28.7529   8
  -4  -4   4 653.573 30.8468   9
  -4  -4   4 709.955 33.5952   5
   4  -4  -4 680.186 28.7145  26
   4   4  -4 669.218 33.2091   8
  -4   4   4 661.949 31.4171  22
   4   4  -4 687.392 39.3877  14
  -4   4   4 672.087 29.8619   5
  -4   4   4 664.898 33.4553  23
   4   4  -4 659.918 32.9766  26
   3  -4  -4 2172.52 115.216  18
  -3  -4   4 2167.95 85.2180   4
  -3  -4   4 2003.00 120.389  19
  -3  -4   4 2188.70 82.4023   9
  -3  -4   4 1950.91 113.150   2
  -3  -4   4 1996.55 83.0546  22
   3  -4  -4 2074.64 106.207   2
   3  -4  -4 2154.38 85.1947  14
  -3  -4   4 2079.31 122.583  18
  -3  -4   4 2067.30 85.8137  23
  -3  -4   4 2128.29 90.9105  15
   3  -4  -4 2095.69 78.7300  26
  -3  -4   4 2058.54 79.0111   5
   3  -4  -4 2126.48 79.0188   8
  -3   4   4 1964.12 80.9648   6
  -3   4   4 2111.11 113.515  19
  -3   4   4 2082.19 83.4152  23
   3   4  -4 2177.19 89.4149  14
  -3   4   4 2152.68 81.5704  22
   3   4  -4 1934.82 131.917   1
   3   4  -4 2244.15 83.6988   8
   3   4  -4 2179.02 83.4364  26
  -3   4   4 1956.57 126.857   3
   3   4  -4 2069.20 76.3435  25
  -3   4   4 2064.90 76.5562   5
   3   4  -4 2145.10 128.972  21
  -2  -4   4 2380.54 87.3225   5
  -2  -4   4 2304.84 91.2703  22
  -2  -4   4 2349.25 125.651  18
  -2  -4   4 2380.98 94.1729   4
  -2  -4   4 2268.45 127.320  13
   2  -4  -4 2196.31 122.145  18
   2  -4  -4 2358.05 112.530   2
  -2  -4   4 2293.48 137.890  12
  -2  -4   4 2364.19 118.878   2
   2  -4  -4 2419.70 89.4109   8
  -2  -4   4 2383.48 130.549  19
   2  -4  -4 2424.31 89.2487  26
   2  -4  -4 2460.62 128.611  10
   2  -4  -4 2215.42 135.300  11
  -2  -4   4 2273.01 95.0968  23
  -2  -4   4 2408.16 92.0493   9
   2  -4  -4 2533.17 134.153   1
  -2  -4   4 2400.10 102.606  15
   2  -4  -4 2379.95 96.4299  14
  -2   4   4 2467.91 92.7381  23
  -2   4   4 2460.35 85.5709   5
   2   4  -4 2447.07 140.185   1
   2   4  -4 2571.29 140.515  21
   2   4  -4 2312.42 92.8794   8
   2   4  -4 2298.67 92.6161  26
   2   4  -4 2426.06 92.3036  17
   2   4  -4 2498.67 99.8585  16
  -2   4   4 2430.52 97.1442  15
   2   4  -4 2549.50 85.6477  25
  -2   4   4 2362.28 141.508   3
  -2   4   4 2534.43 121.467  19
  -2   4   4 2379.06 88.9257   9
   2   4  -4 2254.09 98.2369  14
   2   4  -4 2372.65 146.048  11
   2   4  -4 2126.73 135.537  10
  -2   4   4 2333.48 91.1394   6
  -1  -4   4 154.612 14.4974  23
   1  -4  -4 182.191 12.2821   8
   1  -4  -4 199.377 31.8991   1
  -1  -4   4 185.180 12.6964  16
   1  -4  -4 180.054 22.9259   2
  -1  -4   4 171.730 31.2422  12
   1  -4  -4 193.472 15.8155  14
   1  -4  -4 174.780 11.6107   4
   1  -4  -4 148.573 24.3793  10
   1  -4  -4 205.028 29.8736  18
  -1  -4   4 182.411 26.0428   2
  -1  -4   4 198.543 31.7453  13
   1  -4  -4 187.026 12.2762  26
   1  -4  -4 116.696 26.4995  11
  -1  -4   4 177.121 12.5785   5
  -1  -4   4 190.128 34.6241  19
  -1   4   4 145.311 12.3029  22
  -1   4   4 158.517 26.8588  12
  -1   4   4 139.583 11.0915  23
   1   4  -4 136.305 12.7485  16
   1   4  -4 150.416 13.6930  17
  -1   4   4 136.348 12.5853   9
  -1   4   4 174.626 24.7598  13
  -1   4   4 143.814 35.2987   3
   1   4  -4 140.844 11.4058  25
  -1   4   4 142.236 10.4578   5
  -1   4   4 155.914 23.9664  19
  -1   4   4 160.009 14.5335  15
  -1   4   4 156.718 13.4908   6
   1   4  -4 118.468 28.9992   1
   1   4  -4 175.428 31.3500  21
   0  -4   4 954.877 40.8668  17
   0  -4   4 1003.67 70.1726  19
   0  -4   4 925.409 70.2449   3
   0  -4  -4 964.471 41.3289  17
   0  -4   4 921.333 45.4032  16
   0  -4   4 1046.46 77.8590  13
   0  -4   4 972.725 43.3713  23
   0  -4  -4 888.557 65.5847  18
   0  -4  -4 967.696 71.1601   1
   0  -4  -4 979.127 41.1532   4
   0   4  -4 997.174 69.2754  12
   0   4   4 932.422 40.4690   6
   0   4   4 1018.01 72.3364  12
   0   4   4 1018.51 41.7793  22
   0   4   4 926.519 64.4249  13
   0   4   4 936.609 41.5979   9
   0   4   4 991.511 47.4494  15
   0   4  -4 980.811 41.7216  17
   0   4   4 1001.38 73.2261   3
   0   4  -4 936.229 69.1740  21
   0   4  -4 959.580 65.6262  13
   0   4  -4 965.273 37.5410  25
   0   4  -4 979.628 43.0521  16
  -1  -4  -4 695.082 35.8434  16
   1  -4   4 666.868 37.4043  16
  -1  -4  -4 691.820 33.3954   4
   1  -4   4 627.446 32.8137   6
   1  -4   4 686.198 58.3728  19
  -1  -4  -4 715.457 69.5983   1
   1  -4   4 715.604 32.7745  17
   1  -4   4 635.201 65.8711   3
  -1  -4  -4 707.286 32.4637  17
   1  -4   4 705.589 33.3992  23
  -1   4  -4 718.881 33.0890   9
  -1   4  -4 724.523 28.3694   7
  -1   4  -4 669.230 59.1794  21
   1   4   4 712.545 31.5136   6
  -1   4  -4 728.609 38.4098  15
   1   4   4 746.097 33.9968  16
   1   4   4 692.546 61.0613   3
   1   4   4 762.904 33.0544  17
  -1   4  -4 727.514 29.5586  25
   2  -4   4 1275.88 54.6877  17
  -2  -4  -4 1338.47 57.9974   4
   2  -4   4 1296.40 61.5892  16
   2  -4   4 1318.41 54.9699   6
   2   4   4 1283.85 52.6224   6
  -2   4  -4 1313.39 49.2913   7
  -2   4  -4 1339.82 54.0087   9
   2   4   4 1275.07 56.7117  17
   2   4   4 1293.76 58.9919  16
  -2   4  -4 1311.05 49.7904  25
  -2   4  -4 1281.59 60.5679  15
   3  -4   4 475.583 27.3550   6
  -3   4  -4 508.435 26.7188   9
   3   4   4 511.395 32.1945  17
   3   4   4 530.243 31.2118  16
  -3   4  -4 528.500 24.6052  25
  -3   4  -4 511.049 32.1526  15
   3   4   4 491.434 23.4616  24
   3   4   4 520.954 25.6448   6
  -3   4  -4 506.737 23.2134   7
  -4  -4  -4 588.480 30.8348   4
   4  -4   4 571.307 28.5545   6
  -4   4  -4 593.854 25.2034   7
  -4   4  -4 609.118 25.8149  24
   4   4   4 543.272 24.1787  24
  -4   4  -4 573.650 26.2660  25
  -6  -5   4 68.9350 10.1834  22
  -6  -5   4 67.7295 9.36480   4
   6   5  -4 63.2692 7.09376  25
  -5  -5   4 951.144 42.7006   4
  -5  -5   4 967.520 44.1607  22
  -5  -5   4 938.228 40.4473   5
  -5   5   4 873.935 38.8214   5
  -5   5   4 885.323 44.3285  23
   4  -5  -4 1770.37 76.2751  14
   4  -5  -4 1840.20 70.9064  26
  -4  -5   4 1853.67 76.6937   4
  -4  -5   4 1817.38 72.5825   5
  -4  -5   4 1828.84 79.2878  15
   4  -5  -4 1852.83 71.2203   8
  -4  -5   4 1863.54 77.0921  22
  -4  -5   4 1830.63 73.2804   9
   4   5  -4 2016.65 75.5313  26
  -4   5   4 1911.17 77.5459  23
   4   5  -4 1926.44 68.6598  25
   4   5  -4 1771.50 81.9254  14
   4   5  -4 1964.53 75.7202   8
  -4   5   4 1773.00 72.6624   6
  -4   5   4 1879.01 70.1449   5
  -4   5   4 1825.08 73.7592  22
  -3  -5   4 275.734 19.7201   5
  -3  -5   4 275.979 20.2968  22
  -3  -5   4 292.887 23.9647  15
   3  -5  -4 284.533 15.8075  26
  -3  -5   4 308.708 22.6824   9
  -3  -5   4 308.840 21.5369  23
   3  -5  -4 284.147 15.8415   8
   3  -5  -4 292.073 20.7303  14
  -3  -5   4 280.061 19.6911   4
  -3   5   4 275.778 17.3289  22
  -3   5   4 285.300 16.2274   5
   3   5  -4 275.016 16.1987  25
   3   5  -4 250.659 24.8022  14
  -3   5   4 256.924 19.1031   6
   3   5  -4 268.223 20.0480  26
   3   5  -4 255.314 19.7090   8
  -3   5   4 108.143 42.9704   3
  -3   5   4 248.557 17.2479  23
  -2  -5   4 1809.16 76.2087   9
   2  -5  -4 1880.03 104.839  18
  -2  -5   4 1839.47 74.1873  22
   2  -5  -4 1861.28 72.0849   8
  -2  -5   4 1757.37 108.031  18
  -2  -5   4 1844.28 71.1343   5
   2  -5  -4 1875.81 71.9359  26
   2  -5  -4 1892.99 96.6695   2
  -2  -5   4 1864.70 84.2459  15
   2  -5  -4 1861.85 79.2007  14
  -2  -5   4 1718.43 102.977   2
  -2  -5   4 1775.50 108.779  19
  -2  -5   4 1822.35 76.8010  23
   2  -5  -4 1863.84 107.674  10
  -2   5   4 1915.81 74.6820  23
   2   5  -4 1810.03 75.1358  26
  -2   5   4 1859.03 118.529   3
  -2   5   4 1896.60 101.578  19
   2   5  -4 1864.34 76.2213  17
  -2   5   4 1925.94 72.2560   9
  -2   5   4 1928.87 73.4424  22
   2   5  -4 1910.14 80.2489  16
  -2   5   4 1963.39 69.0796   5
   2   5  -4 1802.57 75.2107   8
  -2   5   4 1892.69 73.3521   6
  -2   5   4 1883.79 77.9809  15
   2   5  -4 1846.40 82.0060  14
   2   5  -4 1920.52 68.6071  25
   2   5  -4 1889.68 117.962  21
  -1  -5   4 433.548 51.8740  19
   1  -5  -4 438.951 42.4382  10
  -1  -5   4 479.873 48.6247   2
   1  -5  -4 473.576 28.8692  14
  -1  -5   4 453.718 55.1662  12
   1  -5  -4 449.207 23.3002  26
  -1  -5   4 474.381 26.8039  23
  -1  -5   4 488.630 23.8186  16
   1  -5  -4 456.189 45.8369  18
   1  -5  -4 457.661 39.5559   2
  -1  -5   4 486.508 21.6659  17
   1  -5  -4 400.808 51.0138  11
   1  -5  -4 437.219 23.2939   8
  -1  -5   4 446.705 49.7451  13
  -1  -5   4 459.044 23.3850   5
  -1   5   4 468.271 21.7628   5
  -1   5   4 421.595 40.2172  19
   1   5  -4 513.713 26.9772  17
   1   5  -4 468.654 21.9918  25
   1   5  -4 473.320 53.6860  21
  -1   5   4 518.414 24.5349  22
  -1   5   4 500.308 25.3419   9
  -1   5   4 476.558 27.2389  15
  -1   5   4 461.368 23.7892   6
  -1   5   4 469.403 55.5817   3
  -1   5   4 485.408 23.0676  23
   1   5  -4 485.331 25.5149  16
   0  -5  -4 760.551 36.4008  16
   0  -5  -4 683.570 61.5848  18
   0  -5   4 717.009 34.9820  23
   0  -5  -4 738.699 33.5613  17
   0  -5  -4 712.884 61.3103   1
   0  -5   4 769.485 36.7548  16
   0  -5   4 713.285 65.4147  19
   0  -5  -4 702.987 32.0332   4
   0  -5   4 709.998 32.4981  17
   0   5   4 776.429 65.0876   3
   0   5  -4 567.652 57.8008  13
   0   5   4 730.968 34.5017   9
   0   5  -4 709.735 28.6923   7
   0   5  -4 667.856 29.5984  25
   0   5   4 702.065 62.0185  12
   0   5  -4 723.130 32.8544  16
   0   5   4 658.184 39.0786  15
   0   5  -4 690.750 62.7968  21
   0   5   4 652.989 31.3991   6
   0   5  -4 693.736 31.5433  17
   0   5  -4 566.258 57.0315  12
  -1  -5  -4 1838.96 74.4775  17
  -1  -5  -4 1898.48 77.7412   4
  -1  -5  -4 1865.04 82.7986  16
   1  -5   4 1871.69 75.4368  17
   1  -5   4 1844.68 83.9039  16
   1  -5   4 1894.03 78.2840  23
   1   5   4 1838.98 119.635   3
   1   5   4 1977.20 78.6308  16
   1   5   4 2009.82 73.9772   6
  -1   5  -4 1907.93 75.2238   9
  -1   5  -4 1996.52 84.8991  15
  -1   5  -4 1901.20 69.0866   7
  -2  -5  -4 12.3945 10.2239   4
   2  -5   4 12.0036 14.2442  16
   2  -5   4 5.99497 10.6260  17
  -2   5  -4 4.63498 9.68205   9
  -2   5  -4 14.2883 6.89428  25
  -2   5  -4 7.30132 6.13522   7
   2   5   4 12.7998 8.10807   6
   2   5   4 13.5234 7.72309  24
   2   5   4 2.45703 12.7382  17
   2   5   4 4.96960 9.77219  16
  -2   5  -4 24.8342 13.5280  15
  -3  -5  -4 1879.33 78.2261   4
   3  -5   4 1946.17 74.7179   6
  -3   5  -4 1844.25 68.3197   7
   3   5   4 1757.72 66.0248  24
  -3   5  -4 1861.80 69.2221  25
   4  -5   4 120.165 12.0837   6
  -4   5  -4 144.996 11.3154   7
  -4   5  -4 156.989 13.2956  25
   4   5   4 106.960 9.30832  24
  -6  -6   4 56.7650 7.87909   4
  -6  -6   4 57.8353 8.31219  22
   6   6  -4 53.5482 6.30278  25
  -5  -6   4 760.389 35.5087   4
  -5  -6   4 781.701 36.7120  22
  -5  -6   4 768.242 33.7834   5
   5   6  -4 782.937 31.4623  25
  -5   6   4 702.511 33.3049   5
  -5   6   4 786.366 38.8222  23
  -4  -6   4 526.235 27.2436   5
  -4  -6   4 507.155 27.2994   4
   4  -6  -4 519.760 25.6526  26
   4  -6  -4 528.418 25.5722   8
  -4  -6   4 460.059 27.2953   9
  -4  -6   4 556.815 29.3545  22
  -4  -6   4 502.417 29.5526  15
   4  -6  -4 496.091 29.5015  14
  -4   6   4 473.217 25.9093  22
   4   6  -4 464.790 26.9868  26
  -4   6   4 550.874 29.0073  23
   4   6  -4 444.619 31.4784  14
   4   6  -4 485.696 27.0417   8
   4   6  -4 510.669 23.5501  25
  -4   6   4 537.455 25.5382   5
  -4   6   4 494.094 27.0540   6
  -3  -6   4 211.006 17.5612  23
  -3  -6   4 171.337 18.9706   9
  -3  -6   4 127.369 16.4314  15
  -3  -6   4 154.382 15.3670  22
  -3  -6   4 154.467 14.4906   5
   3   6  -4 106.522 18.1148  14
  -3   6   4 85.5412 12.2459  23
  -3   6   4 145.480 13.7902  22
  -3   6   4 125.028 11.6471   5
   3   6  -4 89.9014 13.0859  16
  -3   6   4 190.986 15.9498   6
   3   6  -4 130.007 11.7206  25
  -2  -6   4 3282.75 129.986  23
   2  -6  -4 3346.89 125.300   8
  -2  -6   4 3172.81 171.301  19
   2  -6  -4 3442.45 125.220  26
   2  -6  -4 3205.01 135.490  14
  -2  -6   4 3439.42 121.486   5
  -2  -6   4 3269.56 127.214  22
  -2  -6   4 3282.89 129.347   9
  -2  -6   4 3200.10 141.337  15
  -2   6   4 3494.47 119.513   5
  -2   6   4 3175.97 134.549  15
   2   6  -4 3543.03 137.289  16
  -2   6   4 3264.76 123.971   6
  -2   6   4 3413.17 127.067  22
   2   6  -4 3301.80 127.835  17
  -2   6   4 3376.60 129.139  23
  -2   6   4 3317.01 123.025   9
   2   6  -4 3379.87 117.735   7
  -1  -6   4 590.182 28.3419   5
  -1  -6   4 567.530 55.1481   2
  -1  -6   4 605.706 64.6020  19
   1  -6  -4 593.500 28.7737   8
   1  -6  -4 563.413 58.7300  18
   1  -6  -4 575.743 28.6181  26
  -1  -6   4 575.354 27.0850  16
   1  -6  -4 542.732 34.0245  14
   1  -6  -4 473.959 45.0018   2
  -1   6   4 598.231 30.3919   9
  -1   6   4 594.110 65.3415   3
   1   6  -4 595.294 29.6023  16
  -1   6   4 550.257 32.7536  15
  -1   6   4 551.410 25.9075   5
  -1   6   4 548.116 27.6710   6
  -1   6   4 587.749 28.7255  22
   1   6  -4 560.165 25.2177   7
  -1   6   4 555.264 27.8440  23
   1   6  -4 599.601 29.6613  17
   1   6  -4 561.079 62.7045  21
   0  -6   4 2182.69 84.3809  17
   0  -6  -4 2120.80 85.5391  17
   0  -6   4 2200.22 92.3896  16
   0  -6  -4 2200.32 87.1510  22
   0  -6  -4 1824.57 127.572  18
   0  -6   4 2262.21 88.8871  23
   0  -6  -4 2146.70 93.5959  16
   0   6   4 2164.29 86.6799   9
   0   6   4 2194.71 82.6578   6
   0   6   4 2201.91 96.9390  15
   0   6  -4 2101.56 78.2305   7
   0   6  -4 2193.60 79.1514  25
  -1  -6  -4 803.106 41.7186  16
  -1  -6  -4 795.124 35.8893  17
   1  -6   4 824.182 37.6106  17
   1  -6   4 787.385 38.8493  23
  -1  -6  -4 797.629 37.9701   4
   1  -6   4 814.420 42.9625  16
  -1  -6  -4 797.717 39.7308  22
   1   6   4 750.191 34.7268   6
  -1   6  -4 758.761 37.1493   9
  -1   6  -4 741.260 32.3103   7
  -1   6  -4 813.940 34.0109  25
  -1   6  -4 748.375 43.2469  15
   2  -6   4 254.981 21.6678  17
  -2  -6  -4 268.130 21.3972   4
   2  -6   4 268.805 25.6140  16
  -2   6  -4 254.277 23.3413  15
  -2   6  -4 237.449 15.4698   7
   2   6   4 215.693 14.6268  24
  -2   6  -4 241.484 16.8327  25
   2   6   4 241.098 17.3807   6
   2   6   4 260.932 16.7674  16
   2   6   4 246.412 19.8431  17
  -2   6  -4 258.361 19.9390   9
   3  -6   4 624.779 31.0993   6
  -3  -6  -4 608.779 31.9890   4
   3   6   4 587.125 25.3834  24
  -3   6  -4 633.555 28.7155  25
  -3   6  -4 621.596 27.2029   7
  -4  -6  -4 600.986 28.0314   4
   4  -6   4 570.165 27.0673   6
  -4   6  -4 610.561 26.3321  25
  -4   6  -4 570.489 24.8069   7
  -5  -7   4 450.983 23.4920   4
  -5  -7   4 477.734 24.3413  22
  -5  -7   4 442.597 22.0234   5
  -5   7   4 441.848 23.4893   5
  -5   7   4 400.870 22.7766   6
   5   7  -4 474.395 20.8267  25
  -5   7   4 470.305 27.2944  23
  -4  -7   4 465.791 24.7146   5
   4  -7  -4 456.448 26.5650  26
   4  -7  -4 476.624 26.7802   8
  -4  -7   4 496.940 26.6477  22
  -4   7   4 470.555 27.5797  23
  -4   7   4 443.728 24.3564   5
   4   7  -4 474.486 22.1971  25
  -4   7   4 415.898 24.8648  22
  -4   7   4 429.775 25.3560   6
   3  -7  -4 232.773 21.4744  14
  -3  -7   4 203.436 20.5672  15
   3  -7  -4 220.310 18.1764   8
  -3  -7   4 226.684 18.8971  22
   3  -7  -4 203.606 18.2129  26
  -3  -7   4 226.257 21.4506   9
  -3  -7   4 203.241 16.2805   5
  -3   7   4 194.403 15.5764   5
  -3   7   4 194.717 17.3328  23
  -3   7   4 189.564 16.2762   6
   3   7  -4 220.027 13.9562  25
   3   7  -4 213.524 18.6023  17
  -3   7   4 182.200 16.2806  22
   3   7  -4 185.055 17.7407  16
   3   7  -4 185.374 13.5034   7
  -2  -7   4 329.287 21.2080   5
   2  -7  -4 301.893 26.8922  14
  -2  -7   4 316.403 21.4716  23
   2  -7  -4 351.775 22.0897  26
   2  -7  -4 325.858 21.7211   8
   2   7  -4 357.391 23.2812  17
  -2   7   4 375.108 20.6137   6
  -2   7   4 347.101 21.4141  23
   2   7  -4 342.128 18.3165   7
   2   7  -4 375.168 18.9894  25
  -2   7   4 350.850 20.0784   5
   2   7  -4 369.189 22.7358  16
  -2   7   4 328.196 21.0997  22
  -2   7   4 315.549 22.4932  15
   1  -7  -4 1805.77 74.1701   8
   1  -7  -4 1843.20 74.1472  26
  -1  -7   4 1794.23 69.8638   5
  -1  -7   4 1859.50 75.5067  23
   1  -7  -4 1692.11 80.1920  14
   1   7  -4 1809.25 67.0966   7
   1   7  -4 1908.90 67.5436  25
   1   7  -4 1726.48 71.0241  17
  -1   7   4 1830.97 70.9664   6
  -1   7   4 1817.21 73.1271   9
  -1   7   4 1797.71 81.5498  15
  -1   7   4 1844.24 69.2637   5
   1   7  -4 1845.33 76.2236  16
  -1   7   4 1809.05 74.4688  23
   0  -7  -4 1260.62 60.9391  16
   0  -7  -4 1206.43 54.1671  17
   0  -7   4 1278.21 55.8440  23
   0  -7  -4 1248.92 56.0689  22
   0  -7   4 1250.71 52.4205  17
   0  -7   4 1260.35 57.4355  16
   0   7  -4 1259.89 48.8839   7
   0   7   4 1167.50 64.0889  15
   0   7  -4 1346.23 49.7307  25
   0   7   4 1232.50 55.9267   9
   0   7   4 1295.99 51.7406   6
  -1  -7  -4 407.261 29.1252  16
  -1  -7  -4 445.334 24.1273  17
   1  -7   4 431.013 26.7213  23
   1  -7   4 423.452 30.0687  16
   1  -7   4 442.962 27.9257  17
  -1  -7  -4 456.791 27.8610  22
  -1   7  -4 448.072 33.5538  15
  -1   7  -4 480.104 23.5441  25
  -1   7  -4 438.610 27.5742   9
   1   7   4 453.917 23.5606   6
  -1   7  -4 445.842 22.0418   7
  -2  -7  -4 37.3802 11.5578   4
   2  -7   4 44.0921 13.4305  23
   2  -7   4 35.8452 14.8065  16
   2   7   4 29.0854 6.61879  24
  -2   7  -4 62.2424 8.77776   7
  -2   7  -4 31.7956 8.46558  25
  -2   7  -4 32.8050 11.8540   9
  -3  -7  -4 484.811 27.1027   4
   3  -7   4 521.687 26.5098   6
  -3   7  -4 505.778 24.5335  25
  -3   7  -4 475.559 23.2415   7
   3   7   4 512.960 20.9844  24
  -5  -8   4 382.900 20.5589  22
   5   8  -4 391.180 17.6480  25
  -5   8   4 435.745 23.5764  23
  -4  -8   4 1110.49 48.3357  22
  -4  -8   4 1068.41 45.3267   5
  -4   8   4 1146.68 51.6042  23
   4   8  -4 1187.09 43.6525  25
  -4   8   4 1170.38 47.8804   6
  -4   8   4 1203.68 47.3640   5
   4   8  -4 1122.14 43.1391   7
   3  -8  -4 1344.69 56.4246   8
   3  -8  -4 1310.98 55.9330  26
  -3  -8   4 1347.35 52.0163   5
  -3  -8   4 1268.41 54.4189  22
  -3  -8   4 1196.39 56.6020   9
  -3  -8   4 1211.26 61.3115  15
   3  -8  -4 1329.24 65.3471  14
   3   8  -4 1171.00 54.2501  17
  -3   8   4 1345.74 57.1457  23
   3   8  -4 1269.06 48.9197   7
   3   8  -4 1298.91 49.2043  25
  -3   8   4 1286.02 52.6709   6
  -3   8   4 1349.76 52.7798   5
   3   8  -4 1342.75 57.9297  16
   2  -8  -4 18.1601 11.2807  26
  -2  -8   4 24.9392 9.44830  23
   2  -8  -4 20.2336 14.7190  14
  -2  -8   4 8.06424 8.10835   5
   2  -8  -4 24.1501 11.2183   8
  -2   8   4 35.9780 12.0375  15
   2   8  -4 8.18500 8.54613  16
  -2   8   4 11.9172 8.42708   5
  -2   8   4 8.54784 10.0304  23
   2   8  -4 8.40241 6.45845  25
   2   8  -4 14.2285 6.44838   7
  -2   8   4 19.5356 8.24860   9
  -2   8   4 13.5481 7.32880   6
   2   8  -4 18.6475 10.2779  17
   1  -8  -4 68.8970 12.4889  22
  -1  -8   4 94.0716 13.4506  23
  -1  -8   4 68.9729 10.8605   5
  -1   8   4 84.5271 10.3165   6
  -1   8   4 82.5956 18.0208  15
   1   8  -4 78.9945 9.68007  25
  -1   8   4 63.3828 12.2624   9
   1   8  -4 98.2240 9.94957   7
  -1   8   4 56.2605 10.6180   5
   0  -8   4 654.043 33.0805  23
   0  -8   4 663.861 33.9519  16
   0  -8   4 623.848 31.0912  17
   0  -8  -4 620.588 39.8213  16
   0  -8  -4 640.237 35.3396  22
   0  -8  -4 681.803 33.6565  17
   0   8   4 666.886 30.3686   6
   0   8   4 645.652 45.5975  15
   0   8  -4 657.568 28.9631   7
   0   8  -4 692.392 29.6892  25
   0   8   4 633.077 35.1941   9
   1  -8   4 667.375 35.3155  17
   1  -8   4 688.020 38.1898  16
   1  -8   4 676.943 35.1969  23
  -1  -8  -4 709.478 35.3091  22
  -1  -8  -4 707.346 31.0279  17
  -1  -8  -4 695.220 35.7530  16
   1   8   4 719.784 31.9893   6
  -1   8  -4 728.382 30.9803   7
  -1   8  -4 742.524 31.4695  25
   2  -8   4 1606.15 67.9924  23
   2  -8   4 1614.50 63.8041   6
  -2   8  -4 1636.92 61.7758  25
   2   8   4 1647.04 58.0508  24
  -2   8  -4 1666.41 61.7064   7
   3  -8   4 55.2716 8.17581   6
  -3   8  -4 71.6853 8.67439  25
  -3   8  -4 68.6946 8.07963   7
  -4  -9   4 330.474 17.6307   5
  -4  -9   4 335.905 18.8946  22
  -4   9   4 341.901 18.6270   6
   4   9  -4 310.685 15.4384   7
   4   9  -4 328.885 16.0707  25
  -4   9   4 322.432 19.6348   5
  -4   9   4 358.360 21.7963  23
  -3  -9   4 381.798 21.9246  22
  -3  -9   4 420.980 21.3655   5
   3  -9  -4 391.640 26.3067  22
  -3   9   4 368.698 22.3757   5
  -3   9   4 416.289 21.1434   6
   3   9  -4 385.233 18.7395   7
  -3   9   4 383.731 24.4681  23
   3   9  -4 398.257 18.9601  25
   2  -9  -4 371.390 24.9456  22
  -2  -9   4 345.907 19.9046   5
  -2  -9   4 336.240 20.5896  23
   2   9  -4 345.080 17.9695   7
  -2   9   4 366.305 19.8474   6
   2   9  -4 331.076 19.3590  16
  -2   9   4 352.393 23.4969  23
  -2   9   4 349.953 22.1079   5
   2   9  -4 362.595 18.1083  25
   1  -9  -4 1586.95 68.9919  22
  -1  -9   4 1545.64 61.7260   5
  -1  -9   4 1583.59 66.6964  23
  -1   9   4 1663.28 64.5905   9
   1   9  -4 1649.13 60.1597   7
  -1   9   4 1658.38 63.0605   6
  -1   9   4 1623.68 63.1654   5
   1   9  -4 1558.67 59.6608  25
   0  -9  -4 585.995 38.5649  16
   0  -9   4 598.271 30.8125  16
   0  -9  -4 608.673 33.4384  22
   0  -9   4 611.380 31.0122  23
   0   9  -4 640.645 27.6571   7
   0   9   4 632.065 28.4850   6
   0   9  -4 639.148 27.4349  25
  -1  -9  -4 831.501 37.9550  22
   1  -9   4 802.503 38.2089  23
  -1   9  -4 789.965 33.6156  25
  -1   9  -4 837.901 33.9901   7
   2  -9   4 15.6211 9.33603  23
  -2   9  -4 20.3130 6.80022   7
  -2   9  -4 17.5411 6.61735  25
  -4 -10   4 52.0975 7.35292  22
  -4 -10   4 57.8267 6.90701   5
   4 -10  -4 62.3675 9.92041   5
  -4  10   4 70.3635 7.35758   6
  -4  10   4 67.6202 9.34671  23
   4  10  -4 73.3689 6.22301  25
  -3 -10   4 130.718 11.1728   5
   3 -10  -4 141.146 14.8199  22
  -3  10   4 157.045 15.0403  23
   3  10  -4 132.459 9.89937  25
  -3  10   4 131.466 12.5984   5
  -3  10   4 127.161 11.7178   6
   3  10  -4 131.176 10.0034   7
   2 -10  -4 968.327 46.7756  22
  -2 -10   4 1003.72 43.1398  23
  -2 -10   4 1011.49 40.8609   5
  -2  10   4 995.173 45.3327  23
   2  10  -4 1047.54 38.8863  25
   2  10  -4 1041.54 39.1422   7
  -2  10   4 1011.66 41.3327   6
  -1 -10   4 170.050 14.3234   5
  -1 -10   4 188.203 15.0359  23
   1 -10  -4 198.564 16.6970   5
   1 -10  -4 159.525 16.6184  22
   1  10  -4 170.234 12.6739   7
  -1  10   4 175.802 13.1215   6
   1  10  -4 181.038 12.5065  25
   0 -10  -4 720.443 34.6892  22
   0 -10   4 688.799 33.2744  23
   0  10   4 710.971 30.4217   6
   0  10  -4 685.341 29.0460  25
   0  10  -4 744.385 29.9546   7
  -1 -10  -4 158.122 14.4799  22
   1 -10   4 150.742 14.5726  23
  -1  10  -4 149.920 11.5709   7
  -1  10  -4 142.979 11.3916  25
   3 -11  -4 95.7871 10.2745   5
  -3 -11   4 95.4633 8.11188   5
  -3  11   4 84.2804 7.65117   6
  -3  11   4 79.5721 9.62982  23
   2 -11  -4 414.018 24.2101  22
  -2 -11   4 421.295 20.2784   5
   2 -11  -4 443.628 22.8835   5
   2  11  -4 439.043 18.7943   7
  -2  11   4 490.585 20.6019   6
   2  11  -4 416.620 18.4650  25
  -1 -11   4 92.1870 9.88404  23
  -1 -11   4 88.7877 8.95007   5
   1 -11  -4 88.2938 9.93189   5
   1 -11  -4 101.684 12.0520  22
   1  11  -4 115.052 8.96810   7
   1  11  -4 96.8237 8.61272  25
  -1  11   4 88.7126 8.17897   6
   0 -11   4 65.3685 8.54815  23
   0 -11  -4 76.6196 9.48899  22
   0  11  -4 62.6441 6.35448  25
   0  11  -4 98.8232 7.98402   7
   1 -11   4 504.939 24.0332  23
  -1  11  -4 518.875 21.3685   7
  -6   0   5 488.031 26.5090  22
  -6   0   5 472.639 28.6300   4
   5   0  -5 7.63221 12.6714  14
   5   0  -5 5.82121 9.46785  26
  -5   0   5 22.4722 8.66045  22
  -5   0   5 1.15181 10.7147   4
   5   0  -5 1.92088 9.86492   8
  -5   0   5 7.47512 8.47563   5
  -4   0   5 4391.65 166.167  23
  -4   0   5 4256.00 151.863   5
  -4   0   5 4299.04 161.490  22
   4   0  -5 4229.17 159.103  26
   4   0  -5 4307.46 159.600   8
  -4   0   5 4117.03 165.403   4
   4   0  -5 4454.22 168.516  14
   3   0  -5 1874.63 75.4930  14
   3   0  -5 1875.86 71.5376   8
  -3   0   5 1810.77 71.9007  22
   3   0  -5 1858.05 71.3596  26
  -3   0   5 1777.01 73.9532  23
   3   0  -5 1941.83 122.586   1
  -3   0   5 1784.59 68.5172   9
  -3   0   5 1768.09 67.3253   5
  -3   0   5 1785.78 104.436  19
  -3   0   5 1835.12 96.1065   2
  -3   0   5 1782.40 74.7754   4
  -2   0   5 456.603 21.2454   5
   2   0  -5 480.733 23.9785  26
   2   0  -5 462.250 43.2523  18
  -2   0   5 465.293 44.4121  19
  -2   0   5 513.037 23.6222  22
  -2   0   5 467.463 37.8083   2
   2   0  -5 457.486 42.6590  10
  -2   0   5 505.768 27.5355  15
  -2   0   5 498.796 25.5934   4
  -2   0   5 509.625 23.8912   9
   2   0  -5 456.399 25.5221  14
   2   0  -5 396.704 51.5459   1
   2   0  -5 485.810 23.9953   8
   2   0  -5 471.735 47.8585  11
  -2   0   5 478.658 24.1740  23
   1   0  -5 30.3313 7.51147  26
   1   0  -5 56.8041 10.5636  14
  -1   0   5 40.1756 8.63018   9
  -1   0   5 36.5205 7.27355  23
   1   0  -5 47.9303 8.66231  17
  -1   0   5 27.8606 19.7280  19
  -1   0   5 26.2864 24.5139  12
   1   0  -5 38.0610 7.61518  16
   1   0  -5 83.7011 29.7587   1
  -1   0   5 31.0835 9.49079   6
  -1   0   5 28.5152 36.8618   3
   1   0  -5 39.1256 7.95542   8
  -1   0   5 48.7704 11.2430  15
   0   0   5 7.15620 23.9882  12
   0   0  -5 18.2224 7.23981  16
   0   0   5 -1.2932 35.3141   3
   0   0  -5 11.7725 7.65855   4
   0   0   5 9.02272 8.16526   6
   0   0   5 12.8969 8.38811  16
   0   0  -5 7.16403 30.3153   1
   0   0  -5 14.3372 7.41844  17
  -1   0  -5 2720.96 105.327   4
   1   0   5 2411.53 109.250  16
   1   0   5 2781.04 100.944   6
   1   0   5 2655.16 100.487  17
   2   0   5 1756.61 73.1739  17
  -2   0  -5 1870.84 78.4895   4
   2   0   5 1894.18 80.3377  16
   2   0   5 1777.88 71.8177   6
  -3   0  -5 204.688 20.6789   4
   3   0   5 245.437 17.6048   6
   4   0   5 192.244 13.7441   6
  -6  -1   5 1042.44 47.2369   4
  -6  -1   5 1043.73 45.5525  22
  -6   1   5 989.078 44.0671  22
  -5  -1   5 526.899 28.6138  22
   5  -1  -5 539.765 25.8606  26
  -5  -1   5 513.281 31.6964   4
  -5  -1   5 535.652 27.3062   5
   5  -1  -5 508.795 25.7618   8
  -5   1   5 548.742 29.9226   4
  -5   1   5 550.087 27.4534  22
   5   1  -5 487.143 27.4189  26
  -5   1   5 561.316 26.4677   5
   5   1  -5 504.314 27.8897   8
  -5   1   5 515.268 30.7130  23
   4  -1  -5 234.343 16.7895   8
   4  -1  -5 272.994 18.9281  14
  -4  -1   5 226.159 20.5593  23
  -4  -1   5 232.471 16.1140   5
  -4  -1   5 219.529 20.4016   4
   4  -1  -5 233.525 16.7155  26
  -4   1   5 237.476 16.2233  22
  -4   1   5 227.299 15.4180   5
   4   1  -5 242.119 18.4835   8
  -4   1   5 242.627 18.6892  23
  -4   1   5 236.803 19.1930   4
   4   1  -5 223.413 18.1580  26
   4   1  -5 221.971 19.1954  14
  -3  -1   5 1291.54 50.6677   5
  -3  -1   5 1251.89 76.3108   2
   3  -1  -5 1314.99 52.8986  26
  -3  -1   5 1307.73 53.7913  22
   3  -1  -5 1306.71 55.9760  14
  -3  -1   5 1321.03 83.7592  18
  -3  -1   5 1293.45 56.1259  23
  -3  -1   5 1263.52 56.6881   4
   3  -1  -5 1371.44 53.2413   8
   3  -1  -5 1340.91 95.0385   1
   3  -1  -5 1386.99 84.4827  18
  -3  -1   5 1336.07 87.4042  19
  -3  -1   5 1244.19 51.7189   9
   3   1  -5 1382.29 57.5971  14
  -3   1   5 1339.85 55.8454   4
  -3   1   5 1321.71 50.3764   5
  -3   1   5 1335.16 75.1664   2
  -3   1   5 1314.19 56.9265  15
  -3   1   5 1216.76 82.9982  19
   3   1  -5 1327.99 54.4873   8
   3   1  -5 1268.06 101.450   1
   3   1  -5 1347.36 54.4685  26
  -3   1   5 1252.52 55.1568  23
  -3   1   5 1355.89 53.7626  22
  -3   1   5 1319.60 50.7251   9
  -2  -1   5 1191.40 48.6514  22
   2  -1  -5 1150.16 82.3553  11
  -2  -1   5 1199.19 51.9562   4
   2  -1  -5 1235.88 49.3197   8
  -2  -1   5 1173.44 66.6541   2
   2  -1  -5 1197.80 76.2112  10
   2  -1  -5 1176.95 85.9665   1
  -2  -1   5 1251.12 54.8423  15
  -2  -1   5 1156.97 45.5073   5
   2  -1  -5 1189.35 51.9965  14
   2  -1  -5 1188.57 73.5704  18
  -2  -1   5 1164.54 48.5157   9
   2  -1  -5 1180.21 48.9634  26
  -2  -1   5 1155.99 50.2442  23
  -2  -1   5 1142.68 74.8374  19
   2   1  -5 1238.91 49.9544  26
   2   1  -5 1228.18 53.1012  14
   2   1  -5 1075.84 76.5062  10
  -2   1   5 1238.78 53.7456  15
  -2   1   5 1223.96 51.1807   4
   2   1  -5 1011.55 80.8412  11
  -2   1   5 1273.18 49.1057  22
  -2   1   5 1199.46 72.5607  19
   2   1  -5 1230.40 50.0320   8
  -2   1   5 1209.69 45.5298   5
  -2   1   5 1178.65 65.4806   2
   2   1  -5 1116.19 87.0465   1
  -2   1   5 1178.31 49.6136  23
  -2   1   5 1266.96 48.1291   9
  -1  -1   5 4139.79 155.471  23
   1  -1  -5 4101.42 151.789  17
   1  -1  -5 4127.28 219.197   1
   1  -1  -5 3839.96 194.535  18
   1  -1  -5 3898.77 151.817   8
   1  -1  -5 4094.59 164.818  16
  -1  -1   5 3792.49 216.705   3
   1  -1  -5 3993.16 151.590  26
  -1  -1   5 4103.88 150.661   9
  -1  -1   5 4145.01 194.153  19
  -1  -1   5 4178.48 224.232  12
   1  -1  -5 4118.76 155.382   4
  -1  -1   5 4082.99 166.692  15
   1  -1  -5 3923.15 161.215  14
  -1   1   5 4183.94 192.523  19
   1   1  -5 4203.83 156.066   4
  -1   1   5 4323.04 166.968  15
  -1   1   5 4253.06 222.545   3
  -1   1   5 4090.10 154.662  23
  -1   1   5 4064.42 149.911   9
  -1   1   5 4043.71 222.687  12
  -1   1   5 4107.62 152.049   6
   1   1  -5 4181.58 220.451   1
   1   1  -5 4208.98 164.788  16
   1   1  -5 4164.75 151.809  17
   0  -1   5 455.743 24.8923  16
   0  -1   5 443.564 21.9240  17
   0  -1  -5 447.056 53.5487   1
   0  -1  -5 445.486 23.6846   4
   0  -1   5 453.105 59.8724   3
   0  -1   5 441.252 22.2889  23
   0  -1  -5 489.254 24.7811  16
   0  -1   5 407.163 39.8187  19
   0  -1   5 290.247 43.5915  12
   0  -1  -5 450.397 23.2288  17
   0  -1   5 452.862 25.1604   6
   0   1   5 428.446 49.3673  12
   0   1   5 509.448 62.0144   3
   0   1  -5 439.168 23.4584  17
   0   1   5 445.361 24.5550   6
   0   1  -5 393.430 23.6514   4
   0   1  -5 404.270 53.7799   1
   1  -1   5 854.256 40.9484  16
   1  -1   5 783.182 37.4409   6
  -1  -1  -5 831.581 39.1999   4
  -1  -1  -5 812.542 39.1383  16
   1  -1   5 805.800 36.6886  17
  -1   1  -5 825.021 40.3243   4
   1   1   5 849.360 40.0492  16
   1   1   5 812.262 36.8353  17
   1   1   5 868.572 37.5429   6
   2  -1   5 637.977 33.6834  17
   2  -1   5 678.168 36.7395  16
   2  -1   5 691.912 32.6709   6
  -2  -1  -5 710.335 36.8475   4
   2   1   5 683.337 34.4876  17
   2   1   5 673.609 36.2605  16
  -2   1  -5 676.254 28.4774  25
  -2   1  -5 701.996 34.5380   9
  -2   1  -5 641.643 37.7141   4
   2   1   5 717.250 32.8653   6
  -3  -1  -5 402.607 28.6880   4
   3  -1   5 418.348 22.9863   6
  -3   1  -5 375.072 19.5056  25
   3   1   5 404.311 22.5973   6
   4   1   5 424.617 20.5477   6
  -6  -2   5 221.128 19.2440   4
  -6  -2   5 196.862 18.3998  22
  -6   2   5 175.564 14.8335  22
  -5  -2   5 742.738 36.2693  22
  -5  -2   5 775.574 34.8684   5
  -5  -2   5 781.499 38.4823   4
   5  -2  -5 682.361 31.2402  26
   5   2  -5 665.789 35.1445  26
  -5   2   5 718.501 32.1151   5
   5   2  -5 719.618 35.7936   8
  -5   2   5 738.218 33.7706  22
  -5   2   5 660.903 36.4773  23
  -5   2   5 719.036 34.9787   4
  -4  -2   5 335.534 24.2640  23
  -4  -2   5 366.522 20.9288   5
  -4  -2   5 326.417 24.0628   4
   4  -2  -5 333.933 19.1909   8
  -4  -2   5 356.262 21.7805  22
   4  -2  -5 330.034 19.3696  26
   4  -2  -5 337.736 21.0536  14
  -4   2   5 308.345 20.6303   4
  -4   2   5 319.182 19.4749  22
  -4   2   5 319.377 18.4945   5
   4   2  -5 299.775 23.7955  14
   4   2  -5 343.783 23.5549   8
  -4   2   5 315.210 20.9370  23
   4   2  -5 350.610 23.3044  26
  -3  -2   5 1254.21 52.9791  22
   3  -2  -5 1284.16 54.9505  14
  -3  -2   5 1250.76 59.3854  15
   3  -2  -5 973.541 86.4259   1
   3  -2  -5 1309.90 51.8440  26
  -3  -2   5 1495.83 97.8215  19
  -3  -2   5 1260.27 56.3550   4
  -3  -2   5 1210.41 55.4724  23
   3  -2  -5 1313.40 51.8891   8
  -3  -2   5 1291.86 50.4206   5
  -3  -2   5 1188.00 84.1940  18
  -3   2   5 1275.21 49.5184   9
   3   2  -5 1353.53 54.7018  26
  -3   2   5 1292.66 54.2295   4
  -3   2   5 1314.57 52.8575  22
  -3   2   5 1289.48 54.0075  23
  -3   2   5 1300.69 49.3453   5
   3   2  -5 1314.16 56.9485  14
   3   2  -5 1321.99 54.7800   8
  -2  -2   5 1953.40 79.0540  23
   2  -2  -5 1982.58 118.637   1
   2  -2  -5 1956.61 106.378  18
  -2  -2   5 1901.81 79.3573   4
  -2  -2   5 2013.89 71.8438   5
   2  -2  -5 1985.81 75.6681  26
  -2  -2   5 1999.88 76.1835   9
   2  -2  -5 2031.00 75.9660   8
   2  -2  -5 1963.37 112.328  10
  -2  -2   5 1915.40 106.351  18
  -2  -2   5 1942.18 75.8566  22
  -2  -2   5 1899.05 84.5166  15
  -2  -2   5 2002.96 111.170  19
  -2  -2   5 1983.19 98.7140   2
   2  -2  -5 1953.87 80.6621  14
  -2   2   5 1774.68 126.769   3
  -2   2   5 2045.03 76.3589  22
   2   2  -5 1944.45 77.8101   8
  -2   2   5 1948.88 71.1332   5
   2   2  -5 1928.82 77.5134  26
  -2   2   5 1862.76 104.889  19
  -2   2   5 1999.64 82.7754  15
   2   2  -5 1947.34 81.8193  14
  -2   2   5 1936.33 96.2926   2
   2   2  -5 1859.22 123.986   1
  -2   2   5 2008.41 77.7221  23
  -2   2   5 2052.95 74.6952   9
  -2   2   5 1753.78 77.1302   6
  -1  -2   5 114.438 13.1936   9
   1  -2  -5 132.141 12.0663   8
   1  -2  -5 118.385 31.4463   1
  -1  -2   5 122.332 29.3505  19
   1  -2  -5 116.892 26.2209  18
   1  -2  -5 108.052 11.5178  17
   1  -2  -5 102.039 12.4778  14
  -1  -2   5 138.913 12.6837  23
   1  -2  -5 104.513 11.6563  16
  -1  -2   5 126.136 16.0522  15
   1  -2  -5 115.299 11.3421  26
   1  -2  -5 129.692 11.8868   4
  -1  -2   5 103.339 28.1292  12
  -1   2   5 89.6396 12.0582   6
  -1   2   5 110.524 23.7334  19
   1   2  -5 109.341 12.1172   4
  -1   2   5 103.412 10.6627  22
   1   2  -5 127.153 12.6390  16
  -1   2   5 136.070 41.1625   3
  -1   2   5 152.093 13.4748   9
   1   2  -5 108.566 11.4613  17
  -1   2   5 159.146 16.6805  15
  -1   2   5 107.873 10.1217  23
  -1   2   5 151.668 29.9544  12
   1   2  -5 74.0513 32.0222   1
   0  -2  -5 1893.73 78.9896  16
   0  -2   5 1896.45 73.9670  23
   0  -2   5 1770.89 100.773  19
   0  -2   5 1826.99 71.3909  17
   0  -2   5 1836.02 78.5224  16
   0  -2   5 1704.30 72.8718   6
   0  -2  -5 1865.43 72.6989  17
   0  -2  -5 1850.54 74.6943   4
   0  -2  -5 1789.30 117.849   1
   0   2  -5 1981.09 78.5181  16
   0   2   5 1920.81 120.245   3
   0   2  -5 1808.35 75.4644   4
   0   2  -5 1852.78 66.4581  25
   0   2  -5 1848.91 122.345   1
   0   2  -5 1882.82 73.1065  17
   0   2   5 1853.25 72.8545   6
  -1  -2  -5 494.320 24.8674  17
   1  -2   5 472.898 25.0078  17
  -1  -2  -5 472.978 26.9909  16
   1  -2   5 524.039 28.7519  16
  -1  -2  -5 478.500 26.0661   4
   1  -2   5 479.936 25.8862   6
   1   2   5 416.994 24.5692  17
  -1   2  -5 421.414 27.5929   4
   1   2   5 477.418 24.8931   6
  -1   2  -5 449.231 20.8642  25
   1   2   5 444.584 25.6624  16
  -2  -2  -5 361.137 25.4354   4
   2  -2   5 394.928 24.5460  17
   2  -2   5 367.480 26.7158  16
   2  -2   5 432.697 23.8870   6
   2   2   5 379.904 25.4230  17
  -2   2  -5 371.001 23.7804   9
  -2   2  -5 347.470 26.7909  15
   2   2   5 427.400 23.0208   6
  -2   2  -5 370.665 19.0189  25
   2   2   5 382.827 25.1736  16
  -3  -2  -5 823.534 41.6529   4
   3  -2   5 785.686 36.8184   6
  -3   2  -5 826.583 33.4842  25
   3   2   5 842.196 36.4358   6
   4  -2   5 87.3493 9.40129   6
  -6  -3   5 179.327 15.8792  22
  -6  -3   5 220.272 17.4985   4
  -5  -3   5 2447.60 90.5770   5
  -5  -3   5 2358.57 95.7053  22
  -5  -3   5 2483.69 97.5513   4
  -5   3   5 2328.34 92.8989  22
  -5   3   5 2352.91 97.6824  23
  -5   3   5 2390.35 88.0533   5
   4  -3  -5 613.177 27.8753   8
   4  -3  -5 598.723 30.7130  14
  -4  -3   5 616.277 29.9722   5
  -4  -3   5 614.993 33.7371   4
  -4  -3   5 540.145 32.4903  23
   4  -3  -5 584.637 27.6410  26
  -4  -3   5 575.652 31.2034  22
   4   3  -5 602.867 27.7143  25
  -4   3   5 615.727 27.4803   5
   4   3  -5 603.570 33.1070  26
   4   3  -5 586.569 35.8195  14
  -4   3   5 568.558 30.3497  23
  -4   3   5 562.670 29.3464   4
  -4   3   5 595.614 28.9266  22
   4   3  -5 623.710 33.4404   8
   3  -3  -5 3403.59 125.354   8
  -3  -3   5 3469.71 125.562   9
  -3  -3   5 3374.32 132.497  23
  -3  -3   5 3482.14 140.113  15
   3  -3  -5 3312.47 124.883  26
  -3  -3   5 3411.59 128.044  22
  -3  -3   5 3534.75 121.612   5
   3  -3  -5 3179.32 132.714  14
  -3  -3   5 3458.41 132.423   4
  -3   3   5 3392.46 130.017  23
  -3   3   5 3380.20 129.034   4
   3   3  -5 3203.24 128.730   8
   3   3  -5 3187.30 135.431  14
   3   3  -5 3347.84 118.467  25
  -3   3   5 3131.28 125.568   6
   3   3  -5 3272.00 128.387  26
  -3   3   5 3489.54 119.810   5
  -2  -3   5 332.237 21.4912   9
   2  -3  -5 362.231 18.6821   8
  -2  -3   5 336.746 21.6950  23
  -2  -3   5 309.486 47.5129  19
  -2  -3   5 304.002 25.1402  15
   2  -3  -5 361.075 36.6364   2
   2  -3  -5 323.171 18.3646  26
   2  -3  -5 380.128 44.5362   1
  -2  -3   5 355.049 22.2606   4
   2  -3  -5 352.887 21.8826  14
   2  -3  -5 299.748 38.9289  18
   2  -3  -5 307.101 18.4350   4
  -2  -3   5 336.626 37.4220   2
  -2  -3   5 338.170 17.8969   5
  -2   3   5 328.532 58.6690   3
  -2   3   5 348.443 22.7033  15
   2   3  -5 288.171 20.9671  26
   2   3  -5 309.558 21.2602   8
  -2   3   5 318.784 16.7737   5
  -2   3   5 341.273 39.0132  19
  -2   3   5 319.979 18.4737  23
   2   3  -5 333.905 50.2220   1
  -2   3   5 289.736 22.5123   6
  -2   3   5 328.050 18.4313  22
  -2   3   5 345.091 19.2615   9
   2   3  -5 313.436 17.0115  25
   2   3  -5 288.223 21.4318  16
   2   3  -5 179.214 35.9862  21
   2   3  -5 335.275 23.6102  14
   2   3  -5 345.654 21.6411  17
  -1  -3   5 154.133 34.6482  19
   1  -3  -5 170.919 13.0916   4
   1  -3  -5 194.025 37.2726   1
   1  -3  -5 143.741 15.1512  14
   1  -3  -5 164.017 14.4364  17
   1  -3  -5 161.645 13.8370   8
   1  -3  -5 147.686 13.5112  26
  -1  -3   5 160.048 14.9042  23
   1  -3  -5 152.186 14.8390  16
   1  -3  -5 135.440 28.1728  18
  -1   3   5 178.642 17.2928  15
   1   3  -5 147.417 30.1299  21
   1   3  -5 153.824 14.6656  16
  -1   3   5 164.821 12.2544  23
   1   3  -5 170.262 14.6908  17
  -1   3   5 185.012 15.4281   9
  -1   3   5 166.547 43.7265   3
   1   3  -5 113.702 34.2493   1
  -1   3   5 135.213 12.9184  22
   1   3  -5 137.811 11.0706  25
  -1   3   5 136.207 25.0882  19
  -1   3   5 131.528 13.6413   6
   1   3  -5 149.351 14.4202   4
   0  -3   5 1568.04 60.5087  17
   0  -3  -5 1617.19 63.4617   4
   0  -3   5 1277.45 89.7622  19
   0  -3   5 1564.91 63.1105  23
   0  -3   5 1546.85 62.0174   6
   0  -3  -5 1700.09 107.600   1
   0  -3   5 1540.43 66.6360  16
   0  -3  -5 1548.69 62.2312  17
   0   3  -5 1530.68 56.3486  25
   0   3   5 1448.33 61.3107   6
   0   3  -5 1534.47 62.6360  17
   0   3  -5 1514.49 65.6177  16
   0   3  -5 1439.40 63.8185   4
   1  -3   5 1548.16 64.2930  17
   1  -3   5 1604.38 71.6299  16
  -1  -3  -5 1633.33 67.3838   4
  -1  -3  -5 1514.62 63.0639  17
  -1  -3  -5 1623.22 69.9606  16
   1  -3   5 1552.75 65.8135   6
   1   3   5 1656.15 64.0943   6
  -1   3  -5 1648.85 59.2203  25
   2  -3   5 2604.08 101.502  17
   2  -3   5 2597.96 111.282  16
   2  -3   5 2716.45 101.722   6
  -2  -3  -5 2660.97 106.188   4
   2   3   5 2679.07 99.3924   6
  -2   3  -5 2497.38 111.331  15
  -2   3  -5 2678.13 93.5751  25
   2   3   5 2485.96 101.260  17
  -2   3  -5 2619.81 100.805   9
   2   3   5 2653.10 108.935  16
   3  -3   5 947.321 41.4537   6
  -3  -3  -5 956.649 45.1445   4
  -3   3  -5 940.757 37.5894  25
   3   3   5 926.980 39.9232   6
  -6  -4   5 177.570 14.7442   4
  -6  -4   5 155.793 13.7220  22
  -5  -4   5 566.143 29.2196   4
  -5  -4   5 534.882 27.6844   5
  -5  -4   5 514.573 29.0265  22
  -5   4   5 491.802 29.5050  23
  -5   4   5 483.649 24.7654   5
   5   4  -5 503.677 23.3161  25
  -5   4   5 492.282 26.2206  22
   4  -4  -5 1665.02 65.2268   8
  -4  -4   5 1718.93 71.0934   4
  -4  -4   5 1656.78 69.9495  22
  -4  -4   5 1629.09 70.1924  23
  -4  -4   5 1633.77 66.0401   5
   4  -4  -5 1678.60 65.1344  26
  -4  -4   5 1579.35 64.7988   9
  -4  -4   5 1654.88 71.1203  15
   4  -4  -5 1657.13 69.8501  14
   4   4  -5 1636.45 69.9123   8
   4   4  -5 1623.93 75.9823  14
  -4   4   5 1667.05 69.5175  23
  -4   4   5 1687.99 63.4734   5
  -4   4   5 1742.78 67.4668  22
   4   4  -5 1722.21 70.2161  26
   4   4  -5 1669.38 62.5034  25
  -3  -4   5 584.439 30.4309  22
  -3  -4   5 586.338 35.8615  15
   3  -4  -5 574.626 30.8255  14
  -3  -4   5 542.848 29.0442   5
  -3  -4   5 580.677 31.8596   4
  -3  -4   5 556.447 31.1088   9
   3  -4  -5 551.258 27.1661   8
  -3  -4   5 537.421 32.0635  23
   3  -4  -5 550.815 27.1703  26
   3   4  -5 572.614 31.7191  26
  -3   4   5 587.652 30.7923   6
   3   4  -5 593.506 35.6995  14
  -3   4   5 620.123 26.5838   5
   3   4  -5 613.358 27.1200  25
   3   4  -5 578.051 32.0620   8
  -3   4   5 618.507 28.5664  22
   2  -4  -5 912.476 38.4084  26
  -2  -4   5 884.095 42.6842  23
  -2  -4   5 883.105 41.4204   9
  -2  -4   5 934.468 37.7674   5
  -2  -4   5 935.992 42.4887   4
   2  -4  -5 876.163 38.5356   4
   2  -4  -5 873.774 38.1798   8
   2  -4  -5 885.417 42.8051  14
  -2  -4   5 929.697 48.5632  15
   2   4  -5 866.619 36.2127  25
   2   4  -5 868.219 43.0865  16
   2   4  -5 862.637 41.1825  17
  -2   4   5 837.597 43.0648  15
  -2   4   5 902.707 39.0578  22
  -2   4   5 863.900 38.8021  23
  -2   4   5 861.062 35.6356   5
  -2   4   5 875.176 41.6543   6
   1  -4  -5 47.6548 9.19779  26
  -1  -4   5 53.6199 11.4422  23
   1  -4  -5 44.6524 29.9434   1
  -1  -4   5 44.9597 7.80290   5
   1  -4  -5 27.5534 27.7517  18
   1  -4  -5 60.6687 8.70469   4
   1  -4  -5 37.7402 10.7030  17
   1  -4  -5 53.4630 11.1704  16
   1  -4  -5 46.1360 9.00302   8
   1  -4  -5 45.1367 12.3826  14
  -1   4   5 47.3060 7.85232  23
   1   4  -5 54.4552 12.2231  17
   1   4  -5 28.6550 8.68413   4
  -1   4   5 5.46991 21.6651  19
  -1   4   5 41.4286 8.57184  22
  -1   4   5 40.4738 11.7792  15
   1   4  -5 39.5586 9.41450  16
   1   4  -5 8.54346 37.3462   1
   1   4  -5 45.3487 29.6875  21
   1   4  -5 40.2217 7.21447  25
  -1   4   5 49.4740 10.1324   6
  -1   4   5 48.4048 10.4036   9
   0  -4  -5 1335.62 56.3107   4
   0  -4   5 1311.60 54.1926  17
   0  -4   5 1331.92 59.5901  16
   0  -4   5 1383.46 57.5116  23
   0  -4  -5 1297.63 55.9717  17
   0  -4  -5 1322.51 60.7973  16
   0   4  -5 1324.46 57.8161  16
   0   4  -5 1405.33 51.1790  25
   0   4   5 1354.38 55.1104   6
   0   4  -5 1303.78 54.6442  17
   1  -4   5 1171.02 59.2512  16
  -1  -4  -5 1217.40 57.8469  16
  -1  -4  -5 1237.14 51.8166  17
  -1  -4  -5 1357.16 56.0697   4
   1  -4   5 1243.94 53.3642  17
   1  -4   5 1205.77 53.8343   6
   1   4   5 1358.27 52.9226   6
  -1   4  -5 1321.95 48.8193  25
  -2  -4  -5 648.450 34.3574   4
   2  -4   5 658.301 33.0117   6
   2  -4   5 596.946 36.9086  16
   2   4   5 613.816 31.1302  17
   2   4   5 676.648 30.8202   6
  -2   4  -5 644.852 27.8559  25
   2   4   5 610.805 31.0935  16
   3  -4   5 368.068 22.5223   6
  -3  -4  -5 367.725 24.6905   4
   3   4   5 371.651 20.6296   6
  -3   4  -5 382.676 19.3892  25
  -5  -5   5 217.615 18.6270  22
  -5  -5   5 207.906 17.2955   4
  -5  -5   5 233.050 17.9021   5
  -5   5   5 214.529 19.8311  23
  -5   5   5 202.436 15.5913   5
  -5   5   5 197.727 16.0301  22
   5   5  -5 214.246 13.3668  25
   4  -5  -5 13.2215 8.74464  26
   4  -5  -5 1.86537 11.5772  14
  -4  -5   5 6.43282 11.4451  15
  -4  -5   5 3.13389 9.60752   5
  -4  -5   5 24.6159 10.9916   4
  -4  -5   5 -1.7392 10.3536  22
   4  -5  -5 11.1774 8.71767   8
  -4  -5   5 3.24404 10.1761   9
   4   5  -5 3.73514 10.1939   8
   4   5  -5 3.39546 10.3928  26
  -4   5   5 0.85270 7.17386   5
  -4   5   5 15.5155 10.1952   6
  -4   5   5 3.36867 7.68943  22
   4   5  -5 4.88394 15.7188  14
   4   5  -5 4.38448 6.90033  25
  -4   5   5 15.4372 9.86274  23
   3  -5  -5 430.655 22.9930   8
  -3  -5   5 424.399 26.0404  23
  -3  -5   5 375.546 26.8261   9
  -3  -5   5 403.330 30.1077  15
  -3  -5   5 432.876 26.1775   4
  -3  -5   5 414.355 24.6636   5
   3  -5  -5 393.273 22.6831  26
  -3  -5   5 410.531 25.5129  22
   3  -5  -5 381.258 26.7717  14
   3   5  -5 362.805 26.8798   8
  -3   5   5 406.685 22.6484  22
   3   5  -5 354.837 26.5449  26
  -3   5   5 447.678 21.6986   5
  -3   5   5 410.451 25.8264   6
   3   5  -5 434.834 21.5266  25
  -3   5   5 428.896 23.2695  23
   3   5  -5 331.137 31.6451  14
  -2  -5   5 726.772 36.5022  23
  -2  -5   5 707.377 32.5217   5
   2  -5  -5 663.348 32.5284  26
   2  -5  -5 721.206 33.0073   8
   2  -5  -5 669.243 37.6040  14
  -2  -5   5 704.723 42.3801  15
  -2  -5   5 662.896 37.1453   9
  -2   5   5 686.040 36.2014  15
   2   5  -5 718.058 36.6216  16
  -2   5   5 663.126 33.5087   9
  -2   5   5 706.323 33.1154  22
  -2   5   5 680.917 32.7041  23
  -2   5   5 716.032 35.0975   6
   2   5  -5 673.050 36.6772  17
  -2   5   5 723.396 30.5549   5
   2   5  -5 739.751 30.6246  25
   1  -5  -5 2875.82 129.064  14
   1  -5  -5 3091.95 119.912   8
  -1  -5   5 3208.01 113.236   5
   1  -5  -5 3087.83 120.773   4
   1  -5  -5 3104.12 119.714  26
   1  -5  -5 3104.77 121.055  17
  -1   5   5 3085.16 119.251   9
  -1   5   5 3248.88 118.673   6
   1   5  -5 3238.10 129.018  16
   1   5  -5 3262.57 111.929  25
  -1   5   5 3281.11 121.013  22
  -1   5   5 3018.50 130.712  15
   1   5  -5 3192.48 120.573  17
   0  -5  -5 149.719 15.4831  17
   0  -5   5 172.438 15.8637  16
   0  -5  -5 119.273 12.7498   4
   0  -5  -5 149.826 16.1345  22
   0  -5   5 131.177 12.6767  17
   0  -5  -5 155.009 17.6693  16
   0  -5   5 161.785 16.9306  23
   0   5  -5 145.083 12.3942  25
   1  -5   5 423.462 24.4834   6
   1  -5   5 401.957 24.8655  23
   1  -5   5 394.897 25.2413  17
  -1  -5  -5 440.204 25.2633   4
  -1  -5  -5 415.038 22.7933  17
   1  -5   5 425.372 29.3713  16
  -1  -5  -5 416.039 27.2351  16
  -1   5  -5 416.852 21.4993  25
   1   5   5 416.021 23.1906   6
  -2  -5  -5 278.263 22.3108   4
   2  -5   5 278.037 20.7949   6
   2   5   5 266.444 18.7016   6
  -2   5  -5 274.691 16.8770  25
  -3  -5  -5 194.063 17.3732   4
   3  -5   5 191.122 16.7171   6
  -3   5  -5 178.479 14.0288  25
  -5  -6   5 85.9124 11.1190  22
  -5  -6   5 83.1272 10.0689   4
  -5  -6   5 77.9126 9.75687   5
  -5   6   5 51.8579 8.43088  22
   5   6  -5 57.8093 7.07025  25
  -5   6   5 49.9408 9.15580   5
  -5   6   5 61.6660 12.0129  23
  -4  -6   5 2847.32 110.668  22
  -4  -6   5 2954.24 104.710   5
  -4  -6   5 2895.15 111.289   4
   4   6  -5 2856.97 100.448  25
  -4   6   5 2779.05 107.364   6
  -4   6   5 2726.79 109.063  22
  -4   6   5 2817.51 103.313   5
  -4   6   5 2791.66 112.611  23
  -3  -6   5 726.526 37.6220   9
  -3  -6   5 658.795 39.8684  15
  -3  -6   5 691.419 34.2764  23
  -3  -6   5 666.944 34.5780  22
  -3  -6   5 730.749 33.4635   5
   3  -6  -5 739.022 33.4845   8
   3  -6  -5 569.875 37.7370  14
   3  -6  -5 670.625 32.9898  26
   3   6  -5 716.714 29.7539  25
   3   6  -5 689.847 36.4898  16
  -3   6   5 680.517 31.0288   5
  -3   6   5 695.621 33.2295  22
   3   6  -5 629.069 36.2182  17
  -3   6   5 693.638 34.2469  23
  -3   6   5 697.749 34.2623   6
   2  -6  -5 536.688 36.3707  14
  -2  -6   5 603.139 32.3411  23
  -2  -6   5 585.211 40.7084  15
   2  -6  -5 594.722 30.8717   8
  -2  -6   5 585.973 30.2505   5
  -2  -6   5 557.721 36.5454   9
   2  -6  -5 620.276 31.1335  26
   2   6  -5 633.833 33.3523  16
  -2   6   5 610.867 30.3074   9
   2   6  -5 615.460 33.2911  17
  -2   6   5 620.133 30.5141  23
  -2   6   5 647.208 30.9184  22
  -2   6   5 584.418 33.1125  15
  -2   6   5 628.176 30.9536   6
  -2   6   5 625.438 28.2587   5
   2   6  -5 630.454 27.5535  25
  -1  -6   5 104.243 14.5211  23
  -1  -6   5 83.9154 12.1381   5
   1  -6  -5 82.5993 14.4375  17
   1  -6  -5 118.644 16.4082  16
   1   6  -5 124.507 13.0524  16
  -1   6   5 121.982 13.3777   6
   1   6  -5 166.931 14.9309  17
  -1   6   5 110.407 15.4054   9
  -1   6   5 117.220 17.2777  15
   1   6  -5 154.709 13.0275  25
  -1   6   5 109.201 12.4843  22
   0  -6  -5 345.918 24.3479  22
   0  -6  -5 317.246 21.5761   4
   0  -6   5 341.519 21.6341  16
   0  -6  -5 375.849 24.9125  17
   0  -6   5 333.900 20.0220  17
   0  -6   5 331.874 23.3817  23
   0  -6  -5 315.727 27.3806  16
   0   6  -5 318.416 18.7918  25
   0   6   5 327.162 20.4965   6
   1  -6   5 1968.56 80.6114  23
   1  -6   5 1978.37 86.3891  16
  -1  -6  -5 1858.46 80.5264   4
   1  -6   5 1891.17 78.3530  17
   1   6   5 2018.33 76.3036   6
  -1   6  -5 2089.21 73.3808  25
  -2  -6  -5 1260.15 54.0735   4
   2  -6   5 1200.45 50.6685   6
  -2   6  -5 1215.10 47.4577  25
   2   6   5 1189.10 48.7746   6
  -3  -6  -5 539.140 27.3740   4
   3  -6   5 546.324 25.8258   6
  -3   6  -5 547.365 24.2950  25
  -5  -7   5 496.378 24.1065  22
  -5  -7   5 498.773 22.1223   5
   5   7  -5 477.553 20.5773  25
  -5   7   5 506.119 26.7926  23
  -5   7   5 486.928 23.6242   5
  -4  -7   5 440.430 23.6040   5
  -4  -7   5 457.451 25.0516  22
  -4   7   5 461.507 25.4030   6
  -4   7   5 507.944 24.3693   5
  -4   7   5 477.937 26.5830  23
   4   7  -5 462.416 21.0794  25
  -4   7   5 404.930 24.2116  22
   3  -7  -5 1118.65 49.5297  26
   3  -7  -5 1157.69 49.7458   8
  -3  -7   5 1012.61 51.0502   9
  -3  -7   5 1062.99 48.4471  23
  -3  -7   5 1032.45 48.6043  22
   3   7  -5 1185.74 43.9790  25
  -3   7   5 1198.96 46.5936   5
   3   7  -5 1106.74 51.8818  16
  -3   7   5 1181.28 48.4518   6
  -3   7   5 1160.64 49.2396  22
  -3   7   5 1105.38 49.8730  23
  -2  -7   5 485.144 26.7047  23
   2  -7  -5 435.218 27.1597   8
   2  -7  -5 436.860 27.1981  26
  -2  -7   5 484.919 25.9304   5
   2  -7  -5 462.678 33.0833  14
  -2   7   5 446.730 29.0778  15
  -2   7   5 495.234 26.8660  22
  -2   7   5 496.989 26.6179  23
  -2   7   5 525.080 25.1615   5
  -2   7   5 510.718 25.8698   6
   2   7  -5 480.151 27.0036  16
  -2   7   5 491.547 24.9578   9
   2   7  -5 464.806 27.0567  17
   2   7  -5 487.264 23.2674  25
   1  -7  -5 657.559 39.3267  16
   1  -7  -5 730.604 35.2110  22
   1  -7  -5 684.055 35.4680  17
  -1  -7   5 715.954 32.1577   5
  -1  -7   5 710.278 34.0367  23
  -1   7   5 591.917 39.2818  15
  -1   7   5 642.159 34.3562   9
   1   7  -5 702.161 29.9262  25
   1   7  -5 576.324 30.3400  16
  -1   7   5 636.677 31.3889   6
   0  -7  -5 304.615 28.3261  16
   0  -7   5 303.913 22.4897  23
   0  -7  -5 299.444 23.2391  17
   0  -7  -5 315.929 24.8205  22
   0   7   5 349.763 20.2040   6
   0   7  -5 328.388 18.9330  25
   1  -7   5 519.939 30.2536  23
  -1   7  -5 591.004 26.8480  25
   1   7   5 606.992 28.1552   6
   2  -7   5 427.119 23.2025   6
  -2  -7  -5 474.167 25.8444   4
  -2   7  -5 479.249 22.3714  25
   4  -8  -5 33.8072 11.2463  22
  -4  -8   5 23.7891 7.93258  22
  -4  -8   5 35.6244 7.70046   5
   4   8  -5 25.4556 6.00078  25
  -4   8   5 25.4002 8.36946   5
  -4   8   5 27.0825 9.96793  23
  -4   8   5 32.3532 8.42932   6
  -3  -8   5 376.235 20.9484   5
  -3  -8   5 349.568 20.9568  23
   3   8  -5 378.753 18.7222  25
  -3   8   5 385.633 21.1376   6
  -3   8   5 385.428 23.5441  23
  -3   8   5 412.388 22.2586   5
  -2  -8   5 1502.61 63.4223  23
  -2  -8   5 1560.63 59.9558   5
   2  -8  -5 1502.87 64.8823  22
  -2   8   5 1488.93 64.1119  23
  -2   8   5 1524.24 60.0434   5
   2   8  -5 1499.36 57.0145  25
  -2   8   5 1613.38 61.1474   6
  -1  -8   5 258.271 18.6314  23
  -1  -8   5 245.580 18.5288   5
   1  -8  -5 255.267 21.5273  22
   1   8  -5 273.337 15.9844  25
  -1   8   5 281.043 17.5562   6
   0  -8  -5 1257.93 57.4235  22
   0  -8   5 1348.33 56.9330  23
   0   8  -5 1337.00 50.6481  25
   0   8   5 1317.45 52.7765   6
   1  -8   5 25.5415 10.1236  23
  -1   8  -5 50.8044 7.99006   7
   1   8   5 19.3669 7.20161   6
  -1   8  -5 21.3961 7.26759  25
  -2   8  -5 2.07897 5.44460   7
  -2   8  -5 6.76097 6.19278  25
  -4  -9   5 220.393 13.2235   5
  -4   9   5 252.051 14.3815   6
  -4   9   5 213.577 16.1617  23
  -4   9   5 228.177 15.0312   5
   4   9  -5 232.588 11.8359  25
   3  -9  -5 1030.98 45.9753  22
  -3  -9   5 950.037 39.7426   5
   3   9  -5 1002.13 38.1778  25
  -3   9   5 1015.88 41.2063   6
  -3   9   5 993.484 44.5627  23
  -3   9   5 1038.43 41.8599   5
  -2  -9   5 156.124 13.5115  23
  -2  -9   5 152.793 12.6420   5
   2  -9  -5 127.986 15.1161  22
   2   9  -5 157.354 11.5255  25
  -2   9   5 147.813 12.6879   6
  -2   9   5 193.012 16.3427  23
  -2   9   5 144.903 13.4922   5
  -1  -9   5 540.800 25.6408   5
   1  -9  -5 526.877 30.4058  22
  -1  -9   5 541.290 27.1137  23
  -1   9   5 555.429 25.4458   6
   1   9  -5 520.886 23.8451  25
   0  -9  -5 400.495 24.0807  22
   0  -9   5 399.705 22.5508  23
   0   9   5 404.330 20.5888   6
   0   9  -5 407.736 19.8974  25
   0   9  -5 439.470 19.9256   7
   1  -9   5 262.981 16.6882  23
  -1   9  -5 275.986 14.1069  25
  -1   9  -5 186.087 13.1365   7
   3 -10  -5 204.657 17.6052  22
  -3 -10   5 207.385 12.1450   5
   3  10  -5 191.686 10.5806  25
  -3  10   5 200.901 12.1959   6
  -3  10   5 154.428 14.2803  23
   2 -10  -5 415.324 21.4635   5
   2 -10  -5 405.006 24.0399  22
  -2 -10   5 401.417 18.8647   5
  -2 -10   5 345.728 19.0451  23
  -2  10   5 409.714 18.9395   6
   2  10  -5 376.296 17.4164  25
  -1 -10   5 95.0737 9.81625  23
   1 -10  -5 82.3203 11.1104  22
   1  10  -5 78.0670 7.37355  25
  -1  10   5 86.8422 8.22194   6
   0  10   5 96.5844 8.14033   6
  -5   0   6 381.384 21.7519   5
  -5   0   6 372.658 22.8442  22
  -5   0   6 374.559 25.6015  23
  -5   0   6 372.270 25.3398   4
  -4   0   6 2.54406 7.76377  22
   4   0  -6 4.50409 10.0091  26
   4   0  -6 2.34414 9.82477   8
   4   0  -6 6.76411 11.7863  14
  -4   0   6 1.83755 11.0904  23
  -4   0   6 2.95778 6.85926   5
  -4   0   6 4.20154 9.69783   4
  -3   0   6 1678.85 68.4837  22
   3   0  -6 1767.93 69.7230  26
  -3   0   6 1699.34 64.3480   5
   3   0  -6 1704.68 74.0041  14
  -3   0   6 1676.43 66.2931   9
  -3   0   6 1738.43 71.0948  23
   3   0  -6 1684.39 69.5216   8
  -3   0   6 1684.37 71.5853   4
   2   0  -6 415.068 23.7752   4
  -2   0   6 414.188 22.8340  23
   2   0  -6 383.090 26.8430  14
  -2   0   6 429.786 20.5735   5
   2   0  -6 379.892 23.5870   8
  -2   0   6 387.164 27.7185  15
  -2   0   6 427.821 23.7765  22
   2   0  -6 411.268 23.8632  26
  -2   0   6 429.432 23.8560   9
  -1   0   6 1653.44 68.4329  23
   1   0  -6 1764.08 70.9687   4
   1   0  -6 1785.24 74.5941  16
  -1   0   6 1686.43 77.0452  15
   1   0  -6 1734.56 68.6215  17
  -1   0   6 1676.44 68.9276   9
  -1   0   6 1597.18 69.5289   6
   0   0  -6 1890.16 80.5756  16
   0   0  -6 1802.66 74.3662  17
   0   0  -6 1947.68 77.9055   4
   0   0   6 1844.58 75.9639   6
   1   0   6 61.1609 12.2055   6
  -1   0  -6 52.7626 12.7847   4
  -2   0  -6 251.481 21.9012   4
   2   0   6 247.158 19.1167   6
   3   0   6 290.319 17.1266   6
  -6  -1   6 409.990 23.7088   4
  -6  -1   6 396.273 22.6754  22
  -6   1   6 415.896 22.3155  22
  -5  -1   6 1405.71 60.4815  23
  -5  -1   6 1410.43 55.1641   5
  -5  -1   6 1400.05 60.9921   4
  -5  -1   6 1369.78 58.0966  22
  -5   1   6 1365.43 59.1161   4
  -5   1   6 1405.18 54.6465   5
  -5   1   6 1345.33 57.2033  22
  -5   1   6 1332.80 60.7708  23
  -4  -1   6 421.847 22.6670   5
  -4  -1   6 432.309 27.3063  23
   4  -1  -6 444.568 24.9870  26
  -4  -1   6 431.300 24.1659  22
  -4  -1   6 456.162 26.8853   4
   4  -1  -6 403.293 24.6484   8
   4  -1  -6 405.488 27.6685  14
   4   1  -6 405.679 28.1296  14
  -4   1   6 408.333 21.6119   5
  -4   1   6 402.798 25.3635   4
   4   1  -6 433.773 26.1378  26
   4   1  -6 389.118 25.6234   8
  -4   1   6 417.965 23.6353  22
  -4   1   6 459.121 26.0917  23
  -3  -1   6 1580.06 66.9018  23
  -3  -1   6 1586.33 62.2832   9
  -3  -1   6 1573.29 71.3004  15
  -3  -1   6 1596.76 60.1693   5
   3  -1  -6 1553.48 63.9499  26
  -3  -1   6 1569.30 63.8536  22
   3  -1  -6 1511.45 68.3682  14
   3  -1  -6 1570.26 64.1337   8
  -3   1   6 1596.47 65.4950  23
  -3   1   6 1595.14 63.8403  22
  -3   1   6 1577.87 59.5850   5
   3   1  -6 1551.73 69.2061  14
  -3   1   6 1515.59 68.2534  15
  -3   1   6 1650.83 61.6888   9
   3   1  -6 1542.83 65.2130   8
   3   1  -6 1528.37 65.1389  26
  -2  -1   6 984.225 43.1413  23
   2  -1  -6 1007.15 43.2066   4
  -2  -1   6 949.407 42.7462   9
   2  -1  -6 928.723 46.1324  14
  -2  -1   6 958.210 38.4351   5
   2  -1  -6 938.036 42.2789  26
  -2  -1   6 967.398 48.5478  15
   2  -1  -6 902.469 42.1341   8
  -2   1   6 959.930 41.6447   9
  -2   1   6 985.692 38.4252   5
  -2   1   6 966.108 47.0547  15
  -2   1   6 986.304 41.7858  22
   2   1  -6 930.981 47.1007  14
  -2   1   6 984.041 42.3374  23
   2   1  -6 915.351 43.4816   8
   2   1  -6 947.430 43.7681   4
   2   1  -6 911.457 46.0752  16
   2   1  -6 924.801 43.5759  26
   1  -1  -6 720.002 37.0399  16
  -1  -1   6 728.016 36.2888   9
   1  -1  -6 796.609 35.6264   4
   1  -1  -6 727.645 34.5060  17
  -1  -1   6 734.192 41.3872  15
  -1  -1   6 753.066 34.0150  23
  -1   1   6 674.124 36.5841   6
  -1   1   6 727.272 35.1254   9
   1   1  -6 718.094 37.1847  16
   1   1  -6 707.941 34.8980  17
  -1   1   6 722.192 33.1339  23
  -1   1   6 687.071 39.4698  15
   1   1  -6 728.449 35.7732   4
   0  -1   6 1270.03 57.0458   6
   0  -1  -6 1288.01 55.7576  17
   0  -1  -6 1277.80 57.5291   4
   0   1  -6 1306.47 58.1972   4
   0   1  -6 1489.50 56.6312  17
   0   1  -6 1369.81 59.5728  16
   0   1   6 1322.29 57.0362   6
   1  -1   6 55.1511 11.5082   6
  -1  -1  -6 75.9197 13.2547   4
  -1   1  -6 51.9156 13.2230   4
   1   1   6 64.9054 11.8383   6
   2  -1   6 1900.56 75.7701   6
  -2  -1  -6 1948.76 80.9406   4
   2   1   6 1890.60 74.7411   6
  -2   1  -6 1920.67 80.9545   4
   3  -1   6 232.482 15.4494   6
   3   1   6 213.395 14.6037   6
  -6  -2   6 261.032 18.3553  22
  -6  -2   6 281.271 18.9445   4
  -5  -2   6 828.924 42.0630  22
  -5  -2   6 914.419 40.3723   5
  -5  -2   6 988.325 45.3248   4
  -5   2   6 919.048 41.2096  22
  -5   2   6 981.447 44.9213  23
  -5   2   6 968.774 38.9547   5
   4  -2  -6 1550.34 61.3201  26
  -4  -2   6 1470.14 59.5972   5
  -4  -2   6 1595.03 67.1932  23
  -4  -2   6 1562.47 63.5816  22
  -4  -2   6 1509.02 66.3395   4
   4  -2  -6 1491.12 61.2697   8
   4   2  -6 1471.61 64.1858  26
  -4   2   6 1557.04 64.7603  23
   4   2  -6 1455.80 64.2474   8
  -4   2   6 1479.42 61.9486  22
   3  -2  -6 327.896 19.6421   4
  -3  -2   6 320.300 18.5470   5
   3  -2  -6 326.716 20.3223   8
  -3  -2   6 362.109 23.8718   4
  -3  -2   6 354.564 20.7597  22
  -3  -2   6 287.711 21.0598   9
   3  -2  -6 340.097 20.4572  26
  -3  -2   6 332.223 22.3468  23
  -3  -2   6 309.091 27.2743  15
   3  -2  -6 304.186 23.1310  14
  -3   2   6 300.830 19.4734  22
   3   2  -6 268.672 22.8352   8
   3   2  -6 270.528 23.1030  26
  -3   2   6 288.585 19.8206  23
  -3   2   6 313.393 17.7420   5
   3   2  -6 279.239 24.4692  14
  -2  -2   6 360.081 24.4875   9
   2  -2  -6 375.971 22.4547  26
  -2  -2   6 370.167 28.7501  15
   2  -2  -6 342.084 25.1010  14
   2  -2  -6 356.449 22.1073   8
   2  -2  -6 399.711 21.9883   4
  -2  -2   6 368.603 19.5128   5
  -2  -2   6 376.826 23.2239  23
  -2   2   6 378.484 22.1398  22
   2   2  -6 405.075 24.2522   4
  -2   2   6 368.372 25.9413   6
  -2   2   6 392.016 21.2580  23
  -2   2   6 394.344 22.6753   9
  -2   2   6 377.944 26.0953  15
   2   2  -6 383.792 23.9721  17
   2   2  -6 358.180 24.6161  16
  -2   2   6 390.609 19.7821   5
  -1  -2   6 208.075 16.5589  23
   1  -2  -6 197.057 18.3087  16
   1  -2  -6 179.939 16.4815  17
   1  -2  -6 198.779 16.6522   4
   1   2  -6 239.457 18.5686  17
  -1   2   6 224.532 15.2356  23
   1   2  -6 228.718 19.2100  16
  -1   2   6 210.683 20.7646  15
   1   2  -6 175.762 17.5077   4
  -1   2   6 204.002 18.4670   6
  -1   2   6 214.466 18.8136   9
   0  -2   6 870.468 41.1989   6
   0  -2   6 871.052 39.1815  23
   0  -2  -6 904.578 43.9871  16
   0  -2  -6 905.124 40.4416  17
   0   2  -6 942.779 41.3815  17
   0   2  -6 805.663 41.7381   4
   0   2  -6 856.092 41.4778  16
   0   2   6 877.955 40.8246   6
  -1  -2  -6 1567.74 66.6964   4
   1  -2   6 1502.24 64.3662   6
  -1   2  -6 1519.55 67.3793   4
   1   2   6 1584.37 63.1804   6
   2  -2   6 258.991 20.3854   6
  -2  -2  -6 287.346 23.1615   4
   2   2   6 277.323 18.7293   6
  -3  -2  -6 403.076 23.1227   4
   3  -2   6 358.902 20.6069   6
   3   2   6 389.816 19.6785   6
  -5  -3   6 358.233 21.7047   5
  -5  -3   6 385.707 24.3400   4
  -5  -3   6 363.930 23.3657  22
  -5   3   6 333.983 19.4945   5
  -5   3   6 385.338 25.3217  23
  -5   3   6 344.136 21.0235  22
  -4  -3   6 138.975 13.6590   5
   4  -3  -6 100.741 13.3055  26
   4  -3  -6 116.400 12.3272   4
  -4  -3   6 148.226 16.5395   4
   4  -3  -6 100.531 12.8867   8
  -4  -3   6 123.108 13.8743  22
  -4  -3   6 149.808 17.5301  23
   4   3  -6 45.2189 14.0858  26
  -4   3   6 110.030 12.2262  22
   4   3  -6 58.0273 14.2669   8
  -4   3   6 89.0051 9.86591   5
  -4   3   6 126.239 14.6787  23
   3  -3  -6 263.360 17.5277   4
  -3  -3   6 254.475 25.7499  15
   3  -3  -6 267.551 18.3375   8
  -3  -3   6 274.806 19.1756  22
  -3  -3   6 268.202 17.6249   5
   3  -3  -6 233.281 21.6963  14
  -3  -3   6 286.855 21.5324   4
  -3  -3   6 238.885 20.9053  23
  -3  -3   6 256.599 21.2147   9
   3  -3  -6 253.996 18.3018  26
   3   3  -6 198.305 20.2013   8
   3   3  -6 183.371 19.2117  26
  -3   3   6 263.300 17.7333  22
   3   3  -6 178.935 21.6522  14
  -3   3   6 272.592 17.8385  23
  -3   3   6 238.653 15.6809   5
  -2  -3   6 3385.80 120.024   5
  -2  -3   6 3431.79 128.200   9
   2  -3  -6 3272.03 127.257   8
   2  -3  -6 3247.25 126.907  26
  -2  -3   6 3323.20 141.733  15
   2  -3  -6 3391.14 129.510   4
   2  -3  -6 3123.72 135.649  14
  -2  -3   6 3460.18 132.462  23
   2   3  -6 3317.74 128.556  17
  -2   3   6 3384.70 138.133  15
  -2   3   6 3213.34 128.015   6
   2   3  -6 3392.06 131.077   4
  -2   3   6 3433.16 127.833  22
  -2   3   6 3404.86 125.264   9
  -2   3   6 3422.36 119.362   5
  -2   3   6 3463.56 129.763  23
   2   3  -6 3317.60 138.906  16
   1  -3  -6 1945.75 85.7283  16
   1  -3  -6 1942.02 79.2611  17
   1  -3  -6 2039.17 80.2257   4
  -1  -3   6 2041.24 81.3284  23
   1   3  -6 1911.34 81.0013   4
  -1   3   6 1912.68 87.6848  15
   1   3  -6 1940.62 80.0491  17
  -1   3   6 2014.74 79.1045   9
   1   3  -6 2020.82 85.6894  16
  -1   3   6 2011.37 80.0152   6
   0  -3  -6 1072.51 50.3255  16
   0  -3  -6 1022.21 45.9618  17
   0  -3  -6 1040.05 46.6818   4
   0  -3   6 1042.91 45.6480  23
   0   3  -6 1017.19 40.5509  25
   0   3   6 1060.03 46.2504   6
   0   3  -6 1007.77 47.8153   4
  -1  -3  -6 80.1285 12.4087   4
   1  -3   6 94.7800 13.1404   6
  -1   3  -6 86.0795 9.29956  25
   1   3   6 78.4782 11.0264   6
   2  -3   6 90.9266 12.4429   6
  -2  -3  -6 110.862 14.2188   4
  -2   3  -6 99.8227 9.53091  25
   2   3   6 106.505 11.8061   6
  -5  -4   6 478.234 25.8085   4
  -5  -4   6 448.409 25.8275  22
  -5  -4   6 440.572 23.5086   5
  -5   4   6 438.311 22.3540   5
  -5   4   6 475.425 27.2210  23
  -5   4   6 435.922 23.3721  22
  -4  -4   6 1076.98 47.3594   4
  -4  -4   6 1058.38 46.6395  23
  -4  -4   6 1005.99 46.1053  22
  -4  -4   6 1004.73 43.4087   5
  -4   4   6 1028.35 45.8683  23
  -4   4   6 954.979 43.8340  22
  -4   4   6 987.041 41.2044   5
  -3  -4   6 493.189 34.4712  15
  -3  -4   6 556.580 31.2005   4
   3  -4  -6 515.666 27.6531  26
  -3  -4   6 484.610 30.3125   9
   3  -4  -6 450.940 30.4454  14
  -3  -4   6 523.420 30.0937  23
  -3  -4   6 484.253 28.7807  22
  -3  -4   6 538.741 27.6675   5
   3  -4  -6 520.736 27.9156   8
  -3   4   6 585.024 28.2059  23
  -3   4   6 579.060 27.9369  22
   3   4  -6 571.273 25.9049  25
  -3   4   6 569.552 25.4764   5
  -3   4   6 586.861 30.1036   6
   2  -4  -6 488.066 31.0419  14
  -2  -4   6 490.750 31.4010   9
  -2  -4   6 498.225 37.1308  15
   2  -4  -6 469.668 26.9991   8
   2  -4  -6 525.365 26.7685   4
   2  -4  -6 503.075 27.3643  26
  -2  -4   6 514.569 25.6544   5
  -2  -4   6 545.113 30.2028  23
   2   4  -6 501.250 31.4385  17
  -2   4   6 519.857 24.4665   5
   2   4  -6 512.136 30.4676  16
  -2   4   6 580.663 27.6251  22
  -2   4   6 509.203 26.4280  23
   2   4  -6 502.177 27.6751   4
  -2   4   6 558.926 30.9045   6
  -2   4   6 497.461 31.1500  15
   2   4  -6 568.740 24.8846  25
   1  -4  -6 885.146 39.8888   4
  -1  -4   6 880.581 41.9108  23
   1  -4  -6 833.495 41.3417  17
   1   4  -6 856.757 40.6749   4
  -1   4   6 892.800 40.6271   6
   1   4  -6 830.756 42.0941  16
  -1   4   6 864.062 41.2108   9
  -1   4   6 903.375 47.9249  15
  -1   4   6 870.369 40.5975  22
   1   4  -6 861.104 35.4669  25
   1   4  -6 842.124 40.9460  17
   0  -4  -6 703.971 34.9350   4
   0  -4  -6 719.984 38.9491  16
   0  -4  -6 663.063 34.6635  17
   0  -4   6 701.395 34.7830  23
   0   4   6 769.062 34.7508   6
   0   4  -6 710.151 30.1233  25
   1  -4   6 738.062 35.8603   6
  -1  -4  -6 806.605 38.4153   4
  -1   4  -6 709.500 31.3830  25
   1   4   6 799.263 35.4759   6
   2  -4   6 130.966 13.6341   6
  -2  -4  -6 96.7945 13.5162   4
  -2   4  -6 116.249 10.0073  25
   2   4   6 160.443 13.1369   6
  -5  -5   6 849.736 35.2641   5
  -5  -5   6 880.089 37.9748  22
  -5  -5   6 864.685 37.8447   4
  -5   5   6 806.005 36.7498  22
  -5   5   6 901.134 40.2532  23
  -5   5   6 846.008 35.3565   5
  -4  -5   6 135.891 13.2917   5
  -4  -5   6 167.082 14.9095   4
  -4  -5   6 124.090 13.1273  23
  -4  -5   6 133.827 13.8788  22
  -4   5   6 148.637 14.6676  23
   4   5  -6 125.461 10.6105  25
  -4   5   6 139.676 12.8361  22
  -4   5   6 100.751 10.6826   5
  -3  -5   6 1771.96 73.5154  23
   3  -5  -6 1840.16 72.9073   8
   3  -5  -6 1877.50 73.0024  26
  -3  -5   6 1772.31 73.2012   4
  -3  -5   6 1684.39 68.3131   5
  -3   5   6 1794.21 71.5161  22
  -3   5   6 1738.47 66.5834   5
  -3   5   6 1639.75 70.7766   6
  -3   5   6 1788.46 72.3475  23
   3   5  -6 1685.62 64.9488  25
  -2  -5   6 250.510 21.4752  23
  -2  -5   6 172.563 14.8275   5
  -2  -5   6 77.4215 19.7148  15
  -2   5   6 168.086 17.5642  15
   2   5  -6 155.862 16.5929  16
  -2   5   6 151.456 15.8347   9
   2   5  -6 176.286 14.0543  25
  -2   5   6 180.833 16.0736  22
   2   5  -6 188.311 18.0389  17
  -2   5   6 187.504 17.5763   6
  -2   5   6 182.626 14.9229  23
  -2   5   6 191.822 14.5391   5
   1  -5  -6 109.555 12.4531   4
  -1  -5   6 160.837 17.7785  23
   1  -5  -6 130.481 16.9919  16
   1  -5  -6 121.821 14.9892  17
  -1   5   6 116.206 16.2849   9
   1   5  -6 141.408 12.6431  25
   1   5  -6 104.821 13.0812  17
  -1   5   6 160.035 15.4341   6
   1   5  -6 119.814 13.3216  16
  -1   5   6 134.920 19.6595  15
   0  -5   6 1287.75 55.9160  23
   0  -5  -6 1245.25 55.2691   4
   0  -5  -6 1232.15 60.6619  16
   0   5  -6 1285.92 49.4299  25
   0   5   6 1332.96 53.1884   6
  -1  -5  -6 114.719 13.7117   4
   1   5   6 145.780 13.2176   6
  -1   5  -6 123.619 11.2501  25
  -2  -5  -6 1220.40 51.1266   4
   2  -5   6 1071.67 47.3200   6
   2   5   6 1229.71 46.7919   6
  -2   5  -6 1182.97 44.6141  25
  -5  -6   6 306.396 17.1906   5
  -5   6   6 293.796 17.6349   5
  -5   6   6 332.594 21.5342  23
  -4  -6   6 194.792 15.1321   5
  -4  -6   6 162.101 15.4384  22
   4   6  -6 154.382 11.5218  25
  -4   6   6 166.255 15.9481  23
  -4   6   6 176.805 14.3848   5
  -4   6   6 169.857 15.0230  22
  -3  -6   6 937.332 42.6010  23
  -3  -6   6 915.762 40.4895   5
  -3   6   6 945.416 42.8850  23
  -3   6   6 990.674 42.9958   6
  -3   6   6 938.598 39.3014   5
   3   6  -6 934.563 37.5877  25
  -2  -6   6 708.632 34.6934  23
  -2  -6   6 613.572 30.9182   5
   2   6  -6 688.601 29.4394  25
  -2   6   6 706.319 33.0122   6
  -2   6   6 640.958 30.0068   5
  -2   6   6 666.149 32.9046  22
  -2   6   6 636.580 32.3833  23
  -1  -6   6 1797.07 74.7185  23
   1  -6  -6 1749.87 73.4246  22
  -1   6   6 1758.75 70.3655   6
   1   6  -6 1771.66 65.9687  25
   0  -6   6 819.318 40.1115  23
   0  -6  -6 810.615 39.2274   4
   0   6  -6 857.558 35.0137  25
   0   6   6 869.483 37.6166   6
  -1  -6  -6 302.355 21.0756   4
  -1   6  -6 286.314 16.8713  25
   1   6   6 277.945 17.8233   6
  -2  -6  -6 138.289 13.4266   4
  -2   6  -6 152.830 11.7622  25
  -4  -7   6 2.72966 6.79124  22
  -4  -7   6 32.9904 7.04164   5
  -4   7   6 34.9189 7.81104  22
   4   7  -6 32.8860 5.38441  25
  -4   7   6 2.58255 7.66919   6
  -4   7   6 28.5550 9.19473  23
  -4   7   6 30.2097 7.61626   5
  -3  -7   6 377.627 20.7588   5
  -3  -7   6 357.421 20.3225  23
  -3   7   6 344.217 21.1158  22
   3   7  -6 365.072 17.8770  25
  -3   7   6 357.776 20.7335   5
  -3   7   6 359.832 21.1180   6
  -3   7   6 357.123 21.7808  23
   2  -7  -6 917.289 42.0444  22
  -2  -7   6 846.509 40.1184  23
  -2  -7   6 829.518 37.3389   5
  -2   7   6 902.826 37.7540   5
  -2   7   6 907.263 40.3113  23
   2   7  -6 862.794 35.5293  25
  -2   7   6 911.359 38.7463   6
   1  -7  -6 695.898 36.1397  22
   1   7  -6 711.281 30.1617  25
  -1   7   6 719.812 32.1826   6
   0  -7   6 319.926 21.8264  23
   0   7   6 328.391 19.3212   6
   0   7  -6 357.143 18.5062  25
   1   7   6 66.6803 8.35327   6
  -1   7  -6 63.7107 8.23272  25
   3  -8  -6 17.8321 9.73150  22
  -3  -8   6 1.70650 5.79951  23
  -3  -8   6 7.44105 6.81217   5
  -3   8   6 8.61516 7.46490   5
  -3   8   6 6.45972 8.36131  23
  -3   8   6 9.47768 6.49940   6
   3   8  -6 1.90622 5.07961  25
  -2  -8   6 281.471 17.2327   5
   2  -8  -6 308.595 21.5868  22
  -2  -8   6 309.609 18.1967  23
   2   8  -6 302.018 15.7740  25
  -2   8   6 303.880 17.3668   6
  -2   8   6 245.555 18.0757   5
  -1  -8   6 164.340 14.8199  23
   1  -8  -6 245.360 19.2845  22
   1   8  -6 181.880 12.7430  25
  -1   8   6 184.227 13.6371   6
   0  -8   6 149.718 14.5249  23
   0   8   6 168.565 12.2255   6
   0   8  -6 159.058 11.7925  25
   2  -9  -6 685.015 32.7306  22
  -2  -9   6 661.600 29.3997  23
  -2   9   6 704.727 28.2797   6
   2   9  -6 654.046 26.4001  25
   1  -9  -6 513.346 26.0405  22
  -1  -9   6 483.156 23.7961  23
   1   9  -6 517.332 21.3516  25
  -1   9   6 526.700 22.6730   6
  -5   0   7 1576.97 58.7339   5
  -5   0   7 1498.45 63.9146  23
   5   0  -7 1479.20 62.1127   4
  -5   0   7 1575.89 62.3943  22
  -4   0   7 1160.51 49.5601  22
   4   0  -7 1163.42 50.7755   4
  -4   0   7 1184.23 52.3018  23
  -4   0   7 1132.30 46.3897   5
   3   0  -7 367.566 23.6707   4
  -3   0   7 375.075 22.6198  22
  -3   0   7 376.745 20.2271   5
  -3   0   7 387.797 23.2510  23
   2   0  -7 219.741 18.9760   4
  -2   0   7 242.730 17.4820  23
   1   0  -7 19.2710 9.90082   4
  -1   0   7 17.2550 8.39593  23
  -1   0   7 3.35120 11.6395   9
   0   0   7 1228.11 54.3885   6
   0   0  -7 1305.97 56.1451   4
   1   0   7 1200.08 51.2162   6
  -1   0  -7 1232.66 54.5059   4
  -5  -1   7 198.515 15.3746   5
   5  -1  -7 193.847 14.5957   4
  -5  -1   7 197.327 16.8120  22
  -5   1   7 225.990 18.1464  23
  -5   1   7 219.275 14.6154   5
  -4  -1   7 701.257 34.1585  22
  -4  -1   7 706.062 36.2942  23
   4  -1  -7 704.012 33.8888   4
  -4  -1   7 694.180 31.7609   5
  -4   1   7 711.264 33.7041  22
  -4   1   7 743.581 31.5983   5
  -4   1   7 752.642 35.7920  23
   3  -1  -7 458.296 25.0825   4
  -3  -1   7 421.960 25.5414  23
  -3  -1   7 419.364 21.8662   5
  -3   1   7 428.189 21.9117   5
   3   1  -7 449.724 26.1016   4
  -3   1   7 429.119 24.7533  23
  -3   1   7 411.236 24.1329  22
  -2  -1   7 2623.78 101.795  23
  -2   1   7 2489.60 100.565  23
   2   1  -7 2570.37 102.629   4
   1  -1  -7 112.561 13.6955   4
  -1  -1   7 97.6114 11.6653  23
  -1   1   7 101.719 13.7525   6
   1   1  -7 97.4764 13.1507   4
   0  -1   7 750.799 36.9254   6
   0  -1  -7 796.766 38.1384   4
   0   1   7 765.896 37.9551   6
   0   1  -7 757.373 38.1705   4
   1  -1   7 370.781 23.5135   6
  -1  -1  -7 369.223 24.5249   4
  -1   1  -7 367.536 24.4462   4
   1   1   7 374.546 22.6946   6
  -5  -2   7 195.142 14.8065   5
  -5  -2   7 199.794 16.2509  22
  -5   2   7 167.645 14.4440  22
  -5   2   7 198.960 17.8593  23
  -5   2   7 191.832 13.4972   5
  -4  -2   7 262.476 17.9917   5
   4  -2  -7 238.994 17.5868   4
  -4  -2   7 253.574 19.4908  22
  -4  -2   7 240.699 19.8422  23
  -4   2   7 268.984 18.3394  22
  -4   2   7 257.545 19.0766  23
  -4   2   7 245.331 15.9118   5
  -3  -2   7 748.160 33.4030   5
   3  -2  -7 780.399 36.0884   4
  -3  -2   7 723.911 37.5586  23
  -3   2   7 797.538 36.1376  23
  -3   2   7 741.953 35.3674  22
   3   2  -7 820.168 37.9352   4
  -3   2   7 758.869 32.3940   5
   2  -2  -7 189.088 17.5170   4
  -2  -2   7 207.611 17.9210  23
   2   2  -7 193.247 17.9042   4
  -2   2   7 181.371 15.4596  23
  -1  -2   7 1320.80 56.1173  23
   1  -2  -7 1439.64 58.3991   4
  -1   2   7 1272.00 56.6590   6
   1   2  -7 1326.84 58.4712   4
   0  -2  -7 623.249 32.3214   4
   0   2   7 633.177 32.2460   6
   0   2  -7 596.691 32.5048   4
  -1  -2  -7 117.181 13.9836   4
   1  -2   7 115.722 12.6002   6
   1   2   7 122.017 12.5607   6
  -5  -3   7 499.040 23.5230   5
  -5   3   7 522.957 23.6281   5
  -5   3   7 489.251 24.6738  22
  -4  -3   7 2331.50 88.0165   5
  -4  -3   7 2449.28 95.2288  23
   4  -3  -7 2276.32 92.4811   4
  -4  -3   7 2406.32 93.0176  22
  -4   3   7 2365.10 94.6889  23
  -4   3   7 2448.46 92.5947  22
  -4   3   7 2426.61 86.7606   5
  -3  -3   7 688.388 31.4939   5
   3  -3  -7 727.114 33.5364   4
  -3  -3   7 724.928 35.6496  23
  -3   3   7 695.736 32.9643  23
  -3   3   7 711.737 33.2321  22
   3   3  -7 667.940 34.1288   4
  -3   3   7 680.653 30.0326   5
   2  -3  -7 88.9644 11.4343   4
  -2  -3   7 133.510 15.0677  23
   2   3  -7 92.2537 12.4494   4
  -2   3   7 71.9756 12.6836   6
  -2   3   7 102.305 11.4457  23
  -1  -3   7 284.654 20.1864  23
   1  -3  -7 279.943 20.1168   4
   1   3  -7 276.120 20.6454   4
  -1   3   7 287.750 21.8465   6
   0  -3  -7 789.396 37.7379   4
   0   3   7 763.067 36.0314   6
  -1  -3  -7 1281.55 55.7081   4
   1   3   7 1319.55 52.2803   6
  -4  -4   7 480.603 23.9179   5
  -4  -4   7 444.627 24.2630  23
  -4   4   7 485.705 22.4768   5
  -4   4   7 468.861 24.0555  22
   4   4  -7 445.309 23.3801   4
   3  -4  -7 506.094 26.8375   4
  -3  -4   7 549.032 28.4253  23
  -3  -4   7 500.056 25.8853   5
  -3   4   7 552.131 24.7088   5
  -3   4   7 516.434 26.4256  23
   3   4  -7 528.563 27.2089   4
  -3   4   7 522.554 26.9365  22
  -2  -4   7 145.572 15.8802  23
   2  -4  -7 152.180 13.8406   4
   2   4  -7 142.631 13.9507   4
  -2   4   7 138.623 14.6494   6
  -2   4   7 131.832 13.5781  22
  -2   4   7 146.635 13.3100  23
   1  -4  -7 771.854 36.6152   4
  -1  -4   7 795.630 37.4968  23
  -1   4   7 790.373 37.1376   6
   0  -4  -7 396.833 24.4053   4
   0   4   7 436.428 23.4661   6
  -1  -4  -7 775.748 36.2475   4
   1   4   7 771.884 32.9386   6
  -4  -5   7 187.415 13.9897   5
  -4   5   7 186.043 14.8085  23
  -4   5   7 180.819 13.0960   5
  -4   5   7 165.656 13.9851  22
  -3  -5   7 375.401 22.0120  23
  -3  -5   7 374.307 21.0344   5
  -3   5   7 389.539 21.8885  23
  -3   5   7 386.216 22.1536  22
  -3   5   7 404.800 20.1425   5
  -2  -5   7 1795.96 73.5462  23
  -2   5   7 1769.22 70.3734   6
  -1  -5   7 39.9977 10.4761  23
   1  -5  -7 36.4226 9.36097   4
  -1   5   7 29.2057 9.12052   6
   0  -5  -7 461.193 25.2141   4
   0   5   7 455.201 23.3252   6
  -3  -6   7 582.871 26.5321  23
  -3  -6   7 609.939 25.2917   5
  -3   6   7 580.504 27.0630  23
  -3   6   7 469.265 24.5002   5
  -2  -6   7 32.1121 8.58207  23
   2  -6  -7 35.8616 9.68173  22
   2   6  -7 32.6565 6.40457  25
  -2   6   7 29.7045 7.85094   6
  -1  -6   7 235.102 17.4332  23
  -1   6   7 236.415 15.7296   6
   1   6  -7 238.076 13.7013  25
  -2  -7   7 395.648 19.7253  23
  -2   7   7 363.947 18.9943   6
  -1  -7   7 103.194 10.5787  23
  -1   7   7 91.9054 8.50230   6
  -3   0   8 173.855 15.1452  23
   3   0  -8 198.693 16.1000   4
   2   0  -8 1053.67 45.8896   4
  -2   0   8 1036.43 44.0149  23
   1   0  -8 1443.43 60.0504   4
  -3  -1   8 351.848 21.2359  23
   3  -1  -8 368.140 21.0863   4
   3   1  -8 338.602 21.2842   4
  -3   1   8 360.644 20.0470  23
   2  -1  -8 441.554 23.3602   4
  -2  -1   8 409.469 21.2698  23
   2   1  -8 454.084 23.6640   4
  -2   1   8 306.794 19.4060  23
   1  -1  -8 376.774 22.3374   4
   1   1  -8 407.406 22.8162   4
  -3  -2   8 430.334 24.1460  23
   3  -2  -8 449.455 23.4236   4
   3   2  -8 477.461 24.4172   4
  -3   2   8 470.483 23.2524  23
  -2  -2   8 135.229 13.2054  23
   2  -2  -8 157.052 13.4338   4
   2   2  -8 148.978 13.4109   4
  -3  -3   8 972.163 42.1161  23
   2  -3  -8 1414.42 56.3673   4
  -2  -3   8 1351.93 56.9334  23
   0   0   0    0.00    0.00   0
;
_shelx_res_checksum              4432
_shelx_res_file
;
REM
REM      TWIN/BASF     0.02922     0.04186     0.000   BASF  1
REM   FLACK .028(41)  PARSONS' .041(13)
REM   FRIEDLF 311  C5 H14.7 BR2 N2 O0.35
REM   HOOFT 0.046(11)  G=0.9087(.0227) STUDENT t INCLWGHTPAR 710 PAIRS 95% COVE
REM
TITL rmpipbr in P2(1)
CELL  1.54178   6.0418  11.5649   7.1333   90.000  106.911   90.000
ZERR    2.00   0.0003   0.0005   0.0003   0.000   0.002   0.000
LATT -1
SYMM -X, 1/2+Y, -Z
SFAC C H N O BR
UNIT 10 29.42 4 0.7109 4
TEMP -163
HTAB
BOND $H
ACTA
SIZE .21 .11 .04
L.S. 4
FMAP 2
PLAN 5
WGHT    0.050000    0.024700
EXTI    0.015755
FVAR       1.02273   0.35012
BR1   5    0.282530    0.124962    0.116267    11.00000    0.01133    0.01920 =
         0.01346    0.00163    0.00437    0.00082
BR2   5    0.893648   -0.060547   -0.575352    11.00000    0.01817    0.03824 =
         0.01497   -0.00519    0.00713   -0.00846
O1W   4    0.834787    0.211874   -0.618613    21.00000    0.02695    0.02157 =
         0.04007    0.00664    0.01191   -0.00124
AFIX   3
H1W   2    0.850076    0.138924   -0.607213    21.00000    0.02919
H2W   2    0.906717    0.272485   -0.567073    21.00000    0.01564
AFIX   0
N1    3    0.733202    0.074793   -0.041649    11.00000    0.01027    0.01767 =
         0.01231   -0.00178    0.00468   -0.00055
AFIX  23
H1A   2    0.876341    0.086601    0.046653    11.00000   -1.20000
H1B   2    0.623385    0.086945    0.022544    11.00000   -1.20000
AFIX   0
C2    1    0.698035    0.160107   -0.205199    11.00000    0.01347    0.01655 =
         0.01597    0.00326    0.00743   -0.00110
AFIX  13
H2    2    0.821437    0.148888   -0.271345    11.00000   -1.20000
AFIX   0
C3    1    0.463313    0.138590   -0.352504    11.00000    0.01558    0.00741 =
         0.01133    0.00180    0.00175    0.00290
AFIX  23
H3A   2    0.339887    0.154466   -0.290204    11.00000   -1.20000
H3B   2    0.442007    0.192072   -0.464736    11.00000   -1.20000
AFIX   0
C5    1    0.483013   -0.067974   -0.259124    11.00000    0.02082    0.01230 =
         0.01677   -0.00209    0.00881   -0.00520
AFIX  23
H5A   2    0.476654   -0.148005   -0.309679    11.00000   -1.20000
H5B   2    0.359967   -0.059265   -0.193942    11.00000   -1.20000
AFIX   0
N4    3    0.442713    0.015616   -0.425368    11.00000    0.02113    0.01239 =
         0.00832   -0.00217    0.00338   -0.00122
AFIX  23
H4A   2    0.297472    0.003983   -0.510402    11.00000   -1.20000
H4B   2    0.549150    0.002750   -0.492737    11.00000   -1.20000
AFIX   0
C6    1    0.717221   -0.046307   -0.112189    11.00000    0.01615    0.01306 =
         0.00993    0.00417    0.00276   -0.00115
AFIX  23
H6A   2    0.739400   -0.099786    0.000144    11.00000   -1.20000
H6B   2    0.840995   -0.061365   -0.174458    11.00000   -1.20000
AFIX   0
C7    1    0.711842    0.282230   -0.127103    11.00000    0.02291    0.01642 =
         0.01907   -0.00717    0.00494   -0.00468
AFIX 137
H7A   2    0.711313    0.336901   -0.232199    11.00000   -1.50000
H7B   2    0.854781    0.291601   -0.019592    11.00000   -1.50000
H7C   2    0.578385    0.297361   -0.078889    11.00000   -1.50000
AFIX   0
HKLF 4
REM  rmpipbr in P2(1)
REM R1 =  0.0196 for    1517 Fo > 4sig(Fo)  and  0.0199 for all    1537 data
REM     96 parameters refined using      1 restraints
END
WGHT      0.0353      0.0100
REM Instructions for potential hydrogen bonds
HTAB O1W Br2
EQIV $1 -x+2, y+1/2, -z-1
HTAB O1W Br2_$1
EQIV $2 x+1, y, z
HTAB N1 Br1_$2
HTAB N1 Br1
HTAB C2 O1W
HTAB C3 Br1
EQIV $3 x, y, z-1
HTAB C3 Br1_$3
EQIV $4 -x+1, y-1/2, -z
HTAB C5 Br1_$4
EQIV $5 -x+1, y-1/2, -z-1
HTAB C5 O1W_$5
EQIV $6 x-1, y, z
HTAB N4 Br2_$6
HTAB N4 Br2
EQIV $7 x, y, z+1
HTAB C6 Br2_$7
HTAB C6 Br2
REM Highest difference peak  0.513,  deepest hole -0.644,  1-sigma level  0.185
Q1    1   0.6889 -0.0434  0.0944  11.00000  0.05    0.51
Q2    1   0.2883  0.1181 -0.5714  11.00000  0.05    0.50
Q3    1   1.1441  0.1646 -0.6659  11.00000  0.05    0.49
Q4    1   0.7708  0.0373 -0.3712  11.00000  0.05    0.48
Q5    1   0.5437 -0.0776  0.0181  11.00000  0.05    0.47
;
_shelxl_version_number           .002012
#END Tags that were not found in dictionaries
loop_
_space_group_symop_operation_xyz
'x, y, z'
'-x, y+1/2, -z'
loop_
_atom_site_type_symbol
_atom_site_label
_atom_site_fract_x
_atom_site_fract_y
_atom_site_fract_z
_atom_site_U_iso_or_equiv
_atom_site_adp_type
_atom_site_calc_flag
_atom_site_occupancy
Br Br1 0.28253(9) 0.12496(5) 0.11627(8) 0.0145(2) Uani d 1
Br Br2 0.89365(10) -0.06055(4) -0.57535(8) 0.0233(2) Uani d 1
O O1W 0.835(2) 0.2119(11) -0.619(2) 0.029(4) Uani d 0.350(12)
H H1W 0.8501 0.1389 -0.6072 0.03(5) Uiso d 0.350(12)
H H2W 0.9067 0.2725 -0.5671 0.02(7) Uiso d 0.350(12)
N N1 0.7332(7) 0.0748(4) -0.0416(7) 0.0131(9) Uani d 1
H H1A 0.8763 0.0866 0.0467 0.016 Uiso calc 1
H H1B 0.6234 0.0869 0.0225 0.016 Uiso calc 1
C C2 0.6980(9) 0.1601(4) -0.2052(8) 0.0147(12) Uani d 1
H H2 0.8214 0.1489 -0.2713 0.018 Uiso calc 1
C C3 0.4633(9) 0.1386(4) -0.3525(8) 0.0119(11) Uani d 1
H H3A 0.3399 0.1545 -0.2902 0.014 Uiso calc 1
H H3B 0.4420 0.1921 -0.4647 0.014 Uiso calc 1
C C5 0.4830(9) -0.0680(5) -0.2591(8) 0.0159(11) Uani d 1
H H5A 0.4767 -0.1480 -0.3097 0.019 Uiso calc 1
H H5B 0.3600 -0.0593 -0.1939 0.019 Uiso calc 1
N N4 0.4427(8) 0.0156(3) -0.4254(7) 0.0141(10) Uani d 1
H H4A 0.2975 0.0040 -0.5104 0.017 Uiso calc 1
H H4B 0.5491 0.0027 -0.4927 0.017 Uiso calc 1
C C6 0.7172(9) -0.0463(6) -0.1122(7) 0.0133(15) Uani d 1
H H6A 0.7394 -0.0998 0.0001 0.016 Uiso calc 1
H H6B 0.8410 -0.0614 -0.1745 0.016 Uiso calc 1
C C7 0.7118(12) 0.2822(6) -0.1271(10) 0.0197(17) Uani d 1
H H7A 0.7113 0.3369 -0.2322 0.030 Uiso calc 1
H H7B 0.8548 0.2916 -0.0196 0.030 Uiso calc 1
H H7C 0.5784 0.2974 -0.0789 0.030 Uiso calc 1
loop_
_atom_site_aniso_label
_atom_site_aniso_U_11
_atom_site_aniso_U_22
_atom_site_aniso_U_33
_atom_site_aniso_U_12
_atom_site_aniso_U_13
_atom_site_aniso_U_23
Br1 0.0113(3) 0.0192(3) 0.0135(3) 0.0008(2) 0.0044(2) 0.0016(2)
Br2 0.0182(4) 0.0382(4) 0.0150(4) -0.0085(2) 0.0071(2) -0.0052(2)
O1W 0.027(7) 0.022(7) 0.040(8) -0.001(5) 0.012(6) 0.007(6)
N1 0.010(2) 0.0177(19) 0.012(2) -0.0005(17) 0.0047(18) -0.0018(19)
C2 0.013(3) 0.017(3) 0.016(3) -0.0011(19) 0.007(2) 0.003(2)
C3 0.016(2) 0.007(2) 0.011(3) 0.003(2) 0.002(2) 0.002(2)
C5 0.021(3) 0.012(2) 0.017(3) -0.005(2) 0.009(2) -0.002(2)
N4 0.021(2) 0.012(2) 0.008(2) -0.0012(17) 0.0034(19) -0.0022(17)
C6 0.016(4) 0.013(3) 0.010(3) -0.001(2) 0.003(2) 0.004(2)
C7 0.023(4) 0.016(3) 0.019(4) -0.0047(19) 0.005(3) -0.007(2)
loop_
_atom_type_symbol
_atom_type_description
_atom_type_scat_dispersion_real
_atom_type_scat_dispersion_imag
_atom_type_scat_source
C C 0.0181 0.0091 'International Tables Vol C Tables 4.2.6.8 and 6.1.1.4'
H H 0.0000 0.0000 'International Tables Vol C Tables 4.2.6.8 and 6.1.1.4'
N N 0.0311 0.0180 'International Tables Vol C Tables 4.2.6.8 and 6.1.1.4'
O O 0.0492 0.0322 'International Tables Vol C Tables 4.2.6.8 and 6.1.1.4'
Br Br -0.6763 1.2805 'International Tables Vol C Tables 4.2.6.8 and 6.1.1.4'
loop_
_geom_angle_atom_site_label_1
_geom_angle_atom_site_label_2
_geom_angle_atom_site_label_3
_geom_angle
H1W O1W H2W 138.5
C6 N1 C2 112.2(4)
C6 N1 H1A 109.2
C2 N1 H1A 109.2
C6 N1 H1B 109.2
C2 N1 H1B 109.2
H1A N1 H1B 107.9
N1 C2 C7 110.4(5)
N1 C2 C3 108.9(4)
C7 C2 C3 110.4(5)
N1 C2 H2 109.0
C7 C2 H2 109.0
C3 C2 H2 109.0
N4 C3 C2 111.1(4)
N4 C3 H3A 109.4
C2 C3 H3A 109.4
N4 C3 H3B 109.4
C2 C3 H3B 109.4
H3A C3 H3B 108.0
N4 C5 C6 110.2(4)
N4 C5 H5A 109.6
C6 C5 H5A 109.6
N4 C5 H5B 109.6
C6 C5 H5B 109.6
H5A C5 H5B 108.1
C5 N4 C3 111.0(4)
C5 N4 H4A 109.4
C3 N4 H4A 109.4
C5 N4 H4B 109.4
C3 N4 H4B 109.4
H4A N4 H4B 108.0
N1 C6 C5 110.3(4)
N1 C6 H6A 109.6
C5 C6 H6A 109.6
N1 C6 H6B 109.6
C5 C6 H6B 109.6
H6A C6 H6B 108.1
C2 C7 H7A 109.5
C2 C7 H7B 109.5
H7A C7 H7B 109.5
C2 C7 H7C 109.5
H7A C7 H7C 109.5
H7B C7 H7C 109.5
loop_
_geom_bond_atom_site_label_1
_geom_bond_atom_site_label_2
_geom_bond_distance
O1W H1W 0.8500
O1W H2W 0.8500
N1 C6 1.482(8)
N1 C2 1.495(7)
N1 H1A 0.9200
N1 H1B 0.9200
C2 C7 1.512(9)
C2 C3 1.520(7)
C2 H2 1.0000
C3 N4 1.507(7)
C3 H3A 0.9900
C3 H3B 0.9900
C5 N4 1.494(7)
C5 C6 1.517(7)
C5 H5A 0.9900
C5 H5B 0.9900
N4 H4A 0.9200
N4 H4B 0.9200
C6 H6A 0.9900
C6 H6B 0.9900
C7 H7A 0.9800
C7 H7B 0.9800
C7 H7C 0.9800
