#------------------------------------------------------------------------------
#$Date: 2016-02-14 16:26:36 +0200 (Sun, 14 Feb 2016) $
#$Revision: 176435 $
#$URL: svn://www.crystallography.net/cod/cif/2/10/54/2105468.cif $
#------------------------------------------------------------------------------
#
# This file is available in the Crystallography Open Database (COD),
# http://www.crystallography.net/. The original data for this entry
# were provided by IUCr Journals, http://journals.iucr.org/.
#
# The file may be used within the scientific community so long as
# proper attribution is given to the journal article from which the
# data were obtained.
#
data_2105468
loop_
_publ_author_name
'Reibenspies, Joseph'
'Bhuvanesh, Nattamai'
_publ_section_title
;
 Absolute structure of <i>R</i>-({-})-2-methylpiperazine and
 <i>S</i>-(+)-2-methylpiperazine
;
_journal_coeditor_code           RY5050
_journal_issue                   3
_journal_name_full               'Acta Crystallographica Section B'
_journal_page_first              288
_journal_page_last               293
_journal_paper_doi               10.1107/S2052519213008713
_journal_volume                  69
_journal_year                    2013
_chemical_formula_moiety         '2(Br), 0.25(H2 O), C5 H14 N2'
_chemical_formula_sum            'C5 H14.5 Br2 N2 O0.25'
_chemical_formula_weight         266.51
_chemical_name_systematic
;
S-(+)-2-methylpiperazinediium dibromide
;
_space_group_crystal_system      monoclinic
_space_group_IT_number           4
_space_group_name_Hall           'P 2yb'
_space_group_name_H-M_alt        'P 1 21 1'
_symmetry_space_group_name_Hall  'P 2yb'
_symmetry_space_group_name_H-M   'P 1 21 1'
_atom_sites_solution_hydrogens   mixed
_audit_creation_method           SHELXL-2012
_cell_angle_alpha                90
_cell_angle_beta                 107.018(3)
_cell_angle_gamma                90
_cell_formula_units_Z            2
_cell_length_a                   6.0262(3)
_cell_length_b                   11.5550(6)
_cell_length_c                   7.1392(4)
_cell_measurement_reflns_used    7786
_cell_measurement_temperature    110(2)
_cell_measurement_theta_max      63.64
_cell_measurement_theta_min      3.83
_cell_volume                     475.35(4)
_computing_cell_refinement       'FRAMBO (Bruker, 2002)'
_computing_data_collection       'FRAMBO (Bruker, 2002)'
_computing_data_reduction        'SAINT (Bruker, 2012b)'
_computing_molecular_graphics    'OLEX-2 (Dolomanov, 2009)'
_computing_publication_material  'Ciftab (Sheldrick, 2008)'
_computing_structure_refinement  'SHELXL-2012 (Sheldrick, 2012)'
_computing_structure_solution    'SHELXS (Sheldrick 2008)'
_diffrn_ambient_temperature      110(2)
_diffrn_measured_fraction_theta_full 0.880
_diffrn_measured_fraction_theta_max 0.970
_diffrn_measurement_device       'three-circle diffractometer'
_diffrn_measurement_device_type  'MWPC area detector'
_diffrn_measurement_method       'phi and omega scans'
_diffrn_radiation_monochromator  graphite
_diffrn_radiation_type           CuK\a
_diffrn_radiation_wavelength     1.54178
_diffrn_reflns_av_R_equivalents  0.0383
_diffrn_reflns_limit_h_max       6
_diffrn_reflns_limit_h_min       -6
_diffrn_reflns_limit_k_max       13
_diffrn_reflns_limit_k_min       -13
_diffrn_reflns_limit_l_max       7
_diffrn_reflns_limit_l_min       -6
_diffrn_reflns_number            8987
_diffrn_reflns_theta_full        67.679
_diffrn_reflns_theta_max         63.680
_diffrn_reflns_theta_min         6.484
_exptl_absorpt_coefficient_mu    10.300
_exptl_absorpt_correction_T_max  0.7524
_exptl_absorpt_correction_T_min  0.3830
_exptl_absorpt_correction_type   multi-scan
_exptl_absorpt_process_details
;
SADABS-2009/1 (Bruker,2009) was employed for absorption correction.
wR2(int) was   0.0000 before and   0.0000 after correction.
The ratio of minimum to maximum transmission factors was  -1.#IND.
Additional spherical absorption correction applied with mu*r =  0.0000.
The \l/2 correction was not applied
;
_exptl_crystal_colour            'colorless '
_exptl_crystal_density_diffrn    1.862
_exptl_crystal_description       'plate     '
_exptl_crystal_F_000             261
_exptl_crystal_size_max          0.200
_exptl_crystal_size_mid          0.100
_exptl_crystal_size_min          0.010
_refine_diff_density_max         0.367
_refine_diff_density_min         -0.602
_refine_ls_abs_structure_details
;
 Flack x determined using 699 quotients [(I+)-(I-)]/[(I+)+(I-)]
 (Parsons and Flack (2004), Acta Cryst. A60, s61).
;
_refine_ls_abs_structure_Flack   0.038(13)
_refine_ls_extinction_method     none
_refine_ls_goodness_of_fit_ref   1.089
_refine_ls_hydrogen_treatment    constr
_refine_ls_matrix_type           full
_refine_ls_number_parameters     92
_refine_ls_number_reflns         1507
_refine_ls_number_restraints     1
_refine_ls_restrained_S_all      1.088
_refine_ls_R_factor_all          0.0186
_refine_ls_R_factor_gt           0.0185
_refine_ls_shift/su_max          0.000
_refine_ls_shift/su_mean         0.000
_refine_ls_structure_factor_coef Fsqd
_refine_ls_weighting_details
;
 w=1/[\s^2^(Fo^2^)+(0.0320P)^2^+0.1521P]
 where P=(Fo^2^+2Fc^2^)/3
;
_refine_ls_weighting_scheme      calc
_refine_ls_wR_factor_gt          0.0503
_refine_ls_wR_factor_ref         0.0504
_reflns_number_gt                1499
_reflns_number_total             1507
_reflns_threshold_expression     'I > 2\s(I)'
_cod_data_source_file            ry5050.cif
_cod_data_source_block           smpipbr
_cod_original_formula_sum        'C5 H14.50 Br2 N2 O0.25'
_cod_database_code               2105468
_cod_database_fobs_code          2105468
#BEGIN Tags that were not found in dictionaries:
_shelx_space_group_comment
;
The symmetry employed for this shelxl refinement is uniquely defined
by the following loop, which should always be used as a source of
symmetry information in preference to the above space-group names.
They are only intended as comments.
;
_shelx_estimated_absorpt_t_min   0.232
_shelx_estimated_absorpt_t_max   0.904
_shelx_hkl_checksum              28333
_shelx_hkl_file
;
   1   0   0 52.1715 3.70407   1
   1   0   0 54.5212 3.71635  10
   1   0   0 55.7137 3.69016  11
   1   0   0 54.5517 3.43073  12
   1   0   0 55.3652 3.50195  13
   1   0   0 56.5039 3.74730  20
   1   0   0 56.4619 3.53245  21
  -1   0   0 52.8718 3.65787  11
  -1   0   0 55.7115 3.41196  12
  -1   0   0 55.8220 3.56951  13
  -1   0   0 53.7424 3.52248  13
  -1   0   0 57.1624 4.19791  18
  -1   0   0 58.3192 3.56648  19
  -1   0   0 56.6674 3.82157   2
  -1   0   0 53.4447 3.81313   3
  -1   0   0 55.1999 3.69675  10
  -2   0   0 1676.05 91.1247  19
   2   0   0 1715.25 91.2375   1
   2   0   0 1615.50 90.3906   8
   2   0   0 1738.58 94.9945  10
   2   0   0 1753.70 95.1403  11
   2   0   0 1696.03 88.0988  12
  -2   0   0 1708.84 88.0001  12
  -2   0   0 1766.10 90.2213  13
  -2   0   0 1568.87 76.8386  16
  -2   0   0 1593.88 84.0582  17
  -2   0   0 1765.94 111.552  18
   2   0   0 1710.44 90.1316  13
   2   0   0 1632.78 91.7725  14
   2   0   0 1643.98 76.9566  16
   2   0   0 1624.27 84.0167  17
   2   0   0 1638.00 89.5717  21
  -2   0   0 1598.88 94.8931  11
  -2   0   0 1702.60 100.992   2
  -2   0   0 1726.59 96.8936   3
  -2   0   0 1633.97 94.8386  10
  -3   0   0 24.1370 3.43109  15
   3   0   0 22.8585 2.91682   8
   3   0   0 40.2362 5.63597  10
   3   0   0 36.4748 4.90281  12
   3   0   0 33.2667 4.62952  13
   3   0   0 25.4867 3.14803  14
   3   0   0 27.1530 2.57098  16
   3   0   0 29.0014 2.69449  17
   3   0   0 31.3230 4.65353  18
   3   0   0 30.4175 4.22301  21
  -3   0   0 26.8741 3.09047   9
  -3   0   0 37.3992 4.53690  12
  -3   0   0 35.1561 4.87928  13
  -3   0   0 33.9195 5.39756   3
  -3   0   0 33.6680 4.26606  19
  -3   0   0 27.1869 4.11900   2
  -3   0   0 30.1062 2.28546  16
  -3   0   0 36.7932 2.81309  17
   3   0   0 44.0393 5.60164   1
   4   0   0 35.2851 4.72895   4
  -4   0   0 27.3686 5.10512  19
   4   0   0 36.2680 8.22721   1
  -4   0   0 33.4244 5.69581  12
  -4   0   0 20.4750 6.43716  13
   4   0   0 28.1064 3.37545  16
  -4   0   0 30.2291 3.76257  23
   4   0   0 24.9102 3.03592  17
  -4   0   0 26.1355 4.47170   6
  -4   0   0 27.2022 8.35142   3
  -5   0   0 3320.20 169.349  23
   5   0   0 3443.42 154.949  16
  -5   0   0 3290.02 172.332   6
   5   0   0 3372.85 180.737   4
   6   0   0 365.497 23.9351   4
   1  -1   0 882.863 46.7590   1
   1  -1   0 932.398 46.3936  13
   1  -1   0 928.021 53.0355  20
   1  -1   0 932.822 48.9089  10
  -1  -1   0 903.924 48.8991  11
  -1  -1   0 909.430 49.9237   3
   1  -1   0 845.134 46.3240  21
  -1  -1   0 896.708 53.1964  20
  -1  -1   0 915.078 45.2793  12
   1  -1   0 853.685 48.9029  11
  -1  -1   0 879.489 48.7958  10
  -1  -1   0 861.981 46.3521  13
   1  -1   0 911.806 45.3093  12
  -1  -1   0 942.341 46.8113  19
  -1  -1   0 943.970 51.9348   2
  -1  -1   0 892.559 46.3647  13
  -1   1   0 819.846 57.3423  18
  -1   1   0 844.999 46.3948  13
   1   1   0 812.223 45.3025  12
   1   1   0 825.604 48.7879  10
  -1   1   0 827.018 48.7583  10
   1   1   0 807.414 45.9123  21
  -1   1   0 825.366 45.2600  12
  -1   1   0 767.150 46.9187  19
   1   1   0 819.938 46.3286  13
   1   1   0 802.033 57.4296  18
  -1   1   0 779.956 52.0142   2
  -1   1   0 796.956 49.5342   3
   1   1   0 856.823 48.8616  11
  -1   1   0 816.137 48.8005  11
   2  -1   0 3563.44 197.447  14
   2  -1   0 3833.36 188.945  12
   2  -1   0 3598.06 194.516   8
  -2  -1   0 3405.68 165.414  16
   2  -1   0 3460.23 165.507  16
  -2  -1   0 3642.78 207.593   3
   2  -1   0 3824.69 203.637  10
  -2  -1   0 3639.39 203.689  11
  -2  -1   0 3038.05 191.908  15
  -2  -1   0 3854.90 195.470  19
  -2  -1   0 3666.55 188.775  12
   2  -1   0 3689.78 192.431  21
   2  -1   0 3801.94 195.168   1
   2  -1   0 3548.23 180.798  17
   2  -1   0 3737.87 193.246  13
  -2  -1   0 3329.15 221.640  20
   2  -1   0 3488.82 203.790  11
  -2  -1   0 3430.94 216.768   2
  -2  -1   0 3505.24 180.834  17
  -2  -1   0 3541.21 203.416  10
   2  -1   0 3722.64 221.510  20
  -2  -1   0 3604.32 193.263  13
   2   1   0 3144.30 194.380   8
  -2   1   0 3602.34 195.584  19
   2   1   0 3630.81 192.034  21
  -2   1   0 3742.29 207.357   3
   2   1   0 3811.58 203.597  10
  -2   1   0 3572.85 203.408  10
  -2   1   0 3538.48 180.846  17
  -2   1   0 3827.33 239.557  18
   2   1   0 3566.42 180.815  17
  -2   1   0 3744.57 217.094   2
  -2   1   0 3470.23 165.429  16
   2   1   0 3675.45 193.240  13
   2   1   0 3686.92 195.276   1
   2   1   0 3803.26 203.788  11
   2   1   0 3768.01 188.937  12
  -2   1   0 3784.27 193.406  13
  -2   1   0 3649.24 203.653  11
   2   1   0 3607.39 165.556  16
  -2   1   0 3701.06 188.773  12
   2   1   0 3576.91 239.607  18
   2   1   0 3654.81 197.467  14
  -3  -1   0 1210.11 65.4518  12
  -3  -1   0 1152.47 56.6578  16
   3  -1   0 1152.28 70.7996  10
   3  -1   0 1186.42 65.6553  12
   3  -1   0 1204.52 56.8903  16
  -3  -1   0 1268.42 62.1584  17
   3  -1   0 1125.21 67.1043  13
   3  -1   0 1185.77 66.8354  21
   3  -1   0 1218.74 68.4536   1
   3  -1   0 1195.36 62.0239  17
  -3  -1   0 1233.08 72.7082   3
  -3  -1   0 1201.28 57.9184   9
  -3  -1   0 1218.85 67.7033  19
  -3  -1   0 1329.90 66.5977  15
  -3  -1   0 1179.71 67.1446  13
  -3   1   0 1384.28 66.8416  15
   3   1   0 1269.78 62.0887  17
   3   1   0 1187.23 67.1386  13
   3   1   0 1111.34 67.7903  14
  -3   1   0 1291.41 67.4332  13
   3   1   0 1188.49 82.8265  18
  -3   1   0 1224.84 56.6628  16
   3   1   0 1271.17 68.6678   1
   3   1   0 1142.72 66.7935   8
  -3   1   0 1216.52 62.0904  17
   3   1   0 1285.40 65.9670  12
  -3   1   0 1291.24 68.0444  19
  -3   1   0 1245.50 75.0761   2
   3   1   0 1249.93 56.9362  16
   3   1   0 1202.84 66.5034  21
  -3   1   0 1264.46 58.0989   9
  -3   1   0 1347.47 72.9525   3
  -3   1   0 1264.97 65.5288  12
   3   1   0 1258.00 70.9106  10
  -4  -1   0 333.925 18.5921   6
  -4  -1   0 359.135 20.5474  19
   4  -1   0 342.770 20.5743  21
   4  -1   0 356.915 17.5977  17
   4  -1   0 359.621 16.2850  16
   4  -1   0 354.738 19.7815   4
  -4  -1   0 341.288 19.6789  12
  -4  -1   0 337.904 20.9169  13
  -4  -1   0 339.519 24.0404   3
  -4  -1   0 340.511 17.5407  23
   4  -1   0 348.350 22.9988   1
  -4   1   0 293.751 17.4900  23
   4   1   0 286.488 19.3730   4
   4   1   0 310.476 22.4155   1
   4   1   0 300.396 16.1617  16
  -4   1   0 303.181 20.4089  19
   4   1   0 317.054 17.5094  17
  -4   1   0 296.819 19.5347  12
  -4   1   0 292.819 23.9728   3
  -4   1   0 272.804 18.5424   6
   5  -1   0 350.137 21.6853   4
   5  -1   0 338.785 17.2109  16
   5  -1   0 334.259 18.4284  17
  -5  -1   0 344.103 20.2956   6
  -5   1   0 326.881 18.2317  23
   5   1   0 345.136 21.1719   4
   5   1   0 323.977 17.0677  16
   5   1   0 297.526 18.4114  17
   6  -1   0 296.672 21.7799   4
  -6  -1   0 330.097 19.7436   6
   6   1   0 348.724 21.6030   4
   0  -2   0 2849.05 157.388  21
   0  -2   0 3074.83 158.522  13
   0  -2   0 2968.44 169.541   3
   0  -2   0 2987.58 166.949  10
   0  -2   0 2978.25 154.687  12
   0   2   0 2963.91 197.073  18
   0   2   0 2847.12 159.428   1
   0   2   0 3043.03 160.235  19
   0   2   0 2922.57 166.798  10
   0   2   0 3103.76 158.588  13
   0   2   0 2842.99 178.268   2
   1  -2   0 1814.31 99.6707  13
   1  -2   0 1759.32 104.996  10
   1  -2   0 1843.76 99.5779  21
   1  -2   0 1824.72 114.465  20
  -1  -2   0 1815.79 97.3580  12
  -1  -2   0 1817.78 107.155   3
  -1  -2   0 1743.80 105.014  10
  -1  -2   0 1792.80 114.932  20
  -1  -2   0 1833.49 99.6736  13
  -1  -2   0 1792.29 105.136  11
  -1  -2   0 1833.89 100.627  19
   1  -2   0 1864.67 100.391   1
   1  -2   0 1836.11 97.4207  12
   1   2   0 1866.27 111.905   2
  -1   2   0 1874.81 106.635   3
  -1   2   0 1947.80 97.5226  12
   1   2   0 1886.18 97.5262  12
   1   2   0 1901.58 105.131  11
  -1   2   0 1917.99 99.7604  13
  -1   2   0 1965.67 105.103  11
   1   2   0 1854.75 104.965  10
  -1   2   0 2052.47 101.282  19
  -1   2   0 1944.73 112.280   2
   1   2   0 1929.13 100.826   1
  -1   2   0 1788.33 123.647  18
  -1   2   0 1905.39 104.983  10
   1   2   0 1936.47 98.8677  21
   1   2   0 1906.47 124.035  18
   1   2   0 1722.84 99.6943  13
   2  -2   0 2829.49 138.542  21
  -2  -2   0 2763.56 155.506   2
   2  -2   0 2517.10 139.412   8
   2  -2   0 2689.92 140.053   1
  -2  -2   0 2601.99 138.686  13
   2  -2   0 2502.49 141.479  14
   2  -2   0 2639.93 146.168  10
  -2  -2   0 2529.96 118.525  16
  -2  -2   0 2712.96 129.639  17
   2  -2   0 2573.79 118.606  16
   2  -2   0 2649.56 129.547  17
  -2  -2   0 2516.68 146.021  10
  -2  -2   0 2395.40 120.165   9
  -2  -2   0 2454.93 137.627  15
   2  -2   0 2665.18 138.662  13
  -2  -2   0 2659.43 140.021  19
   2  -2   0 2673.98 135.574  12
  -2  -2   0 2657.38 135.418  12
  -2  -2   0 2562.88 149.150   3
  -2  -2   0 2577.00 159.506  20
   2  -2   0 2526.48 158.738  20
  -2  -2   0 2565.05 146.205  11
  -2   2   0 2636.56 171.772  18
   2   2   0 2549.24 138.697  13
  -2   2   0 2546.54 118.501  16
  -2   2   0 2699.23 148.729   3
  -2   2   0 2549.45 155.791   2
   2   2   0 2549.93 140.296   1
  -2   2   0 2494.96 145.957  10
   2   2   0 2498.52 137.519  21
   2   2   0 2616.92 146.235  11
   2   2   0 2502.46 118.655  16
   2   2   0 2498.94 129.559  17
   2   2   0 2641.78 172.186  18
  -2   2   0 2573.88 129.592  17
  -2   2   0 2583.31 146.158  11
   2   2   0 2679.48 135.701  12
  -2   2   0 2529.23 135.410  12
   2   2   0 2429.46 139.297   8
   2   2   0 2547.57 141.514  14
   2   2   0 2634.72 146.068  10
  -3  -2   0 1433.29 83.3734   3
  -3  -2   0 1373.33 65.0815  16
   3  -2   0 1439.04 65.3055  16
   3  -2   0 1422.79 78.4533   1
   3  -2   0 1448.12 71.2477  17
  -3  -2   0 1348.16 77.3546  19
   3  -2   0 1407.04 76.8736  21
  -3  -2   0 1425.23 77.0876  13
   3  -2   0 1374.14 75.2697  12
  -3  -2   0 1497.61 71.4005  17
   3  -2   0 1417.21 76.9810  13
  -3  -2   0 1441.75 75.0657  12
   3   2   0 1405.52 71.2640  17
   3   2   0 1311.43 76.9519  13
  -3   2   0 1344.13 86.1273   2
  -3   2   0 1412.99 71.2706  17
  -3   2   0 1397.92 75.0495  12
  -3   2   0 1360.23 83.1568   3
  -3   2   0 1468.00 65.1212  16
   3   2   0 1464.58 65.4273  16
  -3   2   0 1413.67 78.0760  19
   3   2   0 1445.08 78.6860   1
   3   2   0 1400.44 95.4637  18
   3   2   0 1386.18 75.4600  12
  -4  -2   0 1681.46 102.242   3
  -4  -2   0 1764.61 91.4858  12
  -4  -2   0 1652.30 93.9492  13
   4  -2   0 1745.41 86.4826  17
   4  -2   0 1713.81 93.7593  21
   4  -2   0 1664.03 96.4643   1
  -4  -2   0 1590.55 88.0058   6
   4  -2   0 1604.97 92.5335   4
   4  -2   0 1720.98 79.3333  16
  -4   2   0 1716.34 94.0563  13
   4   2   0 1829.25 86.6219  17
   4   2   0 1660.14 96.3039   1
   4   2   0 1792.48 79.4778  16
   4   2   0 1669.06 92.5553   4
  -4   2   0 1763.35 95.3022  19
  -4   2   0 1756.91 86.8743  23
  -4   2   0 1690.75 91.3229  12
   5  -2   0 343.865 17.7039  16
  -5  -2   0 358.033 20.6559   6
   5  -2   0 312.134 22.1380   4
   5   2   0 354.847 21.8965   4
  -5   2   0 350.620 19.0447  23
  -6  -2   0 128.756 10.0047   6
   6   2   0 120.559 11.4237   4
  -6   2   0 121.020 8.15163  23
   0  -3   0 3.80418 1.92297   3
   0  -3   0 2.17382 2.04257  21
   0  -3   0 1.09036 2.57311  20
   0  -3   0 0.39268 2.04433  12
   0  -3   0 -0.8888 2.97751  10
   0  -3   0 8.39975 1.71290  17
   0   3   0 4.54385 2.25295  19
   0   3   0 3.57771 3.23954  18
   0   3   0 2.41679 2.68494  12
   0   3   0 3.57513 2.50002  13
   0   3   0 2.50323 2.63465  10
   0   3   0 1.23568 2.08175  11
   0   3   0 3.41542 2.61738   1
   0   3   0 3.40812 3.75398   2
   1  -3   0 5651.99 298.713   1
  -1  -3   0 5660.58 289.848  12
   1  -3   0 5879.51 296.620  13
   1  -3   0 5754.32 312.478  10
   1  -3   0 5940.04 289.926  12
  -1  -3   0 5361.21 341.558  20
  -1  -3   0 5598.68 318.432   3
   1  -3   0 5220.47 295.536  21
  -1  -3   0 5818.91 296.756  13
  -1  -3   0 5607.92 299.768  19
  -1  -3   0 5542.13 312.569  10
   1  -3   0 5095.75 254.324  16
  -1  -3   0 6037.35 313.092  11
   1  -3   0 5363.88 277.849  17
  -1  -3   0 5292.94 277.909  17
   1  -3   0 5660.78 341.056  20
  -1  -3   0 5259.55 254.338  16
  -1   3   0 5760.37 317.651   3
  -1   3   0 6306.90 312.514  10
   1   3   0 5185.20 277.957  17
  -1   3   0 6057.68 368.469  18
  -1   3   0 5330.62 254.306  16
   1   3   0 5696.28 312.388  10
   1   3   0 5449.10 333.523   2
  -1   3   0 5639.30 296.701  13
   1   3   0 5384.43 299.321   1
  -1   3   0 5740.42 312.622  11
   1   3   0 5560.67 296.770  13
  -1   3   0 5658.95 300.678  19
   1   3   0 4664.51 303.385  14
  -1   3   0 5408.36 333.864   2
   1   3   0 5184.35 368.840  18
  -1   3   0 5234.99 277.940  17
  -1   3   0 5788.84 289.970  12
   1   3   0 5822.10 290.212  12
  -2  -3   0 508.775 27.9321  15
  -2  -3   0 543.624 26.1603  17
   2  -3   0 494.973 28.5140  13
  -2  -3   0 486.725 33.3494  20
   2  -3   0 502.464 30.2262  10
  -2  -3   0 548.542 27.9607  12
  -2  -3   0 522.441 28.4218  19
  -2  -3   0 513.888 30.3831  10
  -2  -3   0 542.739 31.3199   3
   2  -3   0 473.010 28.4876  14
   2  -3   0 537.988 29.2912  21
  -2  -3   0 513.516 28.5873  13
  -2  -3   0 495.900 30.2028  11
   2  -3   0 497.883 27.8674  12
   2  -3   0 456.165 28.1214   8
  -2  -3   0 505.169 24.3164   9
   2  -3   0 506.346 32.1964  20
   2  -3   0 502.466 23.8756  16
   2  -3   0 504.286 25.9866  17
  -2  -3   0 495.209 23.8098  16
   2  -3   0 522.259 29.0008   1
  -2   3   0 545.435 29.4983  19
  -2   3   0 508.269 30.0977  11
  -2   3   0 487.893 34.9448  18
  -2   3   0 537.424 28.7359  13
  -2   3   0 528.713 30.4512   3
  -2   3   0 507.311 27.8434  12
   2   3   0 504.367 26.0984  17
   2   3   0 509.735 28.5939  14
   2   3   0 486.411 31.6149   2
   2   3   0 478.452 28.0320   8
   2   3   0 554.050 29.6709   1
  -2   3   0 429.707 27.8265  15
  -2   3   0 530.406 23.8143  16
  -2   3   0 512.160 26.1066  17
   2   3   0 517.239 35.9819  18
  -2   3   0 474.304 24.3748   9
   2   3   0 512.610 30.1627  10
   2   3   0 505.547 28.1636  12
   2   3   0 501.476 23.9693  16
  -2   3   0 524.145 32.2618   2
   2   3   0 519.026 28.7668  13
  -2   3   0 469.481 29.8897  10
  -3  -3   0 234.288 13.6925  12
  -3  -3   0 220.693 10.7707  16
   3  -3   0 210.334 10.8650  16
   3  -3   0 222.726 11.7696  17
  -3  -3   0 203.552 13.9971  13
   3  -3   0 213.176 14.6705  21
   3  -3   0 198.958 13.8067  13
   3  -3   0 188.273 13.4964  12
   3  -3   0 217.767 15.0916   1
  -3  -3   0 205.468 15.8173   3
  -3   3   0 216.864 14.5795  19
  -3   3   0 202.738 13.3038  12
  -3   3   0 197.852 15.1091   2
   3   3   0 218.535 11.0496  16
   3   3   0 198.813 17.9153  18
  -3   3   0 225.246 10.6872  16
   3   3   0 217.083 11.8507  17
  -3   3   0 205.456 14.1445  13
   3   3   0 214.913 15.4635   1
  -3   3   0 228.370 11.9057  17
  -4  -3   0 1035.97 67.2444  12
   4  -3   0 1288.94 63.3670  17
   4  -3   0 1321.66 70.0516  21
  -4  -3   0 1158.12 64.6181   6
  -4  -3   0 1192.54 75.9030   3
   4  -3   0 1311.76 58.2974  16
   4   3   0 1323.76 63.5845  17
   4   3   0 1257.63 68.2066   4
  -4   3   0 1291.34 63.8026  23
   4   3   0 1233.04 58.2602  16
  -4   3   0 1280.33 70.9955  19
   4   3   0 1193.13 71.9740   1
  -5  -3   0 55.7013 6.42930   6
   5   3   0 55.5744 7.28948   4
  -5   3   0 50.8998 5.75523  23
  -6  -3   0 1387.45 68.8410   6
  -6   3   0 1345.63 67.6517  23
   6   3   0 1225.06 72.8236   4
   0  -4   0 4400.92 228.618  12
   0  -4   0 4348.11 232.610  21
   0  -4   0 4571.11 250.561   3
   0  -4   0 4548.17 218.938  17
   0  -4   0 4465.37 234.191  13
   0  -4   0 4181.81 200.234  16
   0  -4   0 4358.13 247.139  11
   0  -4   0 4294.03 269.215  20
   0  -4   0 4313.40 246.705  10
   0   4   0 4259.09 218.892  17
   0   4   0 4690.36 263.711   2
   0   4   0 4367.31 235.613   1
   0   4   0 4360.45 236.692  19
   0   4   0 4276.53 200.413  16
   0   4   0 4363.87 246.541  10
   0   4   0 4280.28 246.725  11
   0   4   0 4441.16 229.094  12
   0   4   0 4349.00 291.247  18
   0   4   0 4219.45 234.227  13
  -1  -4   0 783.651 40.5856  12
   1  -4   0 741.015 34.8580  16
  -1  -4   0 746.312 44.1373  10
  -1  -4   0 644.990 37.9644  17
  -1  -4   0 785.194 34.8100  16
  -1  -4   0 826.492 44.6603   3
  -1  -4   0 868.195 48.3202  20
   1  -4   0 719.591 47.6521  20
   1  -4   0 739.260 38.1240  17
   1  -4   0 773.779 41.7319  21
  -1  -4   0 733.336 44.1966  11
   1  -4   0 792.469 41.5330  13
  -1  -4   0 774.579 41.6265  13
  -1  -4   0 769.095 40.6925  21
   1  -4   0 835.712 40.6940  12
   1   4   0 782.774 41.2340  12
   1   4   0 640.376 46.5959   2
  -1   4   0 712.527 34.8324  16
  -1   4   0 708.453 47.0757   2
  -1   4   0 823.751 40.8803  12
  -1   4   0 615.250 42.0125  19
   1   4   0 763.658 42.2865   1
   1   4   0 733.818 41.6685  13
   1   4   0 712.885 35.1301  16
   1   4   0 701.025 38.0946  17
  -1   4   0 792.186 51.9141  18
  -1   4   0 723.438 38.1760  17
  -1   4   0 788.426 43.7555  11
   1   4   0 643.663 52.0602  18
  -1   4   0 796.303 43.8783  10
   1   4   0 634.018 40.9936   8
   1   4   0 763.809 41.7164  19
  -1   4   0 802.944 41.7957  13
   1   4   0 758.062 43.9444  10
   1   4   0 699.314 41.5933  14
  -2  -4   0 1223.92 58.8012  16
  -2  -4   0 1303.93 67.9492  12
  -2  -4   0 1293.41 59.8147   9
   2  -4   0 1252.80 64.2362  17
   2  -4   0 1281.27 68.0019  12
  -2  -4   0 1348.57 69.8524  19
   2  -4   0 1240.44 73.4048  10
  -2  -4   0 1260.49 64.3497  17
   2  -4   0 1240.48 58.8609  16
  -2  -4   0 1273.22 68.5577  15
   2  -4   0 1289.96 69.4798  13
  -2  -4   0 1273.76 80.3771  20
   2  -4   0 1292.11 79.3307  20
  -2  -4   0 1314.18 75.1921   3
  -2  -4   0 1286.67 69.6996  13
   2  -4   0 1160.85 69.8146   1
   2  -4   0 1234.94 73.5271  11
   2  -4   0 1200.44 69.9471  21
   2   4   0 1371.99 68.6469  12
   2   4   0 1218.00 64.3214  17
   2   4   0 1320.89 69.9332  13
   2   4   0 1297.85 73.3989  10
  -2   4   0 1399.71 78.7973   2
   2   4   0 1138.31 87.0421  18
  -2   4   0 1284.66 71.1487  19
   2   4   0 1242.66 77.9610   2
  -2   4   0 1321.16 85.9859  18
  -2   4   0 1140.53 73.8189   3
  -2   4   0 1296.84 58.7913  16
   2   4   0 1174.17 69.1928   8
   2   4   0 1291.81 70.9921   1
  -2   4   0 1325.35 69.1296  15
  -2   4   0 1345.83 68.0346  12
  -2   4   0 1210.51 64.3659  17
  -2   4   0 1330.29 69.7650  13
   2   4   0 1220.64 70.3755  14
  -3  -4   0 698.455 39.5777   6
  -3  -4   0 696.295 46.7208   3
  -3  -4   0 811.253 42.0509  12
   3  -4   0 787.079 35.7059  16
   3  -4   0 795.082 38.8785  17
  -3  -4   0 737.342 43.0416  13
  -3  -4   0 721.826 35.4220  16
   3  -4   0 755.531 43.8617  21
  -3   4   0 784.331 37.0118   5
  -3   4   0 731.217 41.6272  12
  -3   4   0 771.527 35.4506  16
   3   4   0 754.405 41.9394   4
   3   4   0 631.874 53.8876  18
  -3   4   0 719.664 42.9862  13
   3   4   0 760.035 38.9434  17
  -3   4   0 788.509 48.2373   2
  -3   4   0 815.521 44.4788  19
  -3   4   0 777.654 39.3607  23
  -3   4   0 730.611 38.9547  17
   3   4   0 780.209 44.9293   1
  -4  -4   0 987.981 54.5853   6
   4  -4   0 1069.34 49.2043  16
   4  -4   0 1082.12 53.5977  17
   4  -4   0 1054.17 60.7379  21
  -4   4   0 1076.55 51.0128   5
   4   4   0 1039.27 57.8924   4
  -4   4   0 1040.39 53.9847  23
   4   4   0 965.999 53.4668  17
  -5  -4   0 1092.59 57.9486   6
  -5   4   0 1156.39 57.1697  23
   5   4   0 1040.98 61.4155   4
  -6  -4   0 59.4054 5.65918   6
  -6   4   0 58.5669 5.65793  23
   6   4   0 43.0038 6.34231   4
   0  -5   0 0.57346 2.13795  14
   0  -5   0 11.6822 4.58303  11
   0  -5   0 5.87411 2.58610  15
   0  -5   0 1.28763 3.10655  21
   0  -5   0 1.35393 1.56870  17
   0  -5   0 0.15283 3.09917  12
   0  -5   0 1.73633 1.98715   9
   0  -5   0 -0.5662 3.64472  20
   0  -5   0 -0.1076 4.35462  10
   0  -5   0 0.78431 2.29945   8
   0  -5   0 6.19600 3.60444  13
   0  -5   0 6.91305 1.58010  16
   0  -5   0 0.35806 2.90267   3
   0   5   0 4.67592 4.16036  10
   0   5   0 0.74002 2.43584   9
   0   5   0 2.89901 1.85751  16
   0   5   0 0.59872 2.36393  15
   0   5   0 2.49438 4.47752  18
   0   5   0 -0.6865 4.35363   2
   0   5   0 0.85728 1.99485   8
   0   5   0 13.6136 4.13663  13
   0   5   0 1.34053 1.47326  17
   0   5   0 4.91533 3.94325  12
   0   5   0 12.4094 3.65439  11
   0   5   0 -0.0306 1.73841  14
   0   5   0 3.39056 3.06866  19
   0   5   0 2.08168 3.56879   1
   1  -5   0 109.823 8.31090  21
  -1  -5   0 105.993 8.52132   3
  -1  -5   0 107.065 5.49894  16
  -1  -5   0 96.6437 7.48705  15
   1  -5   0 96.3241 6.47645  17
  -1  -5   0 117.709 9.45964  20
  -1  -5   0 107.964 9.78882  10
   1  -5   0 95.9444 8.58014  13
   1  -5   0 98.5326 9.40537  20
  -1  -5   0 88.4666 6.31177   9
  -1  -5   0 90.9512 10.0585  11
  -1  -5   0 112.262 7.86119  12
  -1  -5   0 103.897 6.24354  17
  -1  -5   0 101.361 8.73710  13
   1  -5   0 85.6832 9.45057  11
   1  -5   0 95.6472 7.89084  12
  -1  -5   0 102.616 7.00370  21
  -1   5   0 110.889 6.38297  17
   1   5   0 102.635 11.1229  18
   1   5   0 91.3861 7.70008  19
   1   5   0 98.8451 8.53561  13
   1   5   0 110.998 6.39413  17
   1   5   0 103.246 9.04187  11
  -1   5   0 85.9030 8.88398  10
   1   5   0 95.2158 8.94108  12
   1   5   0 83.4908 8.78271  10
   1   5   0 94.9896 6.11510  16
  -1   5   0 93.4655 8.90164  13
  -1   5   0 88.8910 10.7979  18
  -1   5   0 87.0110 5.74047  16
   1   5   0 91.7543 8.87874   1
  -1   5   0 95.0186 8.79795  11
  -1   5   0 86.4782 8.43980  12
   1   5   0 106.905 9.64715   2
  -1   5   0 100.903 9.83566   2
   2  -5   0 1999.51 103.016  13
  -2  -5   0 2033.83 118.263  20
  -2  -5   0 1918.67 86.8530  16
  -2  -5   0 1968.01 103.147  13
   2  -5   0 2066.01 103.407  21
  -2  -5   0 1888.40 100.462  12
   2  -5   0 1844.63 87.0696  16
  -2  -5   0 1888.20 110.555   3
   2  -5   0 1967.60 100.636  12
   2  -5   0 2001.46 117.818  20
   2  -5   0 1914.89 95.2471  17
   2   5   0 1684.48 95.0428  17
   2   5   0 1840.78 87.5220  16
   2   5   0 1829.90 103.236  13
  -2   5   0 1946.06 100.658  12
   2   5   0 1892.28 104.723   1
  -2   5   0 1938.88 127.535  18
   2   5   0 1962.28 101.550  12
  -2   5   0 1780.87 116.016   2
   2   5   0 1553.45 128.094  18
  -2   5   0 1751.38 86.9482  16
  -2   5   0 1799.36 95.1946  17
  -2   5   0 1850.53 103.087  13
  -3  -5   0 2140.81 108.952   6
  -3  -5   0 2131.90 125.539   3
   3  -5   0 1919.81 116.451  21
   3  -5   0 2236.85 96.2204   7
   3  -5   0 2103.45 98.2715  16
   3  -5   0 2307.34 107.542  17
  -3  -5   0 2244.84 113.679  12
  -3  -5   0 2100.57 116.423  13
  -3   5   0 2188.52 116.663  13
  -3   5   0 1979.79 108.011  23
  -3   5   0 2214.20 130.995   2
   3   5   0 1787.49 144.880  18
  -3   5   0 2204.71 113.477  12
   3   5   0 2288.83 98.9971  16
  -3   5   0 1962.03 118.362  19
   3   5   0 2191.74 119.168   1
   3   5   0 2164.74 114.716   4
  -3   5   0 2266.39 102.415   5
   3   5   0 2047.87 107.308  17
  -3   5   0 1928.44 97.9261  16
   4  -5   0 75.0096 7.51556  17
   4  -5   0 74.8441 6.47424  16
  -4  -5   0 73.6421 7.46179   6
   4   5   0 93.5174 8.13270  16
   4   5   0 88.5714 9.51486   4
  -4   5   0 80.3461 7.70231  23
   4   5   0 73.2665 6.75261  17
  -4   5   0 85.0619 6.62406   5
  -5  -5   0 252.959 15.1514   6
   5   5   0 243.850 17.3397   4
  -5   5   0 241.401 15.1729  23
  -6  -5   0 67.1996 5.43494   6
   6   5   0 63.5426 7.31488   4
  -6   5   0 62.2959 5.92888  23
   0  -6   0 6315.13 367.875  20
   0  -6   0 6035.94 298.659  17
   0  -6   0 6013.88 312.289  12
   0  -6   0 5992.81 319.590  13
   0  -6   0 5856.48 317.460  21
   0  -6   0 5900.44 273.317  16
   0   6   0 6202.77 397.603  18
   0   6   0 5905.75 298.704  17
   0   6   0 5923.57 323.062  19
   0   6   0 5934.66 319.886  13
   0   6   0 6013.77 359.668   2
   0   6   0 5689.34 312.549  12
   0   6   0 5820.28 273.457  16
   1  -6   0 520.325 30.9427  21
   1  -6   0 513.207 31.6303  13
  -1  -6   0 512.861 32.6557   3
  -1  -6   0 524.781 35.5718  20
   1  -6   0 490.098 30.3616  12
  -1  -6   0 537.519 25.1107  16
   1  -6   0 524.302 25.2958  16
   1  -6   0 539.779 36.0129  20
   1  -6   0 518.881 27.6893  17
  -1  -6   0 539.479 27.6173  17
  -1  -6   0 502.567 31.1902  13
  -1  -6   0 496.609 29.9091  12
  -1   6   0 553.971 25.4479  16
  -1   6   0 525.573 35.4476   2
   1   6   0 563.149 27.7102  17
   1   6   0 510.885 31.2326   1
  -1   6   0 569.004 27.7545  17
   1   6   0 541.859 34.9724   2
  -1   6   0 525.880 31.0130  12
  -1   6   0 546.807 39.4723  18
  -1   6   0 506.774 31.5119  13
  -1   6   0 565.291 31.7045  19
   1   6   0 544.388 31.5026  13
   1   6   0 549.442 39.4831  18
   1   6   0 540.627 25.4971  16
  -2  -6   0 790.904 47.0924   3
   2  -6   0 768.357 44.3996  13
   2  -6   0 722.379 42.9207  12
  -2  -6   0 757.714 39.0839  17
   2  -6   0 697.946 49.7891  20
   2  -6   0 794.932 35.9308  16
  -2  -6   0 715.903 42.5544  12
   2  -6   0 733.456 43.9086  21
  -2  -6   0 696.747 43.9510  13
   2  -6   0 738.907 39.4001  17
   2  -6   0 735.576 35.3791   7
  -2  -6   0 687.104 33.5031  24
  -2  -6   0 774.455 49.7407  20
  -2  -6   0 741.902 39.7163   6
  -2  -6   0 782.501 35.4766  16
  -2   6   0 751.814 35.8103  16
  -2   6   0 746.947 54.4533  18
   2   6   0 816.229 55.6545  18
  -2   6   0 792.305 43.3727  12
  -2   6   0 744.262 44.6482  13
  -2   6   0 819.845 45.1130  19
   2   6   0 762.207 45.3967   1
  -2   6   0 689.027 49.6455   2
  -2   6   0 659.394 37.5734   5
   2   6   0 844.362 39.3009  17
  -2   6   0 819.097 39.1972  17
   2   6   0 802.588 38.0328  22
  -2   6   0 748.145 39.6583  23
   2   6   0 810.285 36.3893  16
   3  -6   0 153.732 9.72931   7
  -3  -6   0 126.856 13.3142  12
   3  -6   0 156.066 9.02264  16
   3  -6   0 150.826 10.3729  17
   3  -6   0 160.056 15.0532  21
  -3  -6   0 154.105 10.3419   6
  -3  -6   0 159.819 15.4587   3
  -3   6   0 155.408 10.0914   5
   3   6   0 157.062 17.2861   1
   3   6   0 166.843 9.89530  17
  -3   6   0 148.043 16.0309   2
  -3   6   0 139.932 15.1279  19
   3   6   0 145.735 18.0990  18
   3   6   0 165.373 12.3932   4
  -3   6   0 144.180 10.6823  23
   3   6   0 167.206 10.3929  22
  -4  -6   0 106.604 8.72208   6
   4  -6   0 107.067 7.41178  16
  -4   6   0 95.9232 9.09784  23
   4   6   0 108.041 11.0672   4
   4   6   0 118.843 8.61647  16
  -4   6   0 126.911 8.55917   5
  -5  -6   0 1561.75 81.1189   6
  -5   6   0 1493.23 80.6905  23
   5   6   0 1651.25 86.3624   4
   0  -7   0 2.73265 2.21139  24
   0  -7   0 -0.0542 5.50454  13
   0  -7   0 1.10061 5.30557  20
   0  -7   0 0.31739 4.87138  12
   0  -7   0 0.60394 1.76795  17
   0  -7   0 0.10489 1.80234  16
   0   7   0 4.08427 6.30428  18
   0   7   0 1.48415 4.24123  19
   0   7   0 4.43916 2.19344  16
   0   7   0 -0.0166 5.65336  12
   0   7   0 6.00689 6.02525   2
   0   7   0 2.96766 2.76259  22
   0   7   0 12.3231 6.28214  13
   0   7   0 1.56979 1.78555  17
   1  -7   0 2008.59 88.9336   7
   1  -7   0 1970.21 105.190  12
   1  -7   0 1944.53 85.1942  24
  -1  -7   0 1931.83 90.3808  16
   1  -7   0 1954.60 98.9919  17
   1  -7   0 1985.33 90.5470  16
   1  -7   0 2041.06 124.003  20
  -1  -7   0 1954.52 85.1313  24
  -1  -7   0 2039.51 98.9689  17
   1  -7   0 1976.02 107.756  13
   1  -7   0 1940.49 106.761  21
  -1  -7   0 2013.81 107.569  13
  -1  -7   0 1941.21 104.445  12
  -1  -7   0 2041.43 123.576  20
  -1   7   0 2060.09 121.444   2
  -1   7   0 2014.06 94.7942   5
   1   7   0 1975.99 108.013  13
   1   7   0 1997.48 99.0141  17
  -1   7   0 1976.40 108.650  19
   1   7   0 1952.27 134.046  18
   1   7   0 1912.84 120.471   2
   1   7   0 1862.92 105.465  12
   1   7   0 1958.79 90.7424  16
  -1   7   0 1921.34 134.021  18
  -1   7   0 1903.75 98.9563  17
  -1   7   0 1865.31 107.677  13
   1   7   0 1831.95 94.9736  22
  -1   7   0 2057.78 90.6953  16
  -1   7   0 1890.49 95.0264  22
  -1   7   0 1914.25 105.532  12
   2  -7   0 550.455 25.6852   7
   2  -7   0 561.546 28.3041  17
  -2  -7   0 542.235 24.2034  24
  -2  -7   0 551.435 36.7636  20
   2  -7   0 549.272 25.7356  16
  -2  -7   0 544.187 31.3827  12
  -2  -7   0 526.417 33.0572  13
  -2  -7   0 518.443 25.2214  16
  -2  -7   0 532.808 34.3627   3
   2  -7   0 558.355 32.6793  21
   2  -7   0 513.083 37.4578  20
  -2  -7   0 524.560 28.5088   6
  -2   7   0 502.875 27.4627  22
  -2   7   0 567.955 33.3447  19
  -2   7   0 540.569 27.9745  17
  -2   7   0 464.439 40.5564  18
   2   7   0 555.942 26.0834  16
   2   7   0 575.174 28.1660  17
   2   7   0 518.218 41.0244  18
  -2   7   0 537.333 27.4404   5
  -2   7   0 500.234 37.1327   2
   2   7   0 525.744 27.4269  22
  -2   7   0 576.317 25.7247  16
  -2   7   0 471.077 32.1685  12
  -2   7   0 462.375 33.1593  13
  -2   7   0 568.205 28.7362  23
   3  -7   0 557.034 31.1405  17
   3  -7   0 604.228 28.3652  16
  -3  -7   0 585.250 31.7000   6
   3  -7   0 585.131 28.4890   7
  -3   7   0 621.227 31.9273  23
   3   7   0 625.662 28.8817  16
   3   7   0 558.062 34.1186   4
   3   7   0 583.024 30.2070  22
   3   7   0 626.298 31.0386  17
  -3   7   0 538.661 30.1996   5
   4  -7   0 398.408 21.2696   7
  -4  -7   0 431.077 23.5832   6
   4   7   0 423.194 25.9814   4
  -4   7   0 409.658 22.5516   5
  -4   7   0 451.264 23.9134  23
  -5  -7   0 136.479 8.51788   6
  -5   7   0 115.182 8.90997  23
   5   7   0 116.686 10.3261   4
   0  -8   0 36.9047 7.84040  20
   0  -8   0 34.5661 6.81928  12
   0  -8   0 35.3734 4.03986   7
   0  -8   0 41.8112 3.57294  16
   0  -8   0 37.8779 7.66375  13
   0  -8   0 40.7011 4.05209  24
   0  -8   0 38.1592 3.77816  17
   0   8   0 34.6942 3.75995   5
   0   8   0 36.3617 3.69029  16
   0   8   0 36.1231 7.61623  12
   0   8   0 45.6654 4.09277  17
   0   8   0 41.9970 8.76218   2
   0   8   0 37.2680 4.18554  22
   0   8   0 42.9601 9.33277  18
   1  -8   0 790.581 36.6998  16
  -1  -8   0 822.770 36.5988  16
   1  -8   0 833.412 36.4423   7
   1  -8   0 715.346 44.5952  21
   1  -8   0 800.119 52.4320  20
   1  -8   0 827.327 34.9463  24
  -1  -8   0 783.031 45.2768  13
  -1  -8   0 721.695 43.5963  12
  -1  -8   0 840.520 34.8685  24
  -1  -8   0 761.267 51.8511  20
   1   8   0 731.217 56.6646  18
   1   8   0 723.489 38.4295   5
  -1   8   0 781.931 39.0201  22
   1   8   0 747.515 50.3892   2
  -1   8   0 827.465 36.8732  16
  -1   8   0 795.363 40.1847  17
   1   8   0 783.523 36.9622  16
  -1   8   0 744.133 56.7981  18
   1   8   0 761.527 38.9573  22
  -1   8   0 787.855 51.3287   2
   1   8   0 791.921 40.1969  17
  -1   8   0 787.496 38.8312   5
   2  -8   0 576.826 27.4191  16
   2  -8   0 601.272 26.6612  24
   2  -8   0 566.463 30.0461  17
  -2  -8   0 539.922 25.8819  24
   2  -8   0 566.689 27.3875   7
  -2   8   0 569.047 30.4801  23
  -2   8   0 581.008 29.5766  22
  -2   8   0 580.861 29.2973   5
   2   8   0 564.005 44.3725  18
   2   8   0 580.425 27.6961  16
   2   8   0 589.779 29.9559  17
   2   8   0 564.680 29.3251  22
  -3  -8   0 498.703 28.6886   6
   3  -8   0 570.788 26.1327   7
   3   8   0 505.445 27.4379  22
   3   8   0 531.330 25.8787  16
  -3   8   0 541.802 27.7777   5
  -3   8   0 550.034 28.9062  23
   4  -8   0 791.271 36.3256   7
  -4  -8   0 778.364 40.5301   6
  -4   8   0 754.540 38.6029   5
  -4   8   0 812.843 40.5166  23
   4   8   0 690.181 42.8286   4
  -5  -8   0 8.76182 2.81925   6
  -5   8   0 8.53509 3.12079  23
   5   8   0 7.57194 3.41762   4
   0  -9   0 1.45158 2.51680  24
   0  -9   0 1.04712 2.51310   7
   0   9   0 2.01595 7.62709  12
   0   9   0 2.60627 2.38734  16
   0   9   0 2.06132 2.95104  22
   0   9   0 1.01268 7.82022   2
   0   9   0 0.40373 2.57397   5
  -1  -9   0 1995.88 87.0865  24
   1  -9   0 2052.32 87.1602  24
   1  -9   0 1984.51 90.9103   7
   1   9   0 1980.70 101.012  17
   1   9   0 2131.26 92.7161  16
  -1   9   0 2023.19 97.2557  22
   1   9   0 2041.05 97.3219  22
   1   9   0 1921.26 96.5108   5
  -1   9   0 1970.34 96.7964   5
  -1   9   0 1922.97 92.3104  16
   2  -9   0 346.305 17.6735   7
  -2  -9   0 316.196 16.6000  24
   2  -9   0 343.921 17.1325  24
   2   9   0 375.549 19.1010  22
  -2   9   0 342.728 19.4761  23
  -2   9   0 361.499 19.2536  22
  -2   9   0 395.885 19.1376   5
   3  -9   0 318.589 16.8377   7
  -3  -9   0 313.582 18.5146   6
   3   9   0 329.017 17.8038  22
  -3   9   0 353.260 18.1144   5
  -3   9   0 335.569 18.5280  23
  -4  -9   0 432.845 25.0758   6
   4  -9   0 484.410 22.7808   7
  -4   9   0 474.660 24.1308   5
  -4   9   0 477.718 25.1454  23
   0 -10   0 1616.48 76.9673   7
   0 -10   0 1773.79 74.0313  24
   0  10   0 1741.81 82.5976  22
   0  10   0 1643.74 82.0375   5
   1 -10   0 69.4886 5.19377  24
   1 -10   0 62.0680 5.29607   7
  -1 -10   0 71.0721 5.22159  24
  -1  10   0 58.1410 5.56308   5
  -1  10   0 60.9631 5.88700  22
   1  10   0 58.7451 5.88895  22
   2 -10   0 51.0385 5.20020   7
  -2 -10   0 54.0555 4.69798  24
  -2  10   0 48.0175 5.22247  22
  -2  10   0 47.2826 5.29669   5
   2  10   0 48.7007 5.57949  22
   3 -10   0 27.4644 3.77612   7
  -3  10   0 34.3147 4.03707   5
  -3  10   0 31.7728 3.87819  23
   3  10   0 34.1288 4.15282  22
  -4  10   0 70.8652 5.35912   5
  -4  10   0 60.3823 5.07465  23
   0 -11   0 1.15197 2.60449  24
   0 -11   0 1.95011 2.70854   7
   0  11   0 0.79737 2.94676  22
   0  11   0 1.38484 2.62457   5
  -1 -11   0 192.584 10.3212  24
   1 -11   0 199.833 10.4295  24
   1 -11   0 199.433 10.8086   7
   1  11   0 213.789 11.8831  22
  -1  11   0 207.196 11.8106  22
  -1  11   0 199.989 11.4909   5
   2 -11   0 678.656 31.0871   7
  -2 -11   0 639.928 29.6070  24
  -2  11   0 657.241 33.1445  22
   2  11   0 674.723 33.3365  22
  -2  11   0 658.346 33.0670   5
   3 -11   0 654.909 30.0474   7
  -3  11   0 642.457 31.9807   5
   3  11   0 632.703 32.0210  22
   0 -12   0 618.897 26.9069  24
   0 -12   0 581.586 27.8112   7
   0  12   0 577.887 29.6694   5
   0  12   0 606.811 30.1031  22
   1 -12   0 68.9280 5.33175   7
  -1 -12   0 74.9935 4.99648  24
   1 -12   0 70.7376 5.13377  24
   1  12   0 71.6511 5.79000  22
  -1  12   0 74.5679 5.86930  22
  -1  12   0 78.9258 5.72083   5
   2 -12   0 347.207 16.6628   7
  -2 -12   0 345.180 15.8495  24
   2  12   0 340.528 17.9000  22
  -2  12   0 342.921 17.7189   5
  -3  12   0 112.265 6.72501   5
   0 -13   0 -0.7333 2.07167  24
   0  13   0 2.43082 2.51364  22
   1 -13   0 469.163 22.4809   7
   1 -13   0 486.894 21.5993  24
  -1 -13   0 489.538 21.6424  24
  -1  13   0 480.214 23.9635   5
  -1  13   0 469.385 24.0867  22
   1  13   0 498.930 24.2694  22
   6   0  -1 16.4855 5.44907   4
  -6   0   1 13.1432 3.10857  23
   5   0  -1 71.4833 7.88388   4
   5   0  -1 74.3438 6.18931  17
   5   0  -1 70.8028 5.83955  16
  -5   0   1 72.7916 7.85646  15
  -5   0   1 69.3417 6.17737   9
  -5   0   1 77.7812 6.10947  23
  -4   0   1 4812.91 245.421  15
   4   0  -1 4605.53 211.454  16
   4   0  -1 4749.26 250.567   1
  -4   0   1 4761.67 250.510  19
  -4   0   1 4352.29 268.079   3
   4   0  -1 4573.46 230.886  17
  -4   0   1 4583.46 231.612  23
  -4   0   1 4580.79 240.993  12
  -4   0   1 4838.88 214.320   9
   4   0  -1 4348.78 248.281   8
   4   0  -1 4584.29 252.213  14
  -4   0   1 4476.05 277.702   2
   3   0  -1 53.8500 4.00747  14
  -3   0   1 55.9697 8.45903   3
   3   0  -1 48.3134 4.81794  21
   3   0  -1 48.4869 3.87077   8
   3   0  -1 55.1632 5.53678  11
  -3   0   1 55.5781 5.47711   2
  -3   0   1 54.5047 3.66466   9
   3   0  -1 61.0741 3.75254  17
  -3   0   1 53.3277 6.12303  18
   3   0  -1 53.8735 5.32887  10
   3   0  -1 54.7300 5.61673   1
  -3   0   1 56.6786 5.11146  13
  -3   0   1 54.6815 4.57848  12
   3   0  -1 52.5320 3.59578  16
  -3   0   1 56.7585 5.08619  19
  -3   0   1 51.4625 4.23882  15
   2   0  -1 9124.97 454.248  12
   2   0  -1 9137.83 464.849  13
   2   0  -1 8957.73 475.811  14
  -2   0   1 7920.08 499.349   3
  -2   0   1 8222.87 470.515  19
  -2   0   1 7262.40 464.573  13
  -2   0   1 8266.39 453.929  12
  -2   0   1 9999.99 577.342  18
  -2   0   1 9076.43 522.710   2
   2   0  -1 8544.56 468.610   8
   2   0  -1 9343.24 489.490  10
   2   0  -1 8361.58 462.418  21
  -2   0   1 9073.07 462.330  15
   2   0  -1 9369.14 490.007  11
  -2   0   1 8490.75 404.008   9
   2   0  -1 8545.37 468.937   1
  -1   0   1 7.39031 1.51060   2
  -1   0   1 7.09560 1.23390  19
   1   0  -1 5.18341 1.27545   1
   1   0  -1 10.5588 1.09361  12
   1   0  -1 6.90714 1.08315  13
  -1   0   1 7.15197 1.44297  18
  -1   0   1 8.96836 2.24085   3
   1   0  -1 7.42503 2.16195  21
   0   0   1 10.2370 1.17126  20
   0   0   1 9.68832 1.82637   1
   0   0   1 8.36475 1.20374  21
   0   0   1 8.38730 1.02881  18
   0   0   1 7.34523 0.93732   2
   0   0   1 6.71496 1.03341   3
  -1   0  -1 3708.07 221.225  10
   1   0   1 3753.40 221.383  11
  -1   0  -1 3802.54 214.896  14
  -1   0  -1 3788.00 225.406   3
  -1   0  -1 4040.18 205.248  12
   1   0   1 4111.02 209.962  13
  -1   0  -1 3852.30 210.088  13
   1   0   1 4165.53 205.301  12
  -1   0  -1 3657.38 221.402  11
   1   0   1 3690.94 221.088  10
   1   0   1 3900.96 212.525   1
   1   0   1 3929.00 241.485  20
   1   0   1 4071.23 210.027  13
   1   0   1 3901.32 209.158  21
  -1   0  -1 3946.64 212.537  19
  -1   0  -1 4254.41 221.181  10
  -1   0  -1 4205.55 221.440  11
   1   0   1 4141.95 205.236  12
  -2   0  -1 925.805 48.4194  12
  -2   0  -1 943.505 52.2063  10
  -2   0  -1 901.537 49.8792  19
   2   0   1 903.177 48.3737  12
  -2   0  -1 871.009 49.2380   8
   2   0   1 924.263 49.4044  13
   2   0   1 876.588 42.6765   9
  -2   0  -1 940.368 49.7345  13
  -2   0  -1 875.891 50.0595  14
   2   0   1 856.981 52.1169  10
  -2   0  -1 939.040 52.2482  11
  -2   0  -1 883.487 45.8824  17
  -2   0  -1 921.513 41.9515  16
   2   0   1 898.556 41.9453  16
   2   0   1 936.839 49.4556  21
   2   0   1 925.186 48.8290  15
  -2   0  -1 877.971 53.1863   3
   2   0   1 932.639 51.0706   1
   2   0   1 890.136 52.2939  11
  -3   0  -1 7665.90 385.944  17
   3   0   1 7836.28 412.135  13
  -3   0  -1 7748.43 416.861  19
   3   0   1 7514.51 417.148   1
   3   0   1 7880.68 353.139  16
  -3   0  -1 7796.96 353.048  16
   3   0   1 7870.00 410.252  21
   3   0   1 7984.93 402.911  12
  -3   0  -1 7143.85 442.321   3
   4   0   1 418.536 29.8612   1
  -4   0  -1 425.629 23.2443   6
  -4   0  -1 430.020 20.3598  16
  -4   0  -1 401.443 28.9041   3
  -4   0  -1 411.288 22.5155  17
   4   0   1 429.412 25.7647   4
  -5   0  -1 103.990 9.26037   6
   5   0   1 100.165 12.8296   4
  -6   0  -1 56.9108 6.62650   6
   6  -1  -1 153.059 12.7972   4
  -6   1   1 144.126 9.37885  23
   6   1  -1 144.870 11.8847   4
  -5  -1   1 255.533 13.7710   9
  -5  -1   1 257.052 14.3116  23
  -5  -1   1 249.014 17.0581   6
   5  -1  -1 237.517 14.2801  17
   5  -1  -1 240.224 13.3244  16
  -5  -1   1 238.629 16.0472  15
   5  -1  -1 257.437 16.5933   4
  -5   1   1 258.217 16.5421  15
  -5   1   1 252.126 13.7727   9
  -5   1   1 248.967 14.2780  23
   5   1  -1 245.362 16.2112   4
   5   1  -1 255.777 13.4840  16
   5   1  -1 255.998 14.4988  17
   4  -1  -1 1117.33 61.5583   8
  -4  -1   1 1150.96 57.2224  23
  -4  -1   1 1162.32 59.0520   6
  -4  -1   1 1195.30 61.2297  15
  -4  -1   1 1116.07 60.1829  12
   4  -1  -1 1059.34 62.4299  14
   4  -1  -1 1136.24 57.0734  17
  -4  -1   1 1175.45 62.1471  13
  -4  -1   1 1196.43 70.0453   3
   4  -1  -1 1165.68 64.1050   1
  -4  -1   1 1171.39 63.0038  19
   4  -1  -1 1137.38 52.4114  16
  -4  -1   1 1164.52 53.2258   9
  -4   1   1 1158.65 61.1253  15
  -4   1   1 1002.88 54.1355   5
   4   1  -1 1053.90 61.4247   8
  -4   1   1 1076.19 61.9555  13
  -4   1   1 1151.62 61.0773   4
  -4   1   1 1172.12 69.8181   2
  -4   1   1 1083.04 57.1694  23
   4   1  -1 1074.21 77.1609  18
   4   1  -1 1114.79 61.0221   4
  -4   1   1 1081.06 60.0993  12
   4   1  -1 1050.01 62.3964  14
  -4   1   1 1125.72 53.1719   9
   4   1  -1 1094.69 52.3635  16
  -4   1   1 1053.83 62.9172  19
   4   1  -1 1109.61 57.0825  17
   4   1  -1 1151.91 63.9731   1
   3  -1  -1 1235.97 67.6587   1
   3  -1  -1 1169.07 56.4486  16
  -3  -1   1 1212.88 74.5577   2
  -3  -1   1 1273.91 66.4107  13
   3  -1  -1 1159.84 61.5626  17
  -3  -1   1 1242.55 65.6643  15
  -3  -1   1 1227.75 64.6242  12
  -3  -1   1 1260.25 67.3871  19
  -3  -1   1 1197.49 57.2366   9
   3  -1  -1 1232.34 70.2472  10
  -3  -1   1 1318.01 73.2795   3
   3  -1  -1 1204.69 67.3137  14
   3  -1  -1 1253.04 66.3802  21
   3  -1  -1 1240.80 70.4114  11
   3  -1  -1 1152.66 66.3496   8
   3   1  -1 1229.40 70.1383  10
  -3   1   1 1224.18 65.6614  15
   3   1  -1 1198.19 67.3167  14
  -3   1   1 1223.59 66.4359  13
   3   1  -1 1202.74 70.1620  11
   3   1  -1 1233.99 56.5144  16
   3   1  -1 1247.77 67.7522   1
  -3   1   1 1217.28 82.4802  18
  -3   1   1 1085.98 72.5887   3
   3   1  -1 1216.47 66.3187   8
   3   1  -1 1175.68 61.6126  17
   3   1  -1 1240.56 82.5661  18
  -3   1   1 1218.78 64.6054  12
  -3   1   1 1227.06 57.3230   9
  -3   1   1 1273.38 74.8480   2
   2  -1  -1 3025.84 164.858   1
   2  -1  -1 3175.34 166.712  14
  -2  -1   1 2982.93 183.430   2
  -2  -1   1 3209.19 165.276  19
  -2  -1   1 2955.15 176.128   3
  -2  -1   1 3205.67 162.133  15
  -2  -1   1 2876.79 159.237  12
   2  -1  -1 3173.97 171.920  10
   2  -1  -1 3092.05 162.729  21
   2  -1  -1 3161.89 159.530  12
   2  -1  -1 3112.30 172.039  11
   2  -1  -1 2935.66 163.102  13
   2  -1  -1 3081.10 164.217   8
  -2  -1   1 2802.30 163.039  13
  -2  -1   1 3102.88 141.590   9
  -2  -1   1 3053.73 163.017  13
  -2   1   1 3012.37 159.195  12
   2   1  -1 3040.94 159.464  12
  -2   1   1 3038.64 159.349  12
  -2   1   1 3104.58 141.654   9
   2   1  -1 3139.95 166.723  14
   2   1  -1 2995.54 163.197  13
   2   1  -1 3138.91 164.889   1
  -2   1   1 3061.85 163.110  13
  -2   1   1 3192.98 183.636   2
  -2   1   1 2556.50 175.388   3
   2   1  -1 3142.54 171.801  10
  -2   1   1 3031.32 165.338  19
   2   1  -1 3236.02 172.044  11
  -2   1   1 2960.30 162.994  13
   2   1  -1 3051.66 164.189   8
   2   1  -1 2950.40 161.948  21
  -2   1   1 3240.85 202.782  18
  -2   1   1 2934.17 162.043  15
   1   1  -1 98.0400 5.77538  10
   1   1  -1 93.2815 5.39647  12
   1   1  -1 95.4209 5.91204  11
  -1   1   1 94.3453 6.41856   2
   1   1  -1 87.5110 5.58608  13
  -1   1   1 92.3949 7.15247  18
   1   1  -1 90.4870 5.87856  10
  -1   1   1 96.3896 5.80799  19
   1   1  -1 93.8081 5.81271  11
   1   1  -1 102.113 5.83008   1
   0  -1  -1 268.946 17.6052   3
   0  -1   1 276.751 17.8051   3
   0  -1   1 304.434 19.0842  20
   0  -1   1 295.664 16.4414  21
   0  -1  -1 325.224 16.0039  12
   0  -1  -1 318.763 17.2487  10
   0   1  -1 279.511 17.4255  10
   0   1   1 250.750 17.2836   1
   0   1  -1 323.888 18.8513   2
   0   1  -1 280.436 17.5793  19
   0   1   1 287.974 16.6566  21
   0   1  -1 326.321 20.4584  18
   0   1  -1 292.313 16.3098  12
   0   1   1 331.681 18.3545   2
   0   1  -1 319.710 17.2607  10
   0   1   1 338.954 20.5512  18
  -1  -1  -1 3584.56 195.596  11
  -1  -1  -1 3527.58 181.210  12
   1  -1   1 3418.44 195.262  10
  -1  -1  -1 3380.91 185.528  13
  -1  -1  -1 3390.34 195.244  10
  -1  -1  -1 3365.08 213.227  20
   1  -1   1 3378.32 181.273  12
   1  -1   1 3546.32 181.172  12
   1  -1   1 3623.53 213.254  20
   1  -1   1 3172.90 184.670  21
   1  -1   1 3481.72 185.445  13
  -1  -1  -1 3301.80 199.020   3
   1  -1   1 3523.42 195.586  11
   1  -1   1 3562.20 185.396  13
   1  -1   1 3755.23 184.420  15
  -1  -1  -1 3292.31 187.343  19
   1  -1   1 3272.13 187.389   1
  -1   1  -1 3570.10 195.461  11
   1   1   1 3434.85 195.284  10
   1   1   1 3474.20 185.505  13
   1   1   1 3400.13 188.044   1
  -1   1  -1 3519.09 181.292  12
  -1   1  -1 3392.03 208.376   2
  -1   1  -1 3791.34 195.356  10
   1   1   1 3853.70 184.528  15
  -1   1  -1 3472.50 185.510  13
   1   1   1 3633.70 195.486  11
  -1   1  -1 3532.97 187.996  19
  -1   1  -1 3574.84 199.101   3
  -1   1  -1 3000.87 195.508  11
   1   1   1 3447.55 181.177  12
   1   1   1 3478.32 181.262  12
   1   1   1 3643.90 184.750  21
   1   1   1 3565.87 185.416  13
  -1   1  -1 3315.62 189.661  14
  -2  -1  -1 1097.56 62.1606  10
   2  -1   1 1154.42 58.9617  13
   2  -1   1 1105.35 50.9438   9
  -2  -1  -1 1116.32 58.8330   8
   2  -1   1 1085.37 58.2564  15
   2  -1   1 1142.51 57.6776  12
  -2  -1  -1 1123.99 57.6600  12
   2  -1   1 1159.65 59.0834  21
  -2  -1  -1 1081.76 59.8179  14
  -2  -1  -1 1060.05 62.2018  11
  -2  -1  -1 1125.99 50.0854  16
  -2  -1  -1 1108.59 67.5904  20
   2  -1   1 1121.42 62.3405  10
   2  -1   1 1147.02 67.5954  20
  -2  -1  -1 1128.31 63.5186   3
   2  -1   1 1075.78 50.0297  16
   2  -1   1 1197.88 60.6448   1
  -2  -1  -1 1117.41 59.3658  19
   2  -1   1 1073.52 62.4126  11
  -2  -1  -1 1130.07 59.2022  13
  -2  -1  -1 1105.83 54.8227  17
  -2   1  -1 1033.55 59.6230  19
  -2   1  -1 1024.48 50.0456  16
   2   1   1 1066.27 54.5745  17
   2   1   1 1043.15 62.2348  11
  -2   1  -1 1025.28 62.0531  10
   2   1   1 995.331 50.8912   9
   2   1   1 1084.84 57.7341  12
  -2   1  -1 1074.00 62.1320  11
  -2   1  -1 1086.97 59.1835  13
  -2   1  -1 1079.14 65.7614   2
  -2   1  -1 1054.11 57.6507  12
  -2   1  -1 1065.69 63.3746   3
   2   1   1 1061.02 58.8635  13
   2   1   1 1072.57 58.7343  21
   2   1   1 1050.14 62.1646  10
   2   1   1 1096.72 60.7160   1
   2   1   1 1000.52 50.0856  16
  -2   1  -1 1063.92 54.8104  17
  -2   1  -1 1028.14 58.7964   8
  -2   1  -1 1050.21 59.7520  14
   2   1   1 1038.32 58.2520  15
  -3  -1  -1 587.301 39.3158   3
  -3  -1  -1 647.866 30.1641  16
   3  -1   1 622.296 36.3984  21
   3  -1   1 614.737 38.5525   1
   3  -1   1 685.883 30.3136  16
   3  -1   1 628.457 35.5867  12
   3  -1   1 644.400 36.2698  13
  -3   1  -1 629.504 39.3931   3
  -3   1  -1 644.508 36.6724  19
  -3   1  -1 646.111 33.1202  17
   3   1   1 655.274 30.3458  16
   3   1   1 666.797 36.3433  21
   3   1   1 644.147 35.7542  12
   3   1   1 665.814 38.7769   1
  -3   1  -1 639.567 30.1793  16
   3   1   1 642.061 36.2769  13
   4  -1   1 542.495 33.0375  21
  -4  -1  -1 577.078 26.6063  16
  -4  -1  -1 547.709 36.6372   3
  -4  -1  -1 585.421 29.4296  17
  -4  -1  -1 554.480 30.0216   6
   4  -1   1 543.689 32.8266   4
   4   1   1 545.118 32.5734   4
  -4   1  -1 531.985 36.7041   3
  -4   1  -1 543.417 30.1096   6
  -4   1  -1 558.066 29.1699  23
  -4   1  -1 556.042 29.2629  17
   4   1   1 552.052 37.2064   1
  -4   1  -1 573.482 26.5974  16
  -5  -1  -1 446.657 24.1629   6
   5  -1   1 380.006 27.9916   4
  -5   1  -1 404.495 24.3921   6
   5   1   1 445.071 27.1775   4
  -6  -1  -1 622.628 33.7871   6
   6   1   1 615.297 36.3925   4
   6  -2  -1 1228.34 70.6447   4
  -6  -2   1 1299.39 66.8381   6
  -6   2   1 1301.01 65.3874  23
   6   2  -1 1263.15 70.3475   4
   5  -2  -1 1028.53 49.3381  16
  -5  -2   1 1047.41 55.6785   6
   5  -2  -1 1038.80 58.0449   4
  -5  -2   1 1051.53 53.6628  23
   5  -2  -1 986.556 53.5364  17
  -5  -2   1 1032.05 50.1137   9
  -5  -2   1 993.766 57.5803  15
  -5   2   1 1016.89 58.6544  15
  -5   2   1 1055.23 53.7859  23
   5   2  -1 1032.21 49.3864  16
   5   2  -1 1057.93 57.7337   4
   5   2  -1 1078.41 53.8599  17
  -5   2   1 1105.02 50.5630   9
  -4  -2   1 764.762 42.7944  13
   4  -2  -1 779.441 38.7628  17
   4  -2  -1 762.233 35.6437  16
  -4  -2   1 783.027 48.8549   3
  -4  -2   1 762.306 38.7722  23
   4  -2  -1 720.665 42.5183  14
  -4  -2   1 771.920 40.3396   6
  -4  -2   1 783.027 43.2145  19
   4  -2  -1 709.211 41.9019   8
   4  -2  -1 740.204 44.5587   1
  -4  -2   1 780.273 41.4752  12
  -4  -2   1 695.169 41.4601  15
   4  -2  -1 714.321 42.6035  21
  -4  -2   1 732.458 36.0881   9
  -4   2   1 746.201 43.6309  19
  -4   2   1 745.957 36.1978   9
   4   2  -1 732.319 42.5811  14
   4   2  -1 756.040 35.6836  16
   4   2  -1 745.572 41.5677   4
  -4   2   1 717.340 42.6077  13
  -4   2   1 773.502 41.7119   4
   4   2  -1 725.817 44.2911   1
  -4   2   1 753.154 41.2533  12
  -4   2   1 766.398 41.8014  15
  -4   2   1 772.938 47.9121   2
   4   2  -1 758.721 38.8662  17
   4   2  -1 714.721 41.7285   8
  -4   2   1 767.950 38.9477  23
   4   2  -1 775.534 53.3655  18
  -4   2   1 757.112 36.7444   5
  -3  -2   1 4.90671 2.06727  15
   3  -2  -1 4.83267 1.68762  16
   3  -2  -1 3.08661 3.62741  10
   3  -2  -1 3.18187 1.50689  17
  -3  -2   1 6.67462 4.84153   3
   3  -2  -1 1.27236 3.83518  21
   3  -2  -1 6.14205 1.92969   8
   3  -2  -1 3.43856 1.67921  14
   3  -2  -1 6.57967 3.95047   1
  -3  -2   1 6.06500 1.70287   9
  -3  -2   1 4.23415 2.67299  19
   3  -2  -1 5.74319 3.47719  11
  -3  -2   1 7.13733 3.47162   2
  -3  -2   1 4.42221 2.99510  13
   3   2  -1 17.8771 3.92660  10
  -3   2   1 3.20642 6.48769   3
   3   2  -1 2.82989 3.63596   1
  -3   2   1 3.85228 3.22532  18
  -3   2   1 8.49654 1.83908   9
  -3   2   1 5.36937 2.20575  15
  -3   2   1 16.4301 3.70772  13
   3   2  -1 3.56496 1.82000   8
   3   2  -1 7.50305 3.57957  18
  -3   2   1 7.61709 2.75811  12
   3   2  -1 4.14835 1.90453  16
  -3   2   1 12.0333 3.82914   2
  -3   2   1 4.11621 3.03128  19
   3   2  -1 7.17030 3.46333  11
   3   2  -1 2.28314 1.85174  14
   3   2  -1 3.17781 1.55510  17
  -2  -2   1 1349.92 69.8959  12
   2  -2  -1 1337.31 75.4686  10
   2  -2  -1 1278.24 71.4959  13
   2  -2  -1 1345.74 72.5603   1
   2  -2  -1 1248.93 69.9259  12
  -2  -2   1 1135.33 69.6828  12
  -2  -2   1 1413.57 71.4623  13
  -2  -2   1 1339.93 78.0669   3
   2  -2  -1 1323.56 75.5297  11
   2  -2  -1 1387.82 72.1778  21
  -2  -2   1 1390.08 72.5257  19
   2  -2  -1 1358.68 72.7755  14
  -2  -2   1 1114.71 71.5378  13
  -2  -2   1 1305.18 61.8470   9
  -2  -2   1 1352.73 70.8817  15
   2  -2  -1 1381.82 71.8392   8
  -2  -2   1 1365.68 82.2625  20
  -2  -2   1 1348.04 80.4432   2
  -2   2   1 1316.39 70.9379  15
   2   2  -1 1327.34 71.6461   8
   2   2  -1 1304.17 70.0280  12
  -2   2   1 1260.99 80.5414   2
   2   2  -1 1374.39 72.5629   1
  -2   2   1 1318.26 88.9581  18
  -2   2   1 1337.47 61.9352   9
   2   2  -1 1346.62 89.0913  18
  -2   2   1 1370.10 71.6526  13
   2   2  -1 1232.24 71.6043  13
  -2   2   1 1342.50 69.7020  12
   2   2  -1 1330.58 75.3097  10
   2   2  -1 1461.91 75.7339  11
   2   2  -1 1322.43 72.8627  14
  -2   2   1 1322.94 72.6543  19
   1  -2  -1 3890.38 271.849  20
   1  -2  -1 4443.21 248.658  10
  -1  -2   1 4723.23 236.017  13
   1  -2  -1 4732.28 236.218  13
   1  -2  -1 4607.27 231.050  12
  -1  -2   1 4336.49 230.951  12
  -1  -2   1 4547.09 234.833  15
  -1  -2   1 4000.79 249.041  10
  -1  -2   1 4083.69 236.508  13
   1  -2  -1 4782.28 249.110  10
   1  -2  -1 4410.35 241.607  14
  -1  -2   1 4705.15 239.253  19
  -1  -2   1 4382.92 254.252   3
   1  -2  -1 4137.83 249.127  11
  -1  -2   1 4245.20 230.580  12
   1   2  -1 4542.44 293.507  18
   1   2  -1 4374.38 236.581  13
   1   2  -1 4442.31 249.120  10
   1   2  -1 4485.50 238.096   1
  -1   2   1 4055.20 230.993  12
   1   2  -1 4495.51 265.749   2
  -1   2   1 4165.09 236.583  13
  -1   2   1 4376.69 248.485  10
  -1   2   1 4665.44 238.599   1
   1   2  -1 4460.11 249.091  11
  -1   2   1 4674.82 265.724   2
   1   2  -1 4713.47 248.646  10
   1   2  -1 4796.96 249.295  11
  -1   2   1 4626.25 236.006  13
  -1   2   1 4511.26 230.622  12
  -1   2   1 4534.86 234.967  15
   1   2  -1 4500.35 230.831  12
  -1   2   1 4366.13 239.039  19
  -1   2   1 3917.88 249.210  11
   1   2  -1 4368.08 241.843  14
   0  -2  -1 4354.88 238.128  11
   0  -2  -1 4580.12 238.929  11
   0  -2  -1 4104.32 238.372  10
   0  -2  -1 4428.68 242.046   3
   0  -2   1 4473.24 220.563  12
   0  -2  -1 3928.61 259.789  20
   0  -2   1 3942.60 259.754  20
   0  -2   1 3837.67 226.001  13
   0  -2  -1 4500.81 226.509  13
   0  -2   1 3805.17 221.029  12
   0  -2  -1 4328.44 237.957  10
   0  -2   1 4092.52 224.644  21
   0  -2   1 4739.40 242.632   3
   0  -2  -1 3937.91 220.679  12
   0  -2   1 3839.42 225.685  13
   0  -2   1 4162.38 237.674  10
   0   2   1 4680.45 225.149  21
   0   2   1 4180.52 253.804   2
   0   2   1 4460.20 280.860  18
   0   2  -1 4165.40 238.670  11
   0   2   1 4670.15 225.801  13
   0   2  -1 4266.66 254.745   2
   0   2   1 3686.49 220.941  12
   0   2   1 3845.29 220.525  12
   0   2  -1 4467.08 225.898  13
   0   2  -1 4769.57 280.971  18
   0   2  -1 4570.56 238.034  11
   0   2  -1 4315.28 229.722  19
   0   2  -1 3945.28 221.194  12
   0   2   1 3595.48 226.046  13
   0   2   1 4614.91 238.026  11
   0   2  -1 4346.25 237.858  10
   0   2  -1 4251.09 238.221  10
  -1  -2  -1 423.028 23.4509  13
  -1  -2  -1 423.573 23.0418   8
   1  -2   1 449.897 26.8493  20
   1  -2   1 406.460 24.7188  11
  -1  -2  -1 427.036 23.7067  14
  -1  -2  -1 461.015 25.1926   3
   1  -2   1 461.134 23.5785  21
   1  -2   1 414.764 23.6518   1
  -1  -2  -1 450.479 24.6075  10
   1  -2   1 427.786 20.1238   9
  -1  -2  -1 442.681 22.7807  12
  -1  -2  -1 454.317 27.0020  20
   1  -2   1 369.829 22.8021  12
   1  -2   1 450.162 22.9251  15
   1  -2   1 483.637 22.8190  12
   1  -2   1 446.073 23.3153  13
   1  -2   1 428.005 24.5678  10
   1  -2   1 397.241 23.2500  13
  -1  -2  -1 465.628 24.9117  11
  -1   2  -1 427.710 25.1639   3
  -1   2  -1 399.368 24.2333  19
  -1   2  -1 415.777 24.4986  11
  -1   2  -1 398.551 23.3522  13
   1   2   1 394.594 22.8675  15
  -1   2  -1 395.890 26.5699   2
  -1   2  -1 402.103 23.3831  14
  -1   2  -1 423.165 24.6167  10
  -1   2  -1 395.020 22.9224  12
   1   2   1 418.568 23.0308  12
   1   2   1 427.979 23.2634  13
   1   2   1 383.395 24.6227  10
   1   2   1 402.396 24.4852  11
   1   2   1 349.601 19.9135  16
   1   2   1 399.383 24.8849   1
   1   2   1 414.518 23.3044  21
  -2  -2  -1 754.513 48.4696  20
  -2  -2  -1 748.837 41.9008   8
   2  -2   1 770.626 42.2303  13
   2  -2   1 726.225 41.5090  15
   2  -2   1 743.470 36.3183   9
   2  -2   1 763.225 42.4946  21
  -2  -2  -1 743.809 41.2357  12
  -2  -2  -1 704.192 44.3958  10
  -2  -2  -1 747.978 45.6264   3
   2  -2   1 721.582 35.5882  16
   2  -2   1 707.516 48.1381  20
   2  -2   1 721.734 38.8660  17
  -2  -2  -1 734.641 42.7018  14
   2  -2   1 752.225 43.4261   1
  -2  -2  -1 766.000 39.1611  17
  -2  -2  -1 747.682 42.1077  19
   2  -2   1 751.316 41.2191  12
  -2  -2  -1 742.455 35.6166  16
  -2  -2  -1 736.929 44.6768  11
  -2  -2  -1 744.821 42.3977  13
  -2   2  -1 786.971 47.2659   2
  -2   2  -1 780.316 44.6102  10
   2   2   1 792.426 42.2419  13
  -2   2  -1 857.068 43.3406  19
  -2   2  -1 802.328 42.5466  13
  -2   2  -1 773.429 41.3844  12
  -2   2  -1 782.177 44.5480  11
   2   2   1 829.784 44.3177   1
   2   2   1 653.716 53.2904  18
  -2   2  -1 786.294 39.0632  17
   2   2   1 758.711 41.5921  15
   2   2   1 836.023 38.8811  17
   2   2   1 785.586 36.4081   9
  -2   2  -1 818.385 42.6338  14
  -2   2  -1 814.699 41.9616   8
  -2   2  -1 775.973 35.6959  16
  -2   2  -1 816.424 45.5371   3
   2   2   1 820.047 41.5727  12
   2   2   1 821.104 42.1023  21
  -3  -2  -1 1008.13 45.8755  16
  -3  -2  -1 943.977 50.9526   6
   3  -2   1 1049.47 45.9617  16
   3  -2   1 982.032 54.6508  13
   3  -2   1 992.964 54.9392  21
   3  -2   1 954.849 53.4041  12
   3  -2   1 894.142 56.7672   1
  -3  -2  -1 955.636 59.1731   3
  -3  -2  -1 1032.22 50.4395  17
  -3   2  -1 1020.25 59.2955   3
   3   2   1 944.120 54.2346   4
  -3   2  -1 1039.85 50.3462  17
   3   2   1 976.530 54.6248  13
   3   2   1 979.744 53.7058  12
  -3   2  -1 953.780 55.3606  19
  -3   2  -1 1013.58 45.9589  16
   3   2   1 991.845 57.3840   1
   3   2   1 973.820 54.2041  21
  -4  -2  -1 925.073 43.4037  16
  -4  -2  -1 935.363 57.8344   3
  -4  -2  -1 922.021 48.5905   6
  -4  -2  -1 941.308 47.8513  17
   4  -2   1 887.661 52.8305  21
  -4   2  -1 919.655 47.6746  23
  -4   2  -1 948.217 43.4321  16
   4   2   1 939.322 52.1263   4
  -4   2  -1 879.394 48.7110   6
  -4   2  -1 923.246 47.6248  17
   4   2   1 945.950 57.1732   1
  -5  -2  -1 1407.20 71.8633   6
   5   2   1 1382.54 76.6240   4
  -5   2  -1 1331.05 70.1325  23
  -6  -2  -1 34.9917 5.08022   6
   6   2   1 33.9447 6.38761   4
  -6  -3   1 36.8181 5.26851   6
  -6   3   1 37.6680 4.43600  23
   6   3  -1 26.6026 5.77394   4
   5  -3  -1 461.373 25.5243  17
   5  -3  -1 486.280 23.8405  16
  -5  -3   1 458.027 26.7866   6
  -5  -3   1 510.411 24.6671   9
   5  -3  -1 415.368 28.2765   4
  -5   3   1 492.757 25.8064  23
   5   3  -1 491.319 28.1869   4
   5   3  -1 472.081 25.9025  17
   5   3  -1 472.913 23.7789  16
  -4  -3   1 383.044 22.1314   6
  -4  -3   1 368.930 28.0184   3
   4  -3  -1 402.536 24.9613  21
  -4  -3   1 372.328 22.6309  15
  -4  -3   1 394.930 24.1066  19
  -4  -3   1 374.190 23.1551  12
   4  -3  -1 399.845 19.4067  16
   4  -3  -1 409.350 21.0025  17
   4  -3  -1 368.156 25.8619   1
  -4  -3   1 413.671 20.9655  23
  -4  -3   1 405.021 19.7513   9
  -4   3   1 402.613 21.2659  23
   4   3  -1 358.054 30.3435  18
  -4   3   1 362.525 19.6109   9
   4   3  -1 400.609 19.5403  16
  -4   3   1 401.728 22.9379  12
  -4   3   1 383.822 25.1146  19
  -4   3   1 366.254 26.6498   2
  -4   3   1 380.173 22.9036  15
  -4   3   1 380.770 19.7529   5
  -4   3   1 388.341 22.9394   4
   4   3  -1 391.171 21.1445  17
   4   3  -1 401.927 26.0179   1
   4   3  -1 409.728 22.9561   4
  -3  -3   1 4914.54 267.819  13
   3  -3  -1 4948.11 273.692  14
   3  -3  -1 5164.69 271.206   1
   3  -3  -1 5065.53 250.629  17
  -3  -3   1 4775.77 288.946   3
  -3  -3   1 5151.51 266.140  15
   3  -3  -1 4793.00 282.417  10
   3  -3  -1 5125.56 267.856  21
   3  -3  -1 4799.78 229.486  16
   3  -3  -1 5085.78 269.837   8
  -3  -3   1 5098.25 232.456   9
   3  -3  -1 4903.34 282.845  11
  -3  -3   1 5030.83 261.763  12
  -3  -3   1 5113.32 271.165  19
  -3   3   1 4958.66 232.491   9
   3   3  -1 5064.09 269.510   8
   3   3  -1 4845.55 250.775  17
  -3   3   1 5053.44 268.146  13
  -3   3   1 5039.60 261.507  12
  -3   3   1 5153.22 271.907  19
  -3   3   1 4917.74 301.412   2
   3   3  -1 5121.93 282.826  11
  -3   3   1 5214.18 266.279  15
  -3   3   1 4863.77 332.503  18
   3   3  -1 4916.96 282.193  10
   3   3  -1 4861.76 229.514  16
   3   3  -1 5045.85 273.882  14
   3   3  -1 4984.96 270.948   1
   3   3  -1 5146.87 333.256  18
   2  -3  -1 377.192 24.8826  21
  -2  -3   1 454.958 24.2544  19
   2  -3  -1 410.053 23.7679  14
  -2  -3   1 408.921 26.7881   3
  -2  -3   1 438.860 23.7554  13
   2  -3  -1 409.682 25.3959  11
   2  -3  -1 446.058 24.7299   1
   2  -3  -1 412.364 23.6970   8
  -2  -3   1 413.567 23.4305  12
   2  -3  -1 387.076 21.6841  17
   2  -3  -1 400.623 20.1638  16
  -2  -3   1 430.443 20.3258   9
   2  -3  -1 424.618 27.0416  20
   2  -3  -1 426.655 25.4733  10
  -2  -3   1 416.892 23.2760  15
   2   3  -1 425.230 23.3950   8
  -2   3   1 444.210 24.3110  13
   2   3  -1 424.339 25.1706  10
   2   3  -1 392.921 23.9886  14
   2   3  -1 440.985 24.5086   1
   2   3  -1 428.921 25.4460  11
  -2   3   1 447.027 24.6326  19
  -2   3   1 419.234 23.4105  15
  -2   3   1 409.047 29.6868  18
  -2   3   1 423.563 20.3807   9
   2   3  -1 434.826 26.9124   2
  -2   3   1 431.599 23.1223  12
   2   3  -1 449.698 30.2076  18
   1  -3  -1 1569.55 86.3598  14
   1  -3  -1 1583.56 84.8573  13
   1  -3  -1 1581.30 85.3932  21
  -1  -3   1 1623.03 84.6480  13
   1  -3  -1 1649.52 89.6339  11
  -1  -3   1 1584.61 84.1311  15
  -1  -3   1 1570.75 98.0445  20
  -1  -3   1 1461.99 73.5053   9
   1  -3  -1 1539.80 83.2971  12
   1  -3  -1 1466.40 89.8394  10
   1  -3  -1 1517.32 85.2765   8
   1  -3  -1 1573.65 98.0196  20
  -1  -3   1 1676.56 86.0222  19
  -1  -3   1 1478.75 82.7503  12
  -1  -3   1 1505.16 89.2953  11
  -1  -3   1 1476.28 85.1680  13
  -1  -3   1 1530.71 89.7941  10
  -1  -3   1 1660.44 83.0605  12
  -1  -3   1 1687.30 91.8382   3
   1   3  -1 1531.55 86.5347  14
  -1   3   1 1754.93 95.7465   2
  -1   3   1 1738.67 85.9701  19
  -1   3   1 1481.47 83.1087  12
   1   3  -1 1671.85 95.6760   2
   1   3  -1 1568.05 84.9814   8
   1   3  -1 1378.34 85.3248  13
  -1   3   1 1685.85 82.8526  12
  -1   3   1 1550.66 84.2898  15
   1   3  -1 1594.34 83.2357  12
  -1   3   1 1518.47 89.1574  10
   1   3  -1 1684.87 105.821  18
  -1   3   1 1646.96 85.3988  13
   1   3  -1 1445.20 89.7139  11
   1   3  -1 1593.41 85.3417   1
  -1   3   1 1515.85 84.6424  13
  -1   3   1 1648.72 86.1085   1
  -1   3   1 1567.78 73.5907   9
   1   3  -1 1614.80 89.3777  10
  -1   3   1 1516.15 89.7635  11
   0  -3  -1 310.192 18.5690  13
   0  -3   1 288.121 18.0664  12
   0  -3   1 283.322 17.6734  15
   0  -3   1 328.246 17.8747  21
   0  -3   1 318.451 19.5974   3
   0  -3  -1 311.534 17.6244   8
   0  -3  -1 306.820 17.7741  12
   0  -3   1 286.933 19.4507  11
   0  -3   1 349.525 21.0957  20
   0  -3   1 315.530 18.2470  13
   0  -3  -1 332.475 19.5397  10
   0  -3  -1 335.994 19.9336  11
   0  -3  -1 329.237 18.9101   3
   0  -3   1 341.604 17.4496  12
   0  -3  -1 326.058 18.4656  21
   0  -3  -1 325.842 21.1101  20
   0   3  -1 309.200 17.8636   8
   0   3  -1 344.746 19.5629  10
   0   3  -1 335.448 19.2317  19
   0   3   1 287.741 19.2222  10
   0   3  -1 344.661 18.5298  12
   0   3   1 340.696 18.1129  13
   0   3  -1 322.206 17.7708  14
   0   3   1 271.978 17.7229  15
   0   3   1 314.890 23.3499  18
   0   3  -1 319.284 18.2166  13
   0   3   1 346.188 19.2721   1
   0   3  -1 264.362 21.0270   2
   0   3   1 319.450 18.1095  12
   0   3   1 298.475 18.3310  13
   0   3   1 293.308 17.4957  12
   0   3  -1 266.877 22.9747  18
   0   3  -1 352.873 19.0723  11
   0   3   1 339.118 20.4607   2
   0   3   1 343.425 19.1879  11
   1  -3   1 731.050 33.1659  16
  -1  -3  -1 755.799 45.6494  20
  -1  -3  -1 695.013 38.4245  12
   1  -3   1 773.843 39.7869  21
  -1  -3  -1 728.671 42.2696   3
   1  -3   1 708.310 38.7579  15
   1  -3   1 633.887 41.6795  11
  -1  -3  -1 710.874 39.7294  13
  -1  -3  -1 600.380 36.5186  17
  -1  -3  -1 748.012 41.7080  10
  -1  -3  -1 698.911 33.2600  16
   1  -3   1 725.609 39.4812  13
   1  -3   1 744.267 45.2662  20
  -1  -3  -1 751.620 42.1497  11
  -1  -3  -1 610.347 40.0151  14
   1  -3   1 744.967 38.3444  12
  -1  -3  -1 715.317 39.1028   8
   1  -3   1 664.587 41.3848  10
   1  -3   1 676.242 33.7825   9
   1   3   1 785.578 39.4379  13
  -1   3  -1 706.394 48.8428  18
   1   3   1 795.004 50.6181  18
  -1   3  -1 713.139 42.3069   3
  -1   3  -1 614.396 40.5440  19
   1   3   1 695.742 41.1894   1
  -1   3  -1 720.979 39.3349   8
  -1   3  -1 804.946 41.5586  11
   1   3   1 769.556 33.6105  16
   1   3   1 740.890 39.1104  12
  -1   3  -1 657.320 44.9586   2
  -1   3  -1 696.809 39.6631  14
   1   3   1 772.305 41.6506  11
  -1   3  -1 661.333 36.3699  17
   1   3   1 729.592 34.0742   9
  -1   3  -1 691.013 33.5687  16
   1   3   1 750.713 38.8907  15
   1   3   1 779.056 39.3397  21
   1   3   1 679.080 41.8257  10
  -1   3  -1 717.833 38.7602  12
  -1   3  -1 783.283 41.7837  10
  -1   3  -1 734.563 39.4982  13
   2  -3   1 5162.03 262.326  12
   2  -3   1 5260.02 267.831  21
   2  -3   1 4924.15 232.997   9
  -2  -3  -1 4893.70 283.252  11
   2  -3   1 5016.14 266.589  15
  -2  -3  -1 5244.67 308.960  20
   2  -3   1 5055.79 308.252  20
   2  -3   1 4832.09 251.173  17
  -2  -3  -1 4937.36 274.564  14
  -2  -3  -1 5395.96 288.454   3
  -2  -3  -1 4818.98 251.356  17
   2  -3   1 5154.43 268.453  13
  -2  -3  -1 5003.90 268.708  13
  -2  -3  -1 4884.80 282.730  10
   2  -3   1 4221.51 270.756   1
  -2  -3  -1 4999.76 262.248  12
  -2  -3  -1 5031.03 229.866  16
  -2  -3  -1 4864.33 270.044   8
   2   3   1 4869.50 266.605  15
  -2   3  -1 5161.91 301.915   2
  -2   3  -1 5194.83 288.215   3
   2   3   1 5299.28 262.845  12
  -2   3  -1 4858.54 274.213  14
  -2   3  -1 5395.01 272.676  19
  -2   3  -1 5065.58 251.298  17
  -2   3  -1 5121.00 268.684  13
   2   3   1 5371.60 334.772  18
   2   3   1 5188.95 268.440  13
  -2   3  -1 4913.36 262.431  12
   2   3   1 4994.90 251.077  17
  -2   3  -1 4965.97 282.908  11
   2   3   1 4789.88 230.185  16
   2   3   1 4929.35 272.317   1
   2   3   1 4997.68 266.877  21
  -2   3  -1 5045.85 270.148   8
  -2   3  -1 5062.61 229.978  16
  -2   3  -1 4943.04 282.683  10
   2   3   1 4908.24 233.137   9
  -3  -3  -1 705.935 35.9687  17
   3  -3   1 741.402 40.3020  21
   3  -3   1 665.737 38.2785  12
   3  -3   1 712.853 39.3846  13
  -3  -3  -1 653.357 36.2624   6
  -3  -3  -1 690.909 42.9375   3
  -3  -3  -1 720.445 32.6012  16
  -3   3  -1 692.677 35.9628  23
   3   3   1 676.961 39.3556  13
   3   3   1 686.632 33.0519  16
   3   3   1 658.241 38.8938   4
  -3   3  -1 684.920 35.6962  17
   3   3   1 691.789 39.0434  12
  -3   3  -1 720.330 40.5019  19
  -3   3  -1 710.168 32.6604  16
   3   3   1 679.566 42.3324   1
  -3   3  -1 638.241 42.6072   3
  -4  -3  -1 1115.85 52.0586  16
  -4  -3  -1 1042.04 57.2091  17
  -4  -3  -1 1087.80 58.0627   6
  -4   3  -1 1136.55 52.0973  16
  -4   3  -1 1126.85 57.2496  23
  -4   3  -1 1120.53 57.0565  17
   4   3   1 1145.56 62.1585   4
  -5  -3  -1 54.3953 6.18424   6
   5   3   1 44.0760 7.47337   4
  -5   3  -1 38.9876 4.76296  23
  -6  -3  -1 84.1059 7.05859   6
   6   3   1 87.9176 8.70764   4
  -6  -4   1 641.482 34.1807   6
   6   4  -1 625.810 36.8383   4
  -6   4   1 649.000 34.0204  23
  -5  -4   1 570.204 31.1273   6
   5  -4  -1 575.738 30.4600  17
  -5   4   1 571.753 28.5708   5
   5   4  -1 534.761 30.5792  17
  -5   4   1 572.930 30.6256  23
   5   4  -1 569.660 33.1642   4
   4  -4  -1 1092.68 50.3787  16
  -4  -4   1 1053.08 66.4148   3
   4  -4  -1 1102.96 54.7073  17
  -4  -4   1 1016.74 55.8633   6
  -4  -4   1 1100.68 51.0943   9
   4  -4  -1 1050.81 61.2639  21
  -4  -4   1 1068.00 58.7090  15
   4   4  -1 1073.09 58.6800   4
   4   4  -1 1077.08 50.4172  16
  -4   4   1 1018.06 67.3995   2
  -4   4   1 1040.70 51.9272   5
  -4   4   1 1055.83 51.0851   9
  -4   4   1 1125.12 55.3723  23
   4   4  -1 1018.07 54.9239  17
   4   4  -1 1057.34 62.3349   1
  -4   4   1 1065.12 62.2440  19
  -3  -4   1 40.6910 4.47610  15
   3  -4  -1 34.6052 6.72105  10
  -3  -4   1 28.8994 6.95676   3
   3  -4  -1 35.7898 3.66800  17
   3  -4  -1 26.7649 5.96649  11
   3  -4  -1 28.2643 6.96887  21
   3  -4  -1 33.5652 4.21231  14
  -3  -4   1 32.0456 4.18276   6
  -3  -4   1 26.7250 4.51652  19
  -3  -4   1 42.7277 6.09247  13
  -3  -4   1 31.3436 3.47371   9
   3  -4  -1 33.9688 4.46121   8
   3  -4  -1 28.2052 6.49495   1
  -3  -4   1 38.2702 5.97719  12
   3  -4  -1 31.4300 3.61599  16
   3   4  -1 22.6049 3.35254  17
   3   4  -1 27.5847 4.22354  14
  -3   4   1 35.8776 6.56692   2
   3   4  -1 33.2505 6.54990   1
   3   4  -1 35.2680 6.61454  10
  -3   4   1 36.7976 5.10526  12
   3   4  -1 29.9082 6.24750  11
   3   4  -1 34.5799 7.44021  18
   3   4  -1 36.2678 3.70631  16
  -3   4   1 31.9638 6.13975  18
  -3   4   1 27.6866 3.37458   9
  -3   4   1 31.2694 3.61245   5
   3   4  -1 34.1380 4.05078   8
  -3   4   1 32.6176 6.56399  13
  -3   4   1 31.2847 4.03738  23
  -3   4   1 26.4485 5.86942  19
   3   4  -1 39.1822 6.69366   2
   2  -4  -1 1646.61 91.5209  11
   2  -4  -1 1611.31 87.7561  14
  -2  -4   1 1558.89 85.4514  15
   2  -4  -1 1639.70 99.3078  20
  -2  -4   1 1661.16 87.4035  19
   2  -4  -1 1595.72 87.7217   1
  -2  -4   1 1489.25 84.5021  12
  -2  -4   1 1629.65 86.3001  13
   2  -4  -1 1546.39 87.2033  21
   2  -4  -1 1410.93 73.6671  16
  -2  -4   1 1560.29 74.6025   9
   2  -4  -1 1599.18 91.6473  10
   2  -4  -1 1566.17 80.2268  17
  -2  -4   1 1560.11 100.171  20
  -2  -4   1 1576.60 93.6906   3
  -2   4   1 1681.33 107.613  18
  -2   4   1 1636.14 74.7535   9
   2   4  -1 1606.93 91.6139  11
   2   4  -1 1673.45 91.2594  10
   2   4  -1 1715.24 108.323  18
   2   4  -1 1353.53 87.7932  14
  -2   4   1 1680.35 84.3371  12
  -2   4   1 1591.96 97.6918   2
   2   4  -1 1621.32 86.3440   8
   2   4  -1 1651.87 97.3861   2
   2   4  -1 1600.69 73.6283  16
  -2   4   1 1618.33 85.6838  15
   2   4  -1 1645.74 87.4955   1
   2   4  -1 1336.94 80.4543  17
  -2   4   1 1575.97 86.9959  13
  -2   4   1 1722.53 88.3155  19
   1  -4  -1 2086.88 123.232  20
  -1  -4   1 2061.67 104.327  12
   1  -4  -1 2084.13 107.158  21
  -1  -4   1 1746.91 105.790  15
  -1  -4   1 1852.91 123.379  20
   1  -4  -1 1774.14 112.998  10
   1  -4  -1 1988.81 107.078  13
   1  -4  -1 1889.59 99.5536  17
   1  -4  -1 1906.40 91.2007  16
  -1  -4   1 1983.68 106.754  13
  -1  -4   1 2133.26 115.138   3
   1  -4  -1 1903.88 104.816  12
   1  -4  -1 2003.59 108.822  14
  -1  -4   1 1892.79 92.4846   9
   1  -4  -1 2028.99 107.221   8
  -1   4   1 2099.73 104.522  12
   1   4  -1 1940.72 107.077   8
   1   4  -1 2069.01 108.826  14
  -1   4   1 1854.43 108.103   1
  -1   4   1 2145.68 120.817   2
  -1   4   1 2040.33 133.366  18
   1   4  -1 2196.19 108.890  19
   1   4  -1 1874.22 112.747  10
  -1   4   1 2043.26 108.276  19
   1   4  -1 1800.91 104.982  12
   1   4  -1 2054.61 113.055  11
   1   4  -1 1969.32 120.682   2
   1   4  -1 2086.91 107.698  13
  -1   4   1 2251.86 107.392  13
   1   4  -1 1868.14 133.312  18
  -1   4   1 2008.73 92.7791   9
   1   4  -1 1961.95 107.514   1
  -1   4   1 1769.04 106.070  15
   0  -4   1 3223.74 164.563  12
   0  -4   1 3494.68 168.669  13
   0  -4  -1 3038.38 169.362   8
   0  -4  -1 2885.33 144.095  16
   0  -4   1 3130.24 180.805   3
   0  -4  -1 2978.91 177.928  10
   0  -4  -1 3045.92 194.211  20
   0  -4   1 2935.83 167.502  21
   0  -4  -1 2978.86 164.803  12
   0  -4  -1 3512.14 178.576  11
   0  -4  -1 3267.05 172.305  14
   0  -4  -1 3183.07 168.134  21
   0  -4  -1 3480.87 169.048  13
   0  -4  -1 3241.50 157.647  17
   0  -4   1 3026.09 194.107  20
   0  -4   1 2935.46 146.050   9
   0  -4   1 3072.87 167.265  15
   0  -4   1 3245.94 178.169  11
   0  -4  -1 2966.93 180.046   3
   0   4  -1 3199.41 165.297  12
   0   4   1 3536.50 170.670   1
   0   4  -1 3247.04 210.122  18
   0   4   1 2666.51 169.779  19
   0   4  -1 3238.12 171.880  14
   0   4   1 2999.02 177.505  10
   0   4  -1 2818.01 168.764  13
   0   4   1 3004.51 168.564  13
   0   4  -1 3321.98 177.807  10
   0   4  -1 3005.32 177.747  11
   0   4  -1 3319.67 169.391   8
   0   4  -1 3228.21 190.396   2
   0   4  -1 3512.25 171.318  19
   0   4   1 2904.53 177.707  11
   0   4   1 3330.19 146.495   9
   0   4   1 2765.09 209.963  18
   0   4   1 3131.98 167.435  15
   0   4   1 3370.24 165.074  12
  -1  -4  -1 1553.67 90.8567  10
  -1  -4  -1 1447.54 87.5713  14
   1  -4   1 1603.26 84.9767  15
   1  -4   1 1704.75 83.8947  12
  -1  -4  -1 1616.31 92.1408   3
  -1  -4  -1 1526.78 86.4199  13
   1  -4   1 1668.20 74.2583   9
  -1  -4  -1 1589.05 99.4002  20
   1  -4   1 1708.61 86.3126  21
   1  -4   1 1731.59 99.0291  20
  -1  -4  -1 1490.95 80.0565  17
  -1  -4  -1 1587.54 73.0994  16
  -1  -4  -1 1547.27 91.4770  11
  -1  -4  -1 1566.93 85.9470   8
   1  -4   1 1536.34 86.1187  13
  -1  -4  -1 1572.43 84.0340  12
   1   4   1 1674.60 85.3050  15
  -1   4  -1 1565.84 79.9058  17
   1   4   1 1783.25 96.8343   2
  -1   4  -1 1662.15 90.9974  10
  -1   4  -1 1557.29 86.0694  13
  -1   4  -1 1632.96 84.6162  12
  -1   4  -1 1519.91 87.8272  19
  -1   4  -1 1631.32 87.1614  14
   1   4   1 1611.38 74.6453   9
   1   4   1 1432.61 84.6320  12
  -1   4  -1 1692.29 90.5893  11
   1   4   1 1670.42 86.1148  13
   1   4   1 1816.28 108.442  18
  -1   4  -1 1410.14 73.3351  16
  -1   4  -1 1487.20 97.4198   2
   1   4   1 1677.70 73.1957  16
   1   4   1 1561.31 85.4476  21
   1   4   1 1524.18 87.8462   1
  -1   4  -1 1375.49 106.700  18
  -1   4  -1 1330.33 85.9711   8
  -2  -4  -1 334.634 23.1263  14
  -2  -4  -1 381.125 22.5331   8
   2  -4   1 377.755 26.3039  20
   2  -4   1 407.292 22.8230  12
  -2  -4  -1 408.543 27.6087  20
  -2  -4  -1 386.224 24.9737  10
   2  -4   1 392.159 22.4336  15
  -2  -4  -1 373.776 21.1158  17
   2  -4   1 418.434 24.3849  21
  -2  -4  -1 384.995 25.1759  11
  -2  -4  -1 438.212 25.6541   3
   2  -4   1 392.394 19.5824   9
   2  -4   1 411.674 23.5624  13
   2  -4   1 386.247 18.9647  16
  -2  -4  -1 389.050 19.0421  16
   2   4   1 389.102 25.7900   1
  -2   4  -1 392.144 24.5046  11
   2   4   1 435.674 24.0161  12
  -2   4  -1 386.996 25.1754   3
  -2   4  -1 383.908 24.8363  19
   2   4   1 422.951 23.5844  13
   2   4   1 398.723 19.9538   9
   2   4   1 426.013 30.6847  18
  -2   4  -1 385.469 22.6636   8
  -2   4  -1 412.717 19.3025  16
  -2   4  -1 435.629 26.9882   2
   2   4   1 384.045 19.4225  16
  -2   4  -1 406.790 20.9481  17
  -2   4  -1 392.635 22.7322  14
  -2   4  -1 374.615 24.6102  10
   2   4   1 409.763 22.6781  15
  -3  -4  -1 1570.60 79.4846   6
  -3  -4  -1 1627.75 71.6709  16
   3  -4   1 1615.00 85.1084  13
  -3  -4  -1 1542.82 78.6281  17
   3  -4   1 1603.31 85.9202  21
   3  -4   1 1503.55 69.9664   7
  -3  -4  -1 1625.84 92.2007   3
   3  -4   1 1502.36 82.8839  12
   3   4   1 1404.63 84.9209  13
  -3   4  -1 1525.72 86.9420  19
   3   4   1 1516.73 83.9630  12
  -3   4  -1 1536.85 78.8820  23
   3   4   1 1425.35 84.0710   4
  -3   4  -1 1595.53 71.7225  16
  -3   4  -1 1619.23 78.4287  17
   3   4   1 1434.94 88.2218   1
  -4  -4  -1 421.156 20.9377  16
  -4  -4  -1 434.929 23.7408   6
  -4   4  -1 396.884 20.8713  16
  -4   4  -1 444.633 23.3420  23
   4   4   1 423.918 26.2270   4
  -4   4  -1 407.769 23.0265  17
  -5  -4  -1 626.817 35.0040   6
   5   4   1 605.962 37.6852   4
  -5   4  -1 696.667 34.4501  23
  -6  -4  -1 90.2148 6.56412   6
   6   4   1 78.2574 7.59424   4
  -6  -5   1 190.963 11.2411   6
  -6   5   1 170.764 11.5548  23
   6   5  -1 193.558 13.3618   4
   5  -5  -1 556.723 31.1059  17
  -5  -5   1 595.756 31.3825   6
  -5   5   1 563.827 31.3545  23
   5   5  -1 520.769 29.2079  16
   5   5  -1 626.293 34.1973   4
  -5   5   1 596.636 29.2357   5
   5   5  -1 572.491 31.0961  17
   4  -5  -1 730.773 36.2972  17
  -4  -5   1 657.798 36.6513   6
  -4  -5   1 636.095 34.9369  22
   4  -5  -1 688.263 33.3220  16
  -4  -5   1 722.479 34.0147   9
  -4  -5   1 716.769 39.3340  15
  -4   5   1 670.115 36.7531  23
   4   5  -1 724.628 39.1520   4
  -4   5   1 661.441 34.3268   9
  -4   5   1 697.358 34.3200   5
   4   5  -1 624.011 36.1572  17
   3  -5  -1 77.4728 6.50036   7
   3  -5  -1 87.1127 11.2025  21
  -3  -5   1 87.5902 9.29540  13
  -3  -5   1 97.3957 11.1820   3
  -3  -5   1 90.5929 6.48765   9
   3  -5  -1 74.2843 10.1344   1
  -3  -5   1 87.3718 8.73814  12
   3  -5  -1 87.9731 7.69088  14
   3  -5  -1 82.9873 6.28886  16
   3  -5  -1 71.4119 7.51154   8
  -3  -5   1 87.7560 6.91068  22
  -3  -5   1 94.1035 7.00634   6
   3  -5  -1 90.9428 6.50828  17
  -3  -5   1 98.0372 7.75278  15
   3   5  -1 92.3789 7.14786   8
   3   5  -1 76.1693 6.70655  17
   3   5  -1 85.2902 7.79699   4
  -3   5   1 86.4122 6.35650   5
  -3   5   1 77.6470 10.5800  19
  -3   5   1 75.6136 7.56050  23
  -3   5   1 105.224 6.24044  22
  -3   5   1 84.3378 10.7702   2
  -3   5   1 75.5654 10.7430  13
  -3   5   1 89.3472 6.47113   9
  -3   5   1 109.062 11.3666  18
   3   5  -1 77.5729 13.0568  18
  -3   5   1 93.9497 8.44857  12
   3   5  -1 93.3092 10.6700   2
   3   5  -1 85.7186 11.0009   1
   3   5  -1 82.0996 7.57029  14
  -3   5   1 85.5576 7.60821  15
   2  -5  -1 1172.64 63.2693  21
   2  -5  -1 942.818 62.9163   1
   2  -5  -1 1094.84 71.8040  20
   2  -5  -1 1185.72 66.6617  11
  -2  -5   1 1108.09 53.6295   9
   2  -5  -1 1111.76 52.8395  16
  -2  -5   1 1316.99 72.9190  20
   2  -5  -1 1141.88 57.5658  17
  -2  -5   1 1198.37 67.6035   3
   2  -5  -1 1027.62 66.4613  10
  -2  -5   1 1162.77 61.6263  15
   2  -5  -1 1010.79 61.9825   8
  -2  -5   1 1150.28 62.4493  13
  -2  -5   1 1207.21 60.8879  12
   2  -5  -1 1113.69 62.9895  14
  -2   5   1 1040.89 62.7866  13
  -2   5   1 1167.39 71.2641   2
  -2   5   1 1215.99 78.2965  18
   2   5  -1 1193.95 66.4942  10
  -2   5   1 1100.89 61.7015  15
  -2   5   1 1141.74 60.9274  12
  -2   5   1 979.208 63.6892  19
   2   5  -1 1115.74 79.0126  18
   2   5  -1 1142.19 57.7271  17
   2   5  -1 1180.57 63.0222  14
   2   5  -1 1153.43 62.0244   8
   2   5  -1 1137.08 63.4257   1
   2   5  -1 1020.45 66.2170  11
   2   5  -1 1222.70 53.2972  16
  -2   5   1 1113.17 53.7517   9
   2   5  -1 1128.19 70.8373   2
   1  -5  -1 927.813 46.1093   8
   1  -5  -1 789.677 42.9001  17
  -1  -5   1 945.304 45.3629  12
   1  -5  -1 786.288 50.0481  11
   1  -5  -1 942.898 53.8953  20
   1  -5  -1 953.262 47.0420  21
  -1  -5   1 917.175 54.4056  20
   1  -5  -1 881.985 39.1328  16
  -1  -5   1 741.690 46.4139  13
   1  -5  -1 828.354 47.0840  14
  -1  -5   1 868.254 39.8116   9
  -1  -5   1 947.695 50.2276   3
   1  -5  -1 876.234 49.8716  10
  -1  -5   1 840.090 45.7428  15
   1   5  -1 873.953 46.6646  14
   1   5  -1 784.610 49.4178  10
  -1   5   1 768.989 45.5948  12
   1   5  -1 744.906 39.4812  16
   1   5  -1 707.259 46.0327   8
   1   5  -1 858.135 42.8067  17
  -1   5   1 825.020 45.9864  15
  -1   5   1 968.262 46.9986  13
   1   5  -1 806.420 47.7180  19
  -1   5   1 685.214 52.7014   2
  -1   5   1 844.015 47.3303   1
  -1   5   1 795.110 40.2135   9
   1   5  -1 877.424 49.3492  11
  -1   5   1 720.718 58.4687  18
   1   5  -1 717.894 52.8652   2
   0  -5  -1 710.838 39.1909  21
   0  -5   1 664.793 33.2989   9
   0  -5   1 649.319 37.9841  12
   0  -5   1 672.697 41.6243   3
   0  -5  -1 711.836 35.8085  17
   0  -5  -1 680.938 41.8366  11
   0  -5   1 629.971 45.3684  20
   0  -5  -1 690.055 39.2789  13
   0  -5  -1 646.529 38.4107   8
   0  -5  -1 644.005 32.6082  16
   0  -5  -1 644.397 38.1610  12
   0  -5   1 664.231 38.1250  15
   0  -5   1 746.385 39.0989  13
   0  -5  -1 726.612 41.9000  10
   0  -5  -1 651.613 45.2838  20
   0   5   1 678.476 44.3717   2
   0   5  -1 673.702 41.4056  11
   0   5  -1 676.052 39.0484  14
   0   5   1 734.859 39.3510  13
   0   5   1 745.225 38.5761  12
   0   5   1 685.284 38.9824  19
   0   5  -1 685.957 32.8333  16
   0   5  -1 756.113 44.9004   2
   0   5  -1 659.100 35.8872  17
   0   5   1 773.202 50.2525  18
   0   5  -1 696.599 38.3662   8
   0   5  -1 723.535 41.3680  10
   0   5  -1 760.561 40.0229  19
   0   5   1 727.427 38.4814  15
   0   5  -1 725.068 49.3223  18
   0   5   1 762.355 39.9050   1
   0   5   1 675.936 33.5694   9
  -1  -5  -1 3300.50 152.271  16
   1  -5   1 3209.84 178.462  13
  -1  -5  -1 3228.27 178.974   8
   1  -5   1 3393.27 176.879  15
   1  -5   1 3532.19 174.241  12
   1  -5   1 3117.90 177.871  21
   1  -5   1 3536.57 205.428  20
  -1  -5  -1 3479.09 181.955  14
  -1  -5  -1 3127.59 188.867  11
  -1  -5  -1 3173.67 190.977   3
  -1  -5  -1 3230.15 205.710  20
   1  -5   1 3520.17 154.536   9
  -1  -5  -1 2997.55 188.255  10
  -1  -5  -1 3379.95 166.398  17
  -1  -5  -1 3304.00 177.381  21
   1   5   1 3050.22 178.295  13
   1   5   1 3405.91 180.684   1
   1   5   1 3040.72 176.989  15
   1   5   1 3650.10 222.680  18
  -1   5  -1 3486.63 201.426   2
   1   5   1 3004.24 154.838   9
   1   5   1 3733.73 200.464   2
   1   5   1 3491.78 152.062  16
  -1   5  -1 3220.65 181.538  14
  -1   5  -1 3042.24 188.102  10
  -1   5  -1 3349.37 188.041  11
  -1   5  -1 3330.25 166.473  17
  -1   5  -1 3253.21 178.958   8
  -1   5  -1 3699.38 181.417  19
  -1   5  -1 3094.48 221.503  18
  -1   5  -1 3301.27 152.457  16
  -2  -5  -1 201.503 9.71894  16
   2  -5   1 182.766 13.3078  13
   2  -5   1 188.220 14.4344  20
  -2  -5  -1 189.891 14.0341   3
   2  -5   1 189.016 11.6537  15
  -2  -5  -1 167.424 10.6936  17
   2  -5   1 183.397 12.3746  12
   2  -5   1 190.554 10.4405   9
   2  -5   1 168.593 13.7493  21
  -2  -5  -1 184.463 15.8613  20
  -2   5  -1 191.638 10.5932  17
   2   5   1 173.187 14.0525  12
   2   5   1 176.144 13.4739  13
  -2   5  -1 150.177 11.1963  23
   2   5   1 188.248 17.2694  18
  -2   5  -1 172.008 9.75312  16
   2   5   1 173.982 15.6725   1
   2   5   1 192.875 9.59024  16
  -2   5  -1 169.314 14.9944   2
  -2   5  -1 155.579 13.9082  19
  -2   5  -1 138.717 13.3818   3
   3  -5   1 219.867 16.7114  13
   3  -5   1 209.512 15.1501  12
  -3  -5  -1 206.381 12.9528   6
   3  -5   1 222.542 11.5168   7
   3  -5   1 180.643 16.7552  21
  -3  -5  -1 213.925 17.8049   3
  -3  -5  -1 215.424 11.5444  16
  -3  -5  -1 177.130 12.5889  17
  -3   5  -1 239.189 12.8853  17
  -3   5  -1 188.896 16.9215  19
   3   5   1 204.251 17.1127  12
  -3   5  -1 238.826 18.2760   2
  -3   5  -1 219.741 11.5561  16
   3   5   1 204.396 14.9257   4
   3   5   1 185.619 15.6540  13
  -3   5  -1 234.413 12.3132   5
  -3   5  -1 213.919 13.2316  23
   3   5   1 221.588 20.2314   1
  -4  -5  -1 424.749 22.6540   6
   4   5   1 393.656 24.8140   4
  -4   5  -1 411.872 22.3458  23
  -4   5  -1 343.290 19.4218  16
  -5  -5  -1 153.671 10.8425   6
  -5   5  -1 164.471 10.8209  23
   5   5   1 159.783 12.6468   4
  -6  -6   1 94.6274 6.65345   6
  -6   6   1 100.496 7.33234  23
   6   6  -1 104.452 8.71136   4
  -5  -6   1 189.240 11.7546   6
   5   6  -1 196.110 14.5587   4
  -5   6   1 199.738 11.4464   5
  -5   6   1 167.765 12.4008  23
   4  -6  -1 1688.74 78.3114  16
  -4  -6   1 1659.08 86.3532   6
  -4  -6   1 1591.63 91.9623  15
   4  -6  -1 1755.02 85.8542  17
  -4  -6   1 1886.27 80.8635   9
  -4   6   1 1758.50 81.5703   5
   4   6  -1 1497.89 82.0700  22
   4   6  -1 1758.93 85.5507  17
   4   6  -1 1660.25 91.3803   4
  -4   6   1 1439.29 85.8986  23
   4   6  -1 1694.72 79.1620  16
   3  -6  -1 24.5125 4.19910   7
  -3  -6   1 24.4696 3.89126   6
  -3  -6   1 24.7282 7.24356   3
   3  -6  -1 22.4493 3.93834  16
  -3  -6   1 28.4389 4.66921   9
  -3  -6   1 34.9435 6.13345  15
  -3  -6   1 27.7271 6.50397  12
   3  -6  -1 19.5376 8.38278  21
   3  -6  -1 22.6277 4.21823  17
   3   6  -1 29.4528 11.3279   1
   3   6  -1 22.7203 5.63816   4
  -3   6   1 23.3430 3.83780  22
  -3   6   1 18.6477 4.72218  23
  -3   6   1 20.1349 9.81182   2
  -3   6   1 23.5562 8.16870  19
  -3   6   1 23.4232 7.08683  12
  -3   6   1 20.4172 8.33253  18
  -3   6   1 28.3306 6.08207  15
   3   6  -1 20.5636 3.57997  17
  -3   6   1 21.9278 4.53010   9
   3   6  -1 23.3106 5.12040  16
  -3   6   1 22.5347 3.97076   5
   3   6  -1 17.2602 10.0336  18
   2  -6  -1 2662.28 133.574   8
   2  -6  -1 2824.93 133.942  21
  -2  -6   1 2379.18 132.202  15
  -2  -6   1 2513.44 129.742  12
  -2  -6   1 2418.29 125.238   6
   2  -6  -1 2594.84 111.075   7
  -2  -6   1 2117.20 133.200  13
   2  -6  -1 2323.24 135.870  14
  -2  -6   1 2807.14 154.150  20
  -2  -6   1 2485.15 115.257   9
   2  -6  -1 2374.43 124.188  17
   2  -6  -1 2677.19 113.559  16
  -2  -6   1 2639.06 143.484   3
  -2   6   1 2337.15 132.486  15
   2   6  -1 2062.75 167.022  18
   2   6  -1 2285.61 141.396  10
  -2   6   1 2284.70 135.642  19
   2   6  -1 2429.11 114.120  16
  -2   6   1 2498.85 133.678  13
  -2   6   1 2035.62 150.741   2
   2   6  -1 2587.44 135.928  19
   2   6  -1 2280.65 133.650   8
  -2   6   1 2406.49 130.557  12
  -2   6   1 2581.47 115.722   9
  -2   6   1 2409.37 166.776  18
   2   6  -1 2379.86 141.318  11
   2   6  -1 2699.98 124.023  17
   2   6  -1 2681.73 135.355  14
  -2   6   1 2405.88 118.684  22
   1  -6  -1 738.160 45.6759  14
   1  -6  -1 840.579 37.8370  16
  -1  -6   1 836.480 48.5236   3
   1  -6  -1 832.903 48.7033  10
   1  -6  -1 852.177 45.3899  21
  -1  -6   1 889.438 53.1290  20
   1  -6  -1 841.414 52.3348  20
  -1  -6   1 799.024 44.3429  15
   1  -6  -1 670.026 48.5697  11
  -1  -6   1 767.298 38.4661   9
  -1  -6   1 828.383 44.0028  12
   1  -6  -1 790.370 41.6734  17
  -1  -6   1 776.917 45.3702  13
   1  -6  -1 779.116 44.4469   8
  -1   6   1 887.350 45.6909  13
   1   6  -1 814.197 46.2963  19
   1   6  -1 818.483 52.0753   2
   1   6  -1 748.308 57.6075  18
  -1   6   1 789.143 44.5161  15
   1   6  -1 853.042 45.1481  14
   1   6  -1 803.438 48.1978  10
  -1   6   1 868.544 46.1070   1
  -1   6   1 847.086 39.2834   9
  -1   6   1 755.255 44.6111  12
   1   6  -1 830.286 41.3776  17
  -1   6   1 830.763 46.0911  19
   1   6  -1 818.451 48.0051  11
   1   6  -1 754.041 38.1660  16
  -1   6   1 765.867 51.9629   2
   1   6  -1 762.303 44.6060   8
  -1   6   1 735.265 57.5863  18
   0  -6  -1 181.268 11.0844  17
   0  -6   1 170.424 12.0776  15
   0  -6   1 172.965 10.4935   9
   0  -6   1 166.412 15.6869  20
   0  -6  -1 174.481 14.5023  11
   0  -6  -1 168.320 12.1555  14
   0  -6  -1 165.952 9.94409  16
   0  -6  -1 174.189 15.1930  20
   0  -6   1 169.510 12.5585  12
   0  -6   1 191.358 13.1643  13
   0  -6  -1 160.298 11.7441   8
   0  -6   1 185.786 13.7403   3
   0  -6  -1 169.971 12.8402  21
   0  -6  -1 165.133 14.0542  10
   0   6  -1 217.554 12.2998  14
   0   6   1 227.884 13.4268  12
   0   6   1 212.891 12.5677  15
   0   6  -1 221.952 14.5603  10
   0   6  -1 222.918 14.5678  11
   0   6   1 240.698 15.9852   2
   0   6  -1 231.033 17.5908  18
   0   6  -1 217.191 10.4516  16
   0   6   1 244.612 18.7077  18
   0   6   1 222.740 13.9465   1
   0   6   1 222.492 13.6301  13
   0   6  -1 212.965 11.9837   8
   0   6  -1 223.588 15.7162   2
   0   6   1 200.817 10.9816   9
   0   6  -1 205.828 11.3763  17
   0   6  -1 217.271 13.7167  19
  -1  -6  -1 2139.26 97.9147  16
  -1  -6  -1 2253.83 106.997  17
   1  -6   1 2039.07 99.6624   9
  -1  -6  -1 2138.60 124.265   3
   1  -6   1 2082.43 115.217  21
   1  -6   1 1999.51 112.691  12
   1  -6   1 1868.27 132.824  20
   1  -6   1 2173.12 115.506  13
  -1  -6  -1 2105.59 133.296  20
  -1  -6  -1 2251.34 117.275  14
   1  -6   1 1985.63 114.105  15
  -1   6  -1 2232.89 98.0928  16
   1   6   1 1863.52 114.223  15
   1   6   1 2363.59 144.474  18
   1   6   1 2064.08 100.081   9
  -1   6  -1 2029.39 107.314  17
  -1   6  -1 2052.38 122.216  11
   1   6   1 2164.58 116.914   1
  -1   6  -1 2012.68 122.167  10
  -1   6  -1 2321.78 130.709   2
   1   6   1 2113.34 113.077  12
   1   6   1 2065.88 115.660  13
  -1   6  -1 2017.55 116.991  14
  -1   6  -1 2244.16 143.879  18
  -1   6  -1 2395.77 117.541  19
   2  -6   1 69.5474 5.69091  24
  -2  -6  -1 74.9249 10.1733   3
   2  -6   1 79.9228 11.0432  20
  -2  -6  -1 79.5575 5.62514  16
  -2  -6  -1 80.8343 6.26642  17
  -2  -6  -1 69.6483 6.46175   6
   2  -6   1 71.3230 10.1114  21
   2  -6   1 72.7715 10.4594  13
  -2  -6  -1 75.2531 5.75016  24
  -2  -6  -1 77.7674 10.8502  20
   2  -6   1 69.9267 9.10433  12
   2  -6   1 69.1662 6.42739   7
  -2   6  -1 81.2354 5.76799  16
  -2   6  -1 77.0883 10.2667  19
   2   6   1 87.1482 11.7197   1
   2   6   1 70.9235 10.7621  12
  -2   6  -1 80.4543 6.58498  17
   2   6   1 86.7145 12.4283  18
  -2   6  -1 77.8883 6.85582  23
   2   6   1 89.8416 10.8689  13
   2   6   1 72.6074 7.82964   4
  -2   6  -1 80.1170 11.0872   2
  -2   6  -1 80.9813 6.70791   5
  -3  -6  -1 2508.81 122.170  17
  -3  -6  -1 2235.30 142.551   3
  -3  -6  -1 2448.36 123.895   6
  -3  -6  -1 2491.64 111.610  16
   3  -6   1 2443.66 109.525   7
  -3   6  -1 2318.65 122.399  17
  -3   6  -1 2284.59 111.619  16
   3   6   1 2373.18 130.602   4
  -3   6  -1 2397.71 116.516   5
   3   6   1 2750.39 139.270   1
  -3   6  -1 2319.42 122.876  23
  -4  -6  -1 512.875 28.6971   6
   4  -6   1 538.294 25.2508   7
  -4   6  -1 486.221 28.4752  23
   4   6   1 531.789 31.1218   4
  -5  -6  -1 174.382 11.3970   6
   5   6   1 186.760 12.8831   4
  -5   6  -1 176.428 11.6357  23
  -5  -7   1 256.846 14.9924   6
  -5   7   1 274.694 15.4733  23
  -5   7   1 248.495 14.5432   5
   5   7  -1 254.915 17.2324   4
  -4  -7   1 159.580 10.6183   6
   4  -7  -1 168.232 9.82907  16
   4  -7  -1 157.490 12.1878  17
   4   7  -1 166.898 11.4450  16
   4   7  -1 157.200 11.1466  22
   4   7  -1 178.552 10.9125  17
  -4   7   1 174.349 11.6856  23
  -4   7   1 160.236 10.8785   5
   4   7  -1 145.316 13.8587   4
   3  -7  -1 2137.38 90.6098   7
  -3  -7   1 2022.11 102.014   6
   3  -7  -1 1896.03 101.398  17
   3  -7  -1 2164.99 92.5231  16
  -3  -7   1 2039.78 94.3690   9
  -3  -7   1 1960.25 108.437  15
   3   7  -1 2176.72 100.950  17
  -3   7   1 2116.93 101.645  23
   3   7  -1 1788.87 138.873  18
   3   7  -1 1934.72 93.1171  16
  -3   7   1 1912.56 96.6416  22
  -3   7   1 1683.66 96.3101   5
   3   7  -1 1960.70 97.1574  22
  -2  -7   1 337.076 22.4393   3
  -2  -7   1 330.986 24.1726  20
  -2  -7   1 316.091 19.4026  12
   2  -7  -1 355.260 21.6088  21
  -2  -7   1 327.766 16.9858   9
  -2  -7   1 314.123 20.0116  15
   2  -7  -1 342.804 16.2471  16
   2  -7  -1 316.929 18.5094  17
  -2  -7   1 328.830 17.8406   6
  -2  -7   1 306.673 21.3774  13
  -2  -7   1 349.372 15.3468  24
   2  -7  -1 338.322 16.1256   7
  -2  -7   1 328.844 17.3680   5
  -2   7   1 264.764 20.4617  12
  -2   7   1 355.382 22.1533  19
   2   7  -1 326.482 17.1203  16
  -2   7   1 309.336 17.5436   5
  -2   7   1 312.337 20.9119  13
  -2   7   1 275.192 27.4338  18
   2   7  -1 336.364 25.2065   2
   2   7  -1 321.256 17.9349  22
  -2   7   1 285.364 17.6596   9
   2   7  -1 334.162 17.6898  17
  -2   7   1 286.488 17.5898  22
   2   7  -1 314.216 28.6568  18
  -2   7   1 326.006 25.5363   2
   1  -7  -1 623.359 30.2582   7
   1  -7  -1 680.632 30.8733  16
  -1  -7   1 640.509 39.8705   3
   1  -7  -1 578.093 42.9540  20
  -1  -7   1 669.326 32.3674   5
   1  -7  -1 651.160 28.9842  24
  -1  -7   1 667.014 43.8584  20
   1  -7  -1 641.713 37.4039  21
  -1  -7   1 686.697 37.7103  13
  -1  -7   1 696.019 29.2038  24
  -1  -7   1 615.661 31.4246   9
   1  -7  -1 658.712 34.0050  17
  -1  -7   1 692.932 36.5570  15
  -1  -7   1 663.492 36.2883  12
   1   7  -1 628.205 33.7102  17
  -1   7   1 670.667 43.4826   2
  -1   7   1 655.873 32.3590   9
   1   7  -1 628.935 37.9460  19
   1   7  -1 624.948 32.7176  22
   1   7  -1 641.093 48.1917  18
   1   7  -1 641.419 43.1473   2
  -1   7   1 634.304 32.7697  22
  -1   7   1 653.975 32.5673   5
   1   7  -1 631.136 31.1703  16
  -1   7   1 657.420 37.2652  12
  -1   7   1 607.511 36.4470  15
  -1   7   1 676.264 37.7808  13
   1   7  -1 640.118 36.4313   8
  -1   7   1 652.000 48.5541  18
   1   7  -1 656.223 36.8789  14
   0  -7  -1 450.754 21.9556  16
   0  -7  -1 451.488 31.5644  20
   0  -7   1 435.670 20.9175  24
   0  -7  -1 441.217 20.7741  24
   0  -7  -1 460.384 24.0660  17
   0  -7   1 443.578 26.4179  12
   0  -7   1 449.385 21.8698   7
   0  -7  -1 436.705 26.7828  21
   0  -7   1 419.186 32.0019  20
   0  -7   1 462.178 27.1452  13
   0  -7   1 452.415 22.7870   9
   0  -7  -1 426.862 21.5703   7
   0  -7   1 430.992 25.9648  15
   0   7   1 459.277 27.3196  13
   0   7   1 431.393 26.4728  15
   0   7  -1 478.518 31.5086   2
   0   7  -1 464.148 23.3060  22
   0   7  -1 445.624 25.8709   8
   0   7  -1 457.805 26.4299  14
   0   7  -1 483.419 34.9060  18
   0   7   1 495.840 35.4681  18
   0   7  -1 459.279 23.1866   5
   0   7   1 471.756 26.9341  12
   0   7   1 483.620 23.5832  22
   0   7  -1 455.832 24.2701  17
   0   7  -1 498.875 27.8951  19
   0   7  -1 460.681 22.2303  16
   0   7   1 472.176 31.1449   2
   1  -7   1 566.626 33.0772  12
   1  -7   1 553.431 39.5482  20
  -1  -7  -1 587.673 27.2509  16
  -1  -7  -1 604.567 29.8413  17
   1  -7   1 523.742 33.1644  13
   1  -7   1 517.739 25.8561  24
  -1  -7  -1 573.132 39.0950  20
   1  -7   1 553.010 33.5966  21
   1  -7   1 576.035 27.1211   7
  -1  -7  -1 563.356 25.7974  24
  -1   7  -1 568.318 30.0282  23
   1   7   1 543.856 34.3752   1
  -1   7  -1 582.195 30.2545  17
  -1   7  -1 554.144 28.6481   5
  -1   7  -1 565.717 42.4050  18
  -1   7  -1 558.263 34.2403  19
  -1   7  -1 577.175 27.4304  16
   1   7   1 558.533 28.7738  22
   1   7   1 663.405 34.7120  13
   1   7   1 531.784 32.9452  12
   1   7   1 602.432 42.9089  18
  -1   7  -1 602.007 38.7057   2
   2  -7   1 1403.58 65.6129  24
   2  -7   1 1326.45 95.9839  20
  -2  -7  -1 1553.94 69.7119  16
   2  -7   1 1383.83 81.6335  12
  -2  -7  -1 1611.40 76.2785  17
  -2  -7  -1 1492.82 65.5519  24
   2  -7   1 1550.15 83.6166  21
   2  -7   1 1400.57 68.5904   7
  -2  -7  -1 1404.38 95.7409  20
   2   7   1 1418.91 82.0412  12
   2   7   1 1409.38 81.2737   4
   2   7   1 1518.23 73.0186  22
  -2   7  -1 1592.58 76.8424  23
   2   7   1 1498.68 85.2875   1
  -2   7  -1 1544.71 73.0424   5
   2   7   1 1535.13 103.935  18
  -2   7  -1 1542.60 76.7334  17
  -2   7  -1 1512.91 94.7819   2
  -2   7  -1 1639.50 69.9916  16
  -2   7  -1 1566.36 85.2283  19
  -3  -7  -1 482.938 22.3081  24
   3  -7   1 463.591 23.9502   7
  -3  -7  -1 483.413 26.7241   6
  -3  -7  -1 517.521 23.4718  16
   3   7   1 490.095 28.6925   4
  -3   7  -1 455.791 26.1667  17
  -3   7  -1 487.549 23.7152  16
  -3   7  -1 513.141 26.7959  23
  -3   7  -1 453.681 25.3985   5
  -4  -7  -1 520.294 28.9548   6
   4  -7   1 523.555 25.8961   7
  -4   7  -1 539.002 28.9730  23
   4   7   1 532.840 31.0610   4
  -5  -7  -1 112.915 7.79316   6
  -5   7  -1 121.969 8.44420  23
   5   7   1 111.118 8.77503   4
  -5  -8   1 521.202 27.0226   6
  -5   8   1 489.031 25.7694   5
  -5   8   1 504.278 26.9395  23
  -4  -8   1 57.1762 5.89034   6
   4  -8  -1 59.5964 6.93473   7
   4  -8  -1 56.9137 5.36954  16
   4   8  -1 60.3275 6.12002  16
   4   8  -1 59.1607 6.60063  22
  -4   8   1 55.2397 6.64933  23
  -4   8   1 57.3844 5.92960   5
   3  -8  -1 14.5096 3.60579  16
  -3  -8   1 13.2384 3.49150   6
   3  -8  -1 14.4926 3.73364   7
   3  -8  -1 9.86702 4.33349  17
  -3   8   1 9.38706 3.83357   5
  -3   8   1 10.6508 3.90042  23
  -3   8   1 11.4236 4.52584  22
   3   8  -1 13.3023 4.36245  22
   3   8  -1 14.3020 4.72522  16
   2  -8  -1 64.4611 5.36410   7
  -2  -8   1 69.7649 5.32663  24
   2  -8  -1 77.3734 5.27420  16
   2  -8  -1 66.6580 9.68574  21
  -2  -8   1 64.8250 8.18385  15
  -2  -8   1 61.9440 5.71849   6
  -2  -8   1 42.4647 9.20585  20
   2  -8  -1 88.9482 7.03614  17
   2   8  -1 60.9621 13.1648  18
  -2   8   1 64.2118 6.41997   5
   2   8  -1 70.4296 5.65699  17
  -2   8   1 87.5055 14.9233   2
  -2   8   1 65.6942 6.73348  22
   2   8  -1 75.0119 6.79410  22
   2   8  -1 69.2433 6.18938  16
  -2   8   1 63.8810 13.1842  18
  -1  -8   1 1688.73 90.3513  12
   1  -8  -1 1605.16 106.782  20
   1  -8  -1 1726.32 78.2868  16
   1  -8  -1 1714.30 73.4767  24
   1  -8  -1 1776.36 76.7751   7
  -1  -8   1 1594.27 79.9892   9
  -1  -8   1 1764.09 107.803  20
  -1  -8   1 1735.50 73.6040  24
  -1  -8   1 1753.38 91.6108  15
   1  -8  -1 1836.12 85.8545  17
   1  -8  -1 1683.41 92.4976  21
   1   8  -1 1603.54 105.148   2
   1   8  -1 1658.90 78.5347  16
  -1   8   1 1666.12 117.151  18
   1   8  -1 1574.99 81.6739   5
  -1   8   1 1697.00 91.2996  12
  -1   8   1 1697.55 81.8676   5
   1   8  -1 1589.00 116.619  18
   1   8  -1 1682.50 85.6257  17
   1   8  -1 1665.98 82.2401  22
  -1   8   1 1691.19 105.545   2
  -1   8   1 1686.95 82.3034  22
   0  -8  -1 1173.70 54.2686  16
   0  -8  -1 1149.92 51.0836  24
   0  -8   1 1074.08 59.2874  23
   0  -8   1 1131.29 64.8233  13
   0  -8  -1 1096.12 75.0027  20
   0  -8   1 1187.42 53.3375   7
   0  -8   1 1152.85 63.4539  12
   0  -8   1 1144.33 75.7301  20
   0  -8  -1 1141.87 59.2788  17
   0  -8   1 1180.79 51.2292  24
   0  -8  -1 1147.10 53.2372   7
   0   8   1 1149.75 57.1071  22
   0   8  -1 1163.18 73.7883   2
   0   8  -1 1172.84 65.7857  19
   0   8  -1 1175.93 56.8000   5
   0   8   1 1132.13 63.6834  12
   0   8  -1 1210.67 59.5643  17
   0   8  -1 1175.51 81.6814  18
   0   8  -1 1185.46 57.0473  22
   0   8   1 1112.84 56.6353   5
   0   8   1 1248.66 73.7331   2
   0   8   1 1169.41 64.9945  13
   0   8  -1 1227.37 54.5929  16
   0   8   1 1190.47 82.0907  18
   1  -8   1 46.7836 4.42171  24
  -1  -8  -1 45.3108 4.01441  16
  -1  -8  -1 35.1122 8.64997  20
  -1  -8  -1 36.2001 4.37204  17
  -1  -8  -1 37.5644 4.42903   7
   1  -8   1 42.3584 9.86662  20
  -1  -8  -1 37.9461 4.33986  24
   1  -8   1 42.2517 4.39021   7
   1  -8   1 32.3777 8.22055  12
  -1   8  -1 29.3548 8.94167  18
   1   8   1 43.6610 4.56288  22
  -1   8  -1 41.2467 4.47528  22
  -1   8  -1 38.2651 6.62670  19
  -1   8  -1 39.7931 9.39171   2
   1   8   1 37.1208 8.06880  12
  -1   8  -1 48.4756 5.10940  23
  -1   8  -1 42.1648 5.25516  17
   1   8   1 43.4269 9.80460  18
  -1   8  -1 43.5561 4.44580  16
  -1   8  -1 33.1485 3.99094   5
   2  -8   1 306.819 15.4059  24
  -2  -8  -1 314.411 15.4354  16
   2  -8   1 314.634 16.0671   7
  -2  -8  -1 304.590 14.8343  24
  -2  -8  -1 322.266 16.9894  17
  -2   8  -1 304.524 17.4027  23
  -2   8  -1 320.534 17.5490  17
  -2   8  -1 302.497 15.6638  16
  -2   8  -1 314.668 16.8417   5
   2   8   1 286.015 18.8456   4
   2   8   1 280.106 16.5270  22
   3  -8   1 60.6367 5.75076   7
  -3  -8  -1 48.7470 6.05590   6
  -3  -8  -1 52.7338 4.91952  24
   3   8   1 42.1684 5.93092   4
  -3   8  -1 59.8371 6.21982  23
  -3   8  -1 49.8504 4.66221  16
  -3   8  -1 57.0320 5.73173   5
   4  -8   1 476.623 22.8917   7
  -4  -8  -1 448.807 25.1475   6
  -4   8  -1 480.971 25.3026  23
   4   8   1 446.271 26.9221   4
  -5  -8  -1 571.401 31.0459   6
  -5   8  -1 612.094 30.9821  23
  -5  -9   1 362.072 20.5274   6
  -5   9   1 411.302 19.7579   5
   4  -9  -1 243.172 13.1076   7
  -4  -9   1 229.919 14.0650   6
  -4   9   1 249.659 14.1975  23
  -4   9   1 260.403 14.0444   5
   4   9  -1 247.842 13.8307  22
   3  -9  -1 1925.62 92.3394  16
  -3  -9   1 2003.08 102.277   6
   3  -9  -1 2116.35 90.8373   7
   3   9  -1 1851.90 92.6846  16
   3   9  -1 2054.25 97.2938  22
  -3   9   1 2017.06 97.1752  22
   3   9  -1 1914.59 100.865  17
  -3   9   1 2078.89 96.9381   5
   2  -9  -1 259.036 13.8764   7
  -2  -9   1 252.526 13.1057  24
   2  -9  -1 225.315 13.6800  16
   2  -9  -1 269.056 15.7396  17
   2   9  -1 265.420 15.1590  17
   2   9  -1 290.529 15.4490  22
   2   9  -1 286.309 14.9865   5
   2   9  -1 281.526 14.5091  16
  -2   9   1 286.390 15.5161  22
  -2   9   1 291.369 15.2807   5
   1  -9  -1 618.954 29.9279  24
   1  -9  -1 654.699 34.9089  17
   1  -9  -1 664.252 31.8136  16
  -1  -9   1 652.725 30.0924  24
   1  -9  -1 630.297 31.3046   7
  -1   9   1 670.180 33.5292   5
   1   9  -1 700.477 33.9538  22
   1   9  -1 664.063 34.8875  17
   1   9  -1 699.338 32.2925  16
  -1   9   1 709.267 33.9639  22
   1   9  -1 691.552 33.5880   5
   0  -9  -1 227.614 14.0243  17
   0  -9   1 229.686 12.8481   7
   0  -9   1 243.350 12.4355  24
   0  -9  -1 225.663 12.7739   7
   0  -9  -1 245.434 12.8682  16
   0  -9  -1 239.282 12.3416  24
   0   9  -1 262.514 13.8580   5
   0   9  -1 281.577 14.5224  17
   0   9   1 263.546 13.8080   5
   0   9   1 270.925 14.0988  22
   0   9  -1 264.771 13.1796  16
   0   9  -1 262.792 14.0471  22
  -1  -9  -1 578.502 27.6587  16
   1  -9   1 579.602 27.5823   7
   1  -9   1 586.460 26.4943  24
  -1  -9  -1 567.770 27.2125   7
  -1  -9  -1 582.059 26.3300  24
  -1  -9  -1 564.588 30.2136  17
  -1   9  -1 570.609 29.2413   5
  -1   9  -1 568.320 27.7982  16
  -1   9  -1 580.378 30.5626  23
  -1   9  -1 564.469 29.3416  22
   1   9   1 580.494 29.3961  22
  -1   9  -1 606.148 30.6103  17
   2  -9   1 1684.89 73.7281   7
   2  -9   1 1646.97 70.6066  24
  -2  -9  -1 1631.29 70.3647  24
  -2   9  -1 1666.11 78.3233   5
  -2   9  -1 1621.38 81.7272  17
  -2   9  -1 1589.80 82.1524  23
  -2   9  -1 1489.60 74.5417  16
   2   9   1 1534.93 78.3182  22
   3  -9   1 246.658 12.5793   7
  -3  -9  -1 220.534 11.1797  24
   3   9   1 208.635 14.5249   4
  -3   9  -1 219.421 13.2783  23
  -3   9  -1 223.245 12.9606   5
   4  -9   1 821.699 38.6622   7
  -4   9  -1 833.947 43.0628  23
  -4   9  -1 855.822 41.0395   5
   4   9   1 808.401 45.6967   4
   4 -10  -1 532.977 24.4629   7
  -4 -10   1 527.670 27.3967   6
   4  10  -1 492.470 26.0757  22
  -4  10   1 517.519 26.1372   5
   3 -10  -1 9.44003 3.19607   7
  -3  10   1 9.49187 3.71653  22
  -3  10   1 11.2493 3.12833   5
   3  10  -1 8.34326 3.20717  22
   2 -10  -1 728.867 36.5612  17
   2 -10  -1 704.520 33.2712  16
  -2 -10   1 692.697 31.4859  24
   2 -10  -1 691.276 32.9658   7
  -2  10   1 719.861 35.2909   5
   2  10  -1 723.184 33.7443  16
   2  10  -1 668.671 35.0760   5
   2  10  -1 659.432 36.3748  17
  -2  10   1 712.431 35.5378  22
   2  10  -1 730.524 35.6621  22
   1 -10  -1 110.411 7.43195   7
   1 -10  -1 118.120 7.27371  24
   1 -10  -1 116.258 7.17870  16
  -1 -10   1 118.758 7.24453  24
   1 -10  -1 143.003 8.50436  17
   1  10  -1 133.354 8.71544  22
   1  10  -1 119.312 8.18674   5
  -1  10   1 127.894 8.25405   5
   1  10  -1 121.053 8.07099  17
  -1  10   1 126.587 8.55804  22
   1  10  -1 132.129 7.94861  16
   0 -10  -1 91.2141 6.27950  16
   0 -10  -1 88.1381 6.25165  24
   0 -10   1 93.6062 6.38164  24
   0 -10   1 83.3284 6.56874   7
   0 -10  -1 82.8095 6.43545   7
   0  10   1 108.598 7.29984  22
   0  10  -1 116.256 6.73929  16
   0  10  -1 108.164 7.51574  22
   0  10  -1 105.778 7.13057   5
   0  10  -1 110.725 7.54125  17
   1 -10   1 376.304 17.6322   7
  -1 -10  -1 382.674 16.8718  24
   1 -10   1 375.999 16.9050  24
  -1  10  -1 348.251 18.6157   5
  -1  10  -1 319.479 19.2356  23
   1  10   1 331.097 18.6490  22
  -1  10  -1 335.895 17.3823  16
  -2 -10  -1 76.0301 5.42004  24
   2 -10   1 72.8438 6.16194  24
   2 -10   1 79.0769 6.03534   7
   2  10   1 74.2527 6.23811  22
  -2  10  -1 67.5592 6.11570  23
  -2  10  -1 70.3362 6.12498   5
  -3 -10  -1 878.018 39.8416  24
   3 -10   1 975.270 42.1278   7
  -3  10  -1 899.845 44.5846   5
  -3  10  -1 869.021 46.7144  23
   4 -10   1 79.7181 5.41131   7
  -4  10  -1 73.5010 5.45119  23
  -4  11   1 211.295 11.3207   5
   3 -11  -1 113.150 7.28551   7
   3  11  -1 132.673 8.07705  22
  -3  11   1 129.696 8.23521  22
  -3  11   1 124.534 7.80372   5
  -2 -11   1 480.357 22.5550  24
   2 -11  -1 502.479 23.7061   7
  -2  11   1 485.192 25.4265  22
  -2  11   1 497.927 25.2330   5
   2  11  -1 518.009 25.6338  22
   1 -11  -1 409.344 19.3895  24
  -1 -11   1 411.291 19.4584  24
   1 -11  -1 431.176 20.3851   7
   1  11  -1 405.828 21.5925   5
   1  11  -1 414.690 20.4267  16
   1  11  -1 427.022 22.0246  22
  -1  11   1 412.534 21.5742   5
  -1  11   1 443.967 22.0520  22
   0 -11   1 386.639 18.8870   7
   0 -11   1 391.041 18.2680  24
   0 -11  -1 367.157 18.8753   7
   0 -11  -1 400.838 18.2750  24
   0  11  -1 381.220 20.4310  22
   0  11  -1 392.132 20.3283   5
   0  11   1 400.698 20.4841  22
   0  11  -1 394.135 18.9818  16
   1 -11   1 929.307 42.8315   7
  -1 -11  -1 964.688 41.1701  24
   1 -11   1 977.161 41.2148  24
   1  11   1 901.299 45.8839  22
  -1  11  -1 883.776 45.7300  22
  -1  11  -1 904.385 45.6457   5
   2 -11   1 80.1599 5.69937  24
   2 -11   1 81.7784 5.88052   7
  -2 -11  -1 85.7453 5.50926  24
  -2  11  -1 85.9995 6.23080   5
  -2  11  -1 79.7262 6.18662  23
   2  11   1 84.4586 6.20115  22
   3 -11   1 17.0116 2.53066   7
  -3  11  -1 20.1152 2.77427  23
  -3  11  -1 22.4996 2.82598   5
   3 -12  -1 1.94556 2.21142   7
   3  12  -1 1.80869 2.16149  22
  -3  12   1 2.04073 1.91955   5
  -2 -12   1 340.161 15.7277  24
   2 -12  -1 352.907 16.5796   7
  -2  12   1 330.546 17.6490  22
  -2  12   1 341.018 17.5027   5
   2  12  -1 338.040 17.7458  22
   1 -12  -1 201.281 10.1515  24
   1 -12  -1 201.893 10.5312   7
  -1 -12   1 200.430 10.1417  24
   1  12  -1 207.207 11.5167  22
   1  12  -1 203.245 11.1545   5
  -1  12   1 198.481 11.0639   5
  -1  12   1 202.306 11.4629  22
   0 -12  -1 326.807 16.7934   7
   0 -12  -1 357.969 16.3287  24
   0 -12   1 359.175 16.3676  24
   0  12  -1 333.373 18.2137  22
   0  12   1 369.265 18.4558  22
   0  12  -1 346.872 18.1044   5
   1 -12   1 236.368 12.2474   7
  -1 -12  -1 249.562 11.8294  24
   1 -12   1 247.643 11.8736  24
  -1  12  -1 247.086 13.2180   5
   1  12   1 243.019 13.2649  22
  -1  12  -1 237.082 13.4168  22
   2 -12   1 23.4853 2.82355   7
  -2 -12  -1 27.3215 2.68497  24
   2  12   1 28.4555 3.58390  22
   1 -13  -1 207.861 11.4556  24
   1 -13  -1 250.411 12.1240   7
  -1 -13   1 255.955 11.6949  24
  -1  13   1 257.768 13.1199  22
   1  13  -1 265.096 13.1218  22
   0 -13  -1 102.907 5.87351  24
   0 -13   1 108.278 5.99860  24
   0  13  -1 109.475 6.76340  22
   0  13  -1 109.156 6.52569   5
   0  13   1 106.643 6.72139  22
   1 -13   1 8.43114 1.94195  24
  -1 -13  -1 13.7047 2.07484  24
  -1  13  -1 15.3156 2.33061   5
   1  13   1 17.4792 2.58170  22
   6   0  -2 3733.75 196.191   4
  -6   0   2 3577.45 184.463  23
   5   0  -2 5.92043 3.61490  16
  -5   0   2 3.43448 2.48937   5
   5   0  -2 0.93345 3.16388  17
   5   0  -2 7.02586 3.63490   4
   5   0  -2 4.37572 3.84661   8
  -5   0   2 5.02745 2.81318  23
  -5   0   2 2.29483 3.97606  15
   5   0  -2 2.67613 3.66748  14
  -5   0   2 3.23698 2.85455   9
  -4   0   2 502.288 23.8840   9
   4   0  -2 470.833 29.8717   1
   4   0  -2 489.886 35.7201  18
  -4   0   2 488.128 29.2548  19
   4   0  -2 491.486 30.4168  10
  -4   0   2 502.359 24.5817  22
  -4   0   2 479.849 25.7669  23
  -4   0   2 508.313 27.5437  15
   4   0  -2 488.074 27.6224   8
  -4   0   2 469.689 27.5492   4
   4   0  -2 490.315 30.6193  11
  -4   0   2 513.978 24.5112   5
  -4   0   2 466.147 32.2439   2
   4   0  -2 489.803 28.0569  14
   3   0  -2 133.847 7.82752   8
  -3   0   2 122.128 10.9343  18
  -3   0   2 133.180 7.87842  15
  -3   0   2 128.586 8.89505  19
  -3   0   2 133.699 10.0620   2
   3   0  -2 126.375 9.45020   1
   3   0  -2 135.145 9.19914  11
  -3   0   2 130.351 6.75019   9
  -3   0   2 98.6838 12.0935   3
   3   0  -2 128.165 9.07402  10
   3   0  -2 124.196 7.81130  14
   2   0  -2 4.34018 2.02581   1
   2   0  -2 3.37232 2.72686  21
  -2   0   2 7.33180 1.15765  15
   2   0  -2 2.97654 1.81052  10
  -2   0   2 6.25727 2.41411   2
   2   0  -2 2.67598 1.77537  11
   2   0  -2 3.56922 1.67377  11
  -2   0   2 2.29846 1.72116  19
  -2   0   2 4.45261 2.91922   3
   2   0  -2 4.98973 0.96803  14
  -2   0   2 2.83570 1.91730  18
   2   0  -2 1.57242 1.97170  10
  -2   0   2 5.17806 0.87693   9
  -1   0   2 6182.17 429.690  20
  -1   0   2 6909.68 378.658  19
  -1   0   2 6935.77 464.373  18
  -1   0   2 8073.00 420.702   2
   0   0  -2 1235.36 66.2957   3
   0   0   2 1174.13 70.9815  20
   0   0   2 1142.20 76.1207  18
   0   0  -2 1056.97 69.0220   2
   0   0   2 1117.01 62.5661   1
   0   0   2 1144.73 61.5915  21
  -1   0  -2 4487.29 247.386  19
  -1   0  -2 4795.32 257.399  10
   1   0   2 4514.03 242.912  15
   1   0   2 4555.03 281.277  20
  -1   0  -2 4448.61 246.146   8
  -1   0  -2 4467.86 250.035  14
  -1   0  -2 4450.86 262.611   3
   1   0   2 4627.09 212.352   9
  -1   0  -2 4899.02 257.733  11
  -2   0  -2 56.5518 4.97207  19
  -2   0  -2 51.2597 4.02468  14
  -2   0  -2 55.0390 3.94371   8
   2   0   2 51.4377 4.60546  13
  -2   0  -2 52.9495 5.38801  10
   2   0   2 64.1651 5.85452  21
   2   0   2 74.4319 11.8346   1
  -2   0  -2 54.9305 5.32983  11
  -2   0  -2 55.4493 5.60230   3
   2   0   2 56.1254 3.73217   9
   2   0   2 57.4712 4.19259  15
   2   0   2 53.0460 4.70873  12
   3   0   2 0.85314 2.72444  15
  -3   0  -2 1.05120 2.30177   6
  -3   0  -2 3.54751 2.25394  14
  -3   0  -2 1.43736 1.88525  16
   3   0   2 0.87890 2.27836   9
   3   0   2 3.13622 4.19867  13
   3   0   2 9.94716 4.34038  12
  -3   0  -2 0.89308 4.62056   3
   3   0   2 4.89878 5.19092  21
  -3   0  -2 3.22773 2.19730  17
   3   0   2 24.1419 13.1482   1
  -3   0  -2 1.58293 2.25033   8
   3   0   2 9.86881 6.21053   4
   4   0   2 1572.08 94.0794   4
  -4   0  -2 1749.94 86.3674  17
  -4   0  -2 1707.94 78.7138  16
  -4   0  -2 1737.98 87.5368   6
  -5   0  -2 592.284 32.4657   6
   6  -1  -2 12.4317 5.15758   4
  -6  -1   2 10.5117 3.09396  23
   6   1  -2 11.7681 4.37395   4
  -6   1   2 13.4324 3.24770  23
   5  -1  -2 526.245 27.3001  17
  -5  -1   2 522.972 29.2905  15
   5  -1  -2 515.799 29.7739   8
   5  -1  -2 512.744 30.4223  14
  -5  -1   2 539.157 25.3600   9
  -5  -1   2 572.463 27.4225  23
   5  -1  -2 520.167 25.2068  16
   5   1  -2 497.328 27.3533  17
  -5   1   2 505.904 25.7129   5
  -5   1   2 497.167 25.2736   9
   5   1  -2 495.034 30.0910  14
  -5   1   2 494.573 29.3856  15
   5   1  -2 467.434 25.0508  16
  -5   1   2 511.872 27.2836  23
   5   1  -2 481.470 29.3210   8
   5   1  -2 510.997 29.4511   4
  -4  -1   2 1780.87 90.3267  23
  -4  -1   2 1499.04 107.326   3
  -4  -1   2 1821.33 83.5200   9
   4  -1  -2 1837.55 102.996  11
   4  -1  -2 1766.38 102.520  10
  -4  -1   2 1829.04 109.355   2
   4  -1  -2 1775.40 96.9286   8
  -4  -1   2 1745.98 85.6754   5
  -4  -1   2 1833.46 98.7350  19
   4  -1  -2 1730.06 99.0461   1
  -4  -1   2 1786.19 86.0939  22
  -4  -1   2 1839.61 95.7716  15
   4  -1  -2 1762.21 98.3043  14
  -4   1   2 1888.66 95.8838  15
   4   1  -2 1847.10 96.8609   8
   4   1  -2 1815.38 98.3978  14
  -4   1   2 1734.04 120.697  18
  -4   1   2 1861.31 109.566   2
  -4   1   2 1753.49 85.9938  22
  -4   1   2 1763.88 95.8843   4
   4   1  -2 1778.28 120.955  18
  -4   1   2 1794.00 85.7312   5
  -4   1   2 1623.12 98.4548  19
   4   1  -2 1817.74 102.826  11
   4   1  -2 1741.51 98.9203   1
  -4   1   2 1772.03 83.4542   9
   4   1  -2 1840.58 102.604  10
   3  -1  -2 1407.10 79.8033  11
  -3  -1   2 1415.05 65.0891   9
  -3  -1   2 1364.25 85.1439   2
  -3  -1   2 1436.52 74.6142  15
   3  -1  -2 1419.94 76.6002  14
   3  -1  -2 1322.77 76.8437   1
   3  -1  -2 1357.86 79.6470  10
  -3  -1   2 1342.96 76.7954  19
   3  -1  -2 1434.00 75.5518   8
   3  -1  -2 1345.97 75.5450  21
  -3   1   2 1380.20 76.8612  19
   3   1  -2 1404.72 79.6695  11
   3   1  -2 1522.16 75.5496   8
  -3   1   2 1417.44 94.3028  18
  -3   1   2 1424.81 65.1124   9
   3   1  -2 1392.42 76.5987  14
  -3   1   2 1260.54 81.8723   3
  -3   1   2 1392.83 85.3177   2
  -3   1   2 1447.38 74.6515  15
   3   1  -2 1375.61 76.8009   1
   3   1  -2 1371.69 94.1232  18
   3   1  -2 1354.91 79.5125  10
   2  -1  -2 373.455 21.5738  21
   2  -1  -2 408.930 21.3496  10
  -2  -1   2 388.785 25.5829  18
   2  -1  -2 400.909 20.0878  14
  -2  -1   2 317.783 22.9326   3
  -2  -1   2 389.395 20.9293  19
  -2  -1   2 389.520 17.1584   9
   2  -1  -2 394.058 21.2763  11
  -2  -1   2 402.025 19.7011  15
   2  -1  -2 398.108 19.9990   8
   2  -1  -2 391.993 21.1899   1
   2   1  -2 321.853 21.1262  11
  -2   1   2 308.070 25.3902  18
   2   1  -2 326.783 21.0545  10
  -2   1   2 337.495 20.7378  19
  -2   1   2 348.719 23.0738   2
   2   1  -2 332.681 20.1818  14
  -2   1   2 344.365 17.1438   9
   2   1  -2 348.466 20.7991   1
  -2   1   2 306.942 19.6480  15
  -1  -1   2 990.572 60.6366  20
  -1  -1   2 996.307 65.6848  18
  -1  -1   2 1041.33 59.6107   2
   1  -1  -2 978.180 60.6077  20
  -1  -1   2 988.260 57.0997   3
  -1  -1   2 888.262 52.7473  21
  -1  -1   2 978.545 53.8047  19
  -1   1   2 954.918 56.3405   3
   1   1  -2 1000.20 53.3091   1
  -1   1   2 950.703 53.7485   1
  -1   1   2 927.332 53.4466  19
  -1   1   2 1004.18 65.8150  18
  -1   1   2 1025.52 59.4826   2
   0  -1   2 1626.03 87.9986   1
   0  -1   2 1655.25 93.9335   3
   0  -1   2 1764.86 100.720  20
   0  -1   2 1524.86 86.4211  15
   0  -1  -2 1781.33 93.8147   3
   0  -1   2 1620.83 87.1497  21
   0   1  -2 1557.42 108.126  18
   0   1   2 1650.97 86.4306  15
   0   1   2 1655.27 108.254  18
   0   1   2 1533.94 75.6485   9
   0   1   2 1462.66 89.0063   1
   0   1  -2 1686.90 98.5112   2
   0   1   2 1659.70 87.3865  21
   1  -1   2 3508.27 179.735  15
  -1  -1  -2 3622.24 190.900  11
  -1  -1  -2 3427.09 185.063  14
  -1  -1  -2 3388.65 190.472  10
  -1  -1  -2 3515.88 194.407   3
  -1  -1  -2 3327.17 182.690  19
   1  -1   2 3199.94 180.458  21
   1  -1   2 3369.43 157.063   9
  -1  -1  -2 3299.79 182.035   8
   1  -1   2 3466.67 208.352  20
  -1   1  -2 3230.12 184.863  14
   1   1   2 3488.35 179.737  15
   1   1   2 3405.68 157.127   9
  -1   1  -2 3144.81 194.394   3
  -1   1  -2 3247.02 203.198   2
  -1   1  -2 3666.85 190.590  10
   1   1   2 3384.20 180.545  21
  -1   1  -2 3360.76 190.654  11
  -1   1  -2 3415.44 183.649  19
  -1   1  -2 3263.16 182.045   8
   2  -1   2 1370.96 74.7134  21
  -2  -1  -2 1372.74 78.6695  11
  -2  -1  -2 1362.26 85.7318  20
  -2  -1  -2 1353.29 78.5197  10
   2  -1   2 1377.08 85.6603  20
  -2  -1  -2 1365.52 74.3289   8
   2  -1   2 1391.61 73.5742  15
   2  -1   2 1310.60 74.1433  13
  -2  -1  -2 1404.50 80.3437   3
   2  -1   2 1418.06 64.3525   9
   2  -1   2 1355.20 72.5899  12
  -2  -1  -2 1355.54 75.5859  14
   2   1   2 1435.23 74.6907  21
  -2   1  -2 1373.04 75.5330  14
   2   1   2 1303.47 78.7112   1
  -2   1  -2 1356.25 80.2316   3
  -2   1  -2 1385.49 78.5631  10
   2   1   2 1375.33 64.3580   9
  -2   1  -2 1355.74 75.4049  19
  -2   1  -2 1389.07 74.3460   8
   2   1   2 1400.67 73.5668  15
  -2   1  -2 1376.04 78.5577  11
   2   1   2 1317.98 74.1432  13
  -3  -1  -2 136.428 7.49465  16
   3  -1   2 141.280 11.1493  21
   3  -1   2 139.178 10.0826  12
   3  -1   2 150.447 8.18864   9
  -3  -1  -2 138.381 9.15325  14
  -3  -1  -2 131.107 11.5497   3
  -3  -1  -2 137.959 8.62169   6
   3  -1   2 141.279 10.1796  13
   3  -1   2 134.942 9.13986  15
   3  -1   2 128.686 7.51000   7
  -3  -1  -2 134.248 8.85757   8
  -3   1  -2 131.789 9.00729  14
  -3   1  -2 135.577 7.54986  16
   3   1   2 138.123 12.6930   4
   3   1   2 134.898 9.15237  15
   3   1   2 146.340 11.1100  21
  -3   1  -2 131.672 8.83237   8
   3   1   2 149.050 8.34067   9
  -3   1  -2 135.101 12.0216   3
   3   1   2 145.076 18.6265   1
   3   1   2 138.590 10.1116  13
  -3   1  -2 135.629 8.43103  17
   3   1   2 135.234 10.4864  12
  -4  -1  -2 673.631 35.0951  17
  -4  -1  -2 660.613 31.6965  16
  -4  -1  -2 692.424 35.6018   6
   4   1   2 636.733 39.8132   4
  -4   1  -2 663.569 35.6781   6
  -4   1  -2 645.082 34.9288  17
  -4   1  -2 669.211 31.7136  16
  -5  -1  -2 410.062 22.4979   6
   5   1   2 386.239 26.0021   4
  -5   1  -2 380.639 22.6805   6
   6  -2  -2 492.077 29.7282   4
  -6  -2   2 502.118 26.6056  23
  -6   2   2 509.840 26.9259  23
   6   2  -2 487.432 29.1448   4
  -5  -2   2 717.083 40.6536  15
   5  -2  -2 718.307 35.0906  16
   5  -2  -2 714.258 37.9779  17
  -5  -2   2 609.798 35.1032   9
  -5  -2   2 752.816 38.0167  23
  -5  -2   2 734.456 39.9120   6
  -5   2   2 732.291 40.9349  15
   5   2  -2 761.799 38.2602  17
   5   2  -2 745.352 35.1614  16
   5   2  -2 775.802 40.9431   4
  -5   2   2 744.424 35.9816   5
  -5   2   2 665.736 35.1051   9
  -5   2   2 766.535 38.2383  23
   4  -2  -2 850.800 56.2452  10
  -4  -2   2 993.711 46.8722  22
   4  -2  -2 973.800 53.5440  14
  -4  -2   2 985.488 49.1303  23
  -4  -2   2 996.333 54.5208  19
   4  -2  -2 942.073 55.1995   1
  -4  -2   2 958.705 52.1747  15
  -4  -2   2 987.628 45.4365   9
  -4  -2   2 941.649 59.9949   2
  -4  -2   2 931.225 46.4679   5
  -4  -2   2 957.778 50.8300   6
  -4  -2   2 1034.13 61.6673   3
   4  -2  -2 951.748 56.8305  11
   4  -2  -2 993.454 54.2579  21
   4  -2  -2 940.086 52.8371   8
   4   2  -2 908.162 56.2428  10
  -4   2   2 899.019 66.3190  18
  -4   2   2 1043.08 52.4937  15
   4   2  -2 968.163 53.5895  14
  -4   2   2 948.215 49.1571  23
   4   2  -2 956.268 66.9484  18
   4   2  -2 983.455 52.3059   4
   4   2  -2 971.481 55.0419   1
  -4   2   2 921.532 46.6605  22
  -4   2   2 948.837 54.7185  19
   4   2  -2 889.835 56.3631  11
   4   2  -2 956.651 52.6294   8
  -4   2   2 980.181 52.4631   4
  -4   2   2 959.601 45.3895   9
  -4   2   2 892.958 60.1054   2
  -4   2   2 928.842 46.5003   5
   3  -2  -2 2252.20 114.797   8
   3  -2  -2 2062.91 120.675  11
   3  -2  -2 2193.34 116.371   1
   3  -2  -2 2089.97 120.560  10
   3  -2  -2 2175.65 116.334  14
  -3  -2   2 2172.56 116.184  19
   3  -2  -2 2096.49 114.786  21
  -3  -2   2 2130.13 98.8054   9
  -3  -2   2 2123.88 125.270   3
  -3  -2   2 2160.96 113.153  15
  -3  -2   2 2047.37 128.655   2
   3   2  -2 2020.77 142.295  18
   3   2  -2 2195.61 116.070   1
   3   2  -2 2021.40 120.282  10
   3   2  -2 2187.61 114.553   8
  -3   2   2 2213.48 113.357  15
   3   2  -2 2071.69 120.557  11
  -3   2   2 2086.90 116.232  19
  -3   2   2 2131.32 98.8427   9
   3   2  -2 2207.09 116.504  14
  -3   2   2 2022.30 142.287  18
  -3   2   2 1958.37 128.749   2
   2  -2  -2 2618.16 139.020   1
   2  -2  -2 2660.00 144.544  11
  -2  -2   2 2591.58 135.939  15
   2  -2  -2 2158.24 137.654  21
  -2  -2   2 2421.74 157.085  20
  -2  -2   2 2499.37 118.788   9
   2  -2  -2 2651.03 144.466  10
   2  -2  -2 2594.81 139.788  14
  -2  -2   2 2305.38 148.396   3
   2  -2  -2 2276.34 137.911   8
   2   2  -2 2740.40 144.252  10
   2   2  -2 2775.42 137.680   8
   2   2  -2 2900.21 138.658   1
  -2   2   2 2608.40 170.715  18
   2   2  -2 2784.19 144.538  11
   2   2  -2 2501.14 170.541  18
   2   2  -2 2334.63 140.034  14
  -2   2   2 2625.42 139.106  19
  -1  -2   2 928.767 56.2288  20
  -1  -2   2 869.594 53.2572   3
  -1  -2   2 902.003 49.9371  19
  -1  -2   2 826.397 48.0564  15
   1  -2  -2 909.147 50.0999  21
   1  -2  -2 903.661 56.2219  20
   1   2  -2 936.868 60.9535  18
   1   2  -2 925.805 55.3437   2
  -1   2   2 906.794 50.1815   1
  -1   2   2 877.034 42.0745   9
  -1   2   2 892.609 49.3423  19
   1   2  -2 942.438 49.1161   1
  -1   2   2 836.280 48.5190  15
  -1   2   2 920.963 54.9939   2
  -1   2   2 958.726 61.0047  18
   0  -2  -2 825.553 45.7124  10
   0  -2  -2 750.008 46.2075  10
   0  -2   2 798.100 47.1100   3
   0  -2  -2 836.246 46.5509   3
   0  -2  -2 765.458 44.1775  14
   0  -2   2 801.794 42.9903  15
   0  -2   2 832.951 37.4091   9
   0  -2   2 880.439 50.3674  20
   0  -2   2 842.774 43.5421  21
   0  -2  -2 889.480 50.4120  20
   0  -2  -2 800.009 43.2446   8
   0  -2  -2 854.825 45.8392  11
   0  -2  -2 712.680 46.3376  11
   0   2   2 719.889 37.7767   9
   0   2  -2 768.195 45.7014  19
   0   2  -2 783.271 54.0737  18
   0   2  -2 829.130 43.8949  14
   0   2   2 794.466 42.8796  15
   0   2  -2 772.487 45.8371  10
   0   2  -2 758.698 49.7591   2
   0   2   2 813.635 54.0691  18
   1  -2   2 2200.33 133.864  20
   1  -2   2 2205.31 100.684   9
   1  -2   2 2226.41 115.231  15
  -1  -2  -2 2105.15 122.273  10
  -1  -2  -2 2086.67 124.779   3
   1  -2   2 2139.86 116.163  21
  -1  -2  -2 2303.64 122.774  11
  -1  -2  -2 2153.75 116.601   8
  -1  -2  -2 2077.33 133.806  20
  -1  -2  -2 2161.53 118.840  14
  -1   2  -2 2088.01 131.132   2
  -1   2  -2 2215.98 118.452  14
   1   2   2 2127.56 115.171  15
   1   2   2 1895.57 116.428  13
   1   2   2 2076.29 114.048  12
   1   2   2 2293.47 116.229  21
   1   2   2 2158.37 100.812   9
   1   2   2 2192.09 119.939   1
  -1   2  -2 2325.90 122.469  10
  -1   2  -2 2129.18 116.740   8
  -1   2  -2 2136.70 118.653  19
  -1   2  -2 2258.97 125.232   3
  -1   2  -2 2230.61 122.403  11
   2  -2   2 1637.60 87.4395  21
   2  -2   2 1593.86 100.086  20
  -2  -2  -2 1582.99 100.251  20
   2  -2   2 1565.15 85.9778  15
   2  -2   2 1607.00 75.1749   9
  -2  -2  -2 1556.89 91.6461  10
   2  -2   2 1591.90 84.8210  12
   2  -2   2 1552.89 86.7572  13
  -2  -2  -2 1614.43 92.0433  11
  -2  -2  -2 1607.75 81.2013  17
  -2  -2  -2 1707.58 93.9287   3
  -2  -2  -2 1602.24 86.9599   8
  -2  -2  -2 1612.99 74.0605  16
  -2  -2  -2 1655.49 88.6380  14
   2   2   2 1685.04 87.1441  21
   2   2   2 1530.22 91.1792   1
   2   2   2 1621.50 75.3039   9
   2   2   2 1533.49 86.6742  13
  -2   2  -2 1641.58 88.3462  14
   2   2   2 1602.44 86.0365  15
  -2   2  -2 1599.57 91.8024  10
  -2   2  -2 1573.86 91.7419  11
  -2   2  -2 1656.15 93.9537   3
   2   2   2 1548.62 85.2904  12
  -2   2  -2 1587.76 86.9913   8
  -2   2  -2 1639.96 88.6421  19
   3  -2   2 2072.60 115.581  13
  -3  -2  -2 2277.20 118.387  14
   3  -2   2 2067.41 96.2069   7
   3  -2   2 2125.93 100.148   9
   3  -2   2 2097.96 109.100   6
   3  -2   2 2231.93 116.492  21
  -3  -2  -2 2106.22 109.063   6
   3  -2   2 2161.36 114.531  15
  -3  -2  -2 2142.13 133.898  20
  -3  -2  -2 2181.97 98.4811  16
   3  -2   2 2153.47 113.213  12
  -3  -2  -2 2122.15 125.209   3
  -3  -2  -2 2071.84 115.809   8
  -3  -2  -2 2167.49 107.958  17
  -3   2  -2 2152.76 98.5470  16
   3   2   2 2097.05 114.462  15
  -3   2  -2 2130.23 115.783   8
  -3   2  -2 2141.08 117.639  14
   3   2   2 2166.76 113.759  12
   3   2   2 2046.45 121.382   1
  -3   2  -2 2154.18 117.473  19
   3   2   2 2028.45 116.054   4
  -3   2  -2 2103.99 107.735  17
   3   2   2 2140.38 100.258   9
  -3   2  -2 2172.10 107.917  23
   3   2   2 2050.40 115.667  13
   3   2   2 2189.15 115.830  21
  -4  -2  -2 138.195 9.99592  17
  -4  -2  -2 138.238 8.42901  16
  -4  -2  -2 140.608 9.89320   6
  -4   2  -2 156.475 8.60038  16
  -4   2  -2 159.360 9.75448  17
  -4   2  -2 146.391 10.4843   6
   4   2   2 142.756 13.8894   4
  -5  -2  -2 152.430 10.3989   6
  -5   2  -2 133.043 10.9656   6
   5   2   2 156.787 13.7878   4
   6  -3  -2 10.4909 5.79336   4
  -6  -3   2 12.0992 4.56426   6
  -6   3   2 12.7958 3.60251  23
   6   3  -2 11.1302 4.57820   4
  -5  -3   2 1916.09 94.5829  23
  -5  -3   2 1809.93 100.561  15
   5  -3  -2 1872.94 86.8426  16
  -5  -3   2 1930.31 96.4667   6
  -5  -3   2 1853.52 87.6970   9
   5  -3  -2 1840.11 94.4389  17
  -5   3   2 1801.31 89.6793   5
  -5   3   2 1913.20 94.9779  23
  -5   3   2 1805.67 87.5236   9
   5   3  -2 1771.39 86.7191  16
   5   3  -2 1881.02 100.735   4
  -5   3   2 1869.43 101.031   4
   5   3  -2 1869.28 94.7883  17
   4  -3  -2 134.429 9.49089   8
   4  -3  -2 134.995 13.1549  21
  -4  -3   2 139.358 10.2188   6
  -4  -3   2 147.409 8.06937   9
  -4  -3   2 138.788 15.2695   3
  -4  -3   2 134.001 7.93210   5
  -4  -3   2 139.405 8.36378  22
  -4  -3   2 142.209 9.29380  15
  -4  -3   2 142.752 8.64980  23
   4  -3  -2 141.257 13.1172   1
   4  -3  -2 139.993 9.50758  14
  -4  -3   2 140.749 11.4753  19
  -4   3   2 120.895 13.0727  18
   4   3  -2 137.175 9.60525   4
  -4   3   2 137.902 8.12050  22
   4   3  -2 144.929 12.6778   1
  -4   3   2 130.307 7.98235   5
   4   3  -2 145.216 9.76787  14
  -4   3   2 133.376 12.3730   2
  -4   3   2 135.260 7.85884   9
   4   3  -2 135.333 9.01478   8
   4   3  -2 102.354 11.1077  11
  -4   3   2 138.446 10.1032   4
   4   3  -2 100.888 10.9069  10
  -4   3   2 135.466 12.0264  19
   4   3  -2 139.743 14.5234  18
  -4   3   2 142.546 9.00017  23
   3  -3  -2 296.216 21.2690  21
   3  -3  -2 335.727 21.1815   1
  -3  -3   2 337.044 20.2832  19
   3  -3  -2 316.817 21.0702  11
   3  -3  -2 328.499 19.1079  14
  -3  -3   2 336.297 16.3775   9
   3  -3  -2 351.457 19.2804   8
  -3  -3   2 342.286 23.4328   3
   3  -3  -2 311.227 20.8771  10
  -3  -3   2 333.968 18.7361  15
   3   3  -2 343.009 18.7618   8
  -3   3   2 277.951 22.1046   2
   3   3  -2 321.849 20.6564  10
   3   3  -2 344.083 20.5371   1
  -3   3   2 363.266 20.8906  19
   3   3  -2 348.114 19.4490  14
   3   3  -2 334.790 20.9458  11
  -3   3   2 336.836 16.3309   9
   3   3  -2 313.615 24.8866  18
  -3   3   2 319.750 24.6660  18
  -2  -3   2 2645.25 159.793   3
   2  -3  -2 2721.79 148.696  21
   2  -3  -2 2919.72 155.956  11
  -2  -3   2 2608.83 127.981   9
  -2  -3   2 2917.92 150.018  19
  -2  -3   2 2725.22 146.333  15
   2  -3  -2 2899.15 155.909  10
   2  -3  -2 2642.40 150.507  14
  -2  -3   2 2683.36 169.518  20
   2   3  -2 3015.54 156.114  11
  -2   3   2 2649.74 183.689  18
   2   3  -2 2635.37 148.900   1
   2   3  -2 2808.32 166.503   2
   2   3  -2 2536.75 150.822  14
  -2   3   2 2792.10 149.882  19
  -2   3   2 2760.00 127.949   9
  -2   3   2 2803.05 166.389   2
  -2   3   2 2694.27 146.661  15
   2   3  -2 2786.06 155.424  10
   2   3  -2 2814.15 183.891  18
   1  -3  -2 120.182 7.20861   8
   1  -3  -2 119.100 7.07772  14
  -1  -3   2 113.900 8.37662  19
  -1  -3   2 112.414 9.28375   3
  -1  -3   2 111.968 7.12763  15
   1  -3  -2 122.981 9.10116  10
  -1  -3   2 121.349 9.01421  20
  -1  -3   2 106.554 6.35742   9
   1  -3  -2 112.202 8.44951  11
   1  -3  -2 119.850 9.32622  20
   1  -3  -2 108.542 9.32289  21
  -1   3   2 124.960 7.73562  15
  -1   3   2 129.246 10.0698  18
  -1   3   2 126.963 8.73618   2
  -1   3   2 121.008 6.39688   9
   1   3  -2 130.707 8.49420  10
   1   3  -2 114.919 7.24296   1
  -1   3   2 116.108 9.10149   1
   1   3  -2 118.274 6.87019   8
   1   3  -2 129.759 10.0401  18
   1   3  -2 123.129 8.74909  11
  -1   3   2 120.904 7.56065  19
   1   3  -2 116.652 7.04270  14
   0  -3   2 7474.09 406.809   3
   0  -3   2 7064.82 435.587  20
   0  -3  -2 6306.60 405.649   3
   0  -3  -2 7757.53 399.010  10
   0  -3  -2 7650.41 435.824  20
   0  -3  -2 6449.56 387.756  14
   0  -3   2 6932.42 376.617  15
   0  -3  -2 6085.00 381.338   8
   0  -3   2 6994.25 328.903   9
   0  -3  -2 7670.69 400.299  11
   0  -3   2 7621.14 377.013  21
   0   3  -2 6165.79 426.765   2
   0   3   2 7232.44 329.489   9
   0   3   2 7774.03 376.610  15
   0   3   2 7084.20 470.468  18
   0   3  -2 7332.40 398.994  11
   0   3  -2 7190.33 381.766   8
   0   3   2 7559.00 377.526  21
   0   3  -2 7051.85 398.994  10
   0   3  -2 6593.10 387.219  14
   0   3   2 7152.24 383.401   1
   0   3  -2 6623.51 470.626  18
   0   3  -2 7665.64 385.058  19
   1  -3   2 792.299 46.9540  13
   1  -3   2 856.247 46.0603  15
   1  -3   2 826.994 47.2078  21
  -1  -3  -2 894.149 49.4532  10
  -1  -3  -2 915.666 50.3615   3
  -1  -3  -2 917.354 50.0511  11
   1  -3   2 854.929 40.1653   9
  -1  -3  -2 903.260 54.2817  20
  -1  -3  -2 779.517 47.7241  14
   1  -3   2 872.036 54.0049  20
  -1   3  -2 746.090 48.5561  19
   1   3   2 821.211 40.4603   9
   1   3   2 832.288 46.5650  12
   1   3   2 920.076 49.9484   1
  -1   3  -2 868.474 50.8393   3
  -1   3  -2 855.565 49.2233  11
  -1   3  -2 833.922 46.7565   8
   1   3   2 909.471 47.2379  21
   1   3   2 873.394 46.4105  13
  -1   3  -2 891.202 49.5316  10
   1   3   2 830.764 46.0350  15
  -1   3  -2 808.403 47.1118  14
   1   3   2 827.292 58.3445  18
  -2  -3  -2 277.997 15.7631  17
   2  -3   2 285.095 16.4988  15
  -2  -3  -2 267.735 18.7075  11
  -2  -3  -2 275.078 18.3783  10
  -2  -3  -2 260.178 20.1245  20
   2  -3   2 268.456 17.3383  13
  -2  -3  -2 292.458 16.5060   8
   2  -3   2 298.423 16.7641  12
   2  -3   2 284.196 14.3771   9
  -2  -3  -2 298.564 17.3926  14
   2  -3   2 296.344 18.4550  21
  -2  -3  -2 279.650 14.0196  16
   2  -3   2 269.258 19.7442  20
  -2  -3  -2 284.970 19.0594   3
  -2   3  -2 305.761 18.9585  19
  -2   3  -2 279.352 15.4447  17
   2   3   2 285.539 16.5380  15
   2   3   2 290.553 21.9003   1
  -2   3  -2 272.053 14.2397  16
   2   3   2 300.194 17.7935  21
  -2   3  -2 306.393 16.7120   8
   2   3   2 300.947 14.7351   9
  -2   3  -2 277.731 16.6932  14
  -2   3  -2 275.912 18.3785  10
  -2   3  -2 271.999 18.1155  11
   2   3   2 287.740 17.9754  12
  -2   3  -2 304.897 19.4714   3
   2   3   2 305.255 17.1966  13
   3  -3   2 497.331 24.4429   9
  -3  -3  -2 524.123 23.8355  16
   3  -3   2 482.432 27.9473  15
  -3  -3  -2 489.255 32.1831   3
   3  -3   2 479.080 23.2125   7
  -3  -3  -2 491.080 26.4463   6
   3  -3   2 491.498 28.4483  12
   3  -3   2 455.743 26.4909   6
  -3  -3  -2 500.410 26.5104  17
   3  -3   2 470.755 30.2713  21
   3   3   2 475.647 29.5285   4
  -3   3  -2 516.818 23.9206  16
  -3   3  -2 479.284 32.3377   3
   3   3   2 477.074 34.6406   1
   3   3   2 491.407 24.6857   9
   3   3   2 474.686 29.6802  12
  -3   3  -2 516.163 26.2324  17
  -3   3  -2 505.756 30.3299  19
   3   3   2 484.714 27.9937  15
  -3   3  -2 495.712 26.2169  23
  -4  -3  -2 183.238 11.5348   6
  -4  -3  -2 177.749 11.8866  17
  -4  -3  -2 179.901 10.0413  16
   4   3   2 168.322 14.7680   4
  -4   3  -2 187.068 10.2180  16
  -4   3  -2 169.947 12.0656   6
  -4   3  -2 171.172 10.9952  23
  -4   3  -2 168.680 11.0759  17
  -5  -3  -2 1526.13 81.7465   6
   5   3   2 1628.59 86.8124   4
  -6  -4   2 910.708 44.6129   6
   6  -4  -2 807.535 47.1883   4
   6   4  -2 822.769 47.2175   4
  -6   4   2 812.967 44.1266  23
  -6   4   2 846.953 41.4539   5
  -5  -4   2 412.490 22.0387   6
  -5  -4   2 385.584 19.9938   9
   5  -4  -2 386.017 20.1089  16
  -5  -4   2 386.995 21.0419  23
   5  -4  -2 392.264 21.3697  17
  -5  -4   2 354.300 23.0415  15
  -5  -4   2 370.662 20.6738  22
  -5   4   2 389.109 19.8543   9
   5   4  -2 352.834 21.7411  17
  -5   4   2 397.505 20.0397   5
   5   4  -2 388.157 23.2651   4
  -5   4   2 386.814 23.5776  15
   5   4  -2 361.685 19.8380  16
  -5   4   2 357.045 23.4582   4
  -5   4   2 402.672 21.8370  23
   4  -4  -2 689.727 40.5100  14
   4  -4  -2 692.666 42.8952  21
  -4  -4   2 720.563 37.9915   6
  -4  -4   2 740.981 34.5640   9
  -4  -4   2 706.079 36.9289  23
  -4  -4   2 675.941 34.9736   5
  -4  -4   2 702.697 39.5295  15
   4  -4  -2 622.588 43.0146   1
   4  -4  -2 699.854 40.4442   8
  -4  -4   2 727.586 35.5543  22
  -4  -4   2 674.082 41.5373  19
  -4  -4   2 705.716 46.1048   3
  -4   4   2 743.042 40.1499   4
  -4   4   2 707.249 35.1808  22
  -4   4   2 732.625 40.0579  15
  -4   4   2 722.147 46.7989   2
   4   4  -2 748.616 52.6503  18
  -4   4   2 724.368 34.4429   9
  -4   4   2 767.973 37.6998  23
  -4   4   2 614.005 50.5643  18
  -4   4   2 702.239 43.2579  19
   4   4  -2 744.573 42.9226   1
  -4   4   2 732.954 35.2350   5
   4   4  -2 733.178 39.6514   4
   4   4  -2 664.446 40.8353  14
   4   4  -2 704.904 39.7489   8
  -3  -4   2 782.853 40.9077  23
  -3  -4   2 823.427 43.5199  15
   3  -4  -2 805.293 47.6346  10
   3  -4  -2 793.147 44.5076  14
   3  -4  -2 761.625 44.3139   8
  -3  -4   2 836.313 49.7202   3
  -3  -4   2 811.861 39.1422  22
  -3  -4   2 754.213 41.7043   6
  -3  -4   2 801.261 38.0162   9
   3  -4  -2 724.459 46.1169  21
  -3  -4   2 779.932 45.3992  19
   3  -4  -2 785.702 47.5190  11
  -3  -4   2 772.557 38.7658   5
   3  -4  -2 764.288 46.4219   1
   3   4  -2 814.005 56.3509  18
  -3   4   2 777.448 50.6576   2
  -3   4   2 823.862 43.9163  15
   3   4  -2 791.938 43.6895   8
  -3   4   2 771.258 38.9485  22
  -3   4   2 756.650 38.8746   5
  -3   4   2 863.740 41.4850  23
  -3   4   2 817.582 37.9393   9
   3   4  -2 840.651 45.6152   1
   3   4  -2 808.411 47.2120  10
   3   4  -2 736.649 44.7947  14
  -3   4   2 858.549 46.7486  19
   3   4  -2 733.778 50.1527   2
  -3   4   2 793.924 55.8096  18
   3   4  -2 830.414 47.8037  11
  -3   4   2 787.420 43.8927   4
   2  -4  -2 1935.36 109.525  11
   2  -4  -2 1919.72 104.584  21
  -2  -4   2 1932.28 102.305  15
  -2  -4   2 1919.80 119.377  20
  -2  -4   2 1901.71 105.166  19
  -2  -4   2 1954.51 112.282   3
  -2  -4   2 1762.71 89.4610   9
   2  -4  -2 1870.03 105.088  14
   2  -4  -2 1841.31 103.857   8
   2  -4  -2 1838.35 109.620  10
  -2   4   2 1831.18 102.725  15
  -2   4   2 1929.44 105.848   1
  -2   4   2 1962.19 105.393  19
   2   4  -2 1952.75 129.296  18
  -2   4   2 1899.08 129.006  18
  -2   4   2 1934.82 89.4761   9
   2   4  -2 1906.27 109.112  10
   2   4  -2 1904.05 103.406   8
   2   4  -2 1892.63 104.202   1
   2   4  -2 2048.00 117.053   2
   2   4  -2 1864.49 109.809  11
  -2   4   2 1996.63 116.971   2
   2   4  -2 2008.27 105.438  14
  -1  -4   2 3860.19 211.149   3
   1  -4  -2 3912.92 196.441  21
   1  -4  -2 3232.30 196.869   8
  -1  -4   2 3094.25 194.177  15
   1  -4  -2 3551.98 225.730  20
   1  -4  -2 3657.55 207.415  11
   1  -4  -2 3957.05 207.063  10
  -1  -4   2 3892.19 225.726  20
   1  -4  -2 3760.83 199.883  14
  -1  -4   2 3657.12 169.803   9
  -1   4   2 3348.97 170.003   9
  -1   4   2 3389.05 197.653  19
  -1   4   2 3503.47 198.695   1
   1   4  -2 3347.65 206.488  10
   1   4  -2 3850.75 243.966  18
  -1   4   2 3863.58 220.396   2
   1   4  -2 3711.82 221.082   2
   1   4  -2 3180.23 199.767  14
  -1   4   2 3755.87 194.600  15
   1   4  -2 3781.36 199.562  19
   1   4  -2 3952.03 206.912  11
  -1   4   2 4174.05 244.249  18
   0   4  -2 51.5414 5.05399  11
   0   4  -2 48.2924 7.37030   2
   0   4   2 50.2189 4.36325  13
   0   4  -2 49.7566 3.53231  14
   0   4  -2 39.0713 7.07960  18
   0   4   2 54.1852 5.17759   2
   0   4   2 50.1197 7.51110  18
   0   4  -2 48.7940 4.16505   8
   0   4  -2 45.8843 6.16197  10
   0   4  -2 58.2752 6.73188  19
   0   4   2 53.6942 6.84494   1
   0   4   2 46.7492 4.08688   9
   0   4   2 48.3846 4.46958  15
  -1  -4  -2 652.618 41.0806  11
   1  -4   2 736.116 39.0213  21
   1  -4   2 655.615 32.2633   9
   1  -4   2 660.493 37.1281  15
  -1  -4  -2 657.619 38.5858  14
  -1  -4  -2 684.714 44.3066  20
  -1  -4  -2 663.301 40.3838  10
   1  -4   2 695.133 38.2601  13
  -1  -4  -2 670.055 40.6100   3
  -1  -4  -2 662.297 37.3308   8
   1  -4   2 639.888 36.5363  12
   1  -4   2 688.316 43.8751  20
   1   4   2 696.257 37.2432  15
  -1   4  -2 690.869 37.8522  14
  -1   4  -2 674.112 41.4292   3
  -1   4  -2 721.344 40.5735  10
   1   4   2 718.339 40.5004   1
  -1   4  -2 626.007 37.6805   8
   1   4   2 691.951 37.5858  13
  -1   4  -2 677.653 39.9165  11
  -1   4  -2 715.712 40.2657  19
   1   4   2 585.512 48.0123  18
   1   4   2 744.982 38.4935  21
   1   4   2 682.100 32.9238   9
  -1   4  -2 691.408 44.1719   2
  -2  -4  -2 543.262 26.0475  16
   2  -4   2 540.225 26.5943   9
  -2  -4  -2 542.532 28.8664   6
  -2  -4  -2 536.472 30.6267   8
   2  -4   2 494.286 24.3803  24
  -2  -4  -2 528.421 29.0133  17
   2  -4   2 513.124 31.6878  13
   2  -4   2 587.760 33.1364  21
   2  -4   2 583.087 30.6283  15
  -2  -4  -2 577.196 37.2576  20
   2  -4   2 583.948 30.5670  12
   2  -4   2 458.096 29.1712   6
  -2  -4  -2 515.031 33.8978  11
  -2  -4  -2 542.477 33.6983  10
  -2  -4  -2 504.173 31.7083  14
  -2  -4  -2 561.082 34.2986   3
   2  -4   2 550.572 25.6154   7
   2  -4   2 501.049 35.9327  20
   2   4   2 533.193 30.5197  15
   2   4   2 532.663 32.0615  12
  -2   4  -2 569.911 28.6207  17
  -2   4  -2 552.925 26.4296  16
  -2   4  -2 557.176 34.8772   3
   2   4   2 559.336 35.0885   1
   2   4   2 600.750 27.2880   9
  -2   4  -2 514.389 29.1050  23
  -2   4  -2 565.772 31.0615  14
  -2   4  -2 532.288 33.4530  10
   2   4   2 581.110 31.4671  13
   2   4   2 537.479 31.5744   4
  -2   4  -2 530.116 33.0922  11
  -2   4  -2 578.696 31.0646   8
   2   4   2 557.239 31.7350  21
   2   4   2 601.508 24.8166  24
  -2   4  -2 553.098 33.6656  19
   3  -4   2 1264.02 72.3811   6
   3  -4   2 1394.44 63.9033   7
   3  -4   2 1383.05 66.5561   9
  -3  -4  -2 1493.61 84.6304   3
  -3  -4  -2 1438.21 65.3836  16
   3  -4   2 1413.68 79.3213  21
  -3  -4  -2 1443.25 72.5057   6
  -3  -4  -2 1351.59 71.9273  17
   3  -4   2 1419.59 76.2659  15
  -3   4  -2 1356.88 79.7240  19
  -3   4  -2 1464.68 71.6437  17
   3   4   2 1303.93 82.1303   1
   3   4   2 1428.38 67.1007   9
  -3   4  -2 1464.00 65.5905  16
   3   4   2 1402.83 76.4044  15
  -3   4  -2 1423.52 71.9880  23
   3   4   2 1337.07 77.2318   4
  -4  -4  -2 912.525 43.7703  16
  -4  -4  -2 981.615 48.9012   6
   4   4   2 925.373 52.4871   4
  -4   4  -2 901.781 43.8761  16
  -4   4  -2 923.907 48.0834  23
  -4   4  -2 880.011 47.9336  17
  -5  -4  -2 122.829 9.66426   6
   5   4   2 140.349 10.9464   4
  -5   4  -2 149.258 9.35883  23
  -6  -5   2 3.31615 3.10131   6
  -6   5   2 4.52027 2.86537   5
  -6   5   2 2.04421 3.63437  23
   6   5  -2 6.78444 5.02525   4
  -5  -5   2 36.5801 5.62109  22
  -5  -5   2 40.1054 4.98823   6
   5  -5  -2 34.4853 5.69316  16
   5  -5  -2 34.5051 5.26317  17
  -5  -5   2 38.1144 5.32505   9
  -5   5   2 29.3414 6.80327  15
  -5   5   2 34.0346 5.46052  23
  -5   5   2 46.7511 5.26501   9
   5   5  -2 46.5171 6.95894  16
   5   5  -2 30.0056 5.38504  17
   5   5  -2 39.2908 6.18151   4
  -5   5   2 42.6963 4.54287   5
  -4  -5   2 1346.34 61.6383   9
   4  -5  -2 1292.28 72.3888  14
  -4  -5   2 1314.07 66.9397   6
  -4  -5   2 1353.14 63.4846  22
   4  -5  -2 1251.53 60.8621  16
  -4  -5   2 1274.97 65.9088  23
   4  -5  -2 1113.48 71.4980   8
  -4  -5   2 1309.56 70.5661  15
   4  -5  -2 1319.50 66.0224  17
  -4   5   2 1368.26 62.9923   5
  -4   5   2 1355.02 71.1481  15
   4   5  -2 1235.18 71.0146   8
  -4   5   2 1167.06 66.6053  23
  -4   5   2 1203.55 70.5639   4
  -4   5   2 1348.25 61.5250   9
   4   5  -2 1292.54 70.3084   4
  -4   5   2 1311.61 62.9559  22
   3  -5  -2 2260.74 129.165  11
  -3  -5   2 2288.84 113.327  23
  -3  -5   2 2463.38 120.416  15
   3  -5  -2 2094.39 121.945   8
  -3  -5   2 2394.51 108.324  22
   3  -5  -2 2024.12 123.977   1
   3  -5  -2 2240.14 123.453  14
  -3  -5   2 2201.62 123.449  19
  -3  -5   2 2287.75 107.678   5
   3  -5  -2 2242.15 122.972  21
  -3  -5   2 2222.00 131.664   3
   3  -5  -2 2178.18 129.116  10
  -3  -5   2 2227.41 105.073   9
  -3  -5   2 2261.47 114.560   6
  -3   5   2 1996.28 113.690  23
   3   5  -2 2341.78 152.867  18
  -3   5   2 2279.83 138.054   2
  -3   5   2 2268.59 108.060  22
   3   5  -2 2330.81 128.823  10
   3   5  -2 2198.81 129.514  11
  -3   5   2 2191.93 124.885  19
  -3   5   2 2311.60 107.903   5
  -3   5   2 2332.67 120.841  15
  -3   5   2 2182.31 151.769  18
  -3   5   2 2060.31 120.326   4
   3   5  -2 2285.50 121.482   8
   3   5  -2 2143.07 123.612  14
   3   5  -2 2225.02 137.409   2
  -3   5   2 2307.35 105.051   9
   2  -5  -2 468.809 25.8810   8
  -2  -5   2 443.455 25.6023  15
  -2  -5   2 411.854 31.4751  20
  -2  -5   2 468.621 29.3885   3
   2  -5  -2 456.851 26.1093  14
  -2  -5   2 443.589 22.2361   9
   2  -5  -2 456.504 27.5528  21
   2  -5  -2 428.383 28.8471  11
   2   5  -2 465.955 28.8284  10
  -2   5   2 461.761 22.4628   9
   2   5  -2 452.518 34.3185  18
  -2   5   2 392.537 27.4384  19
   2   5  -2 498.065 26.1608  14
  -2   5   2 406.590 25.9057  15
  -2   5   2 430.510 28.1924   1
   2   5  -2 472.105 30.9264   2
  -2   5   2 489.109 30.9892   2
  -2   5   2 480.431 34.0789  18
   2   5  -2 420.444 28.7303  11
   2   5  -2 476.101 25.6686   8
   1  -5  -2 665.248 35.7421  21
   1  -5  -2 591.722 40.4849  20
  -1  -5   2 631.076 33.8608  15
   1  -5  -2 588.453 37.6489  11
   1  -5  -2 649.616 34.9514  14
  -1  -5   2 665.780 29.3962   9
  -1  -5   2 690.148 41.3168  20
   1  -5  -2 643.211 34.0616   8
  -1  -5   2 693.756 38.0747   3
   1  -5  -2 692.261 37.4137  10
   1   5  -2 578.694 36.5960  11
  -1   5   2 561.248 29.7441   9
  -1   5   2 615.334 44.5590  18
   1   5  -2 563.205 36.4062  19
   1   5  -2 508.893 43.9100  18
  -1   5   2 628.049 36.2586   1
  -1   5   2 622.525 39.7335   2
   1   5  -2 540.978 40.0214   2
   1   5  -2 518.974 33.9781   8
  -1   5   2 611.566 33.8714  15
   1   5  -2 599.510 36.9012  10
   1   5  -2 572.153 34.4268  14
   0  -5  -2 135.631 7.92113   8
   0  -5  -2 114.956 11.1230  20
   0  -5   2 112.216 6.80542   9
   0  -5  -2 111.398 10.0499  21
   0  -5   2 116.942 7.84438  15
   0  -5  -2 123.334 10.5316  11
   0  -5   2 106.905 9.72639   3
   0  -5  -2 105.840 10.3697  10
   0  -5   2 121.743 10.8560  20
   0   5   2 107.517 10.0889   2
   0   5  -2 118.126 7.62444   8
   0   5   2 103.012 12.9707  18
   0   5   2 125.482 10.3567   1
   0   5  -2 116.279 9.93232  10
   0   5  -2 115.254 12.1427  18
   0   5  -2 105.578 9.68793  19
   0   5   2 120.547 8.61461  13
   0   5   2 99.7747 8.08846  15
   0   5  -2 117.576 7.55928  14
   0   5   2 116.775 7.06195   9
   0   5  -2 108.998 9.64471  11
  -1  -5  -2 1015.07 71.9887  20
  -1  -5  -2 1125.78 61.4744   8
   1  -5   2 1181.33 61.8227  13
   1  -5   2 1163.02 60.1309  12
   1  -5   2 1133.75 71.6637  20
  -1  -5  -2 1111.78 66.1768  10
   1  -5   2 1101.78 61.0067  15
  -1  -5  -2 1128.39 66.6306   3
  -1  -5  -2 1041.07 52.2984  16
   1  -5   2 1016.02 62.6144  21
  -1  -5  -2 942.469 66.1945  11
  -1  -5  -2 1260.62 57.9233  17
  -1  -5  -2 1184.85 62.9236  14
   1  -5   2 1152.68 53.0670   9
   1   5   2 1114.26 61.6566  13
  -1   5  -2 953.753 66.6975   3
  -1   5  -2 1142.81 62.1763  14
   1   5   2 1214.03 64.3225   1
  -1   5  -2 1018.44 65.8226  10
   1   5   2 1043.14 53.7154   9
   1   5   2 1207.74 60.9427  12
  -1   5  -2 1189.21 64.2273  19
   1   5   2 1159.83 61.1928  15
  -1   5  -2 1191.89 61.7782   8
  -1   5  -2 1188.11 65.5215  11
  -1   5  -2 1221.95 71.1305   2
   1   5   2 1016.25 78.2645  18
   2  -5   2 2032.72 103.948  15
  -2  -5  -2 1944.38 105.039   8
   2  -5   2 2044.70 102.621  12
  -2  -5  -2 1930.55 98.6299   6
  -2  -5  -2 1920.08 97.9743  17
   2  -5   2 2036.98 87.5036   7
  -2  -5  -2 2110.60 113.619   3
   2  -5   2 1965.69 83.5865  24
  -2  -5  -2 2098.67 122.821  20
   2  -5   2 1922.48 106.608  21
   2  -5   2 2022.62 90.7890   9
   2  -5   2 1850.84 105.372  13
  -2  -5  -2 1686.79 106.898  14
  -2  -5  -2 1942.09 89.2488  16
   2  -5   2 1976.15 121.179  20
   2   5   2 1892.57 105.095  13
  -2   5  -2 1834.35 98.2785  23
   2   5   2 2084.06 84.2461  24
   2   5   2 1952.72 108.656   1
  -2   5  -2 1758.41 105.132   8
  -2   5  -2 1926.53 106.380  14
   2   5   2 2034.90 91.5552   9
  -2   5  -2 1680.08 113.444   3
  -2   5  -2 1917.54 97.6036  17
   2   5   2 1795.72 104.147   4
  -2   5  -2 1929.70 111.538  10
  -2   5  -2 1869.21 89.5502  16
  -2   5  -2 1882.90 108.292  19
   2   5   2 2016.77 104.117  15
   2   5   2 2017.45 104.197  12
  -2   5  -2 1791.70 119.024   2
  -2   5  -2 1755.58 110.671  11
   3  -5   2 24.6755 5.17464  15
   3  -5   2 28.9927 3.76210   7
  -3  -5  -2 32.2985 4.12501  16
  -3  -5  -2 19.8446 4.29552  17
   3  -5   2 22.9554 4.38666   9
  -3  -5  -2 23.1652 4.15814   6
   3   5   2 39.0184 6.31461   9
  -3   5  -2 39.1110 5.20009  23
  -3   5  -2 28.0977 4.10372  17
  -3   5  -2 30.1484 4.21360  16
   3   5   2 30.4014 5.79862   4
  -4  -5  -2 950.288 48.4596  17
   4  -5   2 972.607 43.1411   7
  -4  -5  -2 906.159 44.0676  16
  -4  -5  -2 987.852 49.2777   6
  -4   5  -2 949.033 48.6567  23
   4   5   2 917.612 52.1895   4
  -4   5  -2 846.692 43.9655  16
  -4   5  -2 871.919 48.4067  17
  -5  -5  -2 95.6931 7.75037   6
  -5   5  -2 95.2751 7.54700  23
   5   5   2 96.9495 8.42433   4
  -6  -6   2 1364.45 66.8316   6
  -6   6   2 1203.27 63.0436   5
  -6   6   2 1324.60 66.6955  23
  -5  -6   2 122.014 8.59049   6
  -5  -6   2 111.089 9.22380   9
   5   6  -2 138.999 11.4120  16
  -5   6   2 91.5577 8.76371   9
  -5   6   2 138.679 8.77085   5
   5   6  -2 132.824 11.3909   4
  -5   6   2 117.824 9.61946  23
   5   6  -2 107.642 9.81529  22
  -4  -6   2 361.030 20.0561   9
  -4  -6   2 362.348 23.1030  15
   4  -6  -2 372.295 21.4445  17
  -4  -6   2 375.184 21.0652   6
  -4  -6   2 357.328 20.6651  22
   4  -6  -2 350.187 19.5884  16
  -4   6   2 375.375 23.8633  15
   4   6  -2 406.139 20.8085  16
  -4   6   2 412.295 20.2102   9
  -4   6   2 394.528 20.3863   5
   4   6  -2 382.371 21.3844  17
  -4   6   2 331.779 21.6578  23
  -4   6   2 402.390 20.1945  22
  -3  -6   2 301.674 16.5847   5
   3  -6  -2 304.133 18.8837   8
  -3  -6   2 321.964 19.1047  15
   3  -6  -2 326.735 15.7576   7
   3  -6  -2 285.980 18.0091  17
  -3  -6   2 311.725 16.3034   9
   3  -6  -2 298.784 19.1428  14
  -3  -6   2 310.222 22.3591   3
  -3  -6   2 315.450 17.3483   6
  -3  -6   2 308.625 16.9788  22
  -3  -6   2 315.443 17.3959  23
   3   6  -2 325.984 18.9958  14
  -3   6   2 292.220 19.5778  15
  -3   6   2 321.317 19.0978   4
  -3   6   2 325.178 16.7192  22
  -3   6   2 271.231 23.8376   2
  -3   6   2 322.911 16.5921   9
   3   6  -2 309.334 18.7561   8
  -3   6   2 250.006 17.7291  23
   3   6  -2 303.766 24.2349   2
  -3   6   2 298.647 16.8425   5
   3   6  -2 271.216 27.4535  18
  -3   6   2 287.981 26.1035  18
   2  -6  -2 108.203 8.96934  14
  -2  -6   2 109.627 8.03218   5
  -2  -6   2 111.856 7.06266   9
   2  -6  -2 123.558 8.41834   8
  -2  -6   2 89.2774 13.5015  20
  -2  -6   2 108.673 7.95399  22
  -2  -6   2 102.328 7.42767   6
   2  -6  -2 111.899 11.0135  21
   2  -6  -2 95.3223 11.6762  10
   2  -6  -2 114.028 7.11548   7
   2  -6  -2 96.4296 12.9264  11
  -2  -6   2 117.117 11.1393   3
  -2  -6   2 98.1453 8.44455  15
  -2  -6   2 100.845 8.33446  23
   2   6  -2 120.905 12.7173  19
   2   6  -2 119.955 13.3882   2
  -2   6   2 127.733 10.0134  13
   2   6  -2 139.740 8.35509  14
   2   6  -2 123.066 12.3191  10
   2   6  -2 113.994 14.8330  18
  -2   6   2 120.607 9.02032  15
  -2   6   2 120.149 8.09096  22
  -2   6   2 106.659 12.6734   2
  -2   6   2 119.774 7.88153   9
  -2   6   2 97.4279 8.61906   4
  -2   6   2 109.146 8.18870   5
  -2   6   2 117.840 14.2237  18
   2   6  -2 129.533 8.71932   8
  -1  -6   2 4184.77 288.983  20
   1  -6  -2 4439.68 256.076  14
  -1  -6   2 5006.70 248.497  15
  -1  -6   2 4938.82 216.943   9
  -1  -6   2 5032.68 269.143   3
   1  -6  -2 4815.75 264.414  10
   1  -6  -2 4885.85 250.067  21
   1  -6  -2 4653.92 288.308  20
   1  -6  -2 4550.96 265.073  11
   1  -6  -2 4625.92 251.522   8
  -1   6   2 4972.34 217.618   9
   1   6  -2 4675.61 255.388  14
   1   6  -2 4088.69 282.911   2
  -1   6   2 3835.40 312.304  18
  -1   6   2 4974.30 253.686   1
   1   6  -2 4635.62 251.776   8
   1   6  -2 4714.03 254.708  19
   1   6  -2 4822.74 264.174  11
   1   6  -2 4737.59 264.127  10
  -1   6   2 4570.71 249.948  13
  -1   6   2 4776.38 248.485  15
   0  -6  -2 315.964 22.0128  11
   0  -6   2 284.219 23.8096  20
   0  -6  -2 308.349 19.2615  14
   0  -6  -2 306.735 22.0636  10
   0  -6   2 321.941 18.8228  15
   0  -6  -2 310.529 21.1268  21
   0  -6  -2 297.664 19.0459   8
   0  -6   2 320.336 16.6435   9
   0  -6  -2 279.515 23.8317  20
   0  -6   2 306.083 21.4825   3
   0   6  -2 320.119 21.8435  11
   0   6  -2 331.865 21.0161  19
   0   6   2 322.944 27.4136  18
   0   6   2 346.817 16.8060   9
   0   6  -2 324.269 23.7649   2
   0   6  -2 342.996 18.7544   8
   0   6   2 309.547 19.9263  13
   0   6  -2 369.898 21.8771  10
   0   6   2 336.477 21.1807   1
   0   6   2 346.527 19.7152  12
   0   6  -2 303.340 25.4137  18
   0   6   2 348.224 19.3936  15
   0   6  -2 336.234 19.4257  14
   1  -6   2 1260.37 67.0466  13
   1  -6   2 1150.00 65.6607  12
  -1  -6  -2 1198.88 68.2552  21
  -1  -6  -2 1222.09 57.2350  16
   1  -6   2 1203.72 66.7351  15
   1  -6   2 1255.75 62.4679  23
  -1  -6  -2 1201.89 79.4970  20
   1  -6   2 1247.02 58.1356   9
  -1  -6  -2 1344.02 68.4565  14
   1  -6   2 1219.39 78.8422  20
  -1  -6  -2 1122.41 72.7821  10
   1  -6   2 1242.08 53.6538  24
  -1  -6  -2 1211.08 67.3438   8
  -1  -6  -2 1274.62 62.3890  17
   1  -6   2 1031.96 68.0542  21
  -1  -6  -2 1225.20 73.0845  11
   1  -6   2 1179.37 56.0639   7
   1   6   2 1169.69 66.3227   4
  -1   6  -2 1318.32 69.7557  19
  -1   6  -2 1227.71 59.5184   5
  -1   6  -2 1285.11 77.3158   2
  -1   6  -2 1181.60 62.6958  17
   1   6   2 1148.04 66.7887  15
   1   6   2 1165.12 58.5719   9
   1   6   2 1244.17 66.0448  12
  -1   6  -2 1188.06 72.0118  11
   1   6   2 1265.44 56.3718   7
  -1   6  -2 1266.62 57.3568  16
   1   6   2 1246.59 69.5560   1
  -1   6  -2 1343.43 67.2739   8
  -1   6  -2 1029.75 72.6595   3
   1   6   2 1346.28 86.3218  18
   1   6   2 1163.17 67.6211  13
  -1   6  -2 1241.44 68.0793  14
   2  -6   2 555.011 32.0474  15
  -2  -6  -2 521.188 39.8146  20
  -2  -6  -2 560.022 27.0646  16
   2  -6   2 565.840 25.2576  24
   2  -6   2 579.011 27.8709   9
  -2  -6  -2 581.862 29.7827  17
   2  -6   2 509.719 34.5724  21
   2  -6   2 526.226 26.5267   7
   2  -6   2 505.036 38.2324  20
  -2   6  -2 537.125 28.2363   5
   2   6   2 591.735 35.8906   1
  -2   6  -2 521.607 34.9098  19
   2   6   2 547.767 31.6869   4
   2   6   2 531.329 28.7530   9
   2   6   2 567.109 32.4365  15
  -2   6  -2 562.837 27.2484  16
  -2   6  -2 601.970 29.7947  17
  -2   6  -2 507.892 38.0458   2
  -2   6  -2 580.584 29.9328  23
   3  -6   2 99.3106 7.80053   7
  -3  -6  -2 111.767 9.01292  17
   3  -6   2 114.467 10.7675  15
  -3  -6  -2 101.540 8.18645  16
  -3  -6  -2 102.767 8.94725   6
  -3  -6  -2 94.3460 7.75031  24
   3   6   2 131.414 10.3409   4
  -3   6  -2 115.706 7.81996  16
  -3   6  -2 134.097 9.34544  17
  -3   6  -2 128.441 9.52683  23
  -4  -6  -2 1239.48 66.6255   6
   4  -6   2 1299.02 58.8296   7
  -4   6  -2 1389.47 60.2754  16
   4   6   2 1268.28 70.2422   4
  -4   6  -2 1174.81 65.9598  23
  -5  -6  -2 241.155 13.6120   6
  -5   6  -2 223.075 13.5440  23
   5   6   2 231.253 14.4932   4
  -5  -7   2 801.775 40.7722   6
  -5   7   2 674.340 38.6888   5
  -5   7   2 847.995 41.0524  23
   5   7  -2 773.801 39.1473  22
   4  -7  -2 426.938 19.5340  16
  -4  -7   2 392.446 19.7491   9
   4  -7  -2 345.844 21.8611  17
  -4  -7   2 397.638 20.8345   6
  -4   7   2 371.274 20.1415  22
   4   7  -2 323.053 20.5148  16
   4   7  -2 335.502 20.7885  22
  -4   7   2 325.532 20.0802   5
  -4   7   2 347.679 23.7686  15
  -4   7   2 362.878 20.2324   9
  -4   7   2 390.996 21.3127  23
   4   7  -2 401.866 20.9889  17
  -3  -7   2 489.090 30.8987  15
   3  -7  -2 575.891 25.4188   7
  -3  -7   2 563.767 26.4459   9
  -3  -7   2 546.881 28.2953   6
   3  -7  -2 563.077 25.9568  16
  -3  -7   2 483.035 27.3566   5
   3  -7  -2 484.775 28.9218  17
  -3   7   2 545.532 31.4368  15
  -3   7   2 435.637 27.2546   5
   3   7  -2 562.607 30.8964  14
  -3   7   2 509.785 27.3553  22
   3   7  -2 479.765 31.0459   8
   3   7  -2 557.593 28.3579  17
  -3   7   2 547.200 27.2519   9
   3   7  -2 513.301 27.2998  16
  -2  -7   2 592.609 31.1128  23
   2  -7  -2 617.617 27.5034   7
   2  -7  -2 532.604 34.5502  14
  -2  -7   2 626.712 26.7009  24
  -2  -7   2 576.398 30.6553   6
   2  -7  -2 629.176 35.2115  21
  -2  -7   2 611.244 37.1228   3
   2  -7  -2 539.482 31.4430  17
  -2  -7   2 596.667 28.3690   9
   2  -7  -2 625.942 28.0932  16
   2  -7  -2 622.086 33.0494   8
  -2  -7   2 610.029 33.4217  15
  -2  -7   2 569.663 29.7934   5
  -2  -7   2 656.234 41.6331  20
   2   7  -2 653.350 33.4782  14
   2   7  -2 539.784 40.7901   2
   2   7  -2 545.150 33.3956   8
  -2   7   2 628.417 33.2993  15
   2   7  -2 489.546 45.2673  18
   2   7  -2 579.488 36.3229  19
   2   7  -2 551.290 30.2091  22
  -2   7   2 486.773 40.0221   2
  -2   7   2 510.689 44.6156  18
  -2   7   2 508.480 29.7761  22
  -2   7   2 590.058 29.3403   9
  -2   7   2 508.755 29.6532   5
   1  -7  -2 164.041 10.3619  17
  -1  -7   2 180.849 10.7990  15
  -1  -7   2 171.291 9.76951   5
   1  -7  -2 178.078 12.8913  21
   1  -7  -2 168.973 10.2550   8
  -1  -7   2 166.091 12.9484   3
  -1  -7   2 167.874 8.93997  24
   1  -7  -2 171.242 11.6055  14
  -1  -7   2 155.159 9.42725   6
   1  -7  -2 166.406 8.77638  16
   1  -7  -2 158.694 14.0665  20
  -1  -7   2 162.752 8.86027   9
  -1  -7   2 176.693 16.2595  20
   1  -7  -2 166.418 13.5006  10
  -1  -7   2 163.857 9.80172  23
   1  -7  -2 156.295 14.6949  11
   1  -7  -2 166.012 8.31687  24
   1   7  -2 142.904 10.1626  14
  -1   7   2 144.928 11.6958  13
  -1   7   2 156.864 9.81302   9
   1   7  -2 148.683 12.6073  10
  -1   7   2 125.642 15.1107   2
  -1   7   2 133.868 9.97528  22
   1   7  -2 144.599 12.8977  19
   1   7  -2 133.463 15.7332   2
   1   7  -2 128.397 12.0649  11
  -1   7   2 135.273 17.3682  18
  -1   7   2 138.320 12.7548   1
   1   7  -2 140.781 10.2732   8
   1   7  -2 143.472 17.4312  18
  -1   7   2 143.520 10.4087  15
   1   7  -2 141.692 9.92179  22
  -1   7   2 121.514 11.5625  12
  -1   7   2 130.581 10.1758   4
   0  -7  -2 2520.09 138.644  11
   0  -7   2 2494.95 139.946   3
   0  -7   2 2225.06 108.596   7
   0  -7   2 2410.31 121.233  23
   0  -7   2 2505.78 112.722   9
   0  -7  -2 2488.28 104.134  24
   0  -7  -2 2318.38 110.706  16
   0  -7  -2 2542.34 138.429  10
   0  -7  -2 2406.30 120.986  17
   0  -7   2 2234.45 151.147  20
   0  -7  -2 2407.49 132.337  14
   0  -7  -2 2407.52 130.356  21
   0  -7  -2 2445.93 130.319   8
   0  -7   2 2168.57 104.039  24
   0  -7   2 2316.27 126.783  12
   0  -7  -2 2434.20 151.069  20
   0  -7   2 2615.94 129.702  13
   0  -7   2 2443.72 128.540  15
   0   7  -2 2446.21 137.808  10
   0   7   2 2341.08 127.158  12
   0   7   2 2531.52 129.113  15
   0   7  -2 2468.22 132.507  19
   0   7   2 2317.47 130.086  13
   0   7  -2 2264.34 162.199  18
   0   7  -2 2261.82 115.366   5
   0   7  -2 2244.11 132.265  14
   0   7  -2 2405.08 129.950   8
   0   7  -2 2265.81 115.627  22
   0   7   2 2714.70 164.844  18
   0   7   2 2230.68 128.446   4
   0   7   2 2481.43 108.960   7
   0   7   2 2450.22 132.268   1
   0   7  -2 2370.21 147.523   2
   0   7   2 2493.51 116.269  22
   0   7  -2 2218.64 137.872  11
  -1  -7  -2 774.287 38.6786  17
   1  -7   2 682.621 41.5255  12
  -1  -7  -2 713.166 35.5413  16
   1  -7   2 748.763 41.8146  15
  -1  -7  -2 788.973 33.7703  24
   1  -7   2 718.809 36.4874   9
  -1  -7  -2 660.948 50.5116  20
   1  -7   2 634.724 50.2606  20
   1  -7   2 703.570 33.5519  24
   1  -7   2 731.471 35.1415   7
  -1  -7  -2 743.303 42.8274  14
  -1   7  -2 758.066 49.1542   2
  -1   7  -2 743.748 41.6440   8
   1   7   2 796.302 37.4400  22
  -1   7  -2 783.610 35.6414  16
   1   7   2 750.888 42.1941  15
   1   7   2 780.770 55.1697  18
  -1   7  -2 703.748 42.6613  14
  -1   7  -2 784.541 44.3480  19
   1   7   2 781.362 35.4039   7
   1   7   2 766.485 41.6584  12
  -1   7  -2 785.475 37.0426   5
   1   7   2 729.976 36.7181   9
   1   7   2 734.338 41.2366   4
  -1   7  -2 720.933 39.3812  17
   1   7   2 746.684 44.3869   1
   2  -7   2 394.727 21.2509   7
   2  -7   2 419.288 26.1410  15
   2  -7   2 419.818 22.6261   9
   2  -7   2 425.749 20.2805  24
  -2  -7  -2 403.713 21.3862  16
  -2  -7  -2 453.600 23.3730  17
  -2  -7  -2 439.074 20.4102  24
   2   7   2 395.381 26.4336  15
  -2   7  -2 447.944 21.5184  16
  -2   7  -2 433.803 22.4428   5
  -2   7  -2 454.544 23.5942  23
  -2   7  -2 400.277 23.9486  17
   2   7   2 423.480 25.1123   4
   2   7   2 434.110 23.5127   9
  -3  -7  -2 125.364 8.40081  16
  -3  -7  -2 116.817 7.77353  24
  -3  -7  -2 102.798 9.26717   6
  -3  -7  -2 124.133 9.05424  17
   3  -7   2 114.596 8.60652   7
  -3   7  -2 130.328 10.6706  17
  -3   7  -2 142.194 8.54665  16
  -3   7  -2 129.667 9.51121  23
   3   7   2 134.518 10.2633   4
  -4  -7  -2 252.715 15.3563   6
   4  -7   2 247.371 13.9278   7
   4   7   2 268.186 16.5578   4
  -4   7  -2 261.845 15.4659  23
  -5  -8   2 426.202 22.5879   6
  -5   8   2 413.069 21.8551   5
  -5   8   2 426.560 22.5991  23
   5   8  -2 408.568 21.7332  22
  -4  -8   2 318.078 17.8368   6
   4  -8  -2 315.454 16.4419  16
  -4  -8   2 331.386 17.0444   9
  -4   8   2 300.611 17.5481   5
  -4   8   2 306.418 17.6548  22
  -4   8   2 253.538 17.4640   9
   4   8  -2 341.534 18.0984  22
   4   8  -2 325.071 17.7046  16
  -4   8   2 348.634 18.1115  23
  -3  -8   2 667.878 32.9915   5
   3  -8  -2 637.848 35.1639  17
  -3  -8   2 658.239 37.6629  15
   3  -8  -2 674.315 31.3639  16
  -3  -8   2 632.732 34.2360   6
   3  -8  -2 696.561 30.7469   7
  -3  -8   2 635.258 31.7979   9
  -3   8   2 624.289 37.2891  15
  -3   8   2 606.467 33.1945  22
  -3   8   2 659.330 33.3130   5
   3   8  -2 659.201 33.6209  22
  -3   8   2 606.892 32.8310   9
   3   8  -2 655.151 34.1837  17
   3   8  -2 610.131 32.1517  16
  -2  -8   2 1069.32 49.6206   5
  -2  -8   2 967.254 47.7539   9
   2  -8  -2 980.208 46.1035   7
   2  -8  -2 983.837 52.2022  17
  -2  -8   2 1060.89 44.4746  24
  -2  -8   2 958.159 51.8451   6
   2  -8  -2 1038.67 47.2601  16
  -2  -8   2 1009.38 55.6198  15
  -2   8   2 996.909 48.8365   9
   2   8  -2 985.434 47.8964  16
   2   8  -2 964.234 51.5586  17
  -2   8   2 971.377 49.9352  22
  -2   8   2 968.778 55.3012  15
   2   8  -2 980.402 56.2949  14
  -2   8   2 1037.81 49.7727   5
   2   8  -2 1004.75 50.0648  22
   2   8  -2 985.836 55.8482   8
  -1  -8   2 13.3026 6.23398   3
   1  -8  -2 16.5057 3.07866   7
  -1  -8   2 13.7291 3.12602   9
   1  -8  -2 19.5939 3.13298  16
   1  -8  -2 12.0036 2.83025  24
  -1  -8   2 11.2222 8.72060  20
   1  -8  -2 9.99682 3.62980  17
   1  -8  -2 7.87342 7.21837  20
   1  -8  -2 8.10886 6.27024  21
  -1  -8   2 11.6487 3.28805  24
  -1  -8   2 16.6307 3.26828   6
  -1  -8   2 13.9291 4.49959  15
  -1   8   2 12.3699 3.92745  22
  -1   8   2 13.3943 4.16487   9
  -1   8   2 17.6260 3.88014   5
   1   8  -2 13.9955 4.17233  16
   1   8  -2 12.1872 3.55641  14
   1   8  -2 10.0018 3.54658  17
  -1   8   2 10.2663 9.26087  18
   1   8  -2 17.9176 10.8055   2
   1   8  -2 9.74460 6.46235  19
  -1   8   2 8.40185 4.19848  15
  -1   8   2 4.76854 9.85115   2
   1   8  -2 14.8342 3.83392   8
   1   8  -2 12.0401 3.85520  22
   1   8  -2 11.0152 9.30218  18
   0  -8   2 110.339 7.24905  24
   0  -8   2 107.022 7.41193   9
   0  -8   2 113.576 8.80865  15
   0  -8  -2 106.023 13.0524  20
   0  -8  -2 111.937 6.96107  16
   0  -8   2 109.967 7.54363  23
   0  -8   2 126.167 7.96389   7
   0  -8   2 111.408 14.4666  20
   0  -8  -2 116.304 6.85084  24
   0  -8  -2 109.695 7.76259  17
   0   8  -2 103.791 8.21964   8
   0   8   2 106.416 15.4186  18
   0   8  -2 100.807 11.8249  19
   0   8  -2 90.4520 14.2838  18
   0   8  -2 97.7626 7.50391  22
   0   8   2 92.9011 8.16373   4
   0   8  -2 104.338 13.1986   2
   0   8  -2 99.5162 7.39630   5
   0   8   2 109.852 7.93386  22
   0   8   2 109.253 9.38239  15
   0   8   2 105.108 7.86233   9
   0   8  -2 100.606 7.29554  16
   0   8  -2 110.017 8.52800  17
   0   8  -2 108.542 8.45726  14
   1  -8   2 630.638 30.1681  24
   1  -8   2 645.064 31.4898   7
  -1  -8  -2 672.103 30.0779  24
  -1  -8  -2 664.447 31.7648  16
   1  -8   2 670.385 33.0580   9
  -1  -8  -2 673.079 34.6684  17
   1  -8   2 686.174 37.6769  15
   1   8   2 607.549 36.8572   4
  -1   8  -2 665.894 34.8264  23
  -1   8  -2 621.504 35.2167  17
  -1   8  -2 644.476 31.8257  16
   1   8   2 684.737 33.4831  22
  -1   8  -2 663.707 33.1345   5
   1   8   2 618.217 33.0155   9
   1   8   2 726.992 31.8425   7
   1   8   2 676.909 38.1465  15
   2  -8   2 962.610 43.2115   7
   2  -8   2 894.664 51.8081  15
  -2  -8  -2 939.838 47.4969  17
   2  -8   2 907.069 41.2832  24
   2  -8   2 886.623 45.3835   9
  -2  -8  -2 921.919 43.5066  16
  -2  -8  -2 938.600 41.0997  24
  -2   8  -2 928.129 45.5595   5
  -2   8  -2 869.650 48.0970  17
  -2   8  -2 920.308 43.6130  16
   2   8   2 907.051 50.8710   4
  -2   8  -2 910.618 47.8238  23
   3  -8   2 941.785 44.8378   7
  -3  -8  -2 924.794 42.3008  24
   3   8   2 960.669 52.9674   4
  -3   8  -2 996.417 49.8779  23
  -3   8  -2 941.511 44.9895  16
  -4  -8  -2 23.0186 3.93187   6
   4  -8   2 20.6185 3.97723   7
   4   8   2 17.6040 3.96792   4
  -4   8  -2 20.3771 3.72218  23
  -5  -9   2 787.271 40.8819   6
  -5   9   2 787.917 38.8297   5
  -4  -9   2 213.388 13.4044   6
   4  -9  -2 226.001 12.7287   7
  -4   9   2 248.066 13.4343   5
  -4   9   2 242.599 13.6094  22
   4   9  -2 246.716 13.6454  22
   3  -9  -2 269.917 13.9286   7
   3  -9  -2 254.198 16.1751  17
  -3  -9   2 261.792 17.8465  15
   3  -9  -2 259.839 14.1141  16
  -3  -9   2 242.438 14.3418   9
  -3  -9   2 265.338 15.4769   6
  -3   9   2 262.925 15.6787   9
   3   9  -2 275.094 14.9710  16
   3   9  -2 267.304 15.3982  17
  -3   9   2 282.534 15.5653  22
  -3   9   2 273.716 17.7328  15
   3   9  -2 291.791 15.6691  22
  -3   9   2 301.893 15.5017   5
   2  -9  -2 834.697 37.7562   7
  -2  -9   2 807.193 45.5446  15
  -2  -9   2 815.578 36.2511  24
  -2  -9   2 749.536 42.2136   6
   2  -9  -2 770.583 42.4421  17
  -2  -9   2 766.492 39.0840   9
   2  -9  -2 787.733 38.3757  16
   2   9  -2 856.530 41.0101  22
  -2   9   2 877.217 40.6630   5
   2   9  -2 748.041 41.9470  17
   2   9  -2 820.090 39.1397  16
  -2   9   2 905.991 41.1194  22
  -2   9   2 824.725 40.2083   9
  -2   9   2 758.080 45.3520  15
   1  -9  -2 271.178 14.2765   7
  -1  -9   2 285.968 13.9929  24
  -1  -9   2 268.632 17.5073  15
  -1  -9   2 274.869 16.0020  23
  -1  -9   2 258.518 14.8936   9
   1  -9  -2 296.871 16.3530  17
   1  -9  -2 269.868 13.5783  24
   1  -9  -2 270.523 14.4045  16
  -1   9   2 275.832 15.7133   9
   1   9  -2 283.843 15.6707  22
  -1   9   2 281.821 17.6516  15
   1   9  -2 265.209 16.0073  17
  -1   9   2 283.674 15.5568   5
   1   9  -2 276.492 15.0208  16
   1   9  -2 297.487 15.6104   5
  -1   9   2 302.590 16.0761  22
   0  -9   2 2321.52 104.821   9
   0  -9  -2 2257.60 102.888  16
   0  -9   2 2274.37 112.669  23
   0  -9   2 2365.66 100.881   7
   0  -9  -2 2168.91 112.353  17
   0  -9  -2 2376.16 96.7271  24
   0  -9  -2 2271.81 100.799   7
   0  -9   2 2354.91 96.8572  24
   0  -9   2 2126.85 119.534  15
   0   9  -2 2160.87 112.658  17
   0   9   2 2178.01 120.141  15
   0   9  -2 2194.85 103.096  16
   0   9   2 2035.67 104.914   9
   0   9  -2 2178.65 107.252   5
   0   9   2 2177.76 107.773  22
   0   9  -2 2078.59 107.428  22
   1  -9   2 301.443 16.9507   9
   1  -9   2 314.547 15.4314  24
   1  -9   2 324.422 16.0474   7
  -1  -9  -2 317.730 15.1116  24
   1  -9   2 297.611 19.3379  15
  -1  -9  -2 292.892 15.4874   7
  -1  -9  -2 293.194 17.1425  17
  -1  -9  -2 307.930 15.7895  16
  -1   9  -2 313.239 17.3835  23
  -1   9  -2 317.483 16.6364   5
  -1   9  -2 300.646 15.8800  16
   1   9   2 308.627 18.7505   4
   1   9   2 303.476 16.7333  22
  -1   9  -2 302.006 17.8152  17
   2  -9   2 490.613 23.2661  24
  -2  -9  -2 485.630 26.3544  17
   2  -9   2 476.407 24.2040   7
  -2  -9  -2 482.291 24.1257  16
  -2  -9  -2 512.229 23.0154  24
  -2   9  -2 490.328 24.1983  16
  -2   9  -2 498.986 26.7287  23
   2   9   2 489.998 28.5716   4
  -2   9  -2 496.712 26.9965  17
  -2   9  -2 532.604 25.6120   5
   3  -9   2 169.886 10.0378   7
  -3  -9  -2 164.609 9.00177  24
   3   9   2 168.514 11.7519   4
  -3   9  -2 172.605 10.5478   5
  -3   9  -2 184.179 10.7950  23
   4  -9   2 172.225 9.29865   7
   4   9   2 171.931 10.8589   4
  -4   9  -2 166.187 9.99482  23
   4 -10  -2 49.5026 4.73580   7
  -4 -10   2 51.0539 4.72934   6
   4  10  -2 56.6620 5.13180  22
  -4  10   2 55.4497 5.09735   5
   3 -10  -2 17.2459 3.16719   7
  -3 -10   2 15.3159 3.42541   6
   3  10  -2 23.3021 3.81022  22
   3  10  -2 23.4817 3.59069   5
  -3  10   2 24.4413 3.66038   5
  -3  10   2 25.3886 3.96563  22
   2 -10  -2 92.5668 8.01945  17
  -2 -10   2 86.3551 8.66096  15
   2 -10  -2 85.4489 6.14804  16
   2 -10  -2 90.7895 6.20632   7
  -2 -10   2 87.0540 6.14998  24
  -2 -10   2 87.4587 6.63989   9
  -2  10   2 92.5650 6.92406   5
   2  10  -2 82.3478 6.85695  17
   2  10  -2 97.0745 7.33440  22
  -2  10   2 96.5750 7.47400  22
   2  10  -2 92.4852 7.26173  16
   2  10  -2 91.8580 7.00828   5
  -1 -10   2 1334.67 65.5651   9
   1 -10  -2 1431.44 70.4371  17
  -1 -10   2 1431.91 60.5319  24
   1 -10  -2 1474.98 64.4714  16
   1 -10  -2 1397.58 63.0566   7
   1 -10  -2 1368.59 60.3041  24
  -1  10   2 1237.08 75.1974  15
   1  10  -2 1365.13 70.4850  17
   1  10  -2 1411.12 67.3075   5
  -1  10   2 1287.42 65.9304   9
   1  10  -2 1372.13 64.6905  16
   1  10  -2 1347.36 67.5352  22
  -1  10   2 1427.19 67.7167  22
   0 -10   2 43.0065 6.29270  15
   0 -10  -2 45.1152 5.59984  17
   0 -10  -2 39.6509 4.02514  24
   0 -10   2 44.7061 4.27177  24
   0 -10   2 38.0153 5.04155   9
   0 -10  -2 38.9572 4.71742  16
   0 -10  -2 40.5201 4.79927   7
   0 -10   2 45.1177 4.43833   7
   0  10   2 38.6324 5.81024   9
   0  10  -2 52.1431 5.26633  16
   0  10   2 44.3551 5.34301  22
   0  10  -2 54.6786 5.14590   5
   0  10  -2 48.8156 5.64102  22
   0  10  -2 48.4396 5.95553  17
   0  10  -2 47.0016 5.30405  23
  -1 -10  -2 308.696 16.8756  16
  -1 -10  -2 348.632 16.3045  24
   1 -10   2 361.527 16.5801  24
   1 -10   2 345.135 17.0564   7
  -1 -10  -2 327.996 16.7494   7
  -1 -10  -2 333.182 18.6288  17
  -1  10  -2 337.687 19.0012  17
  -1  10  -2 338.470 17.1257  16
  -1  10  -2 354.863 18.0881   5
   1  10   2 339.845 18.0674  22
  -1  10  -2 336.412 18.7938  23
   2 -10   2 74.6957 6.12737   7
   2 -10   2 68.4433 5.86947  24
  -2 -10  -2 72.0000 5.28721  24
  -2  10  -2 67.9999 5.86914  23
  -2  10  -2 69.7905 5.92298   5
   3 -10   2 100.992 6.47364   7
  -3 -10  -2 86.6171 5.51656  24
  -3  10  -2 97.3014 6.53716   5
  -3  10  -2 95.9458 6.66915  23
   3  10   2 95.4184 7.54462   4
   3 -11  -2 630.680 29.0478   7
  -3  11   2 630.987 30.9346   5
   3  11  -2 610.811 31.1959  22
  -3  11   2 616.181 31.1126  22
  -2 -11   2 125.993 7.22577  24
   2 -11  -2 129.561 7.49880   7
  -2  11   2 126.732 7.96720   5
   2  11  -2 129.880 8.39931  22
   2  11  -2 118.153 7.89084   5
  -2  11   2 128.192 8.31452  22
  -1 -11   2 184.664 9.71000  24
   1 -11  -2 180.210 9.93005   7
   1 -11  -2 184.182 9.58376  24
   1  11  -2 180.068 10.6758   5
   1  11  -2 184.451 11.0118  22
  -1  11   2 190.849 10.9623  22
   0 -11  -2 118.706 7.00469  24
   0 -11   2 121.385 7.17249  24
   0 -11  -2 111.848 7.23505   7
   0  11   2 121.013 8.03136  22
   0  11  -2 114.414 7.99959  22
   0  11  -2 123.331 7.84868   5
   1 -11   2 333.515 15.8150  24
   1 -11   2 327.786 16.4081   7
  -1 -11  -2 341.594 15.8027  24
  -1  11  -2 341.333 17.5402   5
   1  11   2 332.194 17.6315  22
  -1  11  -2 321.708 18.2096  23
  -2 -11  -2 613.015 26.2257  24
   2 -11   2 551.871 27.3602   7
   2 -11   2 574.232 26.1925  24
  -2  11  -2 587.267 29.1038   5
  -2  11  -2 589.525 30.5377  23
   3  12  -2 204.467 10.9798  22
  -2 -12   2 172.490 8.57083  24
   2 -12  -2 177.433 9.11028   7
   2  12  -2 147.276 9.31326   5
  -2  12   2 181.668 9.82200  22
   2  12  -2 185.359 9.93142  22
   1 -12  -2 537.679 24.4026  24
   1 -12  -2 565.548 25.6135   7
  -1 -12   2 546.776 24.5131  24
   1  12  -2 551.671 27.2579   5
  -1  12   2 537.214 27.4158  22
   1  12  -2 526.019 27.3805  22
   0 -12  -2 57.5050 4.39247  24
   0 -12   2 46.2395 4.40380  24
   0 -12  -2 58.0800 4.49605   7
   0  12   2 52.9448 4.99131  22
   0  12  -2 61.9543 4.91899   5
   0  12  -2 55.6111 5.37186  22
   1 -12   2 446.500 20.2853  24
  -1 -12  -2 444.122 20.2284  24
  -1  12  -2 450.773 22.5640   5
   1  12   2 444.329 22.5641  22
  -2  12  -2 82.5420 5.68707   5
  -1  13   2 4.54928 2.31636  22
  -6   0   3 6.77187 2.53723   5
  -6   0   3 10.6009 3.07289  23
   6   0  -3 12.8640 4.25825   4
   5   0  -3 1470.12 79.9095   8
  -5   0   3 1492.26 70.6816   5
  -5   0   3 1402.85 68.5231   9
  -5   0   3 1500.31 71.0009  22
  -5   0   3 1396.67 78.8196  15
   5   0  -3 1472.31 81.1858  14
  -4   0   3 45.7537 3.61488   9
   4   0  -3 54.0353 4.50411  14
  -4   0   3 47.9690 4.29863   5
   4   0  -3 45.4842 6.67047  10
   4   0  -3 52.2118 4.39490   8
  -4   0   3 56.0513 8.81047   2
  -4   0   3 47.9056 6.68220  19
  -4   0   3 48.3360 4.72477  23
   4   0  -3 51.2221 7.26258  11
  -4   0   3 48.8933 4.39034  22
  -4   0   3 45.2875 5.10734   4
  -4   0   3 48.9187 4.60518  15
   4   0  -3 46.4200 7.68354   1
   3   0  -3 7767.90 398.059  10
   3   0  -3 7541.49 386.429  14
  -3   0   3 6289.04 405.848   3
  -3   0   3 7151.61 375.370  15
   3   0  -3 6948.86 381.959   1
  -3   0   3 6984.72 425.691   2
  -3   0   3 6990.14 383.221  19
  -3   0   3 6992.49 470.161  18
  -2   0   3 625.767 37.3356  19
  -2   0   3 723.591 41.5490   2
  -2   0   3 628.322 39.1273   3
   2   0  -3 698.577 37.4429   1
   2   0  -3 560.813 37.9108  21
  -2   0   3 725.717 45.9849  18
  -1   0   3 164.606 12.1299  18
  -1   0   3 172.709 11.2131  20
  -1   0   3 147.617 10.6274  21
  -1   0   3 152.415 10.8666   2
  -1   0   3 163.795 10.6012  19
  -1   0   3 151.756 10.1716   1
  -1   0   3 156.236 10.3510   3
   0   0   3 812.629 44.8955  21
   0   0  -3 725.343 45.9676  19
   0   0   3 844.358 45.5127   1
   0   0   3 881.334 51.5220  20
   0   0  -3 803.945 48.0233   3
  -1   0  -3 126.390 8.66621  11
  -1   0  -3 128.832 7.40930   8
   1   0   3 117.253 11.3105   1
  -1   0  -3 132.141 7.68108  14
  -1   0  -3 128.179 9.47239   3
  -1   0  -3 121.213 8.58718  10
   1   0   3 114.012 9.81602  20
   1   0   3 118.955 7.37421  15
   1   0   3 123.607 6.48996   9
   1   0   3 131.351 9.25992  21
   2   0   3 4436.03 189.927  24
  -2   0  -3 4546.86 237.736   8
   2   0   3 4313.68 224.031   6
  -2   0  -3 4394.86 249.331  10
  -2   0  -3 4403.00 249.553  11
   2   0   3 4620.83 205.221   9
  -2   0  -3 4237.42 254.346   3
  -2   0  -3 4454.44 272.550  20
   2   0   3 4304.82 236.317  21
   2   0   3 4652.89 234.712  15
   2   0   3 4265.83 198.100   7
  -2   0  -3 4326.75 241.453  14
   3   0   3 1350.23 59.8634   7
  -3   0  -3 1280.10 71.7413   8
   3   0   3 1338.85 71.1735  15
   3   0   3 1337.41 62.2964   9
  -3   0  -3 1261.24 72.9639  14
   3   0   3 1285.80 73.3780  21
   4   0   3 270.517 17.1394  15
  -4   0  -3 277.245 14.3359  16
  -4   0  -3 266.210 16.1299  17
  -4   0  -3 290.922 16.3497   6
   4   0   3 275.815 15.2106   9
  -5   0  -3 10.0330 3.83524   6
   6  -1  -3 313.079 18.5276   4
  -6  -1   3 275.612 16.2034  23
   6   1  -3 287.231 18.0160   4
  -6   1   3 279.057 15.2551   5
  -6   1   3 292.057 16.5285  23
   5  -1  -3 1038.26 58.0916   8
   5  -1  -3 1043.12 59.0181  14
  -5  -1   3 1071.22 57.3172  15
  -5  -1   3 1079.16 51.3459   5
  -5  -1   3 1022.49 49.7539   9
  -5  -1   3 1054.25 51.5463  22
  -5  -1   3 1057.10 54.1124  23
  -5   1   3 1039.88 49.7177   9
   5   1  -3 1026.42 58.0205   8
  -5   1   3 1022.92 51.2341   5
   5   1  -3 993.550 58.8794  14
  -5   1   3 1088.49 54.3294  23
  -5   1   3 1044.25 57.3594  15
  -5   1   3 1010.40 51.4157  22
  -5   1   3 1059.43 57.7512   4
   5   1  -3 1107.15 57.7247   4
  -4  -1   3 796.742 37.4727   5
  -4  -1   3 768.080 36.1531   9
  -4  -1   3 780.559 41.5045  15
   4  -1  -3 811.781 42.2888   8
   4  -1  -3 785.260 46.3102  11
   4  -1  -3 728.984 44.6395   1
   4  -1  -3 795.981 45.4990  10
  -4  -1   3 768.683 37.6378  22
  -4  -1   3 693.444 44.0664  19
  -4  -1   3 758.901 41.9123   4
   4  -1  -3 799.648 42.7991  14
  -4  -1   3 798.253 49.0401   2
  -4  -1   3 751.286 39.4735  23
   4   1  -3 755.633 44.5568   1
  -4   1   3 756.759 36.1075   9
  -4   1   3 725.530 44.2884  19
  -4   1   3 710.497 48.7870   2
  -4   1   3 729.108 54.0511  18
   4   1  -3 781.599 42.7705  14
  -4   1   3 726.376 39.4695  23
  -4   1   3 783.933 41.6992  15
  -4   1   3 734.207 37.5486  22
   4   1  -3 716.159 54.1233  18
  -4   1   3 741.199 42.0391   4
  -4   1   3 744.310 37.3974   5
   4   1  -3 733.485 46.1853  11
   4   1  -3 778.279 45.4714  10
   4   1  -3 816.072 42.2004   8
   3  -1  -3 643.293 36.8866  21
  -3  -1   3 595.756 34.4982  15
   3  -1  -3 656.787 37.7314  11
  -3  -1   3 607.460 36.8205  19
   3  -1  -3 662.049 35.1596   8
   3  -1  -3 664.960 35.5931  14
   3  -1  -3 643.035 37.1085   1
   3  -1  -3 641.164 37.5532  10
  -3  -1   3 594.418 40.5990   2
  -3  -1   3 631.141 40.0262   3
   3   1  -3 698.047 35.1364   8
  -3   1   3 630.500 36.8574  19
   3   1  -3 624.904 45.0787  18
   3   1  -3 651.760 36.9159   1
  -3   1   3 637.053 40.7762   2
   3   1  -3 633.496 35.5612  14
   3   1  -3 631.418 37.4440  11
   3   1  -3 652.244 37.4784  10
  -2  -1   3 1139.07 62.7606  19
  -2  -1   3 1230.02 69.5938   2
   2  -1  -3 954.702 63.0457  21
  -2  -1   3 1118.90 66.4557   3
  -2  -1   3 1089.88 70.1063  20
  -2   1   3 1151.38 69.3939   2
  -2   1   3 1088.30 65.4079   3
  -2   1   3 1200.16 76.8962  18
  -2   1   3 1109.04 62.5039  19
   2   1  -3 1211.49 62.4372   1
  -1  -1   3 2026.13 120.883  20
  -1  -1   3 1876.72 105.154  21
  -1  -1   3 1990.46 107.251  19
   1  -1  -3 2033.23 112.596   3
   1  -1  -3 1992.78 120.850  20
  -1  -1   3 2060.08 112.991   3
  -1   1   3 1840.53 106.648  19
  -1   1   3 1902.25 118.018   2
  -1   1   3 1761.99 105.421  21
  -1   1   3 2083.26 130.651  18
  -1   1   3 1925.58 106.622   1
   0  -1  -3 2989.43 167.430   3
   0  -1   3 3051.35 179.712  20
   0  -1   3 2887.56 157.148   1
   0  -1   3 2842.52 155.650  21
   0   1  -3 2874.88 175.973   2
   0   1  -3 3069.45 167.784   3
   0   1   3 2805.64 193.038  18
   0   1   3 2831.81 155.907  21
   0   1   3 2846.71 158.487   1
  -1  -1  -3 806.899 43.5396  11
   1  -1   3 726.075 41.7604  21
   1  -1   3 723.432 47.8564  20
  -1  -1  -3 775.575 40.6995   8
  -1  -1  -3 788.747 41.5814  14
   1  -1   3 748.633 35.1756   9
  -1  -1  -3 757.293 44.5687   3
  -1  -1  -3 705.463 47.7270  20
   1  -1   3 759.028 40.2165  15
  -1  -1  -3 746.932 43.2597  10
  -1   1  -3 681.234 42.0417  19
  -1   1  -3 780.660 41.3661  14
   1   1   3 716.175 41.7983  21
  -1   1  -3 771.674 43.3407  10
   1   1   3 726.471 40.1932  15
  -1   1  -3 749.026 40.6739   8
  -1   1  -3 747.732 43.2230  11
   1   1   3 708.242 35.2219   9
  -2  -1  -3 569.001 30.4371   8
   2  -1   3 557.088 32.2455  21
   2  -1   3 568.881 25.5860   7
  -2  -1  -3 565.979 34.2197   3
   2  -1   3 561.130 24.4239  24
  -2  -1  -3 531.526 30.9862  14
   2  -1   3 501.981 36.0364  20
   2  -1   3 555.267 26.4394   9
  -2  -1  -3 549.627 33.1495  10
  -2  -1  -3 519.004 36.2483  20
   2  -1   3 564.530 30.2087  15
  -2  -1  -3 544.144 33.1361  11
   2   1   3 547.299 25.5185   7
  -2   1  -3 555.116 30.9419  14
  -2   1  -3 555.455 33.1398  10
  -2   1  -3 552.829 33.0791  11
   2   1   3 445.220 36.5364   1
   2   1   3 556.354 26.5115   9
   2   1   3 538.500 32.0898  21
  -2   1  -3 544.452 30.3886   8
   2   1   3 536.473 24.4027  24
   2   1   3 562.565 28.8856   6
  -2   1  -3 517.027 33.9811   3
   2   1   3 553.304 30.1937  15
  -3  -1  -3 676.497 36.6425   6
   3  -1   3 691.406 38.5621  15
  -3  -1  -3 675.014 39.5683  14
  -3  -1  -3 669.446 38.7715   8
   3  -1   3 689.082 32.3361   7
   3  -1   3 687.066 36.7178   6
   3  -1   3 703.811 33.8483   9
   3   1   3 669.635 41.4277   4
   3   1   3 711.300 38.6702  15
  -3   1  -3 666.596 38.7491   8
   3   1   3 706.237 32.3375   7
  -3   1  -3 677.260 39.4495  14
   3   1   3 744.935 31.4376  24
   3   1   3 719.173 41.1249  21
   3   1   3 713.556 33.9774   9
   4  -1   3 411.843 21.4055   9
  -4  -1  -3 429.673 23.1106   6
   4  -1   3 390.952 24.2695  15
  -4  -1  -3 416.292 23.0073  17
  -4  -1  -3 426.392 20.5767  16
  -4   1  -3 442.993 23.3687   6
   4   1   3 418.963 21.6227   9
  -4   1  -3 398.142 22.7789  17
   4   1   3 398.464 24.3784  15
  -4   1  -3 406.282 20.5233  16
  -5  -1  -3 1031.64 54.5984   6
  -5   1  -3 1051.48 54.8260   6
   6  -2  -3 812.923 43.9415   4
  -6  -2   3 755.146 40.3314  23
   6   2  -3 769.371 43.3017   4
  -6   2   3 814.692 40.8352  23
  -6   2   3 718.139 38.0983   5
   5  -2  -3 293.875 18.6188   8
   5  -2  -3 304.460 19.0387  14
  -5  -2   3 305.892 15.7994   9
  -5  -2   3 304.152 16.2173   5
  -5  -2   3 315.290 18.3728  15
  -5  -2   3 314.497 16.5311  22
  -5  -2   3 330.336 17.3485  23
   5   2  -3 286.207 18.4196   8
  -5   2   3 304.330 16.2287   5
  -5   2   3 316.466 19.0505   4
  -5   2   3 305.311 15.6767   9
   5   2  -3 304.523 19.0776  14
  -5   2   3 311.968 17.6108  23
   5   2  -3 305.123 18.7595   4
  -5   2   3 286.695 16.2346  22
  -5   2   3 311.725 18.9947  15
   4  -2  -3 327.010 19.2708   8
  -4  -2   3 315.408 17.0572  22
  -4  -2   3 309.506 23.2973   2
  -4  -2   3 315.011 17.9381  23
  -4  -2   3 326.122 19.2128   4
  -4  -2   3 303.009 16.2796   9
  -4  -2   3 300.432 21.1692  19
   4  -2  -3 299.248 21.8995   1
   4  -2  -3 307.721 21.4222  10
   4  -2  -3 345.694 19.4294  14
  -4  -2   3 313.369 18.6717  15
  -4  -2   3 325.369 16.9405   5
   4   2  -3 328.475 21.6271   1
  -4   2   3 331.400 16.2009   9
   4   2  -3 352.516 19.5345  14
  -4   2   3 324.824 16.9356   5
  -4   2   3 299.624 25.5950  18
  -4   2   3 339.440 23.5828   2
   4   2  -3 336.266 21.6363  10
  -4   2   3 334.957 19.4899   4
   4   2  -3 364.107 19.1227   8
   4   2  -3 342.974 26.3212  18
  -4   2   3 332.139 17.0673  22
  -4   2   3 346.082 21.8420  19
  -4   2   3 351.509 18.2303  23
   3  -2  -3 1026.47 55.9786  11
   3  -2  -3 922.995 54.4527   1
  -3  -2   3 954.883 49.3766  23
  -3  -2   3 959.359 54.3062  19
   3  -2  -3 929.446 54.4862  21
  -3  -2   3 818.948 58.6301   3
   3  -2  -3 1032.70 52.6634   8
   3  -2  -3 1037.29 53.1669  14
  -3  -2   3 951.329 60.0442   2
  -3  -2   3 904.146 51.5449  15
   3  -2  -3 976.594 55.6665  10
  -3  -2   3 939.245 46.9227  22
  -3   2   3 961.129 52.6273   4
  -3   2   3 918.547 46.8932  22
  -3   2   3 949.855 45.0167   9
   3   2  -3 1017.03 55.6023  10
  -3   2   3 936.022 60.0086   2
  -3   2   3 959.032 54.2935  19
   3   2  -3 966.105 55.5505  11
   3   2  -3 1038.76 52.3429   8
   3   2  -3 994.376 54.0695   1
   3   2  -3 920.236 66.3107  18
  -3   2   3 928.450 46.8602   5
   3   2  -3 985.818 53.2776  14
  -3   2   3 944.247 51.9090  15
  -2  -2   3 2132.51 134.118  20
  -2  -2   3 2154.15 132.003   2
  -2  -2   3 2207.18 126.877   3
   2  -2  -3 2214.33 118.805  14
   2  -2  -3 2126.30 118.858  21
  -2  -2   3 2171.94 119.190  19
   2   2  -3 2150.94 145.736  18
  -2   2   3 2280.76 145.963  18
  -2   2   3 1887.54 115.875  15
   2   2  -3 2277.11 118.257   1
  -2   2   3 2184.04 118.863  19
  -2   2   3 2336.40 119.458   1
  -2   2   3 2163.44 131.874   2
  -1  -2   3 2758.28 150.948   3
  -1  -2   3 2632.09 161.014  20
   1  -2  -3 2601.37 161.039  20
  -1  -2   3 2363.18 139.574  21
  -1   2   3 2554.88 157.221   2
  -1   2   3 2452.44 141.727  19
   1   2  -3 2736.94 174.030  18
  -1   2   3 2770.36 142.566   1
   1   2  -3 2686.14 157.891   2
  -1   2   3 2547.06 173.895  18
   0  -2   3 150.322 9.96418  21
   0  -2  -3 147.368 10.9067  20
   0  -2  -3 149.900 9.49832  10
   0  -2  -3 156.343 9.89900   3
   0  -2   3 144.537 10.3453   3
   0  -2   3 154.871 11.0846  20
   0   2  -3 141.428 11.8319  19
   0   2   3 155.186 10.3054  21
   0   2   3 136.635 11.0879  18
   0   2  -3 125.572 11.9521   2
   0   2   3 122.325 11.5355   1
   0   2   3 154.029 8.24375  15
   0   2  -3 141.903 8.29042  14
  -1  -2  -3 1380.31 76.0937  10
   1  -2   3 1401.56 73.1303  21
  -1  -2  -3 1305.73 71.9697   8
  -1  -2  -3 1365.37 77.9066   3
   1  -2   3 1269.90 83.5055  20
  -1  -2  -3 1288.23 73.5640  14
  -1  -2  -3 1218.64 83.3619  20
   1  -2   3 1387.90 62.1815   9
   1  -2   3 1307.20 71.1449  15
  -1  -2  -3 1344.40 76.3000  11
  -1   2  -3 1317.93 78.2994   3
  -1   2  -3 1336.54 72.1154   8
  -1   2  -3 1397.26 73.1812  14
  -1   2  -3 1324.87 76.0131  11
   1   2   3 1311.31 71.1410  15
   1   2   3 1357.80 72.9404  21
   1   2   3 1169.35 76.0115   1
  -1   2  -3 1409.67 76.0904  10
  -1   2  -3 1342.50 74.4846  19
   2  -2   3 283.399 14.6158   9
   2  -2   3 271.605 20.6671  20
  -2  -2  -3 277.564 20.9423  20
  -2  -2  -3 266.997 18.9017  11
  -2  -2  -3 291.468 16.7718   8
   2  -2   3 281.371 16.0782   6
   2  -2   3 294.331 19.4219  21
  -2  -2  -3 281.046 19.7306   3
  -2  -2  -3 308.191 17.4906  14
   2  -2   3 280.918 14.1503   7
   2  -2   3 295.672 16.7805  15
  -2  -2  -3 284.885 19.0927  10
   2  -2   3 289.976 13.5318  24
   2   2   3 305.327 14.9479   9
  -2   2  -3 279.486 18.8545  10
  -2   2  -3 286.013 18.6694  19
  -2   2  -3 291.138 16.7877   8
  -2   2  -3 295.652 19.0128  11
   2   2   3 301.826 19.6359   4
   2   2   3 312.491 25.0436   1
  -2   2  -3 282.647 19.9657   3
  -2   2  -3 304.248 17.1088  14
   2   2   3 285.423 13.5623  24
   2   2   3 286.143 14.1209   7
   2   2   3 301.426 16.7495  15
   2   2   3 299.089 18.8937  21
  -3  -2  -3 724.543 41.8896   8
   3  -2   3 751.917 36.3913   9
   3  -2   3 753.907 41.5831  15
  -3  -2  -3 768.867 39.5424   6
   3  -2   3 747.545 39.6643   6
  -3  -2  -3 763.359 35.6331  16
   3  -2   3 772.980 34.8919   7
  -3  -2  -3 758.800 39.4690  17
  -3  -2  -3 709.422 42.7892  14
  -3   2  -3 725.632 42.5631  14
  -3   2  -3 693.567 41.8026   8
   3   2   3 765.718 36.6442   9
   3   2   3 773.159 41.6841  15
   3   2   3 722.692 33.4004  24
   3   2   3 796.504 44.2139   4
  -4  -2  -3 1039.98 54.7961   6
   4  -2   3 1063.87 57.6634  15
   4  -2   3 974.642 50.2849   9
  -4  -2  -3 1044.98 54.4930  17
  -4  -2  -3 1035.97 49.2677  16
   4   2   3 1003.41 57.6398  15
   4   2   3 1087.47 59.2837   4
  -4   2  -3 1070.17 49.3160  16
  -4   2  -3 1054.26 54.0836  17
   4   2   3 1033.20 50.7012   9
  -4   2  -3 1073.96 55.1173   6
  -5  -2  -3 41.1857 4.75648   6
  -5   2  -3 35.4048 5.26330   6
  -6  -3   3 84.1070 6.82830  23
   6  -3  -3 82.4476 9.39516   4
   6   3  -3 97.5083 8.67087   4
  -6   3   3 100.583 6.70866   5
  -6   3   3 100.384 7.93668  23
  -5  -3   3 228.190 12.9425   9
  -5  -3   3 239.917 13.9331  23
  -5  -3   3 221.224 15.6366   6
   5  -3  -3 221.478 15.4471  14
  -5  -3   3 238.192 14.9888  15
  -5  -3   3 228.575 13.0229   5
  -5  -3   3 231.613 13.3831  22
   5  -3  -3 230.965 15.3248   8
  -5   3   3 250.102 13.1992   5
   5   3  -3 240.459 14.9866   8
  -5   3   3 243.703 15.4583  15
   5   3  -3 229.665 15.7436  14
  -5   3   3 239.733 12.6282   9
  -5   3   3 250.634 14.6457  23
  -5   3   3 230.980 13.1177  22
  -5   3   3 254.967 15.9385   4
   5   3  -3 248.385 15.3947   4
   4  -3  -3 3471.30 181.890  14
  -4  -3   3 3278.39 154.296   9
  -4  -3   3 3443.86 167.266  23
   4  -3  -3 3370.27 182.574   1
  -4  -3   3 3172.33 194.786   3
  -4  -3   3 3169.13 169.494   6
  -4  -3   3 3302.80 181.824  19
   4  -3  -3 3596.03 179.616   8
  -4  -3   3 3397.02 159.334  22
  -4  -3   3 3207.29 176.499  15
  -4  -3   3 3268.61 158.627   5
  -4   3   3 3346.05 154.118   9
   4   3  -3 3332.15 176.947   4
   4   3  -3 3244.73 201.758   2
  -4   3   3 3332.05 177.432   4
  -4   3   3 3401.44 177.040  15
  -4   3   3 3315.60 182.411  19
   4   3  -3 3388.62 182.061  14
  -4   3   3 3234.18 159.186  22
  -4   3   3 3089.83 222.411  18
  -4   3   3 3112.60 158.619   5
   4   3  -3 3504.45 179.034   8
  -4   3   3 3372.98 167.510  23
   4   3  -3 3154.49 181.058   1
   4   3  -3 3219.92 223.035  18
  -3  -3   3 387.125 21.6135  15
  -3  -3   3 398.736 27.7673   3
  -3  -3   3 387.907 19.7936  22
   3  -3  -3 402.534 25.0248   1
  -3  -3   3 419.130 21.0414  23
  -3  -3   3 394.026 19.7380   5
  -3  -3   3 425.218 24.4639  19
   3  -3  -3 377.807 22.4768   8
   3  -3  -3 416.203 24.9394  11
  -3  -3   3 327.934 21.5484   6
   3  -3  -3 365.942 25.5807  21
  -3  -3   3 378.823 19.1823   9
   3  -3  -3 397.092 24.4310  10
  -3   3   3 413.955 24.4651  19
   3   3  -3 370.836 29.1881  18
   3   3  -3 370.962 23.5486   1
  -3   3   3 391.056 19.7313   5
  -3   3   3 401.181 18.8986   9
   3   3  -3 416.246 24.3682  11
   3   3  -3 393.447 26.7579   2
  -3   3   3 395.415 22.3034  15
   3   3  -3 390.930 22.8038  14
  -3   3   3 332.947 20.8922  23
   3   3  -3 411.806 24.3028  10
  -3   3   3 397.422 26.5099   2
  -3   3   3 398.543 22.6296   4
  -3   3   3 374.491 19.7894  22
   3   3  -3 407.038 21.9387   8
   2  -3  -3 2155.25 115.369   8
  -2  -3   3 1899.50 124.656   3
   2  -3  -3 2261.94 116.887  21
   2  -3  -3 2165.06 121.250  11
  -2  -3   3 2040.01 131.766  20
   2  -3  -3 2139.17 116.671  14
  -2  -3   3 2174.06 117.238  19
  -2  -3   3 2027.38 113.273  15
  -2   3   3 2145.76 113.990  15
  -2   3   3 2245.34 117.859   1
   2   3  -3 2199.60 117.049  14
  -2   3   3 2190.06 129.600   2
  -2   3   3 2056.42 116.616  19
   2   3  -3 2126.36 120.818  10
   2   3  -3 2160.72 143.362  18
   2   3  -3 2123.92 114.812   8
  -2   3   3 2133.83 143.284  18
   1  -3  -3 49.6220 7.12479  21
  -1  -3   3 41.1080 5.94585   3
  -1  -3   3 43.3823 4.98543  20
  -1  -3   3 41.8455 2.76133  15
   1  -3  -3 43.8466 2.88621   8
   1  -3  -3 42.8648 5.24328  20
  -1   3   3 29.5235 3.09922  15
  -1   3   3 31.8842 5.32698  18
   1   3  -3 46.0120 6.77820   2
  -1   3   3 35.1502 6.56903   1
   1   3  -3 40.5336 7.19941  19
   1   3  -3 32.4277 5.53244  18
  -1   3   3 29.2277 4.34737   2
   0  -3   3 647.450 37.2614  21
   0  -3   3 628.068 36.0791  15
   0  -3  -3 638.139 39.5206  11
   0  -3  -3 646.371 42.6911  20
   0  -3   3 680.864 31.1658   9
   0  -3  -3 659.386 36.0656   8
   0  -3   3 624.215 40.1826   3
   0  -3  -3 658.281 38.8641  10
   0  -3   3 655.403 42.6960  20
   0  -3  -3 693.555 37.5161  14
   0   3   3 578.165 39.3536   1
   0   3   3 701.692 35.7792  15
   0   3   3 672.218 31.8545   9
   0   3  -3 710.083 39.6681  19
   0   3  -3 641.788 38.4703  11
   0   3  -3 676.151 36.5374   8
   0   3   3 685.187 37.8223  21
   0   3  -3 709.830 38.9424  10
   0   3   3 662.091 45.5638  18
   0   3  -3 667.037 36.5689  14
   1  -3   3 3451.30 155.612   9
  -1  -3  -3 3279.56 207.157  20
  -1  -3  -3 3293.92 180.338   8
  -1  -3  -3 3335.89 189.905  11
  -1  -3  -3 3387.69 192.952   3
   1  -3   3 3309.31 207.135  20
  -1  -3  -3 3467.63 189.493  10
   1  -3   3 3322.70 178.114  15
   1  -3   3 3325.32 180.129  21
  -1  -3  -3 3124.79 183.783  14
  -1   3  -3 3053.76 183.500  19
  -1   3  -3 3485.15 189.445  11
  -1   3  -3 3418.16 193.989   3
  -1   3  -3 3267.06 189.273  10
  -1   3  -3 3274.19 183.122  14
   1   3   3 3354.32 156.082   9
   1   3   3 3378.24 180.017  21
   1   3   3 3507.39 184.790   1
  -1   3  -3 3359.27 180.676   8
   1   3   3 3568.25 178.164  15
  -2  -3  -3 1060.21 62.0568   3
  -2  -3  -3 997.442 60.4123  10
   2  -3   3 991.553 47.0672   7
  -2  -3  -3 1030.33 66.3855  20
   2  -3   3 1078.25 55.9398  15
  -2  -3  -3 972.733 60.6353  11
  -2  -3  -3 1031.08 56.4178   8
   2  -3   3 952.602 65.8037  20
   2  -3   3 1066.15 58.7413  21
   2  -3   3 999.087 45.0406  24
   2  -3   3 1041.86 48.7533   9
   2  -3   3 1029.76 53.4224   6
  -2  -3  -3 1079.89 58.0181  14
  -2  -3  -3 1082.83 53.2621   6
   2   3   3 1029.70 57.9672  21
  -2   3  -3 1045.41 57.3212  14
  -2   3  -3 958.437 60.1882  10
   2   3   3 926.221 46.9264   7
  -2   3  -3 991.620 52.9389  23
   2   3   3 1044.85 45.2323  24
   2   3   3 1046.33 49.2030   9
   2   3   3 1021.81 55.8287  15
  -2   3  -3 1073.53 56.6077   8
  -2   3  -3 1037.00 59.1953  19
   2   3   3 1035.88 57.5020   4
   2   3   3 1114.80 62.6725   1
  -2   3  -3 995.505 62.4103   3
  -2   3  -3 1031.23 60.3020  11
   3  -3   3 2062.56 104.624   6
   3  -3   3 2065.27 109.531  15
  -3  -3  -3 2011.06 104.279   6
  -3  -3  -3 2002.03 94.1944  16
   3  -3   3 2019.77 95.6770   9
  -3  -3  -3 2011.55 103.555  17
   3  -3   3 1992.71 92.1074   7
  -3  -3  -3 2018.43 111.298   8
  -3   3  -3 2042.43 94.3634  16
  -3   3  -3 2006.44 112.446  14
   3   3   3 2216.97 111.321   4
  -3   3  -3 2004.77 103.181  17
  -3   3  -3 2001.38 110.836   8
   3   3   3 2105.46 96.2099   9
   3   3   3 1965.05 109.463  15
   3   3   3 1966.92 88.4279  24
   4  -3   3 221.546 13.2519   9
   4  -3   3 231.767 15.3416  15
  -4  -3  -3 276.252 14.5610   6
  -4  -3  -3 259.566 12.8597  16
   4   3   3 254.270 17.0369   4
  -4   3  -3 238.085 12.9094  16
   4   3   3 201.252 13.7990   9
   4   3   3 197.825 15.2621  15
  -4   3  -3 231.980 14.8451   6
  -5  -3  -3 51.9601 5.58920   6
   5   3   3 36.5526 5.34788   4
  -6  -4   3 570.639 29.5446   6
   6  -4  -3 514.943 31.5673   4
  -6  -4   3 552.550 28.9199  23
  -6   4   3 519.887 29.6210  23
   6   4  -3 557.083 31.4065   4
  -6   4   3 541.184 27.4680   5
  -5  -4   3 592.905 28.5684  22
   5  -4  -3 482.002 32.2112   8
  -5  -4   3 567.391 31.6216  15
  -5  -4   3 553.066 27.5326   9
  -5  -4   3 581.261 29.6664  23
  -5  -4   3 556.165 28.0294   5
  -5  -4   3 604.951 30.8077   6
   5  -4  -3 507.075 32.5950  14
  -5   4   3 580.997 28.2061   5
  -5   4   3 557.812 32.3926   4
  -5   4   3 542.326 32.1449  15
   5   4  -3 493.057 32.8071  14
  -5   4   3 550.896 27.2115   9
   5   4  -3 570.576 31.8766   4
  -5   4   3 554.746 28.1725  22
   5   4  -3 539.946 31.9159   8
  -5   4   3 553.151 30.4219  23
   4  -4  -3 167.605 11.6776  14
  -4  -4   3 170.182 11.8478   6
   4  -4  -3 174.072 12.1311   8
  -4  -4   3 163.249 10.6323  23
  -4  -4   3 201.736 19.9689   3
  -4  -4   3 190.437 16.0091  19
  -4  -4   3 167.173 10.0226   5
  -4  -4   3 178.241 11.3277  15
  -4  -4   3 173.214 10.3226  22
  -4  -4   3 167.662 10.1079   9
  -4   4   3 185.296 12.2795  15
  -4   4   3 180.763 9.66722   9
  -4   4   3 180.423 10.1978   5
   4   4  -3 178.288 11.2228   8
   4   4  -3 178.586 12.3765  14
  -4   4   3 183.033 12.5459   4
  -4   4   3 173.708 10.1835  22
   4   4  -3 158.271 15.7712   2
  -4   4   3 176.290 11.8857  23
   3  -4  -3 1437.73 81.7224  21
  -3  -4   3 1494.06 70.3083   5
   3  -4  -3 1457.40 84.3288  10
   3  -4  -3 1425.54 82.4272   1
  -3  -4   3 1514.43 81.7084  19
  -3  -4   3 1449.22 70.5357  22
   3  -4  -3 1530.60 84.8131  11
  -3  -4   3 1558.51 88.1034   3
   3  -4  -3 1491.05 80.3275  14
  -3  -4   3 1434.71 75.1570   6
   3  -4  -3 1364.83 79.6096   8
  -3  -4   3 1479.71 74.1735  23
  -3  -4   3 1419.55 68.3587   9
  -3  -4   3 1524.85 78.0732  15
  -3   4   3 1336.01 81.7433  19
  -3   4   3 1500.75 90.5257   2
  -3   4   3 1441.41 99.8359  18
   3   4  -3 1523.75 90.6271   2
   3   4  -3 1556.35 84.3435  10
   3   4  -3 1437.84 84.4303  11
  -3   4   3 1416.80 70.2908   5
  -3   4   3 1347.22 78.7113  15
  -3   4   3 1427.33 78.9910   4
   3   4  -3 1306.63 80.6693  14
   3   4  -3 1453.07 78.9544   8
   3   4  -3 1424.63 99.8439  18
  -3   4   3 1455.75 68.1395   9
   2  -4  -3 878.480 54.4304  10
   2  -4  -3 959.522 50.5922   8
  -2  -4   3 904.530 43.3463   9
  -2  -4   3 864.307 56.0637   3
  -2  -4   3 920.156 58.4645  20
  -2  -4   3 950.745 49.4684  15
   2  -4  -3 959.506 50.9906  14
   2  -4  -3 917.197 54.2639  11
   2  -4  -3 952.949 52.7949  21
  -2  -4   3 890.876 52.5054  19
  -2   4   3 954.809 57.7759   2
  -2   4   3 947.150 53.7712   1
   2   4  -3 916.062 51.1556  14
  -2   4   3 955.139 50.0599  15
   2   4  -3 899.321 53.9106  10
   2   4  -3 788.246 53.8410  11
  -2   4   3 970.167 43.3358   9
   2   4  -3 889.529 58.1038   2
   2   4  -3 939.250 50.0539   8
   2   4  -3 896.439 63.9255  18
  -2   4   3 897.576 63.8408  18
  -1  -4   3 1433.10 92.6877  20
   1  -4  -3 1487.08 81.4642  14
  -1  -4   3 1479.11 69.0285   9
  -1  -4   3 1324.38 87.2437   3
   1  -4  -3 1437.06 85.7070  11
   1  -4  -3 1464.69 93.1573  20
   1  -4  -3 1585.32 85.5723  10
   1  -4  -3 1400.44 81.7937  21
   1  -4  -3 1490.76 80.1870   8
  -1  -4   3 1339.89 78.9866  15
   1   4  -3 1588.85 100.885  18
  -1   4   3 1492.10 69.3191   9
  -1   4   3 1380.89 79.2076  15
   1   4  -3 1602.14 85.2030  10
  -1   4   3 1251.73 82.6984   1
  -1   4   3 1567.76 90.3429   2
  -1   4   3 1622.49 100.640  18
   1   4  -3 1546.23 91.9621   2
   1   4  -3 1509.63 85.1104  11
   1   4  -3 1512.45 81.1825  14
   1   4  -3 1484.64 80.0850   8
   0  -4   3 278.582 18.5926   3
   0  -4   3 288.624 15.5098  15
   0  -4   3 250.060 17.0397  21
   0  -4  -3 278.417 15.1612   8
   0  -4  -3 296.763 19.4988  20
   0  -4   3 295.219 19.2265  20
   0  -4  -3 250.624 18.5199  11
   0  -4   3 284.774 13.0435   9
   0  -4  -3 300.040 18.2342  10
   0   4   3 257.751 13.6694   9
   0   4  -3 258.435 17.6638  10
   0   4   3 220.117 16.9047  21
   0   4  -3 220.357 20.0194   2
   0   4  -3 265.783 18.4417  19
   0   4   3 246.676 20.4113  18
   0   4  -3 253.120 16.8981  11
   0   4  -3 262.075 15.4816   8
   0   4   3 242.558 18.7258   1
   0   4   3 269.163 15.1933  15
   0   4  -3 249.319 15.1648  14
  -1  -4  -3 1114.67 72.4802  20
  -1  -4  -3 1085.07 67.1699   3
   1  -4   3 1097.99 58.6138   6
  -1  -4  -3 1135.90 61.7747   8
   1  -4   3 1035.58 58.1540  23
   1  -4   3 1199.41 63.9900  21
   1  -4   3 1105.36 51.7324   7
   1  -4   3 1164.24 61.3881  15
   1  -4   3 1172.71 53.3730   9
   1  -4   3 1135.68 49.5018  24
  -1  -4  -3 1191.31 66.5123  10
  -1  -4  -3 1135.19 66.8111  11
  -1  -4  -3 1087.76 63.4911  14
   1  -4   3 1067.21 72.0839  20
  -1   4  -3 1129.92 66.0432  10
   1   4   3 1131.06 61.1342  15
   1   4   3 1131.57 54.1874   9
  -1   4  -3 1139.14 68.3926   3
   1   4   3 1144.85 62.3127   4
  -1   4  -3 1146.67 65.3891  19
  -1   4  -3 1190.25 65.8824  11
   1   4   3 1228.35 66.2830   1
   1   4   3 1089.66 51.7024   7
   1   4   3 1184.12 63.3710  21
  -1   4  -3 1104.65 62.6381  14
   1   4   3 1102.74 49.5780  24
  -2  -4  -3 1800.81 92.3848   6
   2  -4   3 1785.21 100.396  21
  -2  -4  -3 1750.01 106.213   3
   2  -4   3 1867.91 84.7905   9
   2  -4   3 1797.94 78.3700  24
   2  -4   3 1668.20 113.503  20
  -2  -4  -3 1735.54 100.487  14
   2  -4   3 1809.19 81.9142   7
  -2  -4  -3 1890.37 98.2325   8
  -2  -4  -3 1734.17 114.357  20
   2  -4   3 1873.97 97.1607  15
   2  -4   3 1822.51 92.7860   6
   2   4   3 1861.75 97.1770  15
   2   4   3 1903.13 98.2889   4
   2   4   3 1962.88 85.6630   9
  -2   4  -3 1816.18 107.456   3
  -2   4  -3 1883.01 99.7117  14
  -2   4  -3 1715.98 92.0774  23
   2   4   3 1757.51 99.0384  21
  -2   4  -3 1896.08 98.5969   8
   2   4   3 1958.31 103.669   1
   2   4   3 1807.53 78.6185  24
  -2   4  -3 1527.31 103.791  10
   2   4   3 1687.71 81.7245   7
  -2   4  -3 1730.98 101.666  19
   3  -4   3 269.649 14.7609   9
  -3  -4  -3 273.789 14.4210  16
   3  -4   3 287.885 14.1070   7
   3  -4   3 269.814 16.4840   6
  -3  -4  -3 300.220 16.1731   6
   3  -4   3 282.570 17.1593  15
  -3  -4  -3 267.831 16.7783  17
  -3   4  -3 256.345 14.6421  16
   3   4   3 274.990 13.9175  24
   3   4   3 269.485 17.0770  15
  -3   4  -3 262.983 16.0586  23
   3   4   3 271.028 18.2376   4
  -3   4  -3 255.928 15.8229  17
   3   4   3 261.096 15.5547   9
  -4  -4  -3 392.215 21.7981   6
   4  -4   3 381.844 18.9786   7
  -4   4  -3 346.077 21.8950   6
   4   4   3 423.126 23.9470   4
  -5  -4  -3 11.6254 3.24019   6
   5   4   3 14.3235 3.74589   4
  -6  -5   3 427.838 22.4217   6
   6  -5  -3 415.665 24.1019   4
   6   5  -3 409.587 24.3581   4
  -6   5   3 433.014 21.3116   5
  -6   5   3 359.443 22.7069  23
  -5  -5   3 1262.83 67.2140  15
  -5  -5   3 1255.69 63.3642   6
  -5  -5   3 1221.98 59.4580   5
  -5  -5   3 1147.45 57.6990   9
  -5  -5   3 1221.26 60.0896  22
  -5  -5   3 1211.83 62.5852  23
  -5   5   3 1226.92 59.7081  22
  -5   5   3 1241.45 59.6736   5
  -5   5   3 1165.28 66.9201   4
  -5   5   3 1148.57 67.5549  15
  -5   5   3 1221.26 57.8431   9
  -4  -5   3 162.305 9.34625   9
  -4  -5   3 159.345 10.0470  23
   4  -5  -3 153.407 11.0254  14
   4  -5  -3 141.427 11.2937   8
  -4  -5   3 154.940 9.58945  22
  -4  -5   3 147.195 9.25795   5
  -4  -5   3 161.248 10.3638   6
  -4  -5   3 155.043 10.6058  15
  -4   5   3 155.444 8.91672   9
  -4   5   3 133.669 11.5353  15
   4   5  -3 128.186 11.3352  14
   4   5  -3 152.029 10.4401   8
  -4   5   3 140.602 11.5264   4
  -4   5   3 158.317 9.66308   5
  -4   5   3 113.655 10.9640  23
  -4   5   3 156.227 9.54820  22
  -3  -5   3 283.333 21.6403   3
  -3  -5   3 271.499 15.2218   5
   3  -5  -3 274.823 17.6367   8
   3  -5  -3 249.807 20.8057  10
  -3  -5   3 262.908 16.3567   6
   3  -5  -3 269.509 17.2958  14
  -3  -5   3 274.450 16.2530  23
  -3  -5   3 277.493 15.3172  22
   3  -5  -3 301.895 21.3414  21
  -3  -5   3 272.720 14.6698   9
  -3  -5   3 283.192 16.8959  15
  -3  -5   3 257.232 19.8294  19
   3   5  -3 294.180 16.9837   8
  -3   5   3 288.252 24.6242  18
   3   5  -3 277.802 24.4070  18
   3   5  -3 339.511 18.1598  14
   3   5  -3 304.499 21.3459  10
  -3   5   3 307.166 15.5438   5
  -3   5   3 320.216 22.7935   2
  -3   5   3 291.959 15.4661  22
  -3   5   3 279.962 17.6823  15
   3   5  -3 287.825 22.0773   2
  -3   5   3 313.815 14.8220   9
  -3   5   3 272.449 17.9277   4
  -2  -5   3 444.958 29.3101   3
  -2  -5   3 463.156 24.7196  15
  -2  -5   3 464.878 30.9392  20
  -2  -5   3 446.618 23.9644  23
   2  -5  -3 469.164 25.6039  14
  -2  -5   3 439.026 22.4739  22
   2  -5  -3 458.198 25.1707   8
   2  -5  -3 443.349 27.7999  21
  -2  -5   3 444.974 23.9456   6
  -2  -5   3 455.185 21.4806   9
   2  -5  -3 429.347 29.4568  11
  -2  -5   3 431.482 22.4564   5
   2   5  -3 426.646 33.7874  18
  -2   5   3 444.557 22.6159  22
   2   5  -3 438.478 25.3686  14
   2   5  -3 386.219 28.1554  10
   2   5  -3 394.138 27.9842  11
  -2   5   3 424.394 22.3495   5
  -2   5   3 421.877 30.0886   2
  -2   5   3 414.676 28.5825   1
  -2   5   3 464.799 33.9946  18
   2   5  -3 442.032 31.0211   2
   2   5  -3 452.490 25.0093   8
  -2   5   3 452.160 25.0455  15
  -2   5   3 415.173 21.4155   7
  -2   5   3 424.882 21.6641   9
   2   5  -3 457.550 29.5039  19
   1  -5  -3 454.940 26.5856   8
   1  -5  -3 450.470 29.1984  21
   1  -5  -3 474.508 29.4356  10
   1  -5  -3 449.271 32.6491  20
  -1  -5   3 442.156 22.7358   9
  -1  -5   3 498.925 32.5937  20
   1  -5  -3 517.719 30.3536  11
   1  -5  -3 455.109 27.3048  14
  -1  -5   3 436.119 24.0778   5
  -1  -5   3 502.247 30.9319   3
  -1  -5   3 459.020 25.3467   6
  -1   5   3 495.475 22.8740   7
   1   5  -3 532.385 29.4860  10
   1   5  -3 433.327 26.7499  14
   1   5  -3 448.094 29.6411  19
  -1   5   3 496.068 31.0960   2
  -1   5   3 486.028 26.4592  15
   1   5  -3 402.342 26.4982   8
   1   5  -3 418.105 35.3839  18
  -1   5   3 490.283 27.2083   4
   1   5  -3 510.027 29.4237  11
  -1   5   3 410.727 23.0211   9
  -1   5   3 524.471 35.7546  18
  -1   5   3 494.793 29.9531   1
   1   5  -3 433.513 32.6486   2
   0  -5   3 3909.17 239.798   3
   0  -5   3 4343.44 220.612  15
   0  -5  -3 4347.67 223.632   8
   0  -5  -3 4399.28 236.193  11
   0  -5   3 4186.32 256.711  20
   0  -5  -3 4103.80 257.131  20
   0  -5   3 4163.96 192.589   9
   0  -5   3 3964.36 178.539  24
   0  -5   3 3837.46 210.703   6
   0  -5  -3 4356.57 223.528  21
   0  -5   3 4463.43 186.783   7
   0  -5   3 4002.57 208.805  23
   0  -5  -3 4003.74 227.237  14
   0  -5   3 4011.82 198.431   5
   0  -5  -3 3657.04 235.198  10
   0   5   3 4086.33 277.680  18
   0   5  -3 3858.85 234.918  10
   0   5   3 4394.42 226.727   1
   0   5   3 4046.73 186.591   7
   0   5  -3 4021.27 234.985  11
   0   5   3 4301.71 178.825  24
   0   5  -3 4263.74 226.757  14
   0   5   3 4144.68 221.383   4
   0   5  -3 4200.52 226.892  19
   0   5   3 4373.29 193.140   9
   0   5  -3 4294.48 223.548   8
   0   5   3 4209.00 220.773  15
   0   5  -3 4079.99 251.871   2
   1  -5   3 255.444 13.5115  23
  -1  -5  -3 219.886 18.4608  20
   1  -5   3 221.660 11.1249  24
   1  -5   3 209.102 17.9838  20
  -1  -5  -3 244.705 14.6796  14
   1  -5   3 238.524 11.9697   9
  -1  -5  -3 232.217 17.9836  10
   1  -5   3 171.748 16.8787  21
  -1  -5  -3 189.327 17.9148  11
   1  -5   3 219.745 14.1662  15
   1  -5   3 230.202 11.8772   7
  -1  -5  -3 222.957 13.7119   8
   1  -5   3 210.683 13.3455   6
  -1   5  -3 219.111 16.0781  11
   1   5   3 231.488 11.3494  24
  -1   5  -3 214.832 14.0217   8
  -1   5  -3 262.606 18.3431  19
  -1   5  -3 225.656 13.6275  14
   1   5   3 237.827 14.6932   4
  -1   5  -3 200.401 17.5181   3
   1   5   3 226.487 11.7536   7
  -1   5  -3 230.398 16.7992  10
   1   5   3 218.651 12.8406   9
   1   5   3 247.603 14.1884  15
   1   5   3 236.437 18.3487   1
   1   5   3 213.842 16.1836  21
  -1   5  -3 232.302 19.5481   2
   2  -5   3 33.2988 3.89138   7
  -2  -5  -3 31.4090 9.58195  20
   2  -5   3 34.7064 4.08463   9
   2  -5   3 23.5275 7.50844  20
  -2  -5  -3 34.9194 4.78816   8
   2  -5   3 22.3045 4.30830   6
   2  -5   3 25.7780 3.07832  24
  -2  -5  -3 2.91787 10.9299  10
  -2  -5  -3 24.3083 5.44383  14
   2  -5   3 28.7944 10.2461  21
   2  -5   3 38.1300 5.21808  15
   2   5   3 33.6333 5.43976   9
   2   5   3 21.2566 11.7309   1
  -2   5  -3 25.5733 5.03606   8
   2   5   3 19.5493 3.27739  24
  -2   5  -3 31.5545 4.29310  14
   2   5   3 22.6295 4.86817   4
  -2   5  -3 24.6737 8.90427  19
  -2   5  -3 17.0988 7.96574   3
   2   5   3 31.0840 3.69684   7
   2   5   3 30.1796 4.83697  15
  -2   5  -3 33.5928 4.93993  23
  -2   5  -3 2.18114 8.99157  10
   3  -5   3 265.212 17.0588   6
   3  -5   3 296.396 14.9384   7
  -3  -5  -3 293.126 15.3682  16
  -3  -5  -3 269.864 17.4152  17
   3  -5   3 286.735 18.3089  15
  -3  -5  -3 265.128 16.6240   6
   3  -5   3 298.368 15.8202   9
   3   5   3 289.918 17.1458   9
  -3   5  -3 275.523 15.5380  16
  -3   5  -3 284.318 17.1516  23
  -3   5  -3 285.858 16.8670  17
   3   5   3 300.881 18.4565  15
   3   5   3 282.675 14.7542  24
   3   5   3 298.389 18.5505   4
  -4  -5  -3 188.424 12.6396   6
   4  -5   3 194.376 10.9798   7
   4   5   3 208.494 13.8533   4
  -4   5  -3 197.412 12.4219  23
  -6  -6   3 21.3692 3.25107   6
  -6   6   3 25.0505 3.39296   5
  -6   6   3 28.8196 3.99977  23
  -5  -6   3 940.804 50.2818   6
  -5   6   3 917.532 50.4699  23
  -5   6   3 1021.02 53.5024   4
  -5   6   3 948.789 47.8402  22
  -5   6   3 976.630 47.9786   5
  -4  -6   3 34.8500 4.23581   9
   4  -6  -3 17.9751 5.46801   8
  -4  -6   3 22.4219 4.02049   5
   4  -6  -3 20.9568 5.29349  14
  -4  -6   3 24.4818 4.10169   6
  -4  -6   3 30.0519 4.64187  22
  -4  -6   3 20.2436 5.33294  15
  -4  -6   3 19.6565 4.47419  23
  -4   6   3 25.5595 5.51534  23
   4   6  -3 25.0205 5.76326  14
  -4   6   3 29.2435 6.22825  15
  -4   6   3 19.7776 4.17076   5
   4   6  -3 33.0730 5.68194   8
  -4   6   3 28.3963 5.48942   4
  -4   6   3 23.7088 4.25823  22
  -4   6   3 34.4574 4.52402   9
   3  -6  -3 2389.10 140.074  14
  -3  -6   3 2468.17 122.719  22
  -3  -6   3 2560.68 136.120  15
   3  -6  -3 2622.18 114.764   7
  -3  -6   3 2527.01 128.846  23
  -3  -6   3 2694.11 118.558   9
   3  -6  -3 2708.72 138.210   8
  -3  -6   3 2456.54 129.508   6
  -3  -6   3 2486.85 122.218   5
  -3   6   3 2471.71 136.535   4
   3   6  -3 2768.64 143.204  19
   3   6  -3 2663.59 139.943  14
  -3   6   3 2555.46 122.789  22
  -3   6   3 2530.68 136.228  15
  -3   6   3 2443.77 157.331   2
  -3   6   3 2756.08 119.083   9
   3   6  -3 2208.59 156.668   2
   3   6  -3 2491.25 137.884   8
  -3   6   3 2316.72 174.720  18
  -3   6   3 2506.77 122.470   5
   2  -6  -3 886.395 49.6326  14
  -2  -6   3 810.505 43.2154  22
  -2  -6   3 902.085 41.3743   9
   2  -6  -3 895.052 48.2322   8
  -2  -6   3 851.225 53.5808   3
   2  -6  -3 751.051 53.5208  11
  -2  -6   3 796.747 45.4285  23
   2  -6  -3 841.891 50.1133  21
  -2  -6   3 815.084 58.0381  20
  -2  -6   3 847.420 45.3915   6
   2   6  -3 856.653 52.9324  19
  -2   6   3 914.186 48.3452   4
   2   6  -3 866.617 52.6737  10
   2   6  -3 902.882 48.7225   8
  -2   6   3 886.258 63.5371  18
   2   6  -3 828.862 57.7161   2
  -2   6   3 862.051 43.1382   5
  -2   6   3 918.525 52.1378   1
   2   6  -3 951.627 48.9561  14
   2   6  -3 758.068 63.1331  18
  -2   6   3 900.774 42.0166   9
  -2   6   3 923.154 43.5373  22
  -2   6   3 963.606 47.9001  15
   2   6  -3 922.614 52.7538  11
  -2   6   3 756.992 56.4829   2
   1  -6  -3 283.595 18.6252  14
  -1  -6   3 263.699 16.2080   5
   1  -6  -3 296.165 17.7060   8
  -1  -6   3 314.070 21.4477   3
  -1  -6   3 292.799 16.8041   6
  -1  -6   3 301.562 17.6696  15
   1  -6  -3 244.631 22.7053  20
  -1  -6   3 299.098 23.8006  20
   1  -6  -3 285.161 21.4528  11
   1  -6  -3 271.669 20.1486  10
  -1  -6   3 301.945 15.2867   9
   1  -6  -3 273.204 20.3554  21
  -1  -6   3 312.440 14.8104  24
   1  -6  -3 270.858 14.4886  24
  -1  -6   3 275.707 16.6673  23
   1   6  -3 331.363 18.1670  14
   1   6  -3 279.909 24.1259   2
   1   6  -3 235.803 25.7615  18
  -1   6   3 291.403 16.5629  22
  -1   6   3 325.766 15.9063   9
  -1   6   3 309.606 26.5739  18
  -1   6   3 330.332 18.2453   4
   1   6  -3 310.607 20.2087  11
  -1   6   3 328.527 21.1356   1
   1   6  -3 328.931 21.5318  19
  -1   6   3 325.873 17.8745  15
  -1   6   3 297.900 15.4439   7
   1   6  -3 311.424 20.1086  10
   1   6  -3 306.075 17.7847   8
   1   6  -3 244.700 16.4976  22
   0  -6   3 584.385 25.2698  24
   0  -6   3 553.063 35.6277   3
   0  -6   3 559.669 26.5070   7
   0  -6   3 544.684 29.0554  23
   0  -6   3 591.577 30.7907  15
   0  -6  -3 542.100 31.4573   8
   0  -6  -3 552.451 34.4657  21
   0  -6   3 549.683 26.8908   9
   0  -6  -3 502.960 38.7761  20
   0  -6  -3 596.071 35.7551  11
   0  -6  -3 563.593 31.8357  14
   0  -6  -3 587.150 35.8274  10
   0  -6   3 568.875 29.5625   6
   0  -6   3 549.741 38.5955  20
   0   6   3 508.689 25.2220  24
   0   6  -3 543.710 35.0628  10
   0   6  -3 513.116 33.5510  19
   0   6   3 510.705 26.5538   7
   0   6  -3 566.309 31.0039   8
   0   6   3 503.511 31.1047  15
   0   6   3 541.308 31.1989   4
   0   6  -3 520.092 37.5987   2
   0   6   3 566.049 27.2061   9
   0   6  -3 569.286 31.6573  14
   0   6  -3 493.959 34.7548  11
   0   6   3 551.363 34.2777   1
  -1  -6  -3 225.484 14.4795  14
   1  -6   3 215.570 13.1005  23
   1  -6   3 221.019 12.2141   9
  -1  -6  -3 210.009 14.1455   8
   1  -6   3 207.542 11.2419  24
  -1  -6  -3 194.994 17.2545  21
   1  -6   3 206.547 13.2618   6
   1  -6   3 196.168 11.8674   7
   1  -6   3 213.511 14.1414  15
   1  -6   3 198.027 19.0416  20
  -1  -6  -3 200.994 19.6311  20
  -1   6  -3 223.651 13.9008  14
   1   6   3 236.618 12.2366   7
  -1   6  -3 232.964 14.1170   8
   1   6   3 233.960 12.7733   9
   1   6   3 230.577 11.6345  24
   1   6   3 241.355 18.6094   1
   1   6   3 230.380 14.3581   4
  -1   6  -3 228.264 19.3193   2
  -1   6  -3 243.711 17.9720  19
  -1   6  -3 204.043 17.8592   3
  -1   6  -3 244.011 12.9100   5
  -1   6  -3 175.106 17.0586  11
   1   6   3 232.956 14.5130  15
  -2  -6  -3 2878.14 150.062  14
   2  -6   3 2809.26 122.727   7
   2  -6   3 2800.49 117.350  24
  -2  -6  -3 2655.69 147.381   8
   2  -6   3 2633.87 138.282   6
  -2  -6  -3 2569.30 125.056  16
   2  -6   3 2604.13 145.540  15
   2  -6   3 2819.85 127.038   9
  -2  -6  -3 2828.61 137.080  17
  -2   6  -3 2922.40 137.615  23
  -2   6  -3 2539.95 149.044  14
   2   6   3 2460.65 127.613   9
  -2   6  -3 2449.83 147.134   8
   2   6   3 2761.00 117.842  24
   2   6   3 2621.18 145.570  15
   2   6   3 2803.69 122.954   7
   2   6   3 2749.25 145.533   4
  -3  -6  -3 552.866 26.3181  24
   3  -6   3 552.579 28.4896   9
  -3  -6  -3 571.413 30.6495  17
  -3  -6  -3 543.384 30.5027   6
  -3  -6  -3 553.013 27.9286  16
   3  -6   3 544.020 32.9517  15
   3  -6   3 572.189 27.2990   7
  -3   6  -3 567.413 30.6454  23
   3   6   3 524.334 32.8657  15
  -3   6  -3 561.494 27.8988  16
   3   6   3 619.409 32.7818   4
  -3   6  -3 568.276 30.7394  17
   3   6   3 543.203 29.5479   9
   4  -6   3 348.454 16.7436   7
  -4  -6  -3 319.430 18.6285   6
   4   6   3 321.055 19.6981   4
  -4   6  -3 309.028 18.4275  23
  -5  -7   3 175.273 10.2853   6
  -5   7   3 190.831 10.9503  23
  -5   7   3 142.075 10.5394   5
   5   7  -3 166.180 11.4390  22
  -5   7   3 151.161 10.3408  22
  -4  -7   3 1012.67 53.3124  23
  -4  -7   3 1083.80 48.6328   9
  -4  -7   3 938.392 50.6084   5
  -4  -7   3 1068.69 53.1774   6
  -4   7   3 850.643 50.6317   5
  -4   7   3 1068.36 56.5333  15
  -4   7   3 983.098 49.3259   9
  -4   7   3 1118.04 56.5751   4
  -4   7   3 1030.38 50.9246  22
  -3  -7   3 469.152 22.1267   9
  -3  -7   3 494.786 24.5115   6
  -3  -7   3 394.120 26.2313  15
   3  -7  -3 488.091 21.8303   7
   3  -7  -3 408.740 27.5941  14
   3  -7  -3 470.081 26.3916   8
  -3  -7   3 436.088 24.9644  23
  -3  -7   3 434.457 23.7887   5
   3   7  -3 479.187 26.4733  14
  -3   7   3 488.556 26.4032   4
  -3   7   3 373.178 23.6747   5
  -3   7   3 469.064 26.1602  15
  -3   7   3 420.230 22.9825   9
  -3   7   3 418.296 23.7799  22
   3   7  -3 418.201 26.9177   8
   2  -7  -3 942.685 50.6962  21
  -2  -7   3 855.961 43.5191   5
   2  -7  -3 872.719 50.4372  14
  -2  -7   3 913.849 53.8406   3
   2  -7  -3 923.607 40.3217   7
  -2  -7   3 912.050 45.3483   6
  -2  -7   3 899.352 45.5499  23
  -2  -7   3 985.944 41.5347   9
  -2  -7   3 805.794 39.0757  24
   2  -7  -3 965.275 48.4319   8
  -2   7   3 905.057 47.8614  15
  -2   7   3 756.215 51.1355   1
   2   7  -3 872.740 52.7436  19
  -2   7   3 732.445 43.4595  22
  -2   7   3 796.592 42.1163   9
  -2   7   3 694.478 63.8312  18
  -2   7   3 894.656 48.0760   4
   2   7  -3 898.125 48.8759  14
   2   7  -3 718.430 58.3205   2
  -1  -7   3 264.001 13.8091   9
  -1  -7   3 263.998 14.5717   5
  -1  -7   3 266.984 19.3438   3
   1  -7  -3 250.004 21.1139  20
   1  -7  -3 255.035 15.8687   8
  -1  -7   3 280.688 16.1054  15
   1  -7  -3 244.151 18.6317  21
  -1  -7   3 245.314 14.8938  23
   1  -7  -3 254.175 12.8901  24
  -1  -7   3 228.805 13.5722  24
   1  -7  -3 281.347 17.4620  14
  -1  -7   3 247.183 14.8277   6
  -1  -7   3 212.095 22.5366  20
   1   7  -3 246.347 19.2518  19
   1   7  -3 270.638 15.9242   8
  -1   7   3 263.905 19.1363   1
   1   7  -3 248.794 14.9138  22
  -1   7   3 284.124 16.2517  15
  -1   7   3 274.817 13.9742   7
  -1   7   3 259.976 16.0352   4
   1   7  -3 252.447 22.8715   2
   1   7  -3 254.061 19.0754  10
   1   7  -3 233.001 24.1964  18
  -1   7   3 276.190 14.4559   9
   1   7  -3 260.192 16.1692  14
   0  -7   3 746.028 36.9630   9
   0  -7   3 656.826 51.9672  20
   0  -7   3 797.264 40.1062   6
   0  -7   3 794.091 41.9915  15
   0  -7   3 784.557 39.6822  23
   0  -7  -3 645.973 51.7796  20
   0  -7   3 744.752 47.4962   3
   0  -7   3 689.475 34.3664  24
   0  -7  -3 801.412 43.5927  14
   0  -7  -3 798.450 43.1904   8
   0  -7  -3 722.019 45.4530  21
   0  -7   3 656.291 35.9468   7
   0  -7  -3 716.099 34.4380  24
   0   7  -3 783.070 50.7519   2
   0   7   3 704.414 38.6292  22
   0   7   3 840.019 42.9372  15
   0   7  -3 764.535 43.7303  14
   0   7   3 776.083 42.3514   4
   0   7   3 773.694 36.3495   7
   0   7   3 847.829 46.1880   1
   0   7  -3 800.523 45.7053  19
   0   7  -3 815.009 42.5360   8
   0   7  -3 771.053 37.9462   5
   1  -7   3 536.987 25.2705  24
  -1  -7  -3 493.290 31.6208   8
   1  -7   3 553.978 29.3102   6
  -1  -7  -3 532.070 31.8275  14
   1  -7   3 537.356 26.7786   7
   1  -7   3 554.871 31.0378  15
   1  -7   3 530.944 27.3327   9
  -1  -7  -3 491.311 25.2984  24
   1   7   3 512.402 31.5202  15
  -1   7  -3 522.933 31.9471  14
   1   7   3 551.254 26.7555   7
   1   7   3 565.337 31.1199   4
  -1   7  -3 587.041 31.3567   8
   1   7   3 560.102 27.4430   9
  -1   7  -3 586.608 27.8137   5
  -2  -7  -3 624.566 30.7058  16
   2  -7   3 637.801 36.0414  15
   2  -7   3 612.202 30.1504   7
  -2  -7  -3 606.835 28.9254  24
   2  -7   3 649.386 28.7623  24
   2  -7   3 645.437 31.3855   9
  -2  -7  -3 654.278 33.3362  17
   2   7   3 611.546 31.7573   9
   2   7   3 528.412 35.8840  15
  -2   7  -3 675.520 33.5369  23
   2   7   3 631.069 35.4690   4
  -2   7  -3 558.880 33.7299  17
  -2   7  -3 624.386 30.6611  16
  -3  -7  -3 644.333 28.8664  24
   3  -7   3 590.240 30.3261   7
  -3   7  -3 660.645 33.9118  23
   3   7   3 616.981 35.8007   4
   4  -7   3 218.474 12.3077   7
  -4   7  -3 229.970 13.4732  23
   4   7   3 234.484 14.2742   4
  -5  -8   3 45.7272 4.57280   6
  -5   8   3 50.9676 5.38747   5
  -5   8   3 46.6333 5.35841  22
   5   8  -3 56.8633 5.92783  22
  -4  -8   3 163.375 9.78899   6
  -4  -8   3 146.464 10.0272   5
  -4   8   3 148.617 10.3420   5
   4   8  -3 154.468 10.8109  22
  -4   8   3 140.324 10.2521  22
  -3  -8   3 76.7435 6.07329   6
   3  -8  -3 65.3539 5.65265   7
  -3  -8   3 70.7027 6.97609   5
   3  -8  -3 43.6620 8.52921  14
  -3  -8   3 65.0927 8.33696  15
  -3  -8   3 74.3307 5.42272   9
  -3  -8   3 69.9357 7.12105  23
   3   8  -3 67.7211 7.92732  22
  -3   8   3 60.4929 7.04591  15
   3   8  -3 61.8068 6.66189  14
  -3   8   3 58.0178 7.44311   5
  -3   8   3 59.1733 7.12044  22
  -3   8   3 57.4169 6.83709   9
   3   8  -3 62.4078 8.04847   8
   2  -8  -3 1088.67 63.1906  14
  -2  -8   3 1144.96 49.2437  24
   2  -8  -3 1081.51 60.9178   8
   2  -8  -3 1158.05 50.8128   7
  -2  -8   3 1127.95 60.6335  15
  -2  -8   3 1118.13 56.9968  23
  -2  -8   3 1113.09 57.0892   6
  -2  -8   3 1183.72 54.6158   5
  -2  -8   3 1164.22 52.4183   9
   2   8  -3 1063.41 54.8979  22
   2   8  -3 1072.70 61.2492   8
  -2   8   3 1082.72 54.5188   5
  -2   8   3 1052.34 60.1975   4
   2   8  -3 1084.15 61.7748  14
  -2   8   3 1024.37 54.9308  22
  -2   8   3 1056.35 60.2234  15
  -2   8   3 1048.44 53.1624   9
  -1  -8   3 1304.63 66.0549  15
   1  -8  -3 1152.18 68.1411  14
  -1  -8   3 1238.70 62.1477  23
  -1  -8   3 1236.90 53.8056  24
  -1  -8   3 1138.64 62.3540   6
  -1  -8   3 1154.74 57.4652   9
   1  -8  -3 1192.46 53.1342  24
   1  -8  -3 1154.07 66.5849   8
  -1   8   3 1247.88 60.1722  22
   1   8  -3 1210.60 67.7525  14
   1   8  -3 1193.70 66.5341   8
  -1   8   3 1153.87 65.8663   4
   1   8  -3 1174.74 59.4706  22
  -1   8   3 1261.16 66.1843  15
  -1   8   3 1274.45 58.0382   9
   0  -8  -3 174.703 9.67861  24
   0  -8   3 167.265 10.4163   9
   0  -8  -3 164.294 12.0214  14
   0  -8   3 173.136 10.7384   6
   0  -8   3 181.730 11.6036  15
   0  -8   3 180.939 10.7838  23
   0  -8   3 176.264 10.8979   7
   0  -8   3 179.838 10.3282  24
   0  -8  -3 160.553 11.8444   8
   0   8  -3 172.958 11.5749   8
   0   8   3 157.655 11.6360   4
   0   8  -3 168.874 10.4715   5
   0   8   3 175.953 11.5735  22
   0   8   3 173.838 10.5528   9
   0   8   3 178.406 10.5722   7
   0   8   3 164.282 12.1555  15
   0   8  -3 159.167 12.0793  14
  -1  -8  -3 641.636 33.3288  17
   1  -8   3 597.430 29.0176  24
   1  -8   3 620.333 30.3816   7
   1  -8   3 606.328 31.4903   9
   1  -8   3 619.861 35.4319  15
  -1  -8  -3 609.649 30.5876  16
  -1  -8  -3 644.059 28.9446  24
  -1   8  -3 622.060 35.7595   8
  -1   8  -3 629.777 33.3567  23
   1   8   3 648.530 35.6060   4
   1   8   3 636.868 36.2957  15
  -1   8  -3 586.485 36.9208  14
   1   8   3 629.194 31.3863   9
  -1   8  -3 649.156 31.7240   5
   1   8   3 645.493 30.4467   7
  -2  -8  -3 1.55027 3.97450  16
   2  -8   3 2.41930 3.84927  24
  -2  -8  -3 1.88530 3.64846  17
   2  -8   3 9.24801 5.65958  15
  -2  -8  -3 8.99041 3.21005  24
   2  -8   3 0.41501 4.51717   9
  -2   8  -3 0.27455 4.94153  17
   2   8   3 1.08287 5.50207  15
  -2   8  -3 8.73677 3.87553  16
   2   8   3 1.35787 3.56583   4
  -2   8  -3 4.79183 3.29775  23
   2   8   3 2.54196 3.93761   9
  -3  -8  -3 121.144 7.21260  24
   3  -8   3 120.074 8.28938   7
   3   8   3 115.347 9.08898   4
  -3   8  -3 117.835 8.47713  23
  -4   8  -3 757.584 39.0204  23
   4   8   3 747.207 41.3771   4
  -5  -9   3 252.476 14.7730   6
  -5   9   3 273.760 14.3155   5
   5   9  -3 291.736 14.6276  22
  -4  -9   3 1165.46 61.1748   6
   4   9  -3 1139.93 58.4419  22
  -4   9   3 1243.91 58.2735   5
  -4   9   3 1188.94 58.4122  22
   3  -9  -3 124.247 7.66135   7
  -3  -9   3 124.783 8.39347   6
  -3  -9   3 125.798 7.71936   9
  -3  -9   3 130.129 8.64743   5
  -3   9   3 132.306 9.00570   5
   3   9  -3 120.644 9.10746  22
  -3   9   3 117.278 9.03991   9
  -3   9   3 125.453 9.13130  22
  -2  -9   3 1083.45 57.3047  15
  -2  -9   3 980.462 53.8535   6
  -2  -9   3 992.140 53.5961  23
   2  -9  -3 969.781 49.0179  16
  -2  -9   3 1081.70 46.3532  24
  -2  -9   3 1046.22 49.6269   9
   2  -9  -3 1035.27 47.9722   7
   2   9  -3 1039.29 51.7577  22
  -2   9   3 1001.35 57.0549  15
  -2   9   3 1061.06 51.3316   5
  -2   9   3 1045.39 50.3656   9
  -2   9   3 1115.38 52.1048  22
  -1  -9   3 77.5026 7.66341  15
  -1  -9   3 85.5687 7.03700   6
  -1  -9   3 86.9637 7.16432  24
   1  -9  -3 83.9460 6.90410  16
   1  -9  -3 83.3708 6.59525   7
   1  -9  -3 81.4240 6.23144  24
  -1  -9   3 85.2607 6.72112   9
  -1  -9   3 87.4249 7.27236  23
   1  -9  -3 87.5943 8.51929  17
   1   9  -3 109.564 7.55805   5
  -1   9   3 107.094 8.11119  22
  -1   9   3 102.656 7.88726   9
   1   9  -3 100.263 8.18721  14
  -1   9   3 100.098 8.41301  15
   1   9  -3 97.9565 8.04727   8
  -1   9   3 94.9165 8.14006   4
   1   9  -3 99.6067 7.59012  22
   0  -9   3 535.524 26.2393   9
   0  -9  -3 488.976 27.9075  17
   0  -9   3 506.312 25.2310   7
   0  -9  -3 549.174 24.1931  24
   0  -9   3 512.502 29.6577  15
   0  -9  -3 494.086 25.0698   7
   0  -9   3 533.528 27.8996  23
   0  -9   3 538.291 24.5475  24
   0  -9  -3 526.164 25.6959  16
   0   9  -3 537.472 26.7272   5
   0   9   3 484.307 29.6594   4
   0   9   3 519.304 30.2833  15
   0   9   3 518.226 26.4124   9
   0   9   3 545.509 27.2984  22
   1  -9   3 703.233 35.5753   9
   1  -9   3 742.736 32.8073  24
  -1  -9  -3 702.260 34.4362  16
  -1  -9  -3 742.771 32.5090  24
  -1  -9  -3 728.405 37.6722  17
   1  -9   3 743.005 34.1978   7
   1  -9   3 697.372 40.0049  15
  -1   9  -3 690.538 34.4635  16
  -1   9  -3 641.317 38.0132  17
  -1   9  -3 741.021 37.7922  23
   1   9   3 725.435 35.5513   9
   1   9   3 716.873 40.1329   4
   1   9   3 738.793 40.9455  15
  -1   9  -3 714.010 35.8223   5
   2  -9   3 312.525 16.1951   7
  -2  -9  -3 324.622 15.2158  24
   2  -9   3 315.773 15.5854  24
   2   9   3 303.629 18.9409   4
  -2   9  -3 302.654 17.4770  23
  -2   9  -3 310.727 16.8265   5
   3  -9   3 777.569 35.2674   7
  -3  -9  -3 741.706 33.3250  24
   3   9   3 762.029 41.6972   4
  -3   9  -3 727.512 39.0903  23
  -4 -10   3 14.5371 2.72176   6
  -4  10   3 13.5493 2.92304  22
   4  10  -3 14.2459 3.08167  22
  -4  10   3 13.8013 2.66215   5
  -3 -10   3 906.140 46.8589   6
   3 -10  -3 891.502 41.5602   7
   3  10  -3 900.860 44.8076  22
  -3  10   3 905.924 44.3867   5
  -3  10   3 935.221 44.9018  22
   3  10  -3 863.609 44.3519   5
   2 -10  -3 109.868 6.76232   7
  -2 -10   3 98.1389 7.15648   6
  -2 -10   3 105.463 6.97576  24
   2  10  -3 91.8929 7.62584  22
   2  10  -3 101.233 7.48857   5
  -2  10   3 105.941 7.80809  22
  -1 -10   3 140.337 9.45878  23
  -1 -10   3 141.474 8.64321  24
   1 -10  -3 143.841 8.53794   7
   1 -10  -3 134.522 8.68017  16
  -1 -10   3 133.280 8.80869   9
   1 -10  -3 138.621 8.13483  24
   1  10  -3 151.041 9.26666   5
  -1  10   3 160.631 9.74100  22
   1  10  -3 155.492 9.48526  22
  -1  10   3 142.672 9.46683   9
   0 -10   3 177.190 10.7536   9
   0 -10  -3 188.124 10.5194  16
   0 -10  -3 181.647 10.1984   7
   0 -10   3 191.952 10.0163  24
   0 -10  -3 177.967 9.71921  24
   0  10  -3 180.304 11.3085  23
   0  10   3 186.976 11.2187  22
   0  10   3 170.186 11.1335   9
   0  10  -3 193.376 10.9184   5
   1 -10   3 94.1286 6.29269   7
  -1 -10  -3 79.8623 5.62440  24
   1 -10   3 87.5476 6.29861  24
  -1 -10  -3 83.1622 5.98527   7
  -1  10  -3 84.4548 6.33019   5
   1  10   3 79.5574 7.45554   4
  -1  10  -3 80.5120 6.49798  23
  -2 -10  -3 841.887 37.0978  24
   2 -10   3 859.664 38.9238   7
  -2  10  -3 838.516 43.2848  23
  -2  10  -3 845.547 41.1152   5
   2  10   3 793.874 45.9123   4
   3 -10   3 163.030 8.88432   7
  -3  10  -3 169.923 9.64776  23
  -3 -11   3 59.8769 4.71799   6
   3 -11  -3 69.2871 4.56613   7
   3  11  -3 61.5470 4.65344   5
   3  11  -3 66.6869 5.07430  22
  -3  11   3 66.0891 5.09219  22
  -3  11   3 45.7195 4.41055   5
  -2 -11   3 256.417 12.4443  24
   2 -11  -3 262.389 13.1177   7
   2  11  -3 256.706 13.9625   5
   2  11  -3 263.515 14.2648  22
  -2  11   3 261.179 14.1670  22
  -1 -11   3 266.803 13.1521  24
   1 -11  -3 271.167 13.7171   7
   1 -11  -3 263.071 13.0464  24
   1  11  -3 274.887 15.2750  23
  -1  11   3 283.324 14.9135  22
   1  11  -3 271.112 14.6810   5
   1  11  -3 274.750 14.8060  22
   0 -11  -3 793.694 38.3912   7
   0 -11   3 860.645 37.0854  24
   0 -11  -3 848.798 36.9480  24
   0  11  -3 849.564 41.1354   5
   0  11  -3 819.595 43.0993  23
   0  11   3 820.476 41.1795  22
  -1 -11  -3 31.2122 3.49598  24
   1 -11   3 25.6882 3.01913  24
   1 -11   3 25.6333 3.10297   7
  -1  11  -3 29.0098 3.29359   5
  -1  11  -3 30.9069 3.56873  23
  -2 -11  -3 48.7771 3.69464  24
   2 -11   3 47.1321 3.86443   7
  -2  11  -3 43.2866 4.14519  23
   2 -12  -3 141.152 7.37652   7
   2  12  -3 143.551 8.06122  22
   2  12  -3 133.621 7.73330   5
  -2  12   3 128.760 7.81016  22
   1 -12  -3 309.638 15.4016   7
  -1 -12   3 319.750 14.7888  24
  -1  12   3 311.220 16.5326  22
   1  12  -3 337.153 16.5501   5
   0 -12  -3 102.546 6.03094   7
   0 -12   3 103.904 5.96238  24
   0 -12  -3 108.640 5.99610  24
   0  12  -3 118.684 6.75510   5
   0  12   3 110.509 6.67549  22
  -1 -12  -3 166.061 8.27730  24
   1 -12   3 173.888 8.45914  24
  -6   0   4 88.3902 6.79994  23
   6   0  -4 87.9469 7.84430   4
  -6   0   4 75.2126 5.72373   5
  -6   0   4 80.1329 6.04765  22
   5   0  -4 1110.24 63.4458  14
  -5   0   4 1141.71 58.5900  23
  -5   0   4 1179.57 55.7375  22
  -5   0   4 1100.75 62.0060   4
  -5   0   4 1129.36 55.4139   5
   5   0  -4 1132.89 62.5049   8
  -4   0   4 20.6557 6.14329  19
  -4   0   4 15.2926 2.80496  22
  -4   0   4 25.6228 3.56407  23
  -4   0   4 14.0681 2.53705   5
   4   0  -4 18.0371 7.00503   1
  -4   0   4 12.3435 3.04538   4
   4   0  -4 18.3895 3.00559  14
   4   0  -4 16.9478 7.08806  18
   4   0  -4 20.2367 3.10824   8
  -4   0   4 20.9790 7.75026   2
  -3   0   4 45.1549 6.86611   2
  -3   0   4 38.5629 4.46974  23
  -3   0   4 44.4476 3.89328  22
  -3   0   4 48.3710 6.75876  19
   3   0  -4 41.7262 3.36089  14
  -3   0   4 43.3262 3.84828   5
  -3   0   4 48.1834 7.68900  18
  -3   0   4 44.8121 4.54471   4
   3   0  -4 49.9799 6.55606   1
  -2   0   4 3224.09 185.116  19
  -2   0   4 3416.81 204.956   2
  -2   0   4 3129.10 194.972   3
  -2   0   4 3641.80 226.617  18
   2   0  -4 3549.08 184.166   1
  -1   0   4 915.830 49.1563   1
   1   0  -4 898.315 51.8579   3
   1   0  -4 761.565 51.2614  19
  -1   0   4 845.178 49.2995  21
  -1   0   4 927.121 55.5682  20
   0   0   4 2489.99 146.368  20
   0   0  -4 2374.47 136.416   3
   0   0   4 2312.65 128.330   1
   0   0   4 2227.65 127.271  21
   1   0   4 892.578 42.3752   7
  -1   0  -4 914.644 55.4823   3
  -1   0  -4 964.287 50.3266   8
  -1   0  -4 956.866 53.7090  10
  -1   0  -4 933.883 53.6562  11
   1   0   4 853.016 49.4311  15
   1   0   4 926.641 52.2904  21
  -1   0  -4 981.878 51.2696  14
   1   0   4 889.799 47.7012   6
   1   0   4 904.214 40.5602  24
   2   0   4 16.3751 2.85139  15
  -2   0  -4 17.6817 3.01486   8
  -2   0  -4 13.6791 6.42658  20
   2   0   4 12.2056 6.82852  21
   2   0   4 15.6517 2.88224   6
   2   0   4 14.3314 2.70422   7
  -2   0  -4 15.3630 2.91055  14
   2   0   4 10.9619 2.22892  24
   2   0   4 12.8362 2.59873   9
  -2   0  -4 10.7964 5.75346   3
   3   0   4 803.678 35.7249  24
  -3   0  -4 761.232 45.4795  14
   3   0   4 807.141 37.3405   7
  -3   0  -4 789.105 44.7475   8
  -3   0  -4 808.701 42.3162   6
   3   0   4 831.185 44.2544  15
   3   0   4 801.147 38.8581   9
  -4   0  -4 280.908 16.3559   6
   6  -1  -4 530.681 30.0014   4
  -6  -1   4 518.057 26.1514   5
  -6  -1   4 502.384 26.3431  22
  -6  -1   4 516.382 27.8079  23
  -6   1   4 550.332 28.1445  23
  -6   1   4 486.158 26.2317  22
  -6   1   4 519.944 26.1667   5
   6   1  -4 532.101 29.7423   4
   5  -1  -4 1013.91 58.8107  14
  -5  -1   4 1066.29 51.3679   5
   5  -1  -4 1023.78 57.8922   8
  -5  -1   4 1072.63 51.6391  22
  -5  -1   4 1057.39 54.2804  23
  -5   1   4 1012.05 57.5565   4
  -5   1   4 1053.05 51.3309   5
  -5   1   4 1041.11 51.5451  22
  -5   1   4 1102.60 54.5351  23
   5   1  -4 1048.42 57.9177   8
   5   1  -4 1021.53 58.7803  14
   4  -1  -4 1136.49 59.8130   8
  -4  -1   4 1074.74 53.1592   5
   4  -1  -4 1145.98 60.6181  14
  -4  -1   4 1077.09 56.1212  23
  -4  -1   4 1067.19 59.2944   4
  -4  -1   4 1055.95 69.4089   2
  -4  -1   4 1091.89 62.8371  19
   4  -1  -4 1075.98 62.7057   1
  -4   1   4 1151.12 63.2622  19
  -4   1   4 1068.51 76.8530  18
  -4   1   4 1063.74 59.4614   4
   4   1  -4 1184.22 59.7448   8
   4   1  -4 985.443 61.9794   1
  -4   1   4 1090.60 56.2499  23
   4   1  -4 1109.49 77.3457  18
  -4   1   4 1041.20 69.2584   2
  -4   1   4 1067.06 53.0926   5
  -3  -1   4 259.506 19.4704   3
   3  -1  -4 292.443 15.9471  14
   3  -1  -4 283.518 18.5005   1
  -3  -1   4 269.104 15.5023  23
  -3  -1   4 267.041 18.5219  19
  -3  -1   4 275.703 19.9375   2
  -3  -1   4 263.023 16.1587   4
  -3  -1   4 288.230 14.5783   5
  -3  -1   4 278.770 14.6215  22
   3   1  -4 272.586 15.9411  14
  -3   1   4 276.009 15.5789  23
  -3   1   4 290.371 18.7417  19
  -3   1   4 272.587 16.4129   4
  -3   1   4 284.512 14.6295  22
  -3   1   4 287.684 22.3189  18
  -3   1   4 286.581 14.5116   5
  -3   1   4 284.983 19.9469   2
   3   1  -4 286.815 22.4789  18
   3   1  -4 278.781 18.1452   1
  -2  -1   4 946.313 54.3822   3
  -2  -1   4 921.785 57.0921   2
   2  -1  -4 775.592 52.8906  21
  -2  -1   4 884.168 52.1459  19
   2   1  -4 960.699 51.2099   1
  -2   1   4 887.410 56.8272   2
  -2   1   4 919.671 63.0621  18
   2   1  -4 1020.47 63.4459  18
  -2   1   4 887.090 51.9601  19
  -1  -1   4 1262.36 73.3049  21
  -1  -1   4 1415.95 77.9965   3
   1  -1  -4 1387.73 83.6009  20
  -1  -1   4 1447.02 83.5894  20
   1   1  -4 1294.79 81.7472   2
  -1   1   4 1171.85 73.3170  21
  -1   1   4 1316.71 89.7531  18
  -1   1   4 1365.74 73.9601   1
   1   1  -4 1287.15 76.2690  19
   0  -1   4 944.637 53.2683  21
   0  -1  -4 1090.35 56.7784   3
   0  -1   4 932.426 60.5679  20
   0  -1  -4 994.450 60.8552  20
   0  -1  -4 886.674 52.5072  14
   0   1   4 941.044 54.2255   1
   0   1  -4 909.055 56.6223   3
   0   1   4 894.053 53.2176  21
  -1  -1  -4 2282.98 115.003   8
   1  -1   4 2134.10 116.111  21
   1  -1   4 1973.11 92.0759  24
  -1  -1  -4 2310.75 124.315   3
  -1  -1  -4 2194.38 121.160  10
  -1  -1  -4 2087.08 121.155  11
   1  -1   4 2048.09 113.248  15
   1  -1   4 1952.86 108.521   6
  -1  -1  -4 2121.27 133.302  20
  -1  -1  -4 2298.08 117.098  14
   1  -1   4 2099.35 96.1450   7
   1   1   4 2027.08 92.1000  24
  -1   1  -4 2233.09 115.011   8
  -1   1  -4 2181.36 121.143  11
  -1   1  -4 2097.30 124.466   3
  -1   1  -4 2154.73 121.040  10
  -1   1  -4 2171.27 116.793  14
   1   1   4 2099.41 108.546   6
   1   1   4 2029.99 115.869  21
   1   1   4 2087.90 118.903   1
   1   1   4 2073.63 113.214  15
  -2  -1  -4 192.372 17.3243  20
  -2  -1  -4 217.257 16.8182   3
   2  -1   4 213.494 11.0615   7
   2  -1   4 214.508 10.5207  24
   2  -1   4 211.599 12.6685  15
  -2  -1  -4 219.525 13.3192  14
   2  -1   4 213.323 12.4244   6
  -2  -1  -4 223.885 12.9211   8
   2  -1   4 204.112 11.1372   9
   2  -1   4 201.330 16.7044  21
   2   1   4 218.365 11.4235   9
   2   1   4 207.278 16.2583  21
  -2   1  -4 199.371 16.4309   3
   2   1   4 193.094 12.5515  15
  -2   1  -4 209.689 12.7985   8
   2   1   4 211.958 12.3558   6
   2   1   4 216.053 11.1099   7
   2   1   4 215.200 10.5604  24
  -2   1  -4 216.256 13.1794  14
   3  -1   4 1121.13 58.4506  15
  -3  -1  -4 1063.66 60.3296  14
   3  -1   4 1010.12 47.0884  24
   3  -1   4 1124.42 49.4037   7
  -3  -1  -4 1033.80 59.1485   8
  -3  -1  -4 1096.86 55.8381   6
   3  -1   4 1087.50 51.1820   9
  -3   1  -4 1006.13 60.0470  14
   3   1   4 1090.36 51.3652   9
   3   1   4 1086.90 49.3286   7
  -3   1  -4 1009.02 59.0286   8
   3   1   4 1047.38 47.1891  24
   3   1   4 1113.04 58.4416  15
  -4  -1  -4 293.094 17.6013   6
  -4   1  -4 327.301 17.9844   6
  -6  -2   4 159.208 10.0408  23
  -6  -2   4 166.621 9.74320  22
  -6  -2   4 164.591 9.48587   5
   6  -2  -4 165.559 11.7441   4
  -6   2   4 159.130 9.50746   5
   6   2  -4 162.189 11.4579   4
  -6   2   4 175.926 10.9667  23
  -6   2   4 150.011 9.51186  22
  -5  -2   4 606.898 29.7019  22
   5  -2  -4 569.249 33.8099  14
  -5  -2   4 557.030 31.0883  23
   5  -2  -4 552.019 33.2623   8
  -5  -2   4 592.178 29.4392   5
  -5   2   4 621.920 31.7944  23
   5   2  -4 603.848 33.2638   8
   5   2  -4 575.729 33.8065  14
  -5   2   4 580.561 29.5061  22
  -5   2   4 580.536 33.3627   4
   5   2  -4 578.498 33.1066   4
  -4  -2   4 1248.73 59.9036  22
   4  -2  -4 1191.25 67.9743  14
  -4  -2   4 1212.17 62.9342  23
  -4  -2   4 1237.84 66.4888   4
   4  -2  -4 1193.49 67.1585   8
   4   2  -4 1273.05 66.9899   8
  -4   2   4 1218.23 59.6071   5
  -4   2   4 1270.77 63.3297  23
  -4   2   4 1163.09 66.7492   4
   3  -2  -4 2131.56 107.961   8
   3  -2  -4 1781.76 109.801  21
  -3  -2   4 1973.25 117.429   3
   3  -2  -4 2067.16 110.561   1
   3  -2  -4 2032.58 113.202  10
  -3  -2   4 2001.47 95.8699   5
  -3  -2   4 1987.60 110.574  19
  -3  -2   4 2048.93 101.164  23
  -3  -2   4 1989.79 96.1555  22
   3  -2  -4 2175.68 109.267  14
  -3  -2   4 1772.59 101.912   6
  -3   2   4 1940.24 110.637  19
  -3   2   4 1977.59 96.1385  22
  -3   2   4 2001.63 107.140   4
  -3   2   4 1699.15 100.957  23
   3   2  -4 1977.35 109.416  14
   3   2  -4 2163.91 135.602  18
   3   2  -4 2167.25 107.568   8
  -3   2   4 1979.10 95.7829   5
  -3   2   4 1942.22 134.969  18
  -3   2   4 1976.15 122.141   2
  -2  -2   4 212.508 12.2486   5
  -2  -2   4 216.777 16.4038   3
   2  -2  -4 214.308 18.7082  21
  -2  -2   4 214.766 16.1272  19
  -2  -2   4 215.258 13.2588  23
   2   2  -4 251.214 18.8876  18
  -2   2   4 224.094 16.3628   2
  -2   2   4 246.260 18.5149  18
  -2   2   4 244.272 16.2587   1
  -2   2   4 256.477 14.1491   4
   2   2  -4 246.812 17.3204   2
  -1  -2   4 264.342 18.4450  20
   1  -2  -4 261.930 18.5609  20
  -1  -2   4 259.629 17.5642   3
  -1   2   4 252.944 17.6084   1
  -1   2   4 266.282 19.6854  18
   1   2  -4 252.004 20.0542  19
   1   2  -4 261.378 18.8302   2
   0  -2   4 700.385 29.8064  24
   0  -2   4 645.919 38.8287  21
   0  -2   4 673.414 35.1262   6
   0  -2  -4 721.887 36.6213   8
   0  -2   4 654.552 31.1618   7
   0  -2  -4 636.784 37.8938  14
   0  -2  -4 692.089 44.0246  20
   0  -2   4 724.169 44.1481  20
   0   2  -4 721.086 37.1792  14
   0   2  -4 669.864 41.3503   3
   0   2   4 636.102 40.6401   1
   0   2   4 642.061 29.7104  24
   0   2  -4 561.376 40.1787  19
   0   2   4 676.897 31.2044   7
   0   2   4 691.322 39.1467  21
   1  -2   4 1242.56 70.1534  21
   1  -2   4 1247.38 54.6257  24
  -1  -2  -4 1284.45 67.9628   8
   1  -2   4 1219.89 64.4087   6
   1  -2   4 1261.55 57.0580   7
  -1  -2  -4 1304.93 74.2071   3
   1  -2   4 1243.99 67.0648  15
  -1  -2  -4 1236.48 72.3138  11
  -1  -2  -4 1348.99 69.6567  14
  -1  -2  -4 1313.15 72.3580  10
  -1  -2  -4 1155.67 79.5507  20
   1   2   4 1255.12 57.0840   7
  -1   2  -4 1214.06 72.0004  10
  -1   2  -4 1325.33 68.1180   8
   1   2   4 1165.23 59.0255   9
   1   2   4 1263.09 64.3007   6
   1   2   4 1117.56 66.8468  15
  -1   2  -4 1322.67 69.1163  14
  -1   2  -4 1293.45 72.2294  11
   1   2   4 1230.83 54.6128  24
  -1   2  -4 1174.08 74.6529   3
   2  -2   4 1660.01 71.0052  24
   2  -2   4 1575.27 76.4533   9
   2  -2   4 1675.09 74.1314   7
  -2  -2  -4 1629.62 83.6975   6
  -2  -2  -4 1589.43 90.4059  14
  -2  -2  -4 1653.65 88.7634   8
   2  -2   4 1646.01 83.9052   6
  -2  -2  -4 1497.62 96.4106   3
   2  -2   4 1614.49 87.4643  15
  -2   2  -4 1694.00 88.8249   8
  -2   2  -4 1753.52 90.2360  14
   2   2   4 1582.59 87.4414  15
   2   2   4 1664.78 71.0616  24
   2   2   4 1525.13 76.8087   9
   2   2   4 1631.30 74.1367   7
  -3  -2  -4 172.301 12.8529  14
   3  -2   4 194.638 12.1113   6
  -3  -2  -4 171.042 12.3292   8
   3  -2   4 189.692 10.4113   7
   3  -2   4 194.590 10.9346   9
   3  -2   4 171.870 9.73827  24
   3  -2   4 188.726 12.4502  15
  -3  -2  -4 190.751 11.7564   6
  -3   2  -4 181.502 12.5416  14
   3   2   4 207.076 11.5621   9
   3   2   4 170.279 15.4496   4
   3   2   4 206.027 10.4841   7
   3   2   4 211.383 12.5546  15
  -3   2  -4 188.395 12.3874   8
   3   2   4 210.674 10.1688  24
  -4  -2  -4 206.934 12.7220   6
  -4   2  -4 208.848 13.1040   6
  -6  -3   4 1789.72 85.7827   5
  -6  -3   4 1781.84 86.2318  22
  -6  -3   4 1757.92 90.4217  23
   6   3  -4 1817.58 95.9647   4
  -6   3   4 1812.06 85.8834   5
  -6   3   4 1766.52 86.1171  22
  -6   3   4 1688.57 90.9538  23
  -5  -3   4 196.895 11.7995  23
  -5  -3   4 201.527 11.0887   5
  -5  -3   4 202.627 11.3362  22
   5  -3  -4 184.090 12.9545  14
   5  -3  -4 208.780 13.0483   8
  -5   3   4 183.461 12.9964  23
   5   3  -4 194.088 12.9066   4
  -5   3   4 191.774 13.3771   4
  -5   3   4 179.258 10.9494  22
  -5   3   4 177.479 11.0021   5
   5   3  -4 175.538 12.9485  14
   5   3  -4 189.578 12.4340   8
   4  -3  -4 190.526 11.7678  14
  -4  -3   4 191.978 10.5545  22
  -4  -3   4 181.510 10.4613   5
  -4  -3   4 146.921 12.3051   6
  -4   3   4 178.568 12.1703  23
  -4   3   4 177.283 10.4417   5
  -4   3   4 177.748 12.3102   4
   4   3  -4 192.077 11.4310   8
   3  -3  -4 672.197 34.7234  14
   3  -3  -4 560.446 37.9190  21
   3  -3  -4 555.590 37.3645   1
  -3  -3   4 630.412 30.7576  22
   3  -3  -4 569.070 36.6998  10
   3  -3  -4 591.108 34.5997   8
  -3  -3   4 618.470 32.5590  23
  -3  -3   4 605.068 37.1461  19
  -3  -3   4 562.831 33.0640   6
  -3  -3   4 616.602 30.6904   5
  -3  -3   4 566.958 40.1599   3
   3   3  -4 593.496 34.9612  14
  -3   3   4 625.429 30.7400  22
  -3   3   4 651.392 34.9428   4
   3   3  -4 684.778 34.0847   8
   3   3  -4 649.023 41.4096   2
  -3   3   4 623.723 44.8175  18
   3   3  -4 632.117 45.2410  18
  -3   3   4 636.516 30.6407   5
  -3   3   4 635.961 40.6385   2
   2  -3  -4 306.212 18.8926   8
  -2  -3   4 329.578 17.0376   5
  -2  -3   4 332.532 16.9263  22
   2  -3  -4 347.122 18.7528  14
  -2  -3   4 310.193 18.3087  23
   2  -3  -4 350.913 23.7995  21
  -2  -3   4 335.214 23.1890   3
  -2  -3   4 326.949 18.4379   6
  -2   3   4 317.006 22.5276   2
   2   3  -4 343.728 23.6913   2
  -2   3   4 342.910 22.5293   1
  -2   3   4 328.979 19.6393   4
  -2   3   4 323.646 25.1406  18
   2   3  -4 352.482 25.7555  18
  -2   3   4 328.621 16.9371  22
   2   3  -4 324.331 18.9427  14
  -1  -3   4 5519.52 319.185  20
   1  -3  -4 5335.17 282.788  14
  -1  -3   4 5053.28 222.842  24
   1  -3  -4 5498.05 319.435  20
  -1  -3   4 4999.41 262.833   6
  -1  -3   4 4782.05 261.062  23
  -1  -3   4 5708.45 298.926   3
   1  -3  -4 5278.86 278.292  21
  -1   3   4 5112.49 344.247  18
   1   3  -4 5319.89 313.301   2
  -1   3   4 4934.97 281.770   1
  -1   3   4 4804.64 276.107   4
  -1   3   4 5257.79 232.576   7
   1   3  -4 4903.25 283.608  19
   0  -3  -4 1237.92 64.0770  14
   0  -3   4 1040.79 64.0464  21
   0  -3   4 1174.31 73.0817  20
   0  -3  -4 1177.72 62.1150   8
   0  -3   4 1136.75 52.2419   7
   0  -3  -4 1123.04 73.0473  20
   0  -3   4 1090.01 59.0828  23
   0  -3   4 1130.74 50.0457  24
   0  -3   4 1168.32 59.2241   6
   0   3   4 1203.67 52.4526   7
   0   3   4 1149.74 50.0451  24
   0   3   4 1070.24 64.0967  21
   0   3  -4 1022.75 62.4066   8
   0   3  -4 1261.30 69.3072   3
   0   3  -4 1166.43 63.0088  14
   0   3  -4 1151.26 66.4886  19
   1  -3   4 578.576 31.1347   6
  -1  -3  -4 590.494 33.8255  14
   1  -3   4 532.140 31.0060  23
  -1  -3  -4 622.216 36.0870  10
   1  -3   4 566.710 35.8306  21
  -1  -3  -4 527.872 39.1955  20
   1  -3   4 577.453 32.3581  15
  -1  -3  -4 605.351 32.4888   8
   1  -3   4 570.622 26.2351  24
   1  -3   4 571.021 27.4726   7
   1  -3   4 483.529 38.8676  20
  -1   3  -4 564.740 37.3661   3
   1   3   4 620.915 35.5768  21
   1   3   4 605.931 31.9415  15
   1   3   4 587.332 28.8388   9
   1   3   4 607.455 26.3018  24
  -1   3  -4 614.578 32.7658   8
  -1   3  -4 622.540 33.0219  14
   1   3   4 548.664 34.1909   4
  -1   3  -4 581.049 36.3250  19
  -1   3  -4 658.954 35.5613  10
   1   3   4 545.599 38.9528   1
   1   3   4 612.976 27.5524   7
   2  -3   4 75.4987 6.35726   6
  -2  -3  -4 66.4396 5.71654   8
   2  -3   4 68.2094 5.02723   9
   2  -3   4 67.4995 4.90496  24
  -2  -3  -4 60.3495 5.68089   6
   2  -3   4 65.6462 5.42617   7
   2  -3   4 63.2557 5.98170  15
  -2  -3  -4 60.0971 6.66326  14
   2   3   4 65.5129 5.67166  15
  -2   3  -4 77.1881 6.15557  14
   2   3   4 66.5192 5.08113   7
   2   3   4 73.8361 9.95176   4
   2   3   4 57.4444 6.05305   9
   2   3   4 67.2647 4.88838  24
  -2   3  -4 68.9616 5.80158   8
   3  -3   4 201.673 10.7899   7
   3  -3   4 186.463 10.0775  24
  -3  -3  -4 187.530 11.9817   6
   3  -3   4 190.678 11.0868   9
   3  -3   4 201.244 12.7201   6
   3  -3   4 195.923 12.8797  15
   3   3   4 199.666 12.1575   9
   3   3   4 192.210 10.3525  24
   3   3   4 205.841 15.3795   4
   3   3   4 195.350 12.8984  15
   4  -3   4 1163.67 50.7212   7
  -4  -3  -4 1111.33 57.4760   6
   4   3   4 1055.91 60.9363   4
  -4   3  -4 1074.84 57.8197   6
  -6  -4   4 55.5520 5.08891   5
  -6  -4   4 59.9582 5.67670  22
  -6  -4   4 56.4191 5.41033  23
  -6   4   4 47.0915 5.07772   5
  -6   4   4 30.9634 5.31787  23
  -6   4   4 45.0215 4.97027  22
   5  -4  -4 404.871 25.0591  14
  -5  -4   4 382.799 23.4808   6
  -5  -4   4 412.117 22.5728  23
   5  -4  -4 357.476 24.3398   8
  -5  -4   4 418.318 21.5708  22
  -5  -4   4 414.895 21.2998   5
   5   4  -4 436.244 24.2444   8
  -5   4   4 409.329 24.7746   4
   5   4  -4 403.922 25.4349  14
  -5   4   4 345.682 23.3768  23
  -5   4   4 429.342 21.4534  22
  -5   4   4 450.655 21.5763   5
  -4  -4   4 462.800 22.9018   5
  -4  -4   4 401.877 25.0685   6
  -4  -4   4 464.997 24.3892  23
   4  -4  -4 428.208 26.0152  14
  -4  -4   4 451.522 22.9377  22
  -4   4   4 459.165 22.9792   5
   4   4  -4 461.789 25.4497   8
  -4   4   4 458.334 26.4918   4
  -4   4   4 459.844 23.0038  22
   4   4  -4 435.220 26.4441  14
  -4   4   4 364.250 24.7959  23
  -3  -4   4 1421.58 73.2803  23
   3  -4  -4 1459.26 80.9669  21
   3  -4  -4 1402.06 78.3386   8
  -3  -4   4 1429.29 69.5015  22
   3  -4  -4 1309.98 81.4957   1
  -3  -4   4 1397.11 81.2998  19
   3  -4  -4 1550.34 79.1500  14
  -3  -4   4 1277.77 73.9903   6
  -3  -4   4 1488.60 69.4265   5
  -3  -4   4 1301.05 86.6414   3
   3   4  -4 1541.15 77.7447   8
  -3   4   4 1502.90 89.8694   2
   3   4  -4 1402.26 90.0398   2
  -3   4   4 1393.76 78.0482   4
  -3   4   4 1415.71 98.8386  18
   3   4  -4 1455.54 99.2695  18
   3   4  -4 1443.38 79.3933  14
  -3   4   4 1476.15 69.3841   5
  -3   4   4 1400.38 69.4809  22
  -2  -4   4 1559.23 83.5158  23
  -2  -4   4 1386.33 83.9279   6
  -2  -4   4 1749.79 79.1198   5
  -2  -4   4 1546.44 97.4217   3
  -2  -4   4 1679.32 79.0891  22
   2  -4  -4 1657.65 91.3902  21
   2  -4  -4 1866.51 90.1108  14
   2  -4  -4 1723.81 88.8975   8
  -2   4   4 1685.09 100.873   2
   2   4  -4 1625.28 93.4749  19
  -2   4   4 1609.83 79.0269  22
  -2   4   4 1690.41 111.757  18
   2   4  -4 1760.97 112.296  18
  -2   4   4 1520.23 92.6633   1
   2   4  -4 1704.40 102.191   2
  -2   4   4 1418.59 74.5162   7
   2   4  -4 1770.87 88.4635   8
  -2   4   4 1515.69 88.5739   4
   2   4  -4 1577.83 90.0203  14
   2   4  -4 1545.46 94.0602  10
   1  -4  -4 100.278 10.9543  20
  -1  -4   4 97.3691 7.79918   6
  -1  -4   4 95.9332 8.08972  23
  -1  -4   4 99.5863 11.2082   3
   1  -4  -4 106.007 7.09549   8
  -1  -4   4 100.729 6.03419  24
   1  -4  -4 98.1856 7.86922  14
  -1  -4   4 95.3901 7.42539   5
  -1  -4   4 101.372 10.4808  20
   1  -4  -4 94.8680 12.2420  21
   1  -4  -4 100.601 10.6614  10
  -1   4   4 132.463 7.02843   7
  -1   4   4 96.6723 8.86533   4
   1   4  -4 116.812 12.8864   2
  -1   4   4 121.371 11.8680  18
   1   4  -4 109.259 7.52859   8
  -1   4   4 121.992 6.17066  24
  -1   4   4 93.2150 11.9930   1
   1   4  -4 122.623 12.7988  19
   1   4  -4 116.092 6.90390  14
   0  -4  -4 703.437 45.1307  10
   0  -4   4 763.648 33.1424  24
   0  -4   4 743.108 39.2109  23
   0  -4  -4 756.670 45.4668  11
   0  -4   4 730.722 39.3636   6
   0  -4  -4 764.675 49.5211  20
   0  -4  -4 802.168 41.1072   8
   0  -4  -4 829.280 42.6566  14
   0  -4   4 771.117 49.3329  20
   0  -4   4 760.339 34.6487   7
   0   4   4 681.599 42.1544   4
   0   4  -4 646.240 46.4999   3
   0   4   4 709.477 46.2580   1
   0   4  -4 773.291 41.5663  14
   0   4  -4 743.849 41.4182   8
   0   4   4 777.725 40.2988  15
   0   4   4 760.401 34.8593   7
   0   4  -4 688.190 44.1421  11
   0   4  -4 739.123 45.2814  19
   0   4  -4 730.517 44.3575  10
   0   4   4 727.495 33.1232  24
   1  -4   4 524.615 23.9599  24
   1  -4   4 518.748 29.6732  15
   1  -4   4 464.253 36.0624  20
   1  -4   4 522.940 25.3973   9
  -1  -4  -4 551.186 29.7109   8
  -1  -4  -4 494.818 31.0127  14
  -1  -4  -4 518.636 36.7174  20
   1  -4   4 608.643 28.8395   6
   1  -4   4 488.156 28.4965  23
   1  -4   4 543.976 25.1859   7
   1   4   4 521.286 32.6706  21
   1   4   4 539.074 31.2025   4
  -1   4  -4 547.242 30.1506   8
   1   4   4 597.030 36.9050   1
  -1   4  -4 458.790 33.5742  19
  -1   4  -4 535.017 30.0428  14
   1   4   4 532.933 26.3636   9
   1   4   4 494.334 23.9047  24
  -1   4  -4 512.715 35.1299   3
   1   4   4 544.574 29.2301  15
   1   4   4 536.559 25.1505   7
  -2  -4  -4 853.167 46.4066   6
   2  -4   4 906.133 47.1445   6
   2  -4   4 937.521 41.5511   7
  -2  -4  -4 781.149 50.7862  14
  -2  -4  -4 838.198 49.3847   8
   2  -4   4 869.953 42.5360   9
   2  -4   4 843.466 48.9223  15
   2  -4   4 883.515 39.5268  24
   2   4   4 917.112 39.7851  24
   2   4   4 825.928 43.4752   9
   2   4   4 895.470 41.3537   7
   2   4   4 1038.79 50.9569   4
  -2   4  -4 910.014 50.2012  14
  -2   4  -4 897.334 49.7099   8
  -2   4  -4 884.292 46.5438  23
   2   4   4 922.526 48.8634  15
   3  -4   4 371.843 18.4497   9
  -3  -4  -4 358.902 19.9774   6
   3  -4   4 338.739 21.3164  15
   3  -4   4 358.608 16.8891  24
   3  -4   4 377.731 17.7814   7
   3  -4   4 356.347 20.5412   6
   3   4   4 342.964 21.3087  15
   3   4   4 364.104 22.4832   4
   3   4   4 312.262 19.3933   9
   3   4   4 327.564 17.0862  24
  -4  -4  -4 340.915 18.8227   6
   4  -4   4 333.487 16.5738   7
   4   4   4 345.250 20.3416   4
  -4   4  -4 312.705 18.9878   6
  -6  -5   4 30.5540 4.10438  23
  -6   5   4 33.7908 3.96941   5
  -6   5   4 33.8269 4.44695  23
  -5  -5   4 590.539 30.3885  22
  -5  -5   4 595.217 32.1836   6
  -5  -5   4 583.798 31.7219  23
  -5  -5   4 606.788 30.0658   5
  -5   5   4 607.701 30.2406  22
  -5   5   4 532.174 32.2023  23
  -5   5   4 621.866 30.3662   5
  -5   5   4 571.784 34.1819   4
   4  -5  -4 1421.26 77.7695  14
  -4  -5   4 1453.14 71.6880  23
  -4  -5   4 1507.40 72.5085   6
  -4  -5   4 1428.45 67.8287   5
  -4  -5   4 1397.95 68.0259  22
  -4   5   4 1396.74 68.0556  22
   4   5  -4 1399.99 76.3648   8
  -4   5   4 1231.56 76.0228   4
  -4   5   4 1443.85 68.0855   5
   4   5  -4 1169.55 77.5713  14
   3  -5  -4 161.739 11.6122   8
   3  -5  -4 170.437 11.5717  14
  -3  -5   4 156.566 11.1415   6
  -3  -5   4 156.102 11.2380  23
  -3  -5   4 157.137 9.99890  22
  -3  -5   4 159.577 10.1036   5
  -3   5   4 194.062 10.5686  22
  -3   5   4 166.845 12.5493   4
   3   5  -4 188.441 11.5953  14
  -3   5   4 181.470 10.5829   5
  -2  -5   4 1409.81 67.4733  22
   2  -5  -4 1539.32 77.2383  14
  -2  -5   4 1426.93 67.5383   5
  -2  -5   4 1283.02 71.2321  23
  -2  -5   4 1309.16 71.5968   6
   2  -5  -4 1437.92 75.6702   8
  -2  -5   4 1401.16 83.9406   3
   2  -5  -4 1369.83 78.0376  21
  -2   5   4 1260.54 63.5525   7
  -2   5   4 1209.82 79.7144   1
  -2   5   4 1460.99 96.6102  18
   2   5  -4 1417.65 76.6896  14
  -2   5   4 1409.16 67.5153  22
   2   5  -4 1268.76 80.5090  19
   2   5  -4 1477.81 75.7385   8
   2   5  -4 1319.93 88.2384   2
   2   5  -4 1413.41 96.9439  18
  -1  -5   4 267.204 16.2055   6
   1  -5  -4 281.944 22.5598  20
   1  -5  -4 282.862 16.7962   8
   1  -5  -4 292.878 17.6823  14
  -1  -5   4 265.302 16.0322  23
  -1  -5   4 320.335 22.1433  20
   1  -5  -4 274.084 19.4315  10
  -1  -5   4 238.243 15.3900   5
  -1  -5   4 292.714 13.5419  24
  -1  -5   4 246.249 20.9309   3
   1  -5  -4 270.330 20.9283  21
   1   5  -4 285.085 16.7229   8
  -1   5   4 283.739 15.0350  22
   1   5  -4 286.110 16.6258  14
   1   5  -4 268.407 19.3460  10
   1   5  -4 272.230 20.9341  19
  -1   5   4 283.963 23.6189  18
   1   5  -4 211.523 22.5621   2
  -1   5   4 242.006 20.7462   1
  -1   5   4 284.626 14.6900   7
  -1   5   4 262.223 17.4850   4
  -1   5   4 283.970 13.6486  24
  -1   5   4 306.077 15.9481  15
   0  -5   4 524.314 29.0245  15
   0  -5   4 498.068 36.3957  20
   0  -5   4 524.984 28.0990  23
   0  -5   4 519.287 23.8935  24
   0  -5  -4 468.091 36.5432  20
   0  -5  -4 547.923 30.5922  14
   0  -5   4 513.836 25.0922   7
   0  -5  -4 535.968 33.8894  21
   0  -5   4 474.400 28.3340   6
   0  -5  -4 519.217 29.6452   8
   0  -5  -4 476.439 34.4524  10
   0   5  -4 568.141 29.8588   8
   0   5   4 550.449 30.6215   4
   0   5   4 536.576 28.8914  15
   0   5  -4 482.647 29.6780  14
   0   5  -4 586.292 34.4456  10
   0   5   4 519.594 23.9354  24
   0   5  -4 600.840 39.5228   2
   0   5  -4 425.927 34.4789   3
   0   5  -4 565.248 33.8607  19
   0   5   4 543.019 34.7851   1
   1  -5   4 1315.90 56.3118  24
  -1  -5  -4 1321.72 70.3164   8
   1  -5   4 1258.40 66.6102   6
   1  -5   4 1322.72 69.3300  15
   1  -5   4 1350.05 58.9877   7
  -1  -5  -4 1327.58 72.2049  14
   1  -5   4 1278.02 60.2806   9
   1   5   4 1231.29 56.2825  24
  -1   5  -4 1175.08 70.4779   8
   1   5   4 1280.82 60.9127   9
   1   5   4 1266.83 58.8098   7
  -1   5  -4 1092.13 74.0535  19
  -1   5  -4 1295.40 71.1040  14
   1   5   4 1258.06 69.1723  15
   1   5   4 1353.88 70.6284   4
   2  -5   4 14.4471 3.69719   7
   2  -5   4 9.74768 4.97794  15
   2  -5   4 13.7476 4.28708   6
   2  -5   4 12.0452 3.12264  24
   2  -5   4 8.85975 3.06379   9
  -2  -5  -4 14.1009 4.46726   8
  -2  -5  -4 8.55786 5.03305  14
  -2   5  -4 19.7161 4.85795   8
   2   5   4 11.8901 3.24687   7
   2   5   4 12.1771 3.00987  24
   2   5   4 21.6549 5.10258   4
  -2   5  -4 10.9264 4.39736  23
   2   5   4 11.2145 4.74596   9
   2   5   4 11.3864 4.30384  15
  -2   5  -4 12.3156 3.80029  14
  -3  -5  -4 1266.84 67.5525   6
   3  -5   4 1384.70 60.1677   7
   3  -5   4 1314.20 57.7903  24
   3  -5   4 1220.05 67.8714   6
   3   5   4 1383.81 71.8272   4
  -3   5  -4 1295.03 67.3539  23
   3   5   4 1241.27 57.7046  24
  -4  -5  -4 82.8046 6.83496   6
   4  -5   4 81.1939 6.00859   7
   4   5   4 87.9013 7.40085   4
  -6   6   4 38.5199 4.62614   5
  -5  -6   4 491.145 27.0508   5
  -5  -6   4 601.002 28.6530   6
  -5  -6   4 475.667 27.3097  22
  -5  -6   4 525.492 28.6783  23
  -5   6   4 508.647 27.1471  22
  -5   6   4 541.763 30.4546   4
  -4  -6   4 378.270 19.9304   6
  -4  -6   4 332.167 18.8906  22
   4  -6  -4 324.663 21.8485  14
  -4  -6   4 335.012 18.7350   5
  -4  -6   4 349.661 20.2091  23
   4   6  -4 353.704 21.7465  14
   4   6  -4 344.378 21.3906   8
  -4   6   4 360.166 19.0876  22
  -4   6   4 343.921 21.3986   4
  -4   6   4 325.190 19.1066   5
  -3  -6   4 71.6240 7.41273   5
  -3  -6   4 78.9311 7.28328  22
  -3  -6   4 83.1866 7.50320   6
  -3  -6   4 83.3618 8.74959  23
   3  -6  -4 86.5058 8.08330   8
   3  -6  -4 75.8932 8.78662  14
  -3   6   4 112.688 7.85972  15
  -3   6   4 105.810 7.85408  22
   3   6  -4 104.278 8.52020   8
  -3   6   4 110.058 9.46508   4
  -3   6   4 100.666 8.20977   5
   3   6  -4 109.747 8.08191  14
  -2  -6   4 2100.49 107.257  22
  -2  -6   4 2118.96 107.190   5
   2  -6  -4 2293.82 120.145   8
  -2  -6   4 2409.68 113.590   6
   2  -6  -4 2239.12 123.026  14
  -2  -6   4 2079.45 112.674  23
  -2   6   4 2331.52 153.600  18
   2   6  -4 2285.62 121.918  14
  -2   6   4 1939.53 118.192  15
  -2   6   4 2379.51 119.746   4
  -2   6   4 2188.54 100.634   7
  -2   6   4 2321.79 107.506  22
   2   6  -4 2019.01 120.539   8
  -1  -6   4 332.901 19.1299   5
   1  -6  -4 347.265 21.2817   8
  -1  -6   4 374.590 17.3596  24
   1  -6  -4 344.055 25.7072  21
  -1  -6   4 373.951 20.3581   6
  -1  -6   4 350.239 28.1976  20
  -1  -6   4 346.834 19.8669  23
  -1  -6   4 343.071 25.9979   3
   1  -6  -4 397.608 22.3985  14
   1   6  -4 366.457 21.6665  14
  -1   6   4 366.785 21.6789   4
  -1   6   4 328.884 20.5596  15
   1   6  -4 363.155 20.9179   8
  -1   6   4 383.692 26.0706   1
  -1   6   4 340.389 18.4518   7
   1   6  -4 327.017 28.3945   2
   1   6  -4 347.175 25.1704  19
  -1   6   4 350.727 19.4193  22
   0  -6  -4 1713.41 92.0444  14
   0  -6   4 1660.28 77.4769   9
   0  -6   4 1694.58 84.4009  23
   0  -6   4 1628.75 85.3716   6
   0  -6   4 1679.47 72.4362  24
   0  -6   4 1758.34 88.7363  15
   0  -6   4 1627.84 75.7487   7
   0  -6  -4 1611.56 90.6696   8
   0   6   4 1615.34 89.7774   4
   0   6  -4 1483.60 80.0716   5
   0   6  -4 1761.21 90.4095   8
   0   6  -4 1673.87 91.6840  14
   0   6   4 1557.09 75.8431   7
   0   6   4 1593.21 88.9497  15
   0   6   4 1773.70 78.1014   9
   0   6   4 1540.80 72.4371  24
  -1  -6  -4 545.506 33.7349  14
   1  -6   4 554.337 31.1962   6
   1  -6   4 568.681 32.0681  15
   1  -6   4 547.315 28.0323   9
   1  -6   4 594.360 28.0673   7
  -1  -6  -4 554.956 33.1018   8
   1  -6   4 561.419 26.3575  24
   1   6   4 608.322 28.5149   9
   1   6   4 553.737 26.5211  24
   1   6   4 569.822 32.4783  15
   1   6   4 614.330 33.2262   4
  -1   6  -4 578.837 33.1084   8
   1   6   4 563.881 27.7891   7
  -1   6  -4 586.829 33.2214  14
   2  -6   4 180.888 12.1147   6
   2  -6   4 186.385 10.9817   7
   2  -6   4 167.934 12.4411  15
   2  -6   4 198.636 10.3715  24
   2  -6   4 166.906 10.5587   9
   2   6   4 180.975 12.7304  15
  -2   6  -4 154.861 12.4163   8
  -2   6  -4 190.023 12.1846  23
   2   6   4 203.856 13.0360   4
   2   6   4 194.953 10.5011  24
  -2   6  -4 172.898 12.6142  14
   2   6   4 183.452 11.1251   9
   2   6   4 173.753 10.6730   7
  -3  -6  -4 409.126 20.3189  24
   3  -6   4 453.433 23.6508   6
   3  -6   4 436.040 21.3031   7
   3   6   4 432.727 25.0260   4
  -3   6  -4 385.746 23.3734  23
  -5  -7   4 283.403 16.4199  23
  -5  -7   4 309.258 15.9826   6
  -5  -7   4 271.121 15.6978   5
   5   7  -4 283.916 16.6215  22
  -5   7   4 250.460 15.6382   5
  -5   7   4 263.706 15.6153  22
  -5   7   4 310.528 17.2543   4
  -4  -7   4 311.306 15.5416   6
  -4  -7   4 269.383 16.1420  23
  -4  -7   4 245.716 15.2668   5
  -4   7   4 258.771 15.3638  22
  -4   7   4 300.722 16.9414   4
   4   7  -4 212.722 17.4872   8
  -4   7   4 225.459 15.3876   5
  -3  -7   4 113.858 8.48762   6
  -3  -7   4 114.305 9.51292  23
   3  -7  -4 106.753 11.9469  14
   3  -7  -4 110.757 7.74338   7
  -3  -7   4 109.096 9.21850   5
   3  -7  -4 125.079 9.43786   8
  -3   7   4 143.781 10.1661   4
  -3   7   4 87.4832 9.27555   5
  -3   7   4 125.329 9.03961  15
   3   7  -4 139.451 9.63365  14
   3   7  -4 115.532 10.2238   8
  -3   7   4 119.544 9.29878  22
  -2  -7   4 229.486 13.9126   5
  -2  -7   4 249.062 14.1957  23
  -2  -7   4 260.397 13.8984   6
   2  -7  -4 237.467 14.4677   8
  -2  -7   4 214.719 12.8448  24
   2  -7  -4 230.525 16.3941  14
  -2   7   4 198.193 13.9026  22
   2   7  -4 232.641 14.6832  14
  -2   7   4 229.993 14.3320  15
  -2   7   4 196.992 12.7100   9
   2   7  -4 234.580 15.1239   8
  -2   7   4 229.561 15.0156   4
   2   7  -4 192.553 14.5580  22
  -1  -7   4 1361.86 63.8358   5
  -1  -7   4 1242.37 66.8055  23
  -1  -7   4 1381.67 67.6550   6
   1  -7  -4 1352.97 71.8844   8
   1  -7  -4 1279.00 57.5150  24
  -1  -7   4 1243.24 57.7700  24
   1  -7  -4 1241.83 73.0623  14
  -1  -7   4 1223.54 70.3780  15
  -1   7   4 1309.82 61.9149   9
  -1   7   4 1322.94 60.5110   7
   1   7  -4 1281.76 72.9206  14
  -1   7   4 1235.26 70.6107  15
  -1   7   4 1410.82 71.4766   4
   1   7  -4 1294.30 71.4302   8
   0  -7   4 898.747 45.1091  23
   0  -7  -4 847.667 49.0326   8
   0  -7  -4 906.024 49.5063  14
   0  -7   4 733.356 40.8108   7
   0  -7   4 855.532 39.1838  24
   0  -7   4 969.667 47.4554  15
   0  -7   4 920.283 45.7963   6
   0  -7   4 828.228 41.5049   9
   0   7   4 847.977 41.2112   7
   0   7   4 723.371 47.6722  15
   0   7  -4 820.778 42.8994   5
   0   7   4 915.131 41.9589   9
   0   7  -4 835.892 49.5914  14
   0   7  -4 949.599 48.5965   8
   0   7   4 889.578 48.2979   4
  -1  -7  -4 328.443 19.2386  14
   1  -7   4 295.074 16.2590   7
   1  -7   4 289.183 15.8385   9
   1  -7   4 311.523 15.2735  24
  -1  -7  -4 276.097 19.0638   8
   1  -7   4 338.409 17.6712   6
   1  -7   4 310.646 17.6942  15
  -1   7  -4 276.210 18.9309  14
  -1   7  -4 310.631 18.5682   8
   1   7   4 302.704 18.6028   4
   1   7   4 246.250 18.1932  15
  -1   7  -4 308.747 17.3858  23
   1   7   4 257.316 15.7758   7
   2  -7   4 28.8495 4.45840   6
   2  -7   4 18.1241 4.43908   9
   2  -7   4 30.8282 4.24250  24
   2  -7   4 26.1607 4.65564   7
  -2  -7  -4 33.1525 4.70510  24
   2   7   4 36.9409 5.04177   9
  -2   7  -4 34.0383 4.86251  23
   2   7   4 33.4321 5.00709   7
   2   7   4 32.7302 4.76452   4
  -3  -7  -4 308.259 14.4831  24
   3  -7   4 269.161 15.4271   7
  -3   7  -4 308.797 17.0162  23
  -5  -8   4 269.828 15.2079   6
   5   8  -4 290.953 15.3645  22
  -5   8   4 273.062 14.9015  22
  -5   8   4 270.574 14.8378   5
  -4  -8   4 701.166 35.0957   5
  -4  -8   4 739.539 36.7049   6
  -4  -8   4 689.982 36.6916  23
   4   8  -4 678.215 35.7143  22
  -4   8   4 635.145 35.2827  22
  -4   8   4 690.097 38.6832   4
  -4   8   4 720.061 35.3624   5
   3  -8  -4 871.891 41.1716   7
  -3  -8   4 957.529 46.7461   6
  -3  -8   4 900.422 44.6177   5
  -3  -8   4 883.272 46.5802  23
   3  -8  -4 751.338 51.5883  14
  -3   8   4 930.900 44.6739   5
  -3   8   4 821.500 44.9182  22
  -3   8   4 917.956 49.3386   4
   3   8  -4 950.804 50.4869   8
   3   8  -4 893.114 50.3199  14
   3   8  -4 883.672 45.1798  22
  -2  -8   4 5.40850 3.61405  23
  -2  -8   4 7.27191 4.45667  24
   2  -8  -4 5.85262 3.28639   7
  -2  -8   4 5.93404 3.02505   6
   2  -8  -4 8.09403 4.41593   8
  -2  -8   4 10.5249 3.59933   5
   2   8  -4 10.5243 4.73012  22
  -2   8   4 9.22241 4.55339  22
  -2   8   4 13.7254 4.53603  15
   2   8  -4 9.50895 4.08088  14
  -2   8   4 8.72704 3.80756   4
  -2   8   4 6.38613 4.21125   9
   2   8  -4 9.99407 4.44773   8
  -1  -8   4 54.0861 6.24701  15
   1  -8  -4 43.8991 6.29139  14
  -1  -8   4 47.5054 5.31000   6
  -1  -8   4 45.9701 5.50171  24
   1  -8  -4 47.4637 5.43760  24
  -1  -8   4 49.4551 5.74077  23
  -1  -8   4 45.9892 5.24510   9
   1  -8  -4 44.3513 6.36583   8
  -1   8   4 43.9111 5.68106   4
  -1   8   4 55.0059 5.89286   7
   1   8  -4 49.0739 6.13950  14
  -1   8   4 49.4379 6.53596  22
   1   8  -4 50.2354 5.88149   8
  -1   8   4 50.2475 6.06576   9
  -1   8   4 52.4240 6.50711  15
   0  -8   4 381.417 20.0036  24
   0  -8   4 431.126 22.8129   6
   0  -8   4 380.063 20.8214   9
   0  -8   4 449.307 23.6769  15
   0  -8  -4 420.058 19.8627  24
   0  -8  -4 438.233 24.9261   8
   0  -8  -4 407.678 24.9388  14
   0  -8   4 426.061 21.1121   7
   0  -8   4 411.426 22.4322  23
   0   8   4 359.216 24.1791  15
   0   8   4 404.003 24.1428   4
   0   8  -4 408.343 21.5328   5
   0   8  -4 428.460 25.3279  14
   0   8   4 407.409 21.0130   9
   0   8   4 405.335 20.8880   7
   0   8  -4 406.862 24.2408   8
  -1  -8  -4 532.122 24.8879  24
   1  -8   4 472.276 26.3952   9
   1  -8   4 536.172 29.9050  15
   1  -8   4 573.478 28.8104   6
   1  -8   4 524.494 25.0205  24
   1  -8   4 554.679 26.3883   7
   1   8   4 517.116 31.2963  15
   1   8   4 498.548 26.3797   9
   1   8   4 517.514 26.0222   7
  -1   8  -4 562.220 28.7327  23
   1   8   4 539.985 30.4878   4
  -2  -8  -4 1102.08 49.2447  24
   2  -8   4 1055.71 49.3727  24
   2  -8   4 1028.66 51.5448   7
   2   8   4 1180.97 61.0808   4
  -2   8  -4 1177.59 57.4773  23
  -3  -8  -4 26.1068 2.88303  24
   3  -8   4 25.8062 3.54164   7
  -3   8  -4 31.4038 3.79329  23
   3   8   4 29.2076 3.82734   4
  -4  -9   4 242.579 14.6896   6
  -4  -9   4 261.529 14.3047   5
  -4   9   4 268.357 14.7098  22
   4   9  -4 279.740 14.9677  22
  -4   9   4 275.411 14.4102   5
  -3  -9   4 234.510 13.8221   6
  -3  -9   4 226.839 13.9066  23
   3  -9  -4 225.774 12.3704   7
  -3  -9   4 247.013 13.6429   5
  -3   9   4 246.841 15.0587   4
   3   9  -4 251.948 14.2066  22
  -3   9   4 262.870 14.2852  22
  -2  -9   4 256.385 15.5458   6
  -2  -9   4 279.269 14.1338  24
   2  -9  -4 270.033 14.0973   7
  -2  -9   4 268.888 15.7071  23
   2   9  -4 281.167 15.6810  22
  -2   9   4 294.973 15.1403   9
  -2   9   4 256.953 16.6997   4
  -2   9   4 280.523 15.8977  22
  -1  -9   4 1150.95 49.9993  24
  -1  -9   4 1146.68 57.7226  23
   1  -9  -4 1093.07 49.3661  24
   1  -9  -4 1132.29 51.7698   7
  -1  -9   4 1055.98 57.9426   6
   1   9  -4 1126.92 55.1472   5
  -1   9   4 1083.98 61.2883   4
  -1   9   4 1126.88 53.4037   9
  -1   9   4 1147.86 55.7754  22
   0  -9   4 443.540 20.5970  24
   0  -9  -4 435.133 20.0933  24
   0  -9   4 425.134 23.1520   6
   0   9  -4 406.215 21.9831   5
   0   9   4 417.456 24.7398   4
   1  -9   4 585.779 27.6466   7
  -1  -9  -4 545.927 26.1938  24
  -1   9  -4 566.465 28.9417   5
   1   9   4 603.739 32.6780   4
  -1   9  -4 569.485 30.5117  23
  -2  -9  -4 11.1456 2.61177  24
   2  -9   4 11.3629 3.26348  24
   2  -9   4 9.28851 3.30688   7
   2   9   4 15.6118 3.43468   4
  -2   9  -4 13.0014 3.07031  23
  -4 -10   4 43.1191 3.86026   6
  -4  10   4 47.9043 4.26651  22
   4  10  -4 45.3517 4.49889  22
   3 -10  -4 89.5985 5.90114   7
  -3 -10   4 88.7178 6.58827  23
  -3 -10   4 90.6785 6.43186   6
   3  10  -4 93.7150 6.86987  22
  -3  10   4 98.5285 6.79911  22
   3  10  -4 88.0254 6.57515   5
  -2 -10   4 678.403 37.6993   6
  -2 -10   4 755.595 32.4039  24
   2 -10  -4 724.330 33.6349   7
  -2 -10   4 721.655 37.5331  23
   2  10  -4 710.898 36.0876  22
   2  10  -4 731.819 36.0685   5
  -2  10   4 724.528 36.3013  22
  -1 -10   4 124.353 7.52029  24
  -1 -10   4 113.017 7.74801   6
   1 -10  -4 122.520 7.08302  24
   1 -10  -4 119.868 7.34623   7
  -1 -10   4 119.396 8.15333  23
  -1  10   4 119.031 8.20915  22
   1  10  -4 122.699 7.97373   5
  -1  10   4 111.867 8.59325   4
   0 -10  -4 524.020 25.1863   7
   0 -10   4 549.791 24.4713  24
   0 -10  -4 525.521 24.1472  24
   0  10  -4 528.729 26.7757   5
   0  10  -4 538.495 28.2721  23
   0  10   4 515.490 29.9429   4
  -1 -10  -4 105.303 6.27497  24
  -1 -10  -4 101.252 6.46408   7
   1 -10   4 104.553 6.57571  24
   1 -10   4 107.861 6.71277   7
  -1  10  -4 107.018 7.23995  23
   1  10   4 118.366 8.08568   4
  -1  10  -4 108.807 6.98697   5
  -2 -10  -4 220.757 10.1654  24
   2 -10   4 199.684 10.6863   7
   2  10   4 226.207 12.8882   4
  -2  10  -4 194.014 11.6736  23
   3  11  -4 63.1181 4.54866   5
  -3  11   4 53.1162 4.40287  22
   2 -11  -4 313.818 14.9890   7
   2  11  -4 309.580 16.0295   5
  -2  11   4 299.344 16.0740  22
  -1 -11   4 83.7270 5.18236  24
   1 -11  -4 83.1250 5.27434   7
   1  11  -4 78.7248 5.75956   5
  -1  11   4 70.9611 5.51055  22
   1  11  -4 75.4321 5.92854  23
   0 -11   4 71.3506 4.68741  24
   0 -11  -4 65.5695 4.50472   7
   0 -11  -4 65.7386 4.55896  24
   0  11  -4 61.9678 4.96850   5
   0  11  -4 65.5440 5.20826  23
  -1 -11  -4 323.772 15.0598  24
  -1  11  -4 333.511 17.6747  23
  -6   0   5 303.785 16.1438   5
   6   0  -5 309.072 18.4719   4
  -6   0   5 292.552 16.2100  22
  -6   0   5 330.346 17.6850  23
   5   0  -5 2.25716 3.21880   8
  -5   0   5 5.34036 2.46320  22
  -5   0   5 3.02080 2.23073   5
  -5   0   5 7.86085 3.78490  23
  -5   0   5 5.18851 3.18467   4
  -4   0   5 2999.08 142.464  22
  -4   0   5 3000.48 150.007  23
  -4   0   5 2821.55 158.161   4
   4   0  -5 3007.76 162.021  14
   4   0  -5 2928.52 159.631   8
  -4   0   5 2966.36 141.943   5
  -3   0   5 1240.37 77.0930   2
  -3   0   5 1200.51 66.5371   4
   3   0  -5 1258.73 85.4562  18
  -3   0   5 1262.06 59.9300  22
  -3   0   5 1186.20 63.4016  23
  -3   0   5 1218.94 59.6892   5
  -2   0   5 251.812 13.2703  22
   1   0  -5 26.4437 6.52809  20
  -1   0   5 21.6313 2.47082  24
  -1   0   5 22.3558 2.80775   7
   0   0  -5 7.01607 2.30553  14
   0   0   5 3.52096 2.26155   6
   0   0  -5 6.54317 5.91693  20
   0   0   5 5.73285 1.93999  24
   0   0   5 9.42341 7.14239  21
   0   0   5 10.9411 2.39203   7
   0   0  -5 4.00792 4.94198   3
   1   0   5 2121.46 91.4757  24
  -1   0  -5 2064.65 115.793  14
  -1   0  -5 2231.69 114.029   8
   1   0   5 2082.02 107.677   6
   1   0   5 2013.64 95.4004   7
   2   0   5 1220.17 54.5394   7
   2   0   5 1200.98 52.1693  24
  -2   0  -5 1112.69 66.0334  14
   2   0   5 1180.92 61.3809   6
  -2   0  -5 1192.66 64.9768   8
  -3   0  -5 204.473 12.3229   6
   3   0   5 201.933 10.8538   7
   3   0   5 200.332 10.3509  24
  -4   0  -5 136.024 8.92811   6
  -6  -1   5 741.688 38.7293  23
  -6  -1   5 726.547 36.3880   5
   6  -1  -5 722.021 40.9636   4
  -6  -1   5 733.659 36.6248  22
   6   1  -5 714.222 40.7405   4
  -6   1   5 730.504 36.5733  22
  -6   1   5 769.696 39.1327  23
  -6   1   5 751.614 36.4678   5
  -5  -1   5 379.102 20.8245  23
  -5  -1   5 383.193 19.3912   5
  -5  -1   5 376.901 19.5195  22
   5  -1  -5 338.740 21.4557   8
  -5   1   5 360.369 21.8504   4
  -5   1   5 371.390 19.3863   5
   5   1  -5 362.860 21.6136   8
  -5   1   5 399.248 21.4781  23
  -4  -1   5 175.432 10.2839   5
   4  -1  -5 182.436 11.2181  14
  -4  -1   5 184.039 10.3948  22
  -4  -1   5 182.679 11.3313  23
  -4  -1   5 163.283 11.4143   4
   4  -1  -5 181.854 11.0717   8
  -4   1   5 179.048 11.9535  23
   4   1  -5 168.502 11.0115  14
  -4   1   5 183.298 11.8327   4
  -4   1   5 169.218 10.2098   5
   4   1  -5 183.865 10.9813   8
  -4   1   5 175.705 10.3107  22
  -3  -1   5 893.874 45.5051  23
  -3  -1   5 852.652 42.5596   5
  -3  -1   5 807.716 51.5097  19
   3  -1  -5 787.127 50.0597   1
  -3  -1   5 930.919 42.8223  22
  -3   1   5 907.388 42.5955   5
  -3   1   5 815.340 45.3715  23
  -3   1   5 865.373 42.6492  22
  -3   1   5 862.303 47.6234   4
  -3   1   5 871.930 61.3822  18
   3   1  -5 916.881 62.0762  18
   2  -1  -5 770.225 45.9644   1
  -2  -1   5 823.682 39.1518   5
  -2  -1   5 786.797 42.2869  23
  -2   1   5 769.231 39.0507  22
   2   1  -5 886.832 52.3333   2
  -2   1   5 770.390 55.8296  18
  -2   1   5 753.988 43.6710   4
   2   1  -5 820.830 50.4041  19
   1  -1  -5 3137.84 177.091  20
  -1  -1   5 2568.03 144.401   6
  -1  -1   5 2794.70 176.435  20
  -1  -1   5 2897.82 122.613  24
  -1  -1   5 2628.16 127.862   7
   1   1  -5 2875.99 165.039   3
  -1   1   5 2774.78 155.637   1
  -1   1   5 3043.03 122.683  24
  -1   1   5 2832.88 128.038   7
   0  -1  -5 296.912 22.7645  20
   0  -1   5 270.947 16.6700   6
   0  -1   5 279.188 22.1563  20
   0  -1  -5 298.597 17.6889  14
   0  -1   5 303.933 21.8259  21
   0  -1   5 299.927 14.3084  24
   0  -1   5 271.366 14.9357   7
   0   1  -5 325.894 21.2043   3
   0   1   5 319.922 14.4104  24
   0   1   5 302.119 21.3754  21
   0   1   5 308.693 15.1336   7
   0   1  -5 341.757 17.4609  14
   0   1   5 316.826 16.6922   6
   1  -1   5 563.784 26.7672   7
   1  -1   5 581.767 25.5686  24
   1  -1   5 553.695 29.9682   6
  -1  -1  -5 579.756 32.1414  14
  -1  -1  -5 604.684 31.5024   8
   1   1   5 518.094 29.8379   6
  -1   1  -5 569.911 31.9847  14
  -1   1  -5 525.390 31.2937   8
   1   1   5 559.346 25.5545  24
   1   1   5 560.748 26.7713   7
  -2  -1  -5 577.962 31.5721   8
   2  -1   5 571.609 26.6103   7
   2  -1   5 554.046 25.3258  24
  -2  -1  -5 515.743 32.0796  14
   2  -1   5 592.124 30.1272   6
   2   1   5 565.609 26.6102   7
   2   1   5 557.652 25.3680  24
  -2   1  -5 535.352 31.4289   8
  -2   1  -5 526.713 31.9386  14
   3  -1   5 265.494 13.5532   7
   3  -1   5 256.312 12.8586  24
  -3  -1  -5 263.146 15.2761   6
   3   1   5 265.063 12.9427  24
   3   1   5 261.582 13.4681   7
  -3   1  -5 274.630 15.5273   6
  -4  -1  -5 1003.46 52.7161   6
  -4   1  -5 1027.47 52.9361   6
  -6  -2   5 100.900 6.73172   5
  -6  -2   5 108.431 7.05697  22
  -6  -2   5 110.856 7.74532  23
  -6   2   5 110.615 8.83477  23
  -6   2   5 104.893 6.91030  22
  -6   2   5 101.538 6.88137   5
   6   2  -5 107.684 8.35587   4
  -5  -2   5 572.264 29.5639   5
  -5  -2   5 588.849 29.7670  22
  -5  -2   5 586.994 31.4962  23
   5  -2  -5 550.039 33.1935   8
  -5   2   5 599.655 33.5164   4
   5   2  -5 590.774 33.2146   8
  -5   2   5 607.536 32.3848  23
  -5   2   5 595.421 29.6717   5
  -4  -2   5 231.176 12.9808  22
  -4  -2   5 227.014 14.0461  23
   4  -2  -5 241.322 14.4479  14
   4  -2  -5 244.489 14.2965   8
  -4  -2   5 234.253 12.9732   5
  -4   2   5 227.519 12.9030   5
  -4   2   5 236.648 12.9229  22
  -4   2   5 234.568 14.8418   4
   4   2  -5 219.268 14.0688  14
   4   2  -5 246.879 14.0297   8
  -4   2   5 214.820 14.8128  23
  -3  -2   5 862.311 41.3097   5
  -3  -2   5 829.087 43.9097   6
  -3  -2   5 895.283 41.4250  22
   3  -2  -5 902.361 46.4529  14
   3  -2  -5 867.670 50.1337   1
  -3  -2   5 839.186 44.0091  23
  -3  -2   5 823.577 50.5428  19
   3   2  -5 851.601 55.1303   2
  -3   2   5 812.219 41.1224   5
  -3   2   5 793.206 46.1799   4
  -3   2   5 725.755 59.2222  18
  -3   2   5 818.870 41.2691  22
  -2  -2   5 1265.28 66.3313  23
  -2  -2   5 1286.68 76.1945   3
  -2  -2   5 1259.39 65.7881   6
  -2  -2   5 1278.89 62.0058   5
   2  -2  -5 1249.71 74.0510  21
  -2   2   5 1308.83 62.0127  22
  -2   2   5 1079.23 87.1971  18
  -2   2   5 1416.89 69.6181   4
   2   2  -5 1350.99 80.6184   2
   2   2  -5 1241.96 75.5825  19
  -1  -2   5 90.7144 9.63150  20
  -1  -2   5 79.5473 8.68497  23
  -1  -2   5 100.315 6.83883   6
   1  -2  -5 113.249 10.7962  20
  -1  -2   5 104.096 5.70565  24
  -1  -2   5 88.2545 6.10429   7
  -1   2   5 94.9526 7.91306   4
  -1   2   5 104.498 11.0881   1
  -1   2   5 99.3444 5.64072  24
  -1   2   5 101.407 6.23910   7
   1   2  -5 99.1682 9.92819   3
   0  -2  -5 1520.58 91.7903  20
   0  -2   5 1437.85 62.4542  24
   0  -2   5 1397.08 91.0540  20
   0  -2   5 1454.19 65.2785   7
   0  -2  -5 1502.24 79.4124  14
   0  -2   5 1362.86 73.5506   6
   0   2  -5 1520.08 78.7139  14
   0   2   5 1421.56 78.0606   4
   0   2   5 1371.63 62.4174  24
   0   2  -5 1389.92 85.4069   3
   0   2   5 1393.42 65.3016   7
   0   2   5 1361.66 80.2870  21
  -1  -2  -5 328.341 19.8441   8
   1  -2   5 318.637 16.2375  24
   1  -2   5 341.701 17.1606   7
   1  -2   5 338.594 19.2670   6
  -1  -2  -5 343.259 20.7617  14
  -1   2  -5 345.029 19.8797   8
   1   2   5 347.105 18.9542   6
   1   2   5 353.354 17.2350   7
   1   2   5 370.433 16.4062  24
   1   2   5 310.293 21.9365   4
  -1   2  -5 382.057 20.3389  14
   2  -2   5 229.471 12.5752   7
  -2  -2  -5 234.194 14.6841   8
  -2  -2  -5 242.202 13.9720   6
   2  -2   5 245.331 14.2365   6
   2  -2   5 228.502 11.7335  24
  -2  -2  -5 231.112 15.1107  14
   2   2   5 237.397 11.8850  24
  -2   2  -5 244.448 14.8936  14
  -2   2  -5 223.023 14.4623   8
   2   2   5 235.333 12.4203   7
   3  -2   5 512.290 23.2777  24
   3  -2   5 538.075 24.4449   7
  -3  -2  -5 523.551 27.5044   6
   3   2   5 491.093 24.2916   7
  -3   2  -5 512.231 27.8100   6
   3   2   5 473.110 23.2741  24
  -4   2  -5 100.056 7.66388   6
  -6  -3   5 129.667 7.98304   5
  -6  -3   5 136.040 8.23714  22
  -6  -3   5 127.481 8.72158  23
  -6   3   5 144.484 8.27697   5
  -6   3   5 137.881 8.11545  22
  -6   3   5 103.998 9.37192  23
  -5  -3   5 1643.47 85.5962  23
  -5  -3   5 1706.84 81.4616  22
  -5  -3   5 1673.89 81.0984   5
  -5   3   5 1628.62 81.3036  22
  -5   3   5 1670.95 91.0070   4
  -5   3   5 1691.59 81.2031   5
  -4  -3   5 435.430 22.4016   5
  -4  -3   5 425.378 23.9498  23
   4  -3  -5 449.399 25.3190  14
  -4  -3   5 396.240 24.3241   6
  -4  -3   5 446.737 22.4726  22
  -4   3   5 418.975 22.3602   5
  -4   3   5 428.473 22.3831  22
   4   3  -5 448.551 24.7251   8
  -4   3   5 436.666 25.5881   4
   4   3  -5 421.044 25.3168  14
  -3  -3   5 2408.09 112.099   5
  -3  -3   5 2256.07 119.129   6
  -3  -3   5 2463.29 112.362  22
  -3  -3   5 2325.22 118.470  23
   3  -3  -5 2064.91 125.888   8
   3  -3  -5 2483.51 127.683  14
   3   3  -5 1969.45 127.629  14
  -3   3   5 2457.46 111.991   5
  -3   3   5 2408.14 112.305  22
  -3   3   5 2391.03 125.430   4
   2  -3  -5 250.849 20.9623  21
  -2  -3   5 220.307 14.6496  23
  -2  -3   5 239.376 18.0106   3
  -2  -3   5 234.656 12.8319   5
  -2  -3   5 243.657 13.7067   6
  -2   3   5 241.971 18.8107   1
   2   3  -5 220.237 19.5324   2
  -2   3   5 216.847 12.5533   7
   2   3  -5 199.751 21.0097  19
  -2   3   5 232.927 14.8928   4
  -2   3   5 229.306 12.4645  22
   1  -3  -5 117.145 14.0490  21
   1  -3  -5 116.537 9.03894  14
  -1  -3   5 115.415 7.95970   6
  -1  -3   5 113.652 9.27178  23
  -1  -3   5 103.173 11.1460  20
   1  -3  -5 95.7380 11.6602  20
  -1  -3   5 116.859 6.45951  24
  -1   3   5 123.162 6.56436  24
   1   3  -5 113.576 11.9854   3
  -1   3   5 106.851 13.1366   1
  -1   3   5 120.508 7.17809   7
  -1   3   5 111.387 9.44540   4
   1   3  -5 118.404 14.9832  19
   0  -3   5 927.395 55.9428  23
   0  -3  -5 1148.89 59.0529   8
   0  -3  -5 1016.92 60.7196  14
   0  -3   5 1090.12 47.6067  24
   0  -3  -5 1133.45 70.8647  20
   0  -3   5 1129.38 71.2671  20
   0  -3   5 1088.79 49.7945   7
   0  -3   5 1072.39 56.2404   6
   0   3   5 1118.90 49.9858   7
   0   3   5 1084.31 47.6251  24
   0   3   5 903.938 59.8680   4
   0   3  -5 1161.65 59.8802  14
   0   3  -5 1145.41 59.3271   8
   1  -3   5 1027.98 46.7663  24
  -1  -3  -5 1103.38 60.0338  14
   1  -3   5 1069.53 49.0354   7
  -1  -3  -5 1062.76 58.2947   8
   1  -3   5 1111.97 55.5134   6
  -1   3  -5 1035.51 59.1113  14
   1   3   5 1036.91 48.9998   7
   1   3   5 1042.29 46.8545  24
  -1   3  -5 1029.52 58.3343   8
   2  -3   5 2111.21 91.5798  24
  -2  -3  -5 2140.18 114.731   8
  -2  -3  -5 2067.56 107.786   6
   2  -3   5 2150.00 95.7648   7
   2  -3   5 2198.00 108.452   6
  -2  -3  -5 1932.84 116.686  14
   2   3   5 2149.21 91.7611  24
  -2   3  -5 2054.98 116.350  14
   2   3   5 2139.92 95.7348   7
  -2   3  -5 2076.97 114.643   8
  -3  -3  -5 589.364 31.6339   6
   3  -3   5 609.843 28.1297   7
   3  -3   5 590.159 26.8197  24
   3   3   5 569.418 26.9617  24
   3   3   5 593.243 28.0494   7
  -6  -4   5 105.102 7.53221  23
  -6  -4   5 107.208 6.88525   5
  -6  -4   5 104.840 7.14727  22
  -6   4   5 101.522 7.00709   5
  -6   4   5 101.980 6.94753  22
  -5  -4   5 380.473 20.0824   5
  -5  -4   5 380.302 20.1769  22
  -5  -4   5 366.630 21.3653  23
  -5   4   5 359.393 23.0935   4
  -5   4   5 383.296 20.1588  22
  -5   4   5 411.584 20.4093   5
   4  -4  -5 1095.43 66.0952   8
   4  -4  -5 1242.38 67.2117  14
  -4  -4   5 1018.94 62.6240   6
  -4  -4   5 1264.31 58.8785   5
  -4  -4   5 1229.68 58.9133  22
  -4  -4   5 1210.81 62.2291  23
  -4   4   5 1275.20 58.9971   5
   4   4  -5 1247.90 65.8921   8
  -4   4   5 1219.19 58.9498  22
  -4   4   5 1140.59 66.0619   4
   3  -4  -5 423.213 22.7537  14
  -3  -4   5 399.380 20.2423   5
  -3  -4   5 344.510 21.7053   6
   3  -4  -5 354.311 22.3857   8
  -3  -4   5 408.101 20.1100  22
  -3  -4   5 388.515 21.9825  23
   3   4  -5 385.205 21.9574   8
   3   4  -5 340.341 22.4756  14
  -3   4   5 371.575 23.3397   4
  -3   4   5 382.900 20.1724   5
  -3   4   5 388.484 20.0570  22
   2  -4  -5 542.964 31.4158  14
   2  -4  -5 557.717 30.9416   8
  -2  -4   5 506.646 29.8453  23
  -2  -4   5 571.529 28.0542   5
  -2  -4   5 536.670 29.7057   6
  -2   4   5 589.031 27.6663  22
  -2   4   5 526.634 31.8054   4
   2   4  -5 542.282 31.2471  14
  -2   4   5 524.676 26.6377   7
  -1  -4   5 37.5856 5.25358  23
  -1  -4   5 36.4807 5.18252   5
   1  -4  -5 44.1065 4.63675   8
  -1  -4   5 45.0060 5.13777   6
  -1  -4   5 29.3244 3.26162  24
   1  -4  -5 47.5858 6.24804  14
   1   4  -5 37.5912 4.02776  14
  -1   4   5 33.1629 3.84742  24
  -1   4   5 42.4086 4.70353   7
   1   4  -5 27.8283 10.0805  19
  -1   4   5 34.1946 5.96032   4
   1   4  -5 37.2762 5.05656   8
   0  -4  -5 963.255 52.4820   8
   0  -4   5 943.718 50.1133   6
   0  -4  -5 990.362 54.2778  14
   0  -4   5 953.090 42.2808  24
   0  -4   5 921.155 49.8107  23
   0  -4   5 984.064 44.3325   7
   0   4  -5 884.529 52.7078   8
   0   4   5 966.291 44.4675   7
   0   4   5 926.443 42.2522  24
   0   4  -5 973.228 53.1048  14
   1  -4   5 1010.52 52.3623   6
  -1  -4  -5 999.586 54.9222   8
   1  -4   5 1047.63 44.1723  24
  -1  -4  -5 908.601 56.5100  14
   1  -4   5 1068.65 46.3474   7
  -1   4  -5 993.554 55.6259  14
   1   4   5 1014.66 46.2603   7
   1   4   5 905.691 56.0212   4
  -1   4  -5 947.640 55.1044   8
   1   4   5 997.321 44.1479  24
  -2  -4  -5 437.536 25.2985   8
   2  -4   5 420.016 19.9763  24
   2  -4   5 415.175 21.0430   7
   2  -4   5 433.471 24.0876   6
  -2   4  -5 396.974 25.0302   8
   2   4   5 429.397 20.1976  24
   2   4   5 405.698 20.9490   7
   2   4   5 470.740 26.9600   4
   3  -4   5 270.181 14.1290   7
  -3  -4  -5 280.885 15.8703   6
   3  -4   5 274.403 13.4125  24
   3   4   5 278.914 17.5856   4
   3   4   5 254.680 13.5528  24
  -5  -5   5 125.088 8.10095   5
  -5  -5   5 109.048 8.77673  23
  -5  -5   5 116.217 9.13987   6
  -5  -5   5 114.523 8.13084  22
  -5   5   5 102.046 9.58712   4
  -5   5   5 111.269 8.38283   5
  -5   5   5 120.270 8.08537  22
  -4  -5   5 2.76227 4.02155  23
  -4  -5   5 13.2503 4.94284   6
   4  -5  -5 3.57785 5.41029   8
  -4  -5   5 5.32591 3.15399   5
   4  -5  -5 3.41138 5.82264  14
  -4  -5   5 5.60699 3.25275  22
  -4   5   5 5.25141 3.14189  22
  -4   5   5 7.06816 3.82366   5
   4   5  -5 1.64401 4.34109   8
   4   5  -5 -0.3538 4.45867  14
  -4   5   5 0.59252 4.25602   4
  -3  -5   5 262.617 14.8041   5
   3  -5  -5 257.391 16.2044   8
  -3  -5   5 250.866 14.5124  22
   3  -5  -5 268.498 16.8499  14
  -3  -5   5 240.165 15.7110   6
  -3  -5   5 232.818 15.9288  23
  -3   5   5 229.269 16.9962   4
  -3   5   5 279.389 14.7168  22
   3   5  -5 269.971 16.2130   8
   3   5  -5 265.991 16.1644  14
   2  -5  -5 461.046 28.0202  14
  -2  -5   5 447.752 24.5771   5
  -2  -5   5 460.162 25.8585  23
  -2  -5   5 454.223 25.8088   6
   2  -5  -5 472.025 26.6783   8
   2   5  -5 419.379 26.7918   8
  -2   5   5 536.704 24.2976  22
   2   5  -5 488.438 27.0022  14
  -2   5   5 428.329 27.6519   4
  -2   5   5 447.727 23.1846   7
   1  -5  -5 2156.19 121.481   8
  -1  -5   5 2086.44 114.683   6
  -1  -5   5 2341.24 113.768  23
  -1  -5   5 2106.21 107.918   5
  -1  -5   5 2320.71 97.1959  24
  -1   5   5 2227.41 97.2772  24
  -1   5   5 2360.65 102.103   7
   1   5  -5 2303.33 121.166   8
  -1   5   5 2185.43 121.248   4
   1   5  -5 2200.25 122.967  14
   0  -5   5 68.0828 6.78168   7
   0  -5  -5 84.1799 8.09321  14
   0  -5   5 70.9312 7.25288  23
   0  -5   5 77.2911 5.76303  24
   0  -5   5 73.1563 7.07536   6
   0  -5  -5 73.2362 7.09570   8
   0   5   5 78.1469 6.34004   7
   0   5  -5 75.0762 7.41578   8
   0   5   5 91.2712 9.27090   4
   0   5  -5 75.0432 6.55783  14
   0   5   5 78.2171 5.67073  24
   1  -5   5 365.481 18.1133   7
  -1  -5  -5 362.279 21.1728   8
   1  -5   5 355.334 16.9106  24
  -1  -5  -5 335.936 22.1417  14
   1  -5   5 338.517 20.1965   6
  -1   5  -5 305.223 21.0338   8
  -1   5  -5 349.694 20.9756  14
   1   5   5 341.772 16.8843  24
  -1   5  -5 313.923 20.1462  23
   1   5   5 391.332 22.3873   4
   1   5   5 358.984 17.8453   7
   2  -5   5 163.252 9.35508  24
   2  -5   5 177.666 10.2522   7
   2  -5   5 149.593 11.1064   6
   2   5   5 152.013 9.85870   7
   2   5   5 186.065 13.0063   4
   2   5   5 170.694 9.58015  24
   3  -5   5 157.379 9.51916   7
   3   5   5 168.767 11.4294   4
  -5  -6   5 45.2947 5.15614  22
  -5  -6   5 45.6927 5.40032  23
  -5  -6   5 48.6886 5.22687   5
  -5  -6   5 50.8299 5.49365   6
  -5   6   5 62.8626 6.63594   4
  -5   6   5 50.9044 5.60053  22
  -5   6   5 44.1853 5.05938   5
  -4  -6   5 2080.38 99.0369   6
  -4  -6   5 1763.02 93.4930  22
  -4  -6   5 1839.94 98.3811  23
  -4  -6   5 1889.01 93.4337   5
  -4   6   5 1942.52 93.7779  22
  -4   6   5 1980.02 104.327   4
  -3  -6   5 477.811 25.8970   6
   3  -6  -5 469.967 27.0812   8
  -3  -6   5 445.002 24.8225   5
   3  -6  -5 444.059 28.7562  14
  -3  -6   5 421.964 25.8268  23
  -3  -6   5 422.014 24.4944  22
   3   6  -5 500.447 27.3904  14
   3   6  -5 437.015 27.7386   8
  -3   6   5 505.633 24.9374  22
  -3   6   5 512.929 28.1981   4
   2  -6  -5 425.388 26.2579  14
   2  -6  -5 401.705 24.4413   8
  -2  -6   5 433.213 23.7583   6
  -2  -6   5 418.998 23.4837  23
  -2  -6   5 395.388 22.7123   5
   2   6  -5 395.538 24.6855  14
  -2   6   5 427.851 22.6743  22
  -2   6   5 422.492 21.2969   7
   2   6  -5 446.304 24.9331   8
  -2   6   5 437.857 25.6163   4
  -1  -6   5 86.3550 6.30841  24
   1  -6  -5 74.7914 7.71238  14
  -1  -6   5 79.5973 7.27448   6
   1  -6  -5 81.5688 7.83578   8
  -1  -6   5 77.2297 6.71605   5
  -1  -6   5 77.2238 6.83832  23
   1   6  -5 76.0059 6.95760   8
   1   6  -5 74.8924 8.13451  14
  -1   6   5 66.4037 7.08326   7
  -1   6   5 82.4465 8.47898   4
   0  -6  -5 199.207 15.0448   8
   0  -6   5 230.680 12.1011  24
   0  -6   5 228.220 14.2398   6
   0  -6   5 217.291 13.7111  23
   0  -6  -5 229.066 15.1672  14
   0  -6   5 188.334 13.1309   7
   0   6  -5 243.438 14.6908   8
   0   6   5 252.040 15.7260   4
   0   6   5 224.917 12.0757  24
   0   6  -5 244.763 15.0851  14
   0   6   5 220.603 12.9260   7
  -1  -6  -5 1449.91 82.7041   8
   1  -6   5 1511.09 77.7885   6
   1  -6   5 1540.32 65.9987  24
  -1  -6  -5 1526.78 84.1669  14
   1  -6   5 1527.41 69.2557   7
  -1   6  -5 1522.23 77.0338  23
   1   6   5 1553.29 81.9670   4
  -1   6  -5 1332.47 82.3627   8
   1   6   5 1452.58 68.9836   7
   1   6   5 1444.07 66.0003  24
  -1   6  -5 1553.80 83.6722  14
   2  -6   5 750.363 33.2915  24
   2  -6   5 764.799 39.2387   6
   2  -6   5 683.046 34.8651   7
   2   6   5 698.363 34.8437   7
   2   6   5 804.234 41.5623   4
  -2   6  -5 693.125 38.6534  23
   3  -6   5 386.852 18.6209   7
  -3  -6  -5 310.511 17.3808  24
   3   6   5 434.549 22.0158   4
  -5  -7   5 318.563 17.8269  23
  -5  -7   5 339.472 17.6999   6
  -5  -7   5 315.489 17.1572   5
  -5   7   5 344.709 18.9125   4
  -5   7   5 323.822 17.1596   5
   5   7  -5 324.008 17.8395  22
  -5   7   5 284.133 17.0759  22
  -4  -7   5 348.455 17.4695   6
  -4  -7   5 321.390 17.7439  23
  -4  -7   5 294.222 17.0836   5
  -4   7   5 251.290 16.8389  22
  -4   7   5 278.278 16.8617   5
  -4   7   5 325.470 18.7122   4
  -3  -7   5 755.691 40.8149   5
   3  -7  -5 855.003 45.5298   8
  -3  -7   5 879.102 42.8920   6
  -3  -7   5 816.974 42.7337  23
   3   7  -5 836.162 46.0876   8
   3   7  -5 658.847 41.1565  22
  -3   7   5 834.030 45.4837   4
  -2  -7   5 342.424 19.0141   6
  -2  -7   5 334.331 18.8309  23
   2  -7  -5 341.945 19.8800   8
  -2  -7   5 338.681 18.2405   5
  -2   7   5 342.957 20.5340   4
  -2   7   5 273.837 18.5639  22
   2   7  -5 329.292 20.0273  14
   2   7  -5 328.567 19.8015   8
  -1  -7   5 454.899 24.3073   6
  -1  -7   5 427.865 23.7284  23
   1  -7  -5 420.823 26.0599  14
  -1  -7   5 397.973 20.9112  24
   1  -7  -5 426.430 25.6700   8
   1  -7  -5 430.260 20.9682  24
   1   7  -5 437.548 25.2015   8
   1   7  -5 412.550 25.9287  14
  -1   7   5 470.457 26.0658   4
  -1   7   5 454.730 22.2153   7
   0  -7  -5 242.525 13.1782  24
   0  -7  -5 244.690 16.0411   8
   0  -7   5 255.411 14.1824  23
   0  -7  -5 239.215 15.5510  14
   0  -7   5 202.417 13.8249   7
   0  -7   5 257.525 14.6290   6
   0  -7   5 237.910 12.7283  24
   0   7   5 248.897 15.5409   4
   0   7   5 208.852 13.3619   7
   0   7  -5 229.012 16.2999  14
   0   7  -5 218.569 14.8770   8
   1  -7   5 405.596 20.7125   6
  -1  -7  -5 352.873 18.0498  24
   1  -7   5 346.391 17.7383  24
   1  -7   5 338.929 18.9287   7
   1   7   5 330.549 18.5833   7
   1   7   5 374.957 21.8557   4
  -1   7  -5 365.847 20.3460  23
   2  -7   5 444.088 23.0193   6
  -2  -7  -5 430.783 20.0607  24
   2  -7   5 384.659 20.7752   7
   2  -7   5 379.778 19.6583  24
  -2   7  -5 435.999 22.8964  23
   2   7   5 393.765 20.6635   7
   2   7   5 457.827 24.5407   4
  -4  -8   5 11.6770 3.14461  23
  -4  -8   5 9.03648 2.72233   6
  -4   8   5 1.26803 2.95622   5
  -4   8   5 10.0794 3.23999   4
  -4   8   5 7.67518 3.41193  22
   4   8  -5 21.6567 4.45153  22
  -3  -8   5 243.277 14.1810  23
  -3  -8   5 263.088 14.1573   6
  -3  -8   5 248.312 13.7752   5
   3  -8  -5 226.669 12.2860   7
  -3   8   5 238.224 15.1184   4
  -3   8   5 215.464 14.2804  22
   3   8  -5 239.977 14.4156  22
  -2  -8   5 1066.91 53.9243  23
  -2  -8   5 1056.35 54.2879   6
   2  -8  -5 1016.27 48.0952   7
  -2  -8   5 1128.71 51.5823   5
  -2   8   5 1058.18 57.4130   4
  -2   8   5 906.067 51.9110  22
  -1  -8   5 203.923 12.2503  23
  -1  -8   5 213.409 12.4996   6
  -1  -8   5 183.596 11.2849  24
   1  -8  -5 212.780 11.0580  24
  -1   8   5 212.442 13.6684   4
   1   8  -5 190.579 12.0531   5
  -1   8   5 206.304 11.8266   7
   0  -8   5 932.630 48.2834   6
   0  -8   5 853.027 41.5036  24
   0  -8  -5 949.524 41.3712  24
   0   8   5 940.398 51.0646   4
   0   8   5 922.253 43.3861   7
   1  -8   5 12.6380 3.48795  24
  -1  -8  -5 17.5338 3.43236  24
   1  -8   5 16.6009 3.44888   6
   1  -8   5 16.4824 3.99170   7
  -1   8  -5 12.9017 3.30843  23
   1   8   5 12.7990 3.42162   4
   1   8   5 14.9184 3.45980   7
   2  -8   5 2.54296 2.87224   7
   2  -8   5 1.01366 2.61339  24
  -2  -8  -5 2.51660 2.31038  24
   2   8   5 0.50580 2.46962   4
  -2   8  -5 1.89354 2.67805  23
  -4  -9   5 154.439 9.26178   6
   4   9  -5 165.764 9.63050  22
  -4   9   5 161.653 9.34179  22
   3  -9  -5 632.820 30.9655   7
  -3  -9   5 674.744 35.1662   6
  -3  -9   5 688.446 34.9943  23
  -3   9   5 665.160 33.8515  22
  -3   9   5 653.940 37.0459   4
   3   9  -5 700.006 33.7501  22
  -2  -9   5 127.542 8.54047  23
   2  -9  -5 133.831 7.79387   7
  -2  -9   5 130.386 8.36806   6
  -2   9   5 125.652 9.01856  22
   2   9  -5 135.935 8.77446   5
  -2   9   5 126.324 9.22403   4
  -1  -9   5 403.201 19.4670  24
   1  -9  -5 412.415 20.0398   7
  -1  -9   5 407.564 22.2228   6
   1   9  -5 418.817 21.1977   5
  -1   9   5 399.024 23.5923   4
   0  -9  -5 289.279 13.5102  24
   0  -9   5 272.870 13.7570  24
   0  -9   5 278.167 15.4688   6
   0   9  -5 267.596 15.5114  23
   0   9   5 265.955 16.5619   4
   1  -9   5 154.942 8.92855   7
   1  -9   5 175.675 9.03375  24
  -1  -9  -5 169.928 8.71496  24
   1   9   5 164.444 10.6383   4
  -1   9  -5 159.635 9.84578  23
  -3 -10   5 148.539 8.99848   6
   3  10  -5 163.850 8.99714   5
  -3  10   5 154.127 8.91898  22
  -2 -10   5 276.785 14.5692  23
  -2 -10   5 249.653 14.4379   6
   2 -10  -5 262.014 13.0207   7
   2  10  -5 279.009 14.1362   5
  -2  10   5 250.136 15.3507   4
  -2  10   5 260.105 14.0294  22
  -1 -10   5 49.0091 4.37280   6
   1 -10  -5 55.3145 4.53767   7
  -1 -10   5 52.2799 4.23389  24
   1  10  -5 56.3962 4.74401   5
  -1  10   5 55.4854 5.23853   4
   0 -10  -5 138.715 7.15879  24
   0 -10   5 137.896 7.38883  24
   0 -10  -5 131.409 7.44662   7
   0  10  -5 131.616 8.25039  23
   0  10   5 129.431 8.79193   4
  -6   0   6 737.097 38.1406  22
  -6   0   6 768.746 38.0848   5
  -6   0   6 818.086 41.1097  23
  -5   0   6 290.426 15.5166   5
  -5   0   6 284.729 15.4424  22
  -5   0   6 311.406 17.8945  23
  -5   0   6 276.970 17.1588   4
   4   0  -6 0.35319 2.72357  14
  -4   0   6 1.93037 2.33271  22
  -4   0   6 1.67402 3.02787   4
  -4   0   6 2.08438 2.58443   5
  -4   0   6 1.20651 5.09022  23
  -3   0   6 1006.85 50.9997  22
  -3   0   6 1073.00 51.1411   5
  -1   0   6 1234.63 57.1223   7
  -1   0   6 1250.28 54.5627  24
   0   0   6 1367.98 71.8104   6
   0   0   6 1365.11 63.9451   7
   0   0   6 1400.94 61.1905  24
   0   0  -6 1437.95 76.9924  14
   1   0   6 35.6440 4.43342   6
  -1   0  -6 28.7884 4.19196  14
   1   0   6 34.7777 3.59619  24
   1   0   6 35.2689 3.88294   7
  -1   0  -6 27.3653 3.98663   8
  -2   0  -6 171.274 10.5811   6
   2   0   6 171.568 8.97705  24
   2   0   6 166.219 9.44678   7
   3   0   6 131.332 7.47089   7
  -3   0  -6 138.837 8.56635   6
  -6  -1   6 254.033 14.1040   5
  -6  -1   6 293.510 15.9206  23
  -6  -1   6 264.181 14.2255  22
  -6   1   6 267.893 14.2624   5
  -5  -1   6 964.553 48.1641  23
  -5  -1   6 907.656 44.8876  22
  -5  -1   6 931.016 44.8325   5
  -5   1   6 899.134 44.8740  22
  -5   1   6 921.127 49.9860   4
  -5   1   6 796.883 48.1186  23
  -5   1   6 935.291 44.8949   5
  -4  -1   6 253.870 14.1650   5
   4  -1  -6 262.052 15.4514  14
  -4  -1   6 258.179 14.1005  22
  -4  -1   6 264.064 16.4680  23
  -4   1   6 255.282 14.0168  22
  -4   1   6 261.642 15.9223   4
   4   1  -6 249.900 15.2355  14
  -4   1   6 264.894 14.2543   5
  -3  -1   6 1070.98 51.4597   5
  -3  -1   6 972.529 55.5163  23
  -3  -1   6 1048.12 51.3627  22
  -3   1   6 1052.70 51.3495  22
  -3   1   6 1078.85 57.2965   4
  -1  -1   6 472.850 22.7410   7
  -1  -1   6 437.111 25.1579   6
  -1  -1   6 482.044 21.5499  24
  -1   1   6 480.169 21.5466  24
  -1   1   6 475.426 22.7848   7
   0  -1   6 958.439 49.5597   6
   0  -1   6 957.937 42.1826  24
   0  -1  -6 1000.59 52.0037   8
   0  -1  -6 947.157 52.9596  14
   0  -1   6 948.805 44.1833   7
   0   1   6 912.587 44.0975   7
   0   1   6 943.075 42.1863  24
   0   1  -6 922.737 52.7604  14
  -1  -1  -6 66.9166 5.94873  14
   1  -1   6 66.2327 5.38059   7
   1  -1   6 61.9684 4.80234  24
  -1  -1  -6 69.4111 5.63147   8
   1  -1   6 62.3572 5.65734   6
  -1   1  -6 55.6777 5.57806  14
   1   1   6 63.9209 4.80232  24
   1   1   6 59.8339 5.17533   7
  -1   1  -6 61.1854 5.45680   8
   2  -1   6 1333.44 61.3388   7
  -2  -1  -6 1333.27 69.0022   6
   2  -1   6 1345.02 58.6700  24
   2   1   6 1321.23 61.2793   7
   2   1   6 1345.83 58.7163  24
   3  -1   6 146.334 8.19093   7
  -3  -1  -6 155.860 9.31587   6
  -3   1  -6 154.566 9.43491   6
  -6  -2   6 176.233 10.1724   5
  -6  -2   6 175.079 10.2506  22
  -6   2   6 195.740 10.5379   5
  -5  -2   6 611.334 32.6041  23
  -5  -2   6 590.552 30.2278   5
  -5  -2   6 603.000 30.3172  22
  -5   2   6 586.411 30.2860  22
  -5   2   6 628.703 30.4570   5
  -5   2   6 588.260 33.9295   4
  -4  -2   6 1088.99 52.8619   5
  -4  -2   6 1085.10 52.9149  22
   4  -2  -6 1078.74 58.9113   8
  -4  -2   6 1072.58 56.5758  23
  -4   2   6 1058.97 52.8541  22
  -4   2   6 1038.10 59.0241   4
   4   2  -6 1078.88 58.7680   8
  -4   2   6 1091.72 52.9202   5
  -3  -2   6 184.900 11.2902   5
  -3  -2   6 168.842 13.6903  23
  -3  -2   6 179.273 10.9853  22
  -3   2   6 214.960 13.0141   4
  -3   2   6 214.609 11.1416  22
  -2  -2   6 328.388 16.9577   6
  -2  -2   6 253.918 18.3935  23
  -2   2   6 301.343 18.1318   4
  -1  -2   6 135.782 7.19075  24
  -1  -2   6 130.536 8.46503   6
  -1   2   6 124.814 7.24484  24
  -1   2   6 121.324 7.93266   7
  -1   2   6 120.732 9.59721   4
   0  -2   6 667.891 30.6373  24
   0  -2  -6 704.098 37.7267   8
   0  -2   6 674.496 32.2443   7
   0  -2  -6 713.087 38.7480  14
   0  -2   6 669.305 36.0903   6
   0   2   6 667.836 32.2262   7
   0   2  -6 665.271 38.1696  14
   0   2   6 670.241 30.6934  24
   1  -2   6 1116.74 57.0866   6
  -1  -2  -6 1126.90 60.2905   8
   1  -2   6 1116.61 50.7121   7
   1  -2   6 1061.17 48.3280  24
  -1   2  -6 1016.13 59.9569   8
   1   2   6 1124.84 48.4996  24
   1   2   6 1085.69 50.6502   7
   2  -2   6 123.392 8.70458   6
  -2  -2  -6 129.330 8.55349   6
   2  -2   6 116.778 7.65563   7
   2  -2   6 125.262 7.22746  24
   2   2   6 131.654 7.66955   7
   2   2   6 133.226 7.29828  24
  -3   2  -6 276.989 15.6643   6
  -5  -3   6 252.799 13.8871  22
  -5  -3   6 240.182 15.2600  23
  -5  -3   6 244.233 13.8157   5
  -5   3   6 256.720 13.8926  22
  -5   3   6 253.856 15.9642   4
  -5   3   6 269.868 14.2557   5
  -4  -3   6 51.9041 5.33465  22
  -4  -3   6 54.7510 5.42940   5
  -4  -3   6 58.1193 6.80756  23
  -4   3   6 63.8361 6.82802   4
  -4   3   6 65.6053 6.17576   5
  -4   3   6 60.8654 5.43091  22
  -3  -3   6 168.925 10.5708   5
  -3  -3   6 164.408 12.6312  23
  -3  -3   6 163.507 10.1571  22
  -3  -3   6 179.087 11.2241   6
  -3   3   6 174.745 12.1358   4
  -3   3   6 176.219 10.1407  22
  -2  -3   6 2258.63 117.652   6
  -2  -3   6 2223.69 117.454  23
  -2   3   6 2217.73 104.745   7
  -2   3   6 2476.13 124.311   4
  -1  -3   6 1290.71 66.4838   6
   1  -3  -6 1198.91 71.4177  14
  -1  -3   6 1323.05 56.3340  24
  -1   3   6 1294.02 56.3514  24
  -1   3   6 1308.72 59.2477   7
  -1   3   6 1258.37 70.5555   4
   0  -3  -6 794.840 48.1315  14
   0  -3   6 844.836 37.9440  24
   0  -3  -6 834.813 46.8965   8
   0  -3   6 836.211 39.8753   7
   0  -3   6 830.772 44.7622   6
   0   3   6 873.253 38.0359  24
   0   3  -6 880.745 46.9701   8
   0   3   6 865.103 39.9714   7
   0   3   6 798.498 48.0050   4
   0   3  -6 908.625 47.5981  14
  -1  -3  -6 65.7197 7.09843   8
   1  -3   6 63.5956 6.07056   7
   1  -3   6 70.7510 6.37624   6
   1  -3   6 53.8477 4.87053  24
   1   3   6 79.6557 5.23258  24
   1   3   6 67.1141 5.60035   7
   2  -3   6 47.2547 4.54865  24
   2  -3   6 49.1940 4.84733   7
   2  -3   6 49.1746 5.70361   6
   2   3   6 53.7483 4.51644  24
   2   3   6 52.0775 4.76478   7
  -5  -4   6 284.623 15.0941   5
  -5  -4   6 271.681 16.3761  23
  -5  -4   6 268.533 15.0672  22
  -5   4   6 304.579 15.3291  22
  -5   4   6 256.562 17.2332   4
  -5   4   6 272.714 15.4529   5
  -4  -4   6 556.499 34.5968   6
  -4  -4   6 649.717 32.5792   5
  -4  -4   6 627.222 34.8684  23
  -4  -4   6 651.175 32.4948  22
  -4   4   6 618.858 36.6968   4
  -4   4   6 643.791 32.7489   5
  -4   4   6 739.137 32.7767  22
  -3  -4   6 382.691 19.2964   5
   3  -4  -6 356.417 21.4978  14
  -3  -4   6 375.632 20.3035   6
  -3  -4   6 358.953 20.6409  23
   3  -4  -6 313.004 20.5899   8
  -3  -4   6 376.749 18.9796  22
  -3   4   6 334.903 21.7012   4
   3   4  -6 309.241 20.5609   8
  -3   4   6 350.576 18.7054  22
  -2  -4   6 365.843 19.9490   6
  -2  -4   6 296.335 19.0586   5
   2  -4  -6 343.700 20.2677   8
  -2  -4   6 358.029 20.1072  23
   2  -4  -6 373.576 21.7183  14
  -2   4   6 332.118 18.0665   7
  -2   4   6 329.518 21.5723   4
   1  -4  -6 671.123 37.2140  14
  -1  -4   6 687.068 29.2872  24
   1  -4  -6 646.302 36.2858   8
  -1  -4   6 700.151 34.8255   6
  -1  -4   6 643.186 34.5533  23
  -1   4   6 653.708 29.3265  24
   1   4  -6 579.084 35.9932   8
   1   4  -6 641.095 36.3321  14
  -1   4   6 542.541 37.1494   4
  -1   4   6 643.653 31.0973   7
   0  -4   6 568.121 26.4526   7
   0  -4  -6 445.151 31.2977  14
   0  -4  -6 536.767 30.7043   8
   0  -4   6 561.529 24.8206  24
   0  -4   6 570.767 29.4925   6
   0   4   6 545.117 26.2265   7
   0   4  -6 529.415 30.7149  14
   0   4  -6 526.218 30.4425   8
   0   4   6 534.663 24.7740  24
   1  -4   6 523.766 24.7854  24
   1  -4   6 514.325 29.4220   6
   1  -4   6 552.975 26.4170   7
   1   4   6 560.329 26.2761   7
   1   4   6 539.176 24.9466  24
   2  -4   6 71.6951 5.95700   7
   2  -4   6 75.2179 5.26341  24
   2  -4   6 69.7456 6.64700   6
   2   4   6 66.5799 5.26321  24
   2   4   6 64.1432 5.68101   7
  -5  -5   6 543.099 27.3511   5
  -5  -5   6 540.615 28.7430  23
  -5  -5   6 543.988 27.4115  22
  -5   5   6 502.111 30.5223   4
  -5   5   6 546.452 27.4344  22
  -4  -5   6 68.5681 7.40651   6
  -4  -5   6 76.5988 6.74840   5
  -4  -5   6 75.8971 7.20295  23
  -4  -5   6 77.5867 6.65855  22
  -4   5   6 80.2990 6.66742  22
  -4   5   6 59.9783 7.57369   4
  -3  -5   6 1151.42 61.2550   6
   3  -5  -6 1270.67 64.9498   8
  -3  -5   6 1112.61 57.8157   5
  -3  -5   6 1175.87 60.8172  23
  -3   5   6 1295.66 57.9643  22
  -3   5   6 986.078 64.4550   4
  -2  -5   6 104.368 8.71628   6
   2  -5  -6 112.441 8.26803   8
  -2  -5   6 113.188 8.58776  23
  -2  -5   6 111.045 8.66357   5
  -2   5   6 104.564 8.07419   7
  -2   5   6 91.4663 9.95100   4
   2   5  -6 103.762 8.08145  14
   2   5  -6 109.342 8.09709   8
   1  -5  -6 65.9340 7.31455   8
  -1  -5   6 82.2234 6.05241  24
  -1  -5   6 66.2687 6.76288   6
  -1  -5   6 78.7413 7.34391  23
   1  -5  -6 79.6037 7.98424  14
   1   5  -6 68.6675 7.03380   8
  -1   5   6 71.4144 6.02661  24
  -1   5   6 62.2583 6.59131   7
   1   5  -6 68.1613 7.30161  14
  -1   5   6 63.5600 8.30252   4
   0  -5   6 779.406 38.7001   7
   0  -5   6 768.557 43.2272   6
   0  -5   6 849.672 36.7213  24
   0   5   6 803.757 46.5592   4
   0   5   6 856.893 38.8170   7
   0   5   6 799.280 36.7147  24
   1  -5   6 96.1414 8.13421   6
   1  -5   6 112.518 8.17176   7
   1  -5   6 100.872 6.68455  24
   1   5   6 100.585 6.79525  24
   1   5   6 107.648 9.95622   4
   1   5   6 107.411 7.49642   7
   2  -5   6 861.774 38.9761   7
   2  -5   6 807.656 37.0047  24
   2  -5   6 868.404 43.8951   6
   2   5   6 813.685 38.8504   7
   2   5   6 796.876 37.1746  24
  -5  -6   6 212.283 12.3705  23
  -5  -6   6 195.230 11.6577   5
  -5   6   6 175.199 11.6916  22
  -5   6   6 241.182 13.2862   4
  -4  -6   6 108.479 8.29013  23
  -4  -6   6 120.492 8.66843   6
  -4  -6   6 103.064 8.37619   5
  -4   6   6 130.225 9.34948   4
  -4   6   6 113.715 8.43699  22
  -3  -6   6 573.289 30.4573  23
  -3  -6   6 547.867 29.2504   5
  -3  -6   6 557.932 30.7819   6
  -3   6   6 537.406 29.3101  22
  -3   6   6 609.645 33.0676   4
  -2  -6   6 413.611 22.3666  23
  -2  -6   6 403.784 21.3997   5
  -2  -6   6 403.679 22.9238   6
  -2   6   6 407.527 24.8395   4
  -2   6   6 390.300 20.3528   7
  -1  -6   6 1310.50 57.4097  24
  -1  -6   6 1313.76 66.4524  23
  -1   6   6 1354.73 71.6070   4
  -1   6   6 1178.36 59.9736   7
   0  -6   6 559.225 31.1422   6
   0  -6   6 477.860 27.8585   7
   0  -6   6 593.100 26.6756  24
   0   6   6 589.224 28.1956   7
   0   6   6 636.076 33.6366   4
   1  -6   6 205.682 12.5595   7
   1  -6   6 211.525 13.3574   6
   1  -6   6 199.637 11.3606  24
   1   6   6 229.076 12.4575   7
   1   6   6 249.927 14.8196   4
   2  -6   6 91.0418 6.57444   7
  -2  -6  -6 92.4530 6.56018  24
  -4  -7   6 15.2047 3.07283  23
  -4  -7   6 17.7926 3.18024   5
  -4  -7   6 21.3585 3.22765   6
  -4   7   6 23.0051 3.71535   4
  -4   7   6 16.0099 3.68086  22
   4   7  -6 18.0855 4.17769  22
  -3  -7   6 252.607 14.2808   5
  -3  -7   6 273.061 15.1085   6
  -3  -7   6 245.083 14.6730  23
  -3   7   6 256.330 16.2184   4
  -2  -7   6 610.005 33.5086   6
  -2  -7   6 620.336 33.0160  23
  -2   7   6 643.585 35.7857   4
  -1  -7   6 495.918 25.2698  23
  -1  -7   6 485.466 25.7749   6
  -1  -7   6 405.082 22.1420  24
  -1   7   6 461.573 23.2187   7
  -1   7   6 490.618 27.5545   4
   0  -7   6 210.249 12.4242  24
   0  -7  -6 250.300 12.8806  24
   0  -7   6 264.560 14.4509   6
   0   7   6 216.968 13.0480   7
   0   7   6 259.280 15.5608   4
   0   7  -6 234.730 14.0799  23
   1  -7   6 54.4724 5.10998   6
  -1  -7  -6 51.0923 5.44115  24
   1  -7   6 49.6349 5.29911   7
   1   7   6 46.3161 5.17138   7
   1   7   6 52.8808 5.70176   4
  -3  -8   6 3.40063 2.53506   6
  -3  -8   6 4.69988 2.54903  23
  -3   8   6 6.07757 2.93478   4
  -3   8   6 2.94890 3.01357  22
   2  -8  -6 218.317 11.4493   7
  -2  -8   6 216.406 12.5878  23
  -2  -8   6 220.341 12.8489   6
   2   8  -6 214.468 12.3276   5
  -2   8   6 228.723 14.0061   4
  -1  -8   6 106.606 7.26680   6
  -1  -8   6 90.2150 6.91604  24
  -1  -8   6 109.678 7.23880  23
  -1   8   6 103.891 7.98992   4
   0  -8   6 130.329 8.34120   6
   0  -8   6 124.876 7.68553  24
   0  -8  -6 121.454 7.33078  24
   0   8   6 136.531 9.07870   4
   0   8   6 137.698 8.00061   7
   0   8  -6 125.183 8.26552  23
   2  -9  -6 492.224 22.5874   7
  -2  -9   6 473.417 25.1919  23
  -2  -9   6 485.917 25.4556   6
  -2   9   6 471.228 26.8831   4
  -1  -9   6 338.319 18.2279   6
   1  -9  -6 346.887 16.4190   7
   1   9  -6 326.812 18.1929  23
  -1   9   6 336.515 19.4269   4
  -5   0   7 1045.07 51.3080  22
  -5   0   7 1052.09 51.4523   5
  -4   0   7 709.979 35.2927  22
  -1   0   7 6.91466 2.33735  24
  -1   0   7 12.7802 3.45475   7
   0   0   7 935.755 41.9258   7
   0   0   7 855.980 39.7428  24
   1   0   7 709.992 32.3038  24
   1   0   7 734.021 33.9560   7
  -5  -1   7 172.819 9.78204   5
  -5  -1   7 167.678 9.39018  22
  -5   1   7 155.683 9.37441  22
  -4  -1   7 463.491 23.7918  22
  -4  -1   7 486.820 24.2603   5
  -4   1   7 453.918 23.7838  22
  -1  -1   7 46.4982 4.33414  24
  -1   1   7 54.0219 5.17888   7
  -1   1   7 54.9614 4.37517  24
   0  -1   7 564.753 25.0396  24
   0  -1   7 535.029 29.1648   6
   0  -1   7 562.224 26.4551   7
   0   1   7 544.268 26.3918   7
   0   1   7 534.535 24.9650  24
   1  -1   7 269.561 13.4464  24
   1  -1   7 282.381 14.3443   7
   1   1   7 287.852 14.3596   7
   1   1   7 283.284 13.5399  24
  -5  -2   7 126.222 8.13254   5
  -5  -2   7 111.242 7.70569  22
  -5   2   7 154.384 8.10317  22
  -4  -2   7 141.541 11.5627  23
  -4  -2   7 149.036 9.45099   5
  -4  -2   7 133.280 8.80474  22
  -4   2   7 157.151 8.97022  22
  -4   2   7 160.302 10.3035   4
  -3   2   7 456.317 26.7724   4
  -1  -2   7 1023.45 50.9627   6
  -1  -2   7 951.056 43.2787  24
  -1   2   7 964.040 43.2895  24
  -1   2   7 966.880 45.6944   7
   0  -2   7 395.629 22.2244   6
   0  -2   7 429.717 20.4408   7
   0  -2   7 389.532 18.9861  24
   0   2   7 411.413 20.1907   7
   0   2   7 413.595 19.0557  24
   1  -2   7 77.2779 6.00204   6
   1  -2   7 77.0917 5.16310  24
   1  -2   7 78.1718 5.76849   7
   1   2   7 70.3429 5.33118   7
   1   2   7 65.2562 4.87404  24
  -4  -3   7 1580.49 79.5423   5
  -4  -3   7 1619.40 84.1145  23
  -4   3   7 1652.50 88.6287   4
  -4   3   7 1686.10 79.5962  22
  -3  -3   7 477.703 27.9350  23
  -3   3   7 537.770 29.4213   4
  -2  -3   7 68.4910 6.20731   6
  -2   3   7 74.7448 7.47312   4
  -1  -3   7 171.332 9.05355  24
  -1  -3   7 160.992 10.5262   6
  -1   3   7 151.260 9.86545   7
  -1   3   7 176.151 9.41578  24
   0  -3   7 455.384 24.8260   6
   0  -3   7 454.248 22.5633   7
   0  -3   7 471.532 21.1954  24
   0   3   7 450.508 21.1185  24
   0   3   7 440.780 22.3119   7
   1  -3   7 977.435 43.1466  24
   1  -3   7 1008.13 45.4045   7
   1  -3   7 990.914 50.8680   6
   1   3   7 945.363 45.1794   7
   1   3   7 947.410 43.1706  24
  -4  -4   7 264.165 15.4887   5
  -4  -4   7 313.097 16.3518  23
  -4   4   7 264.375 17.2551   4
  -3  -4   7 367.497 19.7202  23
  -3  -4   7 335.527 19.6183   6
  -3   4   7 333.323 21.1460   4
  -2  -4   7 112.635 7.97770   6
  -2   4   7 92.1152 9.17102   4
  -1  -4   7 538.419 24.1381  24
  -1  -4   7 545.481 28.4165   6
  -1   4   7 488.302 30.4922   4
  -1   4   7 507.617 25.5787   7
   0  -4   7 303.192 16.5858   6
   0  -4   7 320.494 14.2983  24
   0  -4   7 257.548 15.0640   7
   0   4   7 270.950 14.0145  24
   0   4   7 277.310 14.9850   7
   1  -4   7 477.143 21.5516  24
   1  -4   7 485.207 22.9000   7
   1  -4   7 455.454 25.3649   6
   1   4   7 454.432 21.5815  24
  -4  -5   7 104.951 6.95028  23
  -4  -5   7 101.353 6.99164   5
  -4   5   7 77.2454 7.76648   4
  -3  -5   7 205.353 12.4676   6
  -3   5   7 198.394 13.8745   4
  -2  -5   7 1239.20 57.2624  23
  -2  -5   7 1068.51 57.8111   6
  -2   5   7 928.177 61.0565   4
  -2   5   7 1185.40 51.3661   7
  -1  -5   7 6.52445 2.83536  24
  -1  -5   7 9.50925 3.51066   6
  -1   5   7 7.64975 4.64137   4
  -1   5   7 14.4405 3.64563   7
   0  -5   7 297.052 17.7394   6
   0  -5   7 330.511 15.3640  24
   0   5   7 312.940 16.2465   7
  -3  -6   7 420.027 23.2141   6
  -3  -6   7 425.059 22.6999  23
  -3   6   7 429.409 24.8790   4
  -2  -6   7 31.3451 4.06291   6
  -2  -6   7 34.0532 4.25071  23
  -2   6   7 29.6604 4.95095   4
  -1  -6   7 166.187 10.7597   6
  -1   6   7 188.367 12.3308   4
  -1   6   7 161.556 9.62376   7
   0  -6   7 436.666 24.3584   6
   0   6   7 465.096 21.9576   7
  -2  -7   7 259.629 14.1456  23
  -2  -7   7 228.943 14.0764   6
  -2   7   7 260.504 15.3447   4
  -1  -7   7 65.2486 5.59158   6
   0   0   0    0.00    0.00   0
;
_shelx_res_checksum              50058
_shelx_res_file
;
TITL smpipbr in P2(1)
CELL  1.54178   6.0262  11.5550   7.1392   90.000  107.018   90.000
ZERR    2.00   0.0003   0.0006   0.0004   0.000   0.003   0.000
LATT -1
SYMM -X, 1/2+Y, -Z
SFAC C H N O BR
UNIT 10 29 4 0.5 4
OMIT    -2   0   5
OMIT    -3  -5   7
OMIT     6   0   1
TEMP -163
SIZE .2 .1 .01
L.S. 10
ACTA
WPDB -1
CONF
BOND  $H
FMAP 2
PLAN 5
WGHT    0.032000    0.152100
FVAR       0.81899
BR1   5    0.284973    0.815489    0.616901    11.00000    0.01102    0.01795 =
         0.01173   -0.00126    0.00384   -0.00080
BR2   5    0.892297    1.001943   -0.076826    11.00000    0.01612    0.03592 =
         0.01369    0.00410    0.00608    0.00649
O1W   4    0.833141    0.731795   -0.121826    10.25000    0.02998    0.02468 =
         0.04552    0.00515    0.01072    0.01319
AFIX   3
H1W   2    0.909701    0.667474   -0.067756    10.25000   -1.50000
H2W   2    0.849461    0.809125   -0.110616    10.25000   -1.50000
AFIX   0
N1    3    0.734554    0.867394    0.457576    11.00000    0.00709    0.01708 =
         0.00943    0.00054    0.00089   -0.00002
AFIX  23
H1N1  2    0.625428    0.855200    0.522589    11.00000   -1.20000
H2N1  2    0.878661    0.855607    0.545267    11.00000   -1.20000
AFIX   0
C2    1    0.697843    0.781332    0.294350    11.00000    0.01543    0.01231 =
         0.01160   -0.00292    0.00371    0.00069
AFIX  13
H2    2    0.821250    0.792257    0.227956    11.00000   -1.20000
AFIX   0
C3    1    0.460613    0.802605    0.145571    11.00000    0.01496    0.00961 =
         0.00933   -0.00007   -0.00016   -0.00183
AFIX  23
H3A   2    0.439421    0.749179    0.033285    11.00000   -1.20000
H3B   2    0.336572    0.786798    0.207401    11.00000   -1.20000
AFIX   0
N4    3    0.441785    0.925599    0.073849    11.00000    0.01624    0.01495 =
         0.00707    0.00157    0.00141    0.00186
AFIX  23
H1N4  2    0.548760    0.938092    0.006776    11.00000   -1.20000
H2N4  2    0.296320    0.937663   -0.011483    11.00000   -1.20000
AFIX   0
C5    1    0.483013    1.009800    0.239912    11.00000    0.01659    0.01170 =
         0.01138    0.00147    0.00446    0.00359
AFIX  23
H5A   2    0.359132    1.001765    0.304505    11.00000   -1.20000
H5B   2    0.477601    1.089739    0.188871    11.00000   -1.20000
AFIX   0
C6    1    0.718046    0.987963    0.388430    11.00000    0.01509    0.01701 =
         0.01004   -0.00322    0.00227    0.00106
AFIX  23
H6A   2    0.842834    1.003601    0.327366    11.00000   -1.20000
H6B   2    0.739119    1.041127    0.501042    11.00000   -1.20000
AFIX   0
C7    1    0.712490    0.657785    0.373945    11.00000    0.02310    0.01582 =
         0.02268    0.00435    0.00619    0.00382
AFIX 137
H7A   2    0.707176    0.602820    0.268180    11.00000   -1.50000
H7B   2    0.581382    0.643417    0.425841    11.00000   -1.50000
H7C   2    0.858296    0.647957    0.478814    11.00000   -1.50000
AFIX   0
HKLF 4
REM  smpipbr in P2(1)
REM R1 =  0.0185 for    1499 Fo > 4sig(Fo)  and  0.0186 for all    1507 data
REM     92 parameters refined using      1 restraints
END
WGHT      0.0273      0.1444
REM Highest difference peak  0.367,  deepest hole -0.602,  1-sigma level  0.164
Q1    1   0.5515  0.6572  0.5429  11.00000  0.05    0.37
Q2    1   1.0265  0.8228 -0.1955  11.00000  0.05    0.36
Q3    1   0.9589  0.6725  0.2150  11.00000  0.05    0.36
Q4    1   0.1855  0.8123 -0.0519  11.00000  0.05    0.36
Q5    1   0.3902  0.9860  0.4547  11.00000  0.05    0.36
;
_shelxl_version_number           .002012
#END Tags that were not found in dictionaries
loop_
_space_group_symop_operation_xyz
'x, y, z'
'-x, y+1/2, -z'
loop_
_atom_site_type_symbol
_atom_site_label
_atom_site_fract_x
_atom_site_fract_y
_atom_site_fract_z
_atom_site_U_iso_or_equiv
_atom_site_adp_type
_atom_site_calc_flag
_atom_site_occupancy
Br Br1 0.28497(8) 0.81549(4) 0.61690(7) 0.01346(16) Uani d 1
Br Br2 0.89230(8) 1.00194(4) -0.07683(7) 0.02154(17) Uani d 1
O O1W 0.833(3) 0.7318(14) -0.122(3) 0.033(4) Uani d 0.25
H H1W 0.9097 0.6675 -0.0678 0.050 Uiso d 0.25
H H2W 0.8495 0.8091 -0.1106 0.050 Uiso d 0.25
N N1 0.7346(6) 0.8674(3) 0.4576(6) 0.0115(8) Uani d 1
H H1N1 0.6254 0.8552 0.5226 0.014 Uiso calc 1
H H2N1 0.8787 0.8556 0.5453 0.014 Uiso calc 1
C C2 0.6978(8) 0.7813(4) 0.2944(7) 0.0132(10) Uani d 1
H H2 0.8212 0.7923 0.2280 0.016 Uiso calc 1
C C3 0.4606(8) 0.8026(4) 0.1456(7) 0.0121(9) Uani d 1
H H3A 0.4394 0.7492 0.0333 0.015 Uiso calc 1
H H3B 0.3366 0.7868 0.2074 0.015 Uiso calc 1
N N4 0.4418(7) 0.9256(3) 0.0738(6) 0.0132(9) Uani d 1
H H1N4 0.5488 0.9381 0.0068 0.016 Uiso calc 1
H H2N4 0.2963 0.9377 -0.0115 0.016 Uiso calc 1
C C5 0.4830(8) 1.0098(4) 0.2399(6) 0.0131(9) Uani d 1
H H5A 0.3591 1.0018 0.3045 0.016 Uiso calc 1
H H5B 0.4776 1.0897 0.1889 0.016 Uiso calc 1
C C6 0.7180(8) 0.9880(5) 0.3884(7) 0.0143(13) Uani d 1
H H6A 0.8428 1.0036 0.3274 0.017 Uiso calc 1
H H6B 0.7391 1.0411 0.5010 0.017 Uiso calc 1
C C7 0.7125(11) 0.6578(5) 0.3739(9) 0.0206(13) Uani d 1
H H7A 0.7072 0.6028 0.2682 0.031 Uiso calc 1
H H7B 0.5814 0.6434 0.4258 0.031 Uiso calc 1
H H7C 0.8583 0.6480 0.4788 0.031 Uiso calc 1
loop_
_atom_site_aniso_label
_atom_site_aniso_U_11
_atom_site_aniso_U_22
_atom_site_aniso_U_33
_atom_site_aniso_U_12
_atom_site_aniso_U_13
_atom_site_aniso_U_23
Br1 0.0110(3) 0.0179(2) 0.0117(3) -0.0008(2) 0.00384(18) -0.0013(2)
Br2 0.0161(3) 0.0359(3) 0.0137(3) 0.0065(2) 0.0061(2) 0.0041(2)
O1W 0.030(9) 0.025(8) 0.046(10) 0.013(7) 0.011(8) 0.005(7)
N1 0.007(2) 0.0171(17) 0.009(2) 0.0000(16) 0.0009(15) 0.0005(16)
C2 0.015(3) 0.012(2) 0.012(2) 0.0007(17) 0.0037(19) -0.0029(17)
C3 0.015(2) 0.010(2) 0.009(2) -0.0018(19) -0.0002(18) 0.000(2)
N4 0.016(2) 0.015(2) 0.007(2) 0.0019(16) 0.0014(16) 0.0016(15)
C5 0.017(3) 0.012(2) 0.011(2) 0.0036(19) 0.0045(18) 0.0015(17)
C6 0.015(3) 0.017(3) 0.010(3) 0.001(2) 0.002(2) -0.003(2)
C7 0.023(3) 0.016(3) 0.023(4) 0.0038(18) 0.006(3) 0.004(2)
loop_
_atom_type_symbol
_atom_type_description
_atom_type_scat_dispersion_real
_atom_type_scat_dispersion_imag
_atom_type_scat_source
C C 0.0181 0.0091 'International Tables Vol C Tables 4.2.6.8 and 6.1.1.4'
H H 0.0000 0.0000 'International Tables Vol C Tables 4.2.6.8 and 6.1.1.4'
N N 0.0311 0.0180 'International Tables Vol C Tables 4.2.6.8 and 6.1.1.4'
O O 0.0492 0.0322 'International Tables Vol C Tables 4.2.6.8 and 6.1.1.4'
Br Br -0.6763 1.2805 'International Tables Vol C Tables 4.2.6.8 and 6.1.1.4'
loop_
_geom_angle_atom_site_label_1
_geom_angle_atom_site_label_2
_geom_angle_atom_site_label_3
_geom_angle
H1W O1W H2W 138.8
C6 N1 C2 112.8(4)
C6 N1 H1N1 109.0
C2 N1 H1N1 109.0
C6 N1 H2N1 109.0
C2 N1 H2N1 109.0
H1N1 N1 H2N1 107.8
N1 C2 C3 109.2(4)
N1 C2 C7 110.6(4)
C3 C2 C7 110.4(4)
N1 C2 H2 108.9
C3 C2 H2 108.9
C7 C2 H2 108.9
N4 C3 C2 110.5(4)
N4 C3 H3A 109.6
C2 C3 H3A 109.6
N4 C3 H3B 109.6
C2 C3 H3B 109.6
H3A C3 H3B 108.1
C5 N4 C3 111.5(4)
C5 N4 H1N4 109.3
C3 N4 H1N4 109.3
C5 N4 H2N4 109.3
C3 N4 H2N4 109.3
H1N4 N4 H2N4 108.0
N4 C5 C6 110.4(4)
N4 C5 H5A 109.6
C6 C5 H5A 109.6
N4 C5 H5B 109.6
C6 C5 H5B 109.6
H5A C5 H5B 108.1
N1 C6 C5 110.4(4)
N1 C6 H6A 109.6
C5 C6 H6A 109.6
N1 C6 H6B 109.6
C5 C6 H6B 109.6
H6A C6 H6B 108.1
C2 C7 H7A 109.5
C2 C7 H7B 109.5
H7A C7 H7B 109.5
C2 C7 H7C 109.5
H7A C7 H7C 109.5
H7B C7 H7C 109.5
loop_
_geom_bond_atom_site_label_1
_geom_bond_atom_site_label_2
_geom_bond_distance
O1W H1W 0.9000
O1W H2W 0.8999
N1 C6 1.472(7)
N1 C2 1.498(6)
N1 H1N1 0.9200
N1 H2N1 0.9200
C2 C3 1.531(6)
C2 C7 1.529(7)
C2 H2 1.0000
C3 N4 1.504(6)
C3 H3A 0.9900
C3 H3B 0.9900
N4 C5 1.497(6)
N4 H1N4 0.9200
N4 H2N4 0.9200
C5 C6 1.521(6)
C5 H5A 0.9900
C5 H5B 0.9900
C6 H6A 0.9900
C6 H6B 0.9900
C7 H7A 0.9800
C7 H7B 0.9800
C7 H7C 0.9800
loop_
_geom_torsion_atom_site_label_1
_geom_torsion_atom_site_label_2
_geom_torsion_atom_site_label_3
_geom_torsion_atom_site_label_4
_geom_torsion
C6 N1 C2 C3 -57.4(5)
C6 N1 C2 C7 -179.0(4)
N1 C2 C3 N4 55.7(5)
C7 C2 C3 N4 177.5(4)
C2 C3 N4 C5 -56.7(5)
C3 N4 C5 C6 56.3(5)
C2 N1 C6 C5 57.7(5)
N4 C5 C6 N1 -55.9(5)
