#------------------------------------------------------------------------------
#$Date: 2016-02-20 02:53:41 +0200 (Sat, 20 Feb 2016) $
#$Revision: 176768 $
#$URL: svn://www.crystallography.net/cod/cif/2/10/54/2105465.cif $
#------------------------------------------------------------------------------
#
# This file is available in the Crystallography Open Database (COD),
# http://www.crystallography.net/. The original data for this entry
# were provided by IUCr Journals, http://journals.iucr.org/.
#
# The file may be used within the scientific community so long as
# proper attribution is given to the journal article from which the
# data were obtained.
#
data_2105465
loop_
_publ_author_name
'Reibenspies, Joseph'
'Bhuvanesh, Nattamai'
_publ_section_title
;
 Absolute structure of <i>R</i>-({-})-2-methylpiperazine and
 <i>S</i>-(+)-2-methylpiperazine
;
_journal_coeditor_code           RY5050
_journal_issue                   3
_journal_name_full               'Acta Crystallographica Section B'
_journal_page_first              288
_journal_page_last               293
_journal_paper_doi               10.1107/S2052519213008713
_journal_volume                  69
_journal_year                    2013
_chemical_formula_sum            'C5 H12 N2'
_chemical_formula_weight         100.17
_chemical_melting_point          363
_chemical_name_systematic
;
R-(-)-2-methylpiperazine
;
_space_group_crystal_system      monoclinic
_space_group_IT_number           4
_space_group_name_Hall           'P 2yb'
_space_group_name_H-M_alt        'P 1 21 1'
_symmetry_space_group_name_Hall  'P 2yb'
_symmetry_space_group_name_H-M   'P 1 21 1'
_atom_sites_solution_hydrogens   mixed
_audit_creation_method           SHELXL-2012
_cell_angle_alpha                90
_cell_angle_beta                 105.362(6)
_cell_angle_gamma                90
_cell_formula_units_Z            2
_cell_length_a                   5.2130(4)
_cell_length_b                   8.4710(7)
_cell_length_c                   7.2048(6)
_cell_measurement_reflns_used    4190
_cell_measurement_temperature    110(2)
_cell_measurement_theta_max      63.69
_cell_measurement_theta_min      6.37
_cell_volume                     306.79(4)
_computing_cell_refinement       'FRAMBO (Bruker, 2002)'
_computing_data_collection       'FRAMBO (Bruker, 2002)'
_computing_data_reduction        'SAINT (Bruker, 2012b)'
_computing_molecular_graphics    'OLEX-2 (Dolomanov, 2009)'
_computing_publication_material  'Ciftab (Sheldrick, 2008)'
_computing_structure_refinement  'SHELXL-2012 (Sheldrick, 2012)'
_computing_structure_solution    'SHELXS (Sheldrick 2008)'
_diffrn_ambient_temperature      110(2)
_diffrn_measured_fraction_theta_full 0.899
_diffrn_measured_fraction_theta_max 0.989
_diffrn_measurement_device       'three-circle diffractometer'
_diffrn_measurement_device_type  'MWPC area detector'
_diffrn_measurement_method       'phi and omega scans'
_diffrn_radiation_monochromator  graphite
_diffrn_radiation_type           CuK\a
_diffrn_radiation_wavelength     1.54178
_diffrn_reflns_av_R_equivalents  0.0462
_diffrn_reflns_limit_h_max       6
_diffrn_reflns_limit_h_min       -6
_diffrn_reflns_limit_k_max       9
_diffrn_reflns_limit_k_min       -9
_diffrn_reflns_limit_l_max       8
_diffrn_reflns_limit_l_min       -8
_diffrn_reflns_number            5807
_diffrn_reflns_theta_full        67.679
_diffrn_reflns_theta_max         63.603
_diffrn_reflns_theta_min         8.251
_exptl_absorpt_coefficient_mu    0.524
_exptl_absorpt_correction_T_max  0.7524
_exptl_absorpt_correction_T_min  0.6107
_exptl_absorpt_correction_type   multi-scan
_exptl_absorpt_process_details
;
SADABS-2009/1 (Bruker,2009) was employed for absorption correction.
wR2(int) was   0.0000 before and   0.0000 after correction.
The ratio of minimum to maximum transmission factors was  -1.#IND.
Additional spherical absorption correction applied with mu*r =  0.0000.
The \l/2 correction was not applied
;
_exptl_crystal_colour            'colorless '
_exptl_crystal_density_diffrn    1.084
_exptl_crystal_description       'plate     '
_exptl_crystal_F_000             112
_exptl_crystal_size_max          0.160
_exptl_crystal_size_mid          0.130
_exptl_crystal_size_min          0.040
_refine_diff_density_max         0.153
_refine_diff_density_min         -0.173
_refine_ls_abs_structure_details
;
 Hooft y determined using 450 Bijvoet Pairs
(Hooft,Straver,& Spek,(2008). J.Appl.Cryst. 41, 96-103)
PLATON (2012,161012) Bijvoet Pairs=450, Coverage=0.97,
Bayesian Statistics=Student_T(Nu=10.0), P2(true)=1.000,
P3(true)=1.000, P3(rac-twin)=0.8E-05, P3(false)=0.2E-25,
G =0.824, G (su)=0.167
;
_refine_ls_abs_structure_Flack   0.09(8)
_refine_ls_extinction_method     none
_refine_ls_goodness_of_fit_ref   1.012
_refine_ls_hydrogen_treatment    mixed
_refine_ls_matrix_type           full
_refine_ls_number_parameters     71
_refine_ls_number_reflns         987
_refine_ls_number_restraints     1
_refine_ls_restrained_S_all      1.012
_refine_ls_R_factor_all          0.0366
_refine_ls_R_factor_gt           0.0353
_refine_ls_shift/su_max          0.000
_refine_ls_shift/su_mean         0.000
_refine_ls_structure_factor_coef Fsqd
_refine_ls_weighting_details
;
 w=1/[\s^2^(Fo^2^)+(0.0780P)^2^+0.0239P]
 where P=(Fo^2^+2Fc^2^)/3
;
_refine_ls_weighting_scheme      calc
_refine_ls_wR_factor_gt          0.1024
_refine_ls_wR_factor_ref         0.1037
_reflns_number_gt                929
_reflns_number_total             987
_reflns_threshold_expression     'I > 2\s(I)'
_cod_data_source_file            ry5050.cif
_cod_data_source_block           rmpip
_cod_database_code               2105465
#BEGIN Tags that were not found in dictionaries:
_shelx_space_group_comment
;
The symmetry employed for this shelxl refinement is uniquely defined
by the following loop, which should always be used as a source of
symmetry information in preference to the above space-group names.
They are only intended as comments.
;
_shelx_estimated_absorpt_t_min   0.921
_shelx_estimated_absorpt_t_max   0.979
_shelx_hkl_checksum              12903
_shelx_hkl_file
;
   1   0   0 746.726 52.7299  19
  -1   0   0 808.930 57.0783   3
  -1   0   0 765.673 46.2492  10
  -1   0   0 762.698 45.8535  17
  -1   0   0 817.598 42.0176  18
  -1   0   0 743.604 52.7767  19
  -1   0   0 821.921 57.4646  20
   1   0   0 715.863 40.8968   1
   1   0   0 797.478 56.8260   8
   1   0   0 700.659 46.4812  11
   1   0   0 692.700 45.8846  17
   1   0   0 821.032 41.9430  18
   1   0   0 771.231 52.8149  19
   1   0   0 848.130 57.4690  20
   1   0   0 901.291 57.3198  20
  -2   0   0 1312.78 90.0903   3
  -2   0   0 1249.92 72.3280  17
  -2   0   0 1252.89 66.2876  18
  -2   0   0 1141.82 67.6209  21
   2   0   0 1226.53 64.5742   1
   2   0   0 1105.97 89.5064   8
   2   0   0 1188.03 73.3663  11
   2   0   0 1149.99 67.2726  16
   2   0   0 1289.16 83.2855  19
   2   0   0 1401.82 90.3945  20
   2   0   0 1161.99 90.6358  20
   2   0   0 1234.68 72.3803  22
  -2   0   0 1245.64 66.4185  15
  -2   0   0 1249.49 73.0014  10
  -3   0   0 25.8626 4.91846   3
   3   0   0 29.6684 3.66381   1
   3   0   0 34.7370 3.46166  22
  -3   0   0 31.6521 3.88129  18
  -3   0   0 34.0662 3.06987  21
  -3   0   0 28.1317 3.38916  17
   3   0   0 35.2990 4.45021  11
   3   0   0 33.4080 2.89528  16
   3   0   0 28.4553 5.21049  20
  -3   0   0 33.4951 2.66406  15
  -3   0   0 35.1530 4.38260  10
   4   0   0 54.0920 3.55173   4
   4   0   0 55.0800 4.39815  16
   4   0   0 46.2635 4.69814  22
   4   0   0 48.0676 3.69104  14
   4   0   0 41.0056 4.06618   7
  -4   0   0 49.7070 4.51727  21
  -4   0   0 48.8483 4.13129  15
   5   0   0 -0.1576 1.58702   4
   0  -1   0 0.37198 0.47627  18
   0  -1   0 0.15680 0.36760  17
   0  -1   0 0.08896 0.39514  17
   0  -1   0 0.90387 0.58435  20
   0  -1   0 -0.4496 0.51173  19
   0  -1   0 1.73068 0.92624   8
   0  -1   0 0.35064 0.41224  18
   0  -1   0 0.60350 0.68469   2
   0   1   0 1.63466 0.86723  20
   0   1   0 2.21678 0.63305  19
   0   1   0 0.94436 0.58146  10
   0   1   0 1.01763 0.96057   3
   0   1   0 0.21351 0.60846  19
   0   1   0 1.27872 0.45612  18
   0   1   0 0.30997 0.49880  11
  -1  -1   0 5594.96 323.719  17
  -1  -1   0 6026.49 295.573  18
  -1  -1   0 5613.48 295.553  18
   1  -1   0 4936.25 412.454   2
   1  -1   0 5414.94 400.911   8
   1  -1   0 5077.82 327.450  11
   1  -1   0 5616.78 323.859  17
  -1  -1   0 6014.13 402.299   3
   1  -1   0 5814.39 295.671  18
   1  -1   0 5685.33 372.151  19
   1  -1   0 5914.57 403.672  20
  -1  -1   0 4802.25 371.931  19
   1  -1   0 5112.80 287.861   1
  -1  -1   0 5615.10 323.713  17
  -1   1   0 5379.86 403.769  20
   1   1   0 5874.52 287.858   1
   1   1   0 5846.55 325.910  10
  -1   1   0 5803.91 402.305   3
   1   1   0 5365.25 327.646  11
  -1   1   0 5596.46 323.773  17
  -1   1   0 5396.42 325.890  10
  -1   1   0 5159.18 372.045  19
  -2  -1   0 1677.61 92.9543  21
   2  -1   0 1693.61 99.5897  22
   2  -1   0 1595.70 113.017  23
   2  -1   0 1666.88 100.688  24
   2  -1   0 1503.75 100.659  11
   2  -1   0 1534.04 92.5278  16
   2  -1   0 1708.81 99.7037  17
   2  -1   0 1839.54 123.461   8
   2  -1   0 1819.54 124.311  20
  -2  -1   0 1771.03 123.810   3
  -2  -1   0 1740.95 90.9342  18
  -2  -1   0 1680.10 100.291  10
  -2  -1   0 1600.24 91.3204  15
  -2  -1   0 1784.67 99.3974  17
   2  -1   0 1763.46 114.637  19
   2  -1   0 1733.53 88.7286   1
  -2   1   0 1485.13 123.798   3
  -2   1   0 1785.40 100.368  10
   2   1   0 1707.57 100.910  11
   2   1   0 1555.93 92.4256  16
  -2   1   0 1667.11 100.916  24
  -2   1   0 1643.69 114.627  19
  -2   1   0 1892.11 124.884  20
  -2   1   0 1620.74 93.0490  21
   2   1   0 1784.35 99.4536  22
   2   1   0 1719.07 88.6585   1
  -2   1   0 1690.82 99.5031  17
  -2   1   0 1727.46 91.1878  18
  -2   1   0 1671.22 91.4100  15
  -2   1   0 1724.47 113.129  23
  -3  -1   0 330.235 25.4246   3
   3  -1   0 328.992 18.6573  16
   3  -1   0 309.166 14.9162   4
   3  -1   0 342.220 20.1922  22
  -3  -1   0 358.284 18.7280  18
   3  -1   0 302.165 20.5016  11
  -3  -1   0 333.987 18.1731  15
  -3  -1   0 355.927 20.0415  17
  -3  -1   0 335.540 18.5428  21
   3  -1   0 302.077 25.4837  20
   3  -1   0 308.011 16.0167  14
   3  -1   0 329.627 18.3561   1
   3  -1   0 331.788 23.4207  19
  -3  -1   0 318.598 20.6502  10
   3   1   0 330.362 18.2909   1
  -3   1   0 324.493 18.6443  21
  -3   1   0 342.691 20.4170  24
  -3   1   0 307.760 18.2064  15
  -3   1   0 326.663 20.1568  17
   3   1   0 341.122 19.8927  22
   3   1   0 311.777 15.9305  14
   3   1   0 343.686 20.8040  11
  -3   1   0 338.623 22.7144  23
   3   1   0 311.426 18.4733   7
   3   1   0 335.645 14.9644   4
  -3   1   0 312.250 20.7020  10
   3   1   0 340.840 18.4285  16
  -3   1   0 336.292 25.5387   3
  -3   1   0 308.562 18.7975  18
  -4  -1   0 13.0644 2.03659   6
   4  -1   0 15.6759 2.00218   4
   4  -1   0 8.30560 2.78916  16
   4  -1   0 13.4978 3.46201  22
  -4  -1   0 11.0332 2.53317  21
  -4  -1   0 12.4570 2.35220  15
  -4   1   0 11.7678 3.67333  24
   4   1   0 12.6418 2.10054   7
  -4   1   0 9.58089 3.72458  23
   4   1   0 11.2762 2.36136  16
   4   1   0 11.4615 1.85803  14
   4   1   0 11.2963 2.94673  22
   4   1   0 13.9834 1.90861   4
   5  -1   0 17.1089 1.95184   4
   5   1   0 14.1990 1.97559   4
   5   1   0 18.5308 2.22896  14
  -5   1   0 20.2917 2.34253  14
   5   1   0 17.3809 2.45678   7
   0  -2   0 7985.48 492.188  19
   0  -2   0 6894.70 533.840  20
   0  -2   0 6220.38 545.811   2
   0  -2   0 7364.48 391.117  18
   0  -2   0 7981.37 530.369   8
   0  -2   0 7069.40 391.103  18
   0  -2   0 7727.59 530.074   9
   0   2   0 6817.01 532.251   3
   0   2   0 7373.78 492.059  19
   0   2   0 7778.14 391.054  18
   0   2   0 6982.72 433.273  11
   0   2   0 6808.00 492.099  19
   0   2   0 8128.92 533.808  20
   1  -2   0 9157.69 505.874  21
   1  -2   0 9275.27 669.624   8
  -1  -2   0 9146.91 671.903   3
   1  -2   0 8191.83 688.973   2
   1  -2   0 8453.19 621.387  19
   1  -2   0 9999.99 674.201  20
   1  -2   0 9802.18 540.920  17
  -1  -2   0 9542.06 688.829   2
  -1  -2   0 9861.19 493.613  18
   1  -2   0 8831.76 668.888   9
   1  -2   0 9243.05 548.238  24
   1  -2   0 8485.88 480.657   1
   1  -2   0 9978.26 493.846  18
  -1   2   0 9012.27 674.173  20
  -1   2   0 9493.12 615.405  23
   1   2   0 9780.06 503.022  16
   1   2   0 9873.96 480.621   1
  -1   2   0 8000.15 540.969  22
  -1   2   0 9814.29 671.857   3
  -1   2   0 9370.34 540.740  17
  -1   2   0 9185.90 493.849  18
   1   2   0 8432.74 544.201  10
   1   2   0 9463.58 547.128  11
  -1   2   0 9290.09 548.220  24
  -2  -2   0 258.539 14.5256  15
   2  -2   0 256.584 20.6609   2
   2  -2   0 263.384 19.0305  19
   2  -2   0 270.957 20.6092  20
   2  -2   0 250.038 18.1294  23
   2  -2   0 257.773 16.1286  24
   2  -2   0 266.511 16.3949  17
   2  -2   0 249.274 14.5430   1
   2  -2   0 227.967 16.2391  22
  -2  -2   0 282.293 20.3917   3
  -2  -2   0 268.101 15.9493  17
   2  -2   0 260.197 20.3370   8
  -2  -2   0 276.738 14.8150  21
  -2  -2   0 298.437 14.8286  18
  -2   2   0 251.449 15.1293  18
   2   2   0 253.194 14.7379  16
  -2   2   0 239.461 20.9129  20
  -2   2   0 258.607 16.3007  24
   2   2   0 256.797 15.9064  22
  -2   2   0 280.427 19.2065  19
  -2   2   0 251.763 16.1059  17
   2   2   0 272.249 14.4624   1
   2   2   0 281.018 16.6342  10
  -2   2   0 290.657 18.2351  23
  -2   2   0 270.354 16.7795  10
  -2   2   0 297.923 20.5315   3
   2   2   0 264.063 16.5942  11
   3  -2   0 141.314 12.7054   8
  -3  -2   0 141.341 8.23262  15
  -3  -2   0 145.076 8.36493  21
   3  -2   0 136.998 9.03676   1
  -3  -2   0 141.576 12.6868   3
   3  -2   0 136.828 6.83078   4
   3  -2   0 130.796 11.4608  19
  -3  -2   0 155.278 9.31818  17
  -3  -2   0 147.601 9.00607  18
   3  -2   0 126.181 12.5170  20
  -3  -2   0 150.368 10.3117  10
   3   2   0 150.255 9.11427  22
   3   2   0 136.361 7.34845   6
   3   2   0 140.531 7.32405  14
   3   2   0 147.728 9.02147   1
   3   2   0 138.652 6.80478   4
  -3   2   0 145.996 10.3966  23
  -3   2   0 134.592 12.6800   3
   3   2   0 135.443 8.39352   7
   3   2   0 150.509 10.4000  11
   3   2   0 143.621 8.26743  16
  -3   2   0 116.039 10.3366  10
  -3   2   0 139.470 7.39133  14
  -3   2   0 145.608 9.44724  24
   4  -2   0 40.8739 4.81027  16
   4  -2   0 48.5840 3.52657   4
  -4  -2   0 50.5045 4.04360  15
  -4  -2   0 45.3094 4.17888  21
  -4  -2   0 46.1426 3.55787   6
   4  -2   0 40.9318 6.04288  22
  -4   2   0 40.6752 5.21643  23
   4   2   0 43.6261 3.27162   4
  -4   2   0 44.9066 3.56955  14
   4   2   0 43.0792 3.56209  14
   4   2   0 42.7236 3.94287   7
   4   2   0 50.2967 3.68112  16
   4   2   0 37.3531 4.25300  22
  -4   2   0 46.5157 5.15633  24
   5  -2   0 11.1696 1.78275   4
   5   2   0 13.7864 2.07678  14
  -5   2   0 11.1669 2.00369  14
   5   2   0 10.8433 2.24276   7
   0  -3   0 -0.1943 0.76394  17
   0  -3   0 0.28608 1.29586  17
   0  -3   0 0.89075 1.07169  18
   0  -3   0 -0.3037 1.67827   9
   0  -3   0 0.13950 1.79497   8
   0  -3   0 1.13867 0.71651  21
   0  -3   0 -0.2344 1.55177  20
   0   3   0 0.21524 1.07395  22
   0   3   0 -0.7602 2.00915   3
   0   3   0 0.40831 0.99955  16
   0   3   0 0.05065 1.23075  10
  -1  -3   0 43.7757 4.21879   9
  -1  -3   0 48.4099 2.85952  17
  -1  -3   0 41.7256 2.86690  18
   1  -3   0 35.0466 4.05449  19
   1  -3   0 35.4030 2.79425  15
  -1  -3   0 50.7874 4.40918   2
   1  -3   0 37.7539 2.73038  21
   1  -3   0 32.4657 3.54079  23
   1  -3   0 39.9700 4.24713   9
   1  -3   0 38.1199 3.23105  17
   1  -3   0 40.6128 4.77623  20
   1  -3   0 37.8418 3.23237  18
   1  -3   0 44.9420 4.57206   2
   1  -3   0 38.1731 4.50383   8
   1  -3   0 37.5125 2.96631  24
   1   3   0 41.0205 2.56115  16
   1   3   0 38.5922 2.70619  22
  -1   3   0 40.5444 4.60302   3
  -1   3   0 39.6751 4.17910  19
   1   3   0 39.7684 4.23170   3
  -1   3   0 43.5013 3.82940  10
  -1   3   0 33.1883 4.43537  20
   1   3   0 38.6876 3.20096  11
  -1   3   0 35.3597 3.07683  16
   1   3   0 41.1431 3.61898  10
  -1   3   0 33.8518 3.20630  22
   2  -3   0 1347.97 93.4076  19
   2  -3   0 1340.26 71.9880   1
   2  -3   0 1476.44 100.632   8
  -2  -3   0 1415.50 75.2417  21
   2  -3   0 1295.43 91.7747  23
   2  -3   0 1304.20 101.330  20
   2  -3   0 1456.26 81.8146  24
  -2  -3   0 1563.35 100.977   3
  -2  -3   0 1172.93 80.5609  17
  -2  -3   0 1456.43 73.8304  18
   2  -3   0 1232.00 103.163   2
  -2   3   0 1303.20 101.576  20
   2   3   0 1292.60 71.7723   1
  -2   3   0 1412.82 100.805   3
  -2   3   0 1461.36 93.5575  19
  -2   3   0 1354.26 91.7937  23
   2   3   0 1449.06 82.1108  11
  -2   3   0 1271.42 81.8417  10
  -2   3   0 1350.33 81.7158  24
   2   3   0 1438.07 81.7814  10
   3  -3   0 40.0409 3.68665  24
  -3  -3   0 55.0538 5.75027  10
   3  -3   0 39.2845 3.20074  12
   3  -3   0 44.4067 4.19314  23
  -3  -3   0 41.4250 6.82659   3
  -3  -3   0 43.5092 4.12594  17
   3  -3   0 38.3244 4.84151   1
   3  -3   0 37.0087 8.09386  20
   3  -3   0 36.0260 2.90588   4
  -3  -3   0 45.1586 3.28782  15
   3  -3   0 60.3471 8.47588   8
  -3  -3   0 47.7057 3.40621  21
  -3  -3   0 40.9769 4.91113  18
   3   3   0 40.8872 5.54524  11
  -3   3   0 35.2264 5.90837  10
   3   3   0 40.1257 3.14495   6
   3   3   0 42.1206 3.60672   7
  -3   3   0 43.8683 4.03311  24
  -3   3   0 39.6120 3.31730  14
  -3   3   0 48.4762 4.47349  23
  -3   3   0 39.2520 7.17687   3
  -4  -3   0 22.7532 2.96214  15
   4  -3   0 22.1875 2.35251   4
  -4  -3   0 18.1592 2.80320  21
  -4  -3   0 22.1846 2.46451   6
   4   3   0 23.9663 2.36862  14
  -4   3   0 25.5627 2.58475  14
  -4   3   0 16.0326 3.94946  23
   4   3   0 26.4644 2.73836   7
  -4   3   0 23.1634 3.51473  24
   5  -3   0 120.082 6.20836   4
   5   3   0 124.422 6.63674  14
   5   3   0 123.932 7.52595   7
  -5   3   0 119.230 6.71331  14
   0  -4   0 859.887 45.0847  18
   0  -4   0 837.742 44.9152  15
   0  -4   0 864.360 63.0869   2
   0  -4   0 828.986 61.1580   9
   0  -4   0 797.484 61.1081   8
   0  -4   0 882.173 49.0450  17
   0   4   0 722.122 61.2044   3
   0   4   0 826.425 45.5728  16
   0   4   0 853.564 48.9729  22
   0   4   0 808.251 49.7862  10
   1  -4   0 251.871 16.7566  17
   1  -4   0 281.537 21.0688   9
   1  -4   0 262.998 15.4072  21
  -1  -4   0 277.419 14.9014  15
   1  -4   0 280.175 21.9080   2
  -1  -4   0 286.306 21.5919   2
   1  -4   0 267.455 15.1625  15
   1  -4   0 287.406 21.3327   8
  -1  -4   0 286.432 21.0467   9
   1  -4   0 246.845 15.5308  18
  -1  -4   0 308.479 16.4609  17
  -1  -4   0 284.477 15.3168  18
  -1   4   0 276.226 17.3236  10
   1   4   0 269.944 17.1871  10
  -1   4   0 228.572 16.5712  22
   1   4   0 266.552 21.1300   3
   1   4   0 278.474 16.9782  11
  -1   4   0 255.596 15.4773  16
  -1   4   0 270.616 21.2540   3
  -2  -4   0 13.6037 1.50605  21
   2  -4   0 11.2929 2.24088  24
  -2  -4   0 10.4050 2.24269  17
  -2  -4   0 11.3263 1.43535  15
   2  -4   0 11.8394 5.18403   8
   2  -4   0 11.3626 3.01136  23
  -2  -4   0 11.6273 3.68912   3
   2  -4   0 12.7662 5.51630   2
   2  -4   0 10.3434 1.64342  12
  -2  -4   0 5.96439 2.75270  18
   2   4   0 9.64997 1.35224   6
  -2   4   0 11.7486 1.70576  14
  -2   4   0 7.76388 3.60264  10
  -2   4   0 5.29204 2.36687  22
  -2   4   0 12.2064 2.84112  16
  -2   4   0 12.4354 4.97846  19
  -2   4   0 12.1418 5.07401   3
   2   4   0 12.1623 1.56736  14
   2   4   0 11.8726 2.89646  10
  -2   4   0 11.5946 5.11640  20
   2   4   0 12.3398 1.79060   7
   2   4   0 12.2038 3.33271  11
  -3  -4   0 30.2769 2.83594  15
  -3  -4   0 22.4064 6.51836   3
  -3  -4   0 29.4178 2.91905  21
   3  -4   0 39.2578 8.86973   8
  -3  -4   0 27.7567 5.03389  10
   3  -4   0 24.4936 2.43030  12
   3  -4   0 26.1533 3.22053  24
   3  -4   0 34.5828 4.77535  23
   3   4   0 26.5179 3.10054   7
  -3   4   0 24.0328 5.59645  10
  -3   4   0 2.14526 7.48760  19
  -3   4   0 31.3178 4.19803  23
  -3   4   0 30.7731 3.19738  14
   3   4   0 25.3481 2.66380   6
   3   4   0 28.3564 2.82744  14
   3   4   0 26.6435 5.34490  11
  -4  -4   0 91.3279 6.08509  15
   4  -4   0 80.6624 5.53813  12
  -4  -4   0 83.8153 6.20534  21
   4   4   0 99.6967 5.45326  14
  -4   4   0 86.2390 5.55976  14
   4   4   0 105.287 6.22661   7
   5   4   0 144.267 7.41341  14
   5   4   0 140.430 8.46713   7
   0  -5   0 -1.1357 2.96021   9
   0  -5   0 1.55963 4.41052   8
   0  -5   0 0.80053 2.52474  17
   0  -5   0 0.35130 1.11508  15
   0  -5   0 0.45203 1.25317  21
   0  -5   0 0.29808 4.24120   2
   0  -5   0 1.17738 2.94448  18
   0   5   0 1.18817 2.72341  10
   0   5   0 -0.1300 3.54721   3
   0   5   0 0.84461 1.54270  16
   0   5   0 0.08485 1.42936  22
  -1  -5   0 42.9099 6.39407   2
  -1  -5   0 37.9650 2.58592  15
   1  -5   0 35.9578 4.53706  18
  -1  -5   0 32.8315 3.72334  18
   1  -5   0 33.1520 3.05479  21
   1  -5   0 41.3926 6.71059   2
   1  -5   0 30.4203 5.07409   9
  -1  -5   0 37.5909 3.46678  17
  -1  -5   0 35.9721 5.65209   9
   1  -5   0 30.7094 3.01518  12
  -1  -5   0 34.9059 2.82340  21
   1  -5   0 30.8069 6.05289   8
   1  -5   0 33.3293 3.03908  15
   1  -5   0 31.4555 4.07984  17
  -1   5   0 29.5617 3.32836  22
  -1   5   0 29.2272 2.92435   6
  -1   5   0 28.5327 2.71670  13
   1   5   0 33.6639 2.54185  13
  -1   5   0 36.3445 3.61228  16
   1   5   0 35.9521 3.20078   7
   1   5   0 49.3501 5.20989  10
  -1   5   0 32.7452 2.83664   5
   1   5   0 33.5038 2.88789   6
   1   5   0 34.2760 2.93342  14
  -1   5   0 27.8846 5.49720   3
  -1   5   0 32.9031 2.97907  14
   2  -5   0 12.9353 3.73568  23
  -2  -5   0 14.3632 1.78161  15
   2  -5   0 9.77967 1.89452  12
  -2  -5   0 14.6453 4.87113   3
  -2  -5   0 18.0873 2.03621  21
   2  -5   0 16.3590 6.83286   2
   2  -5   0 5.73093 6.66293   8
   2  -5   0 12.5723 2.89986  24
  -2  -5   0 12.9573 2.88827  17
  -2   5   0 14.1950 5.82825  19
  -2   5   0 12.9236 2.20399  14
   2   5   0 9.24113 3.42684  10
   2   5   0 13.3816 1.60905   6
  -2   5   0 13.2143 2.15008   6
   2   5   0 14.4207 1.82076  14
  -2   5   0 13.2066 4.77015  10
  -2   5   0 14.6978 3.26447  16
   2   5   0 16.2318 2.06265   7
   2   5   0 15.2560 4.03775  11
  -2   5   0 9.51491 2.95638  22
  -2   5   0 10.9848 1.79676   5
  -2   5   0 14.0994 6.93748   3
  -3  -5   0 93.5811 6.02520  21
   3  -5   0 91.9893 5.49141  12
  -3  -5   0 88.6198 5.86049  15
   3  -5   0 79.3798 6.94271  24
   3  -5   0 99.1961 8.19758  23
  -3   5   0 82.7163 5.73930  14
   3   5   0 90.5596 5.37375  14
   3   5   0 95.2491 6.12483   7
   3   5   0 93.4429 5.37076   6
   4  -5   0 34.9278 3.30218  12
   4   5   0 35.7568 2.99355  14
   4   5   0 30.0031 3.26598   7
  -4   5   0 27.3553 2.77002  14
   5   5   0 71.3713 4.00865  14
   5   5   0 70.1241 4.54207   7
   0  -6   0 192.891 11.2596  21
   0  -6   0 172.419 12.4524  17
   0  -6   0 187.592 16.3219   9
   0  -6   0 212.570 17.2377   2
   0  -6   0 201.074 10.9660  15
   0   6   0 183.792 13.6779  10
   0   6   0 182.567 9.19671  13
   0   6   0 176.945 9.80502   6
   0   6   0 181.222 9.70454   5
   0   6   0 193.026 9.79737  14
   0   6   0 201.690 11.2041  16
   0   6   0 221.972 12.0118  22
   0   6   0 164.096 16.0598   3
   1  -6   0 4.40819 1.88524  15
   1  -6   0 6.50510 1.89299  12
   1  -6   0 7.51245 2.05766  21
   1  -6   0 5.97090 4.76833   9
   1  -6   0 3.18630 6.59733   8
  -1  -6   0 9.28547 2.01686  21
  -1  -6   0 10.0784 4.95272   9
   1  -6   0 2.02032 4.17847  17
  -1  -6   0 11.2390 1.60276  15
   1  -6   0 7.73386 6.70062   2
  -1   6   0 6.77494 4.01525  10
   1   6   0 10.6880 2.00317   7
  -1   6   0 6.25141 1.71809  13
  -1   6   0 8.74423 1.72762   5
  -1   6   0 6.30201 5.20256   3
   1   6   0 11.5889 4.09565  10
   1   6   0 10.7583 1.74635  14
  -1   6   0 7.38865 2.36823  22
   1   6   0 9.42555 1.59721   5
  -1   6   0 9.03807 2.16665  14
  -1   6   0 8.10601 2.52201  16
  -1   6   0 6.81814 1.85395   6
   1   6   0 9.60003 1.55105   6
   1   6   0 11.1637 1.49726  13
   2  -6   0 209.569 10.2791  12
   2  -6   0 177.668 14.4512  23
  -2  -6   0 188.238 11.3692  21
  -2  -6   0 187.984 11.0659  15
   2  -6   0 191.803 12.9938  24
  -2   6   0 196.099 12.2998  16
  -2   6   0 184.549 10.1626   6
   2   6   0 203.568 10.0145   6
  -2   6   0 161.570 12.8198  22
   2   6   0 200.515 9.30739  13
  -2   6   0 201.393 10.2217  14
   2   6   0 202.875 11.4280   7
   2   6   0 196.265 9.90593  14
   3  -6   0 3.96113 4.66448  23
  -3  -6   0 0.72903 2.41066  21
  -3  -6   0 2.15701 1.89831  15
   3  -6   0 0.52884 1.77388  12
   3  -6   0 1.56248 3.46213  24
   3   6   0 1.41093 1.69133   7
   3   6   0 1.63961 1.57476  14
   3   6   0 1.35417 1.46018   6
  -3   6   0 1.20221 2.02129  14
   4  -6   0 48.2759 3.48305  12
   4   6   0 42.7815 3.09886  14
  -4   6   0 35.7774 3.49665  14
   4   6   0 44.7387 3.57450   7
   0  -7   0 0.03501 1.78436  15
   0  -7   0 -0.2456 2.14527  21
   0   7   0 1.81700 1.60366   5
   0   7   0 1.14459 1.61408   6
   0   7   0 0.44182 1.28786  13
   0   7   0 -0.0299 1.74919  14
   1  -7   0 3.13947 2.19750  15
  -1  -7   0 4.77796 1.82687  15
   1  -7   0 4.31762 1.98402  12
   1  -7   0 3.86112 2.07249  21
  -1  -7   0 5.14188 2.22093  21
  -1   7   0 3.90246 2.92440  16
  -1   7   0 5.50937 2.20794  14
   1   7   0 4.13360 1.78275  14
  -1   7   0 2.70711 2.67067  22
   1   7   0 6.58325 1.59985   6
   1   7   0 4.27441 2.04102   7
  -1   7   0 3.72048 1.53850  13
  -1   7   0 3.70102 1.81475   6
   1   7   0 4.61993 1.37964  13
   2  -7   0 189.847 9.34027   5
   2  -7   0 167.765 12.4487  24
  -2  -7   0 183.632 11.0192  21
   2  -7   0 145.658 13.9482  23
   2  -7   0 189.480 9.62471  12
  -2   7   0 173.164 9.57021   6
   2   7   0 185.517 9.35321  14
   2   7   0 185.233 10.7072   7
   2   7   0 191.425 9.39692   6
  -2   7   0 184.198 11.9193  16
  -2   7   0 167.231 12.4084  22
  -2   7   0 186.648 9.73494  14
   3  -7   0 353.343 16.9271   5
   3  -7   0 350.761 17.3999  12
   3   7   0 353.385 17.1234   6
   3   7   0 340.490 19.4769   7
   3   7   0 324.702 16.8842  14
   4  -7   0 55.3822 3.49850  12
   4   7   0 52.3978 3.24562  14
   4   7   0 52.2148 3.70714   7
   0  -8   0 12.8383 1.74122   5
   0  -8   0 10.3450 2.54528  21
   0  -8   0 9.94184 2.40879  15
   0   8   0 16.1268 2.23819  14
   0   8   0 14.6107 1.87335   6
   0   8   0 12.5021 1.67296  13
  -1  -8   0 365.850 20.0508  15
   1  -8   0 348.132 17.9851  12
   1  -8   0 367.312 17.5768   5
  -1   8   0 314.998 20.4133  16
  -1   8   0 364.647 16.6402  13
   1   8   0 367.946 17.6535  14
  -1   8   0 342.697 17.7499   6
  -1   8   0 383.342 17.8114  14
   1   8   0 358.038 17.7563   6
   1   8   0 362.084 16.6013  13
   2  -8   0 206.563 9.99218   5
   2  -8   0 206.573 10.2614  12
  -2   8   0 163.593 10.3251   6
  -2   8   0 192.133 10.2460  14
   2   8   0 202.400 11.4761   7
   2   8   0 199.715 10.0192  14
   2   8   0 204.545 10.0688   6
   3  -8   0 0.31415 1.51940   5
   3  -8   0 4.36365 1.58422  12
   3   8   0 6.10839 1.22889   6
   3   8   0 6.57323 1.36669   7
  -3   8   0 0.72973 1.79786  14
   3   8   0 4.59231 1.16905  14
   0  -9   0 0.60176 1.27158   5
   0   9   0 -2.0399 1.19701  13
   0   9   0 -0.3001 1.68275  14
   0   9   0 0.08761 1.32229   6
   1  -9   0 135.232 7.03946   5
   1   9   0 129.889 7.09027   6
  -1   9   0 130.886 7.14121   6
  -1   9   0 142.763 6.77319  13
  -1   9   0 141.244 7.26297  14
   1   9   0 132.729 7.10996  14
   2  -9   0 222.736 10.6109   5
   2  -9   0 196.987 10.8257  12
   2   9   0 218.509 10.5943  14
   2   9   0 217.452 10.6851   6
  -5   0   1 1.40502 3.19305  15
   5   0  -1 4.67693 2.15716   7
  -5   0   1 1.59989 3.14266  21
   5   0  -1 4.17272 1.72099   4
   5   0  -1 3.37428 2.28950  16
  -4   0   1 1473.12 83.9401  21
   4   0  -1 1636.13 81.0736   1
   4   0  -1 1514.19 89.7458  22
   4   0  -1 1640.88 83.4653  16
   4   0  -1 1318.75 83.3732   7
   4   0  -1 1619.00 67.5248   4
  -4   0   1 1518.23 82.4961  15
   4   0  -1 1432.39 72.2316  14
  -4   0   1 1524.88 91.6031  10
   3   0  -1 2.14814 4.53564   8
  -3   0   1 1.08787 1.08322  15
   3   0  -1 1.71680 1.40125  16
  -3   0   1 1.39115 2.60824  10
   3   0  -1 -0.1273 1.70453  22
   3   0  -1 1.79776 2.99778  11
   3   0  -1 0.85408 2.70558   1
  -3   0   1 0.94857 2.63774  18
  -3   0   1 0.98259 2.18044  17
  -3   0   1 0.95809 1.40810  21
   2   0  -1 252.809 18.8116  20
  -2   0   1 252.261 13.9698  18
  -2   0   1 264.048 15.0542  17
   2   0  -1 274.663 18.9284   8
   2   0  -1 213.018 17.2042  19
   2   0  -1 259.671 18.8933  20
  -2   0   1 233.353 14.0097  21
  -2   0   1 252.966 15.4270  10
   2   0  -1 242.550 13.9652  16
   2   0  -1 268.229 15.5910  11
   2   0  -1 256.402 15.0551  22
  -2   0   1 254.694 18.7677   3
  -2   0   1 241.583 13.7060  15
   2   0  -1 242.281 13.6926   1
  -1   0   1 295.649 16.3799  10
   1   0  -1 266.912 20.1448   8
   1   0  -1 275.662 20.1680  20
   1   0  -1 269.941 18.5153  19
  -1   0   1 249.190 14.8246  18
   1   0  -1 235.208 16.4501  11
   1   0  -1 311.831 20.6960   2
  -1   0   1 253.807 18.6464  19
  -1   0   1 305.146 20.4439  20
   1   0  -1 260.007 18.5253  19
  -1   0   1 278.569 16.1330  17
   0   0   1 8341.08 534.894  19
   0   0   1 7548.34 425.040  18
   0   0   1 8242.13 580.160  20
   0   0  -1 7658.54 593.050   2
   0   0  -1 7849.20 576.264   8
   0   0   1 8330.78 470.977  11
   0   0  -1 7934.51 534.807  19
   0   0   1 6984.26 424.984  18
   0   0   1 7977.33 413.871   1
   0   0  -1 8109.14 465.525  17
   0   0  -1 7792.91 425.028  18
   0   0  -1 8663.56 534.953  19
   0   0  -1 7985.01 580.159  20
   0   0   1 8428.59 465.563  17
   0   0   1 7476.09 465.530  17
  -1   0  -1 490.366 29.2122  18
  -1   0  -1 538.706 36.6737  19
   1   0   1 466.586 39.3358   8
   1   0   1 591.687 39.9500  20
   1   0   1 519.384 31.8800  17
  -1   0  -1 603.264 39.7706   3
   1   0   1 482.952 32.2598  11
  -1   0  -1 600.122 40.1534  20
  -1   0  -1 543.762 31.8120  17
  -1   0  -1 521.518 39.3601   9
  -1   0  -1 491.772 32.0124  10
   1   0   1 554.454 28.4699   1
   1   0   1 556.203 36.8238  19
   1   0   1 590.289 29.1817  18
  -2   0  -1 11.4867 1.94156  17
   2   0   1 9.24582 1.45269  16
   2   0   1 11.0261 2.82362  19
  -2   0  -1 11.7123 1.54258  21
   2   0   1 10.6746 3.78948  20
  -2   0  -1 8.95998 2.02334  10
  -2   0  -1 14.7192 2.28243  23
   2   0   1 9.65769 1.87254  22
  -2   0  -1 10.3720 1.90727  24
   2   0   1 13.2636 2.65786   1
   2   0   1 12.3898 1.79569  23
  -2   0  -1 8.90969 1.30629  15
   2   0   1 8.43816 2.06798  11
  -2   0  -1 12.8694 2.47308  18
  -3   0  -1 44.0849 3.75740  21
  -3   0  -1 49.0110 4.54382  24
  -3   0  -1 45.2340 4.62164  23
  -3   0  -1 41.4231 2.89576   6
   3   0   1 39.9941 4.04713  22
  -3   0  -1 44.6287 5.22276  18
   3   0   1 46.7049 4.89856   1
   3   0   1 35.4826 2.85087  14
  -3   0  -1 38.3830 6.06060   3
   3   0   1 46.6487 3.82708  16
   3   0   1 37.9028 6.91873  20
  -3   0  -1 38.9248 3.26802  15
  -3   0  -1 45.6035 4.49654  17
  -3   0  -1 40.4409 5.12116  10
   3   0   1 40.4039 5.18592  19
   3   0   1 44.3760 2.97423   4
   3   0   1 38.1533 5.17058  11
   4   0   1 17.6208 3.04879  16
  -4   0  -1 18.0802 3.92714  24
   4   0   1 19.9424 3.83106  22
   4   0   1 14.4901 2.12213  14
  -4   0  -1 15.8939 4.53657  23
   4   0   1 25.2051 2.28152   4
  -4   0  -1 19.4477 2.39812   6
  -5   0  -1 9.14262 1.94473  14
   5   0   1 9.85806 1.58134   4
   5  -1  -1 40.5941 4.39985  16
  -5  -1   1 26.5463 3.72892  15
   5  -1  -1 40.8664 3.28920   4
  -5   1   1 43.1717 3.57661  14
   5   1  -1 39.5657 3.46558  14
   5   1  -1 40.3467 3.88078   7
   4  -1  -1 61.1833 4.68377  16
  -4  -1   1 58.7570 4.57895  21
   4  -1  -1 58.7879 5.53100  22
  -4  -1   1 62.2240 4.42548  15
   4  -1  -1 61.5493 3.78929   4
   4  -1  -1 48.2771 4.37672   7
   4   1  -1 54.3612 4.35623   7
   4   1  -1 63.7743 4.14957  16
  -4   1   1 57.2363 4.87383  21
   4   1  -1 56.3606 3.90072  14
  -4   1   1 55.8297 4.56200  15
   4   1  -1 54.7737 4.72849  22
   4   1  -1 66.7561 6.81599   1
   4   1  -1 61.2959 3.70596   4
  -3  -1   1 2865.79 149.876  21
  -3  -1   1 2901.50 160.335  17
   3  -1  -1 2808.71 160.490  22
   3  -1  -1 2874.34 149.258  16
  -3  -1   1 2295.58 199.410   3
   3  -1  -1 2898.53 143.127   1
  -3  -1   1 2671.87 147.254  15
   3  -1  -1 2796.58 184.363  19
  -3  -1   1 2724.09 146.564  18
   3  -1  -1 2626.58 198.788   8
  -3  -1   1 2629.08 161.788  10
   3  -1  -1 2439.62 199.921  20
   3   1  -1 2822.39 149.012  16
  -3   1   1 2712.26 147.342  15
  -3   1   1 2600.40 149.970  21
   3   1  -1 2698.47 143.046   1
   3   1  -1 2795.98 160.254  22
  -3   1   1 2714.34 161.935  10
   3   1  -1 2954.13 162.879  11
  -3   1   1 2742.14 160.502  17
  -3   1   1 2743.66 146.946  18
  -2  -1   1 4409.96 257.296  17
  -2  -1   1 4639.86 259.276  10
   2  -1  -1 4507.32 295.957  19
   2  -1  -1 4919.94 319.040   8
  -2  -1   1 4339.43 319.841   3
   2  -1  -1 4573.17 320.983  20
   2  -1  -1 4042.75 239.515  16
   2  -1  -1 4388.29 229.090   1
  -2  -1   1 4277.87 235.032  18
   2  -1  -1 4275.46 257.542  22
   2   1  -1 3986.30 318.631   8
   2   1  -1 4617.08 229.129   1
  -2   1   1 4432.12 235.316  18
  -2   1   1 3829.15 296.072  19
   2   1  -1 4467.00 239.379  16
  -2   1   1 4749.16 321.532  20
   2   1  -1 4143.71 257.358  22
  -2   1   1 4510.02 236.657  15
  -2   1   1 4445.75 257.474  17
  -2   1   1 4287.54 259.308  10
  -2   1   1 4417.90 319.807   3
   1  -1  -1 9214.51 600.611  19
   1  -1  -1 8833.04 651.617  20
   1  -1  -1 9187.07 647.154   8
   1  -1  -1 9234.79 529.953  24
   1  -1  -1 8814.36 522.785  17
   1  -1  -1 9421.46 651.503  20
   1  -1  -1 8907.67 477.285  18
   1  -1  -1 9320.08 646.479   9
   1  -1  -1 9400.81 665.976   2
   1  -1  -1 8732.93 464.702   1
  -1   1   1 8676.80 528.796  11
   1   1  -1 8604.79 528.834  11
  -1   1   1 9037.00 526.082  10
   1   1  -1 7629.08 665.804   2
   1   1  -1 8815.71 647.035   8
   1   1  -1 7718.21 646.454   9
   1   1  -1 9017.64 464.699   1
  -1   1   1 8806.05 600.710  19
  -1   1   1 9217.68 477.332  18
   1   1  -1 9568.52 649.295   3
  -1   1   1 9265.60 651.733  20
  -1   1   1 9046.36 522.737  17
   0  -1  -1 303.077 22.4080  19
   0  -1   1 319.015 19.3497  17
   0  -1   1 317.528 22.3663  19
   0  -1   1 363.620 24.2658  20
   0  -1   1 338.542 17.7163  18
   0  -1   1 316.742 19.3868  17
   0  -1  -1 319.882 19.4795  17
   0  -1  -1 354.043 24.8620   2
   0  -1  -1 343.565 24.1632   9
   0  -1   1 313.736 17.4009   1
   0  -1  -1 345.572 24.0669   8
   0  -1  -1 316.486 17.8952  18
   0  -1   1 314.990 17.7585  18
   0   1  -1 304.028 24.1602  20
   0   1   1 342.175 22.5681  19
   0   1   1 341.144 17.8390  18
   0   1   1 319.257 17.2810   1
   0   1   1 339.254 19.8388  11
   0   1  -1 343.270 24.1371   9
   0   1   1 311.055 24.3829  20
   0   1  -1 340.412 24.9182   2
   0   1  -1 329.017 24.2586   8
   0   1   1 326.821 24.4350  20
   0   1  -1 325.068 24.2529   3
   0   1   1 329.892 19.4835  17
   1  -1   1 112.297 8.82754  20
  -1  -1  -1 101.662 8.44193   9
   1  -1   1 127.290 6.29595  21
   1  -1   1 99.8803 8.09481  19
  -1  -1  -1 110.953 8.93805  20
  -1  -1  -1 113.851 8.66370   3
   1  -1   1 95.9593 8.68053   8
   1  -1   1 120.683 6.37812  18
  -1  -1  -1 98.3802 6.28726  21
  -1  -1  -1 114.165 6.45857  18
  -1  -1  -1 121.078 8.12799  19
   1  -1   1 99.0458 6.84953  17
   1  -1   1 96.0274 6.29395   1
  -1  -1  -1 118.152 6.14824  15
  -1   1  -1 91.9538 8.40584   9
   1   1   1 117.399 7.97525  19
  -1   1  -1 113.726 7.00394  10
  -1   1  -1 98.7664 6.81753  24
   1   1   1 102.373 6.87271  22
  -1   1  -1 109.012 9.03964  20
  -1   1  -1 124.258 7.65115  23
   1   1   1 114.708 6.34842  18
   1   1   1 111.565 7.57483  23
   1   1   1 104.154 6.94268  10
  -1   1  -1 124.273 8.93021   3
  -1   1  -1 103.033 6.45712  18
   1   1   1 105.306 6.84020  17
   1   1   1 105.831 6.17719   1
   1   1   1 118.064 8.05388  19
   1   1   1 99.3554 8.80669  20
   1   1   1 117.538 6.72012  24
  -1   1  -1 117.287 8.01372  19
   1   1   1 105.131 7.15594  11
  -1   1  -1 110.195 6.77491  17
  -2  -1  -1 167.263 10.8775  10
   2  -1   1 169.785 10.5199  24
   2  -1   1 183.802 13.8794  20
  -2  -1  -1 184.924 10.0948  18
   2  -1   1 166.195 11.8529  23
   2  -1   1 143.183 10.6810  11
   2  -1   1 167.878 9.84199   1
   2  -1   1 176.323 12.6925  19
   2  -1   1 166.390 9.88833  16
  -2  -1  -1 166.687 9.79691  21
   2  -1   1 172.825 10.8600  22
  -2  -1  -1 170.591 13.5111   3
   2  -1   1 165.553 13.3449   8
  -2  -1  -1 163.522 9.52898  15
  -2  -1  -1 180.878 10.5730  17
  -2   1  -1 154.118 9.80441  21
  -2   1  -1 155.330 10.6739  24
   2   1   1 180.528 9.81746   1
  -2   1  -1 157.862 10.5733  17
  -2   1  -1 165.520 12.6567  19
  -2   1  -1 159.592 9.57248  15
  -2   1  -1 174.809 11.8803  23
   2   1   1 187.072 12.3955  19
   2   1   1 177.873 13.5895  20
   2   1   1 176.015 10.6008  22
   2   1   1 171.488 11.0857  11
   2   1   1 169.056 9.79054  16
  -2   1  -1 165.298 13.6899   3
  -2   1  -1 188.855 14.5977  20
  -2   1  -1 174.757 10.9243  10
   3  -1   1 25.0733 3.99602   1
   3  -1   1 17.4145 3.40900  22
  -3  -1  -1 20.1580 1.95968   6
   3  -1   1 19.6355 1.89204   4
  -3  -1  -1 28.6461 5.92238   3
  -3  -1  -1 19.9169 4.15175  18
   3  -1   1 13.0299 1.79777  14
  -3  -1  -1 20.8724 4.00791  10
  -3  -1  -1 22.0534 2.52478  15
   3  -1   1 20.1805 2.68189  16
   3  -1   1 18.6823 6.44878  20
  -3  -1  -1 22.6066 2.51121  21
   3  -1   1 20.0707 4.58428  19
  -3  -1  -1 23.1955 3.43441  17
   3   1   1 20.2650 2.43843  16
  -3   1  -1 27.0069 3.58481  23
   3   1   1 19.4958 2.11218   7
  -3   1  -1 24.2691 3.12299  24
  -3   1  -1 23.2583 5.42503   3
   3   1   1 23.1837 2.96396  22
   3   1   1 18.7679 3.42286   1
   3   1   1 15.7596 1.76738  14
   3   1   1 22.7946 1.93833   4
  -3   1  -1 18.5493 3.81508  10
   3   1   1 20.8435 4.32874  11
  -3   1  -1 19.4261 1.96938   6
   4  -1   1 25.8603 3.80685  16
   4  -1   1 21.3288 4.32386  22
  -4  -1  -1 25.1040 3.28031  15
   4  -1   1 28.4352 2.80596   4
  -4  -1  -1 20.0140 3.29597  21
  -4  -1  -1 28.6542 2.99881   6
   4   1   1 30.0202 4.03580  22
  -4   1  -1 28.1876 3.99397  24
  -4   1  -1 23.9526 4.36166  23
   4   1   1 24.3941 3.09312  16
   4   1   1 26.1172 2.41784  14
  -4   1  -1 26.3180 2.66745   6
   4   1   1 31.0694 2.50084   4
   5  -1   1 155.047 7.65479   4
  -5  -1  -1 159.584 8.35186   6
   5   1   1 152.684 7.57026   4
   5  -2  -1 149.667 7.63005   4
  -5   2   1 166.396 8.34499  14
   5   2  -1 149.817 8.28772  14
   5   2  -1 152.524 9.42790   7
   5   2  -1 148.609 7.57671   4
   4  -2  -1 178.301 8.67233   4
   4  -2  -1 156.463 10.7204   7
   4  -2  -1 169.808 11.0096  16
   4  -2  -1 191.199 12.3678  22
  -4  -2   1 182.351 10.6333  21
  -4  -2   1 190.698 10.5251  15
  -4   2   1 174.256 13.5842  23
  -4   2   1 178.152 9.36133  14
   4   2  -1 170.442 9.26142  14
   4   2  -1 196.825 8.67786   4
  -4   2   1 169.976 12.0839  24
   4   2  -1 181.873 10.6329   7
   3  -2  -1 1189.92 75.3104  19
  -3  -2   1 1062.60 59.4835  18
  -3  -2   1 1123.80 59.5546  15
  -3  -2   1 1083.66 64.8676  17
   3  -2  -1 1016.54 53.7132  12
   3  -2  -1 1125.82 81.2471   8
   3  -2  -1 1071.58 81.5850  20
  -3  -2   1 1168.03 60.5972  21
  -3  -2   1 1121.79 66.0778  10
   3  -2  -1 1055.23 48.8630   4
   3  -2  -1 1103.71 58.3669   1
   3  -2  -1 1038.48 60.5672  16
  -3  -2   1 1178.88 81.3462   3
   3  -2  -1 1187.89 65.3579  22
  -3   2   1 1054.39 60.0703  18
   3   2  -1 1191.15 66.5532  11
   3   2  -1 1157.55 58.3023   1
   3   2  -1 1141.52 48.8630   4
   3   2  -1 1038.28 60.4304   7
  -3   2   1 1149.97 74.0924  23
   3   2  -1 1072.52 52.2985  14
  -3   2   1 1101.63 52.3915  14
  -3   2   1 1054.56 66.2886  10
  -3   2   1 1055.41 65.2719  17
  -3   2   1 1011.88 59.6979  15
  -3   2   1 1111.34 66.0663  24
  -3   2   1 1042.21 66.0224  11
  -3   2   1 1074.01 60.8542  21
   2  -2  -1 22.4787 2.56011  22
   2  -2  -1 17.4426 2.38567   1
   2  -2  -1 14.9530 1.87403  16
   2  -2  -1 22.0863 3.61080   2
  -2  -2   1 22.8652 3.14173   3
   2  -2  -1 32.3382 4.51541   8
   2  -2  -1 18.2614 2.42751  23
   2  -2  -1 23.3974 3.46425  19
   2  -2  -1 16.5137 1.76778  24
   2  -2  -1 22.9279 4.01524  20
  -2   2   1 17.5150 4.01299  19
   2   2  -1 19.4563 2.28258   1
  -2   2   1 17.9904 2.17680  17
  -2   2   1 23.7430 5.06597  20
  -2   2   1 19.8958 2.71068  18
  -2   2   1 18.0161 2.06873  21
  -2   2   1 20.3038 2.51013  24
  -2   2   1 21.0887 3.00931  10
   2   2  -1 26.0291 2.96131  11
  -2   2   1 17.3248 2.48020  11
  -2   2   1 19.7213 2.42184  23
  -2   2   1 19.5619 1.89797  15
  -2   2   1 16.8275 2.99647   3
   1  -2  -1 3738.04 256.647  23
   1  -2  -1 3781.08 228.582  24
   1  -2  -1 3912.16 281.349  20
   1  -2  -1 3758.58 279.406   8
   1  -2  -1 3864.53 206.155  18
   1  -2  -1 3771.80 287.475   2
   1  -2  -1 3407.37 200.423   1
   1  -2  -1 3494.80 259.291  19
   1  -2  -1 3532.94 279.042   9
   1  -2  -1 3709.60 225.640  17
  -1   2   1 3236.24 280.103   3
  -1   2   1 4278.61 227.258  10
   1   2  -1 3957.92 200.497   1
  -1   2   1 3948.71 225.564  17
   1   2  -1 4077.00 228.231  11
  -1   2   1 3832.57 228.223  11
  -1   2   1 3972.73 281.606  20
   1   2  -1 4206.26 279.088   9
   1   2  -1 3941.42 280.272   3
   1   2  -1 4058.53 287.347   2
  -1   2   1 4012.33 259.531  19
   1   2  -1 3956.85 227.095  10
   1   2  -1 4105.19 279.232   8
  -1   2   1 3773.66 256.642  23
  -1   2   1 3899.23 206.124  18
   0  -2  -1 1009.34 55.3201  17
   0  -2  -1 972.382 68.6523   9
   0  -2  -1 958.285 68.4669   8
   0  -2  -1 894.732 63.6376  19
   0  -2   1 916.538 68.6236   8
   0  -2   1 821.872 63.4697  19
   0  -2  -1 794.154 51.6304  21
   0  -2   1 929.782 49.2163   1
   0  -2   1 1007.79 55.1768  17
   0  -2  -1 986.707 70.6018   2
   0  -2  -1 927.066 50.6528  18
   0  -2   1 952.860 50.4735  18
   0  -2   1 974.961 68.9714  20
   0  -2   1 896.219 55.1614  17
   0  -2  -1 876.559 69.0946  20
   0  -2   1 1026.33 50.4810  18
   0   2  -1 1040.62 51.3901  16
   0   2  -1 945.966 68.5893   9
   0   2  -1 1012.65 55.2277  22
   0   2  -1 910.301 70.5954   2
   0   2   1 964.127 63.7244  19
   0   2   1 986.050 69.1969  20
   0   2   1 858.419 55.8256  10
   0   2   1 936.493 55.2842  17
   0   2   1 1025.42 55.9277  24
   0   2   1 942.743 63.6171  19
   0   2   1 957.925 56.0727  11
   0   2  -1 951.329 68.9192   3
   0   2   1 851.119 68.7431   3
   0   2   1 925.531 69.0607  20
   0   2   1 969.180 50.5575  18
   0   2  -1 838.885 55.6915  10
  -1  -2  -1 132.930 9.56952  20
   1  -2   1 104.568 9.42334   2
   1  -2   1 119.941 9.40726  20
   1  -2   1 96.5653 6.53143  15
   1  -2   1 115.312 6.66964  18
   1  -2   1 115.363 9.43619   8
  -1  -2  -1 113.187 6.56955  21
   1  -2   1 111.114 6.66343   1
  -1  -2  -1 121.499 6.43183  15
   1  -2   1 96.4450 8.49230  19
  -1  -2  -1 106.717 9.09985   3
  -1  -2  -1 133.162 8.67496  19
   1  -2   1 101.982 7.16550  24
   1  -2   1 113.553 7.27201  17
  -1  -2  -1 126.966 9.13475   9
  -1  -2  -1 126.546 6.86461  18
   1  -2   1 110.107 6.56425  21
  -1   2  -1 114.887 7.30946  22
   1   2   1 116.344 6.65426  16
  -1   2  -1 106.842 6.77431  18
  -1   2  -1 99.7501 7.01688  24
  -1   2  -1 105.929 9.18493   9
  -1   2  -1 109.294 9.36117  20
   1   2   1 118.936 8.28592  19
   1   2   1 112.251 6.38811   1
  -1   2  -1 107.054 7.11421  17
   1   2   1 122.787 7.15803  22
   1   2   1 124.035 8.35567  19
  -1   2  -1 135.019 8.66017  19
  -1   2  -1 107.375 6.72169  16
   1   2   1 113.641 9.10605  20
   1   2   1 126.543 7.66766  11
  -1   2  -1 120.651 9.45647   3
  -1   2  -1 110.532 7.41203  10
  -2  -2  -1 140.923 11.4597   3
   2  -2   1 141.240 11.5624   8
   2  -2   1 119.226 11.6663  20
  -2  -2  -1 139.788 7.85637  15
  -2  -2  -1 147.336 8.08900  21
   2  -2   1 128.960 10.7885  19
   2  -2   1 141.185 8.75588  24
   2  -2   1 111.262 11.3569   2
   2  -2   1 142.374 9.96415  23
   2  -2   1 142.741 8.46688   1
  -2  -2  -1 130.251 8.37133  18
  -2  -2  -1 138.071 8.75991  17
   2   2   1 150.790 8.77424  22
   2   2   1 126.315 9.32930  11
  -2   2  -1 114.387 9.32679  10
   2   2   1 149.364 8.14632   1
   2   2   1 137.904 8.04710  16
  -2   2  -1 144.425 12.4861  20
  -2   2  -1 138.881 9.77163  23
  -2   2  -1 141.911 8.77881  24
   2   2   1 129.805 9.21880  10
  -2   2  -1 147.773 11.0342  19
  -2   2  -1 137.977 11.8908   3
  -3  -2  -1 23.8969 4.32158  10
   3  -2   1 12.4889 7.30466  20
  -3  -2  -1 24.8313 2.95580  21
  -3  -2  -1 25.3794 3.66893  17
  -3  -2  -1 24.4099 2.64532  15
  -3  -2  -1 17.5925 4.06345  18
   3  -2   1 26.1111 4.42741   1
   3  -2   1 20.6840 5.23934  19
   3  -2   1 19.7157 2.43191  24
  -3  -2  -1 22.4444 5.87991   3
   3  -2   1 25.7422 2.09485   4
   3   2   1 22.3518 4.67155  11
   3   2   1 26.5229 2.84356  16
   3   2   1 25.4054 2.91051   7
   3   2   1 31.9547 3.35223  22
  -3   2  -1 27.3191 3.47378  24
  -3   2  -1 21.5481 2.23758   6
  -3   2  -1 19.0269 2.04072  14
   3   2   1 22.7148 2.26821   4
  -3   2  -1 24.9974 6.56508   3
  -3   2  -1 17.7208 4.32092  10
   3   2   1 20.8719 2.10057  14
  -3   2  -1 24.1653 3.32886  23
   3   2   1 19.9317 3.64903   1
  -4  -2  -1 365.541 18.1344   6
   4  -2   1 377.454 16.7046   4
  -4  -2  -1 356.614 20.5327  15
  -4  -2  -1 350.272 20.8259  21
   4   2   1 353.161 17.8564  14
  -4   2  -1 372.845 22.5384  24
  -4   2  -1 353.269 17.8444  14
   4   2   1 393.988 20.6448  16
  -4   2  -1 350.591 18.1359   6
   4   2   1 354.199 20.5350   7
   4   2   1 347.821 22.2628  22
  -4   2  -1 340.322 25.3569  23
   4   2   1 389.678 16.6388   4
   5  -2   1 34.4606 2.94555   4
  -5  -2  -1 44.1600 3.37354   6
   5   2   1 35.3629 2.70401   4
   5   2   1 38.1406 3.19433  14
   5  -3  -1 5.18189 1.74437   4
   5   3  -1 10.9836 2.04158   7
   5   3  -1 9.56984 1.72976  14
  -5   3   1 12.0731 1.98777  14
  -4  -3   1 59.6019 4.46103  21
   4  -3  -1 56.8648 3.92040   4
   4  -3  -1 51.5316 4.14068  12
  -4  -3   1 66.9577 4.62646  15
   4   3  -1 58.3035 3.80546   4
  -4   3   1 58.3205 4.21187  14
   4   3  -1 63.2281 4.10325  14
  -4   3   1 62.9341 5.66604  24
  -4   3   1 59.3836 6.09410  23
   4   3  -1 62.5862 4.71062   7
  -3  -3   1 76.1017 5.77394  18
  -3  -3   1 80.3595 5.37396  17
   3  -3  -1 72.0186 6.35450   1
  -3  -3   1 78.4270 8.58742   3
   3  -3  -1 66.1191 9.21045  20
   3  -3  -1 79.1803 8.06214  19
   3  -3  -1 75.6505 9.02145   8
   3  -3  -1 68.7329 4.53152  12
  -3  -3   1 78.3176 7.08007  10
   3   3  -1 73.7134 5.11512   7
   3   3  -1 68.6730 5.65512   1
  -3   3   1 79.2920 5.82466  24
  -3   3   1 81.3260 7.91384  10
  -3   3   1 89.8274 6.67890  23
  -3   3   1 77.0626 4.66627  14
   3   3  -1 79.8382 4.50314  14
   3   3  -1 82.3225 7.04920  11
   3   3  -1 65.2570 4.35048   6
   2  -3  -1 5481.45 374.162   2
   2  -3  -1 5265.82 363.785   8
  -2  -3   1 5212.44 363.245   9
   2  -3  -1 5249.28 366.517  20
   2  -3  -1 5168.97 363.066   9
   2  -3  -1 5350.89 297.434  24
  -2  -3   1 5418.38 364.954   3
   2  -3  -1 4692.12 337.549  19
   2  -3  -1 5006.57 333.829  23
   2  -3  -1 4625.18 260.906   1
  -2   3   1 4938.87 297.415  24
   2   3  -1 5383.63 295.759  10
  -2   3   1 4305.06 296.807  11
  -2   3   1 5131.00 333.907  23
   2   3  -1 4738.17 297.021  11
  -2   3   1 4243.19 364.479   3
  -2   3   1 5062.41 337.837  19
  -2   3   1 4950.24 295.860  10
   2   3  -1 4870.49 260.833   1
   1  -3  -1 201.478 15.3948   2
   1  -3  -1 190.445 11.9556  17
   1  -3  -1 182.897 15.1884  20
  -1  -3   1 212.655 14.8381   8
   1  -3  -1 194.266 10.9197  21
   1  -3  -1 168.689 10.6827  15
   1  -3  -1 171.244 14.7828   9
   1  -3  -1 173.868 13.8875  19
   1  -3  -1 194.210 11.2094  18
  -1  -3   1 202.119 15.1984   2
   1  -3  -1 195.352 13.3622  23
   1  -3  -1 193.043 14.9874   8
   1  -3  -1 188.586 11.7917  24
  -1   3   1 190.555 11.7299  17
  -1   3   1 196.272 14.1878  19
  -1   3   1 200.186 12.0620  11
  -1   3   1 199.174 11.1810  16
  -1   3   1 165.890 11.8486  22
   1   3  -1 205.595 11.9832  11
  -1   3   1 196.130 13.1514  23
  -1   3   1 182.704 11.7421  24
  -1   3   1 168.530 15.3599  20
  -1   3   1 217.722 12.3929  10
  -1   3   1 197.124 14.9212   3
  -1   3   1 185.163 11.0606  18
   1   3  -1 202.732 14.9669   3
   1   3  -1 193.351 12.1118  10
   0  -3  -1 162.483 11.5947  19
   0  -3  -1 151.409 9.05584  21
   0  -3  -1 141.270 12.4995   9
   0  -3  -1 159.211 8.85076  15
   0  -3   1 169.408 9.03394  18
   0  -3  -1 171.323 9.84564  17
   0  -3  -1 148.382 12.3067   8
   0  -3   1 167.779 12.8899   2
   0  -3   1 164.524 12.5453   8
   0  -3  -1 163.545 12.6651  20
   0  -3  -1 161.726 9.30923  18
   0  -3   1 177.084 9.67361  17
   0  -3   1 166.415 8.76760   1
   0  -3  -1 161.839 12.8342   2
   0   3   1 157.106 9.16368  16
   0   3   1 166.268 10.2998  10
   0   3  -1 168.786 10.1554  10
   0   3   1 154.456 12.4341   3
   0   3   1 138.930 12.3301  20
   0   3   1 157.905 10.1171  11
   0   3   1 130.119 11.2883  19
   0   3   1 161.186 11.4174  19
   0   3   1 142.088 9.74299  22
   0   3  -1 160.989 12.6959   3
   0   3   1 175.060 12.8466  20
   0   3  -1 152.878 8.93982  16
   0   3  -1 150.922 12.4706   9
   1  -3   1 372.904 22.9334  15
  -1  -3  -1 420.925 23.0883  18
   1  -3   1 405.465 31.5716   8
   1  -3   1 389.799 22.3844   1
  -1  -3  -1 458.083 25.0246  17
   1  -3   1 418.246 32.3300   2
   1  -3   1 448.288 25.1862  17
   1  -3   1 427.341 23.1714  18
  -1  -3  -1 444.818 31.9972   2
  -1  -3  -1 402.752 22.8295  15
   1  -3   1 420.480 23.3671  21
  -1  -3  -1 438.141 31.3803   9
  -1  -3  -1 426.798 31.5387   3
  -1  -3  -1 404.661 23.2496  21
  -1   3  -1 408.485 23.2988  16
   1   3   1 444.420 25.0032  22
   1   3   1 411.511 23.2351  16
   1   3   1 443.180 25.5820  10
  -1   3  -1 380.934 31.4974  20
  -1   3  -1 408.056 25.1248  22
   1   3   1 453.997 25.7016  11
  -1   3  -1 438.467 29.1065  19
  -1   3  -1 390.462 31.2766   9
  -1   3  -1 395.812 31.6093   3
   2  -3   1 7.64540 2.87856   1
   2  -3   1 7.76136 1.50437  21
  -2  -3  -1 6.58178 3.40738   3
   2  -3   1 6.65059 4.28034   2
   2  -3   1 11.3886 3.02759  23
  -2  -3  -1 13.2808 2.67936  17
   2  -3   1 8.77246 4.32225   8
  -2  -3  -1 10.3178 1.44573  15
   2  -3   1 4.95405 2.08238  15
  -2  -3  -1 7.03845 3.06596  18
  -2  -3  -1 10.2701 1.51087  21
   2  -3   1 9.51653 1.90263  24
  -2   3  -1 7.04466 2.98180  10
  -2   3  -1 7.18165 5.59964  20
  -2   3  -1 10.6927 4.63680  19
  -2   3  -1 9.18777 1.54655  24
  -2   3  -1 8.30356 2.44237  16
  -2   3  -1 5.26348 2.70435  22
   2   3   1 10.5576 1.65889  16
   2   3   1 11.4863 1.91990  22
  -2   3  -1 9.19399 4.69417   3
  -2   3  -1 9.46299 2.12015  23
   2   3   1 7.54149 2.73403  10
   2   3   1 6.44659 2.61217  11
   3  -3   1 390.498 25.4850  24
  -3  -3  -1 437.164 23.6190  21
  -3  -3  -1 437.579 23.2465  15
   3  -3   1 455.708 28.7550  23
   3  -3   1 392.862 23.3680   1
   3  -3   1 411.620 18.9919   4
  -3  -3  -1 411.595 32.7401   3
   3  -3   1 383.673 20.7538  12
  -3  -3  -1 426.189 26.4750  10
   3   3   1 411.181 23.4467   7
  -3   3  -1 359.589 32.9067   3
  -3   3  -1 404.829 20.6464   6
   3   3   1 447.633 23.4188  16
   3   3   1 448.116 25.3038  22
   3   3   1 401.087 20.5446   6
   3   3   1 448.536 26.7911  11
  -3   3  -1 432.135 28.7223  23
   3   3   1 406.943 20.3078  14
  -3   3  -1 435.479 25.4508  24
  -3   3  -1 398.082 20.3328  14
  -4  -3  -1 5.35687 2.59957  15
  -4  -3  -1 4.16300 2.59524  21
  -4  -3  -1 4.73344 1.77843   6
   4  -3   1 3.49856 1.95241   4
   4   3   1 2.35633 1.99996   7
   4   3   1 3.39604 2.21174  22
   4   3   1 1.94674 1.89415  16
   4   3   1 2.40803 1.73586  14
  -4   3  -1 3.81966 2.02751   6
  -5  -3  -1 40.8833 3.08285   6
   5  -3   1 33.8921 2.76569   4
   5   3   1 38.7907 3.01709  14
   5   3   1 33.6886 3.26260   7
   5   4  -1 3.16414 1.59825   7
   5   4  -1 3.82965 1.47562  14
  -5   4   1 2.85022 1.79367  14
  -4  -4   1 50.3293 3.93309  15
  -4  -4   1 47.3350 4.13498  21
   4  -4  -1 44.3719 3.79866  12
   4   4  -1 48.4843 4.15304   7
  -4   4   1 42.3373 3.81511  14
   4   4  -1 50.8425 3.65586  14
  -4   4   1 40.8377 5.77979  23
   4   4  -1 47.8937 3.82307   6
  -4   4   1 52.7743 4.77906  24
  -3  -4   1 304.198 24.1689   3
  -3  -4   1 312.125 19.6849  10
   3  -4  -1 323.013 20.8385  23
   3  -4  -1 268.380 18.5148  24
   3  -4  -1 290.381 15.1692  12
   3  -4  -1 292.389 24.5850   8
  -3   4   1 304.891 20.5753  10
  -3   4   1 302.331 18.6035  24
  -3   4   1 308.654 15.0156  14
  -3   4   1 292.870 21.0424  23
   3   4  -1 313.184 14.8814  14
   3   4  -1 291.151 14.9314   6
   3   4  -1 301.130 17.1033   7
   3   4  -1 299.767 19.7303  11
  -2  -4   1 11.9208 3.65337   3
   2  -4  -1 12.8407 4.78115   2
   2  -4  -1 10.4801 2.02784  24
   2  -4  -1 21.8833 3.58459  23
   2  -4  -1 9.30323 1.62225  12
   2  -4  -1 13.3507 5.56546   8
  -2   4   1 7.42368 5.38056  20
  -2   4   1 15.9207 5.30642  19
  -2   4   1 11.9244 1.92782  24
  -2   4   1 18.4914 2.90183  23
   2   4  -1 14.7154 3.12155  11
  -2   4   1 14.3477 3.80092  10
   2   4  -1 11.9124 2.96128  10
   2   4  -1 16.3476 1.65762  14
   2   4  -1 12.5733 1.54624   6
  -2   4   1 14.1592 1.77704  14
   1  -4  -1 84.3181 7.86994   8
   1  -4  -1 78.1964 7.63665   9
  -1  -4   1 89.8764 7.81759   2
   1  -4  -1 85.6321 6.14254  18
   1  -4  -1 70.6687 4.99812  15
   1  -4  -1 79.1665 5.18183  21
   1  -4  -1 82.4778 6.24885  17
   1  -4  -1 79.7729 5.59230  24
   1  -4  -1 83.1093 6.49374  23
   1  -4  -1 83.2616 7.91070   2
  -1  -4   1 86.8789 7.53190   9
  -1  -4   1 85.2621 7.60677   8
  -1   4   1 72.6284 5.89769  22
  -1   4   1 84.4145 6.46749  10
   1   4  -1 83.6517 5.79747  11
  -1   4   1 78.8995 7.76700   3
  -1   4   1 72.0922 7.11290  19
  -1   4   1 78.5053 5.57302  16
   1   4  -1 85.5150 7.58635   3
   1   4  -1 78.6574 6.28966  10
   0  -4  -1 162.129 14.2816   9
   0  -4   1 180.464 10.2796  18
   0  -4  -1 178.426 14.6541   2
   0  -4  -1 173.173 9.93920  15
   0  -4   1 191.292 14.3910   8
   0  -4   1 179.395 10.9269  17
   0  -4   1 163.190 10.0047  21
   0  -4   1 190.816 9.86242  15
   0  -4  -1 177.950 11.1056  17
   0  -4   1 180.396 14.6915   2
   0  -4  -1 178.953 10.5435  18
   0  -4  -1 177.777 10.2267  21
   0   4   1 161.175 11.4414  11
   0   4   1 176.773 10.9906  22
   0   4  -1 166.974 14.4839   3
   0   4  -1 173.483 11.5836  10
   0   4  -1 178.417 10.0983  16
   0   4   1 167.817 11.6212  10
   0   4   1 176.209 12.8108  19
   0   4   1 179.884 10.3088  16
   0   4  -1 186.757 10.8191  22
   0   4   1 181.445 14.1594  20
   0   4   1 174.577 14.1885   3
  -1  -4  -1 485.213 36.8679   9
   1  -4   1 473.192 27.3661  21
  -1  -4  -1 444.090 37.5405   2
  -1  -4  -1 521.634 37.1442   3
   1  -4   1 460.674 37.2112   8
  -1  -4  -1 512.240 26.7567  15
   1  -4   1 462.240 27.2050  18
  -1  -4  -1 482.351 27.2274  21
   1  -4   1 456.698 26.8353  15
   1  -4   1 488.041 29.5796  17
  -1  -4  -1 540.817 27.1885  18
  -1  -4  -1 526.277 29.3373  17
   1  -4   1 483.685 38.0611   2
  -1   4  -1 478.049 37.2053   3
  -1   4  -1 511.629 27.2987  16
  -1   4  -1 502.268 30.0369  10
   1   4   1 491.881 29.9992  10
  -1   4  -1 474.532 29.3956  22
   1   4   1 512.954 30.0172  11
  -1   4  -1 406.211 33.8334  19
   1   4   1 525.923 29.2049  22
   1   4   1 527.705 27.2034  16
   2  -4   1 179.501 15.0870   8
  -2  -4  -1 176.878 10.6188  18
  -2  -4  -1 164.218 9.74993  15
   2  -4   1 168.836 10.1589  21
  -2  -4  -1 167.405 14.5561   3
   2  -4   1 180.758 11.1510  24
  -2  -4  -1 185.203 9.99262  21
   2  -4   1 177.744 12.6051  23
  -2  -4  -1 171.428 11.0521  17
   2  -4   1 151.190 10.0773  15
   2  -4   1 144.076 14.9284   2
   2   4   1 170.018 11.8434  11
  -2   4  -1 149.062 15.3066   3
  -2   4  -1 163.756 11.4533  22
  -2   4  -1 171.596 10.5492  16
   2   4   1 177.911 8.68779  14
   2   4   1 175.538 9.88587  16
   2   4   1 167.132 8.69815   6
   2   4   1 175.233 10.0656   7
  -2   4  -1 154.491 12.2938  10
   2   4   1 178.200 10.6793  22
   2   4   1 187.735 11.9872  10
  -2   4  -1 165.060 15.2321  20
  -2   4  -1 159.915 14.1760  19
  -2   4  -1 172.402 8.94295   6
  -3  -4  -1 123.899 7.40127  15
   3  -4   1 108.977 8.15503  24
   3  -4   1 114.198 9.14080  23
   3  -4   1 113.141 6.60491  12
  -3  -4  -1 122.749 7.43326  21
   3   4   1 108.651 7.79991  22
   3   4   1 121.156 7.37662   7
   3   4   1 117.522 6.49175   6
   3   4   1 117.292 6.43272  14
  -3   4  -1 114.325 6.73350   6
   3   4   1 115.303 7.02616  16
   4  -4   1 426.204 19.6210   4
  -4  -4  -1 431.299 24.0800  15
  -4  -4  -1 434.525 21.2976   6
   4   4   1 440.414 21.0125  14
  -4   4  -1 404.204 21.3339   6
   4   4   1 440.163 24.2072   7
  -5  -4  -1 87.7975 5.48913   6
   5   4   1 114.165 6.15873   7
   5   5  -1 8.45317 1.50774   7
   5   5  -1 6.64782 1.33952  14
  -5   5   1 8.20284 1.65890  14
  -4  -5   1 46.1676 3.79570  15
   4  -5  -1 42.9945 3.65775  12
  -4   5   1 38.4716 3.84992  14
   4   5  -1 43.7109 3.44197  14
   4   5  -1 46.1927 3.92728   7
   4   5  -1 39.3034 3.31502   6
   3  -5  -1 71.1135 6.06428  24
   3  -5  -1 80.7628 6.85245  23
   3  -5  -1 73.9388 4.82270   5
   3  -5  -1 79.4209 4.91825  12
   3   5  -1 77.2986 4.72166   6
   3   5  -1 82.3526 5.47485   7
   3   5  -1 80.9155 4.86798  14
  -3   5   1 77.3180 5.21347  14
   2  -5  -1 67.2222 4.29393  12
   2  -5  -1 67.2421 4.07603   5
   2  -5  -1 70.3541 6.63683  23
   2  -5  -1 70.8730 5.50499  24
   2  -5  -1 63.2456 9.01334   2
  -2  -5   1 78.4095 8.27797   3
   2  -5  -1 69.7922 9.27905   8
   2   5  -1 68.0473 4.65353   7
   2   5  -1 66.9398 4.20074  14
  -2   5   1 65.7499 4.47071  14
  -2   5   1 45.4817 8.15598  19
  -2   5   1 66.7689 7.75191  10
   2   5  -1 69.4768 4.16768   6
   2   5  -1 67.9213 6.52094  10
   1  -5  -1 22.2650 4.30561  18
   1  -5  -1 28.9325 3.60391  24
   1  -5  -1 16.3210 6.08427   8
   1  -5  -1 25.6458 2.60755  12
   1  -5  -1 26.6859 2.74037  15
   1  -5  -1 22.5950 5.11953   9
   1  -5  -1 30.2461 4.27478  23
  -1  -5   1 35.4309 5.33439   2
  -1  -5   1 40.3759 5.41282   9
   1  -5  -1 32.6787 3.19766  21
  -1  -5   1 35.2274 3.11007  17
   1  -5  -1 30.8418 6.03981   2
  -1   5   1 18.1825 4.84221  20
   1   5  -1 21.7155 2.00381   5
  -1   5   1 20.1917 1.97300  13
  -1   5   1 28.9698 5.18822   3
  -1   5   1 20.8028 4.97077  19
   1   5  -1 27.2608 2.35591  13
   1   5  -1 29.4806 2.66962   6
  -1   5   1 26.8281 2.75245  14
   1   5  -1 28.0894 2.61990  14
   1   5  -1 46.5878 6.32816   3
  -1   5   1 30.7776 3.71496  16
  -1   5   1 17.4599 3.53616  10
  -1   5   1 26.1554 3.29376  22
   1   5  -1 37.9779 4.62415  10
   0  -5   1 105.871 5.84180  15
   0  -5   1 90.9921 6.74688  17
   0  -5  -1 87.6454 9.41855   9
   0  -5   1 98.6062 9.54376   2
   0  -5   1 98.4580 5.93527  21
   0  -5  -1 101.539 6.19168  21
   0  -5  -1 97.8975 9.67540   2
   0  -5   1 94.0960 6.65660  18
   0  -5   1 90.7680 9.11580   9
   0  -5  -1 100.338 7.06705  17
   0  -5   1 102.385 9.41247   8
   0  -5  -1 101.559 5.90214  15
   0  -5  -1 108.630 7.29087  18
   0   5  -1 92.5291 5.50272   6
   0   5   1 100.957 6.31001  16
   0   5   1 101.146 9.39144   3
   0   5  -1 90.0878 5.06722  13
   0   5  -1 81.9135 9.59284   3
   0   5   1 87.0268 7.86443  10
   0   5  -1 92.6228 5.33716   5
   0   5   1 90.9828 5.39249  14
   0   5   1 103.319 6.72703  22
   0   5  -1 93.6014 7.83582  10
   0   5  -1 107.085 6.39982  22
   0   5   1 94.0323 5.03609  13
  -1  -5  -1 181.336 10.0552  21
  -1  -5  -1 171.969 14.6943   9
   1  -5   1 168.489 10.9342  18
  -1  -5  -1 177.908 9.75493  15
  -1  -5  -1 184.436 10.9837  18
   1  -5   1 175.881 15.3796   2
  -1  -5  -1 176.597 14.6575   3
   1  -5   1 154.367 10.0490  21
  -1  -5  -1 170.278 10.9826  17
   1  -5   1 176.285 9.99620  15
   1  -5   1 155.575 14.3975   9
  -1   5  -1 161.519 8.67703   5
   1   5   1 164.360 8.72373  14
   1   5   1 173.000 11.8314  11
   1   5   1 168.356 9.91130  16
  -1   5  -1 160.337 8.93781  12
  -1   5  -1 166.832 15.3822   3
  -1   5  -1 179.267 10.2654  16
   1   5   1 168.289 10.0323   7
  -1   5  -1 161.680 8.90606   6
  -1   5  -1 173.584 11.0421  22
   1   5   1 169.996 8.76022   6
  -1   5  -1 162.737 8.27139  13
   1   5   1 161.914 11.8682  10
   1   5   1 188.128 10.6998  22
   1   5   1 162.878 8.17409  13
  -2  -5  -1 723.586 38.2348  21
   2  -5   1 660.234 38.5520  21
   2  -5   1 634.022 37.8365  15
   2  -5   1 690.313 33.9025  12
  -2  -5  -1 669.074 52.0960   3
   2  -5   1 638.468 46.7212  23
   2  -5   1 710.301 41.7763  24
   2  -5   1 564.011 53.2489   2
   2  -5   1 725.858 52.3910   8
  -2  -5  -1 698.579 37.5700  15
  -2   5  -1 722.640 38.5233  16
   2   5   1 707.768 33.3236   6
  -2   5  -1 684.046 33.4536   6
  -2   5  -1 677.925 32.9677   5
   2   5   1 701.473 32.9516  14
   2   5   1 706.376 38.0959   7
  -2   5  -1 675.066 52.6705   3
  -2   5  -1 710.683 41.5594  22
   2   5   1 690.004 42.2589  10
   2   5   1 722.081 42.3425  11
  -3  -5  -1 1.53714 2.47887  21
   3  -5   1 1.89278 3.13366  24
  -3  -5  -1 2.93511 2.00187  15
   3  -5   1 3.00078 4.06795  23
   3  -5   1 0.15422 1.94130  12
   3   5   1 3.68357 1.70440  14
   3   5   1 2.09481 1.56621   6
   3   5   1 1.39037 1.74401   7
  -3   5  -1 2.79033 2.06124   6
  -4  -5  -1 84.7779 5.03542   6
   4  -5   1 83.1240 5.19310  12
   4   5   1 84.9706 5.68668   7
   4   5   1 88.6623 5.00642  14
   4  -6  -1 21.0118 2.27544  12
   4   6  -1 19.2953 2.00368  14
  -4   6   1 14.5835 2.24137  14
   4   6  -1 22.9662 2.33742   7
   4   6  -1 21.2515 1.99390   6
   3  -6  -1 47.0708 5.25453  24
  -3  -6   1 47.6735 4.37366  21
   3  -6  -1 59.8111 4.00090  12
   3  -6  -1 49.5892 3.80832   5
   3  -6  -1 54.6334 5.87052  23
  -3  -6   1 48.4038 3.92785  15
   3   6  -1 61.6259 4.34753   7
   3   6  -1 53.2252 3.78384  14
  -3   6   1 46.2377 4.34760  14
   3   6  -1 54.3977 3.70110   6
   2  -6  -1 3.22397 4.68024  23
   2  -6  -1 0.91447 1.50247   5
   2  -6  -1 1.16976 1.66382  12
   2  -6  -1 -0.1676 2.89436  24
   2   6  -1 2.45489 1.49595  14
  -2   6   1 0.98097 3.59346  16
   2   6  -1 3.23506 1.41719   6
   2   6  -1 2.11518 1.61961   7
  -2   6   1 2.04782 2.07231  14
   2   6  -1 0.97305 1.31111  13
  -2   6   1 0.30586 3.09482  22
   1  -6  -1 1.25737 4.88163  18
   1  -6  -1 2.90589 2.26112  21
   1  -6  -1 2.16452 1.72142  12
   1  -6  -1 0.91817 7.15476   8
   1  -6  -1 0.31137 4.27779  17
  -1  -6   1 3.73576 4.45677   9
  -1  -6   1 3.80514 5.52933   2
  -1  -6   1 5.76541 1.63994  21
   1  -6  -1 2.08090 6.09645   2
  -1  -6   1 4.43231 1.24862  15
   1  -6  -1 1.65109 5.09084   9
   1  -6  -1 2.35805 1.49600   5
   1  -6  -1 2.12965 1.95181  15
   1   6  -1 4.93026 1.45794  13
  -1   6   1 1.83345 2.65331  16
   1   6  -1 3.46502 5.32371   3
  -1   6   1 3.77016 1.95938  14
  -1   6   1 4.28356 1.72559   6
  -1   6   1 2.00035 1.43122  13
   1   6  -1 4.93682 1.65247  14
   1   6  -1 3.20103 1.61076   6
   1   6  -1 3.54362 3.01357  10
  -1   6   1 2.27010 2.25703   7
  -1   6   1 3.25772 2.73105  22
  -1   6   1 1.65094 4.70447   3
  -1   6   1 1.69145 4.09685  10
   1   6  -1 2.36023 1.37988   5
   0  -6  -1 229.730 13.1467  15
   0  -6   1 241.407 20.0905   2
   0  -6  -1 228.063 19.4170   9
   0  -6  -1 216.624 19.7830   2
   0  -6  -1 244.661 13.6355  21
   0  -6   1 247.284 13.4253  21
   0  -6   1 260.758 13.1756  15
   0  -6   1 210.159 18.9736   9
   0  -6   1 226.114 19.4366   8
   0  -6  -1 221.177 11.4988   5
   0   6   1 234.958 13.4618   7
   0   6  -1 222.539 11.7640   6
   0   6  -1 202.646 19.2429   3
   0   6   1 222.588 15.9854  10
   0   6  -1 234.859 15.8666  10
   0   6   1 215.295 11.7050   6
   0   6   1 227.912 10.9497  13
   0   6   1 260.968 14.5063  22
   0   6  -1 226.657 11.6420  14
   0   6  -1 224.122 11.5774   5
   0   6   1 227.366 11.6437  14
   0   6  -1 224.199 11.8128  12
   0   6  -1 218.146 10.9517  13
   0   6   1 254.695 13.6460  16
   1  -6   1 16.0106 2.43098  21
  -1  -6  -1 17.5537 5.44262   3
   1  -6   1 25.2939 7.66034   2
  -1  -6  -1 23.1161 2.76481  21
  -1  -6  -1 20.5458 6.09920   9
   1  -6   1 13.4127 7.43882   8
  -1  -6  -1 21.7544 2.40865  15
   1  -6   1 19.3999 2.64815  15
   1  -6   1 15.1729 5.59000   9
  -1   6  -1 18.5294 2.35860   6
  -1   6  -1 19.9017 2.52662  14
  -1   6  -1 18.6332 6.61911   3
   1   6   1 20.5083 2.07796   6
   1   6   1 21.2588 2.51045   7
  -1   6  -1 23.2021 3.42757  22
   1   6   1 21.1251 1.96384  13
   1   6   1 17.4794 4.77281  10
   1   6   1 20.2462 2.07594  14
   1   6   1 14.5782 2.04051  16
  -1   6  -1 18.1894 2.13565  13
  -1   6  -1 24.5285 2.31077   5
  -1   6  -1 20.2748 3.02355  16
   1   6   1 31.4291 3.23698  22
   2  -6   1 500.960 24.9954  12
   2  -6   1 471.367 30.9150  24
  -2  -6  -1 492.161 27.6961  15
   2  -6   1 438.629 34.6207  23
  -2  -6  -1 520.809 28.3061  21
  -2   6  -1 504.594 28.7059  16
   2   6   1 518.271 28.0836   7
  -2   6  -1 488.840 24.7532   6
  -2   6  -1 494.876 30.7924  22
  -2   6  -1 520.201 24.3333   5
   2   6   1 518.748 24.2977  14
   2   6   1 529.347 24.5790   6
  -3  -6  -1 340.158 19.3506  15
   3  -6   1 349.357 24.3411  23
   3  -6   1 350.787 17.3631  12
   3   6   1 338.510 16.8841  14
   3   6   1 346.363 17.1345   6
  -3   6  -1 327.961 17.2779   6
   3   6   1 343.150 19.4443   7
   4  -6   1 50.3884 3.50020  12
  -4  -6  -1 54.8925 3.42560   6
   4   6   1 48.3531 3.37553  14
   4   6   1 51.3689 3.75863   7
   4  -7  -1 2.84534 1.47384  12
  -4   7   1 1.36216 1.57137  14
   4   7  -1 1.58673 1.20202  14
   4   7  -1 2.48981 1.31413   7
   3  -7  -1 127.384 6.91991   5
   3  -7  -1 137.625 7.27309  12
   3   7  -1 134.407 7.89835   7
   3   7  -1 131.443 6.91667   6
   3   7  -1 125.541 6.88164  14
  -3   7   1 110.588 7.24708  14
   2  -7  -1 151.846 7.80727   5
   2  -7  -1 156.069 8.07699  12
   2  -7  -1 144.240 10.6947  24
  -2  -7   1 151.858 8.71979  15
  -2  -7   1 165.426 9.11443  21
   2  -7  -1 123.560 11.7085  23
  -2   7   1 139.331 10.0789  16
  -2   7   1 139.082 8.30032  14
   2   7  -1 155.417 7.91299  14
  -2   7   1 122.381 10.4738  22
   2   7  -1 151.120 7.30372  13
   2   7  -1 155.826 7.86960   6
  -1  -7   1 296.372 15.8087  15
   1  -7  -1 286.355 14.0137   5
  -1  -7   1 298.414 16.2244  21
   1  -7  -1 259.270 16.6450  21
  -1   7   1 286.813 16.6431  16
   1   7  -1 280.433 13.2438  13
  -1   7   1 267.562 13.2824  13
  -1   7   1 309.916 14.3130  14
  -1   7   1 251.164 14.1220   6
   1   7  -1 293.370 14.1376  14
   1   7  -1 291.187 14.2317   6
  -1   7   1 274.346 17.6996  22
   1   7  -1 264.150 13.9185   5
   0  -7  -1 23.0313 2.86500  15
   0  -7   1 23.1397 2.53465  15
   0  -7   1 22.7323 2.86001  21
   0  -7  -1 23.9541 3.20561  21
   0  -7  -1 23.6315 2.18829   5
   0   7   1 18.8008 3.02090  16
   0   7   1 26.0306 3.01052   7
   0   7   1 22.0086 2.49795  14
   0   7   1 32.3618 3.70582  22
   0   7   1 26.8531 2.29569  13
   0   7  -1 28.1050 2.55743   6
   0   7  -1 27.4489 2.60320  14
   0   7  -1 25.9840 2.33802  13
   0   7  -1 26.2511 2.50840   5
   0   7   1 23.9863 2.36605   6
  -1  -7  -1 18.8352 2.93162  21
   1  -7   1 10.6948 2.33972  15
   1  -7   1 15.1679 2.23146  12
   1  -7   1 10.8853 2.63192  21
  -1  -7  -1 13.8990 2.35857  15
  -1   7  -1 15.7352 3.29536  22
  -1   7  -1 13.8862 2.55118  14
  -1   7  -1 13.9262 2.08676   5
   1   7   1 12.6849 1.66056   6
   1   7   1 18.6100 2.50106   7
  -1   7  -1 15.0116 2.30618   6
  -1   7  -1 14.1513 2.05189  13
  -1   7  -1 12.4090 3.16306  16
   1   7   1 14.6637 1.77404  13
   1   7   1 13.1958 2.01337  14
  -2  -7  -1 26.5614 2.92719  15
   2  -7   1 13.9745 4.30834  24
   2  -7   1 29.2370 2.68699  12
  -2  -7  -1 31.7019 3.65103  21
  -2   7  -1 26.6384 2.76704   6
  -2   7  -1 25.7665 4.43824  22
   2   7   1 28.6762 2.71653   6
  -2   7  -1 22.3773 4.25774  16
   2   7   1 25.4526 3.03494   7
   2   7   1 26.7741 2.73638  14
   3  -7   1 459.561 22.3733  12
   3   7   1 453.352 21.7669  14
   3   7   1 444.328 25.1070   7
  -3   7  -1 422.433 22.0947   6
   3   7   1 464.471 22.0939   6
   3  -8  -1 119.026 6.20065  12
   3  -8  -1 108.663 5.93254   5
   3   8  -1 109.606 5.91499  14
   3   8  -1 119.650 5.97480   6
  -3   8   1 98.9598 6.16459  14
   2  -8  -1 6.58447 1.71233   5
   2  -8  -1 7.31479 1.92628  12
  -2   8   1 8.22683 2.16064  14
   2   8  -1 6.55087 1.55362  14
   2   8  -1 8.80912 1.42947   6
   2   8  -1 6.90834 1.30164  13
  -1  -8   1 126.902 7.13988  15
   1  -8  -1 116.164 6.18603   5
  -1   8   1 98.6669 7.94066  16
   1   8  -1 110.656 5.87717  13
   1   8  -1 115.919 6.34267  14
  -1   8   1 115.465 6.02181  13
  -1   8   1 98.5825 6.48075   6
  -1   8   1 118.956 6.61585  14
   1   8  -1 108.816 6.29111   6
   0  -8   1 1.35562 2.04731  21
   0  -8  -1 1.66842 2.68418  21
   0  -8  -1 1.01467 2.13442  15
   0  -8  -1 1.26339 1.45451   5
   0  -8   1 0.89325 2.04637  15
   0   8   1 1.73196 1.38933  13
   0   8  -1 1.10533 1.61897   5
   0   8   1 0.43459 1.49420   6
   0   8  -1 2.71136 1.85375  14
   0   8   1 2.73384 1.86713  14
   0   8  -1 0.39294 1.31136  13
   0   8  -1 2.11951 1.69943   6
   1  -8   1 381.318 18.7294  12
  -1  -8  -1 371.595 17.2091  13
  -1   8  -1 371.464 17.3016  13
  -1   8  -1 377.789 18.5642   6
   1   8   1 367.270 18.2928  14
   1   8   1 374.247 18.4138   6
   1   8   1 363.698 21.0622   7
   2  -8   1 109.203 6.04933  12
   2  -8   1 107.428 5.80716   5
   2   8   1 109.606 5.81022  14
  -2   8  -1 92.5242 6.05386   6
   2   8   1 103.887 6.66194   7
   2   8   1 116.895 5.89414   6
   3  -8   1 79.2776 4.43326  12
   3   8   1 74.5674 4.21537   6
   3   8   1 75.7858 4.16995  14
   3   8   1 74.5837 4.78201   7
   2  -9  -1 403.367 18.2825   5
  -2   9   1 343.267 18.3179  14
   2   9  -1 381.537 18.4066   6
   1  -9  -1 6.42102 1.47041   5
   1  -9  -1 4.11422 1.28395  13
   1   9  -1 4.33253 1.37147  14
  -1   9   1 5.87740 1.83376  14
   1   9  -1 4.49363 1.12004   6
   1   9  -1 6.32174 1.20488  13
   0  -9  -1 223.062 10.7951  13
   0  -9  -1 226.826 11.3880   5
   0  -9   1 231.820 11.4252   5
   0   9   1 214.949 11.4838   6
   0   9   1 232.937 11.6155  14
   0   9  -1 240.264 11.6485   6
   0   9  -1 239.154 10.8626  13
   1  -9   1 90.9483 5.02689   5
  -1  -9  -1 101.070 4.77183  13
  -1   9  -1 90.1485 5.29302   6
   1   9   1 88.4194 5.00408   6
   1   9   1 86.2672 5.09471  14
  -1   9  -1 96.0287 4.82941  13
   2  -9   1 49.7728 3.33693  12
   2  -9   1 52.6208 3.14500   5
   2   9   1 46.5909 3.03705  14
   2   9   1 51.2493 3.05400   6
   6   0  -2 67.8596 3.96837   4
  -6   0   2 77.2691 4.39787  14
  -5   0   2 12.2291 2.92767  21
  -5   0   2 15.8932 3.24400  15
   5   0  -2 12.8054 2.43184   7
   5   0  -2 15.3752 1.90605   4
   4   0  -2 2214.12 127.827   7
   4   0  -2 2373.91 103.373   4
   4   0  -2 2024.57 137.201  22
   4   0  -2 2358.29 110.618  14
  -4   0   2 2221.33 139.729  11
   4   0  -2 2559.27 123.288   1
  -4   0   2 2420.59 139.423  10
  -4   0   2 2463.09 126.206  15
  -4   0   2 2364.26 128.454  21
  -3   0   2 32.9668 4.04440  10
   3   0  -2 31.4116 2.81278  16
  -3   0   2 32.4976 4.43322  11
   3   0  -2 39.3574 6.21277   8
  -3   0   2 34.2736 2.53566  15
   3   0  -2 30.6640 3.03320  22
  -3   0   2 34.9588 2.96620  21
   3   0  -2 24.5712 3.55974   1
  -3   0   2 33.8304 3.54764  18
  -3   0   2 34.2795 3.39489  17
  -2   0   2 2.38954 1.87393  11
  -2   0   2 1.88774 0.91072  21
   2   0  -2 2.64130 2.90526   8
  -2   0   2 1.33535 1.25396  17
   2   0  -2 2.32757 2.28989   2
   2   0  -2 1.65627 1.17496  22
  -2   0   2 1.54590 1.65630  10
  -2   0   2 1.58704 1.50297  18
  -2   0   2 0.80511 0.66860  15
  -1   0   2 2.21623 1.26775  17
  -1   0   2 4.57966 1.08895  18
  -1   0   2 5.13112 0.71459  15
   1   0  -2 6.25167 1.58280   9
   1   0  -2 3.48725 1.31386   1
   1   0  -2 10.1794 2.33888   2
  -1   0   2 6.38949 1.54257  11
  -1   0   2 6.83668 1.15491  17
   1   0  -2 4.65999 1.10501  22
   1   0  -2 5.71226 0.97447  16
  -1   0   2 4.12156 2.32887  19
  -1   0   2 4.28441 1.07704  10
  -1   0   2 5.87750 2.12725  20
  -1   0   2 3.80514 1.46231  18
   1   0  -2 5.58999 1.26945  19
   1   0  -2 9.50280 2.37461   8
  -1   0   2 4.48089 0.71742  21
   0   0   2 29.5620 1.83690  21
   0   0  -2 19.3066 2.91905  20
   0   0  -2 22.1014 2.14427  18
   0   0  -2 23.6092 1.80830  24
   0   0  -2 21.2327 1.95066  17
   0   0  -2 25.8798 3.01767  20
   0   0  -2 28.2753 3.27466   8
   0   0   2 25.7652 2.22875  17
   0   0  -2 22.2725 3.11042  19
   0   0  -2 31.3200 2.90903   9
   0   0   2 21.3414 3.03816  20
   0   0   2 21.9958 3.33216  19
   0   0  -2 27.3463 2.90143   2
   0   0  -2 23.8882 2.27770  22
   0   0  -2 30.6509 2.62157  19
   0   0   2 24.2223 2.36692  11
   0   0  -2 28.9042 2.68574   3
   0   0   2 23.9448 2.19696  18
   0   0   2 26.2339 2.24436   1
   1   0   2 53.1535 3.58150  21
  -1   0  -2 67.8186 5.22449   9
   1   0   2 58.7237 5.22595  19
   1   0   2 47.2947 5.12679   8
  -1   0  -2 68.2933 4.40278  23
   1   0   2 56.2404 5.62580  20
   1   0   2 53.4517 4.47760  23
  -1   0  -2 62.0279 4.96669  19
   1   0   2 56.8843 4.55997  11
   1   0   2 55.9959 4.00032   1
   1   0   2 60.0730 4.26110  17
  -1   0  -2 51.9591 3.88952  17
  -1   0  -2 56.0359 4.11039  18
   1   0   2 67.3445 4.20584  18
  -1   0  -2 58.9036 5.28399   3
  -1   0  -2 56.1196 6.02353  20
   1   0   2 44.3841 3.66297  15
   2   0   2 153.141 9.02253  24
  -2   0  -2 150.905 9.23177  24
   2   0   2 152.574 8.71328   1
   2   0   2 135.905 9.63970  11
   2   0   2 136.877 12.4173  20
  -2   0  -2 127.353 9.38527  17
  -2   0  -2 123.893 9.35735  10
   2   0   2 144.954 9.68723  22
   2   0   2 154.864 11.2293  19
  -2   0  -2 155.936 10.2628  23
   2   0   2 144.678 8.75257  16
  -2   0  -2 135.546 8.33868  15
   2   0   2 150.665 10.1461  23
  -2   0  -2 145.237 13.6498  20
  -2   0  -2 120.752 11.9155   3
  -2   0  -2 150.971 8.69406  21
   3   0   2 14.5453 4.16427   1
   3   0   2 12.2496 5.76083  19
  -3   0  -2 9.94330 4.82896   3
  -3   0  -2 17.0259 2.96242  24
   3   0   2 14.2103 1.77586   4
  -3   0  -2 13.4146 1.81498   6
  -3   0  -2 13.2855 3.25805  23
  -4   0  -2 76.0919 4.78483   6
   4   0   2 67.4036 5.81398  16
  -4   0  -2 72.7538 6.95376  23
   4   0   2 62.0866 6.75120  22
   4   0   2 77.5048 4.29210   4
   5   0   2 7.90302 1.44257   4
  -5   0  -2 8.44217 1.86446   6
  -6  -1   2 147.021 7.39920  14
  -6   1   2 135.275 7.42087  14
   5  -1  -2 422.760 22.9471  16
   5  -1  -2 405.047 18.6021   4
   5  -1  -2 379.724 23.0118   7
  -5  -1   2 415.063 22.8387  15
   5   1  -2 404.686 22.9889   7
   5   1  -2 401.781 18.5748   4
  -5   1   2 392.915 19.9994  14
   5   1  -2 417.433 19.9973  14
   4  -1  -2 20.3944 2.05371   4
  -4  -1   2 19.2215 2.32273  15
  -4  -1   2 17.3561 2.32083  21
   4  -1  -2 17.0164 3.30023  22
   4  -1  -2 15.6538 2.37091   7
   4  -1  -2 17.2385 2.52576  16
   4   1  -2 15.8502 2.23825   7
   4   1  -2 17.3852 1.93246   4
  -4   1   2 8.35157 5.69131  11
  -4   1   2 19.1412 2.83116  21
   4   1  -2 20.1894 2.02172  14
  -4   1   2 23.6058 2.88558  15
   3  -1  -2 611.294 35.0244  22
  -3  -1   2 581.310 32.0880  18
   3  -1  -2 535.920 32.4626   7
  -3  -1   2 586.420 35.7113  10
   3  -1  -2 587.925 43.8965   8
   3  -1  -2 590.206 32.5360  16
   3  -1  -2 586.276 31.6399   1
  -3  -1   2 593.251 34.8742  17
  -3  -1   2 630.303 32.5079  21
  -3  -1   2 587.856 31.8494  15
   3  -1  -2 538.314 28.1363  14
   3   1  -2 598.125 26.3158   4
  -3   1   2 590.691 32.6779  21
   3   1  -2 597.382 31.6411   1
  -3   1   2 604.480 35.8999  10
   3   1  -2 534.285 32.3949   7
  -3   1   2 565.414 35.7983  11
  -3   1   2 602.432 35.1476  17
  -3   1   2 583.259 32.0032  15
   3   1  -2 591.349 36.0760  11
   3   1  -2 574.087 43.7258   8
  -3   1   2 603.945 32.5217  18
   2  -1  -2 709.449 46.8895   8
   2  -1  -2 578.793 46.8202  20
   2  -1  -2 606.540 33.5714   1
   2  -1  -2 688.087 47.9635   2
   2  -1  -2 631.846 43.1509  19
  -2  -1   2 662.579 37.3292  17
   2  -1  -2 642.309 37.5410  22
  -2  -1   2 660.647 37.9193  10
   2   1  -2 642.199 46.7148   8
  -2   1   2 624.504 34.5494  18
  -2   1   2 653.751 37.5683  17
  -2   1   2 630.207 38.2006  11
  -2   1   2 603.736 34.3329  15
  -2   1   2 655.843 38.0754  10
  -2   1   2 586.803 34.9898  21
   2   1  -2 633.550 33.6231   1
   2   1  -2 544.718 47.7549   2
   1  -1  -2 192.682 12.7143  24
   1  -1  -2 232.771 15.9195   9
   1  -1  -2 189.403 11.8775  16
   1  -1  -2 211.537 11.9039  18
   1  -1  -2 185.742 12.7626  17
   1  -1  -2 191.207 14.9523  19
   1  -1  -2 190.815 11.4292   1
   1  -1  -2 217.848 14.2669  23
   1  -1  -2 209.364 14.7637  19
   1  -1  -2 224.803 16.1219  20
   1  -1  -2 198.537 12.7996  22
   1  -1  -2 175.136 16.1715  20
   1  -1  -2 236.216 16.4922   2
   1  -1  -2 215.860 16.0623   8
  -1  -1   2 217.466 13.0751  11
  -1   1   2 224.034 16.6470  20
  -1   1   2 220.385 11.8735  18
   1   1  -2 220.650 15.8892   9
   1   1  -2 223.669 11.5434   1
  -1   1   2 216.253 12.8033  17
  -1   1   2 215.786 13.0095  10
   1   1  -2 232.623 16.4920   2
   1   1  -2 221.884 16.1443   8
  -1   1   2 204.971 11.8542  21
  -1   1   2 198.086 11.6306  15
  -1   1   2 223.304 15.4280  19
  -1   1   2 227.724 13.1807  11
   0  -1  -2 503.009 40.0888   3
   0  -1   2 560.533 29.5351  18
   0  -1   2 542.488 37.3497  19
   0  -1  -2 510.965 29.7448  18
   0  -1  -2 556.766 40.1157   8
   0  -1  -2 577.641 41.2531   2
   0  -1   2 500.834 29.5862  18
   0  -1   2 508.392 32.7243  11
   0  -1  -2 604.584 36.6550  23
   0  -1   2 523.714 40.4654  20
   0  -1   2 590.425 30.0852  21
   0  -1  -2 501.332 32.3144  17
   0  -1   2 564.539 32.3020  17
   0  -1  -2 538.315 37.2962  19
   0  -1  -2 586.399 40.1218   9
   0  -1  -2 494.566 32.6400  24
   0   1   2 544.072 37.4782  19
   0   1  -2 622.850 40.1813   9
   0   1  -2 525.525 40.3040  20
   0   1   2 567.576 32.9784  11
   0   1  -2 538.738 40.2612  20
   0   1  -2 510.354 40.2546   3
   0   1  -2 629.220 41.4495   2
   0   1   2 563.680 29.7163  18
   0   1  -2 486.965 29.9644  16
   0   1   2 610.349 30.1665  21
   0   1  -2 534.861 40.2759   8
   0   1  -2 534.665 37.2555  19
   0   1   2 497.332 32.5188  10
   0   1   2 547.081 28.8384   1
   0   1  -2 571.097 37.0360  19
   0   1   2 534.977 40.6806  20
   0   1   2 542.390 32.3951  17
   0   1   2 578.074 32.6661  24
   0   1  -2 511.810 32.2852  22
   0   1   2 546.256 36.8069  23
   1  -1   2 355.763 19.7189  18
   1  -1   2 350.143 25.0396  19
   1  -1   2 361.617 19.3334   1
  -1  -1  -2 381.814 24.2468  23
   1  -1   2 374.326 19.9267  21
   1  -1   2 371.811 27.2673  20
   1  -1   2 342.762 19.6868  15
   1  -1   2 347.754 26.7776   8
  -1  -1  -2 384.914 26.6380   9
  -1  -1  -2 373.706 27.3295  20
  -1  -1  -2 353.683 19.9503  18
  -1  -1  -2 385.686 26.8430   3
   1  -1   2 323.801 24.2926  23
   1  -1   2 411.392 21.6598  24
  -1  -1  -2 399.701 24.9582  19
  -1  -1  -2 345.281 21.6423  24
  -1  -1  -2 357.246 27.2432   2
  -1  -1  -2 340.088 19.5613  15
   1  -1   2 372.591 21.5483  17
  -1  -1  -2 373.486 21.4522  17
  -1  -1  -2 322.192 19.9311  21
   1   1   2 343.102 27.1091  20
   1   1   2 352.130 21.5179  17
   1   1   2 312.206 21.5131  10
  -1   1  -2 340.106 19.9734  16
   1   1   2 364.213 19.2085   1
  -1   1  -2 313.429 21.3258  17
  -1   1  -2 383.455 27.2368  20
   1   1   2 374.595 22.0253  11
   1   1   2 380.123 21.5319  24
   1   1   2 365.643 24.9484  19
  -1   1  -2 346.890 26.5658   9
  -1   1  -2 342.773 27.4419   2
  -1   1  -2 330.807 24.1180  23
   1   1   2 353.361 20.0027  16
   1   1   2 312.795 21.4763  22
  -1   1  -2 326.632 21.4917  24
   1   1   2 357.131 19.7696  18
   1   1   2 351.207 24.1983  23
  -1   1  -2 413.455 27.2327   3
  -1   1  -2 352.878 21.5327  22
  -1   1  -2 381.595 24.7627  19
  -2  -1  -2 168.885 9.84787  21
  -2  -1  -2 152.716 10.8414  10
   2  -1   2 137.968 14.2630  20
   2  -1   2 164.834 12.9643  19
  -2  -1  -2 151.480 13.6584   3
  -2  -1  -2 176.233 11.9377  23
   2  -1   2 160.702 11.8337  23
   2  -1   2 181.322 10.5519  24
   2  -1   2 174.503 10.0099   1
  -2  -1  -2 158.192 9.54592  15
  -2  -1  -2 159.302 10.6381  17
  -2  -1  -2 159.101 10.3717  18
   2  -1   2 158.293 13.5812   8
  -2  -1  -2 167.892 10.7054  24
   2   1   2 174.607 11.4891  11
   2   1   2 171.428 9.93672  16
  -2   1  -2 181.543 14.8084  20
  -2   1  -2 151.338 13.8933   3
   2   1   2 183.984 14.2363  20
  -2   1  -2 175.132 11.8342  23
   2   1   2 179.311 9.95125   1
   2   1   2 171.496 10.8310  22
  -2   1  -2 166.040 12.8859  19
   2   1   2 188.316 12.7751  19
  -2   1  -2 165.109 10.5421  24
  -3  -1  -2 22.4911 6.06884   3
   3  -1   2 29.9898 4.92318   1
   3  -1   2 30.5179 2.69873   4
  -3  -1  -2 34.9290 4.52218  23
   3  -1   2 29.8924 6.33110  19
  -3  -1  -2 34.9440 4.20939  24
  -3  -1  -2 32.9178 2.89541   6
   3   1   2 37.1993 4.40904  22
  -3   1  -2 35.0175 3.77052  24
   3   1   2 34.0210 2.78041   4
  -3   1  -2 37.5345 4.00502  23
  -3   1  -2 26.7316 6.70315   3
  -3   1  -2 33.8398 2.96091   6
   3   1   2 26.2752 4.60805   1
   3   1   2 39.1302 3.84936  16
   3   1   2 30.4081 5.20684  11
  -4  -1  -2 73.5052 7.81079  23
  -4  -1  -2 89.9631 5.33659   6
  -4  -1  -2 91.5586 7.50945  24
   4  -1   2 89.8870 4.80793   4
   4   1   2 87.5668 6.29647  16
   4   1   2 85.0734 4.73991   4
  -4   1  -2 85.4193 5.35633   6
  -4   1  -2 96.8767 7.05328  24
   4   1   2 75.1855 7.05779  22
  -4   1  -2 71.8287 7.11646  23
  -5  -1  -2 21.1776 2.03368   6
   5  -1   2 11.4012 1.59644   4
  -5   1  -2 18.8150 2.05661   6
   5   1   2 13.0395 1.46720   4
   5  -2  -2 628.592 30.1823   4
  -5   2   2 615.491 32.4220  14
   5   2  -2 692.388 30.2385   4
   5   2  -2 718.952 32.4922  14
   5   2  -2 697.364 37.4384   7
   4  -2  -2 301.011 19.1651  22
   4  -2  -2 258.708 15.3545  12
   4  -2  -2 271.167 17.4233   7
  -4  -2   2 321.477 17.0651  15
   4  -2  -2 296.050 14.0767   4
  -4  -2   2 334.680 17.4544  21
  -4   2   2 323.906 15.2087  14
  -4   2   2 298.435 21.8147  23
  -4   2   2 296.599 17.4128  15
   4   2  -2 315.469 15.1224  14
   4   2  -2 298.102 17.3392   7
   4   2  -2 334.652 14.1079   4
  -4   2   2 299.418 17.9060  21
  -4   2   2 300.781 19.4917  24
   3  -2  -2 704.574 38.8473   7
   3  -2  -2 733.838 41.9544  22
   3  -2  -2 738.361 52.5812   8
   3  -2  -2 705.438 37.6605   1
   3  -2  -2 680.034 34.3907  12
   3  -2  -2 644.084 31.3095   4
  -3  -2   2 686.954 42.5410  10
  -3  -2   2 712.918 41.5129  17
   3  -2  -2 745.478 48.3070  19
   3  -2  -2 708.387 38.9784  16
   3  -2  -2 640.632 52.4053  20
   3   2  -2 723.457 37.6394   1
   3   2  -2 728.694 31.3285   4
  -3   2   2 698.824 38.2892  15
   3   2  -2 686.357 33.4947  14
  -3   2   2 742.424 42.9875  10
  -3   2   2 639.623 42.6771  11
   3   2  -2 758.014 43.0464  11
  -3   2   2 626.730 38.7190  18
  -3   2   2 708.102 39.0891  21
  -3   2   2 686.662 42.0143  17
  -3   2   2 717.126 42.5124  24
  -3   2   2 704.385 33.6012  14
   3   2  -2 679.895 38.7198   7
  -3   2   2 715.803 47.6946  23
   2  -2  -2 132.892 10.9204  20
   2  -2  -2 119.808 8.45255  22
   2  -2  -2 123.106 7.64428   1
   2  -2  -2 137.528 11.0933   2
   2  -2  -2 122.736 9.97071  19
  -2  -2   2 137.234 10.5321   3
   2  -2  -2 130.525 10.8948   8
  -2  -2   2 129.473 8.59068  10
  -2   2   2 125.483 7.47129  15
  -2   2   2 127.522 8.72047  11
   2   2  -2 131.314 7.65339   1
  -2   2   2 153.077 9.01724  10
   2   2  -2 128.367 10.7902   8
  -2   2   2 137.974 8.47312  17
  -2   2   2 120.095 9.36933  23
   2   2  -2 135.386 8.81458  11
  -2   2   2 129.523 7.74981  21
   2   2  -2 125.412 10.2287   9
  -2   2   2 129.660 8.12891  18
   2   2  -2 121.753 10.6008   2
   1  -2  -2 767.903 52.3733   2
   1  -2  -2 743.834 50.8787   8
   1  -2  -2 670.288 41.2663  24
   1  -2  -2 595.253 36.2669   1
   1  -2  -2 680.604 46.3653  23
   1  -2  -2 689.354 51.2836  20
   1  -2  -2 741.510 50.7353   9
   1  -2  -2 666.498 38.0481  16
   1  -2  -2 680.245 40.9447  22
   1  -2  -2 613.895 37.6191  18
   1  -2  -2 688.466 47.2244  19
  -1  -2   2 698.647 41.4151  11
   1  -2  -2 589.170 40.8759  17
  -1   2   2 693.968 38.1488  21
  -1   2   2 740.399 47.7624  19
  -1   2   2 605.233 41.3217  24
  -1   2   2 668.915 46.4416  23
   1   2  -2 787.722 50.9116   8
  -1   2   2 660.211 41.3875  10
  -1   2   2 673.280 40.9231  17
   1   2  -2 734.290 50.7217   9
  -1   2   2 719.497 51.6974  20
   1   2  -2 705.742 50.9011   3
   1   2  -2 637.960 41.0905  10
  -1   2   2 707.498 37.5024  15
   1   2  -2 745.835 52.3288   2
  -1   2   2 756.210 41.6446  11
   0  -2  -2 2606.43 215.201   3
   0  -2  -2 2722.45 173.249  17
   0  -2  -2 2899.93 214.489   9
   0  -2  -2 2766.32 175.567  24
   0  -2   2 2990.12 158.261  18
   0  -2  -2 2939.62 214.393   8
   0  -2   2 3229.33 154.302   1
   0  -2  -2 3176.38 220.892   2
   0  -2  -2 2676.59 159.216  15
   0  -2  -2 2990.65 216.320  20
   0  -2  -2 2835.58 162.062  21
   0  -2  -2 2546.04 197.032  23
   0  -2  -2 2996.68 199.246  19
   0  -2  -2 2782.23 158.455  18
   0  -2   2 3262.24 158.182  18
   0  -2   2 3053.74 173.164  17
   0  -2   2 2899.44 159.185  15
   0   2  -2 3377.46 221.072   2
   0   2   2 2845.32 161.326  16
   0   2   2 3183.79 158.361  18
   0   2   2 2822.24 173.307  17
   0   2   2 2908.11 216.239  20
   0   2  -2 3137.96 214.519   9
   0   2   2 2858.10 197.089  23
   0   2  -2 3309.42 215.546   3
   0   2   2 3000.59 174.531  10
   0   2   2 2925.26 175.494  11
   0   2  -2 2920.49 173.206  22
   0   2  -2 3022.26 161.060  16
   0   2   2 2951.21 199.353  19
   1  -2   2 371.957 22.7801  17
  -1  -2  -2 398.221 28.3637   9
  -1  -2  -2 384.534 28.5421   3
  -1  -2  -2 362.305 21.1725  21
  -1  -2  -2 381.258 21.1941  18
  -1  -2  -2 384.545 23.0112  24
   1  -2   2 361.293 20.8545  15
   1  -2   2 407.874 21.0525  18
  -1  -2  -2 345.764 28.8471   2
  -1  -2  -2 395.987 20.7795  15
   1  -2   2 375.525 20.5208   1
   1  -2   2 364.722 22.9202  24
  -1  -2  -2 387.142 22.8373  17
   1  -2   2 371.238 21.0976  21
   1  -2   2 354.052 28.5285   8
  -1  -2  -2 391.664 25.7292  23
   1  -2   2 328.091 25.7600  23
  -1   2  -2 372.793 28.6827  20
  -1   2  -2 373.199 22.8335  22
  -1   2  -2 390.885 28.8993   3
  -1   2  -2 375.633 28.3218   9
  -1   2  -2 426.157 26.4791  19
   1   2   2 360.043 21.1898  16
   1   2   2 386.705 23.0940  10
   1   2   2 373.169 22.7792  22
   1   2   2 432.189 28.8308  20
   1   2   2 399.436 20.2658   1
  -1   2  -2 336.897 29.1813   2
  -1   2  -2 362.416 21.1539  16
   1   2   2 399.935 26.4362  19
   1   2   2 394.556 23.4570  11
  -2  -2  -2 120.793 8.82614  18
  -2  -2  -2 138.154 9.97071  23
   2  -2   2 137.549 8.75132  24
  -2  -2  -2 133.616 8.89294  17
   2  -2   2 129.513 8.52624   1
  -2  -2  -2 135.190 8.89612  24
   2  -2   2 126.101 9.81637  23
   2  -2   2 121.536 11.7329   8
  -2  -2  -2 129.296 8.06369  21
  -2  -2  -2 138.469 7.87915  15
  -2  -2  -2 120.777 11.4826   3
   2   2   2 149.420 11.9483  20
   2   2   2 140.690 8.90048  22
   2   2   2 138.126 8.29624   1
  -2   2  -2 131.791 12.4919  20
   2   2   2 141.795 9.78260  11
  -2   2  -2 120.595 12.1696   3
  -2   2  -2 129.733 9.54257  23
  -2   2  -2 132.285 11.2273  19
   2   2   2 141.260 7.03967   6
   2   2   2 137.008 8.18249  16
   2   2   2 135.964 10.3415  19
   3  -2   2 150.623 10.1345  23
  -3  -2  -2 135.507 8.64922  21
  -3  -2  -2 145.951 13.7398   3
  -3  -2  -2 133.637 8.37052  15
   3  -2   2 127.846 8.95417  24
  -3  -2  -2 135.294 7.36267   6
   3  -2   2 137.477 6.82294   4
   3  -2   2 138.244 9.82373   1
  -3   2  -2 140.366 10.1470  23
   3   2   2 134.696 10.7047  11
   3   2   2 140.257 8.60164  16
   3   2   2 145.693 9.51489  22
  -3   2  -2 116.499 13.9152   3
  -3   2  -2 134.511 7.45208   6
   3   2   2 130.995 8.38909   7
   3   2   2 137.988 6.74600   4
  -4  -2  -2 222.557 15.1076  24
   4  -2   2 235.495 10.8212   4
  -4  -2  -2 232.992 11.7546   6
  -4   2  -2 229.323 11.8067   6
   4   2   2 238.121 13.4759  16
   4   2   2 209.748 14.6054  22
   4   2   2 220.989 10.7093   4
   5  -2   2 15.8869 1.67360   4
  -5  -2  -2 19.3599 1.85728   6
   5  -3  -2 12.0957 1.93102   4
   5   3  -2 14.0611 1.95854  14
   5   3  -2 13.6397 2.18453   7
  -5   3   2 8.95563 2.43375   7
  -5   3   2 11.1967 2.03222  14
   5   3  -2 10.0580 1.85995   4
  -4  -3   2 9.87436 2.09119  21
  -4  -3   2 10.9470 2.05361  15
   4  -3  -2 7.61842 4.33911  22
   4  -3  -2 8.61080 1.94469   4
   4  -3  -2 7.37378 1.99369  12
  -4   3   2 8.15194 3.39230  24
  -4   3   2 7.72120 1.97951  14
   4   3  -2 9.67932 1.91479   4
   4   3  -2 10.0901 1.85018  14
  -4   3   2 6.40817 3.58713  23
   4   3  -2 10.2095 2.05362   7
  -4   3   2 12.5330 2.51034   7
  -3  -3   2 174.658 11.9770  10
   3  -3  -2 167.567 8.85763  12
   3  -3  -2 171.124 13.5395  19
   3  -3  -2 166.453 11.3695  22
   3  -3  -2 173.683 15.0935   8
   3  -3  -2 143.223 14.7783  20
   3   3  -2 181.454 8.68770  14
  -3   3   2 174.093 11.2097  24
   3   3  -2 160.116 9.88971   7
   3   3  -2 171.408 11.9793  11
  -3   3   2 157.344 12.2587  10
   3   3  -2 170.657 8.01673   4
  -3   3   2 161.850 12.3894  23
  -3   3   2 178.591 8.79474  14
   3   3  -2 169.949 10.2661   1
   2  -3  -2 166.152 10.3710  24
   2  -3  -2 135.283 13.6913   8
  -2  -3   2 164.749 13.3955   3
   2  -3  -2 173.210 11.6618  23
   2  -3  -2 163.107 13.9485   2
   2  -3  -2 171.586 13.2086   9
   2  -3  -2 169.951 14.1797  20
   2  -3  -2 157.816 12.8356  19
  -2   3   2 175.904 11.4248  10
  -2   3   2 168.293 13.9317  19
  -2   3   2 159.976 10.5553  24
   2   3  -2 171.812 9.57664   1
   2   3  -2 149.915 13.3093   8
  -2   3   2 169.813 11.8770  23
   2   3  -2 175.951 11.1071  11
  -2   3   2 173.033 11.2252  11
  -2   3   2 157.967 15.3093  20
   1  -3  -2 236.240 15.0936  24
   1  -3  -2 276.397 19.0730   9
   1  -3  -2 239.442 14.4062  18
   1  -3  -2 270.594 19.2345   8
   1  -3  -2 225.813 15.2400  17
   1  -3  -2 252.291 17.9265  19
   1  -3  -2 237.537 19.6463   2
   1  -3  -2 231.311 16.9757  23
   1  -3  -2 244.692 19.4265  20
  -1  -3   2 263.279 13.6622   1
  -1   3   2 228.143 15.3230  17
   1   3  -2 273.950 19.1473   3
  -1   3   2 237.462 16.9498  23
   1   3  -2 257.268 19.0081   9
   1   3  -2 227.156 15.2249  10
  -1   3   2 259.365 15.6468  10
   1   3  -2 258.282 19.5069   2
  -1   3   2 234.201 14.3151  16
  -1   3   2 230.148 15.1105  24
  -1   3   2 244.355 20.0164  20
  -1   3   2 253.976 15.6259  11
  -1   3   2 258.092 18.2478  19
   0  -3   2 709.563 51.8906   8
   0  -3  -2 690.430 41.6923  17
   0  -3   2 688.194 38.0037  15
   0  -3  -2 684.664 53.2346   2
   0  -3  -2 666.702 42.0482  24
   0  -3  -2 686.326 48.2724  19
   0  -3  -2 699.241 52.4120  20
   0  -3   2 709.502 37.1946   1
   0  -3  -2 677.924 38.8545  21
   0  -3  -2 713.372 47.2628  23
   0  -3  -2 735.650 38.1294  15
   0  -3  -2 653.612 38.3889  18
   0  -3   2 760.088 41.4247  17
   0  -3  -2 664.452 51.8112   3
   0  -3   2 727.034 37.9566  18
   0   3  -2 753.620 52.1640   3
   0   3   2 745.835 42.2687  10
   0   3   2 759.996 41.9186  24
   0   3  -2 646.399 38.4324  16
   0   3   2 734.847 42.3744  11
   0   3  -2 753.143 51.9199   9
   0   3  -2 753.698 53.4096   2
   0   3   2 642.222 46.9808  23
   0   3   2 731.864 38.8617  16
   0   3   2 691.410 48.1215  19
   0   3  -2 686.167 41.3949  22
   0   3   2 630.167 52.2548  20
   0   3   2 635.074 41.6124  22
  -1  -3  -2 1795.56 90.6653  15
   1  -3   2 1565.59 90.2822  18
  -1  -3  -2 1691.75 90.5622  18
   1  -3   2 1672.79 126.222   2
   1  -3   2 1756.01 122.824   8
   1  -3   2 1734.06 98.8171  17
   1  -3   2 1614.76 92.1833  21
  -1  -3  -2 1661.38 98.8127  17
  -1  -3  -2 1625.94 92.2203  21
  -1  -3  -2 1766.88 123.022   3
  -1  -3  -2 1635.16 99.9877  24
   1  -3   2 1603.26 90.6904  15
   1  -3   2 1710.29 88.0257   1
  -1  -3  -2 1817.93 122.508   9
   1   3   2 1636.17 91.8445  16
  -1   3  -2 1780.50 91.8210  16
  -1   3  -2 1631.90 113.594  19
  -1   3  -2 1675.23 98.7741  22
   1   3   2 1580.31 99.5201  10
   1   3   2 1724.34 100.264  11
   1   3   2 1752.94 98.7726  22
  -1   3  -2 1504.12 122.405   9
   1   3   2 1712.28 113.506  19
  -1   3  -2 1578.52 123.068  20
  -2  -3  -2 126.259 7.44436  15
   2  -3   2 134.858 12.3081   8
  -2  -3  -2 118.080 8.66920  18
  -2  -3  -2 126.997 11.4944   3
   2  -3   2 123.897 8.51316   1
  -2  -3  -2 131.881 7.71118  21
   2  -3   2 118.268 6.16165   4
  -2  -3  -2 129.802 8.55294  17
   2  -3   2 129.620 8.42803  24
   2   3   2 122.205 6.51530  14
   2   3   2 116.198 9.23744  10
   2   3   2 117.816 7.56086   7
  -2   3  -2 120.630 12.5621   3
   2   3   2 135.866 9.71918  11
  -2   3  -2 113.251 11.9742  20
  -2   3  -2 126.840 11.2240  19
   2   3   2 127.377 6.60111   6
  -2   3  -2 123.981 8.92978  22
  -2   3  -2 117.016 8.01415  16
   2   3   2 130.353 7.70182  16
   2   3   2 123.503 8.31170  22
  -2   3  -2 110.122 6.74875  12
  -2   3  -2 121.686 6.77158   6
   3  -3   2 1026.72 66.1581  23
  -3  -3  -2 999.509 54.5116  21
  -3  -3  -2 995.312 53.5908  15
   3  -3   2 967.815 43.7252   4
   3  -3   2 887.468 58.8185  24
   3   3   2 981.067 54.0626   7
   3   3   2 1023.01 54.1673  16
   3   3   2 958.058 46.7531  14
   3   3   2 958.817 58.3121  22
  -3   3  -2 994.574 47.5104   6
  -4  -3  -2 54.0642 3.78815   6
   4  -3   2 49.2809 3.60774   4
  -4   3  -2 52.5087 4.04193   6
   5  -4  -2 67.2788 4.97453  12
   5   4  -2 101.794 5.85392   7
  -5   4   2 78.2608 5.13347  14
   5   4  -2 96.2980 5.00721  14
   4  -4  -2 127.445 7.38585  12
   4   4  -2 143.487 8.30942   7
  -4   4   2 120.032 8.49554   7
  -4   4   2 144.473 9.35260  24
  -4   4   2 123.334 7.38408  14
   4   4  -2 144.249 7.26709  14
  -4   4   2 128.560 10.6976  23
   3  -4  -2 122.815 12.9187   8
  -3  -4   2 115.949 9.74301  10
   3  -4  -2 108.351 6.56887   5
   3  -4  -2 131.813 6.85786  12
   3   4  -2 127.940 7.57186   7
   3   4  -2 126.432 9.72646  11
  -3   4   2 124.628 10.9565  10
  -3   4   2 109.257 7.86172   7
   3   4  -2 133.082 6.67065  14
  -3   4   2 118.521 8.42355  24
  -3   4   2 131.039 9.73088  23
  -3   4   2 120.857 6.80496  14
   2  -4  -2 125.038 8.74718  23
   2  -4  -2 105.801 7.71571  24
   2  -4  -2 114.406 6.10152   5
   2  -4  -2 120.830 6.35021  12
   2  -4  -2 121.616 11.2431   2
  -2  -4   2 120.792 10.5954   9
   2  -4  -2 112.914 11.9520  20
  -2  -4   2 113.014 10.4349   3
   2  -4  -2 120.187 10.8488  19
   2  -4  -2 97.1609 11.2069   8
   2   4  -2 121.184 8.69454  10
  -2   4   2 120.217 8.66505  23
  -2   4   2 126.550 9.36393  10
  -2   4   2 105.360 11.1043  19
  -2   4   2 111.074 7.26075   7
  -2   4   2 121.700 7.74810  24
   2   4  -2 119.116 8.51368  11
  -2   4   2 96.4744 12.3544  20
  -2   4   2 114.793 6.27422  14
  -1  -4   2 107.388 9.08560   8
   1  -4  -2 82.1544 9.03413   8
   1  -4  -2 90.2604 7.25185  23
   1  -4  -2 89.5480 9.15917   2
   1  -4  -2 97.8659 8.91447   9
   1  -4  -2 96.3213 5.78112  15
   1  -4  -2 94.4941 7.37194  18
   1  -4  -2 95.4519 6.40495  24
   1  -4  -2 84.0752 7.01060  17
   1  -4  -2 90.9288 6.02033  21
  -1  -4   2 88.9937 8.72164   2
  -1   4   2 98.9259 6.91421  23
   1   4  -2 82.2960 6.73691  10
  -1   4   2 99.6201 6.62987  16
  -1   4   2 85.9741 9.98796  20
  -1   4   2 84.2008 6.84194  22
  -1   4   2 107.250 7.57744  10
   1   4  -2 94.7535 8.59477   9
   1   4  -2 101.344 9.00251   3
  -1   4   2 99.2538 8.83044  19
  -1   4   2 95.2608 7.27832  11
   0  -4   2 1628.33 97.6510  17
   0  -4   2 1772.17 121.629   8
   0  -4   2 1856.05 89.7137  15
   0  -4  -2 1444.92 121.743   3
   0  -4   2 1540.50 125.070   2
   0  -4  -2 1726.98 89.8192  15
   0  -4  -2 1489.76 121.423   9
   0  -4  -2 1805.84 111.284  23
   0  -4  -2 1582.26 99.0679  24
   0  -4   2 1643.53 91.2065  21
   0  -4  -2 1540.77 91.4200  21
   0  -4   2 1581.05 89.3663  18
   0  -4  -2 1525.09 124.979   2
   0  -4  -2 1708.62 98.0186  17
   0  -4  -2 1643.65 89.8858  18
   0   4  -2 1619.22 121.396   9
   0   4   2 1660.58 97.8713  22
   0   4   2 1705.72 91.1559  16
   0   4  -2 1854.35 98.8262  10
   0   4   2 1596.74 122.464  20
   0   4  -2 1758.78 122.137   3
   0   4   2 1702.17 99.2346  11
   0   4  -2 1680.78 97.5506  22
   0   4   2 1644.46 112.599  19
   0   4   2 1778.27 99.0381  10
  -1  -4  -2 1359.66 73.6075  18
  -1  -4  -2 1425.80 73.4745  15
  -1  -4  -2 1335.11 80.1072  17
  -1  -4  -2 1366.09 74.7718  21
   1  -4   2 1397.39 74.7674  21
  -1  -4  -2 1338.54 99.5541   9
   1  -4   2 1422.62 102.650   2
   1  -4   2 1330.82 73.4546  18
  -1  -4  -2 1295.36 99.9788   3
   1  -4   2 1206.71 99.7545   8
   1  -4   2 1295.71 73.4416  15
   1  -4   2 1338.21 80.1309  17
  -1  -4  -2 1389.77 60.9058  13
  -1   4  -2 1451.85 99.6403   9
  -1   4  -2 1319.00 65.1794   6
  -1   4  -2 1376.39 60.9986  13
  -1   4  -2 1252.62 100.259   3
   1   4   2 1449.69 81.4618  11
   1   4   2 1430.25 74.4790  16
  -1   4  -2 1426.78 74.4130  16
   1   4   2 1309.39 64.3658  14
   1   4   2 1355.88 65.0625   6
   1   4   2 1340.50 80.9352  10
  -1   4  -2 1266.46 66.0684  12
   1   4   2 1454.44 80.0380  22
  -1   4  -2 1363.08 80.0651  22
   1   4   2 1273.40 74.4287   7
  -1   4  -2 1350.32 64.4430   5
   2  -4   2 202.580 14.9506  23
   2  -4   2 212.042 13.3398  24
  -2  -4  -2 205.054 17.3950   3
  -2  -4  -2 213.934 12.0434  21
   2  -4   2 195.867 12.0948  15
   2  -4   2 197.199 12.1046  21
  -2  -4  -2 214.638 13.1245  18
   2  -4   2 183.665 17.7206   8
  -2  -4  -2 208.131 13.2632  17
  -2  -4  -2 207.539 11.7768  15
  -2   4  -2 186.356 18.5469   3
   2   4   2 206.626 14.1198  10
  -2   4  -2 209.919 10.6684   6
   2   4   2 211.348 12.9658  22
   2   4   2 203.795 11.9000  16
  -2   4  -2 219.031 13.6325  22
   2   4   2 206.060 10.3867   6
   2   4   2 198.497 10.2479  14
   2   4   2 190.471 11.8567   7
  -2   4  -2 201.834 12.3082  16
  -2   4  -2 202.679 10.6429  12
   2   4   2 177.542 13.8285  11
   3  -4   2 303.176 20.0168  23
   3  -4   2 259.302 17.6494  24
  -3  -4  -2 275.013 16.0985  15
   3  -4   2 283.816 13.0707   4
   3  -4   2 271.892 14.3211  12
  -3  -4  -2 284.033 16.3975  21
   3   4   2 276.162 16.0847   7
   3   4   2 287.176 17.5907  22
   3   4   2 277.001 14.1528   6
  -3   4  -2 285.984 14.3768   6
   3   4   2 286.315 16.0678  16
   3   4   2 269.588 13.9242  14
   4  -4   2 76.8828 4.63945   4
  -4  -4  -2 81.6888 4.85532   6
   4   4   2 82.0979 4.89304  14
   4   4   2 81.4038 5.42909   7
  -4   4  -2 77.2745 5.17122   6
   5  -5  -2 -0.3561 1.35072  12
   5   5  -2 -0.7290 1.24960  14
   5   5  -2 0.42061 1.49505   7
  -5   5   2 0.50965 1.56443  14
   4  -5  -2 5.43397 1.95671  12
   4   5  -2 7.94315 1.90814   7
  -4   5   2 9.74592 2.17409  14
   4   5  -2 8.38937 1.85453  14
   3  -5  -2 76.0452 4.69993  12
   3  -5  -2 62.5396 4.46750   5
  -3   5   2 73.4999 4.84167  14
   3   5  -2 73.8034 5.02237   7
   3   5  -2 79.2078 4.50974  14
   3   5  -2 63.4652 4.28393   6
  -3   5   2 64.4829 5.36849   7
   2  -5  -2 157.618 8.35496   5
   2  -5  -2 149.081 15.0004   2
   2  -5  -2 128.167 14.9257   8
   2  -5  -2 157.088 10.7628  24
  -2  -5   2 166.095 14.3542   3
   2  -5  -2 171.114 8.67136  12
   2  -5  -2 162.119 12.0197  23
   2   5  -2 167.241 11.6522  10
  -2   5   2 162.222 12.4566  10
  -2   5   2 165.184 9.89108   7
   2   5  -2 168.840 7.90246  13
   2   5  -2 164.234 8.38739  14
   2   5  -2 170.891 8.49829   6
  -2   5   2 166.815 8.59895  14
   1  -5  -2 189.456 11.2513  15
   1  -5  -2 162.831 9.96633  12
   1  -5  -2 177.003 16.3860   9
  -1  -5   2 192.577 16.1888   9
   1  -5  -2 192.337 9.74157   5
   1  -5  -2 184.631 11.6248  21
  -1  -5   2 218.598 16.5517   8
   1  -5  -2 209.085 14.1143  23
   1  -5  -2 188.977 17.1278   2
   1  -5  -2 203.198 12.5208  24
  -1  -5   2 210.863 16.8642   2
  -1   5   2 159.453 9.19067  13
  -1   5   2 221.765 13.8503  10
  -1   5   2 183.769 15.0852  19
  -1   5   2 193.882 12.8538  22
  -1   5   2 209.274 9.96796  14
   1   5  -2 203.587 9.29169  13
   1   5  -2 211.469 16.5081   3
   1   5  -2 199.459 9.78513   5
  -1   5   2 202.344 11.9109  16
   1   5  -2 182.849 12.9363  10
   1   5  -2 208.105 9.96509   6
  -1   5   2 204.433 11.4658   7
  -1   5   2 154.478 16.7446  20
   0  -5   2 96.6975 5.19383  21
   0  -5  -2 81.7561 5.32577  15
   0  -5  -2 80.9096 5.67428  21
   0  -5  -2 76.8254 4.54785   5
   0  -5  -2 69.1907 9.18200   2
   0  -5  -2 71.4130 6.67213  17
   0  -5   2 101.859 9.49266   8
   0  -5   2 90.0857 9.59662   2
   0  -5  -2 67.3136 8.96462   9
   0  -5  -2 63.7333 8.25091   3
   0  -5  -2 83.7404 7.18222  18
   0  -5   2 69.8403 5.89813  17
   0  -5   2 75.4639 6.12958  18
   0   5   2 80.7732 7.62404  19
   0   5   2 80.3927 7.00013  11
   0   5  -2 85.0692 4.84408  12
   0   5   2 90.3306 7.77046  10
   0   5  -2 87.3808 4.92696   6
   0   5   2 69.0063 8.98077  20
   0   5   2 86.3903 6.16301  22
   0   5  -2 79.1916 4.74957   5
   0   5  -2 89.5839 9.49319   3
   0   5  -2 74.1926 4.47497  13
   0   5   2 82.5166 4.47546  13
   0   5   2 86.8836 5.56235   7
   0   5   2 90.5945 6.05249  16
   0   5   2 79.2923 4.80382  14
  -1  -5  -2 337.343 29.3386   9
  -1  -5  -2 391.220 17.3230  13
  -1  -5  -2 358.663 23.1216  17
   1  -5   2 361.771 21.7706  18
  -1  -5  -2 377.680 21.9743  18
  -1  -5  -2 333.542 29.3073   3
   1  -5   2 374.754 20.9695  15
   1  -5   2 392.923 30.4689   2
   1  -5   2 323.215 29.7175   8
  -1  -5  -2 389.720 20.9815  15
  -1  -5  -2 404.157 21.5266  21
   1  -5   2 346.388 21.3019  21
   1   5   2 390.133 23.8965  11
  -1   5  -2 354.415 18.6706   6
   1   5   2 394.707 21.3195  16
  -1   5  -2 388.715 18.3814   5
  -1   5  -2 382.228 22.9602  22
   1   5   2 390.724 23.9627  10
   1   5   2 395.396 18.3554  14
   1   5   2 380.351 21.2257   7
  -1   5  -2 381.395 21.3240  16
  -1   5  -2 348.547 30.1867   3
  -1   5  -2 364.943 18.8525  12
  -1   5  -2 415.020 17.4483  13
   1   5   2 412.365 22.9607  22
   1   5   2 353.905 18.4900   6
  -2  -5  -2 1982.89 107.251  21
   2  -5   2 1916.32 116.390  24
   2  -5   2 1867.61 130.580  23
  -2  -5  -2 1901.12 105.369  15
  -2   5  -2 2008.37 106.959  16
  -2   5  -2 1981.11 93.5447   6
   2   5   2 2099.14 114.644  22
   2   5   2 2020.85 106.698   7
   2   5   2 1937.67 92.2175  14
  -2   5  -2 1786.88 92.3360   5
   2   5   2 2021.37 93.3859   6
  -2   5  -2 1868.99 114.986  22
   2   5   2 1869.95 106.418  16
  -3  -5  -2 149.117 9.42258  21
   3  -5   2 138.834 10.2243  24
  -3  -5  -2 146.656 9.09624  15
   3  -5   2 155.586 8.12655  12
   3  -5   2 150.899 11.4916  23
  -3   5  -2 144.964 8.26597   6
   3   5   2 143.932 7.83809  14
   3   5   2 149.877 9.00117   7
   3   5   2 147.370 7.96189   6
  -4  -5  -2 109.022 5.74574   6
   4   5   2 105.186 5.63885  14
  -4   5  -2 97.5239 5.91999   6
   4   5   2 99.7779 6.37594   7
   4  -6  -2 16.9024 2.08432  12
   4   6  -2 16.7927 1.87793  14
   4   6  -2 17.9531 2.12696   7
  -4   6   2 12.9582 2.23895  14
   3  -6  -2 0.42941 1.92821  12
   3  -6  -2 1.84367 1.86349   5
  -3   6   2 3.24894 2.10661  14
   3   6  -2 0.83482 1.37509   6
   3   6  -2 0.93600 1.85478   7
   3   6  -2 0.65110 1.56473  14
   2  -6  -2 251.598 15.5287  24
   2  -6  -2 242.056 12.3335  12
   2  -6  -2 237.508 11.9613   5
   2  -6  -2 226.210 17.1547  23
  -2   6   2 228.190 12.1653  14
   2   6  -2 246.440 11.2445  13
   2   6  -2 233.589 11.9232  14
   2   6  -2 250.922 12.0854   6
  -2   6   2 215.488 14.0021   7
   1  -6  -2 125.914 9.00116  24
  -1  -6   2 100.058 12.0816   2
   1  -6  -2 118.780 10.0888  23
   1  -6  -2 122.591 14.0458   2
   1  -6  -2 125.862 6.68932   5
  -1  -6   2 120.024 12.1795   9
   1  -6  -2 118.944 12.9078   9
  -1   6   2 133.412 11.2518  10
  -1   6   2 114.581 8.86763  22
   1   6  -2 128.164 6.39102  13
   1   6  -2 125.427 12.3358   3
   1   6  -2 127.507 6.70266   5
  -1   6   2 120.748 8.46971  16
  -1   6   2 133.205 8.05948   7
   1   6  -2 128.159 6.85373   6
  -1   6   2 134.387 6.94834  14
   0  -6   2 186.395 16.9335   2
   0  -6   2 207.352 10.6689  15
   0  -6  -2 178.659 9.34356   5
   0  -6   2 211.086 10.9338  21
   0  -6   2 177.358 16.4445   8
   0  -6  -2 174.068 10.7912  15
   0  -6  -2 168.718 11.2020  21
   0  -6  -2 179.773 16.7419   9
   0  -6  -2 142.269 16.4781   2
   0   6  -2 175.000 16.8728   3
   0   6   2 173.447 13.8963  10
   0   6   2 185.388 9.51301  14
   0   6  -2 173.634 8.94005  13
   0   6   2 204.842 12.0937  22
   0   6  -2 180.391 9.41432   5
   0   6   2 182.792 10.9774   7
   0   6   2 177.177 9.51208   6
   0   6  -2 186.922 9.69563  12
   0   6  -2 185.729 9.65113   6
   0   6   2 188.516 11.3341  16
   1  -6   2 714.852 43.2516  21
   1  -6   2 713.386 42.4988  15
  -1  -6  -2 760.909 42.4870  15
  -1  -6  -2 753.517 43.3692  21
  -1  -6  -2 782.203 35.1553  13
  -1   6  -2 783.102 46.2570  22
  -1   6  -2 834.307 35.2796  13
   1   6   2 720.207 42.9136  16
   1   6   2 783.167 42.9851   7
  -1   6  -2 702.482 43.0126  16
  -1   6  -2 844.284 37.2717   5
  -1   6  -2 832.600 38.2633  12
   1   6   2 782.585 37.1923  14
   1   6   2 785.468 37.5785   6
   1   6   2 871.245 46.3246  22
  -1   6  -2 722.921 37.7212   6
   2  -6   2 55.9789 6.34703  24
  -2  -6  -2 61.2763 5.61320  21
   2  -6   2 60.8954 4.39160  12
   2  -6   2 53.6905 6.78445  23
  -2  -6  -2 55.7078 4.73227  15
   2   6   2 59.7487 4.52882   7
   2   6   2 56.9790 5.14452  22
   2   6   2 56.5631 4.02952  14
   2   6   2 58.0400 4.01789   6
  -2   6  -2 56.9214 4.21980   5
  -2   6  -2 59.4799 4.77959   6
  -2   6  -2 63.7078 6.56201  22
  -2   6  -2 56.1928 6.24046  16
   3  -6   2 73.2125 4.79168  12
   3   6   2 74.7285 4.55445  14
   3   6   2 77.7150 5.16710   7
   3   6   2 80.1742 4.66065   6
  -3   6  -2 69.9436 5.15799   6
  -4  -6  -2 66.0395 3.87978   6
   4  -7  -2 2.67055 1.53602  12
   4   7  -2 0.53760 1.15002  14
  -4   7   2 1.93066 1.57938  14
   3  -7  -2 4.70084 1.79110   5
   3  -7  -2 6.85875 1.94731  12
   3   7  -2 4.50461 1.35062   6
   3   7  -2 5.02071 1.57295  14
  -3   7   2 2.16389 2.03331  14
   2  -7  -2 53.4816 4.10906  12
   2  -7  -2 50.8140 5.96123  24
   2  -7  -2 59.6327 3.92017   5
   2  -7  -2 45.6021 6.67355  23
   2   7  -2 58.9662 3.46725  13
  -2   7   2 48.9495 5.21419   7
   2   7  -2 55.8415 3.83985   6
  -2   7   2 51.2023 4.29468  14
   2   7  -2 61.1913 4.02539  14
   1  -7  -2 532.342 32.3163  24
   1  -7  -2 437.309 36.0399  23
  -1  -7   2 549.214 28.6665  15
  -1  -7   2 534.783 29.2102  21
   1  -7  -2 536.790 25.3342   5
  -1   7   2 545.004 25.4314  14
   1   7  -2 532.576 23.9467  13
  -1   7   2 514.991 29.3861   7
   1   7  -2 510.587 25.2427   5
  -1   7   2 490.491 29.6704  16
   1   7  -2 524.897 25.5954   6
  -1   7   2 542.740 31.9944  22
   0  -7  -2 118.168 8.27594  21
   0  -7  -2 120.344 6.14742  13
   0  -7   2 120.524 7.55860  15
   0  -7  -2 112.380 6.50914   5
   0  -7  -2 104.921 7.62388  15
   0  -7   2 113.642 7.67701  21
   0   7  -2 123.014 6.79003   6
   0   7  -2 122.067 6.75492  12
   0   7   2 125.488 6.85572  14
   0   7   2 113.019 6.57903   6
   0   7   2 125.850 7.82016   7
   0   7  -2 119.514 6.33111  13
   0   7   2 131.687 8.60826  22
   0   7  -2 124.081 6.63401   5
   0   7   2 119.601 7.97895  16
  -1  -7  -2 50.5588 4.73091  15
  -1  -7  -2 63.7061 5.50971  21
   1  -7   2 43.3279 4.82695  15
   1  -7   2 53.1080 5.06630  21
   1  -7   2 58.5400 4.18515  12
  -1  -7  -2 61.5273 3.63740  13
  -1   7  -2 53.5099 4.47477   6
   1   7   2 63.0219 5.50493  22
  -1   7  -2 64.5478 4.01168  13
   1   7   2 60.2568 3.88446   6
   1   7   2 64.4631 4.72300   7
   1   7   2 58.0846 4.63356  16
  -1   7  -2 64.9445 4.10969   5
   1   7   2 64.1092 4.17399  14
   2  -7   2 405.887 20.1101  12
  -2   7  -2 406.449 19.5692   5
   2   7   2 394.927 19.5084  14
  -2   7  -2 397.993 20.0159   6
   2   7   2 386.098 22.4927   7
   2   7   2 405.411 19.7775   6
   3  -7   2 218.312 11.0283  12
  -3   7  -2 202.405 11.0167   6
   3   7   2 217.220 10.7146  14
   3   7   2 221.131 12.3370   7
   3  -8  -2 218.733 9.83047   5
   3  -8  -2 204.534 10.0201  12
  -3   8   2 175.338 9.90004  14
   3   8  -2 178.240 9.72291   6
   2  -8  -2 194.197 9.49058   5
   2  -8  -2 180.490 9.75356  12
   2   8  -2 190.239 9.47744   6
   2   8  -2 188.265 8.80318  13
  -2   8   2 166.505 9.58526  14
   1  -8  -2 13.1426 1.80514   5
   1  -8  -2 11.0666 1.69187  13
   1   8  -2 11.4240 1.77424   5
  -1   8   2 11.8983 2.07279  14
   1   8  -2 14.2797 1.83897   6
  -1   8   2 13.3428 2.47301   7
   1   8  -2 13.3637 1.68266  13
   0  -8  -2 169.041 8.20311  13
   0  -8  -2 152.660 8.59296   5
   0   8   2 161.626 10.1558   7
   0   8   2 171.108 8.82583  14
   0   8  -2 176.505 8.78518   5
   0   8  -2 168.841 8.90840   6
   0   8  -2 174.414 8.32880  13
  -1  -8  -2 43.8309 2.90499  13
   1  -8   2 41.0196 3.45623  12
  -1   8  -2 38.7993 3.22119   5
   1   8   2 36.5716 3.69464   7
  -1   8  -2 42.4003 3.55740   6
   1   8   2 38.8393 3.22112  14
   1   8   2 37.9978 3.04769   6
  -1   8  -2 42.5676 3.13725  13
   2  -8   2 57.0261 3.63695  12
   2  -8   2 51.0696 3.44764   5
   2   8   2 53.4657 3.43771  14
  -2   8  -2 50.8940 3.84304   6
   2   8   2 54.6378 3.46171   6
   2   8   2 52.1803 3.80906   7
   2  -9  -2 129.840 6.48707   5
   2   9  -2 126.160 6.43869   6
  -2   9   2 117.674 6.65445  14
   1  -9  -2 2.26021 1.37916   5
   1  -9  -2 1.52896 1.25194  13
  -1  -9   2 0.54708 1.42790   5
  -1   9   2 1.11923 1.56069  14
   1   9  -2 3.74051 1.11543  13
   1   9  -2 1.72030 1.24674   6
   0  -9  -2 193.673 8.80834  13
   0   9  -2 188.548 8.84759  13
   0   9  -2 176.952 9.43907   6
   0   9   2 176.237 9.33826  14
   1  -9   2 15.6250 1.66396   5
   1  -9   2 17.2351 1.70933  12
  -1  -9  -2 22.9543 1.87032  13
  -1   9  -2 18.7710 1.90606   6
  -1   9  -2 19.9697 1.91324  13
   1   9   2 16.7065 1.62312  14
   1   9   2 19.6289 2.17495   7
  -6   0   3 1.19823 1.53986  14
  -5   0   3 19.8994 2.45206  14
   5   0  -3 20.2067 2.81011   7
   5   0  -3 20.0767 2.25767   4
  -5   0   3 16.8118 3.41292  15
  -4   0   3 125.345 7.42800  15
   4   0  -3 107.491 7.33860   7
   4   0  -3 115.338 6.02690   4
  -4   0   3 113.341 7.58293  21
   3   0  -3 31.1406 2.57826   4
  -3   0   3 29.3826 4.03285  18
   3   0  -3 27.8735 4.09192   1
  -3   0   3 43.4809 5.57219  11
   3   0  -3 26.3435 5.86109   8
  -3   0   3 32.2964 2.69255  15
   3   0  -3 26.2575 2.75965  22
  -3   0   3 27.4290 4.26678  10
  -3   0   3 27.5645 3.42598  17
   3   0  -3 30.6683 2.83982   7
   3   0  -3 25.1882 2.35422  14
   3   0  -3 26.2977 2.52708  12
   3   0  -3 33.1502 2.97719  16
  -2   0   3 37.1947 3.82370  11
  -2   0   3 34.1093 3.13570  17
   2   0  -3 43.3908 5.23424   8
  -2   0   3 31.1612 3.59248  18
   2   0  -3 37.3236 4.98073   2
  -2   0   3 37.3577 2.71558  21
   2   0  -3 31.0668 4.11667   9
  -2   0   3 35.0893 2.51143  15
  -2   0   3 33.5663 3.78506  10
   2   0  -3 40.0392 3.52419   1
   2   0  -3 35.3684 2.93190  22
   2   0  -3 30.3332 2.66640  16
  -1   0   3 156.844 8.65304  18
   1   0  -3 135.375 8.38367  16
  -1   0   3 130.096 8.23377  15
   1   0  -3 159.390 12.0258   8
   1   0  -3 143.138 12.0188   2
  -1   0   3 133.654 8.32518  21
   1   0  -3 161.522 11.6920   9
  -1   0   3 148.707 8.60534   1
  -1   0   3 144.370 9.15512  17
  -1   0   3 162.053 9.77184  11
   0   0  -3 143.327 9.40355  22
   0   0   3 142.257 9.35110  24
   0   0  -3 147.884 11.7605   3
   0   0  -3 153.057 12.1521   8
   0   0  -3 149.098 11.9192  20
   0   0   3 147.364 9.83990  11
   0   0  -3 150.235 8.70930  16
   0   0   3 144.699 8.55645  15
   0   0  -3 161.640 11.8950   9
   0   0   3 146.669 8.80508  18
   0   0   3 147.523 9.48365  17
   0   0   3 126.715 10.5873  23
   0   0   3 158.378 8.57885  21
   0   0  -3 166.762 12.2645   2
   0   0  -3 151.016 10.7590  19
   0   0   3 149.187 8.69353   1
   1   0   3 24.8843 3.25797   1
   1   0   3 24.4982 4.34188   8
  -1   0  -3 23.4725 5.60620  20
  -1   0  -3 15.3003 3.50979   3
  -1   0  -3 20.3077 3.50666   9
   1   0   3 7.95185 4.69210  20
  -1   0  -3 21.4225 2.63013  16
   1   0   3 23.5614 2.89738  23
   1   0   3 26.7679 3.36205  17
  -1   0  -3 20.5173 2.83419  22
   1   0   3 21.2198 2.23858  21
  -1   0  -3 12.6190 3.61290   2
  -1   0  -3 20.8800 2.16842  24
   1   0   3 20.9523 3.74339  11
  -1   0  -3 25.2266 3.99153  19
   1   0   3 21.2854 3.43239  18
  -1   0  -3 19.1363 2.38177  23
   1   0   3 20.3135 2.39847  15
   1   0   3 23.9634 4.67557  19
   1   0   3 22.8567 2.52143  24
  -2   0  -3 167.821 13.0566  19
  -2   0  -3 146.647 7.90542   6
  -2   0  -3 149.912 9.80237  24
  -2   0  -3 148.571 13.4464   3
  -2   0  -3 144.472 10.9234  23
   2   0   3 151.388 7.31245   4
   2   0   3 154.505 9.62069   1
   2   0   3 152.087 9.67222  24
   2   0   3 149.277 10.8692  23
   2   0   3 156.716 12.6550  19
  -2   0  -3 168.915 15.1488  20
  -3   0  -3 -0.6937 2.84163  24
  -3   0  -3 0.94442 3.03698  23
   3   0   3 -0.0474 1.57967   4
  -3   0  -3 -0.7012 1.66872   6
  -4   0  -3 140.432 7.34952   6
   4   0   3 124.049 6.54087   4
   5  -1  -3 161.021 8.09218   4
   5  -1  -3 156.461 9.97379   7
  -5   1   3 162.012 8.69816  14
   5   1  -3 159.413 9.99020   7
   5   1  -3 169.966 8.14259   4
   4  -1  -3 16.1383 2.75619  16
   4  -1  -3 12.4145 2.34287   7
   4  -1  -3 4.18592 10.4179   8
  -4  -1   3 11.9495 2.38944  21
   4  -1  -3 14.6450 2.99629  22
   4  -1  -3 12.0113 1.92578   4
   4  -1  -3 8.47432 1.93930  12
  -4  -1   3 12.2112 2.21885  15
  -4   1   3 12.8679 2.06538  14
   4   1  -3 13.3551 2.02772  14
  -4   1   3 12.7282 2.80856  21
   4   1  -3 12.4994 1.93356   4
   4   1  -3 12.0543 2.11159   7
  -4   1   3 11.1618 2.61003  15
   3  -1  -3 -0.0803 2.28493  22
  -3  -1   3 1.73308 2.85760  18
   3  -1  -3 0.56828 3.30608   1
   3  -1  -3 2.55198 5.93216   8
   3  -1  -3 0.70994 1.94508  16
  -3  -1   3 0.66113 1.57396  21
  -3  -1   3 0.58328 3.57631  10
  -3  -1   3 0.19890 4.34708  11
   3  -1  -3 0.42788 1.48738   4
  -3  -1   3 -0.0837 1.80346  17
   3  -1  -3 0.48204 1.57712   7
   3  -1  -3 0.90014 1.45147  12
  -3  -1   3 1.93971 1.09928  15
   3   1  -3 4.54312 5.16420   8
  -3   1   3 1.11037 3.60327  18
  -3   1   3 2.14635 3.72400  11
  -3   1   3 0.81344 1.94417  21
   3   1  -3 1.29090 1.39814   4
   3   1  -3 1.11337 1.47149   7
   3   1  -3 0.89913 3.19085   1
   3   1  -3 0.86948 1.31748  12
  -3   1   3 3.62460 2.92805  17
  -3   1   3 -1.0870 3.57296  10
   3   1  -3 0.10525 1.11141  14
  -3   1   3 0.46763 1.59170  15
  -3   1   3 0.39077 1.45351  14
   2  -1  -3 179.535 10.2073  16
   2  -1  -3 181.858 14.5416   2
  -2  -1   3 176.624 11.2444  10
   2  -1  -3 180.404 10.1877   1
   2  -1  -3 178.357 14.2040   8
   2  -1  -3 152.759 12.4632  19
  -2  -1   3 206.398 11.9030  11
  -2  -1   3 179.819 10.7781  17
  -2  -1   3 165.430 10.0606  18
   2  -1  -3 175.791 10.9283  22
  -2   1   3 172.528 11.5803  11
  -2   1   3 179.359 10.4355  18
   2   1  -3 150.431 13.5817   9
   2   1  -3 180.622 14.3153   8
  -2   1   3 179.190 9.89913  15
  -2   1   3 175.207 11.0401  17
  -2   1   3 167.234 11.3679  10
   2   1  -3 184.578 10.2313   1
   2   1  -3 172.056 14.4343   2
  -2   1   3 172.663 10.1239  21
  -1  -1   3 184.016 10.9482  17
   1  -1  -3 169.724 13.9640  20
  -1  -1   3 183.518 11.5529  11
  -1  -1   3 183.072 10.1820  18
   1  -1  -3 190.256 14.2153   8
  -1  -1   3 171.589 9.88339  15
  -1  -1   3 179.601 10.0010  21
   1  -1  -3 183.063 14.4535   2
   1  -1  -3 156.749 11.0428  22
   1  -1  -3 196.752 14.0219   9
   1  -1  -3 190.350 12.8774  19
   1  -1  -3 167.346 10.2933  16
   1   1  -3 179.901 10.0349  16
  -1   1   3 177.270 11.6679  11
  -1   1   3 181.938 11.1981  17
   1   1  -3 161.306 14.1980   8
  -1   1   3 174.225 10.4129  18
  -1   1   3 170.576 10.0717  15
   1   1  -3 193.163 14.4945   2
  -1   1   3 173.666 10.1845  21
   1   1  -3 200.249 14.0440   9
  -1   1   3 167.618 10.1165   1
   0  -1   3 562.749 33.8005  15
   0  -1   3 624.874 36.8926  17
   0  -1  -3 644.467 41.6713  23
   0  -1  -3 614.381 46.3837  20
   0  -1  -3 624.146 45.8252   9
   0  -1   3 671.850 33.8957  18
   0  -1   3 606.954 33.1366   1
   0  -1  -3 695.590 47.2928   2
   0  -1   3 601.009 37.4647  11
   0  -1  -3 608.969 42.5587  19
   0  -1  -3 579.988 34.3148  16
   0  -1  -3 611.409 36.9511  22
   0  -1   3 566.855 34.2546  21
   0  -1  -3 584.803 37.1438  24
   0  -1  -3 618.389 45.9396   8
   0  -1  -3 670.795 45.9240   3
   0   1   3 615.901 33.9004  15
   0   1   3 604.809 41.9169  23
   0   1   3 601.736 32.9681   1
   0   1   3 623.631 37.2253  24
   0   1   3 656.624 37.7058  11
   0   1  -3 642.661 45.9236  20
   0   1  -3 623.842 46.1037   8
   0   1   3 656.458 34.3737  21
   0   1  -3 602.427 45.9929   3
   0   1   3 568.830 33.9199  18
   0   1  -3 705.135 47.3935   2
   0   1  -3 661.173 42.2419  19
   0   1  -3 649.505 45.8893   9
   0   1   3 568.542 46.5848  20
   0   1  -3 580.301 34.1788  16
   0   1  -3 614.112 36.8668  22
   0   1   3 618.338 37.0267  17
   0   1   3 625.508 43.0028  19
  -1  -1  -3 704.648 55.0095  20
  -1  -1  -3 761.066 50.3398  19
   1  -1   3 752.350 43.7059  17
   1  -1   3 732.930 40.0964  18
  -1  -1  -3 724.502 54.1062   9
   1  -1   3 749.684 39.0788   1
   1  -1   3 703.539 54.1797   8
   1  -1   3 722.392 40.5390  21
   1  -1   3 776.230 44.0562  24
  -1  -1  -3 751.053 49.2775  23
   1  -1   3 723.533 49.4593  23
   1  -1   3 750.281 40.0619  15
  -1  -1  -3 727.530 43.9525  24
  -1  -1  -3 761.218 54.4782   3
  -1   1  -3 677.283 50.0596  19
   1   1   3 706.882 50.4957  19
   1   1   3 729.371 49.3242  23
   1   1   3 743.097 44.4317  11
   1   1   3 792.771 43.9362  24
  -1   1  -3 674.632 54.6746   3
   1   1   3 720.227 38.8914   1
  -1   1  -3 713.527 55.7580   2
  -1   1  -3 748.713 43.7113  22
   1   1   3 692.655 55.0958  20
  -1   1  -3 738.096 40.5932  16
  -1   1  -3 723.216 54.0477   9
  -1   1  -3 764.796 54.8169  20
  -2  -1  -3 42.1025 3.82918  24
   2  -1   3 45.5221 4.29200  23
  -2  -1  -3 22.3724 5.45205   3
   2  -1   3 39.4797 3.58652  24
   2  -1   3 37.5152 2.92202   4
  -2  -1  -3 39.9121 4.08239  23
  -2  -1  -3 35.3700 2.87005   6
   2  -1   3 47.9115 5.14405   1
   2   1   3 43.0895 5.47437  11
   2   1   3 41.3159 8.53005  20
   2   1   3 36.6060 2.67048   4
   2   1   3 43.2997 6.38270  19
  -2   1  -3 47.7460 8.83727  20
  -2   1  -3 35.3598 2.96615   6
  -2   1  -3 39.9601 3.33570  24
  -2   1  -3 39.0940 3.69475  23
  -2   1  -3 32.9023 5.98063  19
  -2   1  -3 32.0125 6.40634   3
   2   1   3 45.2912 4.65946   1
  -3  -1  -3 11.1262 1.86786   6
  -3  -1  -3 10.1458 3.57302  23
   3  -1   3 11.6709 1.81159   4
  -3  -1  -3 14.0109 3.39960  24
  -3   1  -3 11.3429 2.92397  23
  -3   1  -3 10.3199 1.83684   6
  -3   1  -3 14.6605 2.71962  24
   3   1   3 12.9104 1.81536   4
   4  -1   3 31.2181 2.83014   4
  -4  -1  -3 33.6463 3.13369   6
   4   1   3 28.4155 2.68382   4
  -4   1  -3 31.9161 2.85827   6
   5  -2  -3 159.383 8.64025   4
   5   2  -3 179.157 8.63736   4
   5   2  -3 190.538 9.28368  14
  -5   2   3 177.465 9.34986  14
  -5   2   3 163.051 10.7652   7
   5   2  -3 184.745 10.6615   7
   4  -2  -3 29.9959 3.60769   7
   4  -2  -3 31.0270 2.67020   4
  -4  -2   3 33.8843 2.92048  15
   4  -2  -3 31.3466 4.36614  22
   4  -2  -3 38.4935 3.91059  16
   4  -2  -3 30.5500 3.15762  12
  -4  -2   3 36.1797 3.46578  21
   4   2  -3 34.3346 3.03142   4
  -4   2   3 27.0020 3.54306  15
  -4   2   3 19.0627 3.33695  21
  -4   2   3 32.1922 3.23473  14
   4   2  -3 26.5324 2.90135  14
   4   2  -3 36.1055 3.55082   7
   3  -2  -3 22.1077 3.29786  22
   3  -2  -3 16.4531 3.92606   1
   3  -2  -3 17.7231 2.25026   7
  -3  -2   3 22.2998 4.98972  11
   3  -2  -3 21.1638 6.94623   8
   3  -2  -3 15.5894 1.93040   4
   3  -2  -3 14.8301 6.12302   2
   3  -2  -3 19.2025 2.83865  16
   3  -2  -3 21.1298 2.13954  12
  -3  -2   3 19.1951 4.40752  10
   3   2  -3 22.2458 6.71135   8
  -3   2   3 17.1802 4.52371  11
  -3   2   3 18.6950 4.36469  18
  -3   2   3 16.9418 4.50485  10
  -3   2   3 17.1458 2.42023  15
   3   2  -3 22.9333 3.90226   1
  -3   2   3 16.0813 1.94410  14
   3   2  -3 19.1895 1.94336   4
   3   2  -3 18.7119 1.99820   7
  -3   2   3 21.1818 3.66588  17
   2  -2  -3 67.2345 5.27343   1
   2  -2  -3 70.0888 7.30700   9
   2  -2  -3 80.1267 5.43681  16
   2  -2  -3 72.0749 5.68511  22
   2  -2  -3 78.6255 6.80707  19
   2  -2  -3 74.9485 8.05663   8
   2  -2  -3 74.7918 7.44578  20
  -2  -2   3 89.1142 6.62309  11
   2  -2  -3 76.6931 7.80442   2
   2   2  -3 79.6964 7.78965   8
  -2   2   3 71.3040 6.28729  23
  -2   2   3 70.2585 5.50754  24
   2   2  -3 83.1362 7.34547   9
  -2   2   3 78.9179 5.74635  17
  -2   2   3 84.7786 5.14076  21
  -2   2   3 78.8029 4.91552  15
   2   2  -3 81.4148 5.38707   1
  -2   2   3 70.8160 5.76666  18
  -2   2   3 66.1001 6.18778  10
   2   2  -3 70.6883 7.44191   2
  -2   2   3 73.9456 6.36482  11
   1  -2  -3 368.243 24.5869  19
  -1  -2   3 393.879 20.9101  17
   1  -2  -3 381.924 23.7116  23
   1  -2  -3 354.541 27.2308   2
   1  -2  -3 387.221 26.4782   9
   1  -2  -3 340.698 19.7178  16
   1  -2  -3 383.365 26.5569   8
   1  -2  -3 348.706 26.8316  20
   1  -2  -3 343.131 21.2220  22
  -1  -2   3 373.037 19.2055   1
  -1  -2   3 332.843 21.5719  11
   1  -2  -3 339.186 21.1121  24
  -1   2   3 342.695 23.9576  23
  -1   2   3 373.663 19.6574  21
   1   2  -3 372.674 26.5157   9
   1   2  -3 373.851 26.6685   8
  -1   2   3 319.778 18.8467   1
   1   2  -3 339.527 27.3451   2
  -1   2   3 312.616 21.2568  24
  -1   2   3 319.970 21.7750  11
   1   2  -3 362.333 26.4712   3
  -1   2   3 313.998 21.4826  10
  -1   2   3 322.716 25.2941  19
  -1   2   3 359.501 19.7124  18
  -1   2   3 300.984 27.6079  20
  -1   2   3 343.239 19.3062  15
  -1   2   3 338.611 21.2606  17
   0  -2  -3 4084.23 285.089  19
   0  -2  -3 4121.75 307.796   3
   0  -2  -3 4352.24 306.870   8
   0  -2   3 4124.87 227.797  15
   0  -2   3 4380.03 231.647  21
   0  -2   3 4527.14 220.743   1
   0  -2  -3 4409.71 251.170  24
   0  -2  -3 4253.13 281.891  23
   0  -2  -3 4326.52 315.874   2
   0  -2  -3 4366.45 309.436  20
   0  -2   3 4251.12 226.329  18
   0  -2   3 4327.46 247.781  17
   0  -2  -3 3843.81 306.708   9
   0   2  -3 4276.43 306.865   9
   0   2   3 4144.58 281.947  23
   0   2  -3 4291.40 316.111   2
   0   2   3 3916.67 309.333  20
   0   2  -3 4746.33 230.479  16
   0   2   3 4408.03 251.093  11
   0   2   3 4134.26 285.233  19
   0   2  -3 4073.37 247.801  22
   0   2   3 4049.59 249.422  10
   0   2   3 4530.04 251.167  24
   0   2   3 3944.89 220.309   1
   0   2   3 3920.74 247.972  17
   0   2  -3 4065.44 308.139   3
   1  -2   3 716.015 54.0661   8
  -1  -2  -3 698.859 43.6674  24
   1  -2   3 653.795 40.2139  21
  -1  -2  -3 767.824 49.0123  23
  -1  -2  -3 736.017 53.7868   9
   1  -2   3 722.184 43.3620  17
   1  -2   3 716.553 39.7396  15
  -1  -2  -3 741.128 54.0376   3
   1  -2   3 715.216 38.8459   1
   1  -2   3 675.837 39.7176  18
   1   2   3 709.326 54.5176  20
   1   2   3 730.670 48.8123  23
   1   2   3 722.844 38.5178   1
   1   2   3 738.099 44.2358  11
   1   2   3 738.231 43.5266  24
  -1   2  -3 749.749 53.8500   9
   1   2   3 736.570 50.1351  19
  -1   2  -3 762.656 40.2058  16
  -1   2  -3 762.350 54.5618   3
  -1   2  -3 721.554 55.4704   2
  -1   2  -3 725.300 49.8960  19
  -1   2  -3 720.296 54.1825  20
  -1   2  -3 740.585 43.3363  22
   2  -2   3 99.6864 7.21677  24
  -2  -2  -3 112.884 7.49375  24
   2  -2   3 101.109 8.00331   1
  -2  -2  -3 101.988 5.77987   6
  -2  -2  -3 102.428 10.6289   3
   2  -2   3 100.022 5.46698   4
  -2  -2  -3 102.491 8.21638  23
   2  -2   3 105.324 8.30325  23
  -2   2  -3 107.372 11.6671  20
   2   2   3 114.065 7.86456   1
   2   2   3 108.013 7.17210  16
  -2   2  -3 94.1453 10.1048  19
   2   2   3 126.517 11.9960  20
  -2   2  -3 107.299 5.94582   6
   2   2   3 110.826 9.45734  19
   2   2   3 104.898 7.83544  22
   2   2   3 97.4105 8.75601  11
  -2   2  -3 97.4334 11.2866   3
  -3  -2  -3 26.5091 3.96548  24
   3  -2   3 23.1608 2.22176   4
   3  -2   3 22.2358 2.86434  24
   3  -2   3 25.0039 3.79465  23
  -3  -2  -3 15.4258 4.13864  23
  -3  -2  -3 20.2528 2.34038   6
   3   2   3 23.8634 2.20161   4
   3   2   3 14.6434 2.98629  16
   3   2   3 22.9786 4.15532  22
  -3   2  -3 23.7729 2.41499   6
  -4  -2  -3 5.09938 1.77185   6
   4  -2   3 5.77494 1.67060   4
  -4   2  -3 4.36648 1.85531   6
   5  -3  -3 5.61110 1.73893  12
  -5   3   3 4.71001 1.88667  14
  -5   3   3 4.79635 2.19528   7
   5   3  -3 6.80862 1.88784   7
   5   3  -3 5.50250 1.75337  14
   5   3  -3 3.82682 1.65756   4
   4  -3  -3 28.7881 4.90969  22
   4  -3  -3 25.4389 4.10562  16
   4  -3  -3 26.3031 2.59536  12
  -4   3   3 25.5776 4.31036  24
  -4   3   3 32.3667 5.77670  23
   4   3  -3 28.2188 2.80975   7
   4   3  -3 26.5147 2.46580  14
  -4   3   3 26.9401 3.08658   7
   4   3  -3 26.8770 2.48075   4
  -4   3   3 25.4463 2.64982  14
  -3  -3   3 455.156 28.1959  11
   3  -3  -3 451.067 27.3046  22
   3  -3  -3 399.066 21.5262   5
   3  -3  -3 462.911 34.9053   8
   3  -3  -3 438.720 25.3793  16
   3  -3  -3 500.954 32.0521  19
   3  -3  -3 439.629 22.1430  12
  -3   3   3 453.010 27.5421  24
  -3   3   3 475.973 30.8430  23
   3   3  -3 447.523 24.5179   1
   3   3  -3 433.527 21.5615  14
  -3   3   3 441.160 25.0180   7
  -3   3   3 468.196 21.6649  14
   3   3  -3 455.459 20.1335   4
  -3   3   3 404.320 28.2404  10
   3   3  -3 460.755 24.8610   7
  -3   3   3 367.357 28.0136  11
   2  -3  -3 105.185 10.5182  20
  -2  -3   3 126.001 8.78602  11
   2  -3  -3 111.815 9.54739  19
   2  -3  -3 111.407 8.06474  22
   2  -3  -3 103.088 9.82559   9
   2  -3  -3 110.832 10.6588   2
   2  -3  -3 103.910 5.79840   5
   2  -3  -3 116.944 6.02646  12
   2  -3  -3 104.973 7.48818  16
   2  -3  -3 114.721 10.7887   8
  -2   3   3 114.793 8.52918  23
  -2   3   3 106.500 8.51967  10
  -2   3   3 101.858 7.46960  24
   2   3  -3 102.640 10.1979   8
   2   3  -3 115.390 10.0571   9
  -2   3   3 113.168 5.94861  14
   2   3  -3 99.6157 10.2160   2
  -2   3   3 118.279 8.61641  11
  -2   3   3 106.039 6.82767   7
   1  -3  -3 2371.48 164.167  19
   1  -3  -3 2460.33 176.720   9
   1  -3  -3 2458.85 182.074   2
   1  -3  -3 2356.06 178.369  20
   1  -3  -3 2510.43 176.826   8
   1  -3  -3 2342.98 144.307  24
   1  -3  -3 2475.86 162.019  23
  -1  -3   3 2417.63 127.088   1
  -1   3   3 2360.61 162.069  23
   1   3  -3 2491.17 177.020   8
  -1   3   3 2434.65 164.648  19
   1   3  -3 2673.46 182.160   2
   1   3  -3 2412.56 177.307   3
  -1   3   3 2393.27 144.669  11
  -1   3   3 2601.99 143.881  10
  -1   3   3 2097.60 178.530  20
  -1   3   3 2595.16 144.414  24
   1   3  -3 2188.06 176.681   9
   0  -3  -3 139.841 12.4691  20
   0  -3   3 120.482 8.16833  18
   0  -3  -3 116.010 10.9311   3
   0  -3   3 131.741 8.48789  17
   0  -3   3 133.627 8.45838   1
   0  -3   3 128.195 7.66742  15
   0  -3   3 149.783 7.72281  21
   0  -3  -3 133.182 9.57852  23
   0  -3  -3 127.557 11.5841   2
   0  -3  -3 132.253 11.3790   9
   0  -3   3 132.592 11.5738   8
   0  -3  -3 133.740 8.58943  24
   0   3   3 122.325 9.34496  10
   0   3  -3 136.008 11.6886   2
   0   3   3 128.146 8.39033  24
   0   3   3 127.976 9.35102  11
   0   3  -3 150.123 11.8845   3
   0   3   3 140.772 11.3040  19
   0   3  -3 133.692 8.36963  22
   0   3   3 109.590 12.4761  20
   0   3   3 130.617 9.43275  23
   0   3  -3 139.352 11.5762   9
   0   3  -3 127.580 7.71641  16
   1  -3   3 159.463 9.50007  15
  -1  -3  -3 170.862 11.7740  23
   1  -3   3 151.260 7.70076   4
  -1  -3  -3 154.744 9.38739  15
   1  -3   3 165.819 10.3678  18
  -1  -3  -3 164.818 13.6911   9
   1  -3   3 169.620 10.6595  17
  -1  -3  -3 157.452 13.6819   3
  -1  -3  -3 156.069 9.69482  21
  -1  -3  -3 171.397 7.76486  13
   1  -3   3 159.161 9.47306  21
   1  -3   3 160.752 10.2212   1
   1  -3   3 143.841 14.0236   8
  -1  -3  -3 161.972 10.3950  24
   1   3   3 161.586 11.2553  11
  -1   3  -3 152.764 14.4131   3
  -1   3  -3 162.217 8.42582   6
   1   3   3 164.952 10.0570  16
   1   3   3 172.325 12.6919  19
  -1   3  -3 155.429 7.80230  13
  -1   3  -3 150.447 8.51668  12
   1   3   3 137.471 8.17433   6
   1   3   3 143.528 9.53159   7
  -1   3  -3 180.622 9.75108  16
  -1   3  -3 182.457 14.3266   9
   1   3   3 171.456 14.5663  20
  -1   3  -3 165.144 10.4538  22
   1   3   3 153.086 10.5591  22
   2  -3   3 123.808 9.13961   1
  -2  -3  -3 122.569 8.57644  24
  -2  -3  -3 118.362 9.51886  23
   2  -3   3 113.859 9.64062  23
   2  -3   3 120.576 6.19583   4
   2  -3   3 123.137 8.57981  24
  -2  -3  -3 122.186 12.2898   3
   2   3   3 127.077 7.61243   7
  -2   3  -3 124.902 8.27308  16
  -2   3  -3 122.562 6.88967   6
  -2   3  -3 127.700 9.16326  22
   2   3   3 121.169 8.62821  22
  -2   3  -3 107.690 6.91100  12
  -2   3  -3 124.171 14.0833   3
   2   3   3 122.340 10.1938  11
   2   3   3 131.640 8.11096  16
  -3  -3  -3 238.704 12.1330   6
  -3  -3  -3 240.855 15.3826  24
   3  -3   3 237.352 11.1506   4
   3  -3   3 234.143 15.0872  24
   3  -3   3 257.523 16.9641  23
   3   3   3 223.524 15.2495  22
  -3   3  -3 226.374 12.2304   6
   3   3   3 229.959 14.0152  16
  -4  -3  -3 17.6325 2.09442   6
   4  -3   3 18.3332 1.93589   4
  -4   3  -3 17.7539 2.23863   6
   5  -4  -3 13.1934 1.76453  12
   5   4  -3 10.2594 1.76785  14
  -5   4   3 15.0892 2.10884  14
  -5   4   3 8.81570 1.98473   7
   5   4  -3 14.1611 1.93841   7
   4  -4  -3 68.9318 4.59251  12
   4   4  -3 69.9689 4.37553  14
   4   4  -3 68.4689 4.83324   7
  -4   4   3 61.9953 6.13910  24
  -4   4   3 66.9408 6.85431  23
  -4   4   3 64.2262 4.52491  14
  -4   4   3 66.9858 5.33611   7
   3  -4  -3 290.295 15.6084   5
   3  -4  -3 309.074 16.0008  12
  -3   4   3 334.214 19.9291  24
  -3   4   3 331.991 22.2519  23
  -3   4   3 326.106 15.7184  14
  -3   4   3 305.312 18.1719   7
   3   4  -3 316.791 17.9079   7
   2  -4  -3 206.433 19.5962   8
   2  -4  -3 241.020 11.9263  12
   2  -4  -3 225.423 19.9062   2
   2  -4  -3 207.108 19.8274  20
   2  -4  -3 260.297 14.6362  24
  -2  -4   3 246.094 19.6036   8
   2  -4  -3 233.591 18.0146  19
   2  -4  -3 241.970 16.2405  23
   2  -4  -3 234.568 11.6066   5
  -2   4   3 230.200 15.8140  10
  -2   4   3 194.156 15.6756  11
  -2   4   3 233.499 16.4170  23
  -2   4   3 223.110 14.6847  24
  -2   4   3 238.119 13.5358   7
  -2   4   3 247.840 11.6868  14
   1  -4  -3 455.072 40.5327   8
   1  -4  -3 504.559 24.4604  13
   1  -4  -3 568.807 32.6195  24
   1  -4  -3 543.668 25.8898   5
  -1  -4   3 544.893 40.7514   8
   1  -4  -3 593.611 36.6455  23
   1  -4  -3 512.706 41.9271   2
   1  -4  -3 524.467 40.6329   9
  -1   4   3 510.098 29.9381   7
   1   4  -3 572.168 40.7175   3
  -1   4   3 610.002 32.5890  24
  -1   4   3 539.064 36.4465  23
  -1   4   3 574.060 33.3892  10
   1   4  -3 546.809 24.5201  13
  -1   4   3 483.293 25.8462  14
   1   4  -3 546.539 25.8739   5
  -1   4   3 519.444 38.0376  19
   1   4  -3 536.798 40.6924   9
  -1   4   3 535.588 33.2796  11
   1   4  -3 523.087 26.4858  12
   0  -4   3 2438.55 155.754  17
   0  -4  -3 2734.24 125.645   5
   0  -4  -3 2681.46 158.030  24
   0  -4   3 2894.74 143.216  15
   0  -4   3 2811.64 145.649  21
   0  -4  -3 2506.55 118.859  13
   0  -4   3 2466.96 142.441  18
   0  -4   3 2718.07 138.977   1
   0  -4  -3 2574.92 193.541   9
   0  -4   3 2749.07 193.733   8
   0  -4  -3 2739.48 177.359  23
   0  -4  -3 2584.78 199.058   2
   0   4  -3 2542.57 128.866  12
   0   4  -3 2904.84 194.586   3
   0   4  -3 2694.64 193.626   9
   0   4   3 2685.78 158.166  11
   0   4  -3 2679.81 125.682   5
   0   4   3 2563.64 157.370  10
   0   4   3 2546.63 145.151   7
   0   4   3 2714.40 179.647  19
   0   4   3 2327.58 156.014  22
   0   4  -3 2650.28 127.002   6
   0   4   3 2793.52 195.385  20
   0   4  -3 2538.17 118.897  13
   0   4   3 2740.14 145.374  16
  -1  -4  -3 715.866 56.5856   3
   1  -4   3 752.536 56.8671   8
  -1  -4  -3 742.795 42.1592  21
   1  -4   3 689.617 33.6742   4
   1  -4   3 701.635 41.9255  21
  -1  -4  -3 753.029 56.4496   9
   1  -4   3 758.495 41.3484  15
   1  -4   3 723.928 41.7969  18
  -1  -4  -3 764.979 34.1988  13
  -1  -4  -3 693.255 51.0359  23
   1  -4   3 789.146 40.6710   1
  -1  -4  -3 734.259 41.3079  15
   1  -4   3 811.473 58.4040   2
  -1  -4  -3 770.040 45.5953  24
   1  -4   3 764.021 45.2648  17
  -1   4  -3 741.056 37.1262  12
   1   4   3 805.618 42.1011  16
  -1   4  -3 763.261 57.4942   3
   1   4   3 748.852 45.1107  22
   1   4   3 757.007 45.9168  10
   1   4   3 736.524 36.4766   6
  -1   4  -3 775.100 56.6647   9
   1   4   3 739.953 46.1804  11
  -1   4  -3 763.388 45.0089  22
   1   4   3 749.712 51.9476  19
   1   4   3 769.415 41.7947   7
  -1   4  -3 770.195 34.2525  13
  -1   4  -3 793.552 36.7174   6
  -1   4  -3 779.836 41.8679  16
  -2  -4  -3 413.630 30.5372  23
  -2  -4  -3 452.164 27.2843  24
  -2  -4  -3 448.890 24.8809  15
  -2  -4  -3 469.956 25.5227  21
   2  -4   3 439.279 20.0440   4
   2  -4   3 441.872 27.4011  24
   2   4   3 443.372 27.0232  22
   2   4   3 438.890 21.7295   6
  -2   4  -3 439.279 22.1259  12
  -2   4  -3 430.907 25.2500  16
  -2   4  -3 428.833 21.9327   6
  -2   4  -3 446.350 27.2943  22
   2   4   3 443.040 24.9892  16
   2   4   3 431.676 24.7475   7
   3  -4   3 25.8215 3.65367  24
  -3  -4  -3 11.2466 4.62789  23
  -3  -4  -3 13.8539 3.88726  24
   3  -4   3 25.3968 4.61857  23
  -3  -4  -3 24.0346 2.34566   6
   3  -4   3 24.0171 2.22825   4
  -3   4  -3 23.6220 2.52714   6
   3   4   3 21.1919 2.52314   7
   3   4   3 24.5709 3.98498  22
   3   4   3 12.5061 2.59483  16
  -4  -4  -3 8.97944 1.59291   6
   4  -4   3 11.3048 1.62204   4
  -4   4  -3 10.0409 1.86284   6
   5  -5  -3 14.2354 1.64854  12
  -5   5   3 12.4807 1.84950  14
   5   5  -3 12.7958 1.72318   7
   4  -5  -3 0.48770 1.87089  12
  -4   5   3 0.86038 1.92759  14
   4   5  -3 1.32884 1.71662   7
  -4   5   3 -0.8235 2.10776   7
   4   5  -3 1.02126 1.70738  14
   3  -5  -3 161.173 8.83520   5
   3  -5  -3 183.390 9.11082  12
  -3   5   3 173.210 9.00538  14
  -3   5   3 156.876 10.3107   7
  -3   5   3 166.515 12.5230  23
   2  -5  -3 1639.87 102.713  23
   2  -5  -3 1286.98 91.5156  24
   2  -5  -3 1547.39 72.8692   5
   2  -5  -3 1542.74 74.7044  12
  -2   5   3 1517.25 92.1360  10
  -2   5   3 1569.30 72.8136  14
   2   5  -3 1651.50 68.8695  13
   2   5  -3 1524.28 72.7729   5
  -2   5   3 1489.36 84.2296   7
   1  -5  -3 39.2418 7.60112   2
  -1  -5   3 42.4574 8.29269   8
   1  -5  -3 37.7656 4.88926  23
  -1  -5   3 36.6490 7.29610   2
   1  -5  -3 40.4047 4.13825  24
   1  -5  -3 24.4397 6.31694   9
   1  -5  -3 34.6150 2.77052  13
   1  -5  -3 42.2368 3.11551   5
  -1   5   3 39.5693 3.41361  14
   1   5  -3 36.2699 6.77313   3
   1   5  -3 40.4035 3.06113  13
  -1   5   3 46.6283 7.74936  19
  -1   5   3 30.4111 5.89413  11
   1   5  -3 41.4307 3.10782   5
   1   5  -3 36.0538 3.18244  12
  -1   5   3 28.7528 5.32335  10
   1   5  -3 36.8886 3.29493   6
  -1   5   3 40.4560 3.82642   7
   0  -5   3 303.606 15.2390  15
   0  -5   3 289.056 15.4840  21
   0  -5  -3 244.590 22.1297   9
   0  -5   3 241.926 22.5933   2
   0  -5  -3 271.913 19.1466  23
   0  -5  -3 267.027 17.0405  24
   0  -5  -3 256.627 12.6585  13
   0  -5  -3 247.426 22.6184   2
   0  -5   3 306.731 22.6553   8
   0  -5  -3 270.269 13.3354   5
   0   5   3 267.731 15.5174   7
   0   5  -3 248.968 22.1151   9
   0   5  -3 290.157 13.6749   6
   0   5   3 272.493 18.1212  10
   0   5   3 256.286 17.0638  22
   0   5  -3 246.344 12.6988  13
   0   5  -3 273.337 13.3882   5
   0   5   3 269.212 18.0046  11
   0   5   3 273.565 16.0455  16
   0   5  -3 271.234 13.7347  12
   0   5   3 258.661 13.4221  14
   0   5  -3 273.892 22.6945   3
  -1  -5  -3 36.8991 3.92192  15
   1  -5   3 37.3201 3.85188  21
  -1  -5  -3 36.4240 5.25367  23
  -1  -5  -3 38.4794 4.66707  21
  -1  -5  -3 42.3391 3.03108  13
   1  -5   3 36.8814 3.88641  15
  -1  -5  -3 42.6637 4.89958  24
   1   5   3 43.2943 3.82795   7
  -1   5  -3 42.7609 3.85926   6
  -1   5  -3 37.6809 4.27738  22
  -1   5  -3 35.2943 4.24224  16
  -1   5  -3 42.7734 3.33949  13
  -1   5  -3 21.6003 7.24368   9
   1   5   3 39.8517 3.29910   6
   1   5   3 43.2482 4.85113  16
   1   5   3 40.5745 5.01043  22
  -1   5  -3 46.7163 3.53375   5
  -1   5  -3 37.9842 3.46144  12
   1   5   3 38.2961 3.41638  14
   2  -5   3 529.771 35.8450  23
   2  -5   3 500.910 31.8791  24
   2   5   3 492.202 28.9174  16
   2   5   3 541.936 25.3812   6
   2   5   3 530.449 28.8688   7
  -2   5  -3 518.601 31.5705  22
  -2   5  -3 507.331 25.5403   6
   2   5   3 515.270 24.9947  14
  -2   5  -3 505.325 29.3260  16
   2   5   3 508.037 31.3448  22
   3  -5   3 29.9751 3.15951  12
  -3  -5  -3 35.9185 2.94338   6
   3   5   3 34.3762 3.39584   7
  -3   5  -3 35.2661 3.41546   6
  -4  -5  -3 21.2871 2.13171   6
   4  -6  -3 60.0889 3.77981  12
  -4   6   3 55.2508 3.94853  14
  -4   6   3 42.6050 4.54360   7
   3  -6  -3 57.5052 4.20371   5
   3  -6  -3 63.4638 4.27181  12
  -3   6   3 63.4797 4.46281  14
  -3   6   3 53.3236 5.05326   7
   2  -6  -3 254.134 13.6355  12
   2  -6  -3 263.404 13.3376   5
   2  -6  -3 270.475 17.0351  24
   2  -6  -3 263.775 12.7668  13
   2  -6  -3 262.364 18.8368  23
   2   6  -3 283.970 12.5535  13
  -2   6   3 283.226 13.4895  14
  -2   6   3 256.382 15.5855   7
   2   6  -3 251.554 13.3710   6
   1  -6  -3 680.840 30.6791  13
   1  -6  -3 643.446 45.8594  23
   1  -6  -3 695.866 32.4306   5
   1  -6  -3 673.322 40.9501  24
   1   6  -3 651.073 30.6433  13
   1   6  -3 703.260 32.7308   6
  -1   6   3 656.821 38.3993  16
  -1   6   3 701.744 37.5568   7
  -1   6   3 613.726 41.2977  22
   1   6  -3 674.058 32.3754   5
   1   6  -3 650.942 33.1362  12
  -1   6   3 707.252 32.4389  14
   0  -6   3 193.736 10.4996  15
   0  -6  -3 176.576 9.19009   5
   0  -6  -3 178.558 8.78973  13
   0  -6  -3 146.555 13.3303  23
   0  -6  -3 156.639 11.8980  24
   0  -6   3 191.944 10.7721  21
   0   6  -3 184.247 9.46081  12
   0   6  -3 179.622 9.25106   5
   0   6  -3 198.496 9.61152   6
   0   6   3 176.102 12.1125  22
   0   6  -3 166.732 8.82822  13
   0   6   3 186.738 9.46900  14
   0   6   3 159.583 11.1617  16
   0   6   3 185.566 10.7775   7
   1  -6   3 806.321 47.5498  15
  -1  -6  -3 890.480 39.4427  13
   1  -6   3 788.210 48.4312  21
  -1  -6  -3 837.415 52.9133  24
   1   6   3 897.239 48.1259   7
   1   6   3 862.148 41.5878  14
   1   6   3 844.074 42.0579   6
  -1   6  -3 852.166 39.4430  13
   1   6   3 871.498 48.2539  16
   1   6   3 874.922 51.9444  22
  -1   6  -3 897.419 42.3547   6
  -1   6  -3 931.122 42.8464  12
  -1   6  -3 927.312 41.7048   5
   2  -6   3 45.0712 3.90384  12
   2   6   3 47.1654 3.58360   6
  -2   6  -3 45.7415 4.93503  16
   2   6   3 42.0348 4.07912  16
  -2   6  -3 44.7485 4.21987   6
   2   6   3 45.1896 3.57551  14
   2   6   3 43.5101 3.80992   7
  -3  -6  -3 0.84904 1.37170   6
   3  -6   3 -0.3018 1.50517  12
  -3   6  -3 -0.6338 1.89324   6
   3   6   3 -0.0489 1.47702   7
   4  -7  -3 24.6122 2.37277  12
  -4   7   3 25.6785 2.66790  14
   3  -7  -3 0.36177 1.75128   5
   3  -7  -3 1.63439 1.88643  12
  -3   7   3 3.21985 1.93332  14
  -3   7   3 3.07007 2.19239   7
   2  -7  -3 189.229 9.91487   5
   2  -7  -3 179.515 10.2790  12
   2   7  -3 198.895 9.26395  13
  -2   7   3 188.278 11.7343   7
   2   7  -3 195.477 9.89689   6
  -2   7   3 198.429 10.0433  14
  -1  -7   3 546.648 31.2935  21
   1  -7  -3 575.880 27.0905   5
   1  -7  -3 557.907 25.6446  13
  -1  -7   3 612.639 30.7600  15
   1  -7  -3 575.956 34.4520  24
   1   7  -3 570.431 27.7027  12
   1   7  -3 591.656 27.3638   6
   1   7  -3 535.793 25.5899  13
   1   7  -3 560.416 27.0297   5
  -1   7   3 557.773 31.3882   7
  -1   7   3 514.133 34.1183  22
  -1   7   3 486.469 31.6920  16
  -1   7   3 561.863 27.0633  14
   0  -7  -3 17.9154 4.04241  24
   0  -7  -3 6.89714 4.63076  23
   0  -7  -3 20.7073 2.17937   5
   0  -7   3 23.4885 3.05840  15
   0  -7   3 18.0388 2.82536  21
   0  -7  -3 25.6920 2.22765  13
   0   7   3 20.0533 2.43579  14
   0   7   3 24.1866 2.77311   7
   0   7  -3 26.0764 2.39553   5
   0   7   3 13.0864 3.05191  16
   0   7   3 21.9526 4.32874  22
   0   7  -3 25.1485 2.52011   6
   0   7  -3 23.0398 2.44382  13
   0   7  -3 21.0583 2.33406  12
   1  -7   3 125.420 9.04832  15
  -1  -7  -3 147.365 7.21646  13
  -1   7  -3 149.339 7.71793   5
   1   7   3 140.580 7.80372   6
   1   7   3 142.768 8.76388   7
  -1   7  -3 136.642 8.02140   6
   1   7   3 141.853 7.65589  14
  -1   7  -3 150.262 7.33975  13
   1   7   3 147.196 9.21503  16
   2  -7   3 12.1339 1.99833  12
   2   7   3 13.8379 1.76416  14
   2   7   3 13.4741 1.80364   6
  -2   7  -3 12.6811 2.17775   6
   2   7   3 12.5212 1.85398   7
  -2   7  -3 11.9981 1.96240   5
   3  -8  -3 106.867 5.56453   5
  -3   8   3 99.2587 5.64187  14
   2  -8  -3 34.4924 2.96397   5
  -2   8   3 33.9587 3.07727  14
   2   8  -3 36.1388 2.67222   6
  -2   8   3 29.0057 3.56147   7
   2   8  -3 34.9927 2.61801  13
   1  -8  -3 47.0529 3.22921  13
   1  -8  -3 45.4175 3.37819   5
   1   8  -3 51.9195 3.49909   6
   1   8  -3 45.5768 3.24389  13
  -1   8   3 47.4184 4.26507   7
  -1   8   3 44.1849 3.64722  14
   1   8  -3 44.9680 3.40797   5
   0  -8   3 397.283 19.0012  12
   0  -8  -3 374.925 17.5213  13
   0   8  -3 398.041 18.5147   5
   0   8   3 371.978 21.3791   7
   0   8  -3 359.590 17.5335  13
   0   8  -3 390.344 18.7906   6
   0   8   3 354.710 18.4539  14
   1  -8   3 10.6938 1.82444  12
  -1  -8  -3 10.6945 1.54712  13
   1   8   3 8.51649 1.53118  14
   1   8   3 6.81682 1.73493   7
  -1   8  -3 11.8745 1.91623   6
  -1   8  -3 9.89080 1.64514  13
  -1   8  -3 12.4300 1.74631   5
   2  -8   3 3.33935 1.28555  12
   2   8   3 3.51326 1.16292   7
  -2   8  -3 4.25427 1.44542   6
   1  -9  -3 53.3017 3.35543   5
   1  -9  -3 57.6058 3.26121  13
   1   9  -3 57.4943 3.44907   6
   1   9  -3 51.8883 3.22370  13
   0  -9  -3 13.5290 1.44760  13
   0   9  -3 12.8673 1.51822   6
   0   9   3 8.78283 1.70375   7
   0   9  -3 12.6878 1.36699  13
   0   9   3 10.3790 1.41608  14
   5   0  -4 -0.3132 1.74024   4
  -5   0   4 0.20536 2.00928  14
   5   0  -4 -0.9463 2.09462   7
   4   0  -4 16.6164 2.57812   7
   4   0  -4 15.1873 2.18351   4
   4   0  -4 10.9305 2.00566  12
  -4   0   4 15.1955 2.91161  15
  -3   0   4 14.8402 3.75309  17
   3   0  -4 14.3909 2.02160   4
   3   0  -4 13.9076 1.92812  12
  -3   0   4 12.2378 5.00061  11
   3   0  -4 15.6879 2.26669   7
  -3   0   4 15.5868 2.52986  21
   3   0  -4 13.6886 4.14536   1
  -3   0   4 18.0097 2.33008  15
   3   0  -4 14.2920 7.07519   8
   2   0  -4 106.652 10.3707   9
  -2   0   4 128.587 8.31654  17
   2   0  -4 111.291 11.3015   2
   2   0  -4 119.325 6.46257  12
   2   0  -4 115.192 11.5133   8
  -2   0   4 132.908 9.28874  11
   2   0  -4 128.699 7.23676  16
  -2   0   4 114.673 7.28684  21
   2   0  -4 119.788 7.79073  22
  -2   0   4 126.545 7.22748  15
  -2   0   4 123.707 8.25497  18
  -1   0   4 121.167 6.89112  21
   1   0  -4 117.122 6.95249  16
  -1   0   4 117.357 7.70236   1
   1   0  -4 118.633 10.1785   9
   1   0  -4 114.214 10.4188   2
  -1   0   4 111.723 7.78253  17
  -1   0   4 108.594 7.56262  18
  -1   0   4 112.445 6.85543  15
   1   0  -4 107.458 10.4878   8
  -1   0   4 118.030 8.76255  11
   0   0   4 1.19853 3.35394  23
   0   0  -4 -0.0044 4.85604   8
   0   0  -4 0.01601 3.76322  20
   0   0   4 4.73556 2.94408   1
   0   0   4 -0.2153 2.90356  17
   0   0  -4 -1.0902 3.61615   2
   0   0  -4 0.94581 1.94708  16
   0   0  -4 -0.3272 3.21325  19
   0   0   4 0.71855 1.96409  15
   0   0   4 0.43408 3.62727  11
   0   0   4 0.87690 2.38715  18
   0   0   4 0.19699 1.93891  24
   0   0  -4 0.43036 2.22136  22
   0   0   4 0.35982 1.38759  21
   0   0  -4 -0.9810 3.09055   9
  -1   0  -4 55.7117 7.73793  20
  -1   0  -4 53.2094 3.30025  13
  -1   0  -4 50.4818 6.95173   9
  -1   0  -4 55.6745 5.38546  22
   1   0   4 55.4206 4.37181  24
   1   0   4 52.9924 5.62096   1
  -1   0  -4 47.1521 7.20132   3
   1   0   4 58.0523 5.22190  23
   1   0   4 51.5981 3.39013   4
  -1   0  -4 49.1147 6.72460  19
   2   0   4 57.7755 4.91513  24
   2   0   4 62.7800 7.09159   1
   2   0   4 65.8249 3.89468   4
  -2   0  -4 63.7098 4.21808   6
   2   0   4 69.3273 5.66315  23
  -3   0  -4 4.44267 1.75692   6
   3   0   4 7.49110 1.68822   4
  -4   0  -4 465.378 23.1471   6
   4   0   4 475.782 21.2049   4
   5  -1  -4 50.6760 3.78737   4
   5   1  -4 67.4817 4.90606   7
   5   1  -4 53.1890 3.71343   4
  -5   1   4 53.6126 4.12817  14
  -4  -1   4 27.8192 3.08060  15
   4  -1  -4 29.9408 3.21052  16
   4  -1  -4 22.3098 2.48589  12
   4  -1  -4 17.5713 3.46785  22
   4  -1  -4 25.4076 2.86039   7
  -4  -1   4 25.5806 3.20388  21
   4  -1  -4 22.1357 2.47088   4
   4   1  -4 22.4633 2.71285  12
  -4   1   4 20.3595 3.42907  21
  -4   1   4 21.9653 2.65340  14
   4   1  -4 28.5528 2.96916   7
   4   1  -4 25.8597 2.50030   4
  -4   1   4 23.7137 3.38141  15
   3  -1  -4 34.0282 7.89119   8
   3  -1  -4 44.2036 3.67089   7
   3  -1  -4 38.2242 3.15331   5
   3  -1  -4 43.2311 4.22904  22
  -3  -1   4 35.7202 6.18003  11
  -3  -1   4 35.1709 3.60719  21
  -3  -1   4 37.1076 4.40365  17
   3  -1  -4 42.8244 3.89131  16
   3  -1  -4 27.0409 6.57267   2
  -3  -1   4 42.8941 3.44493  15
   3  -1  -4 42.8196 3.34438   4
   3  -1  -4 40.0113 3.14301  12
   3  -1  -4 39.2050 5.13812   1
   3   1  -4 44.3833 3.07164   4
  -3   1   4 30.9161 5.77324  11
   3   1  -4 37.5575 3.19296  12
  -3   1   4 40.3085 5.21195  17
   3   1  -4 29.0068 7.58643   8
   3   1  -4 38.6059 5.03435   1
  -3   1   4 43.9537 4.24440  21
  -3   1   4 42.0745 3.72288  15
   3   1  -4 42.4433 3.69118   7
   2  -1  -4 184.403 14.6871   9
   2  -1  -4 172.137 9.20070  12
   2  -1  -4 189.222 8.57407   4
   2  -1  -4 146.116 15.2537   2
  -2  -1   4 183.641 10.2957  21
   2  -1  -4 180.430 9.08180   5
  -2  -1   4 178.745 12.4569  11
  -2  -1   4 197.840 10.1851  15
  -2  -1   4 187.542 11.3533  17
   2  -1  -4 185.286 10.5804  16
   2  -1  -4 177.347 15.5939   8
   2  -1  -4 174.647 11.3465  22
  -2  -1   4 168.160 10.7363  18
  -2   1   4 183.689 10.3780  15
  -2   1   4 162.115 12.4924  11
   2   1  -4 183.698 9.05876   5
   2   1  -4 165.073 15.1855   8
   2   1  -4 172.685 8.48513   4
  -2   1   4 194.840 10.5158   7
   2   1  -4 159.528 14.5207   9
  -2   1   4 179.411 11.4153  18
  -2   1   4 182.764 10.5522  21
   2   1  -4 177.748 9.20754  12
   2   1  -4 177.182 15.5841   2
  -2   1   4 187.245 11.7761  17
  -1  -1   4 12.2719 1.55088  21
  -1  -1   4 15.4105 2.60976  17
   1  -1  -4 9.86407 3.35864  20
   1  -1  -4 15.2363 2.51799  22
   1  -1  -4 9.61760 3.89441   2
   1  -1  -4 11.2311 3.54735   9
  -1  -1   4 13.1146 3.41904   1
   1  -1  -4 17.6747 3.84181  19
  -1  -1   4 7.32819 2.37085  18
  -1  -1   4 12.0813 1.76218  15
  -1  -1   4 16.1968 3.98928  11
  -1   1   4 9.83966 3.34013  11
  -1   1   4 15.1742 1.98722  15
  -1   1   4 10.9653 2.69418   1
  -1   1   4 12.9465 3.03508  17
  -1   1   4 15.6165 3.30707  18
   1   1  -4 12.8132 3.83504   9
  -1   1   4 16.1959 1.87232  21
   1   1  -4 7.67745 4.37715   8
   1   1  -4 16.6454 1.76707  16
   1   1  -4 15.8359 4.45257   2
   0  -1  -4 231.791 13.5780  16
   0  -1  -4 226.622 16.8786  19
   0  -1  -4 236.110 14.6302  22
   0  -1  -4 212.833 18.3952   9
   0  -1   4 234.994 13.2958  21
   0  -1  -4 239.460 19.0456   2
   0  -1   4 236.370 13.5402   1
   0  -1   4 243.888 14.6366  17
   0  -1  -4 224.914 18.7548   8
   0  -1   4 229.453 13.2679  15
   0  -1  -4 246.910 18.8124  20
   0  -1   4 231.205 13.7519  18
   0   1  -4 241.292 14.4970  22
   0   1   4 252.865 14.5109  24
   0   1   4 231.645 15.3282  11
   0   1  -4 239.673 13.3143  16
   0   1   4 225.722 13.3221  15
   0   1  -4 220.998 18.9459   2
   0   1   4 226.302 14.7541  17
   0   1   4 228.713 13.3436  21
   0   1  -4 216.193 18.3213   9
   0   1   4 220.343 13.8172  18
   0   1   4 225.929 13.3453   1
   0   1  -4 232.107 19.0468   8
   0   1   4 242.379 16.4743  23
  -1  -1  -4 27.6044 5.60130  19
  -1  -1  -4 28.5571 2.39477  13
  -1  -1  -4 27.8762 3.08638  23
   1  -1   4 25.6310 2.90685  21
  -1  -1  -4 25.9632 4.98441   9
  -1  -1  -4 26.4422 2.84350  24
   1  -1   4 27.1283 3.32789  24
   1  -1   4 30.1347 6.78540   8
  -1  -1  -4 15.8595 4.83965   3
   1  -1   4 26.4128 2.21550   4
   1  -1   4 28.0092 3.16574  15
   1  -1   4 34.2606 4.88047   1
   1  -1   4 34.1594 4.39718  23
   1   1   4 30.7035 5.59160  11
  -1   1  -4 24.0937 6.21240   3
  -1   1  -4 27.5160 2.45049  13
  -1   1  -4 31.4899 3.89149  22
  -1   1  -4 23.8484 2.56863   6
   1   1   4 26.2853 3.18057  24
  -1   1  -4 25.7337 5.38250   9
   1   1   4 27.8543 2.39662   4
  -1   1  -4 31.3564 3.68647  16
  -1   1  -4 28.3082 6.10365  20
   1   1   4 29.6901 4.31401   1
   1   1   4 30.6301 3.64872  23
  -1   1  -4 21.2427 4.64556  19
  -2  -1  -4 143.532 9.43824  24
   2  -1   4 145.003 7.15154   4
  -2  -1  -4 146.606 10.5964  23
   2  -1   4 144.230 9.53547  24
   2  -1   4 144.500 10.7813  23
  -2  -1  -4 145.981 7.76568   6
  -2   1  -4 139.188 7.73092   6
   2   1   4 137.447 7.00848   4
  -3  -1  -4 476.302 26.4821  24
  -3  -1  -4 431.242 21.4296   6
   3  -1   4 446.466 19.6582   4
  -3  -1  -4 377.499 29.5768  23
   3   1   4 427.048 19.5712   4
  -3   1  -4 430.817 21.4301   6
   4  -1   4 89.1672 4.37809   4
  -4  -1  -4 85.1428 4.91163   6
  -4   1  -4 80.7504 4.94766   6
   4   1   4 73.4221 4.18891   4
   5  -2  -4 48.7756 3.60586   4
   5  -2  -4 46.4539 3.68956  12
  -5   2   4 56.0589 3.99496  14
   5   2  -4 49.7273 3.46688   4
   5   2  -4 63.1682 4.56091   7
  -5   2   4 52.0703 4.52760   7
   4  -2  -4 354.564 21.3296  22
  -4  -2   4 362.774 19.0615  15
   4  -2  -4 331.092 15.7678   4
   4  -2  -4 295.061 17.1796  12
   4  -2  -4 363.108 19.7062  16
   4   2  -4 351.847 15.7562   4
  -4   2   4 330.954 19.9640  21
  -4   2   4 339.651 16.9281  14
  -4   2   4 325.432 19.4982  15
  -4   2   4 312.216 19.5526   7
   4   2  -4 376.248 19.5488   7
  -3  -2   4 14.3144 5.54677  11
   3  -2  -4 11.8064 7.09988   2
   3  -2  -4 16.9872 1.98264  12
   3  -2  -4 16.6630 3.05049  16
   3  -2  -4 13.3352 2.07024   4
   3  -2  -4 21.0564 3.61083  22
   3  -2  -4 10.1222 4.20416   1
   3  -2  -4 14.6771 1.98315   5
   3  -2  -4 20.1553 8.49102   8
  -3   2   4 1.51412 5.21214  18
  -3   2   4 16.4447 2.76666  15
   3   2  -4 15.8471 2.18876   7
   3   2  -4 15.8750 2.03658  12
  -3   2   4 19.4566 3.31194  21
   3   2  -4 12.9536 4.19053   1
  -3   2   4 18.5449 2.49692   7
  -3   2   4 14.5407 5.52850  11
   3   2  -4 7.81383 6.49338   8
  -3   2   4 0.48420 4.28353  17
   3   2  -4 16.6226 1.83906   4
   2  -2  -4 57.0606 8.29643   8
  -2  -2   4 50.5820 5.72893   1
  -2  -2   4 53.5300 6.13592  11
   2  -2  -4 47.5828 3.18922  12
   2  -2  -4 43.9017 3.16502   5
   2  -2  -4 36.7101 5.97849  20
   2  -2  -4 30.8539 5.57429   9
   2  -2  -4 47.2783 4.42957  16
   2  -2  -4 38.5852 5.38505  19
   2  -2  -4 45.2640 4.55511  22
   2  -2  -4 46.5682 7.32960   2
   2   2  -4 44.4200 6.77577   9
   2   2  -4 45.2763 3.09493   4
   2   2  -4 47.8606 3.21412   5
  -2   2   4 46.2129 3.82899  15
  -2   2   4 48.7040 4.03855  21
  -2   2   4 43.4111 5.13996  23
  -2   2   4 48.1021 3.79983   7
   2   2  -4 41.1677 6.66261   2
   2   2  -4 39.0189 6.88450   8
  -2   2   4 50.9539 5.67046  18
  -2   2   4 40.9473 4.84070   1
  -2   2   4 46.4688 5.95589  11
  -2   2   4 41.5960 4.45170  24
  -2   2   4 40.4961 4.89562  17
   2   2  -4 43.0478 3.13566  12
   1  -2  -4 51.3272 6.66578  20
   1  -2  -4 48.3028 6.67309   9
  -1  -2   4 57.9042 3.64337  21
   1  -2  -4 52.7865 5.07154  22
   1  -2  -4 46.7682 6.15469  19
  -1  -2   4 56.0350 3.74889  15
   1  -2  -4 60.3990 3.51844   5
  -1  -2   4 58.1114 4.40379  17
   1  -2  -4 54.1087 8.05496   8
   1  -2  -4 54.3199 7.22221   2
  -1  -2   4 60.2772 4.94004  18
  -1  -2   4 57.0528 5.31377   1
   1  -2  -4 53.6580 4.56361  16
   1   2  -4 51.3183 7.19449   8
  -1   2   4 57.6025 4.16362  21
  -1   2   4 58.7831 4.47295  24
  -1   2   4 42.4588 4.62386   1
   1   2  -4 59.1908 3.64287  12
   1   2  -4 53.9282 7.03416   9
  -1   2   4 53.4086 5.67950  11
  -1   2   4 58.2552 5.68287  18
   1   2  -4 57.3918 3.50797   5
  -1   2   4 59.2497 5.39803  23
   1   2  -4 62.7198 3.64733  13
   1   2  -4 47.9256 6.70296   2
  -1   2   4 55.4935 5.29500  17
   0  -2  -4 401.333 34.4184   2
   0  -2   4 427.445 26.6765  17
   0  -2  -4 451.707 29.8986  23
   0  -2  -4 430.963 26.6541  24
   0  -2   4 459.664 24.9118  18
   0  -2   4 448.620 24.4491  15
   0  -2  -4 447.679 34.2403  20
   0  -2   4 468.306 24.5311   1
   0  -2  -4 434.772 21.3214   5
   0  -2  -4 474.824 31.4342  19
   0   2  -4 446.174 24.6094  16
   0   2  -4 381.937 19.8901   4
   0   2   4 456.654 30.2214  23
   0   2   4 436.910 27.6864  11
   0   2  -4 467.678 21.3650   5
   0   2  -4 445.719 34.6781   2
   0   2  -4 507.241 34.0215   3
   0   2  -4 445.572 26.5867  22
   0   2   4 421.048 23.9395   1
   0   2  -4 381.695 21.8550  12
   1  -2   4 260.214 11.5741   4
  -1  -2  -4 217.027 19.9229   3
   1  -2   4 266.368 14.8720   1
   1  -2   4 244.417 14.2559  15
  -1  -2  -4 246.394 20.0924   9
  -1  -2  -4 250.505 11.6423  13
  -1  -2  -4 258.296 15.4064  24
   1  -2   4 229.161 15.7703  17
   1  -2   4 231.061 14.2402  21
   1  -2   4 200.062 15.0994  18
   1  -2   4 248.266 20.3816   8
  -1  -2  -4 240.164 17.2237  23
  -1   2  -4 270.560 21.0877   3
   1   2   4 222.809 21.2006  20
  -1   2  -4 261.489 12.5212   5
  -1   2  -4 245.172 20.8892   2
  -1   2  -4 219.937 12.6454  12
  -1   2  -4 253.176 20.2171   9
   1   2   4 267.522 17.1956  23
  -1   2  -4 264.081 15.7379  22
  -1   2  -4 249.167 11.6858  13
  -1   2  -4 262.184 14.4699  16
  -1   2  -4 263.951 12.5784   6
   1   2   4 238.132 18.8941  19
   1   2   4 254.691 15.3084  24
  -1   2  -4 244.626 18.2410  19
   1   2   4 234.504 16.5500  11
   2  -2   4 37.7815 4.76641  23
  -2  -2  -4 26.5514 2.51971   6
   2  -2   4 25.3510 2.43623   4
  -2  -2  -4 25.1641 3.90019  23
  -2  -2  -4 28.6207 3.51057  24
   2  -2   4 28.1345 3.65751  24
  -2   2  -4 27.5281 2.69238   6
   3  -2   4 31.5819 2.82302   4
  -3  -2  -4 24.1708 4.19980  23
  -3  -2  -4 31.7943 3.20792   6
  -3   2  -4 33.7432 3.32428   6
  -4  -2  -4 130.001 6.73692   6
   4  -2   4 126.605 6.11239   4
  -4   2  -4 119.683 6.81945   6
   5  -3  -4 47.7134 3.55640  12
  -5   3   4 43.5573 4.23166   7
   5   3  -4 44.1277 3.34587   4
  -5   3   4 48.8004 3.80722  14
   5   3  -4 58.8968 4.21995   7
   4  -3  -4 52.3873 5.44363  16
   4  -3  -4 51.3322 3.86009  12
   4  -3  -4 48.3078 6.15808  22
  -4   3   4 52.5928 6.60131  24
  -4   3   4 50.6508 4.63389   7
  -4   3   4 48.0197 6.80146  23
  -4   3   4 57.1543 4.12528  14
   4   3  -4 57.4392 4.39366   7
   4   3  -4 48.2842 3.59873   4
   3  -3  -4 475.925 26.8396  16
   3  -3  -4 463.893 23.4009  12
   3  -3  -4 433.484 22.8353   5
   3  -3  -4 487.631 28.9313  22
  -3   3   4 511.407 22.8642  14
   3   3  -4 482.166 21.3024   4
   3   3  -4 445.677 23.3665  12
  -3   3   4 459.329 32.5285  23
  -3   3   4 472.235 26.4623   7
  -3   3   4 463.137 29.1718  24
   2  -3  -4 95.7191 7.57105  22
   2  -3  -4 91.5355 9.19354  19
   2  -3  -4 98.8049 5.29141   5
   2  -3  -4 86.4520 7.04249  16
   2  -3  -4 94.2537 10.9242   8
   2  -3  -4 90.3909 10.5886  20
   2  -3  -4 90.1399 10.4750   2
  -2  -3   4 105.047 7.49498   1
   2  -3  -4 95.4856 5.39004  12
   2  -3  -4 83.3388 10.4398   9
   2   3  -4 94.3662 5.36939  12
   2   3  -4 84.6254 10.1868   8
   2   3  -4 87.0568 4.90474   4
  -2   3   4 91.9716 6.78247  24
   2   3  -4 84.7747 10.5223   2
  -2   3   4 81.6332 8.15540  11
  -2   3   4 89.5199 7.65265  23
  -2   3   4 108.283 6.28520   7
   2   3  -4 94.1778 5.29198   5
   2   3  -4 91.1248 10.0770   9
  -1  -3   4 1686.98 95.6453  17
   1  -3  -4 1548.35 119.178   9
   1  -3  -4 1590.23 108.708  23
   1  -3  -4 1484.35 119.268   8
   1  -3  -4 1753.36 120.670  20
   1  -3  -4 1624.27 110.843  19
   1  -3  -4 1529.63 122.724   2
   1  -3  -4 1603.09 73.0901  13
  -1  -3   4 1675.65 87.5791  18
  -1  -3   4 1730.59 86.0158   1
   1  -3  -4 1686.22 77.2754   5
  -1   3   4 1727.04 109.071  23
   1   3  -4 1672.33 79.2009  12
  -1   3   4 1644.17 97.7118  11
  -1   3   4 1781.92 97.1886  24
   1   3  -4 1678.02 77.2886   5
   1   3  -4 1496.12 72.0634   4
   1   3  -4 1432.94 122.758   2
   1   3  -4 1589.36 119.417   9
  -1   3   4 1513.87 89.2069   7
   1   3  -4 1673.63 73.1378  13
   0  -3  -4 138.445 8.56144  24
   0  -3   4 129.843 7.87560  21
   0  -3   4 124.935 9.00640  18
   0  -3  -4 131.737 12.5055   2
   0  -3   4 135.898 8.88382  17
   0  -3  -4 119.205 6.53304  13
   0  -3   4 135.111 12.6551   8
   0  -3  -4 121.496 9.56025  23
   0  -3  -4 140.758 6.88164   5
   0  -3  -4 137.008 13.7104  20
   0  -3   4 135.263 9.25728   1
   0  -3   4 133.432 7.89156  15
   0  -3  -4 123.153 12.0799   9
   0  -3  -4 129.351 12.0629  19
   0   3  -4 140.509 6.92463   5
   0   3   4 124.897 9.51003  23
   0   3  -4 123.900 6.52658   4
   0   3  -4 129.492 12.4559   2
   0   3  -4 146.886 12.8267   3
   0   3   4 141.353 12.5506  19
   0   3  -4 134.519 7.17739  12
   0   3  -4 122.587 6.61958  13
   0   3  -4 127.705 7.92677  16
   0   3   4 97.0913 14.1557  20
   0   3   4 122.600 8.07064   7
   0   3  -4 131.980 8.47075  22
   0   3  -4 122.969 12.3365   9
   0   3   4 137.797 8.65174  24
   0   3   4 125.835 9.99679  11
  -1  -3  -4 5.71661 2.60260  24
  -1  -3  -4 5.45853 1.44053  13
  -1  -3  -4 5.74975 5.47846   9
  -1  -3  -4 5.46127 1.87648   6
   1  -3   4 5.37520 2.54274  15
   1  -3   4 1.06925 3.90573  17
   1  -3   4 4.53649 7.38241   8
   1  -3   4 4.57597 1.70593   4
  -1  -3  -4 4.48525 2.99164  23
   1  -3   4 6.15493 1.79518  21
   1  -3   4 7.67631 5.43439   1
   1   3   4 3.76406 2.25804   7
  -1   3  -4 3.91781 2.56503  16
   1   3   4 4.70014 4.54520  11
  -1   3  -4 5.91951 3.23761  22
  -1   3  -4 1.86907 1.92304   5
  -1   3  -4 6.37957 2.06833   6
  -1   3  -4 1.97781 6.36550   9
  -1   3  -4 4.61397 7.34080   3
  -1   3  -4 4.09082 2.07590  12
  -1   3  -4 4.90370 1.77163  13
  -2  -3  -4 172.038 10.6347  24
   2  -3   4 146.512 10.5994  24
   2  -3   4 139.372 11.8648  23
   2  -3   4 160.146 7.68926   4
  -2  -3  -4 148.794 8.27202   6
  -2  -3  -4 154.014 11.6847  23
  -2   3  -4 148.875 10.1384  16
  -2   3  -4 163.348 11.4192  22
  -2   3  -4 158.308 8.51339   6
   3  -3   4 30.9334 2.81502   4
  -3  -3  -4 31.4837 3.06539   6
  -3   3  -4 27.9851 2.73991   6
  -4  -3  -4 68.3326 4.03907   6
   4  -3   4 69.9818 3.72326   4
  -4   3  -4 66.6411 4.20370   6
   5  -4  -4 47.3325 3.26711  12
  -5   4   4 41.8388 3.78927   7
   5   4  -4 49.8484 3.67418   7
  -5   4   4 44.4746 3.42184  14
   4  -4  -4 384.057 19.7110  12
   4   4  -4 371.006 17.8850   4
  -4   4   4 408.880 27.4914  23
  -4   4   4 370.665 22.3094   7
   4   4  -4 416.234 22.3765   7
  -4   4   4 401.185 19.3543  14
   3  -4  -4 537.187 25.5079  12
   3  -4  -4 492.458 24.8674   5
  -3   4   4 539.337 24.8821  14
   3   4  -4 494.364 23.1017   4
  -3   4   4 470.708 28.7443   7
  -3   4   4 529.661 31.5924  24
  -3   4   4 515.537 35.2457  23
   2  -4  -4 126.836 15.2728   8
  -2  -4   4 127.104 14.8834   8
   2  -4  -4 158.735 8.31404   5
   2  -4  -4 170.120 8.52418  12
   2  -4  -4 165.488 15.8315   2
  -2   4   4 159.150 10.6278  24
  -2   4   4 175.545 11.8559  23
   2   4  -4 157.174 8.24326   5
   2   4  -4 165.815 7.86337  13
  -2   4   4 165.114 8.64589  14
  -2   4   4 131.155 12.1153  11
   2   4  -4 147.373 7.65457   4
  -2   4   4 167.241 9.61694   7
   2   4  -4 161.687 8.49349  12
   1  -4  -4 415.215 29.1307  23
   1  -4  -4 454.044 20.8256   5
   1  -4  -4 378.687 32.8985   9
   1  -4  -4 402.059 34.0968   2
  -1  -4   4 402.182 33.1914   8
   1  -4  -4 446.210 26.0395  24
   1  -4  -4 411.356 19.6662  13
  -1  -4   4 421.626 23.9438   1
   1   4  -4 400.592 19.3017   4
   1   4  -4 409.249 33.4612   9
   1   4  -4 412.511 34.1580   2
  -1   4   4 415.471 27.1259  11
  -1   4   4 444.852 24.0598   7
   1   4  -4 445.832 19.7752  13
  -1   4   4 475.284 26.1938  24
  -1   4   4 422.708 29.1774  23
   1   4  -4 446.441 21.2681  12
   1   4  -4 445.145 20.7756   5
   0  -4  -4 147.949 7.87696  13
   0  -4   4 160.952 9.46554  15
   0  -4  -4 169.602 10.5214  24
   0  -4   4 155.811 14.9136   8
   0  -4  -4 136.895 14.6875   9
   0  -4  -4 157.431 11.7969  23
   0  -4   4 164.842 9.57281  21
   0  -4   4 155.881 10.8611   1
   0  -4  -4 143.627 14.8842   2
   0  -4  -4 165.519 8.27960   5
   0   4   4 162.846 9.71516   7
   0   4  -4 172.298 8.56552  12
   0   4  -4 154.828 7.99469  13
   0   4   4 126.127 13.7810  19
   0   4  -4 168.159 8.30696   5
   0   4  -4 178.715 8.55399   6
   0   4  -4 162.981 15.4820   3
   0   4  -4 147.983 7.76564   4
   0   4  -4 141.919 15.4853   9
   0   4   4 161.567 11.9820  11
  -1  -4  -4 55.8149 3.67944  13
   1  -4   4 54.9276 4.92207  15
   1  -4   4 56.0235 3.85092   4
  -1  -4  -4 52.1120 5.70111  23
   1  -4   4 55.1349 4.79250  21
  -1  -4  -4 60.8235 5.23753  24
  -1   4  -4 57.4592 4.03504  13
  -1   4  -4 64.8592 4.36408   6
  -1   4  -4 60.6563 4.36370  12
  -1   4  -4 56.6327 5.28863  22
  -1   4  -4 56.6744 4.19013   5
  -1   4  -4 50.8658 4.83732  16
   1   4   4 55.8614 4.64699   7
   2  -4   4 72.5211 6.79007  24
  -2  -4  -4 78.8864 4.87790   6
  -2  -4  -4 73.1054 7.36228  23
  -2  -4  -4 88.4009 6.79459  24
   2  -4   4 82.2732 4.67813   4
   2   4   4 72.9550 7.21774  22
  -2   4  -4 80.7815 7.65802  22
  -2   4  -4 79.9727 6.50177  16
  -2   4  -4 84.2881 5.25740   6
  -2   4  -4 75.3065 5.20465  12
   2   4   4 75.9856 6.31371  16
   2   4   4 75.1274 5.59515   7
   3  -4   4 51.3503 3.44403   4
  -3  -4  -4 52.7604 3.59914   6
  -3   4  -4 50.9868 3.87225   6
   4  -5  -4 6.87524 1.76659  12
  -4   5   4 6.32416 2.14035   7
  -4   5   4 6.97060 2.13954  14
   3  -5  -4 69.8218 4.63627   5
   3  -5  -4 72.9844 4.73815  12
  -3   5   4 78.8872 4.87642  14
  -3   5   4 79.7682 5.57710   7
  -3   5   4 72.3844 5.95232  24
  -3   5   4 62.0004 6.56969  23
   2  -5  -4 1565.20 78.0251   5
   2  -5  -4 1640.73 73.7796  13
   2  -5  -4 1642.18 79.9281  12
  -2   5   4 1612.56 90.1467   7
   2   5  -4 1695.21 73.7198  13
   2   5  -4 1553.79 79.8872  12
   2   5  -4 1617.09 77.9477   5
  -2   5   4 1773.66 77.9183  14
   1  -5  -4 168.286 8.69593  13
   1  -5  -4 182.912 9.26130   5
   1  -5  -4 185.689 11.5785  24
   1  -5  -4 147.731 12.6851  23
  -1   5   4 186.440 10.7313   7
   1   5  -4 175.636 8.83614  13
   1   5  -4 185.750 9.36907  12
   1   5  -4 177.057 9.25462   5
   0  -5  -4 41.3540 4.53708  24
   0  -5  -4 35.0417 5.24406  23
   0  -5  -4 37.7392 3.18964  13
   0  -5  -4 37.4572 3.42913   5
   0  -5   4 38.0172 3.84524  21
   0  -5   4 38.3572 3.75819  15
   0   5   4 41.2197 4.12845   7
   0   5  -4 32.9560 3.39860  13
   0   5  -4 45.1497 3.81639   6
   0   5  -4 38.3405 3.36528   5
   0   5  -4 40.2791 3.55152  12
   1  -5   4 59.6266 5.49928  21
   1  -5   4 57.6211 5.27857  15
  -1  -5  -4 65.1122 4.10170  13
  -1  -5  -4 71.0474 5.87833  24
  -1  -5  -4 58.5200 6.51636  23
  -1   5  -4 58.7604 4.25220  13
   1   5   4 64.2591 4.91744   7
   1   5   4 61.2301 6.74829  22
  -1   5  -4 52.2411 5.26536  16
  -1   5  -4 60.0968 5.39282  22
   1   5   4 64.5980 6.15834  16
  -1   5  -4 65.2149 4.87408   6
  -1   5  -4 63.8679 4.50170  12
  -1   5  -4 68.0093 4.53322   5
  -2  -5  -4 6.79342 1.80851   6
   2  -5   4 2.96336 5.23474  23
  -2   5  -4 7.86137 2.14192   6
   2   5   4 6.85032 1.98739   7
  -3  -5  -4 33.6892 2.63383   6
  -3   5  -4 29.7727 3.00006   6
   4  -6  -4 67.1302 3.91529  12
  -4   6   4 54.3293 4.04846  14
  -4   6   4 58.6338 4.53032   7
   3  -6  -4 539.983 27.4469   5
   3  -6  -4 604.203 28.1532  12
  -3   6   4 585.318 27.4834  14
  -3   6   4 537.087 31.7800   7
   2  -6  -4 44.3850 3.56936  13
   2  -6  -4 42.0270 3.49164   5
   2   6  -4 41.6326 3.31333  13
  -2   6   4 46.8286 3.66406  14
  -2   6   4 43.3504 4.22908   7
   2   6  -4 40.3369 3.50545   5
  -1  -6   4 52.4548 4.42927  15
   1  -6  -4 50.1782 3.75123  13
   1  -6  -4 56.4370 5.76900  24
   1  -6  -4 58.0119 4.00980   5
  -1   6   4 49.9036 4.64244   7
   1   6  -4 58.9530 4.07437  12
   1   6  -4 50.4564 3.97370   5
   1   6  -4 51.3417 3.82400  13
   1   6  -4 56.1408 4.07507   6
  -1   6   4 55.2793 4.20950  14
   0  -6  -4 183.700 9.16029  13
   0  -6  -4 200.097 12.3784  24
   0  -6  -4 150.715 13.7131  23
   0  -6   4 191.571 10.9819  15
   0  -6   4 179.460 11.2248  21
   0   6   4 205.591 11.1791   7
   0   6  -4 196.642 9.83828  12
   0   6  -4 190.083 9.61478   5
   0   6   4 154.816 11.6450  16
   0   6  -4 176.263 9.18103  13
   0   6  -4 217.966 9.98652   6
   0   6   4 153.660 12.5840  22
   1  -6   4 24.2106 3.31864  15
  -1  -6  -4 24.6799 2.34704  13
  -1  -6  -4 8.41551 4.80531  23
  -1   6  -4 27.6416 2.86624   6
   1   6   4 22.0613 3.53006  16
  -1   6  -4 24.3806 2.50314  13
  -1   6  -4 22.2748 2.44014   5
  -1   6  -4 31.0422 3.26364  12
   1   6   4 19.4096 2.60946   7
  -2  -6  -4 29.2478 2.75317   6
   2  -6   4 28.9601 3.19825  12
  -2   6  -4 34.8419 3.49251   6
   2   6   4 31.0213 3.11746   7
   3  -7  -4 129.416 6.77484   5
   3  -7  -4 127.439 6.82327  12
  -3   7   4 124.437 7.91374   7
  -3   7   4 121.814 6.79152  14
   2  -7  -4 237.428 11.8402   5
   2   7  -4 232.827 11.0778  13
  -2   7   4 242.481 11.8179  14
  -2   7   4 234.775 13.7698   7
   2   7  -4 220.525 11.7135   5
   1  -7  -4 144.263 7.32281  13
   1  -7  -4 142.538 7.62987   5
   1   7  -4 137.003 7.31155  13
   1   7  -4 157.257 7.76137   6
   1   7  -4 136.479 7.63169   5
   1   7  -4 139.012 7.80655  12
  -1   7   4 139.197 8.90228   7
  -1   7   4 143.425 7.73904  14
   0  -7  -4 34.6982 3.09316  13
   0   7   4 34.9537 3.61693   7
   0   7  -4 37.1689 3.11644   5
   0   7  -4 38.4887 3.55603   6
   0   7  -4 40.3329 3.30345  12
   0   7  -4 35.2395 3.23445  13
   0   7   4 34.1959 3.46777  14
  -1  -7  -4 141.679 6.97099  13
  -1   7  -4 141.661 7.39386   5
   1   7   4 141.435 8.46218   7
  -1   7  -4 131.301 7.02190  13
  -1   7  -4 138.863 7.70928   6
   2  -7   4 21.5746 2.31541  12
  -2   7  -4 20.8780 2.08811   6
   2   7   4 21.8855 2.35696   7
   2  -8  -4 4.39128 1.44733   5
  -2   8   4 4.72711 1.54424  14
   2   8  -4 0.50106 1.14666  13
  -2   8   4 3.51252 1.63478   7
   1  -8  -4 44.5484 3.22635   5
   1  -8  -4 44.0957 3.09708  13
   1   8  -4 47.8627 3.19844   6
  -1   8   4 42.9303 3.76095   7
   1   8  -4 46.2866 3.25979   5
   1   8  -4 46.5181 3.19701  13
   0  -8  -4 46.3897 3.08518  13
   0  -8   4 41.0375 3.34116  12
   0   8  -4 43.4147 3.15026   5
   0   8  -4 46.3720 3.17040  13
   0   8   4 47.7867 3.65658   7
   0   8  -4 53.1928 3.40224   6
   1  -8   4 27.5569 2.37266  12
  -1  -8  -4 27.6335 2.00606  13
  -1   8  -4 18.7236 1.79129  13
   1   8   4 22.8627 2.30609   7
  -1   8  -4 26.0476 2.28554   5
  -1   8  -4 23.2979 2.45153   6
   5   0  -5 6.56461 1.80485   4
  -5   0   5 5.93245 2.34444   7
  -4   0   5 7.09115 3.12836  15
  -4   0   5 9.02467 3.40828  21
   4   0  -5 10.4292 2.08905   4
   4   0  -5 9.96821 2.05149  12
   3   0  -5 1.50354 1.68293  12
   3   0  -5 0.55794 1.99262   4
   3   0  -5 -1.4738 1.66893   5
  -3   0   5 0.58408 2.59409   7
  -3   0   5 -0.8276 2.68049  21
  -3   0   5 0.27346 2.50172  15
   3   0  -5 2.70399 7.74600   2
  -2   0   5 12.7016 4.03226  17
   2   0  -5 3.20509 6.51810   8
   2   0  -5 10.8049 1.91174   4
   2   0  -5 10.7962 5.74510   2
  -2   0   5 14.7729 2.50083  21
  -2   0   5 14.1392 5.70070  11
  -2   0   5 8.48602 4.70413   1
   2   0  -5 7.45169 4.96747   9
   2   0  -5 15.2490 2.71320  22
  -2   0   5 17.6747 2.53700  15
   2   0  -5 17.2250 2.32704  16
   2   0  -5 13.4414 1.85038  12
   2   0  -5 12.2950 1.86585  13
   2   0  -5 13.3693 1.87965   5
   1   0  -5 7.84349 5.01787   9
   1   0  -5 8.06589 1.71333  12
  -1   0   5 7.42683 4.66150  11
   1   0  -5 10.0090 2.73031  22
   1   0  -5 7.60888 1.85592   4
  -1   0   5 8.19609 3.97673  18
   1   0  -5 8.77195 1.73437  13
  -1   0   5 10.5078 4.03109  17
   1   0  -5 9.61977 1.65409   5
   1   0  -5 4.41090 6.20720   8
   1   0  -5 7.23141 5.12468   2
   1   0  -5 12.6424 2.33494  16
  -1   0   5 8.98390 2.34079  15
  -1   0   5 10.3945 2.07962  21
  -1   0   5 6.68118 4.04157   1
   0   0  -5 1763.39 100.869  22
   0   0  -5 1722.14 75.6861   4
   0   0  -5 1653.52 76.7406  13
   0   0   5 1681.26 101.968  24
   0   0   5 1693.01 90.2346   1
   0   0   5 1591.33 94.0302  21
   0   0   5 1757.19 92.7016  15
   0   0  -5 1740.27 129.052   2
   0   0  -5 1873.01 81.1193   5
   0   0   5 1739.21 114.627  23
   0   0  -5 1520.80 125.051   9
   0   0  -5 1896.88 93.8076  16
   0   0  -5 1538.35 115.545  19
   1   0   5 65.4755 6.20097  23
   1   0   5 71.1793 3.96758   4
  -1   0  -5 63.1539 3.91771  13
   1   0   5 50.8321 4.98079  24
   2   0   5 383.397 16.9222   4
  -2   0  -5 355.798 18.4067   6
   2   0   5 390.164 25.3921  23
   2   0   5 345.974 22.6858  24
   3   0   5 27.4040 2.55998   4
  -3   0  -5 31.2155 2.71018   6
   5  -1  -5 46.3233 3.51328  12
   5  -1  -5 46.1022 3.42886   4
  -5   1   5 55.4087 4.35803   7
   5   1  -5 47.7237 3.35801   4
  -4  -1   5 20.5787 3.69860  21
   4  -1  -5 24.5762 2.52654   4
  -4  -1   5 22.1631 3.28481  15
   4  -1  -5 20.9014 2.33459  12
  -4   1   5 16.9312 3.55126  15
   4   1  -5 21.3951 2.49359  12
  -4   1   5 28.0607 3.19665   7
   4   1  -5 25.9557 3.02482   7
   4   1  -5 23.0270 2.42119   4
  -3  -1   5 30.1749 3.64458  21
   3  -1  -5 31.3503 4.04956  22
   3  -1  -5 37.2566 3.44481   4
   3  -1  -5 34.8948 3.61352  16
   3  -1  -5 35.5672 3.25523  12
   3  -1  -5 32.9747 3.19456   5
  -3  -1   5 37.3255 3.99693  15
   3   1  -5 34.4892 3.33754   5
  -3   1   5 31.5349 4.10482  21
  -3   1   5 39.5851 3.98726   7
   3   1  -5 31.2859 3.17878  12
  -3   1   5 37.4487 4.40527  15
   3   1  -5 39.6045 3.30062   4
   2  -1  -5 85.7192 10.7108   2
   2  -1  -5 97.0977 6.28196  16
   2  -1  -5 76.0123 11.3983   8
   2  -1  -5 86.7595 4.97114  13
   2  -1  -5 93.9991 5.22718   5
   2  -1  -5 92.4916 6.86578  22
  -2  -1   5 96.6180 9.49494  11
  -2  -1   5 90.4705 6.00760  21
  -2  -1   5 96.9369 6.04195  15
   2  -1  -5 95.2260 5.29455  12
  -2  -1   5 88.2780 8.01112   1
   2  -1  -5 89.0197 5.02226   4
  -2   1   5 93.1700 6.21646  15
   2   1  -5 66.7217 10.2720   8
   2   1  -5 90.2379 5.23782  12
  -2   1   5 105.488 6.63843   7
  -2   1   5 80.4201 7.62394   1
   2   1  -5 84.4825 4.90410  13
  -2   1   5 103.664 6.38257  21
   2   1  -5 92.9699 5.06609   4
  -2   1   5 69.6090 8.18622  11
   2   1  -5 86.6739 11.0757   2
   2   1  -5 87.8414 5.21516   5
  -2   1   5 75.9663 8.82369  18
   1  -1  -5 169.768 8.12051  13
   1  -1  -5 168.762 11.0506  22
  -1  -1   5 177.520 9.90392  15
  -1  -1   5 159.096 10.8045  18
   1  -1  -5 161.126 15.1119   2
   1  -1  -5 148.083 14.4205   9
  -1  -1   5 145.965 10.8603   1
  -1  -1   5 166.983 10.9881  17
   1  -1  -5 168.701 10.1052  16
  -1  -1   5 177.698 9.87530  21
   1  -1  -5 170.791 8.48750   5
   1  -1  -5 154.127 7.97338   4
   1  -1  -5 123.962 15.1485   8
   1  -1  -5 163.187 8.68845  12
   1   1  -5 164.711 8.48710   5
   1   1  -5 159.582 8.05036   4
   1   1  -5 176.084 10.5346  22
  -1   1   5 161.336 12.4221  11
  -1   1   5 170.924 10.0299  15
   1   1  -5 185.627 8.19683  13
  -1   1   5 141.497 10.5568   1
  -1   1   5 169.567 10.0334  21
   1   1  -5 142.206 14.8925   8
   1   1  -5 172.890 9.68525  16
   1   1  -5 163.934 14.7376   9
   1   1  -5 170.027 8.73019  12
   0  -1   5 39.4325 5.45187  17
   0  -1  -5 57.8029 5.88285  22
   0  -1  -5 63.2550 3.73032   5
   0  -1   5 58.7879 4.43680  21
   0  -1   5 50.0757 6.24769   1
   0  -1  -5 51.3171 3.42420  13
   0  -1  -5 50.6127 7.95565   9
   0  -1   5 59.7971 4.72695  15
   0  -1  -5 54.2757 5.12204  16
   0  -1  -5 49.2330 3.46760   4
   0  -1  -5 54.5648 8.21155   2
   0   1  -5 57.1650 5.12459  22
   0   1  -5 53.4695 3.61185   4
   0   1  -5 38.3942 7.67439   2
   0   1  -5 59.0072 4.55388  16
   0   1   5 59.3851 6.03908  23
   0   1  -5 57.2023 3.72194   5
   0   1   5 55.1282 7.32080  11
   0   1  -5 48.4901 3.48242  13
   0   1   5 56.2976 4.88397  24
   0   1  -5 46.5836 7.50122   9
   0   1   5 56.2734 6.28988   1
   0   1  -5 47.9208 3.91085  12
   1  -1   5 282.216 19.5369  23
   1  -1   5 249.174 17.1772  24
   1  -1   5 275.992 12.7124   4
  -1  -1  -5 272.684 12.8957  13
   1   1   5 291.210 19.2233  23
  -1   1  -5 278.148 17.5568  22
   1   1   5 267.989 17.1041  24
  -1   1  -5 260.998 12.8547  13
  -1   1  -5 267.272 16.0543  16
   1   1   5 271.627 12.6144   4
   2  -1   5 152.267 7.17029   4
  -2  -1  -5 141.027 7.76352   6
   2  -1   5 120.832 9.49680  24
   2  -1   5 156.342 10.8828  23
   2   1   5 142.647 7.06826   4
  -2   1  -5 144.068 7.92595   6
  -3  -1  -5 388.495 18.6309   6
   3  -1   5 385.576 17.0671   4
   3   1   5 364.378 16.9811   4
  -3   1  -5 359.417 18.6264   6
   5  -2  -5 7.00693 1.56202  12
   5  -2  -5 5.62924 1.68016   4
  -5   2   5 7.18157 2.17003   7
   5   2  -5 6.87798 1.65301   4
   4  -2  -5 259.675 13.5110  12
  -4  -2   5 245.787 15.4027  21
   4  -2  -5 270.280 15.3424  16
   4  -2  -5 268.314 12.3838   4
   4  -2  -5 219.001 16.6438  22
  -4  -2   5 265.634 15.0211  15
  -4   2   5 277.300 15.4073   7
   4   2  -5 234.379 13.4442  12
   4   2  -5 301.179 15.3654   7
   4   2  -5 271.884 12.3635   4
   3  -2  -5 75.2040 6.81261  22
   3  -2  -5 73.5976 4.80626   4
   3  -2  -5 78.9494 5.02714   5
  -3  -2   5 84.9088 5.66411  15
   3  -2  -5 84.3217 5.07562  12
  -3  -2   5 67.3029 5.86738  21
   3  -2  -5 81.1033 6.33388  16
  -3   2   5 79.7789 6.70339  21
  -3   2   5 77.9763 6.04921  15
   3   2  -5 91.4886 4.86494   4
   3   2  -5 73.5158 5.00300  12
  -3   2   5 90.4428 5.96326   7
   3   2  -5 77.7170 5.04957   5
   2  -2  -5 11.8353 1.95332  12
   2  -2  -5 14.1536 1.95568   5
   2  -2  -5 14.9817 3.85962  22
   2  -2  -5 14.3692 3.26889  16
  -2  -2   5 15.3659 2.34599  15
  -2  -2   5 13.1434 2.16884  21
   2  -2  -5 14.2838 10.0651   8
   2  -2  -5 9.64960 6.73356   2
   2  -2  -5 15.6852 2.01769  13
   2  -2  -5 1.30926 5.33027   9
  -2  -2   5 12.2270 5.76350   1
  -2   2   5 13.3300 2.47061   7
  -2   2   5 11.7463 5.33392  11
   2   2  -5 10.9564 7.22876   8
   2   2  -5 1.54321 5.78815   9
  -2   2   5 13.3756 2.60213  15
  -2   2   5 13.8375 2.98155  21
   2   2  -5 11.3122 1.93501  13
   2   2  -5 12.7117 1.91336  12
   2   2  -5 8.25042 6.06804   2
   2   2  -5 12.4331 1.91418   4
  -2   2   5 1.89242 4.99979   1
   2   2  -5 11.2228 2.00542   5
  -2   2   5 14.7865 4.31548  23
  -2   2   5 9.08574 3.14073  24
   1  -2  -5 49.1674 3.51337   5
   1  -2  -5 49.0712 3.30587  13
   1  -2  -5 49.1163 4.99524  16
  -1  -2   5 56.7647 4.18485  15
  -1  -2   5 49.1471 3.84913  21
   1  -2  -5 35.4977 6.83663   9
   1  -2  -5 39.9793 7.81598   2
   1  -2  -5 49.9939 5.65200  22
   1  -2  -5 41.8546 3.59025  12
  -1  -2   5 37.1616 5.83463   1
  -1   2   5 52.3019 7.17013  11
  -1   2   5 44.8433 4.53844  24
   1   2  -5 45.9187 3.34870   4
   1   2  -5 48.2818 3.56144  12
   1   2  -5 51.3302 3.51535  13
   1   2  -5 46.4570 3.38557   5
   1   2  -5 40.6681 7.40687   9
   1   2  -5 36.1545 7.21020   2
  -1   2   5 53.5745 5.71494  23
   0  -2   5 190.166 17.1667   8
   0  -2  -5 200.047 9.77856   5
   0  -2   5 196.056 11.4781  21
   0  -2  -5 153.262 16.9827   2
   0  -2   5 201.106 11.4828  15
   0  -2  -5 179.216 9.27859  13
   0  -2   5 218.156 13.0496   1
   0  -2  -5 173.494 16.8897   9
   0   2   5 190.294 12.3458  24
   0   2  -5 176.950 16.9173   9
   0   2  -5 193.655 9.20498   4
   0   2   5 203.309 13.9933  23
   0   2  -5 189.258 11.3025  16
   0   2  -5 213.604 9.87121   5
   0   2   5 199.419 14.3436  11
   0   2  -5 195.130 10.1716  12
   0   2  -5 195.166 12.3577  22
   0   2  -5 181.306 9.32577  13
   0   2  -5 179.398 17.2808   2
   1  -2   5 795.832 55.7384  23
   1  -2   5 823.932 49.7288  24
  -1  -2  -5 812.344 37.2465  13
   1  -2   5 837.588 36.7263   4
  -1   2  -5 828.661 45.6891  16
   1   2   5 858.445 55.2302  23
  -1   2  -5 829.111 37.2710  13
   1   2   5 728.194 49.2238  24
  -1   2  -5 819.793 49.2187  22
  -1   2  -5 851.612 39.8313   6
  -2  -2  -5 39.8920 3.61657   6
   2  -2   5 41.5292 3.18348   4
   2  -2   5 43.3431 5.40366  23
   2  -2   5 37.6034 4.61803  24
  -2   2  -5 43.6020 3.71846   6
   3  -2   5 1.61093 1.42728   4
  -3  -2  -5 1.12883 1.58204   6
  -3   2  -5 1.05038 1.72678   6
   5  -3  -5 242.092 12.4415  12
   5   3  -5 248.907 11.3690   4
  -5   3   5 245.312 14.1674   7
   4  -3  -5 28.7978 3.14705  12
  -4   3   5 34.3433 3.84367   7
   4   3  -5 31.5311 2.62944   4
   3  -3  -5 45.3475 5.02333  16
   3  -3  -5 42.0306 5.72415  22
   3  -3  -5 36.5037 3.60884   5
   3  -3  -5 41.8395 3.48429  12
  -3   3   5 24.4435 4.86316  24
   3   3  -5 39.3388 3.22073   4
  -3   3   5 36.9591 5.64588  23
  -3   3   5 46.2491 4.20901   7
   3   3  -5 41.9054 3.50335  12
   2  -3  -5 16.8371 4.67353  22
   2  -3  -5 15.5799 2.21578  12
   2  -3  -5 17.1654 4.05641  16
   2  -3  -5 12.0481 2.07711   5
   2  -3  -5 13.0168 2.01787  13
  -2   3   5 18.0969 4.31822  23
   2   3  -5 15.3394 2.01791  12
  -2   3   5 17.7381 2.49078   7
   2   3  -5 14.5429 1.98140   4
   2   3  -5 15.4092 2.15728   5
   2   3  -5 2.53465 7.67993   9
   2   3  -5 19.2661 2.18770  13
  -2   3   5 12.8433 2.95609  24
   1  -3  -5 96.5147 12.9370   2
   1  -3  -5 104.432 5.91804   5
   1  -3  -5 78.7501 11.0195   9
  -1  -3   5 113.795 6.77253  15
  -1  -3   5 101.135 6.61449  21
  -1  -3   5 94.5196 8.82553   1
   1  -3  -5 95.4673 5.52916  13
   1   3  -5 92.5213 5.76985   5
   1   3  -5 105.618 5.96453  12
   1   3  -5 122.563 5.79413  13
  -1   3   5 106.844 8.64690  23
  -1   3   5 109.948 7.50471  24
   1   3  -5 116.118 13.5154   9
   1   3  -5 95.6171 5.42514   4
  -1   3   5 99.5949 6.96142   7
   0  -3   5 59.5806 5.02560  15
   0  -3   5 60.7909 4.86439  21
   0  -3  -5 64.4986 4.20009   5
   0  -3  -5 57.1347 3.84685  13
   0   3  -5 66.3515 4.09031   5
   0   3  -5 59.4337 4.96445  22
   0   3  -5 60.7431 4.36004  12
   0   3  -5 55.8066 4.68670  16
   0   3   5 60.4317 5.06364  24
   0   3  -5 57.5131 3.97113  13
   0   3   5 60.9855 5.41501  23
   0   3  -5 63.8314 4.08270   4
   1  -3   5 74.4870 4.44131   4
   1  -3   5 66.2013 5.83973  15
   1  -3   5 68.5029 5.86547  21
  -1  -3  -5 75.8709 4.48287  13
  -1   3  -5 70.3514 5.10968  12
  -1   3  -5 77.1866 5.05377   6
  -1   3  -5 74.7796 6.44413  22
  -1   3  -5 70.3233 4.56645  13
  -1   3  -5 69.3327 5.74987  16
  -1   3  -5 74.5771 5.36067   5
   2  -3   5 349.376 15.9784   4
  -2  -3  -5 346.693 17.5342   6
  -2   3  -5 343.475 17.4535   6
   3  -3   5 -0.6303 1.36306   4
  -3  -3  -5 1.45078 1.38926   6
  -3   3  -5 2.20657 1.60806   6
   4  -4  -5 255.131 12.9693  12
   4   4  -5 251.672 11.7802   4
  -4   4   5 251.267 14.7248   7
   3  -4  -5 125.792 6.65431  12
   3  -4  -5 114.853 6.53386   5
   3   4  -5 113.014 6.69117  12
  -3   4   5 101.241 8.85116  24
  -3   4   5 108.842 9.44427  23
   3   4  -5 112.697 5.99105   4
  -3   4   5 124.005 7.55203   7
   2  -4  -5 169.571 8.75753  12
   2  -4  -5 155.467 8.07668  13
   2  -4  -5 153.867 8.59284   5
   2   4  -5 161.872 8.55352   5
  -2   4   5 139.516 10.9468  24
   2   4  -5 162.604 8.11532  13
  -2   4   5 181.602 10.0266   7
   2   4  -5 160.967 7.97495   4
  -2   4   5 160.449 12.1696  23
   2   4  -5 161.048 8.69699  12
  -1  -4   5 21.7705 2.73438  15
   1  -4  -5 25.8514 2.51132   5
   1  -4  -5 19.0703 2.15875  13
  -1  -4   5 18.0540 2.37393  21
  -1   4   5 22.0007 4.00598  23
  -1   4   5 19.5752 3.13686  24
   1   4  -5 26.6305 2.48279  12
   1   4  -5 21.6050 2.37130   4
   1   4  -5 25.8235 2.63526  13
  -1   4   5 22.3318 2.99160   7
   1   4  -5 22.0142 2.31531   5
   0  -4  -5 20.1115 2.68963   5
   0  -4  -5 18.2539 2.21412  13
   0  -4   5 19.5419 2.78431  21
   0  -4   5 17.3227 2.93200  15
   0   4   5 19.3935 2.92766   7
   0   4  -5 23.7028 2.61424  12
   0   4  -5 16.9778 2.25388   5
   0   4  -5 21.8043 2.53339  13
   1  -4   5 63.0939 5.67258  21
   1  -4   5 60.1157 5.35814  15
  -1  -4  -5 71.4034 4.29631  13
   1  -4   5 67.0376 4.27397   4
  -1  -4  -5 60.4260 6.15756  23
  -1  -4  -5 78.7059 5.68045  24
  -1   4  -5 75.3114 4.96302   6
  -1   4  -5 67.7365 6.12651  22
  -1   4  -5 68.5646 4.80979  12
  -1   4  -5 66.8307 4.38010  13
  -1   4  -5 60.6357 5.42449  16
  -1   4  -5 72.2836 4.70800   5
   2  -4   5 90.8755 4.97822   4
  -2   4  -5 92.0258 5.61236   6
   3  -4   5 57.5853 3.27901   4
  -3   4  -5 59.1135 3.78569   6
   4  -5  -5 21.4468 2.14731  12
  -4   5   5 21.7001 2.68044   7
   3  -5  -5 81.6074 4.87476  12
   3  -5  -5 71.0967 4.77232   5
  -3   5   5 72.7991 5.51451   7
   2  -5  -5 161.427 8.53899  13
   2  -5  -5 167.288 9.14337   5
   2   5  -5 175.109 9.19361   5
  -2   5   5 186.832 10.6197   7
   2   5  -5 169.994 8.63671  13
   2   5  -5 176.875 9.23000  12
   1  -5  -5 13.7896 1.97692  13
  -1  -5   5 15.8481 2.50231  21
   1  -5  -5 18.3130 2.31126   5
  -1  -5   5 14.2252 2.56922  15
   1   5  -5 19.9398 2.31604   5
   1   5  -5 16.6191 2.24677  12
   1   5  -5 18.7568 2.49033  13
  -1   5   5 18.2420 2.70776   7
   0  -5   5 11.0764 2.79464  15
   0  -5  -5 9.84840 1.81008  13
   0  -5  -5 4.40499 3.23090  23
   0  -5   5 10.2119 2.50072  21
   0   5  -5 9.35811 1.92163   5
   0   5  -5 11.0053 2.14641  13
   0   5   5 12.3064 2.56131   7
   0   5  -5 8.25594 2.04320  12
  -1  -5  -5 13.0788 2.04250  13
   1   5   5 9.95652 2.27881   7
  -1   5  -5 12.6374 2.46010   6
  -1   5  -5 10.0739 2.11956   5
  -1   5  -5 11.9853 2.12698  13
  -1   5  -5 9.75194 2.10274  12
   2  -5   5 49.6225 3.63168  12
  -2   5  -5 55.8201 4.02927   6
   3  -6  -5 210.337 10.4111   5
   3  -6  -5 206.654 10.5464  12
  -3   6   5 193.747 11.9802   7
   2  -6  -5 84.4031 5.01177   5
   2  -6  -5 80.4157 4.83517  13
  -2   6   5 82.4994 5.72793   7
   2   6  -5 78.5157 4.94809   5
   2   6  -5 75.3676 4.63082  13
   2   6  -5 80.6395 4.98564  12
   1  -6  -5 -0.0416 1.87544   5
   1  -6  -5 0.17116 1.55136  13
   1   6  -5 0.13539 1.94250  13
   1   6  -5 -0.3501 1.70820  12
  -1   6   5 1.67068 2.17567   7
   1   6  -5 1.06092 1.76876   5
   0  -6  -5 52.5726 3.56233  13
   0   6  -5 58.6386 3.91572  12
   0   6  -5 54.0308 3.89052  13
   0   6   5 50.4816 4.42282   7
   0   6  -5 53.9867 3.89785   5
   0   6  -5 64.5233 4.54533   6
  -1  -6  -5 1.05322 1.63183  13
  -1   6  -5 0.06877 1.57762   5
  -1   6  -5 0.47383 1.89914   6
   1   6   5 0.08321 1.80170   7
  -1   6  -5 0.38193 1.63825  12
  -1   6  -5 0.36582 1.59579  13
  -2   6  -5 11.4500 1.74711   6
   3  -7  -5 175.805 8.67445   5
  -3   7   5 164.505 9.99565   7
   2  -7  -5 12.0240 1.75282   5
   2   7  -5 8.01338 1.55002   5
  -2   7   5 8.02737 1.99212   7
   2   7  -5 6.88237 1.45017  13
   1  -7  -5 11.7147 1.85538   5
   1  -7  -5 10.6811 1.64511  13
   1   7  -5 12.7496 1.87773  12
  -1   7   5 11.7690 2.06519   7
   1   7  -5 11.2046 1.83388  13
   1   7  -5 13.0266 1.81020   5
   0  -7  -5 1.65889 1.43730  13
   0   7  -5 -0.1597 1.52508   6
   0   7   5 2.74919 1.62892   7
   0   7  -5 2.36029 1.55080  13
   0   7  -5 0.61760 1.46628  12
   0   7  -5 1.68081 1.43067   5
   1  -7   5 11.2529 1.53926  12
  -1  -7  -5 14.3135 1.51224  13
  -1   7  -5 12.0180 1.50564   5
   1   7   5 8.54050 1.46576   7
  -1   7  -5 13.6871 1.51393  13
  -1   7  -5 4.71701 1.52086   6
   5   0  -6 4.52936 1.41048   4
  -5   0   6 4.38033 1.85594   7
   5   0  -6 0.66702 1.54419  12
   4   0  -6 66.5230 4.63852  12
   4   0  -6 76.3563 4.50693   4
   3   0  -6 3.72474 1.82417  12
   3   0  -6 1.96447 2.08826   4
  -3   0   6 1.66598 3.23699  15
  -3   0   6 2.58052 3.38721  21
   3   0  -6 0.85127 1.89244   5
   2   0  -6 16.8672 2.39187   4
   2   0  -6 17.3305 2.27839   5
  -2   0   6 21.9617 3.57400  21
   2   0  -6 21.5684 2.31286  13
   2   0  -6 20.8323 3.41217  22
   2   0  -6 21.9850 2.37808  12
   2   0  -6 19.0513 2.83930  16
   1   0  -6 1.18149 1.81243   4
   1   0  -6 2.59852 3.55328  22
   1   0  -6 1.13104 2.00388  12
  -1   0   6 0.20505 3.46349  15
  -1   0   6 -1.4197 2.81776  21
   1   0  -6 -1.9927 1.75795  13
   1   0  -6 -2.5056 1.70169   5
   1   0  -6 0.55676 2.63448  16
   0   0  -6 1195.36 54.7493  13
   0   0   6 1198.75 81.7571  23
   0   0  -6 1219.43 66.9495  16
   0   0  -6 1277.30 57.8205   5
   0   0   6 1168.38 72.7880  24
   0   0  -6 1197.13 72.1263  22
   1   0   6 1.75718 4.42131  23
  -1   0  -6 0.29154 1.69590  13
   1   0   6 1.40949 3.22114  24
  -1   0  -6 0.10895 4.86338  22
  -1   0  -6 0.54516 3.76812  16
   1   0   6 0.32247 1.71235   4
   2   0   6 95.2666 5.04140   4
   5  -1  -6 -0.6441 1.35055  12
   5  -1  -6 0.05482 1.42803   4
  -5   1   6 0.30798 1.82389   7
   5   1  -6 -0.1849 1.35795   4
   4  -1  -6 9.82740 1.92690  12
   4  -1  -6 8.01785 2.06521   4
   4   1  -6 10.3983 2.04581  12
   4   1  -6 7.34032 1.91462   4
  -4   1   6 9.42858 2.61009   7
   3  -1  -6 112.908 6.06064   4
   3  -1  -6 114.328 6.39462  12
   3  -1  -6 104.000 7.93258  22
  -3  -1   6 100.761 7.62405  21
   3  -1  -6 99.5171 7.17497  16
   3  -1  -6 108.659 6.20486   5
  -3  -1   6 114.967 7.52983  15
   3   1  -6 120.266 6.05939   4
   3   1  -6 112.834 6.35866  12
   3   1  -6 103.938 6.26365   5
  -3   1   6 107.977 7.67885  15
  -3   1   6 107.779 8.18115  21
   2  -1  -6 276.489 15.5243   5
   2  -1  -6 324.094 15.9686  12
   2  -1  -6 302.134 14.5832   4
   2  -1  -6 312.513 14.7838  13
  -2  -1   6 326.889 18.2498  21
   2  -1  -6 323.903 19.6458  22
   2  -1  -6 319.036 18.1397  16
   2   1  -6 310.677 15.6348   5
  -2   1   6 313.636 18.3553  21
   2   1  -6 298.377 14.7730  13
  -2   1   6 307.738 18.2040  15
   2   1  -6 334.589 14.6819   4
   2   1  -6 319.217 15.9466  12
   1  -1  -6 953.330 43.0356  13
   1  -1  -6 946.961 45.4049   5
  -1  -1   6 885.147 52.6460  21
   1  -1  -6 935.372 46.4859  12
   1  -1  -6 953.227 52.5963  16
  -1  -1   6 971.898 52.0866  15
   1  -1  -6 978.658 56.7359  22
   1  -1  -6 936.027 42.3118   4
   1   1  -6 974.604 42.3865   4
   1   1  -6 928.765 43.0020  13
   1   1  -6 864.471 52.2389  16
   1   1  -6 953.942 45.4073   5
   1   1  -6 930.613 46.5052  12
   1   1  -6 1002.99 56.2901  22
  -1   1   6 934.603 57.2451  24
  -1   1   6 1001.76 64.5004  23
   0  -1  -6 243.294 11.3971   5
   0  -1   6 203.711 13.3158  21
   0  -1   6 218.844 13.4581  15
   0  -1  -6 217.516 10.8025  13
   0  -1  -6 225.064 13.7283  16
   0   1  -6 209.303 10.7528  13
   0   1   6 229.599 16.2949  23
   0   1   6 217.032 14.4875  24
   0   1  -6 242.229 11.4628   5
   0   1  -6 232.168 14.6282  22
   0   1  -6 208.158 13.2082  16
   1  -1   6 37.6859 4.39324  24
   1  -1   6 43.9757 5.91549  23
   1  -1   6 38.5585 3.21509   4
  -1  -1  -6 37.0926 3.27011  13
   1   1   6 42.8824 5.32362  23
   1   1   6 30.5538 3.05809   4
  -1   1  -6 37.8783 5.25625  22
  -1   1  -6 37.6114 3.21632  13
   1   1   6 30.9312 3.99718  24
  -1   1  -6 30.4599 4.18264  16
   2  -1   6 23.1641 2.09211   4
   2   1   6 24.0500 2.00885   4
  -5   2   6 1.64471 1.74125   7
   4  -2  -6 9.05269 1.84378  12
  -4   2   6 8.93119 2.39867   7
   4   2  -6 8.24523 1.86750  12
   4   2  -6 8.00506 1.83052   4
   3  -2  -6 180.267 9.09065  12
   3  -2  -6 170.202 10.6509  16
   3  -2  -6 150.739 8.86415   5
  -3  -2   6 158.342 10.4968  21
  -3  -2   6 167.022 10.1862  15
   3  -2  -6 166.316 11.6279  22
   3   2  -6 181.388 8.43012   4
  -3   2   6 187.852 10.4454   7
   3   2  -6 164.695 9.05074  12
   3   2  -6 152.274 8.84328   5
   2  -2  -6 3.19476 4.42725  22
   2  -2  -6 2.74681 1.79186   5
  -2  -2   6 2.37574 2.69434  15
   2  -2  -6 2.32165 2.10278  12
   2  -2  -6 1.61360 3.38138  16
  -2  -2   6 3.16885 2.66393  21
   2  -2  -6 0.95415 1.92317  13
   2   2  -6 2.44560 2.03800   4
   2   2  -6 3.25941 1.91807  13
  -2   2   6 2.00150 3.39230  24
  -2   2   6 1.24790 5.05699  23
   2   2  -6 3.30264 1.82622   5
   2   2  -6 2.98754 1.79673  12
   1  -2  -6 98.0492 8.86219  22
   1  -2  -6 90.0084 7.53944  16
   1  -2  -6 95.3136 5.42850  13
  -1  -2   6 96.9504 6.81488  15
   1  -2  -6 97.4939 5.70488   5
  -1  -2   6 92.6983 6.75018  21
   1   2  -6 93.1912 5.54387  13
  -1   2   6 84.0207 7.56410  24
  -1   2   6 97.5780 8.72823  23
   1   2  -6 93.7200 5.63720   5
   1   2  -6 103.056 5.40270   4
   1   2  -6 99.9403 5.78660  12
   0  -2  -6 274.900 13.2679  13
   0  -2  -6 286.700 14.0057   5
   0  -2   6 269.114 16.3536  21
   0  -2   6 267.753 16.2403  15
   0   2   6 269.495 17.6360  24
   0   2  -6 262.025 17.3894  22
   0   2   6 288.781 19.6493  23
   0   2  -6 282.581 13.2740  13
   0   2  -6 267.025 16.1215  16
   0   2  -6 300.245 13.9661   5
   0   2  -6 278.902 14.3016  12
   1  -2   6 265.736 11.6825   4
   1  -2   6 225.432 16.2622  24
   1  -2   6 231.432 18.0664  23
  -1  -2  -6 267.435 11.9569  13
  -1   2  -6 252.759 11.9046  13
  -1   2  -6 235.667 14.9015  16
   2  -2   6 2.99184 1.50753   4
   4  -3  -6 8.82705 1.73407  12
  -4   3   6 10.0519 2.24892   7
   4   3  -6 10.6797 2.07291  12
   4   3  -6 10.8587 1.78947   4
   3  -3  -6 1.19372 3.92375  16
   3  -3  -6 4.17734 1.91232  12
   3  -3  -6 2.99485 1.77784   5
   3   3  -6 2.69806 1.86691   4
   3   3  -6 2.10312 1.86941  12
  -3   3   6 3.65912 4.99548  23
  -3   3   6 4.42377 2.40195   7
   3   3  -6 2.75779 1.81593   5
   2  -3  -6 373.923 23.2786  22
   2  -3  -6 366.556 18.5054  12
   2  -3  -6 332.732 18.0776   5
   2  -3  -6 378.200 21.5071  16
   2  -3  -6 357.217 17.1206  13
  -2  -3   6 371.366 20.8920  21
  -2  -3   6 378.320 20.6689  15
  -2   3   6 398.926 21.0046   7
   2   3  -6 375.418 18.5094  12
  -2   3   6 367.810 25.8240  23
  -2   3   6 349.881 22.9586  24
   2   3  -6 344.937 18.0777   5
   2   3  -6 370.336 16.8717   4
   2   3  -6 362.329 17.1790  13
   1  -3  -6 47.2097 3.65304   5
  -1  -3   6 43.9078 4.65743  21
   1  -3  -6 47.8236 3.49829  13
  -1  -3   6 44.0834 4.44952  15
  -1   3   6 35.5337 4.76132  24
  -1   3   6 53.2182 5.68927  23
   1   3  -6 46.8324 3.58356   4
   1   3  -6 42.7677 3.73653  13
   1   3  -6 48.6741 3.76876  12
   1   3  -6 42.7239 3.51475   5
   0  -3  -6 87.2151 5.08711  13
   0  -3   6 85.6574 5.04039   4
   0  -3   6 84.1774 6.73099  21
   0  -3   6 82.6240 6.31053  15
   0   3   6 86.2886 7.02035  23
   0   3  -6 88.5731 5.22960   5
   0   3  -6 84.8398 5.10571  13
   0   3  -6 91.4152 5.58712  12
   1  -3   6 91.3136 4.94294   4
  -1  -3  -6 91.2453 5.10638  13
  -1   3  -6 82.4983 5.10724  13
   4  -4  -6 15.2699 1.79322  12
  -4   4   6 12.6036 2.22641   7
   4   4  -6 9.85140 1.68938   4
   3  -4  -6 20.2679 2.22039   5
   3  -4  -6 22.1669 2.37238  12
   3   4  -6 20.4159 2.26304  12
  -3   4   6 18.3415 2.64656   7
   3   4  -6 17.4045 2.13077   4
  -2  -4   6 32.9508 3.66615  15
   2  -4  -6 31.1344 2.78112   5
   2  -4  -6 30.2558 2.99040  13
   2   4  -6 29.0999 2.70751   5
  -2   4   6 36.2764 4.00550   7
   2   4  -6 30.1069 2.54815   4
  -2   4   6 26.0089 4.87515  23
   2   4  -6 30.7670 2.76600  13
   2   4  -6 29.6692 3.15279  12
  -1  -4   6 47.5693 5.13198  21
   1  -4  -6 54.9653 4.02605   5
   1  -4  -6 53.2056 3.66491  13
  -1  -4   6 50.1998 4.59699  15
   1   4  -6 52.5934 3.86189  12
   1   4  -6 46.0970 3.71551   5
  -1   4   6 56.1690 5.01877   7
   1   4  -6 52.1529 3.78521   4
   1   4  -6 49.5692 3.96714  13
   0  -4  -6 0.44281 1.79019  13
   0  -4   6 0.38661 1.84579   4
   0   4  -6 0.67338 1.96775  12
   0   4  -6 -0.4843 1.82881   5
   0   4  -6 0.57233 1.78226  13
  -1  -4  -6 12.1186 1.95058  13
   1  -4   6 12.6809 1.85612   4
  -1   4  -6 10.7537 2.03860  12
  -1   4  -6 11.6256 1.91335  13
   2  -4   6 -0.6717 1.19164   4
   3  -5  -6 16.7654 2.00977  12
   3  -5  -6 13.5904 1.92148   5
   3   5  -6 15.7369 1.88320  12
  -3   5   6 16.5305 2.33036   7
   2  -5  -6 11.1491 2.00358   5
   2  -5  -6 10.3320 1.96405  13
  -2   5   6 12.4523 2.39244   7
   2   5  -6 12.0002 2.00479  13
   2   5  -6 11.1332 1.82931   5
   2   5  -6 11.8295 1.89737  12
   1  -5  -6 15.7672 2.21468   5
   1  -5  -6 15.8401 2.02620  13
   1   5  -6 15.3873 2.04574  12
   1   5  -6 16.6566 2.27749  13
   1   5  -6 12.5033 1.87019   5
  -1   5   6 13.3667 2.49286   7
   0  -5  -6 54.8177 3.69186  13
   0   5  -6 58.3459 3.81453  13
   0   5  -6 56.9350 3.92467  12
   0   5  -6 49.7064 3.73681   5
   1  -5   6 1.34818 1.49075   4
  -1  -5  -6 4.13695 1.55928  13
  -1   5  -6 1.82262 1.52814  12
  -1   5  -6 5.03152 1.59940  13
   3  -6  -6 2.06606 1.38436   5
  -3   6   6 2.59104 1.67828   7
   2  -6  -6 18.0271 2.01711   5
   2   6  -6 17.1791 1.87884  12
  -2   6   6 16.1070 2.23569   7
   2   6  -6 15.0847 1.86878   5
   1  -6  -6 22.1110 2.06430  13
   1  -6  -6 22.2299 2.11053   5
   1   6  -6 21.2321 2.06020  12
   1   6  -6 19.6032 2.07333  13
  -1   6   6 17.2330 2.23876   7
   1   6  -6 17.4436 1.98335   5
   0  -6  -6 8.52724 1.56927  13
   0   6  -6 6.22173 1.51126  13
   0   6  -6 6.07037 1.41924   5
   0   6  -6 7.23842 1.52048  12
   0   6   6 4.61037 1.60744   7
   4   0  -7 709.356 30.9684   4
   4   0  -7 669.823 33.9689  12
   3   0  -7 36.5013 3.59182   4
   3   0  -7 37.7735 3.39138  12
   3   0  -7 33.2487 3.23573   5
   2   0  -7 177.021 8.62089   4
   2   0  -7 161.792 9.16968   5
   2   0  -7 192.641 9.49970  12
   2   0  -7 167.552 8.74404  13
   1   0  -7 43.6857 3.54879   4
   1   0  -7 45.2956 4.01771  12
   1   0  -7 41.1535 3.61054   5
   1   0  -7 45.6302 3.41753  13
   0   0  -7 55.7283 4.19880   5
   0   0  -7 58.6570 3.72772  13
   0   0   7 55.3338 3.76916   4
   1   0   7 8.08159 1.58051   4
  -1   0  -7 8.96556 1.74800  13
   4  -1  -7 8.06397 1.70769  12
   4  -1  -7 10.1404 1.87596   4
   4   1  -7 9.30085 1.68705  12
   4   1  -7 9.09405 1.81898   4
   3  -1  -7 135.146 6.81828   4
   3  -1  -7 141.858 7.34759  12
   3  -1  -7 114.729 7.11579   5
   3   1  -7 123.536 7.17036   5
   3   1  -7 145.549 6.96373   4
   3   1  -7 127.528 7.25641  12
   2  -1  -7 124.495 7.32998   5
   2  -1  -7 136.205 6.95582   4
   2  -1  -7 139.497 7.59121  12
   2  -1  -7 131.539 6.98737  13
   2   1  -7 142.726 7.55554  12
   2   1  -7 127.346 7.35582   5
   2   1  -7 146.092 7.04130   4
   2   1  -7 133.653 7.08483  13
   1  -1  -7 244.108 12.1577  13
   1  -1  -7 254.343 12.8393   5
   1   1  -7 253.165 12.2165  13
   1   1  -7 271.669 12.0234   4
   1   1  -7 246.156 12.7954   5
   1   1  -7 249.532 13.1100  12
   0  -1   7 9.02545 1.88668   4
   0  -1  -7 12.4613 1.87693  13
   0   1   7 6.32260 1.74279   4
   0   1  -7 8.97793 2.00009   5
   0   1  -7 10.4516 1.87252  13
   1  -1   7 3.88038 1.51724   4
  -1  -1  -7 2.28089 1.51974  13
  -1   1  -7 2.79191 1.59668  13
   4  -2  -7 110.003 6.12559  12
   4   2  -7 110.556 5.72646   4
   4   2  -7 115.064 6.15938  12
   3  -2  -7 426.499 20.3223  12
   3  -2  -7 373.076 19.7753   5
   3   2  -7 407.193 20.2687  12
   3   2  -7 372.392 19.7601   5
   3   2  -7 446.022 18.5661   4
   2  -2  -7 40.4781 3.40080   5
   2  -2  -7 38.2450 3.35908  13
   2  -2  -7 42.7124 3.77489  12
   2   2  -7 48.9398 3.64239  12
   2   2  -7 38.6996 3.47127   5
   2   2  -7 45.1184 3.56528  13
   2   2  -7 46.7956 3.49773   4
   1  -2  -7 1.92773 1.81141   5
   1  -2  -7 2.58618 1.73635  13
   1   2  -7 2.88045 1.95063  12
   1   2  -7 2.36857 1.78443  13
   1   2  -7 3.65784 1.86134   4
   1   2  -7 2.69796 1.72461   5
   0  -2  -7 17.3036 2.08019  13
   0  -2   7 17.2958 1.97930   4
   0   2  -7 17.3235 1.99785  13
   0   2  -7 15.7414 2.06407   5
  -1  -2  -7 8.81439 1.65322  13
   1  -2   7 8.82670 1.54959   4
  -1   2  -7 10.5544 1.76822  13
   4  -3  -7 11.5378 1.76364  12
   3  -3  -7 7.64183 1.87452  12
   3  -3  -7 7.33774 1.65517   5
   3   3  -7 8.27932 1.71482   4
   3   3  -7 6.95456 1.57243   5
   3   3  -7 7.33098 1.73365  12
   2  -3  -7 214.004 10.2216  13
   2  -3  -7 219.929 10.8416   5
   2   3  -7 196.069 10.7401   5
   2   3  -7 224.589 10.1321   4
   2   3  -7 212.206 10.2758  13
   2   3  -7 204.981 10.9725  12
   1  -3  -7 0.73148 1.75097   5
   1  -3  -7 1.23017 1.65852  13
   1   3  -7 -0.2159 1.65788  12
   1   3  -7 1.02885 1.53179   5
   1   3  -7 -0.3330 1.83042  13
   0  -3  -7 3.97776 1.65668  13
   0  -3   7 3.20650 1.61311   4
   0   3  -7 3.17811 1.80405  12
   0   3  -7 3.81866 1.75106   5
   0   3  -7 3.55139 1.70025  13
  -1  -3  -7 17.9848 1.79460  13
   1  -3   7 18.8796 1.65576   4
  -1   3  -7 18.3232 1.82723  13
   3  -4  -7 76.2830 4.33950   5
   3   4  -7 74.2396 4.10618   4
   3   4  -7 73.5206 4.38132  12
   2  -4  -7 27.7786 2.87148   5
   2   4  -7 26.9728 2.65239   4
   2   4  -7 28.6778 2.64920  12
   2   4  -7 24.8005 2.31367   5
   2   4  -7 24.4632 2.27662  13
   1  -4  -7 49.3628 3.34730  13
  -1  -4   7 40.9973 3.17052   4
   1  -4  -7 44.7219 3.36936   5
   1   4  -7 44.2115 3.38900   5
   1   4  -7 47.2118 3.38778  13
   1   4  -7 49.2799 3.53543  12
   0  -4  -7 3.37242 1.60738  13
   0  -4   7 2.96820 1.38968   4
   0   4  -7 3.79643 1.44861  12
   0   4  -7 3.48359 1.49072  13
   0   4  -7 3.61492 1.44892   5
   2  -5  -7 22.5922 2.37483   5
   2   5  -7 24.9090 2.33127  12
   2   5  -7 16.4956 1.73836   5
   1  -5  -7 9.60016 1.52249  13
   1  -5  -7 2.54521 1.43107   5
   1   5  -7 8.48460 1.35949   5
   1   5  -7 8.11127 1.41417  12
   1   5  -7 11.3417 1.60080  13
   3   0  -8 0.64208 1.39697   5
   3   0  -8 -0.9749 1.56972   4
   3   0  -8 -0.3719 1.45792  12
   2   0  -8 4.05339 1.56011   5
   2   0  -8 5.25491 1.62496   4
   2   0  -8 4.42130 1.64928  12
   2   0  -8 0.86170 1.63100  13
   1   0  -8 8.11068 1.63569  13
   1   0  -8 8.90031 1.65990   5
  -1   0   8 7.76283 1.54205   4
   0   0  -8 4.63519 1.44415  13
   3  -1  -8 10.7700 1.69679  12
   3  -1  -8 9.26994 1.55457   5
   3   1  -8 8.96632 1.61934  12
   3   1  -8 8.83776 1.68092   4
   3   1  -8 8.89141 1.58257   5
   2  -1  -8 20.9187 2.03325   5
   2   1  -8 18.4244 1.99713   4
   2   1  -8 20.8104 2.06064  12
   2   1  -8 18.9392 1.97409   5
  -1  -1   8 1.37627 1.52409   4
   1  -1  -8 1.27721 1.53696   5
   1  -1  -8 0.66591 1.43031  13
   1   1  -8 0.33960 1.41262   5
   1   1  -8 0.60901 1.45725  13
   0  -1   8 8.43957 1.58992   4
   0  -1  -8 7.83811 1.53315  13
   0   1  -8 8.11905 1.53170  13
   2  -2  -8 2.09490 1.43973   5
   2   2  -8 1.46448 1.50964  12
   2   2  -8 1.45133 1.31855   5
   1  -2  -8 12.8204 1.56203  13
   1  -2  -8 11.6493 1.68307   5
  -1  -2   8 13.1992 1.61194   4
   1   2  -8 13.5032 1.72509  13
   1   2  -8 12.3378 1.59802   5
   0   0   0    0.00    0.00   0
;
_shelx_res_checksum              29318
_shelx_res_file
;
REM 2     0.21559     0.87100     0.000   BASF  1
REM Bijvoet Pairs     450 Coverage ...       97 Bayesian Statistics Student_T N
REM P2(true)....    1.000 P3(true)....    1.000 P3(rac-twin)  0.8E-05 P3(false)
REM G ..........   0.8244 G (su) .....   0.1666 Hooft y ....     0.09 Hooft (su
TITL RMPIP in P2(1)
CELL 1.54178 5.2130 8.4710 7.2048 90.000 105.362 90.000
ZERR 2.00 0.0004 0.0007 0.0006 0.000 0.006 0.000
LATT -1
SYMM -x, y+1/2, -z
SFAC C H N
UNIT   10.00  24.00   4.00
OMIT    -5  -4  -1      !    12.79         28.19       7.22
OMIT     5   4   1      !    16.45         28.21       5.20
OMIT     0   0   1      !  1000.75       1614.08       4.80
OMIT     5  -4   1      !    12.42         27.87       7.42
MERG 2
TEMP -163
ACTA
SIZE 0.16 0.13 0.04
L.S. 12
FMAP 2
PLAN 2
HTAB
BOND $H
CONF
WGHT    0.078000    0.023900
FVAR       2.65518
N1    3    0.105317    0.651817    0.478911    11.00000    0.02728    0.01714 =
         0.03770    0.00059    0.00996   -0.00264
H1    2   -0.044959    0.605189    0.472902    11.00000   -1.50000
N4    3    0.394942    0.936839    0.517265    11.00000    0.02930    0.01777 =
         0.04482    0.00192    0.01079   -0.00110
H4    2    0.550306    0.984985    0.518581    11.00000   -1.50000
C2    1    0.054182    0.764700    0.319041    11.00000    0.02833    0.02027 =
         0.03606    0.00149    0.01023    0.00263
AFIX  13
H2A   2   -0.088044    0.839857    0.331895    11.00000   -1.20000
AFIX   0
C3    1    0.309830    0.856621    0.331270    11.00000    0.03121    0.02207 =
         0.03924    0.00431    0.01221    0.00151
AFIX  23
H3A   2    0.451011    0.783418    0.316250    11.00000   -1.20000
H3B   2    0.279031    0.935276    0.226033    11.00000   -1.20000
AFIX   0
C5    1    0.444445    0.822406    0.675255    11.00000    0.03110    0.02289 =
         0.03862   -0.00027    0.00763    0.00070
AFIX  23
H5A   2    0.502199    0.878025    0.800260    11.00000   -1.20000
H5B   2    0.587488    0.748727    0.665035    11.00000   -1.20000
AFIX   0
C6    1    0.190777    0.731588    0.664243    11.00000    0.03407    0.02215 =
         0.03465    0.00246    0.01176   -0.00001
AFIX  23
H6A   2    0.221933    0.652934    0.769495    11.00000   -1.20000
H6B   2    0.050031    0.804963    0.679642    11.00000   -1.20000
AFIX   0
C7    1   -0.038944    0.676749    0.130309    11.00000    0.04122    0.03333 =
         0.03851   -0.00171    0.00737   -0.00184
AFIX 137
H7A   2   -0.202996    0.619215    0.127589    11.00000   -1.50000
H7B   2    0.098795    0.601901    0.117695    11.00000   -1.50000
H7C   2   -0.072940    0.752173    0.023418    11.00000   -1.50000
AFIX   0
HKLF 4 1 1 0 0 0 1 0 0 0 1
REM  RMPIP in P2(1)
REM R1 =  0.0353 for     929 Fo > 4sig(Fo)  and  0.0366 for all     987 data
REM     71 parameters refined using      1 restraints
END
WGHT      0.0646      0.0226
REM Instructions for potential hydrogen bonds
EQIV $1 -x, y-1/2, -z+1
HTAB N1 N4_$1
EQIV $2 -x+1, y+1/2, -z+1
HTAB N4 N1_$2
REM Highest difference peak  0.153,  deepest hole -0.173,  1-sigma level  0.038
Q1    1   0.2718  0.6305  0.4783  11.00000  0.05    0.15
Q2    1   0.2301  0.9539  0.5325  11.00000  0.05    0.14
;
_shelxl_version_number           .002012
#END Tags that were not found in dictionaries
loop_
_space_group_symop_operation_xyz
'x, y, z'
'-x, y+1/2, -z'
loop_
_atom_site_type_symbol
_atom_site_label
_atom_site_fract_x
_atom_site_fract_y
_atom_site_fract_z
_atom_site_U_iso_or_equiv
_atom_site_adp_type
_atom_site_calc_flag
_atom_site_occupancy
N N1 0.1053(4) 0.65182(18) 0.4789(2) 0.0271(5) Uani d 1
H H1 -0.045(6) 0.605(4) 0.473(4) 0.041 Uiso d 1
N N4 0.3949(4) 0.93684(18) 0.5173(3) 0.0304(5) Uani d 1
H H4 0.550(6) 0.985(4) 0.519(4) 0.046 Uiso d 1
C C2 0.0542(4) 0.7647(3) 0.3190(3) 0.0279(6) Uani d 1
H H2A -0.0880 0.8399 0.3319 0.033 Uiso calc 1
C C3 0.3098(4) 0.8566(2) 0.3313(3) 0.0303(6) Uani d 1
H H3A 0.4510 0.7834 0.3162 0.036 Uiso calc 1
H H3B 0.2790 0.9353 0.2260 0.036 Uiso calc 1
C C5 0.4444(4) 0.8224(3) 0.6753(3) 0.0312(6) Uani d 1
H H5A 0.5022 0.8780 0.8003 0.037 Uiso calc 1
H H5B 0.5875 0.7487 0.6650 0.037 Uiso calc 1
C C6 0.1908(4) 0.7316(3) 0.6642(3) 0.0298(6) Uani d 1
H H6A 0.2219 0.6529 0.7695 0.036 Uiso calc 1
H H6B 0.0500 0.8050 0.6796 0.036 Uiso calc 1
C C7 -0.0389(5) 0.6767(3) 0.1303(3) 0.0383(6) Uani d 1
H H7A -0.2030 0.6192 0.1276 0.057 Uiso calc 1
H H7B 0.0988 0.6019 0.1177 0.057 Uiso calc 1
H H7C -0.0729 0.7522 0.0234 0.057 Uiso calc 1
loop_
_atom_site_aniso_label
_atom_site_aniso_U_11
_atom_site_aniso_U_22
_atom_site_aniso_U_33
_atom_site_aniso_U_12
_atom_site_aniso_U_13
_atom_site_aniso_U_23
N1 0.0273(10) 0.0171(10) 0.0377(11) -0.0026(8) 0.0100(8) 0.0006(8)
N4 0.0293(10) 0.0178(11) 0.0448(11) -0.0011(8) 0.0108(8) 0.0019(9)
C2 0.0283(11) 0.0203(12) 0.0361(14) 0.0026(9) 0.0102(10) 0.0015(9)
C3 0.0312(12) 0.0221(14) 0.0392(12) 0.0015(10) 0.0122(10) 0.0043(9)
C5 0.0311(11) 0.0229(13) 0.0386(14) 0.0007(9) 0.0076(11) -0.0003(10)
C6 0.0341(12) 0.0222(13) 0.0346(13) 0.0000(10) 0.0118(9) 0.0025(10)
C7 0.0412(12) 0.0333(12) 0.0385(12) -0.0018(11) 0.0074(9) -0.0017(11)
loop_
_atom_type_symbol
_atom_type_description
_atom_type_scat_dispersion_real
_atom_type_scat_dispersion_imag
_atom_type_scat_source
C C 0.0181 0.0091 'International Tables Vol C Tables 4.2.6.8 and 6.1.1.4'
H H 0.0000 0.0000 'International Tables Vol C Tables 4.2.6.8 and 6.1.1.4'
N N 0.0311 0.0180 'International Tables Vol C Tables 4.2.6.8 and 6.1.1.4'
loop_
_geom_angle_atom_site_label_1
_geom_angle_atom_site_label_2
_geom_angle_atom_site_label_3
_geom_angle
C6 N1 C2 111.43(16)
C6 N1 H1 108.0(19)
C2 N1 H1 106.5(19)
C3 N4 C5 110.65(17)
C3 N4 H4 105.8(18)
C5 N4 H4 108.5(18)
N1 C2 C7 109.46(18)
N1 C2 C3 108.26(17)
C7 C2 C3 111.75(16)
N1 C2 H2A 109.1
C7 C2 H2A 109.1
C3 C2 H2A 109.1
N4 C3 C2 109.78(17)
N4 C3 H3A 109.7
C2 C3 H3A 109.7
N4 C3 H3B 109.7
C2 C3 H3B 109.7
H3A C3 H3B 108.2
N4 C5 C6 108.90(19)
N4 C5 H5A 109.9
C6 C5 H5A 109.9
N4 C5 H5B 109.9
C6 C5 H5B 109.9
H5A C5 H5B 108.3
N1 C6 C5 109.54(17)
N1 C6 H6A 109.8
C5 C6 H6A 109.8
N1 C6 H6B 109.8
C5 C6 H6B 109.8
H6A C6 H6B 108.2
C2 C7 H7A 109.5
C2 C7 H7B 109.5
H7A C7 H7B 109.5
C2 C7 H7C 109.5
H7A C7 H7C 109.5
H7B C7 H7C 109.5
loop_
_geom_bond_atom_site_label_1
_geom_bond_atom_site_label_2
_geom_bond_distance
N1 C6 1.457(3)
N1 C2 1.466(3)
N1 H1 0.87(3)
N4 C3 1.463(3)
N4 C5 1.465(3)
N4 H4 0.90(3)
C2 C7 1.513(3)
C2 C3 1.526(3)
C2 H2A 1.0000
C3 H3A 0.9900
C3 H3B 0.9900
C5 C6 1.514(3)
C5 H5A 0.9900
C5 H5B 0.9900
C6 H6A 0.9900
C6 H6B 0.9900
C7 H7A 0.9800
C7 H7B 0.9800
C7 H7C 0.9800
loop_
_geom_torsion_atom_site_label_1
_geom_torsion_atom_site_label_2
_geom_torsion_atom_site_label_3
_geom_torsion_atom_site_label_4
_geom_torsion
C6 N1 C2 C7 -178.90(17)
C6 N1 C2 C3 59.1(2)
C5 N4 C3 C2 60.0(2)
N1 C2 C3 N4 -58.2(2)
C7 C2 C3 N4 -178.83(16)
C3 N4 C5 C6 -59.7(2)
C2 N1 C6 C5 -60.0(2)
N4 C5 C6 N1 58.8(2)
