#------------------------------------------------------------------------------
#$Date: 2016-02-20 02:53:41 +0200 (Sat, 20 Feb 2016) $
#$Revision: 176768 $
#$URL: svn://www.crystallography.net/cod/cif/2/10/56/2105692.cif $
#------------------------------------------------------------------------------
#
# This file is available in the Crystallography Open Database (COD),
# http://www.crystallography.net/. The original data for this entry
# were provided by IUCr Journals, http://journals.iucr.org/.
#
# The file may be used within the scientific community so long as
# proper attribution is given to the journal article from which the
# data were obtained.
#
data_2105692
loop_
_publ_author_name
'Clegg, William'
'Tooke, Duncan M.'
_publ_section_title
;
 Alkali metal complexes of 6-methyl-2-pyridone: simple formulae, but not
 so simple structures
;
_journal_issue                   6
_journal_name_full               'Acta Crystallographica Section B'
_journal_page_first              603
_journal_page_last               612
_journal_paper_doi               10.1107/S2052519213025980
_journal_volume                  69
_journal_year                    2013
_chemical_formula_moiety         'Rb +,C6 H6 N O -,H2 O'
_chemical_formula_sum            'C6 H8 N O2 Rb'
_chemical_formula_weight         211.60
_chemical_name_systematic
;
 ?
;
_space_group_crystal_system      monoclinic
_space_group_IT_number           14
_space_group_name_Hall           '-P 2ybc'
_space_group_name_H-M_alt        'P 1 21/c 1'
_symmetry_space_group_name_Hall  '-P 2ybc'
_symmetry_space_group_name_H-M   'P 1 21/c 1'
_atom_sites_solution_hydrogens   mixed
_atom_sites_solution_primary     direct
_atom_sites_solution_secondary   difmap
_audit_creation_method           SHELXL-2013
_cell_angle_alpha                90
_cell_angle_beta                 98.8733(15)
_cell_angle_gamma                90
_cell_formula_units_Z            4
_cell_length_a                   13.9109(16)
_cell_length_b                   7.8661(9)
_cell_length_c                   7.0235(8)
_cell_measurement_reflns_used    4247
_cell_measurement_temperature    150(2)
_cell_measurement_theta_max      28.24
_cell_measurement_theta_min      2.96
_cell_volume                     759.35(15)
_computing_cell_refinement       'Bruker APEX2'
_computing_data_collection       'Bruker SMART'
_computing_data_reduction        'Bruker APEX2'
_computing_molecular_graphics    'Bruker SHELXTL'
_computing_publication_material  'Bruker SHELXTL and local programs'
_computing_structure_refinement  SHELXL-2013
_computing_structure_solution    'Bruker SHELXTL'
_diffrn_ambient_temperature      150(2)
_diffrn_measured_fraction_theta_full 0.999
_diffrn_measured_fraction_theta_max 0.985
_diffrn_measurement_device_type  'Bruker SMART 1K CCD diffractometer'
_diffrn_measurement_method       'thin-slice \w scans'
_diffrn_radiation_type           MoK\a
_diffrn_radiation_wavelength     0.71073
_diffrn_reflns_av_R_equivalents  0.0446
_diffrn_reflns_limit_h_max       18
_diffrn_reflns_limit_h_min       -17
_diffrn_reflns_limit_k_max       10
_diffrn_reflns_limit_k_min       -10
_diffrn_reflns_limit_l_max       9
_diffrn_reflns_limit_l_min       -9
_diffrn_reflns_number            6454
_diffrn_reflns_theta_full        25.242
_diffrn_reflns_theta_max         28.281
_diffrn_reflns_theta_min         2.964
_exptl_absorpt_coefficient_mu    6.457
_exptl_absorpt_correction_T_max  0.263
_exptl_absorpt_correction_T_min  0.147
_exptl_absorpt_correction_type   multi-scan
_exptl_absorpt_process_details   SADABS
_exptl_crystal_colour            colourless
_exptl_crystal_density_diffrn    1.851
_exptl_crystal_density_method    'not measured'
_exptl_crystal_description       plate
_exptl_crystal_F_000             416
_exptl_crystal_size_max          0.800
_exptl_crystal_size_mid          0.200
_exptl_crystal_size_min          0.050
_refine_diff_density_max         0.662
_refine_diff_density_min         -0.613
_refine_ls_extinction_method     none
_refine_ls_goodness_of_fit_ref   1.039
_refine_ls_hydrogen_treatment    mixed
_refine_ls_matrix_type           full
_refine_ls_number_parameters     100
_refine_ls_number_reflns         1854
_refine_ls_number_restraints     2
_refine_ls_restrained_S_all      1.038
_refine_ls_R_factor_all          0.0368
_refine_ls_R_factor_gt           0.0303
_refine_ls_shift/su_max          0.011
_refine_ls_shift/su_mean         0.000
_refine_ls_structure_factor_coef Fsqd
_refine_ls_weighting_details
;
 w=1/[\s^2^(Fo^2^)+(0.0394P)^2^+0.5119P]
 where P=(Fo^2^+2Fc^2^)/3
;
_refine_ls_weighting_scheme      calc
_refine_ls_wR_factor_gt          0.0743
_refine_ls_wR_factor_ref         0.0788
_reflns_number_gt                1623
_reflns_number_total             1854
_reflns_threshold_expression     'I > 2\s(I)'
_cod_data_source_file            ps5030.cif
_cod_data_source_block           dmt45_3
_cod_database_code               2105692
#BEGIN Tags that were not found in dictionaries:
_shelx_space_group_comment
;
The symmetry employed for this shelxl refinement is uniquely defined
by the following loop, which should always be used as a source of
symmetry information in preference to the above space-group names.
They are only intended as comments.
;
_shelx_estimated_absorpt_t_min   0.079
_shelx_estimated_absorpt_t_max   0.738
_shelx_hkl_checksum              80037
_shelx_hkl_file
;
   0   0   1    0.03    0.09
   0   0   1   -0.09    0.08
   0   0   1   -0.05    0.08
   0   0   2  243.25   12.76
   0   0   2  236.80   12.32
   0   0   2  237.37   12.94
   0   0   3   -0.10    0.15
   0   0   3    0.06    0.18
   0   0   4  107.55    6.07
   0   0  -4  114.06    6.31
   0   0   4  123.35    6.46
   0   0   5    0.50    0.34
   0   0   5   -0.12    0.25
   0   0  -5   -0.09    0.25
   0   0   6   21.79    1.70
   0   0   6   21.93    1.46
   0   0  -6   21.47    1.58
   0   0   7   -0.21    0.44
   0   0  -7   -0.53    0.29
   0   0   8    3.82    0.82
   0   1   0   -0.07    0.12
   0   1   0   -0.07    0.11
   0   1  -1    0.82    0.23
   0   1   1    0.74    0.30
   0   1   1    0.69    0.19
   0  -1  -1    1.44    0.32
   0  -1   1    1.09    0.23
   0   1   2   93.12    5.02
   0   1  -2   96.71    5.20
   0   1   2   95.10    5.27
   0   1   2   90.95    5.19
   0  -1   2  102.08    5.29
   0   1   3   92.90    4.86
   0   1   3   86.42    5.01
   0   1   3   90.30    5.11
   0   1  -3   91.96    5.03
   0  -1   3   91.39    4.77
   0  -1   3   94.83    5.13
   0   1   4   17.47    1.24
   0   1   4   18.77    1.33
   0   1  -4   18.42    1.29
   0   1   4   18.27    1.27
   0  -1   4   19.13    1.36
   0  -1   4   20.63    1.16
   0   1  -5  115.66    6.52
   0   1   5  119.51    6.52
   0   1   5  112.11    6.64
   0   1   5  121.39    6.31
   0  -1   5  114.14    6.19
   0  -1   5  119.23    6.67
   0   1   6   31.77    2.01
   0   1   6   32.98    2.23
   0   1  -6   29.62    2.10
   0  -1   6   31.22    2.20
   0  -1  -6   30.38    2.04
   0   1   7   53.32    3.55
   0   1  -7   55.68    3.45
   0  -1   7   55.79    3.58
   0  -1   8   11.75    1.42
   0  -1  -9   23.23    2.06
   0  -1   9   23.75    2.08
   0   2   0  532.24   26.62
   0   2   0  538.26   27.53
   0  -2   0  486.65   27.89
   0   2   1  208.25   10.83
   0   2   1  177.15   10.40
   0   2  -1  205.37   10.77
   0  -2  -1  208.76   10.94
   0  -2   1  206.65   10.92
   0   2   2  343.03   19.68
   0   2  -2  387.58   19.60
   0   2   2  372.61   18.97
   0  -2  -2  334.51   20.01
   0  -2   2  399.68   19.89
   0   2   3  388.22   20.07
   0   2   3  367.82   20.72
   0   2  -3  371.43   20.72
   0  -2  -3  421.75   21.12
   0  -2   3  391.87   21.05
   0   2   4    0.49    0.26
   0   2  -4    0.67    0.31
   0   2   4    0.67    0.32
   0  -2  -4    0.75    0.34
   0  -2   4    0.66    0.33
   0   2   5   27.92    1.81
   0   2   5   26.58    1.80
   0   2  -5   26.55    1.88
   0  -2   5   26.58    1.95
   0  -2  -5   30.23    1.99
   0   2   6    4.81    0.74
   0   2  -6    3.21    0.66
   0   2   6    5.05    0.72
   0  -2   6    4.06    0.77
   0  -2  -6    6.34    0.96
   0   2   7    8.53    1.10
   0   2  -7   10.04    1.19
   0  -2  -7   11.26    1.29
   0  -2   7   11.75    1.33
   0   2  -8    0.96    0.55
   0  -2  -8    1.38    0.64
   0  -2   8    0.72    0.54
   0  -2   9   -0.11    0.51
   0   3   0   -0.33    0.17
   0   3   0   -0.05    0.20
   0  -3   0   -0.27    0.16
   0   3   1    3.00    0.50
   0   3   1    2.72    0.43
   0   3  -1    2.82    0.47
   0  -3   1    2.45    0.42
   0  -3  -1    2.43    0.38
   0  -3   1    2.74    0.31
   0   3   2  207.46   10.77
   0   3  -2  208.26   11.13
   0  -3   2  212.09   11.29
   0  -3  -2  196.33   11.34
   0   3   3    0.27    0.25
   0   3   3    0.49    0.30
   0   3  -3    0.42    0.30
   0  -3   3    0.34    0.29
   0  -3  -3   -0.12    0.26
   0   3   4  121.17    6.72
   0   3  -4  123.80    6.96
   0   3   4  119.82    6.92
   0  -3  -4  129.89    7.34
   0  -3   4  130.13    7.09
   0   3  -5   -0.05    0.39
   0   3   5    0.48    0.40
   0   3   5   -0.03    0.29
   0  -3   5    0.37    0.41
   0  -3  -5    0.24    0.39
   0   3   6   51.86    3.08
   0   3  -6   47.76    3.13
   0  -3  -6   53.01    3.37
   0  -3   6   45.52    3.22
   0   3   7   -0.20    0.47
   0   3  -7    0.56    0.44
   0  -3  -7    0.11    0.43
   0  -3   7    0.82    0.53
   0   3   8   50.90    3.12
   0   3  -8   49.19    3.26
   0  -3   8   45.30    3.36
   0   4   0   75.45    4.25
   0   4   0   78.80    4.06
   0  -4   0   70.87    4.23
   0   4   1  119.70    6.53
   0   4  -1  124.89    6.80
   0   4   1  130.43    6.86
   0  -4   1  124.48    6.44
   0  -4   1  123.03    6.85
   0  -4  -1  116.17    6.80
   0   4  -2   38.78    2.38
   0   4   2   36.54    2.55
   0   4   2   37.46    2.28
   0  -4   2   38.21    2.38
   0  -4  -2   41.22    2.38
   0   4   3  100.33    6.54
   0   4   3  112.15    6.12
   0   4  -3  117.56    6.34
   0  -4   3  117.98    6.42
   0  -4  -3  116.12    6.48
   0   4   4   39.32    2.48
   0   4  -4   36.28    2.45
   0   4   4   38.62    2.39
   0  -4   4   37.21    2.51
   0   4   5   33.34    2.31
   0   4  -5   33.55    2.36
   0  -4   5   36.40    2.45
   0   4   6   29.43    2.08
   0   4  -6   28.32    2.13
   0  -4   6   26.27    2.19
   0   4  -7    1.96    0.65
   0   4   7    2.04    0.64
   0  -4   7    1.58    0.64
   0   4   8    0.87    0.55
   0   4  -8    1.81    0.64
   0  -4   8    0.02    0.58
   0   5   0   -0.13    0.29
   0  -5   0   -0.23    0.28
   0  -5   0    0.15    0.23
   0   5  -1    0.80    0.39
   0   5   1    0.70    0.37
   0   5   1   -0.18    0.32
   0  -5   1    0.07    0.25
   0  -5   1    0.62    0.32
   0  -5  -1    0.20    0.24
   0   5  -2   62.41    3.57
   0   5   2   59.97    3.41
   0   5   2   56.73    3.72
   0  -5  -2   58.05    3.47
   0  -5   2   59.36    3.54
   0   5   3   27.46    1.94
   0   5  -3   28.30    2.01
   0  -5  -3   30.40    1.97
   0  -5   3   29.43    2.02
   0   5  -4   16.63    1.53
   0   5   4   17.52    1.51
   0   5   4   18.26    1.49
   0  -5  -4   20.76    1.54
   0  -5   4   19.05    1.59
   0   5  -5   57.44    3.52
   0   5   5   54.15    3.41
   0  -5   5   54.81    3.58
   0   5  -6    3.40    0.79
   0   5   6    1.68    0.65
   0  -5   6    2.55    0.73
   0   5   7   52.89    3.48
   0   5  -7   54.14    3.58
   0  -5   7   56.05    3.73
   0   5   8    0.13    0.50
   0   5  -8    0.51    0.54
   0   6   0  241.99   13.27
   0  -6   0  238.82   13.34
   0  -6   0  247.06   12.73
   0   6  -1   10.09    1.11
   0   6   1   10.78    1.17
   0  -6   1    8.13    0.82
   0  -6  -1    9.70    0.91
   0  -6   1   10.46    1.02
   0   6   2  110.26    5.83
   0   6   2  103.66    6.26
   0   6  -2  102.51    6.04
   0  -6   2  106.57    6.06
   0  -6  -2  102.72    5.95
   0   6  -3   27.60    2.08
   0   6   3   25.62    1.95
   0  -6  -3   28.35    1.93
   0  -6   3   29.10    2.06
   0   6   4   65.70    3.89
   0   6  -4   63.22    4.01
   0  -6   4   65.86    4.09
   0   6  -5   -0.40    0.47
   0   6   5    0.18    0.52
   0  -6   5   -0.24    0.51
   0   6  -6   12.15    1.49
   0   6   6   12.74    1.49
   0  -6   6   13.30    1.56
   0   6  -7    1.99    0.72
   0   6   7    4.29    0.89
   0  -6   7    3.60    0.85
   0   7   0   -0.28    0.39
   0  -7   0   -0.04    0.45
   0  -7   0    0.39    0.38
   0   7   1    1.11    0.57
   0   7  -1    1.38    0.59
   0  -7   1    1.52    0.47
   0  -7  -1    1.94    0.46
   0  -7  -1    1.93    0.61
   0   7  -2    0.26    0.53
   0   7   2    0.55    0.49
   0  -7   2    0.32    0.43
   0   7  -3    1.93    0.66
   0   7   3    1.81    0.49
   0   7   3    2.16    0.70
   0  -7   3    1.54    0.58
   0   7  -4    3.14    0.82
   0   7   4    2.33    0.78
   0  -7   4    4.86    0.86
   0   7  -5   23.51    2.11
   0   7   5   23.92    2.06
   0  -7   5   27.15    2.18
   0   7  -6   37.97    2.85
   0   7   6   36.96    2.77
   0  -7   6   39.34    2.89
   0   8   0    2.02    0.66
   0  -8   0    2.20    0.61
   0   8  -1   93.33    5.92
   0   8   1  102.52    6.07
   0  -8  -1  103.72    5.69
   0  -8   1   99.65    5.87
   0   8   2   23.00    2.08
   0   8  -2   22.50    2.01
   0  -8   2   23.22    1.90
   0  -8  -2   23.47    1.91
   0   8  -3   70.52    4.61
   0  -8   3   75.34    4.60
   0  -8  -3   75.56    4.49
   0   8  -4   -0.07    0.56
   0  -8   4    0.82    0.57
   0  -8  -4    0.02    0.55
   0   8  -5   34.02    2.64
   0  -8  -5   35.62    2.62
   0  -8   5   33.83    2.67
   0   9   0    0.18    0.55
   0   9  -1    2.01    0.66
   0   9   1    1.16    0.59
   0   9  -2   -0.05    0.53
   0  -9  -2    1.06    0.67
   0  -9   2    0.44    0.50
   0   9  -3    5.98    1.06
   0  -9  -3    3.60    0.86
   0  -9   3    3.88    0.76
   0   9  -4   15.39    1.81
   0  -9  -4   19.78    1.87
   0  -9   4   18.76    1.76
   0  10   0    9.90    1.47
   0  10  -1   17.16    1.84
   0  10  -2   25.50    2.17
  -1   0   9    0.48    0.47
  -1   0   8   23.03    1.96
   1   0  -8   23.46    1.89
  -1   0   7    0.58    0.45
   1   0  -7    0.87    0.44
   1   0  -6   61.29    3.69
  -1   0   6   60.27    3.77
  -1   0   6   63.03    3.51
   1   0  -5    0.22    0.26
  -1   0   5    0.27    0.27
  -1   0   4  128.64    7.11
  -1   0   4  126.43    6.71
  -1   0   3   -0.21    0.15
  -1   0   3    0.03    0.19
  -1   0   3    0.15    0.19
  -1   0   2  557.15   30.43
  -1   0   2  579.17   29.02
  -1   0   2  559.62   30.03
  -1   0   1   -0.23    0.08
  -1   0   1   -0.03    0.12
   1   0  -1   -0.34    0.08
   1   0   1    0.19    0.10
  -1   0  -1   -0.01    0.06
   1   0   1   -0.01    0.09
   1   0   2   57.72    3.19
  -1   0  -2   58.94    3.28
   1   0   2   63.87    3.39
  -1   0  -3    0.15    0.16
   1   0   3    0.10    0.18
   1   0   3    0.15    0.20
  -1   0  -4  100.60    5.43
   1   0   4   96.81    5.24
   1   0   4   97.08    5.57
  -1   0  -5    0.15    0.24
   1   0   5    0.24    0.27
   1   0   5    0.21    0.34
  -1   0  -6    6.09    0.77
   1   0   6    5.54    0.95
   1   0   6    5.46    0.74
   1   0   7   -0.07    0.44
   1   0   8    2.59    0.68
  -1  -1   9   27.00    2.25
  -1   1   8    6.95    1.14
   1   1  -8    6.97    1.12
  -1  -1   8    7.00    1.19
   1   1  -7   39.55    2.65
  -1   1   7   37.50    2.69
   1  -1  -7   40.17    2.60
  -1  -1   7   40.71    2.74
  -1   1   6   12.91    1.12
  -1   1   6   14.36    1.26
   1   1  -6   12.34    1.19
  -1  -1   6   12.24    1.26
  -1   1   5    8.86    0.87
   1   1  -5    8.20    0.87
  -1   1   5    6.94    0.80
  -1   1   5    7.46    0.84
  -1  -1   5    8.15    0.66
  -1  -1   5    8.09    0.92
  -1   1   4    8.40    0.79
   1   1  -4    8.63    0.81
  -1   1   4    8.34    0.78
  -1   1   4    8.53    0.74
  -1  -1   4    8.62    0.63
  -1  -1   4    8.85    0.82
  -1   1   3   16.39    1.09
  -1   1   3   17.31    1.17
   1   1  -3   15.77    1.15
  -1   1   3   19.01    1.16
  -1  -1   3   17.47    1.18
  -1  -1   3   17.56    1.00
  -1   1   2    1.54    0.26
  -1   1   2    2.01    0.37
   1   1  -2    1.29    0.25
  -1   1   2    1.67    0.27
  -1  -1   2    1.00    0.22
   1   1  -1   46.64    2.59
  -1   1   1   48.15    2.52
   1  -1  -1   45.82    2.59
   1   1   0   37.50    1.93
   1   1   0   37.96    1.99
   1  -1   0   36.10    1.94
   1  -1   0   33.53    2.00
  -1  -1   0   38.22    2.05
   1   1   1   27.14    1.60
   1   1   1   29.30    1.55
  -1   1  -1   28.38    1.59
   1  -1   1   24.28    1.55
  -1  -1  -1   31.27    1.79
   1  -1   1   28.59    1.61
   1   1   2  140.35    7.13
   1   1   2  127.73    7.30
  -1   1  -2  134.18    7.34
   1  -1   2  136.98    7.06
   1  -1   2  137.94    7.47
  -1  -1  -2  141.65    7.50
  -1   1  -3  160.38    8.66
   1   1   3  151.84    8.61
   1   1   3  169.73    8.41
   1   1   3  154.24    8.82
   1  -1   3  165.71    8.83
   1  -1   3  159.65    8.31
  -1   1  -4   31.68    1.97
   1   1   4   32.14    1.95
   1   1   4   34.02    1.93
   1   1   4   32.15    2.06
   1  -1   4   31.53    2.06
   1  -1   4   30.48    1.82
   1   1   5  196.78   11.39
  -1   1  -5  210.86   11.18
   1   1   5  203.01   10.81
   1  -1   5  211.79   10.73
   1  -1   5  199.79   11.39
  -1  -1  -5  209.79   11.12
   1   1   6   53.81    3.51
  -1   1  -6   57.99    3.40
   1   1   6   54.47    3.27
   1  -1   6   55.35    3.53
  -1  -1  -6   57.57    3.35
  -1   1  -7   78.53    4.58
   1  -1   7   75.39    4.73
  -1  -1  -8    8.36    1.31
   1  -1   8    8.69    1.30
   1  -1   9    7.91    1.20
  -1  -1  -9    8.50    1.39
  -1  -2   9    9.32    1.36
   1   2  -8    0.91    0.53
  -1  -2   8    1.68    0.66
   1   2  -7   34.50    2.37
  -1   2   7   32.91    2.21
   1  -2  -7   33.22    2.40
  -1  -2   7   30.74    2.41
  -1   2   6   15.17    1.31
   1   2  -6   15.53    1.40
  -1   2   6   16.08    1.31
  -1  -2   6   15.04    1.46
   1  -2  -6   15.89    1.41
  -1   2   5  210.92   10.82
  -1   2   5  198.61   11.17
   1   2  -5  198.90   11.18
  -1  -2   5  210.30   11.39
   1   2  -4    1.81    0.42
  -1   2   4    1.68    0.41
  -1   2   4    1.97    0.43
   1  -2  -4    1.76    0.39
  -1  -2   4    1.52    0.41
  -1   2   3  186.98   10.54
  -1   2   3  199.78   10.96
   1   2  -3  199.65   10.91
   1  -2  -3  213.51   11.08
  -1  -2   3  210.20   11.09
  -1   2   2  101.01    5.44
   1   2  -2  109.24    5.64
   1  -2  -2   89.79    5.75
  -1  -2   2  110.99    5.72
  -1   2   1   77.53    4.37
  -1   2   1   79.70    4.13
   1   2  -1   77.55    4.27
  -1  -2   1   77.33    4.33
   1  -2  -1   77.13    4.27
   1   2   0   21.51    1.23
  -1   2   0   22.58    1.34
   1   2   0   22.73    1.30
  -1  -2   0   20.85    1.32
   1  -2   0   22.47    1.25
   1  -2   0   22.06    1.28
  -1   2  -1  970.79   50.77
   1   2   1  973.96   50.77
   1   2   1  962.29   49.15
   1  -2   1  954.73   51.48
   1  -2   1 1000.00   49.10
  -1  -2  -1  892.10   51.57
   1   2   2   59.01    3.29
   1   2   2   61.22    3.20
  -1   2  -2   58.87    3.29
  -1  -2  -2   52.02    3.54
   1  -2   2   59.93    3.34
  -1   2  -3   88.48    5.08
   1   2   3   88.82    5.02
   1   2   3   92.03    4.93
  -1  -2  -3   96.68    5.29
   1  -2   3   91.78    5.17
   1   2   4    0.48    0.24
  -1   2  -4    0.86    0.33
   1   2   4    0.49    0.32
   1  -2   4    0.60    0.34
  -1  -2  -4    0.72    0.37
  -1   2  -5   18.70    1.49
   1   2   5   19.94    1.50
   1   2   5   20.25    1.41
  -1  -2  -5   22.06    1.67
   1  -2   5   21.49    1.63
   1   2   6   -0.06    0.40
  -1   2  -6    0.41    0.37
  -1  -2  -6   -0.11    0.40
   1  -2   6   -0.26    0.40
  -1   2  -7    1.82    0.55
   1   2   7    1.37    0.49
  -1  -2  -7    1.41    0.58
   1  -2   7    1.71    0.60
   1  -2   8    2.57    0.78
  -1  -2  -8    3.00    0.74
   1   3  -8   31.71    2.42
  -1  -3   8   34.21    2.60
   1   3  -7   -0.58    0.41
  -1   3   7    0.49    0.47
  -1  -3   7    1.09    0.58
  -1   3   6   23.44    1.80
  -1   3   6   25.93    1.80
   1   3  -6   24.48    1.88
   1  -3  -6   24.20    1.96
  -1  -3   6   25.85    1.97
   1   3  -5    5.03    0.86
  -1   3   5    4.84    0.86
  -1   3   5    5.87    0.77
  -1  -3   5    5.03    0.91
   1  -3  -5    5.78    0.87
   1   3  -4   25.90    1.77
  -1   3   4   25.38    1.77
  -1   3   4   25.02    1.71
   1  -3  -4   26.13    1.92
  -1  -3   4   26.56    1.82
   1   3  -3    1.32    0.37
  -1   3   3    1.10    0.36
  -1   3   3    1.34    0.38
  -1  -3   3    1.14    0.36
  -1   3   2    0.54    0.37
   1   3  -2    0.58    0.29
  -1   3   2    0.37    0.28
  -1  -3   2    0.28    0.24
   1  -3  -2    0.79    0.24
   1   3  -1   23.19    1.26
   1   3  -1   20.95    1.41
  -1   3   1   23.17    1.51
  -1   3   1   23.21    1.38
  -1  -3   1   22.71    1.44
   1  -3  -1   21.21    1.34
   1   3   0  253.82   12.67
  -1   3   0  243.98   13.15
   1   3   0  254.49   13.13
   1  -3   0  236.44   13.26
  -1  -3   0  235.22   13.29
   1  -3   0  245.45   12.68
   1   3   1  151.18    7.68
  -1   3  -1  132.07    7.65
   1   3   1  142.87    7.39
   1  -3   1  137.28    7.32
   1  -3   1  134.23    7.71
  -1  -3  -1  147.96    7.80
  -1   3  -2  148.20    7.83
   1   3   2  146.81    7.58
  -1  -3  -2  128.42    8.05
   1  -3   2  149.87    7.93
   1   3   3    7.39    0.67
   1   3   3    5.48    0.72
  -1   3  -3    6.95    0.75
   1  -3   3    7.67    0.78
  -1  -3  -3    4.43    0.85
  -1   3  -4  229.88   12.39
   1   3   4  218.15   12.30
   1   3   4  226.03   12.01
   1  -3   4  230.77   12.59
  -1  -3  -4  235.52   12.95
  -1   3  -5    2.70    0.58
   1   3   5    2.75    0.61
  -1  -3  -5    2.86    0.72
   1  -3   5    3.05    0.62
  -1   3  -6   83.59    5.08
   1   3   6   86.16    4.93
  -1  -3  -6   92.86    5.46
   1  -3   6   84.53    5.24
   1   3   7   -0.39    0.44
  -1   3  -7    0.11    0.48
  -1  -3  -7   -0.43    0.43
   1  -3   7    0.78    0.59
   1   3   8   52.47    3.42
  -1   3  -8   58.45    3.58
   1  -3   8   52.44    3.70
   1   4  -8    4.51    0.91
  -1  -4   8    4.20    0.90
   1   4  -7   36.99    2.65
  -1   4   7   33.57    2.49
  -1  -4   7   38.16    2.75
  -1   4   6   47.53    3.12
   1   4  -6   52.14    3.28
  -1  -4   6   51.46    3.36
  -1   4   5   93.86    5.70
  -1   4   5  103.09    5.92
   1   4  -5  104.63    5.95
  -1  -4   5  110.84    6.08
   1   4  -4   33.90    2.26
  -1   4   4   37.31    2.37
  -1   4   4   30.58    2.15
   1  -4  -4   31.26    2.34
  -1  -4   4   36.84    2.32
   1   4  -3   89.04    5.21
  -1   4   3   93.64    5.04
  -1  -4   3   93.66    5.30
   1  -4  -3   91.28    5.25
  -1   4   2  400.83   22.81
   1   4  -2  425.87   22.55
  -1   4   2  434.13   21.82
   1  -4  -2  407.70   22.77
  -1  -4   2  438.11   22.88
  -1   4   1   91.47    5.12
   1   4  -1   94.64    5.05
  -1  -4   1   89.32    5.08
   1  -4  -1   84.12    4.98
   1   4   0   36.89    1.98
   1   4   0   35.16    2.10
  -1   4   0   33.22    2.12
   1  -4   0   34.94    2.06
  -1  -4   0   32.10    2.07
   1  -4   0   32.82    1.98
  -1   4  -1  207.59   11.63
   1   4   1  223.58   11.23
   1   4   1  223.24   11.66
   1  -4   1  210.53   11.14
  -1  -4  -1  216.88   11.76
   1  -4   1  207.06   11.72
  -1   4  -2   54.00    3.26
  -1  -4  -2   56.92    3.34
   1  -4   2   55.02    3.26
   1   4   3  200.18   10.88
  -1   4  -3  198.81   10.71
   1   4   3  201.92   10.38
   1  -4   3  202.87   10.87
  -1  -4  -3  176.09   10.97
   1   4   4   22.25    1.53
   1   4   4   21.09    1.62
  -1   4  -4   23.25    1.67
   1  -4   4   24.78    1.73
  -1  -4  -4   18.71    1.87
   1   4   5   11.37    1.17
  -1   4  -5    9.17    1.13
  -1  -4  -5    7.60    1.30
   1  -4   5    9.45    1.19
   1   4   6    0.79    0.55
  -1   4  -6    0.67    0.47
  -1  -4  -6    2.17    0.76
   1  -4   6    0.16    0.53
  -1   4  -7    2.23    0.65
   1   4   7    1.87    0.67
   1  -4   7    3.65    0.87
  -1   4  -8    0.92    0.52
   1   4   8   -0.17    0.47
   1  -4   8   -0.29    0.54
   1   5  -8    0.60    0.60
   1  -5  -8    0.67    0.60
   1   5  -7   30.96    2.36
  -1  -5   7   29.30    2.43
  -1   5   6    0.85    0.60
   1   5  -6    2.11    0.70
  -1  -5   6    2.10    0.69
  -1   5   5   19.76    1.70
   1   5  -5   17.79    1.66
  -1   5   5   19.31    1.65
  -1  -5   5   21.72    1.78
  -1   5   4    0.38    0.35
  -1   5   4    1.37    0.54
   1   5  -4    0.72    0.47
  -1  -5   4    0.61    0.43
   1   5  -3    0.34    0.39
  -1   5   3    0.51    0.43
   1  -5  -3    0.64    0.29
  -1  -5   3   -0.04    0.37
  -1   5   2    0.34    0.42
   1   5  -2    0.06    0.36
  -1   5   2   -0.20    0.34
  -1  -5   2    0.03    0.30
   1  -5  -2    0.22    0.22
   1   5  -1   33.72    2.16
  -1   5   1   33.74    2.25
  -1  -5   1   32.43    2.14
   1  -5  -1   32.68    2.06
  -1  -5   1   34.52    1.94
   1  -5  -1   32.97    2.04
  -1   5   0    2.68    0.52
   1   5   0    2.97    0.45
   1   5   0    3.30    0.55
   1  -5   0    2.59    0.46
   1  -5   0    1.70    0.36
  -1  -5   0    2.22    0.43
   1   5   1  113.04    6.02
  -1   5  -1  103.29    5.96
   1   5   1  102.95    5.71
  -1  -5  -1  102.02    5.95
   1  -5   1  106.93    5.63
   1  -5   1  106.31    5.96
   1   5   2   53.38    3.71
   1   5   2   62.25    3.49
  -1   5  -2   61.20    3.64
   1  -5   2   63.15    3.63
  -1  -5  -2   63.54    3.64
  -1   5  -3  140.69    8.27
   1   5   3  146.81    8.01
   1  -5   3  155.99    8.39
  -1  -5  -3  151.22    8.43
   1   5   4    5.76    0.98
  -1   5  -4    7.87    1.07
   1  -5   4    6.78    1.03
  -1  -5  -4    6.21    0.97
  -1   5  -5   63.84    4.13
   1   5   5   69.90    4.08
   1  -5   5   70.58    4.27
   1   5   6   10.94    1.44
  -1   5  -6   13.52    1.42
   1  -5   6   13.54    1.52
   1   5   7   49.56    3.38
  -1   5  -7   52.05    3.45
   1  -5   7   54.30    3.64
   1   5   8    3.40    0.76
  -1   5  -8    2.75    0.71
   1   6  -7    1.38    0.65
  -1  -6   7    0.90    0.65
   1  -6  -7    1.56    0.77
   1   6  -6   25.97    2.22
  -1  -6   6   30.24    2.33
   1   6  -5    2.67    0.74
  -1   6   5    2.46    0.70
  -1  -6   5    1.88    0.68
   1   6  -4  149.55    8.27
  -1   6   4  149.56    8.01
  -1   6   4  128.36    8.48
  -1  -6   4  155.18    8.39
   1   6  -3   16.42    1.51
  -1  -6   3   15.78    1.46
   1   6  -2  199.32   10.76
  -1   6   2  198.91   11.04
   1  -6  -2  192.03   10.37
  -1  -6   2  196.87   10.85
   1  -6  -2  185.64   10.69
   1   6  -1   21.83    1.70
  -1   6   1   22.15    1.77
   1  -6  -1   22.25    1.61
   1  -6  -1   20.98    1.50
  -1  -6   1   22.18    1.64
  -1  -6   1   22.48    1.46
  -1   6   0  222.99   12.63
   1   6   0  237.43   12.63
   1  -6   0  234.12   12.11
  -1  -6   0  221.06   12.68
   1  -6   0  235.94   12.67
  -1   6  -1    8.39    1.08
   1   6   1    9.63    0.96
   1   6   1    7.81    1.00
  -1  -6  -1    7.87    0.86
   1  -6   1    8.83    0.82
   1  -6   1    7.76    0.89
  -1   6  -2   37.40    2.50
   1   6   2   40.17    2.39
   1   6   2   32.12    2.52
  -1  -6  -2   35.67    2.37
   1  -6   2   38.58    2.44
   1   6   3   27.91    2.45
   1   6   3   34.62    2.33
  -1   6  -3   33.47    2.40
  -1  -6  -3   36.26    2.33
   1  -6   3   39.56    2.42
  -1   6  -4   12.62    1.45
   1   6   4   15.32    1.46
   1  -6   4   13.14    1.41
  -1   6  -5    0.50    0.56
   1   6   5    0.27    0.63
   1  -6   5    0.44    0.55
   1   6   6    0.84    0.65
  -1   6  -6    0.24    0.57
   1  -6   6    0.62    0.61
  -1   6  -7    2.70    0.83
   1   6   7    2.68    0.77
   1  -6   7    3.11    0.83
   1   7  -6   15.57    1.69
  -1  -7   6   17.00    1.72
   1  -7  -6   13.98    1.68
   1   7  -5    6.96    1.28
  -1  -7   5    8.87    1.32
   1  -7  -5    8.04    1.20
   1   7  -4    7.25    1.26
   1  -7  -4    6.68    1.18
  -1  -7   4    6.70    1.09
   1   7  -3    0.58    0.57
  -1   7   3   -0.14    0.50
  -1  -7   3    0.19    0.48
   1  -7  -3   -0.13    0.50
   1   7  -2    2.30    0.65
  -1   7   2    1.51    0.71
   1  -7  -2    2.89    0.71
  -1  -7   2    1.39    0.53
  -1   7   1    5.76    0.97
   1   7  -1    5.35    0.88
  -1  -7   1    4.41    0.74
   1  -7  -1    6.10    1.02
  -1   7   0   14.18    1.47
   1   7   0   14.58    1.43
   1  -7   0   14.43    1.24
   1  -7   0   14.61    1.26
  -1  -7   0   14.22    1.28
  -1  -7   0   15.43    1.26
   1   7   1   17.02    1.58
  -1   7  -1   14.47    1.51
   1   7   1   17.02    1.41
  -1  -7  -1   15.54    1.35
   1  -7   1   17.04    1.37
   1   7   2   21.82    2.00
   1   7   2   25.14    1.89
  -1   7  -2   23.68    1.95
   1  -7   2   27.47    1.89
  -1  -7  -2   25.43    1.77
  -1   7  -3   29.04    2.25
   1   7   3   30.55    2.17
   1  -7   3   29.21    2.16
  -1   7  -4   26.85    2.12
   1   7   4   24.28    2.03
   1  -7   4   25.18    2.06
  -1   7  -5   52.49    3.61
   1   7   5   53.82    3.49
   1  -7   5   55.86    3.64
   1   7   6   24.96    2.11
  -1   7  -6   24.62    2.17
   1  -7   6   23.82    2.15
   1   8  -5   34.87    2.65
   1  -8  -5   31.56    2.55
  -1  -8   5   33.62    2.62
   1   8  -4    4.86    0.95
   1  -8  -4    7.75    1.26
  -1  -8   4    4.76    0.88
   1   8  -3   94.16    5.81
   1  -8  -3   98.86    5.66
  -1  -8   3   96.99    5.83
   1   8  -2    6.97    1.22
  -1   8   2    8.19    1.32
  -1  -8   2    6.46    1.07
   1  -8  -2    6.29    1.05
  -1   8   1  123.36    7.46
   1   8  -1  126.56    7.36
   1  -8  -1  132.32    7.05
  -1  -8   1  123.97    7.32
  -1   8   0   10.60    1.40
   1   8   0   12.62    1.38
  -1  -8   0   10.01    1.19
   1   8   1   43.74    3.08
  -1   8  -1   42.45    3.00
   1  -8   1   46.06    2.88
  -1  -8  -1   42.02    2.82
  -1   8  -2    1.24    0.65
   1  -8   2    0.59    0.51
  -1   8  -3    2.35    0.73
   1   8   3    3.33    0.79
   1  -8   3    3.63    0.74
   1   8   4    4.70    0.89
  -1   8  -4    3.75    0.87
   1  -8   4    4.58    0.85
   1   8   5    1.58    0.69
  -1   8  -5   -0.05    0.62
   1  -8   5    0.96    0.62
   1   9  -4    5.34    1.07
  -1  -9   4    8.45    1.21
   1  -9  -4    6.99    1.19
   1   9  -3    0.88    0.65
   1  -9  -3    0.94    0.76
  -1  -9   3    0.62    0.55
   1   9  -2    0.38    0.61
  -1  -9   2   -0.06    0.50
   1  -9  -2    1.43    0.68
  -1   9   1    0.46    0.54
   1   9  -1    1.44    0.62
  -1  -9   1   -0.46    0.42
   1   9   0   22.27    1.99
  -1   9   0   19.91    1.96
  -1   9  -1   14.90    1.69
  -1   9  -2   28.99    2.42
  -1  -9  -2   32.69    2.34
  -1   9  -3    4.16    0.91
  -1  -9  -3    4.90    0.96
   1  -9   3    5.61    1.01
  -1   9  -4   26.91    2.34
   1  -9   4   28.38    2.28
  -1  -9  -4   29.99    2.34
   1  10  -2   23.69    2.15
  -1  10   1   33.41    2.62
   1  10  -1   29.53    2.51
   1  10   0   22.50    2.01
  -1  10   0   16.12    1.90
  -1  10  -1    1.61    0.70
  -1  10  -2   23.55    2.13
  -2   0   9   -0.67    0.42
  -2   0   8   77.45    4.65
   2   0  -8   70.36    4.47
   2   0  -7   -0.06    0.41
  -2   0   7   -0.06    0.37
   2   0  -6   85.66    5.02
  -2   0   6   88.28    5.11
  -2   0   5   -0.14    0.24
  -2   0   4  663.08   34.24
  -2   0   4  622.64   34.66
  -2   0   3    0.12    0.17
  -2   0   3    0.02    0.21
  -2   0   2  345.64   20.23
   2   0  -2  392.95   19.31
  -2   0   2  389.26   20.03
  -2   0   1    0.18    0.09
  -2   0   1   -0.02    0.14
   2   0  -1    0.07    0.10
  -2   0   0   14.37    0.97
  -2   0  -1   -0.01    0.08
   2   0   1    0.01    0.13
   2   0   1    0.06    0.15
  -2   0  -2   21.94    1.36
   2   0   2   25.44    1.38
   2   0   2   23.91    1.47
   2   0   3   -0.24    0.21
  -2   0  -3   -0.08    0.15
   2   0   3   -0.18    0.19
   2   0   4    1.74    0.36
   2   0   4    1.74    0.39
  -2   0  -4    1.15    0.28
  -2   0  -5   -0.35    0.20
   2   0   5   -0.47    0.30
   2   0   5   -0.14    0.24
  -2   0  -6    2.68    0.49
   2   0   6    2.14    0.46
   2   0   6    1.55    0.57
   2   0   7   -0.18    0.41
   2   0   8   18.49    1.78
  -2  -1   9    9.25    1.33
  -2   1   8    7.25    1.08
   2   1  -8    5.44    0.92
  -2  -1   8    7.25    1.15
   2  -1  -8    7.69    1.05
   2   1  -7    3.35    0.69
  -2   1   7    3.22    0.65
  -2  -1   7    3.22    0.72
   2  -1  -7    3.96    0.69
   2   1  -6    1.63    0.51
  -2   1   6    2.05    0.47
  -2   1   6    1.32    0.46
  -2   1   6    1.66    0.47
  -2  -1   6    1.09    0.48
  -2   1   5    5.31    0.70
   2   1  -5    5.11    0.52
  -2   1   5    5.42    0.67
  -2   1   5    4.38    0.74
   2   1  -5    7.16    0.85
  -2  -1   5    4.90    0.74
  -2   1   4    0.10    0.24
  -2   1   4   -0.16    0.26
   2   1  -4    0.31    0.27
  -2   1   4   -0.26    0.18
   2   1  -4   -0.01    0.15
  -2  -1   4   -0.17    0.23
  -2   1   3  136.47    7.13
   2   1  -3  138.70    7.40
  -2   1   3  138.61    7.46
  -2   1   3  135.81    7.44
  -2  -1   3  129.18    7.48
  -2   1   2  117.40    6.35
  -2   1   2  112.44    6.27
   2   1  -2  115.52    6.26
   2  -1  -2  112.76    6.03
  -2  -1   2  118.89    6.34
   2   1  -1  182.67   11.22
   2   1  -1  224.37   11.62
   2  -1  -1  226.96   11.26
  -2  -1   1  238.86   11.80
   2   1   0   29.22    1.74
   2   1   0   32.33    1.72
  -2   1   0   31.49    1.81
  -2  -1   0   35.62    1.88
   2  -1   0   33.16    1.75
   2  -1   0   29.99    1.75
  -2   1  -1  267.10   13.87
   2   1   1  260.06   13.44
   2  -1   1  266.69   14.07
  -2  -1  -1  248.75   14.28
  -2   1  -2  190.72   10.18
   2   1   2  216.08    9.91
   2   1   2  171.42   10.11
   2  -1   2  171.00    9.84
  -2  -1  -2  199.43   10.43
   2  -1   2  193.68   10.37
  -2   1  -3  225.15   12.71
   2   1   3  245.32   12.36
   2  -1   3  235.64   12.28
   2  -1   3  238.20   12.96
  -2  -1  -3  241.92   13.00
   2   1   4   18.71    1.26
  -2   1  -4   18.59    1.25
  -2  -1  -4   18.20    1.18
   2  -1   4   17.58    1.15
   2  -1   4   17.55    1.34
   2   1   5  175.29    9.37
  -2   1  -5  181.65    9.66
  -2  -1  -5  183.06    9.60
   2  -1   5  171.88    9.88
   2  -1   5  171.29    9.27
   2   1   6   33.14    2.16
  -2   1  -6   34.04    2.20
   2  -1   6   33.28    2.37
  -2  -1  -7   61.63    3.89
   2  -1   7   57.20    3.82
  -2  -1  -8    9.82    1.40
   2  -1   8    9.59    1.35
  -2  -1  -9    8.20    1.37
   2   2  -9   17.34    1.66
  -2  -2   9   18.84    1.81
   2   2  -8    5.36    0.96
  -2  -2   8    5.47    0.96
  -2   2   7   65.32    4.08
   2   2  -7   67.32    4.15
  -2  -2   7   69.07    4.26
  -2   2   6   45.78    3.05
  -2   2   6   49.78    2.95
   2   2  -6   49.08    3.09
  -2  -2   6   50.50    3.16
   2   2  -5  167.60    9.29
  -2   2   5  163.23    8.94
  -2   2   5  174.69    9.33
  -2   2   5  169.45    9.40
  -2  -2   5  166.41    9.42
  -2   2   4   51.25    3.15
   2   2  -4   56.88    3.31
  -2   2   4   59.93    3.39
  -2  -2   4   56.85    3.36
  -2   2   3  116.58    6.28
  -2   2   3  103.43    5.91
   2   2  -3  110.31    6.14
   2  -2  -3  114.84    6.17
  -2  -2   3  110.84    6.22
   2   2  -2  208.46   11.20
  -2  -2   2  218.77   11.38
   2  -2  -2  198.25   10.83
   2   2  -1  449.32   23.08
   2   2  -1  447.67   23.93
  -2   2   1  477.00   24.10
   2  -2  -1  436.13   23.17
  -2  -2   1  443.36   24.29
   2   2   0    7.84    0.54
  -2   2   0    8.34    0.64
   2   2   0    7.77    0.55
   2  -2   0    7.77    0.57
   2  -2   0    7.24    0.51
  -2  -2   0    7.72    0.62
  -2   2  -1   29.16    1.67
   2  -2   1   27.70    1.65
   2  -2   1   26.93    1.60
  -2   2  -2    6.44    0.61
   2   2   2    7.17    0.52
   2   2   2    6.74    0.63
   2  -2   2    6.90    0.63
  -2  -2  -2    6.40    0.91
   2  -2   2    7.42    0.57
   2   2   3   12.69    0.85
   2   2   3   12.96    0.99
  -2   2  -3   11.75    0.95
   2  -2   3   12.53    0.82
   2  -2   3   13.18    1.02
  -2  -2  -3   13.49    1.17
   2   2   4    4.71    0.51
   2   2   4    4.25    0.68
  -2   2  -4    5.17    0.66
   2  -2   4    4.66    0.75
   2  -2   4    4.79    0.47
  -2  -2  -4    5.61    0.83
   2   2   5    0.73    0.42
  -2   2  -5   -0.28    0.30
  -2  -2  -5    0.72    0.46
   2  -2   5    0.10    0.37
   2   2   6    1.67    0.55
  -2   2  -6    2.20    0.53
  -2  -2  -6    1.36    0.57
   2  -2   6    2.47    0.63
  -2   2  -7   41.21    2.82
   2   2   7   46.91    2.81
  -2  -2  -7   44.34    3.10
   2  -2   7   41.68    3.00
  -2  -2  -8    2.04    0.69
   2  -2   8    1.67    0.72
   2   3  -8   17.88    1.75
   2  -3  -8   20.50    1.75
  -2  -3   8   20.74    1.94
   2   3  -7   -0.38    0.44
  -2  -3   7   -0.20    0.47
   2   3  -6    9.56    1.18
  -2   3   6    8.45    1.06
  -2   3   6    9.93    1.10
  -2  -3   6    9.68    1.20
   2   3  -5    2.81    0.60
  -2   3   5    2.62    0.57
  -2   3   5    3.43    0.65
   2  -3  -5    4.61    0.73
  -2  -3   5    3.11    0.65
   2   3  -4    3.06    0.57
  -2   3   4    4.21    0.72
  -2   3   4    4.25    0.71
  -2  -3   4    3.43    0.59
   2  -3  -4    4.61    0.67
  -2   3   3    6.49    0.72
  -2   3   3    5.84    0.81
   2   3  -3    6.19    0.73
  -2  -3   3    6.94    0.76
   2   3  -2  110.71    6.23
   2  -3  -2  114.65    6.21
  -2  -3   2  117.82    6.34
   2  -3  -2  109.44    6.02
   2   3  -1    1.28    0.28
   2   3  -1    1.52    0.21
  -2   3   1    1.82    0.40
  -2  -3   1    1.04    0.27
   2  -3  -1    1.27    0.23
   2  -3  -1    1.31    0.30
  -2   3   0  508.77   27.25
   2   3   0  532.74   27.20
   2   3   0  517.66   26.31
  -2  -3   0  505.35   27.62
   2  -3   0  517.53   26.33
   2  -3   0  489.18   27.52
   2   3   1   18.49    1.17
  -2   3  -1   16.73    1.22
   2   3   1   19.48    1.20
   2  -3   1   17.06    1.16
   2  -3   1   18.24    1.13
  -2  -3  -1   19.79    1.35
   2   3   2   96.99    5.80
   2   3   2  114.79    5.56
  -2   3  -2  107.06    5.72
  -2  -3  -2   83.06    5.93
   2  -3   2  111.85    5.78
   2   3   3    0.42    0.33
   2   3   3    0.67    0.22
  -2   3  -3    0.23    0.30
   2  -3   3    0.50    0.31
   2  -3   3    0.82    0.21
  -2  -3  -3    0.60    0.45
  -2   3  -4  134.15    7.47
   2   3   4  137.63    7.27
   2   3   4  125.51    7.32
  -2  -3  -4  136.17    8.05
   2  -3   4  140.58    7.62
  -2   3  -5    0.16    0.39
   2   3   5   -0.17    0.42
  -2  -3  -5    1.18    0.58
   2  -3   5    0.32    0.42
   2   3   6   52.47    3.26
  -2   3  -6   51.87    3.31
   2  -3   6   50.85    3.44
  -2  -3  -6   56.86    3.77
  -2   3  -7    0.44    0.47
   2   3   7    0.36    0.47
  -2  -3  -7    0.69    0.57
   2  -3   7   -0.34    0.49
   2   3   8   47.93    3.20
  -2  -3  -8   52.45    3.69
   2  -3   8   50.14    3.51
   2   4  -8   11.86    1.44
  -2  -4   8    8.46    1.47
   2  -4  -8   11.69    1.41
   2   4  -7   40.23    2.90
   2  -4  -7   43.82    2.89
  -2  -4   7   42.58    3.01
  -2   4   6   30.74    2.23
   2   4  -6   32.80    2.32
  -2  -4   6   31.52    2.35
  -2   4   5   87.19    5.08
  -2   4   5   91.46    5.34
   2   4  -5   90.33    5.27
  -2  -4   5   92.10    5.38
  -2   4   4   49.00    2.97
  -2   4   4   47.87    3.23
   2   4  -4   50.92    3.10
   2  -4  -4   48.23    3.12
  -2  -4   4   53.51    3.16
   2   4  -3   87.72    5.10
   2  -4  -3   92.43    5.05
  -2  -4   3   88.37    5.16
   2   4  -2   92.19    5.07
  -2   4   2   91.68    5.42
   2  -4  -2   87.97    4.97
  -2  -4   2   90.45    5.14
   2  -4  -2   87.48    4.89
   2   4  -1   68.98    3.50
   2   4  -1   63.40    3.73
  -2   4   1   66.89    3.86
   2  -4  -1   63.28    3.65
   2  -4  -1   65.21    3.62
  -2  -4   1   64.25    3.78
   2   4   0   33.50    2.06
  -2   4   0   35.91    2.14
   2   4   0   35.56    1.96
   2  -4   0   32.20    1.99
   2  -4   0   31.28    1.96
  -2  -4   0   34.08    2.09
  -2   4  -1   53.90    3.23
   2   4   1   58.49    3.23
   2   4   1   53.40    3.08
  -2  -4  -1   57.12    3.29
   2  -4   1   55.98    3.02
   2  -4   1   51.98    3.17
   2   4   2  113.38    5.87
  -2   4  -2  105.94    6.07
  -2  -4  -2  117.18    6.28
   2  -4   2  103.39    5.76
   2  -4   2  102.86    6.08
   2   4   3   12.85    0.97
  -2   4  -3   11.78    1.08
   2   4   3    9.42    1.01
  -2  -4  -3    8.37    1.16
   2  -4   3   11.53    1.04
  -2   4  -4   19.84    1.54
   2   4   4   19.05    1.52
   2  -4   4   20.18    1.58
  -2  -4  -4   18.03    1.87
   2   4   5    4.07    0.73
  -2   4  -5    4.18    0.72
  -2  -4  -5    4.39    0.98
   2  -4   5    4.06    0.76
  -2   4  -6    8.46    1.17
   2   4   6   10.63    1.25
   2  -4   6   10.61    1.36
  -2  -4  -6    7.60    1.43
  -2   4  -7   11.81    1.36
   2   4   7   14.73    1.45
   2  -4   7   15.38    1.59
  -2  -4  -7   11.97    1.64
   2   4   8    5.22    0.90
  -2   4  -8    4.62    0.80
   2  -4   8    4.17    0.89
   2   5  -8    1.92    0.73
  -2  -5   8    1.37    0.64
   2  -5  -8    2.00    0.71
   2   5  -7    4.22    0.93
  -2  -5   7    7.13    1.30
   2  -5  -7    6.90    1.11
   2   5  -6    2.72    0.76
  -2  -5   6    1.98    0.72
   2  -5  -6    2.08    0.71
   2   5  -5   -0.64    0.44
  -2   5   5   -0.13    0.38
  -2  -5   5    0.84    0.52
   2   5  -4    1.60    0.56
  -2   5   4    1.69    0.58
  -2  -5   4    1.66    0.53
   2   5  -3    6.06    0.89
  -2  -5   3    5.81    0.86
   2  -5  -3    5.93    0.91
  -2   5   2   31.06    2.31
   2   5  -2   29.99    2.01
   2  -5  -2   28.12    1.80
  -2  -5   2   31.07    2.04
   2  -5  -2   29.23    1.94
   2   5  -1   75.26    4.25
  -2   5   1   76.35    4.36
   2   5  -1   75.74    3.96
   2  -5  -1   71.62    4.14
   2  -5  -1   72.24    4.08
  -2  -5   1   68.11    4.25
   2   5   0   37.93    2.29
   2   5   0   36.99    2.12
  -2   5   0   35.29    2.33
   2  -5   0   37.94    2.16
  -2  -5   0   32.97    2.26
   2  -5   0   34.68    2.17
   2   5   1  179.16    9.49
   2   5   1  178.30    9.12
  -2   5  -1  170.74    9.47
  -2  -5  -1  167.84    9.56
   2  -5   1  168.24    9.49
   2  -5   1  168.36    9.02
   2   5   2    4.38    0.77
  -2   5  -2    4.44    0.80
   2  -5   2    4.91    0.53
  -2  -5  -2    4.67    0.81
   2  -5   2    4.22    0.69
   2   5   3  154.86    8.51
  -2   5  -3  154.87    8.81
   2  -5   3  162.18    8.90
  -2  -5  -3  161.21    9.04
   2   5   4    7.46    1.08
  -2   5  -4    8.14    1.15
   2  -5   4    9.08    1.11
  -2  -5  -4    8.26    1.13
  -2   5  -5   96.59    5.50
   2   5   5   95.25    5.34
  -2  -5  -5   82.14    5.81
   2  -5   5   96.83    5.59
   2   5   6   13.17    1.46
  -2   5  -6   12.70    1.43
  -2  -5  -6   13.16    1.89
   2  -5   6   14.96    1.59
  -2   5  -7   25.42    2.04
   2   5   7   22.21    2.02
   2  -5   7   25.02    2.18
   2   6  -7    1.93    0.72
  -2  -6   7    2.67    0.76
   2  -6  -7    2.81    0.83
   2   6  -6   44.67    3.26
  -2  -6   6   49.47    3.36
   2  -6  -6   51.69    3.30
   2   6  -5    7.41    1.18
   2  -6  -5    6.48    1.02
  -2  -6   5    5.29    0.92
   2   6  -4  130.94    7.62
   2  -6  -4  133.21    7.41
  -2  -6   4  137.39    7.74
  -2   6   3    1.32    0.64
   2   6  -3    2.66    0.65
   2  -6  -3    3.00    0.69
  -2  -6   3    2.40    0.58
   2   6  -2  114.19    6.64
  -2   6   2  123.99    7.01
  -2  -6   2  113.99    6.71
   2  -6  -2  115.66    6.43
   2   6  -1   67.26    3.88
  -2   6   1   63.56    3.98
   2  -6  -1   63.06    3.71
   2  -6  -1   63.94    3.73
  -2  -6   1   63.08    3.87
  -2   6   0   99.99    6.04
   2   6   0  109.91    5.71
   2   6   0  104.68    6.00
   2  -6   0  106.40    5.73
  -2  -6   0  102.94    6.02
   2  -6   0  105.99    5.93
  -2   6  -1    0.71    0.47
   2   6   1    1.04    0.43
   2   6   1    1.67    0.48
  -2  -6  -1    0.72    0.38
   2  -6   1    0.97    0.39
   2  -6   1    1.23    0.38
  -2   6  -2    8.46    1.13
   2   6   2    9.39    1.07
  -2  -6  -2    8.48    1.01
   2  -6   2    8.72    0.95
   2   6   3   -0.22    0.45
  -2   6  -3    0.31    0.47
   2  -6   3    0.48    0.44
  -2  -6  -3    0.24    0.42
  -2   6  -4    1.00    0.60
   2   6   4    0.99    0.57
   2  -6   4    0.33    0.47
  -2   6  -5    0.64    0.62
   2   6   5    0.02    0.56
   2  -6   5    0.50    0.53
   2   6   6    6.79    1.11
  -2   6  -6    5.65    1.04
   2  -6   6    8.62    1.34
   2   6   7    2.10    0.82
  -2   6  -7    2.21    0.73
   2  -6   7    3.13    0.89
   2   7  -6    0.88    0.59
   2  -7  -6   -0.01    0.62
  -2  -7   6    0.89    0.61
   2   7  -5   -0.25    0.53
  -2  -7   5    0.66    0.54
   2  -7  -5    0.60    0.64
   2   7  -4    2.73    0.79
  -2  -7   4    2.70    0.68
   2  -7  -4    3.17    0.82
  -2   7   3    4.22    1.02
   2   7  -3    5.40    0.93
  -2  -7   3    6.12    1.06
   2  -7  -3    7.87    1.16
  -2   7   2   16.44    1.71
   2   7  -2   14.56    1.45
   2  -7  -2   13.32    1.43
  -2  -7   2   13.03    1.35
  -2   7   1   14.62    1.55
   2   7  -1   14.93    1.48
   2  -7  -1   16.00    1.39
  -2  -7   1   15.59    1.41
  -2   7   0   18.26    1.62
   2   7   0   16.21    1.31
   2   7   0   15.83    1.51
   2  -7   0   17.34    1.38
  -2  -7   0   15.46    1.41
   2   7   1   42.74    2.90
   2   7   1   45.20    2.68
  -2   7  -1   43.53    2.89
   2  -7   1   41.83    2.72
  -2  -7  -1   41.21    2.76
   2   7   2  140.30    7.40
  -2   7  -2  132.50    7.69
   2  -7   2  135.68    7.66
  -2  -7  -2  130.07    7.67
  -2   7  -3   79.79    4.99
   2   7   3   80.90    4.79
   2  -7   3   86.47    4.98
  -2  -7  -3   82.43    4.97
   2   7   4   84.64    4.93
  -2   7  -4   80.17    5.07
   2  -7   4   85.71    5.11
   2   7   5   39.48    2.86
  -2   7  -5   42.26    2.95
   2  -7   5   41.04    2.93
  -2   7  -6   21.56    2.14
   2   7   6   26.88    2.19
   2  -7   6   27.55    2.26
   2   8  -5   39.30    3.04
  -2  -8   5   42.27    3.03
   2  -8  -5   43.33    3.04
   2   8  -4    1.58    0.72
   2  -8  -4    1.25    0.71
  -2  -8   4    1.01    0.56
  -2   8   3   75.03    5.70
   2   8  -3   88.13    5.27
   2  -8  -3   92.40    5.17
  -2  -8   3   87.05    5.27
   2   8  -2   19.30    1.80
  -2   8   2   18.38    2.02
  -2  -8   2   18.98    1.69
   2  -8  -2   20.44    1.75
  -2   8   1   77.13    4.80
   2   8  -1   72.49    4.64
   2  -8  -1   75.92    4.44
  -2  -8   1   75.30    4.61
   2   8   0    1.54    0.59
  -2   8   0    2.09    0.71
  -2  -8   0    2.33    0.59
  -2   8  -1   40.32    2.76
   2   8   1   34.74    2.69
   2   8   1   37.09    2.44
  -2  -8  -1   37.15    2.55
  -2   8  -2    7.47    1.22
   2   8   2    8.27    1.12
   2  -8   2    6.80    0.97
  -2   8  -3    0.89    0.65
   2   8   3    0.05    0.56
   2  -8   3    0.62    0.51
  -2   8  -4    2.94    0.83
   2   8   4    3.40    0.82
   2  -8   4    3.75    0.81
   2   8   5    2.97    0.80
  -2   8  -5    1.40    0.76
   2  -8   5    1.97    0.69
   2   9  -4    2.61    0.79
   2  -9  -4    3.50    0.94
  -2  -9   4    3.47    0.78
   2   9  -3    1.09    0.68
   2  -9  -3    0.13    0.62
  -2  -9   3    0.32    0.59
   2   9  -2    9.73    1.40
  -2   9   2   11.35    1.62
   2  -9  -2    7.11    1.25
  -2  -9   2    7.56    1.15
   2   9  -1    8.12    1.31
  -2   9   1    7.74    1.25
  -2  -9   1    7.25    1.13
   2   9   0   57.34    3.82
  -2   9   0   56.23    3.88
  -2   9  -1   10.66    1.49
  -2   9  -2   74.09    4.71
  -2   9  -3   -0.20    0.59
   2   9   4   71.13    4.29
  -2   9  -4   67.80    4.55
   2  -9   4   69.49    4.50
   2  10  -2   16.08    1.67
   2  10  -1   10.72    1.47
  -2  10   1    8.37    1.42
  -2  10   0   18.46    1.88
  -2  10  -1   17.96    1.87
  -2  10  -2   13.07    1.58
  -3   0   8   86.46    5.27
   3   0  -8   85.68    5.19
  -3   0   7    0.29    0.36
   3   0  -7    0.65    0.45
   3   0  -6  120.53    6.31
   3   0  -6  117.19    6.60
  -3   0   6  110.80    6.64
   3   0  -5   -0.06    0.23
  -3   0   5    0.30    0.34
  -3   0   5    0.06    0.26
  -3   0   4  280.13   16.02
   3   0  -4  308.55   15.27
  -3   0   4  295.80   15.90
  -3   0   3   -0.01    0.16
  -3   0   3    0.13    0.23
   3   0  -3   -0.02    0.15
  -3   0   2  133.22    6.89
  -3   0   2  115.31    6.85
   3   0  -2  129.24    6.56
  -3   0   1    0.05    0.20
   3   0  -1   -0.19    0.17
  -3   0   1   -0.24    0.10
  -3   0   0  129.17    7.03
  -3   0   0  122.19    6.85
  -3   0  -1   -0.29    0.16
   3   0   1   -0.18    0.17
  -3   0  -1   -0.34    0.08
   3   0   2  147.77    7.51
  -3   0  -2  137.90    7.65
   3   0   2  143.35    7.88
   3   0   3   -0.01    0.21
   3   0   3   -0.28    0.22
  -3   0  -3    0.05    0.14
   3   0   4   41.51    2.60
   3   0   4   40.73    2.39
  -3   0  -4   41.64    2.40
   3   0   5   -0.01    0.36
   3   0   5   -0.08    0.30
  -3   0  -5   -0.41    0.21
   3   0   6   13.20    1.14
   3   0   6   14.66    1.40
   3   0   7   -0.70    0.43
   3   1  -9    2.73    0.68
  -3  -1   9    2.29    0.75
   3   1  -8    0.58    0.46
  -3  -1   8    0.11    0.47
   3  -1  -8    0.31    0.47
  -3   1   7    0.85    0.45
   3   1  -7    0.67    0.46
  -3  -1   7    1.00    0.51
   3   1  -6   11.21    1.24
  -3   1   6   11.34    1.22
  -3   1   6   12.11    1.14
  -3  -1   6   12.53    1.21
   3  -1  -6   12.29    1.06
   3   1  -5   19.82    1.21
  -3   1   5   19.14    1.40
  -3   1   5   19.35    1.52
   3   1  -5   20.97    1.52
  -3  -1   5   20.72    1.49
   3  -1  -5   19.08    1.35
  -3   1   4    4.94    0.55
   3   1  -4    5.03    0.43
   3   1  -4    4.14    0.67
  -3   1   4    5.40    0.73
   3  -1  -4    4.23    0.55
  -3  -1   4    4.04    0.61
  -3   1   3   70.13    3.95
  -3   1   3   74.87    4.10
   3   1  -3   74.54    3.73
  -3  -1   3   67.79    4.01
   3  -1  -3   66.91    3.81
  -3   1   2  250.31   15.03
  -3   1   2  274.45   15.08
   3   1  -2  307.89   14.40
   3  -1  -2  269.46   14.44
  -3  -1   2  285.26   14.96
  -3  -1   2  289.89   15.14
  -3   1   1  159.91    9.16
  -3  -1   1  167.34    9.06
   3  -1  -1  167.39    8.66
  -3  -1   1  171.08    8.93
  -3   1   0   77.67    4.46
   3   1   0   80.56    4.31
   3  -1   0   83.60    4.34
  -3  -1   0   84.58    4.60
   3   1   1  504.42   23.12
  -3   1  -1  485.16   23.83
  -3  -1  -1  406.04   24.43
   3  -1   1  386.84   23.18
   3  -1   1  461.30   24.18
   3   1   2  225.84   11.54
  -3   1  -2  222.23   11.87
   3  -1   2  215.53   12.08
  -3  -1  -2  231.62   12.20
   3  -1   2  215.09   11.54
   3   1   3  264.74   14.84
  -3   1  -3  286.59   15.29
  -3  -1  -3  277.49   15.20
   3  -1   3  302.60   15.61
  -3  -1  -3  304.19   15.66
   3  -1   3  281.43   14.81
   3   1   4   13.13    1.05
  -3   1  -4   13.87    1.00
   3  -1   4   13.92    1.15
  -3  -1  -4   12.53    0.90
   3  -1   4   12.65    0.95
  -3  -1  -4   14.42    1.20
   3   1   5   26.58    1.81
  -3   1  -5   27.46    1.79
  -3  -1  -5   29.84    2.05
   3  -1   5   26.60    1.96
   3  -1   5   26.75    1.71
   3   1   6   28.95    1.95
  -3   1  -6   27.64    1.92
  -3  -1  -6   30.75    2.24
   3  -1   6   28.24    2.15
   3   1   7    0.45    0.43
  -3  -1  -7    0.99    0.63
   3  -1   7    0.22    0.49
   3  -1   8    1.31    0.63
  -3  -1  -8    2.09    0.70
   3   2  -9   22.78    1.97
  -3  -2   9   22.70    2.00
   3   2  -8   11.46    1.42
  -3  -2   8   11.86    1.46
   3   2  -7   82.90    5.02
  -3   2   7   80.04    4.99
   3  -2  -7   87.25    4.82
  -3  -2   7   84.70    5.12
   3   2  -6   34.00    2.39
  -3   2   6   33.99    2.35
  -3   2   6   36.34    2.43
   3  -2  -6   35.37    2.27
  -3  -2   6   36.22    2.44
  -3   2   5   85.30    4.89
   3   2  -5   82.47    4.88
  -3   2   5   86.17    4.97
  -3  -2   5   84.26    4.95
   3  -2  -5   84.21    4.68
   3   2  -4   31.42    2.08
  -3   2   4   35.11    2.21
  -3   2   4   32.72    2.01
  -3  -2   4   32.08    2.09
   3  -2  -4   30.80    1.96
   3   2  -3  192.79   10.36
  -3   2   3  188.58   10.55
   3  -2  -3  185.94    9.99
  -3  -2   3  196.50   10.50
   3   2  -2  102.32    5.33
  -3   2   2   83.43    5.56
  -3  -2   2  103.26    5.41
   3  -2  -2   96.83    5.15
  -3   2   1   61.99    3.40
   3   2  -1   53.90    2.98
   3   2  -1   56.14    3.15
  -3  -2   1   54.43    3.22
   3  -2  -1   57.14    3.09
   3   2   0    0.60    0.18
  -3   2   0    0.59    0.22
   3   2   0    0.69    0.18
   3  -2   0    0.48    0.21
  -3  -2   0    0.35    0.23
   3  -2   0    0.61    0.13
  -3   2  -1    2.40    0.39
   3   2   1    2.06    0.38
   3  -2   1    2.20    0.35
   3  -2   1    2.80    0.49
  -3  -2  -1    1.55    0.44
  -3   2  -2   23.90    1.37
   3  -2   2   19.04    1.32
  -3  -2  -2   19.26    1.70
   3   2   3    8.88    0.85
  -3   2  -3    9.21    0.79
   3  -2   3    9.60    0.74
  -3  -2  -3    9.81    1.10
   3  -2   3    8.93    0.85
  -3   2  -4    3.62    0.59
   3   2   4    3.54    0.57
   3  -2   4    2.59    0.46
   3  -2   4    2.70    0.55
  -3  -2  -4    2.85    0.62
   3   2   5  124.25    6.91
  -3   2  -5  128.43    7.08
  -3  -2  -5  133.95    7.44
   3  -2   5  122.28    7.27
   3   2   6    5.63    0.96
  -3   2  -6    7.37    0.90
   3  -2   6    5.05    0.87
  -3  -2  -6    6.81    1.17
   3   2   7   26.25    1.91
  -3  -2  -7   26.83    2.20
   3  -2   7   24.06    2.10
  -3  -2  -8    3.08    0.82
   3  -2   8    1.64    0.70
   3   3  -8   -0.13    0.52
   3  -3  -8    0.33    0.52
  -3  -3   8   -0.27    0.53
  -3   3   7   -0.35    0.38
   3   3  -7    0.09    0.50
  -3  -3   7   -0.65    0.42
   3  -3  -7    0.13    0.47
  -3   3   6   12.49    1.23
   3   3  -6   11.02    1.23
   3  -3  -6    7.84    1.09
  -3  -3   6   10.21    1.23
  -3   3   5    1.97    0.58
   3   3  -5    1.31    0.50
   3  -3  -5    1.67    0.53
  -3  -3   5    1.62    0.53
  -3   3   4   97.09    5.90
   3   3  -4  103.23    5.75
  -3  -3   4  103.76    5.83
   3  -3  -4  101.58    5.54
   3   3  -3   21.02    1.39
  -3  -3   3   20.13    1.38
   3  -3  -3   16.43    1.25
   3  -3  -3   18.14    1.29
   3   3  -2  243.62   12.70
  -3   3   2  211.51   13.11
  -3  -3   2  246.79   12.90
   3  -3  -2  239.17   12.30
   3   3  -1   12.96    0.96
  -3   3   1   14.93    1.16
   3   3  -1   13.39    0.84
  -3  -3   1   13.40    1.00
   3  -3  -1   13.04    0.96
  -3   3   0  768.18   41.09
   3   3   0  819.96   39.71
   3   3   0  816.13   41.01
  -3  -3   0  784.93   41.70
   3  -3   0  735.64   39.72
   3  -3   0  717.10   41.53
   3   3   1    1.25    0.27
  -3   3  -1    1.20    0.33
   3   3   1    1.37    0.33
   3  -3   1    1.47    0.32
   3  -3   1    0.98    0.26
  -3  -3  -1    1.35    0.43
  -3   3  -2  206.48   10.93
   3   3   2  187.36   10.92
   3   3   2  209.05   10.59
   3  -3   2  197.32   10.71
   3  -3   2  207.48   11.05
  -3   3  -3    1.96    0.43
   3   3   3    0.84    0.39
   3  -3   3    1.15    0.29
  -3  -3  -3    1.50    0.59
   3  -3   3    1.27    0.38
  -3   3  -4  131.39    7.05
   3   3   4  127.06    6.87
   3  -3   4  124.02    7.18
  -3  -3  -4  122.86    7.66
  -3   3  -5   17.51    1.46
   3   3   5   18.81    1.51
   3  -3   5   17.85    1.59
  -3  -3  -5   20.95    1.99
   3   3   6   50.10    3.17
  -3   3  -6   51.18    3.20
  -3  -3  -6   54.00    3.74
   3  -3   6   48.96    3.35
  -3   3  -7    3.55    0.67
   3   3   7    4.00    0.79
  -3  -3  -7    3.73    0.92
   3  -3   7    2.82    0.77
   3   3   8   12.53    1.31
  -3  -3  -8   13.11    1.78
   3  -3   8   13.09    1.63
   3   4  -8   10.41    1.43
   3  -4  -8   13.84    1.49
  -3  -4   8   11.39    1.54
   3   4  -7   42.18    2.86
   3  -4  -7   38.42    2.75
  -3  -4   7   40.21    2.90
  -3   4   6   47.87    3.16
   3   4  -6   45.50    3.11
   3  -4  -6   49.52    3.04
  -3  -4   6   46.23    3.17
  -3   4   5   68.58    4.45
   3   4  -5   71.77    4.34
   3  -4  -5   71.38    4.19
  -3  -4   5   77.11    4.43
   3   4  -4   29.79    1.93
  -3   4   4   21.56    2.00
  -3  -4   4   27.12    1.91
   3  -4  -4   26.48    1.82
   3   4  -3   48.00    2.77
  -3   4   3   36.77    3.11
  -3  -4   3   46.82    2.79
   3  -4  -3   44.07    2.65
   3  -4  -3   44.54    2.55
  -3   4   2   12.54    1.31
   3   4  -2   12.06    1.00
   3  -4  -2   10.75    0.96
  -3  -4   2    9.91    0.97
  -3   4   1   80.16    4.49
   3   4  -1   80.62    4.34
   3   4  -1   76.37    4.08
   3  -4  -1   72.71    4.22
  -3  -4   1   74.43    4.40
   3  -4  -1   75.77    4.20
   3   4   0   39.02    2.31
   3   4   0   44.91    2.46
  -3   4   0   40.27    2.52
  -3  -4   0   41.57    2.53
   3  -4   0   39.19    2.35
   3  -4   0   41.13    2.37
  -3   4  -1    9.89    0.91
   3   4   1    9.08    0.81
   3   4   1    9.39    0.80
  -3  -4  -1    9.33    0.97
   3  -4   1    9.06    0.77
   3  -4   1    8.58    0.75
   3   4   2    7.48    0.84
   3   4   2    7.89    0.75
  -3   4  -2    8.56    0.90
   3  -4   2    9.10    0.82
   3  -4   2    9.29    0.83
  -3  -4  -2    9.03    1.05
   3   4   3   37.49    2.25
  -3   4  -3   35.51    2.31
  -3  -4  -3   30.17    2.55
   3  -4   3   38.32    2.32
  -3   4  -4    2.86    0.61
   3   4   4    2.84    0.62
   3  -4   4    3.59    0.64
  -3  -4  -4    4.14    0.92
  -3   4  -5   67.33    4.10
   3   4   5   72.59    4.06
  -3  -4  -5   64.71    4.69
   3  -4   5   67.57    4.23
  -3   4  -6   17.02    1.50
   3   4   6   15.44    1.53
   3  -4   6   17.54    1.65
  -3  -4  -6   13.90    1.80
   3   4   7   18.36    1.66
  -3   4  -7   19.22    1.63
  -3  -4  -7   16.34    1.95
   3  -4   7   17.53    1.79
   3   4   8   25.74    2.01
  -3  -5   8   -0.17    0.50
   3  -5  -8   -0.74    0.52
   3   5  -7    1.69    0.73
   3  -5  -7    0.48    0.69
  -3  -5   7    0.54    0.55
   3   5  -6    2.44    0.74
  -3   5   6    2.25    0.58
  -3  -5   6    1.99    0.69
   3  -5  -6    2.20    0.71
   3   5  -5   30.07    2.25
  -3   5   5   31.34    2.42
  -3  -5   5   29.90    2.24
   3  -5  -5   29.52    2.15
   3   5  -4    3.71    0.69
  -3   5   4    2.34    0.68
  -3  -5   4    3.47    0.67
   3  -5  -4    4.16    0.74
  -3   5   3   81.82    5.99
   3   5  -3  100.84    5.47
  -3  -5   3   99.47    5.53
   3  -5  -3   94.31    5.27
   3   5  -2   75.52    4.37
  -3   5   2   79.93    4.76
  -3  -5   2   73.56    4.42
   3  -5  -2   72.10    4.23
   3   5  -1  190.59    9.26
   3   5  -1  178.01    9.70
  -3   5   1  184.81    9.87
   3  -5  -1  178.39    9.38
  -3  -5   1  163.93    9.81
   3  -5  -1  165.99    9.64
  -3   5   0   43.80    2.83
   3   5   0   47.43    2.77
   3   5   0   47.18    2.61
   3  -5   0   42.13    2.63
   3  -5   0   47.36    2.66
  -3  -5   0   43.84    2.80
   3   5   1  178.67    9.28
   3   5   1  175.56    9.63
  -3   5  -1  170.61    9.66
  -3  -5  -1  181.79    9.82
   3  -5   1  178.42    9.24
   3  -5   1  167.16    9.63
  -3   5  -2   32.37    2.16
   3   5   2   32.59    2.06
  -3  -5  -2   32.93    2.28
   3  -5   2   28.98    1.90
   3  -5   2   31.36    2.05
   3   5   3  155.31    8.31
  -3   5  -3  158.11    8.61
  -3  -5  -3  145.77    8.86
   3  -5   3  156.51    8.66
  -3   5  -4    3.39    0.71
   3   5   4    3.85    0.75
  -3  -5  -4    2.02    0.69
   3  -5   4    3.75    0.67
   3   5   5   75.51    4.69
  -3   5  -5   84.84    4.87
   3  -5   5   83.54    4.94
  -3  -5  -5   77.26    5.27
  -3   5  -6    6.64    1.19
   3   5   6    7.28    1.22
   3  -5   6    8.22    1.31
  -3  -5  -6    6.59    1.37
   3   5   7   14.25    1.54
  -3   5  -7   15.32    1.56
   3  -5   7   15.27    1.68
   3   6  -7    1.39    0.68
   3  -6  -7    3.14    0.88
  -3  -6   7    1.37    0.69
   3   6  -6   50.45    3.48
   3  -6  -6   54.03    3.47
  -3  -6   6   52.46    3.55
  -3   6   5    4.72    0.88
   3   6  -5    2.44    0.73
   3  -6  -5    3.25    0.80
  -3  -6   5    3.11    0.74
   3   6  -4   83.11    4.88
   3  -6  -4   78.80    4.73
  -3  -6   4   81.34    4.93
   3   6  -3    8.93    1.13
   3  -6  -3    8.09    1.16
  -3  -6   3    8.78    1.11
   3   6  -2   40.33    2.65
  -3   6   2   42.35    3.00
  -3  -6   2   37.90    2.62
   3  -6  -2   39.05    2.55
   3   6  -1    2.35    0.42
  -3   6   1    0.81    0.52
   3   6  -1    2.13    0.55
   3  -6  -1    1.32    0.52
  -3  -6   1    1.69    0.50
   3   6   0    6.28    0.75
   3   6   0    5.97    0.92
  -3   6   0    6.24    1.00
   3  -6   0    6.50    0.88
  -3  -6   0    6.08    0.87
   3  -6   0    5.39    0.66
   3   6   1    5.79    0.83
   3   6   1    5.32    0.83
  -3   6  -1    5.35    0.95
  -3  -6  -1    5.88    0.90
   3  -6   1    5.22    0.70
   3  -6   1    7.23    0.76
   3   6   2    1.72    0.55
  -3   6  -2    1.46    0.58
  -3  -6  -2    1.17    0.48
   3  -6   2    1.27    0.42
   3   6   3   23.59    1.82
  -3   6  -3   23.98    1.90
  -3  -6  -3   27.89    2.02
   3  -6   3   21.42    1.78
   3   6   4   14.22    1.47
  -3   6  -4   13.69    1.44
   3  -6   4   12.63    1.40
  -3  -6  -4   15.55    1.56
   3   6   5    0.15    0.58
  -3   6  -5    1.38    0.64
  -3  -6  -5    0.03    0.50
   3  -6   5    0.61    0.56
   3   6   6   23.63    2.01
  -3   6  -6   23.83    2.03
   3  -6   6   23.33    2.10
   3   6   7    1.13    0.71
  -3   6  -7    0.37    0.53
   3  -6   7    0.90    0.66
   3   7  -6    2.49    0.76
   3  -7  -6    2.42    0.86
  -3  -7   6    1.43    0.67
  -3  -7   5    9.14    1.28
   3  -7  -5    8.52    1.43
  -3   7   4    3.35    1.02
   3   7  -4    5.48    0.93
  -3  -7   4    6.66    1.17
   3  -7  -4    6.05    1.03
  -3   7   3   25.28    2.45
   3   7  -3   23.51    2.00
   3  -7  -3   23.59    1.94
  -3  -7   3   25.42    1.97
  -3   7   2   35.87    2.77
   3   7  -2   32.95    2.40
   3  -7  -2   36.13    2.33
  -3  -7   2   28.99    2.34
  -3   7   1   35.63    2.73
   3   7  -1   40.69    2.68
  -3  -7   1   36.00    2.60
   3  -7  -1   41.55    2.55
   3   7   0   24.25    1.92
   3   7   0   24.00    1.69
  -3   7   0   23.70    1.97
   3  -7   0   25.32    1.76
  -3  -7   0   23.31    1.84
   3   7   1   73.32    4.68
  -3   7  -1   78.19    4.72
   3   7   1   79.50    4.44
   3  -7   1   77.30    4.57
  -3  -7  -1   80.21    4.69
  -3   7  -2   64.42    4.17
   3   7   2   68.57    3.98
  -3  -7  -2   70.45    4.20
   3  -7   2   66.16    4.06
  -3   7  -3   67.80    4.17
   3   7   3   62.41    3.95
  -3  -7  -3   66.48    4.17
   3  -7   3   68.24    4.09
  -3   7  -4   22.16    2.03
   3   7   4   25.72    1.99
   3  -7   4   22.38    1.89
  -3   7  -5   18.26    1.79
   3   7   5   17.64    1.77
   3  -7   5   18.08    1.74
   3   7   6   16.36    1.79
  -3   7  -6   17.76    1.73
   3  -7   6   17.65    1.85
   3   8  -5   41.23    3.07
   3  -8  -5   42.76    3.08
  -3  -8   5   43.22    3.04
  -3   8   4   -0.98    0.73
   3   8  -4    1.44    0.70
   3  -8  -4    1.05    0.68
  -3  -8   4    0.60    0.56
   3   8  -3   38.06    2.82
  -3   8   3   43.64    3.44
  -3  -8   3   39.49    2.80
   3  -8  -3   39.30    2.78
   3   8  -2    5.35    1.01
  -3   8   2    9.04    1.50
   3  -8  -2    8.62    1.22
  -3  -8   2    6.45    1.11
   3   8  -1    3.97    0.85
  -3   8   1    4.65    0.94
  -3  -8   1    4.38    0.80
   3  -8  -1    4.73    0.88
  -3   8   0    3.54    0.84
   3   8   0    4.36    0.81
  -3  -8   0    5.65    0.98
   3   8   1    1.72    0.57
  -3   8  -1    1.62    0.65
  -3  -8  -1    1.44    0.53
  -3   8  -2    1.00    0.59
   3   8   2    0.66    0.55
  -3  -8  -2    0.70    0.44
   3   8   3    0.46    0.59
  -3   8  -3    0.59    0.59
   3  -8   3    0.15    0.43
   3   8   4    0.75    0.63
  -3   8  -4    0.39    0.59
   3  -8   4    1.25    0.57
   3   8   5    5.35    1.03
  -3   8  -5    4.11    0.97
   3  -8   5    6.36    1.10
   3   9  -4   16.51    1.78
  -3  -9   4   17.08    1.71
   3  -9  -4   17.36    1.80
   3   9  -3    8.41    1.37
  -3  -9   3    7.55    1.29
   3  -9  -3    9.41    1.37
   3   9  -2   27.68    2.30
  -3   9   2   29.69    2.62
  -3  -9   2   25.04    2.16
   3  -9  -2   28.63    2.23
   3   9  -1   13.86    1.54
  -3   9   1   14.16    1.60
  -3  -9   1   12.21    1.47
  -3   9   0   52.60    3.72
  -3  -9   0   55.37    3.56
  -3   9  -1    2.19    0.77
   3   9   2   28.29    2.06
  -3   9  -2   27.21    2.31
   3   9   3    1.47    0.64
  -3   9  -3    2.33    0.77
   3   9   4   41.84    2.88
   3  10  -2   12.32    1.50
  -3  10   2   12.13    1.74
  -3 -10   2   11.46    1.35
  -3  10   1    5.14    0.98
  -3  10   0    2.34    0.80
  -3  10  -1    0.49    0.67
   4   0  -9   -0.16    0.45
  -4   0   8   39.89    2.82
   4   0  -8   36.18    2.70
  -4   0   7   -0.19    0.33
   4   0  -7    0.12    0.43
  -4   0   6   58.73    3.83
  -4   0   6   69.18    3.98
  -4   0   5    0.05    0.24
   4   0  -5   -0.04    0.21
  -4   0   5   -0.25    0.34
   4   0  -4   44.18    2.62
  -4   0   4   49.38    2.91
  -4   0   4   48.22    2.79
   4   0  -3   -0.24    0.17
  -4   0   3   -0.15    0.27
  -4   0   3   -0.06    0.15
   4   0  -2   28.95    1.69
  -4   0   2   27.41    1.72
  -4   0   2   31.79    1.88
  -4   0   1   -0.08    0.12
   4   0  -1    0.00    0.21
  -4   0   1   -0.13    0.19
  -4   0   0  173.37    9.45
  -4   0   0  167.53    9.21
  -4   0  -1   -0.12    0.10
   4   0   1    0.04    0.20
  -4   0  -1    0.04    0.19
  -4   0  -2   32.92    2.09
   4   0   2   35.27    2.02
  -4   0  -2   34.39    1.91
   4   0   3   -0.04    0.24
  -4   0  -3   -0.02    0.12
   4   0   3    0.36    0.26
   4   0   4  100.30    5.36
  -4   0  -4   99.21    5.41
   4   0   4   97.08    5.69
   4   0   5   -0.15    0.32
   4   0   5   -0.37    0.37
   4   0   6  195.87   10.40
  -4   0  -8   69.02    4.56
   4   1  -9    0.42    0.50
   4  -1  -9    0.10    0.49
   4   1  -8    3.58    0.82
  -4  -1   8    2.08    0.64
   4  -1  -8    2.49    0.69
  -4   1   7   16.58    1.54
   4   1  -7   14.28    1.51
  -4  -1   7   14.92    1.47
   4   1  -6   15.31    1.48
  -4   1   6   17.33    1.54
  -4   1   6   16.22    1.33
   4  -1  -6   17.01    1.28
  -4  -1   6   16.22    1.41
   4   1  -5  113.18    6.16
  -4   1   5  114.21    6.56
  -4   1   5  126.21    6.71
   4   1  -5  118.04    6.60
   4  -1  -5  116.69    6.28
  -4  -1   5  113.43    6.61
  -4   1   4   23.25    1.57
   4   1  -4   27.05    1.46
  -4   1   4   26.30    1.82
   4  -1  -4   23.65    1.54
  -4  -1   4   25.31    1.66
  -4   1   3  160.69    9.43
   4   1  -3  191.49    9.03
  -4   1   3  174.39    9.57
   4  -1  -3  176.89    9.09
  -4  -1   3  153.85    9.50
  -4  -1   3  185.07    9.48
   4   1  -2  301.39   14.97
  -4  -1   2  290.27   15.67
   4  -1  -2  277.83   14.95
  -4  -1   2  287.27   15.48
  -4   1   1  413.80   20.98
   4   1  -1  342.00   20.10
  -4  -1   1  402.45   20.72
   4  -1  -1  391.77   20.09
  -4  -1   1  397.58   21.02
   4   1   0   22.81    1.34
  -4   1   0   22.82    1.40
  -4   1   0   21.04    1.31
   4  -1   0   23.71    1.40
  -4  -1   0   21.99    1.25
  -4  -1   0   19.04    1.46
   4   1   1  525.44   26.84
  -4   1  -1  536.95   27.66
   4  -1   1  546.78   26.99
  -4  -1  -1  471.73   28.36
   4  -1   1  525.23   28.07
   4   1   2  107.00    5.36
  -4   1  -2   99.92    5.43
  -4  -1  -2  103.93    5.74
   4  -1   2   93.22    5.55
   4  -1   2   94.67    5.36
  -4   1  -3  230.79   12.86
   4   1   3  240.00   12.55
   4  -1   3  232.00   13.15
   4  -1   3  258.81   12.55
  -4  -1  -3  239.81   13.25
   4   1   4   18.90    1.29
  -4   1  -4   17.16    1.19
   4  -1   4   17.44    1.39
  -4  -1  -4   17.47    1.44
   4  -1   4   16.71    1.21
  -4  -1  -4   17.15    1.08
  -4   1  -5   11.32    0.99
   4   1   5   13.90    1.17
   4  -1   5   12.42    1.01
   4  -1   5   13.31    1.28
  -4  -1  -5   12.48    1.35
   4   1   6    8.05    0.98
   4  -1   6    7.28    1.16
  -4  -1  -6    9.72    1.32
   4   1   7   -0.06    0.40
   4  -1   7   -0.33    0.48
  -4  -1  -7    0.45    0.55
  -4  -1  -8   -0.11    0.61
   4  -1   8    1.78    0.65
   4   2  -9   27.46    2.18
  -4  -2   9   23.56    2.12
  -4   2   8    2.65    0.75
   4   2  -8    2.49    0.74
  -4  -2   8    2.16    0.74
  -4   2   7   63.70    4.07
   4   2  -7   61.96    4.03
   4  -2  -7   67.92    3.87
  -4  -2   7   64.81    4.08
  -4   2   6    8.49    1.19
   4   2  -6   11.85    1.23
  -4  -2   6    9.99    1.16
   4  -2  -6   10.15    1.09
  -4   2   5   67.04    3.97
   4   2  -5   63.15    3.85
  -4   2   5   62.16    3.75
   4  -2  -5   64.75    3.66
  -4  -2   5   63.16    3.86
   4   2  -4   12.71    1.12
  -4   2   4   12.63    0.91
  -4   2   4   12.99    1.22
  -4  -2   4   11.24    1.04
   4  -2  -4   11.43    1.00
  -4   2   3   26.14    2.01
   4   2  -3   28.87    1.83
  -4  -2   3   28.82    1.81
   4  -2  -3   27.82    1.72
   4   2  -2    0.86    0.29
  -4   2   2    0.62    0.44
   4  -2  -2    0.37    0.27
  -4  -2   2    0.57    0.25
  -4   2   1   -0.18    0.26
   4   2  -1    0.18    0.19
   4   2  -1    0.44    0.19
   4  -2  -1    0.13    0.24
  -4  -2   1    0.40    0.23
   4   2   0    4.46    0.40
  -4   2   0    4.43    0.52
   4   2   0    4.54    0.45
  -4  -2   0    5.49    0.67
   4  -2   0    4.32    0.53
   4  -2   0    3.79    0.35
   4   2   1    0.86    0.28
  -4   2  -1    0.57    0.24
  -4  -2  -1   -0.01    0.36
   4  -2   1    0.81    0.22
   4  -2   1    0.64    0.35
  -4   2  -2   16.13    1.12
   4   2   2   16.07    1.14
  -4  -2  -2   13.87    1.50
   4  -2   2   18.32    1.17
  -4   2  -3  193.14   10.57
   4   2   3  189.18   10.28
  -4  -2  -3  205.69   11.14
   4  -2   3  193.15   10.27
   4  -2   3  196.20   10.77
   4   2   4   10.88    1.05
  -4   2  -4   10.83    0.95
   4  -2   4   10.91    0.88
   4  -2   4   11.51    1.11
  -4  -2  -4   11.11    1.31
   4   2   5   86.92    4.74
  -4   2  -5   82.07    4.77
   4  -2   5   80.22    4.97
  -4  -2  -5   84.94    5.16
   4   2   6   59.41    3.58
  -4   2  -6   56.86    3.57
   4  -2   6   58.41    3.82
  -4  -2  -6   65.33    4.02
   4   2   7   29.88    2.26
  -4  -2  -7   36.84    2.68
   4  -2   7   32.77    2.53
   4  -2   8   17.21    1.72
  -4  -2  -8   14.38    1.72
   4   3  -8   16.33    1.72
  -4  -3   8   16.63    1.74
   4  -3  -8   17.84    1.61
  -4   3   7    0.96    0.56
   4   3  -7    0.86    0.62
   4  -3  -7    1.98    0.64
  -4  -3   7    0.56    0.53
  -4   3   6   19.15    1.65
   4   3  -6   16.68    1.58
  -4  -3   6   16.80    1.58
   4  -3  -6   17.34    1.50
   4   3  -5    2.06    0.56
  -4   3   5    2.30    0.60
  -4  -3   5    2.01    0.52
   4  -3  -5    1.30    0.51
  -4   3   4  192.87   11.77
   4   3  -4  219.08   11.59
  -4  -3   4  228.19   11.76
   4  -3  -4  206.13   11.17
   4   3  -3    0.32    0.30
  -4   3   3    0.33    0.37
  -4  -3   3    0.08    0.28
   4  -3  -3    0.08    0.29
  -4   3   2  227.68   13.09
   4   3  -2  235.16   12.59
  -4  -3   2  239.01   12.79
   4  -3  -2  230.15   12.19
   4   3  -1    8.73    0.65
  -4   3   1    9.25    0.99
   4   3  -1    9.36    0.78
  -4  -3   1    9.55    0.83
   4  -3  -1    9.05    0.81
   4   3   0  345.05   18.28
   4   3   0  360.79   18.87
  -4   3   0  340.54   18.98
   4  -3   0  346.12   19.08
   4  -3   0  348.35   18.34
  -4  -3   0  384.08   19.33
   4   3   1    4.95    0.59
   4   3   1    5.04    0.48
  -4   3  -1    5.41    0.63
   4  -3   1    5.26    0.53
   4  -3   1    5.08    0.62
  -4  -3  -1    5.29    0.82
   4   3   2   85.09    4.76
  -4   3  -2   85.56    4.90
   4  -3   2   88.41    4.94
  -4  -3  -2   86.36    5.31
   4  -3   2   91.01    4.95
  -4   3  -3    1.27    0.39
   4   3   3    1.17    0.43
   4  -3   3    1.66    0.37
  -4  -3  -3    1.03    0.58
   4  -3   3    1.46    0.42
   4   3   4  122.15    6.55
  -4   3  -4  123.59    6.71
   4  -3   4  127.77    6.87
  -4  -3  -4  103.59    7.27
  -4   3  -5    0.31    0.37
   4   3   5    0.27    0.46
   4  -3   5   -0.24    0.38
  -4  -3  -5   -0.61    0.57
   4   3   6   10.41    1.28
  -4   3  -6   11.74    1.19
   4  -3   6   13.20    1.46
  -4  -3  -6   12.99    1.73
   4   3   7    1.82    0.61
  -4  -3  -7    2.53    0.87
   4  -3   7    0.49    0.61
   4   3   8    1.50    0.63
   4  -3   8    2.08    0.75
  -4  -3  -8    2.13    0.78
   4   4  -8   14.34    1.64
   4  -4  -8   15.61    1.62
  -4  -4   8   14.89    1.63
   4   4  -7   41.57    2.89
  -4   4   7   40.10    2.85
  -4  -4   7   41.21    2.92
   4  -4  -7   39.82    2.81
  -4   4   6   40.45    2.72
   4   4  -6   35.37    2.56
  -4  -4   6   34.54    2.57
   4  -4  -6   35.30    2.49
   4   4  -5   47.71    3.06
  -4   4   5   49.50    3.27
  -4  -4   5   47.85    3.07
   4  -4  -5   44.26    2.93
   4   4  -4   10.36    1.07
  -4   4   4    6.31    1.11
   4  -4  -4    8.73    1.00
  -4  -4   4    8.14    1.02
   4   4  -3    9.68    1.04
  -4   4   3   11.84    1.48
  -4  -4   3   11.19    1.06
   4  -4  -3   11.28    1.04
  -4   4   2   11.69    1.38
   4   4  -2   10.76    1.02
   4  -4  -2   12.52    1.03
  -4  -4   2   12.22    1.05
   4   4  -1   13.10    1.04
  -4   4   1   13.75    1.25
   4   4  -1   12.77    0.89
  -4  -4   1   13.43    1.10
   4  -4  -1   14.25    1.09
   4   4   0    9.34    0.82
   4   4   0    9.47    0.77
  -4   4   0    9.79    0.96
  -4  -4   0   10.13    0.96
   4  -4   0    8.39    0.68
   4  -4   0    9.70    0.85
  -4   4  -1    6.39    0.78
   4   4   1    5.84    0.70
   4   4   1    6.98    0.65
  -4  -4  -1    7.05    0.97
   4  -4   1    7.26    0.71
   4  -4   1    5.48    0.60
   4   4   2   54.57    3.01
  -4   4  -2   53.39    3.12
   4  -4   2   51.39    3.10
  -4  -4  -2   44.17    3.31
   4  -4   2   53.71    3.08
  -4   4  -3   67.39    3.92
   4   4   3   68.54    3.83
   4  -4   3   65.84    3.93
  -4  -4  -3   62.91    4.29
  -4   4  -4    5.48    0.90
   4   4   4    3.85    0.70
   4  -4   4    3.09    0.65
  -4  -4  -4    5.35    1.11
   4   4   5   65.05    4.05
  -4   4  -5   69.43    4.14
   4  -4   5   70.60    4.26
  -4  -4  -5   68.26    4.78
   4   4   6   34.69    2.58
  -4   4  -6   39.39    2.62
   4  -4   6   39.46    2.75
  -4  -4  -6   38.34    3.15
  -4   4  -7   19.34    1.84
   4   4   7   23.60    1.88
  -4  -4  -7   20.57    2.23
   4  -4   7   21.47    1.99
   4   4   8    2.92    0.70
  -4  -4  -8    2.10    0.88
   4   5  -8   -0.44    0.58
   4  -5  -8    1.42    0.64
  -4  -5   8    0.23    0.53
   4   5  -7   14.08    1.69
   4  -5  -7   16.17    1.71
  -4  -5   7   16.55    1.66
  -4   5   6    9.76    1.24
   4   5  -6    7.54    1.27
  -4  -5   6    6.42    1.16
   4  -5  -6    6.56    1.08
   4   5  -5   71.49    4.30
  -4   5   5   65.64    4.53
  -4  -5   5   70.21    4.31
   4  -5  -5   70.05    4.15
   4   5  -4    1.53    0.59
  -4   5   4    1.28    0.64
  -4  -5   4    0.81    0.48
   4  -5  -4    1.52    0.57
  -4   5   3  119.39    7.71
   4   5  -3  129.59    7.03
  -4  -5   3  126.43    7.12
   4  -5  -3  120.89    6.78
   4   5  -2   39.34    2.51
  -4   5   2   37.97    2.89
   4  -5  -2   39.91    2.46
  -4  -5   2   40.05    2.58
   4   5  -1  191.54   10.57
   4   5  -1  194.19   10.11
  -4   5   1  202.65   10.79
  -4  -5   1  187.38   10.76
   4  -5  -1  192.52   10.26
  -4   5   0    0.04    0.39
   4   5   0    0.54    0.33
   4   5   0    0.26    0.29
  -4  -5   0    0.21    0.36
   4  -5   0    0.39    0.21
   4  -5   0    0.60    0.39
   4   5   1  164.98    8.54
  -4   5  -1  159.70    8.91
   4   5   1  160.11    8.83
  -4  -5  -1  172.63    9.14
   4  -5   1  157.66    8.52
   4  -5   1  149.13    8.83
   4   5   2   15.97    1.30
  -4   5  -2   16.12    1.39
   4  -5   2   15.29    1.24
  -4  -5  -2   17.60    1.60
   4  -5   2   15.69    1.23
  -4   5  -3   56.56    3.45
   4   5   3   54.64    3.31
   4  -5   3   54.92    3.39
   4   5   4   13.48    1.34
  -4   5  -4   11.81    1.27
   4  -5   4   12.69    1.30
  -4  -5  -4    9.22    1.45
  -4   5  -5    8.50    1.19
   4   5   5    7.26    1.23
  -4  -5  -5    9.46    1.61
   4  -5   5    8.44    1.23
  -4   5  -6    3.31    0.76
   4   5   6    2.82    0.77
   4  -5   6    2.59    0.75
  -4  -5  -6    2.00    0.86
  -4   5  -7    1.68    0.63
   4   5   7    1.70    0.64
   4  -5   7    1.73    0.70
  -4  -5  -7    0.53    0.79
   4   6  -7    0.14    0.68
  -4  -6   7    0.15    0.53
   4  -6  -7    0.87    0.72
   4   6  -6   28.75    2.35
  -4   6   6   30.63    2.40
  -4  -6   6   28.57    2.33
   4  -6  -6   28.88    2.35
  -4   6   5   -0.19    0.45
   4   6  -5    0.21    0.55
   4  -6  -5    0.47    0.59
  -4  -6   5    1.36    0.59
   4   6  -4   34.81    2.39
  -4   6   4   28.29    2.69
   4  -6  -4   31.84    2.32
  -4  -6   4   33.73    2.37
  -4   6   3   -0.16    0.54
   4   6  -3    0.63    0.47
   4  -6  -3    0.21    0.49
  -4  -6   3    0.22    0.41
  -4   6   2    2.62    0.81
   4   6  -2    1.45    0.54
   4  -6  -2    2.03    0.60
  -4  -6   2    2.50    0.60
   4   6  -1    7.97    1.04
  -4   6   1    9.91    1.21
  -4  -6   1    8.11    1.06
   4  -6  -1    9.50    1.09
  -4   6   0   18.56    1.68
   4   6   0   21.66    1.58
   4   6   0   20.80    1.43
   4  -6   0   17.95    1.49
  -4  -6   0   19.40    1.60
   4   6   1    2.64    0.56
  -4   6  -1    2.39    0.61
   4   6   1    2.21    0.50
   4  -6   1    2.56    0.54
  -4  -6  -1    3.20    0.67
   4  -6   1    2.32    0.44
   4   6   2   21.21    1.68
  -4   6  -2   21.48    1.80
  -4  -6  -2   26.75    1.95
   4  -6   2   21.28    1.60
  -4   6  -3    6.28    1.11
   4   6   3    7.40    1.09
  -4  -6  -3    5.71    1.01
   4  -6   3    6.63    0.92
  -4   6  -4   50.09    3.31
   4   6   4   54.32    3.26
   4  -6   4   52.08    3.26
  -4  -6  -4   44.02    3.45
  -4   6  -5    0.44    0.54
   4   6   5    0.99    0.68
  -4  -6  -5    0.15    0.62
   4  -6   5   -0.14    0.50
  -4   6  -6   32.87    2.46
   4   6   6   30.59    2.42
   4  -6   6   32.95    2.52
  -4   6  -7    1.00    0.56
   4   7  -6   16.06    1.73
   4  -7  -6   17.12    1.81
  -4  -7   6   16.19    1.74
   4   7  -5   23.35    2.02
  -4  -7   5   23.80    2.02
   4  -7  -5   22.60    2.01
   4   7  -4   33.42    2.43
  -4   7   4   27.77    2.80
   4  -7  -4   32.23    2.36
  -4  -7   4   32.61    2.42
   4   7  -3   55.85    3.51
  -4   7   3   54.87    4.16
  -4  -7   3   52.92    3.49
   4  -7  -3   51.41    3.36
  -4   7   2  109.52    6.35
   4   7  -2   96.85    5.86
  -4  -7   2   99.37    5.93
   4  -7  -2   95.08    5.66
  -4   7   1   59.38    4.14
   4   7  -1   69.34    4.05
  -4  -7   1   65.31    4.07
   4  -7  -1   66.22    3.89
  -4   7   0   70.45    4.44
   4   7   0   71.31    4.03
   4   7   0   74.93    4.36
   4  -7   0   72.05    4.12
  -4  -7   0   66.83    4.35
  -4   7  -1   60.80    4.02
   4   7   1   64.49    3.75
  -4  -7  -1   67.99    4.06
  -4   7  -2   49.89    3.28
   4   7   2   48.21    3.06
   4  -7   2   46.53    3.05
  -4  -7  -2   53.05    3.34
  -4   7  -3   20.28    1.90
   4   7   3   19.78    1.75
  -4  -7  -3   24.94    1.95
   4  -7   3   22.38    1.72
  -4   7  -4    5.31    0.96
   4   7   4    5.77    0.94
   4  -7   4    3.49    0.75
  -4  -7  -4    5.94    1.04
  -4   7  -5    2.39    0.80
   4   7   5    3.40    0.86
   4  -7   5    3.47    0.82
   4   7   6    0.99    0.71
  -4   7  -6    0.54    0.58
   4  -7   6    1.17    0.61
   4   8  -5   12.81    1.62
  -4  -8   5   12.06    1.48
   4  -8  -5   13.51    1.62
  -4   8   4    0.47    0.75
   4   8  -4    0.67    0.67
   4  -8  -4    1.01    0.66
  -4  -8   4    1.12    0.64
   4   8  -3    2.99    0.79
  -4   8   3    4.91    1.06
  -4  -8   3    3.76    0.80
   4  -8  -3    4.72    0.94
  -4   8   2    1.44    0.83
   4   8  -2    1.68    0.63
   4  -8  -2    0.64    0.66
  -4  -8   2    1.32    0.63
   4   8  -1    2.67    0.70
  -4   8   1    2.77    0.79
  -4  -8   1    1.56    0.64
   4  -8  -1    1.92    0.67
  -4   8   0    0.55    0.59
  -4  -8   0    0.07    0.47
  -4   8  -1   21.73    2.00
   4   8   1   22.95    1.74
  -4  -8  -1   23.89    1.91
   4   8   2    1.42    0.57
  -4   8  -2    0.24    0.57
  -4  -8  -2    0.46    0.44
  -4   8  -3   36.23    2.82
   4   8   3   38.62    2.70
  -4  -8  -3   43.51    2.96
  -4   8  -4    2.02    0.74
   4   8   4    0.79    0.67
   4  -8   4    1.67    0.54
   4   8   5   21.09    2.00
  -4   8  -5   21.53    2.03
   4  -8   5   22.14    1.93
   4   9  -4   40.38    3.01
   4  -9  -4   42.66    2.99
  -4  -9   4   40.53    3.02
   4   9  -3    2.41    0.74
  -4   9   3    0.62    0.81
   4  -9  -3    1.44    0.75
  -4  -9   3    2.87    0.76
  -4   9   2   71.64    4.73
   4   9  -2   61.17    4.21
   4  -9  -2   66.00    4.13
  -4  -9   2   63.58    4.21
  -4  -9   1    5.74    0.98
  -4   9   0   77.35    5.01
  -4  -9   0   79.65    4.90
  -4   9  -1    2.49    0.80
  -4  -9  -1    3.87    0.82
  -4   9  -2   30.55    2.46
   4   9   2   29.85    2.15
  -4   9  -3    1.58    0.65
   4   9   3    1.78    0.62
  -4  10   2    2.60    0.85
  -4 -10   2    1.39    0.61
  -4  10   1   -1.14    0.59
  -4 -10   1   -0.11    0.48
  -4  10   0    0.75    0.57
  -4  10  -1   12.07    1.74
   5   0  -9   -0.04    0.51
   5   0  -8   22.88    1.99
   5   0  -7    0.79    0.52
  -5   0   7    0.02    0.34
  -5   0   6   17.53    1.45
  -5   0   6   19.13    1.65
  -5   0   5   -0.10    0.25
   5   0  -5    0.10    0.26
  -5   0   5    0.05    0.43
  -5   0   4    4.99    0.60
   5   0  -4    5.76    0.59
  -5   0   4    6.21    0.87
  -5   0   3    0.05    0.19
   5   0  -3   -0.01    0.21
  -5   0   3   -0.08    0.30
  -5   0   2    2.08    0.44
  -5   0   2    2.04    0.34
   5   0  -2    2.25    0.37
   5   0  -1    0.10    0.26
  -5   0   1   -0.14    0.20
  -5   0   1   -0.15    0.14
  -5   0   0  342.33   17.55
  -5   0   0  298.27   17.15
   5   0   0  323.08   16.78
  -5   0  -1   -0.16    0.24
   5   0   1    0.14    0.27
  -5   0  -1    0.21    0.14
  -5   0  -2    9.11    0.61
   5   0   2    9.11    0.86
  -5   0  -2    9.75    0.87
  -5   0  -3    0.37    0.17
  -5   0  -3   -0.14    0.29
   5   0   3    0.53    0.32
  -5   0  -4  205.72   11.59
   5   0   4  210.98   10.99
  -5   0  -4  208.33   11.18
  -5   0  -5    0.58    0.49
   5   0   5    0.01    0.33
   5   0   6   67.46    3.95
  -5   0  -6   69.42    4.36
  -5   0  -7   -0.60    0.50
  -5   0  -8   42.98    3.25
   5   1  -9   11.20    1.33
   5  -1  -9    8.90    1.33
   5   1  -8    2.25    0.71
  -5  -1   8    3.04    0.69
  -5   1   7   81.44    4.97
   5   1  -7   82.04    4.95
  -5  -1   7   79.44    4.90
  -5   1   6   48.78    3.21
   5   1  -6   49.85    3.14
  -5   1   6   48.45    3.00
   5  -1  -6   50.19    2.87
  -5  -1   6   44.34    3.05
  -5   1   5   96.29    5.57
  -5   1   5  103.54    5.81
  -5  -1   5   96.13    5.65
   5  -1  -5   98.13    5.35
  -5   1   4   48.88    2.91
   5   1  -4   51.78    2.78
  -5   1   4   51.03    3.19
   5  -1  -4   48.46    2.86
  -5  -1   4   52.58    3.11
  -5  -1   4   50.31    3.01
   5   1  -3  182.87    9.32
  -5   1   3  164.88    9.69
  -5   1   3  173.93    9.88
   5  -1  -3  185.21    9.38
  -5  -1   3  187.54    9.78
  -5  -1   3  177.84    9.81
   5   1  -2  124.74    6.04
  -5   1   2  100.84    6.05
   5  -1  -2  108.52    5.92
  -5  -1   2  112.11    6.15
  -5  -1   2  112.04    6.18
  -5   1   1  226.97   13.16
   5   1  -1  232.42   12.73
  -5   1   1  260.45   13.31
  -5  -1   1  248.76   13.07
   5  -1  -1  246.36   12.69
  -5  -1   1  248.56   13.27
  -5   1   0   53.54    3.24
  -5   1   0   62.16    3.28
   5   1   0   52.03    3.10
   5  -1   0   56.12    3.25
  -5  -1   0   56.58    3.09
  -5   1  -1  104.96    6.26
  -5   1  -1  114.20    6.16
   5   1   1  120.83    6.09
  -5  -1  -1  110.28    6.61
   5  -1   1  117.33    6.22
  -5   1  -2   31.08    1.80
   5   1   2   31.19    1.88
   5  -1   2   28.32    1.91
   5  -1   2   30.42    1.91
  -5  -1  -2   31.86    2.17
  -5   1  -3    6.67    0.64
   5   1   3    7.03    0.78
   5  -1   3    7.52    0.79
  -5  -1  -3    7.68    0.92
   5  -1   3    6.59    0.80
   5   1   4    4.75    0.76
  -5   1  -4    5.42    0.61
  -5  -1  -4    5.95    0.98
   5  -1   4    5.40    0.73
   5  -1   4    5.41    0.85
   5   1   5   -0.21    0.40
   5  -1   5    0.27    0.40
   5  -1   5    1.17    0.39
  -5  -1  -5   -0.04    0.47
   5   1   6    0.77    0.47
  -5  -1  -6    0.61    0.60
   5  -1   6    0.63    0.52
   5   1   7    0.44    0.44
  -5  -1  -7    0.67    0.56
   5  -1   7    0.09    0.54
  -5  -1  -8    1.96    0.79
   5   2  -9   28.59    2.25
  -5  -2   9   25.37    2.19
   5  -2  -9   25.49    2.09
   5   2  -8    1.51    0.64
  -5   2   8    2.10    0.67
  -5  -2   8    1.32    0.64
  -5   2   7   16.88    1.65
   5   2  -7   16.28    1.58
   5  -2  -7   13.11    1.35
  -5  -2   7   16.28    1.50
  -5   2   6    1.98    0.68
   5   2  -6    2.66    0.66
  -5  -2   6    2.16    0.58
   5  -2  -6    1.87    0.54
   5   2  -5    1.82    0.60
  -5   2   5    2.39    0.68
  -5  -2   5    2.01    0.49
   5  -2  -5    2.43    0.54
  -5   2   4    9.17    0.73
  -5   2   4   11.14    1.15
   5   2  -4    8.77    1.00
   5  -2  -4    8.85    0.86
  -5  -2   4    7.60    0.88
  -5   2   3    6.19    1.04
   5   2  -3    8.93    0.89
  -5  -2   3    9.28    0.83
   5  -2  -3    8.59    0.81
   5   2  -2   11.10    0.92
  -5   2   2   13.68    1.24
   5   2  -2   10.22    0.78
   5  -2  -2   11.22    0.90
  -5  -2   2   11.50    0.91
  -5   2   1   45.08    3.00
   5   2  -1   46.40    2.69
   5   2  -1   48.24    2.62
   5  -2  -1   47.26    2.67
  -5  -2   1   47.14    2.80
  -5   2   0    0.72    0.29
   5   2   0    0.24    0.17
   5   2   0    0.30    0.22
   5  -2   0    0.33    0.28
  -5  -2   0    1.05    0.40
  -5   2  -1  245.92   13.07
   5   2   1  253.56   12.69
   5  -2   1  237.81   13.20
  -5  -2  -1  252.96   13.55
   5  -2   1  225.62   12.92
   5   2   2   21.36    1.37
  -5   2  -2   20.92    1.33
  -5  -2  -2   19.89    1.78
   5  -2   2   20.90    1.37
   5  -2   2   16.11    1.39
  -5   2  -3  184.49    9.72
   5   2   3  175.08    9.48
   5  -2   3  176.63    9.51
  -5  -2  -3  172.42   10.32
   5  -2   3  184.88    9.92
  -5   2  -4    1.63    0.42
   5   2   4    1.44    0.49
   5  -2   4    2.10    0.45
  -5  -2  -4    1.73    0.64
   5  -2   4    1.51    0.48
  -5   2  -5   57.30    3.45
   5   2   5   57.51    3.48
   5  -2   5   60.64    3.69
  -5  -2  -5   58.43    3.95
   5   2   6   28.80    2.06
  -5  -2  -6   28.91    2.43
   5  -2   6   28.92    2.25
   5   2   7   61.98    3.88
   5  -2   7   62.06    4.20
  -5  -2  -7   70.26    4.47
  -5  -2  -8    5.49    1.14
   5   3  -8   32.84    2.65
  -5   3   8   35.90    2.70
  -5  -3   8   34.00    2.65
   5  -3  -8   38.49    2.51
   5   3  -7    0.93    0.61
  -5   3   7    0.96    0.58
  -5  -3   7    0.98    0.54
   5  -3  -7    0.51    0.50
   5   3  -6   60.30    3.79
  -5   3   6   62.56    3.94
  -5  -3   6   61.39    3.81
   5  -3  -6   56.13    3.56
   5   3  -5   -0.03    0.41
  -5   3   5    0.39    0.52
  -5  -3   5    0.07    0.36
   5  -3  -5   -0.02    0.36
   5   3  -4  264.19   13.67
   5  -3  -4  241.19   13.15
  -5  -3   4  246.41   13.79
   5   3  -3   13.68    1.18
  -5   3   3   13.19    1.40
   5  -3  -3   14.63    1.13
  -5  -3   3   14.32    1.16
   5   3  -2  185.00    9.73
   5   3  -2  173.63    9.26
  -5   3   2  167.34   10.20
  -5  -3   2  180.27    9.88
   5  -3  -2  185.95    9.45
   5   3  -1    8.68    0.68
   5   3  -1    8.63    0.77
  -5   3   1   10.83    1.07
  -5  -3   1    8.81    0.88
   5  -3  -1    9.42    0.85
   5   3   0  244.91   13.00
   5   3   0  229.00   12.63
  -5   3   0  242.28   13.16
  -5  -3   0  269.31   13.47
   5  -3   0  240.37   12.71
   5  -3   0  233.66   13.14
   5   3   1    2.60    0.44
  -5   3  -1    2.65    0.45
  -5  -3  -1    1.92    0.57
   5  -3   1    2.90    0.53
   5  -3   1    3.10    0.45
  -5   3  -2   47.59    2.97
   5   3   2   47.93    2.90
   5  -3   2   52.15    3.13
   5  -3   2   51.12    3.00
  -5  -3  -2   54.33    3.45
  -5   3  -3    1.50    0.43
   5   3   3    2.30    0.53
  -5  -3  -3    2.38    0.78
   5  -3   3    1.49    0.43
   5  -3   3    1.57    0.42
   5   3   4   22.05    1.67
  -5   3  -4   21.50    1.61
   5  -3   4   24.60    1.62
   5  -3   4   22.88    1.72
  -5  -3  -4   17.64    2.03
  -5   3  -5    0.01    0.39
   5   3   5    1.13    0.55
  -5  -3  -5   -0.27    0.61
   5  -3   5   -0.15    0.46
   5   3   6    0.97    0.57
  -5  -3  -6    2.25    0.81
   5  -3   6    0.56    0.60
   5   3   7    1.15    0.60
  -5  -3  -7   -0.42    0.68
   5  -3   7    1.33    0.70
   5   3   8    9.07    1.21
  -5  -3  -8   12.83    1.79
   5   4  -8    7.89    1.39
  -5  -4   8    9.73    1.38
   5  -4  -8    9.94    1.27
   5   4  -7    7.91    1.34
  -5   4   7   11.79    1.42
  -5  -4   7   11.21    1.36
   5  -4  -7    7.95    1.25
   5   4  -6    7.29    1.22
  -5   4   6    9.01    1.30
   5  -4  -6    8.16    1.16
  -5  -4   6    8.61    1.19
  -5   4   5    0.29    0.45
   5   4  -5    0.32    0.48
  -5  -4   5   -0.09    0.40
   5  -4  -5   -0.06    0.45
   5   4  -4    0.10    0.45
  -5   4   4    0.15    0.47
   5  -4  -4    0.20    0.40
  -5  -4   4   -0.13    0.34
   5   4  -3    7.96    0.96
  -5   4   3    6.20    1.17
   5  -4  -3    6.51    0.89
  -5  -4   3    9.08    0.95
   5   4  -2   25.65    1.71
  -5   4   2   24.00    2.13
   5   4  -2   24.26    1.43
  -5  -4   2   25.52    1.77
   5  -4  -2   25.17    1.70
  -5   4   1   30.82    2.12
   5   4  -1   29.96    1.86
   5   4  -1   27.37    1.68
   5  -4  -1   28.03    1.85
  -5  -4   1   29.26    1.97
   5   4   0   41.48    2.44
   5   4   0   42.92    2.53
  -5   4   0   42.12    2.68
   5  -4   0   43.33    2.46
  -5  -4   0   44.22    2.78
   5  -4   0   43.39    2.55
  -5   4  -1  136.92    7.72
   5   4   1  135.48    7.41
  -5  -4  -1  143.91    8.05
   5  -4   1  140.74    7.68
   5  -4   1  139.18    7.45
  -5   4  -2   91.21    5.11
   5   4   2   92.79    4.94
   5  -4   2   78.98    5.07
   5  -4   2   93.06    5.10
  -5   4  -3  102.05    5.92
   5   4   3  102.11    5.74
  -5  -4  -3  105.29    6.39
   5  -4   3  107.24    5.99
   5   4   4   77.65    4.79
  -5   4  -4   79.14    4.89
  -5  -4  -4   99.08    5.66
   5  -4   4   84.24    5.01
  -5   4  -5   46.97    3.12
   5   4   5   47.51    3.09
  -5  -4  -5   53.17    3.82
   5  -4   5   50.24    3.25
  -5   4  -6   30.09    2.21
   5   4   6   28.49    2.24
   5  -4   6   30.20    2.38
  -5  -4  -6   34.98    2.86
   5   4   7   23.50    1.94
  -5  -4  -7   21.62    2.36
   5  -4   7   23.44    2.10
  -5  -5   8    7.17    1.25
   5  -5  -8    6.62    1.10
  -5   5   7   45.54    3.35
   5   5  -7   45.50    3.28
   5  -5  -7   53.16    3.22
  -5  -5   7   45.83    3.30
   5   5  -6    4.34    0.89
   5  -5  -6    4.43    0.88
  -5  -5   6    4.09    0.84
   5   5  -5   73.31    4.49
  -5  -5   5   72.77    4.50
   5  -5  -5   73.31    4.32
   5   5  -4    1.54    0.60
  -5   5   4    1.14    0.70
  -5  -5   4    1.50    0.53
   5  -5  -4    1.29    0.58
   5   5  -3  183.47   10.28
  -5   5   3  196.43   11.10
  -5  -5   3  181.79   10.42
   5  -5  -3  183.77    9.95
  -5   5   2   61.38    3.99
   5   5  -2   56.99    3.48
  -5  -5   2   56.83    3.56
   5  -5  -2   56.42    3.41
   5   5  -1  170.85    9.27
   5   5  -1  168.35    8.85
  -5   5   1  172.55    9.51
   5  -5  -1  161.43    9.00
  -5  -5   1  170.25    9.48
   5   5   0    0.71    0.34
   5   5   0    0.85    0.37
  -5   5   0    0.15    0.43
   5  -5   0    0.83    0.42
  -5  -5   0    0.97    0.46
   5  -5   0    0.81    0.22
   5   5   1   79.50    4.64
  -5   5  -1   85.93    4.92
   5  -5   1   75.88    4.63
   5  -5   1   84.89    4.77
  -5  -5  -1   95.74    5.17
   5   5   2    7.21    0.94
  -5   5  -2    8.34    1.04
   5  -5   2    8.38    0.86
  -5  -5  -2    8.09    1.31
   5  -5   2    6.88    0.89
   5   5   3   12.84    1.24
  -5   5  -3   13.76    1.30
  -5  -5  -3    9.14    1.47
   5  -5   3   12.10    1.17
  -5   5  -4    3.29    0.71
   5   5   4    3.12    0.76
  -5  -5  -4    2.49    0.85
   5  -5   4    2.85    0.65
   5   5   5   -0.17    0.56
  -5   5  -5    0.57    0.48
   5  -5   5   -0.24    0.45
  -5   5  -6    1.38    0.55
   5   5   6    1.27    0.73
  -5  -5  -6    1.45    0.89
   5  -5   6    0.04    0.56
   5   5   7    6.26    1.07
  -5  -5  -7   10.04    1.66
   5  -5   7    7.74    1.38
   5   6  -7    0.18    0.63
   5  -6  -7    0.27    0.61
  -5  -6   7    0.71    0.63
   5   6  -6   11.78    1.55
  -5   6   6   11.75    1.47
  -5  -6   6   11.60    1.41
   5  -6  -6   10.36    1.43
   5   6  -5    5.97    1.05
  -5  -6   5    6.65    1.15
   5  -6  -5    6.85    1.15
  -5   6   4   -0.59    0.57
   5   6  -4    1.11    0.61
  -5  -6   4    0.38    0.43
   5  -6  -4    0.98    0.60
   5   6  -3    0.61    0.50
  -5   6   3   -0.11    0.55
   5  -6  -3    0.09    0.48
  -5  -6   3    0.25    0.47
   5   6  -2   11.52    1.26
  -5   6   2   14.77    1.71
  -5  -6   2   13.50    1.34
   5  -6  -2   12.36    1.30
  -5   6   1   -0.32    0.46
   5   6  -1    0.35    0.43
   5  -6  -1    0.94    0.51
  -5  -6   1    0.69    0.48
  -5   6   0   78.39    4.82
   5   6   0   81.19    4.70
   5   6   0   78.16    4.44
  -5  -6   0   83.48    4.87
   5  -6   0   79.90    4.55
  -5   6  -1    1.45    0.57
   5   6   1    2.89    0.58
   5  -6   1    2.09    0.52
  -5  -6  -1    2.57    0.69
  -5   6  -2   77.24    4.58
   5   6   2   76.69    4.36
  -5  -6  -2   79.66    4.81
   5  -6   2   70.71    4.42
  -5   6  -3    0.98    0.56
   5   6   3    1.72    0.63
  -5  -6  -3    1.91    0.73
   5  -6   3    1.60    0.49
  -5   6  -4  105.04    6.22
   5   6   4  107.68    6.05
   5  -6   4  105.88    6.23
  -5   6  -5    3.36    0.81
   5   6   5    3.21    0.85
  -5  -6  -5    2.47    0.81
   5  -6   5    3.08    0.74
   5   6   6   40.38    2.88
  -5   6  -6   40.66    2.86
   5  -6   6   40.54    2.93
  -5  -6  -6   41.76    3.23
   5   7  -6   36.44    2.78
  -5  -7   6   34.35    2.72
   5  -7  -6   38.96    2.75
   5   7  -5   53.47    3.49
   5  -7  -5   48.28    3.34
  -5  -7   5   51.25    3.46
   5   7  -4   51.86    3.31
  -5   7   4   47.48    3.85
   5  -7  -4   48.17    3.20
  -5  -7   4   46.52    3.24
   5   7  -3   41.12    2.82
  -5   7   3   40.10    3.40
  -5  -7   3   38.37    2.82
   5  -7  -3   41.38    2.76
  -5   7   2   56.55    4.00
   5   7  -2   57.62    3.61
   5  -7  -2   56.38    3.52
  -5  -7   2   54.62    3.65
   5   7  -1   66.62    4.23
  -5   7   1   68.85    4.45
  -5  -7   1   68.28    4.32
   5  -7  -1   73.55    4.14
   5   7   0   37.30    2.35
  -5   7   0   35.04    2.68
   5  -7   0   38.69    2.49
  -5  -7   0   40.23    2.71
  -5   7  -1   28.89    2.29
   5   7   1   28.82    2.04
  -5  -7  -1   32.81    2.36
   5   7   2   24.35    1.85
  -5   7  -2   23.21    1.99
  -5  -7  -2   24.71    2.09
  -5   7  -3    4.08    0.86
   5   7   3    4.78    0.87
   5  -7   3    3.52    0.64
  -5  -7  -3    3.33    0.83
   5   7   4    0.79    0.64
  -5   7  -4    0.91    0.64
  -5  -7  -4    0.76    0.63
   5   7   5    1.14    0.66
  -5   7  -5   -0.41    0.60
   5  -7   5    0.83    0.53
  -5   7  -6    4.36    0.88
   5  -7   6    3.40    0.85
   5   8  -5    2.49    0.85
  -5  -8   5    3.47    0.82
   5  -8  -5    3.46    0.94
   5   8  -4    1.39    0.70
  -5   8   4    2.16    0.94
   5  -8  -4    1.37    0.74
  -5  -8   4    1.04    0.64
  -5   8   3   -1.09    0.67
   5   8  -3    0.09    0.56
   5  -8  -3    0.74    0.63
  -5  -8   3    0.55    0.53
  -5   8   2    1.21    0.67
   5   8  -2    0.30    0.54
   5  -8  -2    0.96    0.71
  -5  -8   2   -0.48    0.53
   5   8  -1   15.16    1.56
  -5   8   1   13.72    1.71
  -5  -8   1   16.40    1.63
   5  -8  -1   17.29    1.59
  -5   8   0    0.36    0.52
  -5  -8   0    0.55    0.54
  -5   8  -1   29.40    2.48
   5   8   1   31.10    2.14
  -5  -8  -1   35.38    2.46
  -5   8  -2    8.19    1.35
   5   8   2    9.81    1.17
  -5  -8  -2   10.25    1.33
   5   8   3   50.73    3.37
  -5   8  -3   54.62    3.64
  -5  -8  -3   56.97    3.73
   5   8   4   -0.41    0.55
  -5   8  -4   -1.03    0.51
  -5   9   4   56.09    4.36
   5   9  -4   56.80    3.78
  -5  -9   4   53.55    3.73
   5  -9  -4   53.35    3.69
  -5   9   3    4.37    1.09
   5   9  -3    7.60    1.22
  -5  -9   3    4.04    0.87
   5  -9  -3    5.94    1.10
   5   9  -2   52.65    3.62
  -5   9   2   58.02    4.11
   5  -9  -2   52.05    3.54
  -5  -9   2   52.10    3.63
  -5   9   1    5.23    1.09
  -5  -9   1    5.27    0.97
  -5   9   0   39.08    3.03
  -5  -9   0   43.52    3.00
  -5   9  -1    1.06    0.72
  -5  -9  -1    1.35    0.60
  -5   9  -2   18.54    1.88
   5   9   2   16.69    1.58
  -5  -9  -2   20.29    1.77
   5   9   3    1.91    0.72
  -5   9  -3    2.08    0.74
  -5  10   1    1.20    0.65
  -5 -10   1    1.57    0.67
  -5 -10   0    5.75    1.02
   6   0  -8    8.97    1.34
  -6   0   6   -0.27    0.29
   6   0  -5    0.01    0.26
  -6   0   5   -0.43    0.42
  -6   0   5   -0.16    0.26
   6   0  -4   79.40    4.30
  -6   0   4   85.65    4.74
  -6   0   4   72.54    4.47
   6   0  -3    0.14    0.24
  -6   0   3    0.03    0.31
  -6   0   3    0.03    0.17
   6   0  -2  204.93   10.82
  -6   0   2  205.15   11.28
  -6   0   2  209.61   11.24
  -6   0   1   -0.08    0.19
   6   0  -1    0.12    0.33
  -6   0   1   -0.03    0.25
  -6   0   0  521.71   30.23
  -6   0   0  583.21   30.83
   6   0   0  601.03   29.48
  -6   0  -1    0.15    0.32
   6   0   1    0.03    0.31
  -6   0  -1    0.15    0.17
  -6   0  -2  236.01   13.40
   6   0   2  251.30   12.86
  -6   0  -3    0.33    0.35
   6   0   3    0.10    0.34
  -6   0  -4  232.53   13.11
   6   0   4  239.06   12.47
  -6   0  -5    0.25    0.48
   6   0   5    0.05    0.39
  -6   0  -6   36.06    2.78
   6   0   6   37.33    2.41
  -6   0  -7    0.97    0.68
  -6   0  -8   18.42    1.94
   6   1  -9   27.57    2.34
   6  -1  -9   31.61    2.37
   6   1  -8    9.09    1.39
  -6   1   7   88.40    5.20
   6   1  -7   79.12    5.08
  -6  -1   7   82.73    5.03
  -6   1   6   71.84    4.40
   6   1  -6   67.39    4.27
  -6  -1   6   68.74    4.19
   6  -1  -6   69.70    3.95
  -6   1   5  157.48    9.25
  -6   1   5  180.32    9.54
  -6  -1   5  168.21    9.36
   6  -1  -5  158.15    8.88
  -6  -1   5  174.98    9.43
  -6   1   4   21.58    1.43
  -6   1   4   23.87    1.84
   6   1  -4   22.66    1.40
  -6  -1   4   22.55    1.55
  -6  -1   4   24.59    1.75
   6  -1  -4   21.45    1.48
   6   1  -3   94.42    4.84
  -6   1   3   84.33    4.92
  -6   1   3   78.36    5.18
  -6  -1   3   88.25    5.05
  -6  -1   3   95.59    5.13
   6  -1  -3   94.97    4.86
  -6   1   2  104.02    6.64
   6   1  -2  117.92    6.45
  -6   1   2  113.65    6.41
  -6  -1   2  126.37    6.55
  -6  -1   2  118.69    6.54
   6  -1  -2  124.70    6.30
   6   1  -1   26.71    1.77
  -6   1   1   24.93    1.66
  -6   1   1   27.58    1.89
  -6  -1   1   27.92    1.72
   6  -1  -1   29.10    1.74
  -6  -1   1   28.52    1.79
  -6   1   0   10.44    0.92
   6   1   0    8.38    0.85
  -6   1   0    9.13    0.89
  -6  -1   0   11.06    0.73
  -6  -1   0    9.95    1.01
   6  -1   0    9.02    1.04
  -6   1  -1   20.24    1.52
  -6   1  -1   22.82    1.47
   6   1   1   25.07    1.62
   6  -1   1   27.16    1.76
  -6  -1  -1   25.78    1.92
  -6   1  -2    0.88    0.24
   6   1   2    0.71    0.37
  -6   1  -2    0.99    0.34
   6  -1   2    0.79    0.40
  -6  -1  -2    0.10    0.45
   6   1   3   13.48    1.16
  -6   1  -3   13.40    0.95
   6  -1   3   13.49    1.16
  -6  -1  -3   12.69    1.32
   6   1   4    1.55    0.51
  -6   1  -4    0.67    0.27
  -6  -1  -4    0.60    0.52
   6  -1   4    1.21    0.43
   6  -1   4    0.52    0.40
   6   1   5   19.08    1.55
   6  -1   5   20.42    1.50
   6  -1   5   19.12    1.71
  -6  -1  -5   21.45    1.86
   6   1   6   12.93    1.26
  -6  -1  -6   10.27    1.48
   6   1   7   16.12    1.40
  -6   1  -7   13.49    1.78
  -6  -1  -7   13.69    1.71
  -6   1  -8    3.34    0.98
  -6  -1  -8    3.95    0.96
   6   2  -8    1.44    0.68
  -6   2   8    1.95    0.73
  -6  -2   8    1.52    0.62
  -6   2   7    4.83    0.94
   6   2  -7    3.70    0.83
  -6  -2   7    4.04    0.78
   6  -2  -7    3.70    0.72
   6   2  -6   -0.08    0.51
  -6   2   6    1.17    0.65
   6  -2  -6    0.31    0.40
  -6  -2   6   -0.15    0.39
  -6   2   5   17.36    1.64
   6   2  -5   15.81    1.49
  -6  -2   5   12.91    1.25
   6  -2  -5   14.65    1.23
   6   2  -4    4.60    0.75
  -6   2   4    4.72    0.85
  -6  -2   4    5.48    0.75
   6  -2  -4    6.36    0.78
   6   2  -3   74.62    4.22
   6   2  -3   80.33    4.05
  -6   2   3   63.51    4.42
  -6  -2   3   69.51    4.21
   6  -2  -3   74.95    4.05
   6   2  -2  148.07    8.08
  -6   2   2  149.08    8.36
  -6  -2   2  145.69    8.19
   6  -2  -2  147.49    7.84
   6   2  -1  123.27    6.46
   6   2  -1  117.34    6.60
  -6   2   1  109.10    6.93
  -6  -2   1  128.17    6.84
   6  -2  -1  126.32    6.50
   6   2   0   33.52    1.88
  -6   2   0   32.11    1.98
   6   2   0   30.00    1.75
  -6   2   0   28.08    1.79
   6  -2   0   31.22    1.94
  -6  -2   0   26.88    2.10
   6   2   1  247.94   12.85
  -6   2  -1  237.18   13.20
  -6  -2  -1  259.63   13.71
   6  -2   1  239.04   13.34
   6  -2   1  243.22   13.14
  -6   2  -2  106.31    5.84
   6   2   2  105.44    5.75
   6  -2   2  102.37    5.83
  -6  -2  -2  109.69    6.40
   6  -2   2  104.17    5.94
  -6   2  -3  123.42    6.42
   6   2   3  121.36    6.34
  -6  -2  -3   97.69    6.94
   6  -2   3  118.88    6.59
   6  -2   3  116.20    6.38
  -6   2  -4   25.03    1.66
   6   2   4   22.44    1.75
   6  -2   4   26.75    1.88
   6  -2   4   25.04    1.73
  -6  -2  -4   23.88    2.25
   6   2   5   79.75    4.79
   6  -2   5   85.01    5.07
  -6  -2  -5   86.64    5.41
   6   2   6   16.82    1.54
  -6  -2  -6   17.71    1.95
   6  -2   6   17.38    1.67
   6   2   7   12.70    1.32
  -6  -2  -7   10.20    1.70
   6  -2   7   14.61    1.57
  -6  -2  -8    2.07    0.84
   6   3  -8   53.07    3.74
  -6   3   8   57.95    3.85
  -6  -3   8   55.13    3.73
  -6   3   7    3.32    0.90
   6   3  -7    3.38    0.86
  -6  -3   7    2.93    0.71
   6  -3  -7    4.32    0.79
  -6   3   6  108.92    6.79
   6   3  -6  118.69    6.66
  -6  -3   6  114.07    6.66
   6  -3  -6  112.63    6.32
   6   3  -5    1.80    0.61
  -6   3   5    3.01    0.76
   6  -3  -5    1.62    0.50
  -6  -3   5    1.20    0.47
   6   3  -4  192.22   10.31
   6  -3  -4  177.23    9.91
  -6  -3   4  190.14   10.41
   6   3  -3   14.66    1.23
  -6   3   3   13.49    1.46
  -6  -3   3   15.19    1.22
   6  -3  -3   13.60    1.16
  -6   3   2  174.48    9.97
   6   3  -2  169.34    9.03
   6   3  -2  176.53    9.46
   6  -3  -2  171.46    9.18
  -6  -3   2  173.63    9.62
  -6   3   1    1.57    0.52
   6   3  -1    1.38    0.31
   6   3  -1    1.83    0.38
  -6  -3   1    1.84    0.45
   6  -3  -1    1.24    0.40
   6   3   0   65.14    3.49
   6   3   0   63.05    3.47
  -6   3   0   61.02    3.67
   6  -3   0   59.76    3.53
   6  -3   0   59.81    3.48
  -6  -3   0   65.79    3.88
  -6   3  -1    6.24    0.73
   6   3   1    5.71    0.72
   6  -3   1    5.35    0.58
   6  -3   1    5.58    0.84
  -6   3  -2    4.55    0.67
   6   3   2    4.63    0.74
  -6  -3  -2    4.10    0.87
   6  -3   2    5.33    0.90
   6  -3   2    5.10    0.68
  -6   3  -3    1.28    0.42
   6   3   3    2.47    0.58
   6  -3   3    1.92    0.48
  -6  -3  -3    3.44    0.81
   6  -3   3    0.63    0.44
   6   3   4    6.74    1.08
  -6   3  -4    7.30    0.93
   6  -3   4    9.97    0.93
   6  -3   4    8.09    1.05
  -6  -3  -4    7.00    1.30
   6   3   5   -0.03    0.47
  -6   3  -5    0.30    0.36
   6  -3   5    0.16    0.47
   6   3   6   19.38    1.70
   6  -3   6   22.02    1.88
  -6  -3  -6   18.19    2.15
   6   3   7    0.57    0.57
  -6  -3  -7    1.25    0.78
   6  -3   7    0.50    0.56
   6   4  -8    1.74    0.76
  -6   4   8    3.43    0.86
  -6  -4   8    1.92    0.70
   6  -4  -8    3.24    0.79
   6   4  -7    2.18    0.79
  -6   4   7    2.21    0.67
  -6  -4   7    1.34    0.61
   6  -4  -7    2.12    0.70
   6   4  -6    2.13    0.71
  -6   4   6    1.97    0.71
  -6  -4   6    1.49    0.59
   6  -4  -6    1.21    0.57
   6   4  -5   10.71    1.30
  -6  -4   5   10.23    1.22
   6  -4  -5    9.69    1.14
  -6   4   4    0.18    0.56
   6   4  -4    0.24    0.46
  -6  -4   4   -0.14    0.38
   6  -4  -4    0.30    0.45
  -6   4   3   44.89    3.26
   6   4  -3   45.23    2.76
  -6  -4   3   41.40    2.75
   6  -4  -3   40.23    2.63
   6   4  -2   41.56    2.49
   6   4  -2   44.87    2.78
  -6   4   2   46.03    3.30
  -6  -4   2   47.17    2.89
   6  -4  -2   47.61    2.76
  -6   4   1   69.23    4.07
   6   4  -1   65.99    3.76
   6   4  -1   62.14    3.56
   6  -4  -1   63.81    3.72
  -6  -4   1   65.55    3.96
   6   4   0   22.23    1.49
  -6   4   0   23.85    1.70
   6   4   0   23.44    1.51
  -6  -4   0   24.26    1.85
   6  -4   0   22.10    1.60
   6  -4   0   23.79    1.43
   6   4   1  102.40    5.65
  -6   4  -1  106.57    5.91
  -6  -4  -1  101.51    6.23
   6  -4   1   99.48    5.72
   6  -4   1  110.03    5.83
   6   4   2  110.76    5.90
  -6   4  -2  112.10    6.10
  -6  -4  -2  104.28    6.48
   6  -4   2   97.31    6.08
   6  -4   2  111.44    6.09
   6   4   3   88.46    4.83
  -6   4  -3   86.68    4.93
   6  -4   3   72.09    4.75
  -6  -4  -3   90.51    5.41
   6  -4   3   87.06    4.97
  -6   4  -4   22.67    1.78
   6   4   4   25.35    1.85
  -6  -4  -4   27.73    2.43
   6  -4   4   21.51    1.82
  -6   4  -5   28.41    2.00
   6   4   5   24.63    2.02
  -6  -4  -5   32.00    2.69
   6  -4   5   25.10    2.10
   6   4   6   17.70    1.66
  -6  -4  -6   16.44    2.14
   6  -4   6   17.51    1.73
   6   4   7    7.80    1.27
   6  -4   7    7.30    1.32
  -6  -4  -7    7.07    1.36
   6  -5  -8    2.92    0.79
   6   5  -7   35.84    2.74
  -6   5   7   40.73    3.00
   6  -5  -7   36.23    2.64
  -6  -5   7   34.63    2.72
  -6   5   6   10.33    1.44
   6   5  -6   10.10    1.38
  -6  -5   6    9.39    1.27
   6  -5  -6   12.11    1.37
   6   5  -5   84.32    4.95
   6  -5  -5   81.68    4.73
  -6  -5   5   77.08    4.93
   6   5  -4   34.20    2.35
  -6   5   4   33.66    2.71
   6  -5  -4   30.96    2.22
  -6  -5   4   30.67    2.29
   6   5  -3  124.88    7.11
  -6   5   3  130.59    7.86
   6  -5  -3  123.42    6.89
  -6  -5   3  123.06    7.21
  -6   5   2   13.05    1.70
   6   5  -2   13.92    1.31
  -6  -5   2   16.65    1.40
   6  -5  -2   14.18    1.33
   6   5  -1   47.96    2.92
  -6   5   1   53.90    3.46
   6   5  -1   54.18    3.17
  -6  -5   1   55.02    3.36
   6  -5  -1   51.11    3.14
  -6   5   0    2.79    0.62
   6   5   0    3.02    0.52
   6   5   0    4.03    0.66
   6  -5   0    2.79    0.61
  -6  -5   0    4.80    0.84
  -6   5  -1   29.99    2.10
   6   5   1   28.47    1.90
   6  -5   1   29.42    1.86
  -6  -5  -1   33.25    2.36
   6  -5   1   25.89    1.91
   6   5   2    1.52    0.53
  -6   5  -2    0.53    0.47
  -6  -5  -2    1.22    0.70
   6  -5   2    1.54    0.41
   6  -5   2    2.26    0.57
  -6   5  -3    0.13    0.44
   6   5   3   -0.12    0.45
  -6  -5  -3   -1.07    0.57
   6  -5   3   -0.37    0.35
   6   5   4    0.52    0.55
  -6   5  -4   -0.13    0.44
  -6  -5  -4   -0.36    0.62
   6  -5   4    0.81    0.45
  -6   5  -5    8.14    1.15
   6   5   5    6.76    1.06
   6  -5   5    6.55    1.13
  -6  -5  -5    8.63    1.50
   6   5   6    6.07    1.05
  -6   5  -6    5.16    0.86
   6  -5   6    4.06    0.89
   6   5   7   19.12    1.92
  -6  -5  -7   18.73    2.31
  -6   6   7   -0.19    0.60
   6   6  -7   -0.94    0.58
   6  -6  -7    0.66    0.68
  -6  -6   7    0.19    0.50
   6   6  -6   -0.21    0.57
  -6   6   6    1.44    0.65
   6  -6  -6   -0.37    0.55
  -6  -6   6    0.29    0.50
   6   6  -5    0.84    0.61
  -6   6   5    0.25    0.66
  -6  -6   5    1.72    0.66
   6  -6  -5    1.59    0.66
   6   6  -4   14.26    1.55
  -6   6   4   16.58    1.86
   6  -6  -4   15.70    1.51
  -6  -6   4   12.46    1.44
  -6   6   3    0.01    0.68
   6   6  -3    1.68    0.61
  -6  -6   3    0.94    0.55
   6  -6  -3    2.67    0.71
   6   6  -2   36.51    2.55
  -6   6   2   39.58    3.03
  -6  -6   2   38.34    2.66
   6  -6  -2   37.59    2.54
   6   6  -1   11.55    1.24
  -6   6   1   13.88    1.52
  -6  -6   1   12.39    1.41
   6  -6  -1   13.18    1.30
   6   6   0  131.38    7.06
  -6   6   0  128.91    7.54
   6  -6   0  127.23    7.17
  -6  -6   0  137.71    7.69
   6   6   1   11.10    1.09
  -6   6  -1   11.14    1.31
   6  -6   1    9.53    1.04
  -6  -6  -1   13.75    1.50
  -6   6  -2   81.56    5.01
   6   6   2   84.64    4.77
   6  -6   2   86.62    4.96
  -6  -6  -2   81.69    5.27
  -6   6  -3    4.16    0.78
   6   6   3    2.89    0.67
   6  -6   3    2.50    0.55
  -6  -6  -3    2.03    0.78
  -6   6  -4   91.32    5.25
   6   6   4   89.63    5.09
  -6  -6  -4   77.73    5.53
   6  -6   4   86.57    5.18
  -6   6  -5   16.68    1.70
   6   6   5   16.65    1.71
   6  -6   5   16.72    1.59
  -6  -6  -5   21.41    2.13
   6   6   6   28.63    2.38
  -6   6  -6   29.52    2.25
   6  -6   6   29.27    2.34
  -6  -6  -6   30.94    2.71
   6   7  -6   28.19    2.35
   6  -7  -6   26.84    2.27
  -6  -7   6   27.81    2.26
   6   7  -5   29.71    2.34
  -6   7   5   24.86    2.50
  -6  -7   5   27.62    2.28
   6  -7  -5   28.38    2.26
   6   7  -4    8.10    1.28
  -6   7   4   12.53    1.74
   6  -7  -4    8.29    1.35
  -6  -7   4    8.81    1.28
   6   7  -3   18.76    1.76
  -6   7   3   18.51    2.17
   6  -7  -3   19.81    1.82
  -6  -7   3   20.84    1.86
  -6   7   2   41.58    3.21
   6   7  -2   38.07    2.75
  -6  -7   2   39.86    2.85
   6  -7  -2   40.74    2.74
   6   7  -1   36.54    2.53
  -6   7   1   33.13    2.74
  -6  -7   1   41.04    2.73
   6  -7  -1   35.54    2.51
   6   7   0    9.74    1.04
  -6   7   0    8.94    1.33
   6  -7   0    9.99    1.17
  -6  -7   0   12.09    1.42
  -6   7  -1    3.16    0.82
   6   7   1    4.39    0.71
  -6  -7  -1    2.69    0.81
   6   7   2    0.04    0.48
  -6   7  -2    0.06    0.53
  -6  -7  -2   -0.33    0.53
  -6   7  -3    0.13    0.57
   6   7   3    1.21    0.62
  -6  -7  -3   -0.24    0.52
   6   7   4    0.22    0.61
  -6   7  -4    1.10    0.61
   6  -7   4    1.58    0.54
  -6  -7  -4   -0.62    0.54
   6   7   5    6.29    1.05
  -6   7  -5    7.95    1.27
  -6  -7  -5    4.31    1.14
   6  -7   5    4.28    0.80
   6   8  -5    1.52    0.64
  -6   8   5    0.74    0.72
   6  -8  -5    0.39    0.69
  -6  -8   5    0.54    0.65
   6   8  -4   -0.81    0.56
  -6   8   4   -0.89    0.69
  -6  -8   4   -0.29    0.46
   6  -8  -4   -0.29    0.61
  -6   8   3   13.69    1.97
   6   8  -3   14.07    1.64
   6  -8  -3   19.18    1.77
  -6  -8   3   14.42    1.66
  -6   8   2    3.10    0.97
   6   8  -2    2.84    0.77
  -6  -8   2    3.12    0.85
   6  -8  -2    4.39    0.95
  -6   8   1   71.24    4.77
  -6  -8   1   72.90    4.63
   6  -8  -1   72.69    4.36
  -6   8   0    2.36    0.70
  -6  -8   0    1.54    0.70
   6   8   1   64.95    4.05
  -6   8  -1   68.13    4.49
  -6  -8  -1   76.33    4.57
   6   8   2    4.32    0.77
  -6   8  -2    4.06    0.95
  -6  -8  -2    4.08    0.93
  -6   8  -3   65.08    4.28
   6   8   3   67.10    4.05
  -6  -8  -3   66.33    4.43
   6   8   4    3.14    0.79
  -6   8  -4    3.50    0.85
  -6  -8  -4    2.31    0.75
   6   9  -4   45.07    3.19
  -6   9   4   42.48    3.67
   6  -9  -4   44.23    3.25
   6   9  -3    8.34    1.32
  -6   9   3    5.83    1.35
   6  -9  -3    8.58    1.47
  -6  -9   3    9.83    1.35
  -6   9   2   20.38    2.20
  -6  -9   2   18.50    1.94
   6  -9  -2   20.00    1.91
  -6   9   1    0.33    0.68
  -6  -9   1    1.96    0.73
  -6   9   0   10.40    1.46
  -6  -9   0   11.95    1.58
  -6   9  -1    0.22    0.58
  -6  -9  -1   -0.15    0.52
   6   9   2    1.05    0.55
  -6   9  -2    0.87    0.62
  -6  -9  -2    0.04    0.49
   6   9   3   -0.47    0.52
   7   0  -9    0.03    0.58
   7   0  -8    2.44    0.81
  -7   0   7    0.20    0.57
  -7   0   6    1.02    0.62
  -7   0   5    0.02    0.27
  -7   0   5   -0.33    0.47
   7   0  -5    0.09    0.29
  -7   0   4  129.35    7.61
  -7   0   4  143.48    7.86
   7   0  -4  139.68    7.32
  -7   0   3    0.09    0.37
  -7   0   3    0.08    0.21
   7   0  -3   -0.17    0.23
  -7   0   2  355.13   19.87
   7   0  -2  379.87   19.12
  -7   0   1   -0.38    0.27
   7   0  -1   -0.04    0.35
  -7   0   1   -0.15    0.21
  -7   0   0  491.48   28.38
   7   0   0  556.09   27.70
  -7   0   0  551.26   28.96
   7   0   1   -0.36    0.33
  -7   0  -1   -0.31    0.33
  -7   0  -1   -0.22    0.20
  -7   0  -2  142.67    8.11
  -7   0  -2  135.92    7.68
   7   0   2  150.14    7.81
   7   0   3    0.45    0.40
  -7   0  -3    0.63    0.44
  -7   0  -4  103.52    6.39
   7   0   4  114.89    6.11
   7   0   5    0.00    0.41
  -7   0  -5    0.71    0.56
   7   0   6   22.90    1.78
  -7   0  -6   24.68    2.17
  -7   0  -7   -0.62    0.60
   7  -1  -9   22.51    2.03
   7   1  -8   13.93    1.77
  -7   1   8   16.38    1.77
  -7   1   7   68.75    4.28
   7   1  -7   60.68    4.11
  -7  -1   7   63.06    4.00
  -7   1   6   18.94    1.81
   7  -1  -6   17.37    1.35
  -7  -1   6   15.69    1.44
  -7   1   5  104.75    6.08
  -7  -1   5  104.44    5.99
  -7  -1   5   97.33    5.81
   7  -1  -5   99.44    5.55
   7   1  -4   48.36    2.75
  -7   1   4   48.95    2.80
  -7   1   4   45.47    3.19
  -7  -1   4   44.77    2.90
  -7  -1   4   51.40    3.12
   7  -1  -4   50.06    2.83
  -7   1   3   44.92    2.63
   7   1  -3   45.94    2.72
  -7  -1   3   45.34    2.88
   7  -1  -3   47.29    2.70
  -7  -1   3   46.26    2.76
  -7   1   2   13.43    0.97
   7   1  -2   16.91    1.31
  -7   1   2   16.08    1.39
   7  -1  -2   15.12    1.15
  -7  -1   2   15.75    1.13
  -7  -1   2   15.27    1.22
   7   1  -1  112.11    6.00
  -7   1   1  114.42    6.22
  -7  -1   1  106.26    6.21
  -7  -1   1  102.09    6.06
   7  -1  -1  113.29    5.99
  -7   1   0    2.32    0.47
   7   1   0    2.99    0.55
  -7   1   0    2.85    0.52
  -7  -1   0    4.80    0.82
   7  -1   0    3.07    0.72
  -7  -1   0    3.95    0.47
  -7   1  -1    1.18    0.36
   7   1   1    1.62    0.47
  -7   1  -1    1.07    0.31
  -7  -1  -1    0.70    0.48
   7  -1   1    1.97    0.58
  -7   1  -2   11.35    0.82
  -7   1  -2   10.53    1.00
   7   1   2   11.01    1.09
  -7  -1  -2    8.90    1.21
   7   1   3   34.24    2.18
  -7   1  -3   32.20    2.20
  -7   1  -3   32.75    1.94
   7  -1   3   29.60    2.16
  -7  -1  -3   31.65    2.44
  -7   1  -4   10.86    1.30
   7   1   4   11.88    1.20
  -7  -1  -4    9.47    1.36
   7  -1   4   11.37    1.14
  -7   1  -5   31.17    2.44
   7   1   5   32.89    2.25
   7  -1   5   32.88    2.22
  -7  -1  -5   33.47    2.57
  -7   1  -6   28.36    2.31
   7   1   6   24.34    2.01
  -7  -1  -6   27.29    2.34
  -7   1  -7   28.92    2.51
   7   1   7   28.03    2.10
  -7  -1  -7   29.07    2.51
  -7   2   8    2.37    0.80
   7   2  -8    1.92    0.75
  -7  -2   8    1.91    0.60
   7   2  -7    7.14    1.15
  -7   2   7    6.29    1.15
  -7  -2   7    5.36    0.91
   7  -2  -7    7.20    1.01
  -7   2   6   -0.11    0.52
   7   2  -6   -0.29    0.54
  -7  -2   6    0.16    0.40
   7  -2  -6    0.30    0.43
  -7   2   5   58.54    4.26
   7   2  -5   71.03    4.16
   7  -2  -5   68.65    3.85
  -7  -2   5   67.36    4.03
   7   2  -4    2.31    0.61
  -7   2   4    1.09    0.56
   7  -2  -4    2.26    0.52
  -7  -2   4    2.44    0.49
  -7   2   3  100.83    6.07
   7   2  -3  103.06    5.82
   7   2  -3  106.30    5.59
  -7  -2   3   93.54    5.80
   7  -2  -3  106.96    5.60
  -7   2   2  167.40    9.35
   7  -2  -2  166.22    8.85
  -7  -2   2  165.55    9.24
  -7   2   1  224.64   13.05
   7   2  -1  217.55   12.35
   7   2  -1  232.96   12.68
   7  -2  -1  251.54   12.41
  -7  -2   1  250.72   13.04
  -7   2   0   41.06    2.59
   7   2   0   40.85    2.35
   7   2   0   44.22    2.51
  -7   2   0   37.76    2.45
   7  -2   0   42.20    2.61
  -7   2  -1  215.32   12.49
  -7   2  -1  221.50   12.37
   7   2   1  222.75   12.06
   7  -2   1  240.46   12.37
  -7  -2  -1  245.79   12.86
  -7   2  -2   51.36    3.08
   7   2   2   56.31    3.17
   7  -2   2   49.22    3.21
  -7  -2  -2   55.79    3.62
   7   2   3  134.57    6.85
  -7   2  -3  135.59    6.91
   7  -2   3  112.96    6.87
  -7  -2  -3  106.58    7.47
   7  -2   3  131.35    7.10
   7   2   4   10.04    1.21
  -7   2  -4   12.07    1.03
   7  -2   4   12.75    1.23
  -7  -2  -4    9.21    1.59
   7  -2   4   13.73    1.26
   7   2   5   30.78    2.16
   7  -2   5   29.35    2.23
  -7  -2  -5   28.20    2.65
   7   2   6    4.14    0.83
  -7  -2  -6    3.27    1.01
   7  -2   6    4.94    0.94
   7   2   7    2.38    0.68
  -7  -2  -7    1.34    0.97
  -7   3   8   47.41    3.36
   7   3  -8   44.66    3.22
  -7  -3   8   41.77    3.10
   7   3  -7    1.00    0.62
  -7   3   7   -0.12    0.51
  -7  -3   7    0.76    0.53
   7  -3  -7   -0.65    0.45
  -7   3   6   46.01    3.33
   7   3  -6   45.57    3.13
  -7  -3   6   44.29    3.02
   7  -3  -6   46.43    2.92
   7   3  -5    4.55    0.85
  -7   3   5    2.38    0.79
  -7  -3   5    2.75    0.64
   7  -3  -5    3.36    0.68
  -7   3   4  139.73    9.08
   7   3  -4  170.74    8.88
   7  -3  -4  158.72    8.49
  -7  -3   4  160.94    8.90
   7   3  -3   15.46    1.06
   7   3  -3   15.80    1.36
  -7   3   3   16.08    1.60
   7  -3  -3   16.12    1.31
  -7  -3   3   16.45    1.34
   7   3  -2   40.52    2.44
   7   3  -2   38.62    2.27
  -7   3   2   41.54    2.90
  -7  -3   2   37.77    2.52
   7  -3  -2   37.65    2.42
   7   3  -1    0.12    0.26
  -7   3   1   -0.34    0.35
   7   3  -1   -0.01    0.28
   7  -3  -1   -0.04    0.36
  -7  -3   1   -0.13    0.35
  -7   3   0   20.99    1.40
   7   3   0   23.37    1.52
  -7   3   0   25.05    1.71
   7  -3   0   22.14    1.61
  -7  -3   0   22.44    1.84
   7   3   1    5.20    0.75
  -7   3  -1    3.78    0.69
   7  -3   1    3.57    0.78
  -7  -3  -1    3.70    0.80
   7  -3   1    4.51    0.55
   7   3   2    9.04    1.04
  -7   3  -2    9.87    0.96
  -7  -3  -2   12.53    1.43
   7  -3   2    9.65    0.93
   7  -3   2   10.92    1.21
  -7   3  -3    0.86    0.40
   7   3   3    0.37    0.47
  -7  -3  -3    0.55    0.65
   7  -3   3   -0.15    0.34
   7  -3   3   -0.13    0.41
  -7   3  -4   70.00    4.10
   7   3   4   71.95    4.13
   7  -3   4   70.02    4.26
   7  -3   4   64.31    4.06
  -7  -3  -4   72.23    4.81
   7   3   5    2.03    0.66
  -7  -3  -5    0.83    0.75
   7  -3   5    2.17    0.61
   7   3   6   53.66    3.21
   7  -3   6   49.88    3.32
  -7  -3  -6   38.84    3.58
   7   3   7    1.28    0.57
  -7   4   8    2.22    0.77
   7   4  -8    0.41    0.68
  -7  -4   8    2.00    0.71
   7  -4  -8    2.10    0.67
   7   4  -7    5.93    1.12
  -7   4   7    8.05    1.39
   7  -4  -7    8.13    1.21
  -7   4   6   21.14    2.20
   7   4  -6   26.70    2.20
   7  -4  -6   26.66    2.01
  -7  -4   6   27.84    2.06
   7   4  -5   30.17    2.25
  -7  -4   5   30.09    2.18
   7  -4  -5   25.97    2.03
  -7   4   4   25.74    2.25
   7   4  -4   23.50    1.92
   7  -4  -4   24.21    1.79
  -7  -4   4   23.80    1.87
   7   4  -3   63.04    3.85
  -7   4   3   67.76    4.34
   7  -4  -3   61.03    3.71
  -7  -4   3   63.32    3.91
   7   4  -2   94.46    5.27
   7   4  -2   99.17    5.62
  -7   4   2   94.99    6.15
  -7  -4   2  101.75    5.80
   7  -4  -2  104.36    5.53
   7   4  -1  129.06    7.11
  -7   4   1  132.44    7.47
   7   4  -1  119.59    6.82
  -7  -4   1  134.02    7.44
   7  -4  -1  128.72    7.01
   7   4   0   34.04    2.04
   7   4   0   35.12    2.07
  -7   4   0   31.73    2.25
  -7  -4   0   34.59    2.46
   7  -4   0   30.94    2.14
  -7   4  -1  146.39    8.02
   7   4   1  144.96    7.70
   7  -4   1  133.16    7.82
   7  -4   1  148.36    7.95
   7   4   2   80.37    4.50
  -7   4  -2   75.88    4.62
  -7  -4  -2   83.59    5.08
   7  -4   2   80.89    4.61
   7  -4   2   75.04    4.70
   7   4   3   65.59    3.87
  -7   4  -3   67.42    3.93
  -7  -4  -3   70.74    4.40
   7  -4   3   66.60    3.95
   7  -4   3   56.67    3.83
   7   4   4   10.70    1.32
  -7   4  -4   11.99    1.23
  -7  -4  -4   14.80    1.83
   7  -4   4   11.16    1.28
  -7   4  -5   20.90    1.71
   7   4   5   21.71    1.85
  -7  -4  -5   23.79    2.41
   7  -4   5   22.92    1.89
   7   4   6   16.28    1.57
   7  -4   6   16.31    1.65
  -7  -4  -6   12.95    2.02
   7   4   7    7.15    1.21
  -7  -4  -7    5.96    1.24
   7  -4   7    4.28    0.91
   7   5  -7   55.47    3.68
  -7   5   7   50.82    3.83
  -7  -5   7   51.20    3.58
   7  -5  -7   53.39    3.49
   7   5  -6   17.04    1.72
   7  -5  -6   15.96    1.60
  -7  -5   6   14.09    1.55
   7   5  -5   51.53    3.24
  -7   5   5   42.11    3.50
   7  -5  -5   45.33    3.02
  -7  -5   5   46.10    3.14
  -7   5   4   16.18    1.81
   7   5  -4   13.56    1.50
  -7  -5   4   15.39    1.50
   7  -5  -4   15.55    1.46
  -7   5   3   11.55    1.70
   7   5  -3   10.37    1.24
   7  -5  -3   10.72    1.24
  -7  -5   3   11.70    1.31
  -7   5   2    2.95    0.87
   7   5  -2    3.27    0.64
  -7  -5   2    1.76    0.61
   7  -5  -2    2.46    0.66
  -7   5   1    5.15    0.94
   7   5  -1    6.16    0.68
   7   5  -1    5.70    0.82
  -7  -5   1    6.32    1.10
   7  -5  -1    7.20    1.02
  -7   5   0    1.59    0.56
   7   5   0    0.54    0.38
   7  -5   0    1.09    0.52
  -7  -5   0    1.00    0.58
   7   5   1    2.04    0.55
  -7   5  -1    1.69    0.59
  -7  -5  -1    1.29    0.66
   7  -5   1    1.95    0.56
   7   5   2   12.05    1.21
  -7   5  -2   11.35    1.24
   7  -5   2    9.59    1.16
   7  -5   2   12.29    1.06
   7   5   3   34.92    2.30
  -7   5  -3   31.07    2.31
  -7  -5  -3   33.44    2.79
   7  -5   3   32.91    2.26
  -7   5  -4    2.15    0.61
  -7  -5  -4    2.77    0.93
   7  -5   4    1.83    0.57
   7   5   5   28.41    2.23
  -7   5  -5   27.78    2.20
   7  -5   5   29.39    2.28
  -7  -5  -5   34.29    2.83
   7   5   6   14.95    1.67
   7  -5   6   15.21    1.64
   7   6  -7   -0.56    0.61
  -7   6   7    0.23    0.62
  -7  -6   7   -0.04    0.51
   7  -6  -7   -0.13    0.56
   7   6  -6    9.12    1.54
  -7  -6   6   11.93    1.41
   7  -6  -6   11.35    1.46
   7   6  -5    3.23    0.87
  -7   6   5    3.50    0.96
   7  -6  -5    3.43    0.87
  -7  -6   5    4.34    0.84
   7   6  -4   73.33    4.60
  -7   6   4   77.99    5.11
  -7  -6   4   73.29    4.66
   7  -6  -4   74.12    4.45
   7   6  -3    3.21    0.74
  -7   6   3    3.50    1.07
   7  -6  -3    4.12    0.85
  -7  -6   3    2.94    0.74
  -7   6   2   96.88    6.17
   7   6  -2   97.48    5.62
   7  -6  -2   93.54    5.49
  -7  -6   2   97.05    5.80
   7   6  -1    5.36    0.91
  -7   6   1    4.81    0.97
   7  -6  -1    6.17    0.93
  -7  -6   1    4.25    0.84
  -7   6   0  151.39    8.71
   7   6   0  143.02    8.15
   7  -6   0  148.52    8.31
  -7  -6   0  169.04    8.96
   7   6   1    1.09    0.46
  -7   6  -1    2.48    0.68
   7  -6   1    0.95    0.51
  -7  -6  -1    1.53    0.70
  -7   6  -2   58.97    3.66
   7   6   2   58.80    3.45
  -7  -6  -2   52.29    3.88
   7   6   3    3.32    0.75
  -7   6  -3    3.40    0.78
  -7  -6  -3    2.88    0.99
   7  -6   3    4.85    0.80
   7   6   4   48.62    3.28
  -7   6  -4   54.43    3.41
  -7  -6  -4   50.87    3.81
   7  -6   4   50.15    3.28
  -7   6  -5    0.91    0.53
   7   6   5    0.24    0.57
  -7  -6  -5   -1.41    0.68
   7  -6   5    1.05    0.53
  -7  -6  -6    8.59    1.52
   7  -6   6    7.88    1.26
   7   7  -6   15.36    1.80
  -7  -7   6   15.04    1.65
   7  -7  -6   17.48    1.81
  -7   7   5    9.98    1.69
   7   7  -5   10.79    1.50
  -7  -7   5   10.90    1.46
   7  -7  -5    9.75    1.48
   7   7  -4    7.11    1.26
  -7   7   4    6.68    1.36
  -7  -7   4    8.49    1.29
   7  -7  -4    8.33    1.35
  -7   7   3   10.72    1.78
   7   7  -3   10.31    1.32
   7  -7  -3   12.94    1.43
  -7  -7   3   10.13    1.49
   7   7  -2    9.65    1.21
  -7   7   2    8.75    1.50
   7  -7  -2    8.05    1.26
  -7  -7   2    8.67    1.37
  -7   7   1    0.27    0.60
  -7  -7   1    1.21    0.67
   7  -7  -1    0.98    0.67
  -7   7   0    1.51    0.66
   7  -7   0    1.21    0.57
  -7  -7   0    0.86    0.66
  -7   7  -1    0.80    0.61
   7   7   1    1.70    0.53
  -7  -7  -1    0.37    0.61
  -7   7  -2    1.21    0.64
   7   7   2    1.09    0.57
  -7  -7  -2    3.10    0.82
   7   7   3    4.08    0.83
  -7  -7  -3    2.64    0.87
  -7   7  -4    3.30    0.76
   7   7   4    5.07    0.96
  -7  -7  -4    3.12    0.95
  -7   7  -5   10.82    1.35
   7   7   5   12.00    1.47
  -7  -7  -5    8.55    1.52
  -7   8   5   13.89    2.02
   7   8  -5   19.62    1.87
  -7  -8   5   18.47    1.99
   7  -8  -5   20.02    1.95
   7   8  -4    0.59    0.61
  -7   8   4    1.11    0.74
   7  -8  -4    1.92    0.82
  -7  -8   4    1.21    0.65
   7   8  -3   46.98    3.47
  -7   8   3   47.50    4.04
  -7  -8   3   57.14    3.68
   7  -8  -3   54.17    3.48
  -7   8   2    8.68    1.63
   7  -8  -2   13.04    1.50
  -7  -8   2   13.03    1.64
  -7   8   1   55.24    4.07
   7  -8  -1   58.50    3.73
  -7  -8   1   62.14    4.02
  -7   8   0    0.06    0.57
  -7  -8   0    1.15    0.66
  -7   8  -1   62.16    4.23
  -7  -8  -1   68.06    4.38
  -7   8  -2    2.45    0.86
   7   8   2    2.45    0.65
  -7  -8  -2    2.85    0.84
  -7   8  -3   34.33    2.66
   7   8   3   34.68    2.47
  -7  -8  -3   33.86    2.78
   7   8   4    2.02    0.72
  -7   8  -4   -0.15    0.58
  -7  -8  -4   -0.28    0.63
  -7   9   3    1.78    0.82
  -7  -9   3   -0.41    0.53
   7  -9  -3   -0.89    0.65
  -7   9   2    5.06    1.12
   7  -9  -2    4.57    0.96
  -7  -9   2    5.01    1.01
  -7   9   1    1.02    0.69
  -7  -9   1    1.54    0.72
  -7   9   0    1.80    0.71
  -7  -9   0    0.84    0.64
  -7   9  -1    1.04    0.62
  -7  -9  -1    0.29    0.60
  -7   9  -2    2.20    0.76
  -7  -9  -2    2.47    0.73
   8   0  -8   18.69    1.95
  -8   0   7    0.05    0.53
  -8   0   6   44.56    3.19
   8   0  -5   -0.22    0.31
  -8   0   5   -0.15    0.51
  -8   0   5   -0.26    0.25
  -8   0   4  267.43   14.74
   8   0  -4  267.89   13.99
  -8   0   4  266.01   14.60
  -8   0   3    0.49    0.42
   8   0  -3    0.38    0.29
  -8   0   3   -0.16    0.20
   8   0  -2  126.06    6.63
  -8   0   2  127.62    6.69
  -8   0   2  105.95    6.76
  -8   0   1   -0.28    0.28
  -8   0   1   -0.37    0.27
   8   0  -1    0.15    0.39
   8   0   0  244.88   13.36
  -8   0   0  255.86   13.61
  -8   0   0  254.79   13.93
   8   0   1    0.80    0.48
  -8   0  -1    0.35    0.41
  -8   0  -1   -0.04    0.22
  -8   0  -2   78.62    4.76
   8   0   2   75.77    4.53
   8   0   3    0.54    0.51
  -8   0  -3   -0.70    0.43
  -8   0  -4   37.11    2.80
   8   0   4   42.96    2.70
   8   0   5   -0.16    0.47
  -8   0  -5   -0.25    0.54
   8   0   6   -0.18    0.42
  -8   0  -6    0.34    0.61
  -8   0  -7    0.68    0.65
   8   1  -8    4.41    1.02
  -8   1   8    5.54    1.07
  -8   1   7   16.87    1.94
   8   1  -7   18.12    1.85
  -8   1   6   18.88    1.89
   8  -1  -6   17.99    1.40
  -8  -1   6   17.75    1.53
  -8   1   5    9.06    1.32
   8  -1  -5    7.41    0.93
  -8  -1   5    9.88    1.28
  -8  -1   5    7.73    0.91
   8   1  -4   17.97    1.33
  -8  -1   4   17.67    1.38
   8  -1  -4   19.47    1.41
  -8  -1   4   20.18    1.70
   8   1  -3    7.78    0.88
  -8   1   3    6.49    1.07
  -8   1   3    7.54    0.63
  -8  -1   3    7.24    0.80
  -8  -1   3    9.64    1.08
   8  -1  -3    8.68    0.88
   8   1  -2   31.07    2.00
  -8   1   2   30.53    2.08
  -8   1   2   26.53    1.67
  -8  -1   2   26.90    1.83
  -8  -1   2   25.72    1.90
   8  -1  -2   27.32    1.83
  -8   1   1    1.63    0.41
  -8  -1   1    1.79    0.42
  -8  -1   1    2.70    0.52
  -8   1   0    1.51    0.46
   8   1   0    1.30    0.48
  -8   1   0    2.04    0.51
  -8  -1   0    1.50    0.33
   8  -1   0    1.99    0.64
  -8  -1   0    1.69    0.55
  -8   1  -1   76.29    4.76
   8   1   1   71.90    4.59
  -8   1  -1   77.74    4.59
   8  -1   1   86.92    4.71
  -8  -1  -1   91.74    5.00
  -8   1  -2   52.45    2.81
   8   1   2   55.27    3.07
  -8   1  -2   51.17    3.04
   8  -1   2   39.76    2.98
  -8  -1  -2   41.06    3.26
   8   1   3   96.60    5.16
  -8   1  -3   92.04    5.30
   8  -1   3   85.98    5.16
  -8  -1  -3   82.00    5.57
   8   1   4   15.89    1.51
  -8   1  -4   17.50    1.63
   8  -1   4   16.81    1.51
  -8  -1  -4   13.98    1.78
  -8   1  -5   84.58    5.21
   8   1   5   80.71    4.89
  -8  -1  -5   81.52    5.39
   8  -1   5   88.09    4.92
  -8   1  -6   24.62    2.20
   8   1   6   23.16    1.90
  -8  -1  -6   21.63    2.30
  -8   1  -7   43.43    3.34
   8   1   7   43.19    2.94
  -8  -1  -7   46.74    3.48
  -8   2   8    0.72    0.77
   8   2  -8    1.26    0.69
  -8   2   7   64.22    4.38
   8   2  -7   65.57    4.28
   8  -2  -7   64.21    3.85
  -8  -2   7   63.07    4.08
  -8   2   6   17.69    1.91
   8   2  -6   20.42    1.91
  -8  -2   6   20.06    1.63
   8  -2  -6   18.48    1.53
   8   2  -5   63.02    3.98
  -8  -2   5   59.52    3.83
   8  -2  -5   65.08    3.69
   8   2  -4   11.53    1.35
  -8   2   4    8.09    1.32
  -8  -2   4   12.82    1.14
   8  -2  -4   12.30    1.11
  -8   2   3  108.80    6.34
   8   2  -3  113.65    5.85
   8  -2  -3  101.72    5.84
  -8  -2   3  101.87    6.08
  -8   2   2   60.46    3.49
   8   2  -2   46.52    3.12
  -8  -2   2   53.66    3.31
   8  -2  -2   56.90    3.21
  -8   2   1  213.15   12.61
  -8   2   1  238.12   12.88
  -8  -2   1  236.07   12.89
   8  -2  -1  240.00   12.27
   8   2   0    6.80    0.62
   8   2   0    7.82    0.90
  -8   2   0    5.93    0.73
  -8   2   0    8.27    0.92
   8  -2   0    8.02    1.04
  -8  -2   0    5.14    0.92
  -8   2  -1  148.88    9.19
  -8   2  -1  156.71    9.12
   8   2   1  175.97    8.99
   8  -2   1  177.19    9.21
  -8  -2  -1  175.43    9.54
  -8   2  -2   32.10    2.21
  -8   2  -2   33.27    2.11
   8   2   2   33.03    2.24
  -8  -2  -2   36.34    2.66
   8  -2   2   34.51    2.36
  -8   2  -3   45.77    2.94
   8   2   3   44.78    2.88
  -8   2  -3   46.95    2.73
  -8  -2  -3   41.88    3.30
   8   2   4    2.79    0.72
   8  -2   4    3.21    0.74
  -8  -2  -4    1.49    0.68
   8   2   5    5.06    0.85
  -8  -2  -5    2.42    0.98
   8  -2   5    4.62    0.88
   8   2   6   -0.24    0.55
  -8   2  -6   -0.67    0.60
  -8  -2  -6   -0.94    0.65
  -8   2  -7    0.33    0.70
   8   2   7    1.46    0.59
  -8  -2  -7   -0.18    0.78
  -8   3   8   31.21    2.72
   8   3  -8   28.84    2.54
  -8  -3   8   33.58    2.49
   8   3  -7   10.26    1.60
  -8   3   7   12.68    1.64
   8  -3  -7   12.29    1.39
  -8  -3   7   13.82    1.44
   8   3  -6   53.62    3.46
  -8   3   6   45.46    3.59
   8  -3  -6   50.21    3.16
  -8  -3   6   50.35    3.28
   8   3  -5    7.32    1.27
  -8  -3   5    7.63    1.04
   8  -3  -5    7.13    1.04
   8   3  -4   25.41    1.99
  -8   3   4   24.10    2.17
  -8  -3   4   24.25    1.85
   8  -3  -4   23.53    1.77
   8   3  -3    2.55    0.44
   8   3  -3    3.08    0.67
  -8   3   3    2.12    0.70
   8  -3  -3    1.74    0.55
  -8  -3   3    3.09    0.59
   8   3  -2    7.51    0.75
   8   3  -2    7.42    0.88
  -8   3   2    5.89    1.08
   8  -3  -2    5.40    0.93
  -8  -3   2    7.80    1.01
   8   3  -1    7.74    0.79
   8   3  -1    6.42    0.80
  -8   3   1    8.80    1.15
  -8  -3   1    9.07    1.13
   8  -3  -1    7.84    0.94
  -8   3   0   22.57    1.47
  -8   3   0   22.48    1.76
   8   3   0   25.59    1.64
  -8  -3   0   18.56    1.87
   8  -3   0   25.96    1.78
  -8   3  -1    6.47    0.78
  -8   3  -1    5.46    0.71
   8   3   1    6.42    0.89
  -8  -3  -1    5.15    0.98
   8  -3   1    4.97    0.98
  -8   3  -2   40.66    2.66
   8   3   2   41.83    2.69
   8  -3   2   41.64    2.66
  -8  -3  -2   46.94    3.11
   8  -3   2   43.40    2.84
   8   3   3    1.18    0.53
  -8   3  -3    0.57    0.39
   8  -3   3    0.67    0.40
   8  -3   3    0.87    0.55
  -8  -3  -3    1.14    0.72
   8   3   4  109.34    5.94
  -8   3  -4  104.71    5.98
  -8  -3  -4  113.26    6.70
   8  -3   4   88.55    5.87
   8  -3   4  106.12    6.14
   8   3   5    0.01    0.57
   8  -3   5    0.65    0.50
  -8  -3  -5    0.33    0.64
   8   3   6   40.08    2.75
   8  -3   6   37.48    2.83
   8   3   7    0.26    0.53
  -8   4   8    0.88    0.63
  -8  -4   8    2.50    0.66
   8  -4  -8    1.03    0.60
  -8   4   7   34.46    2.95
   8   4  -7   38.31    2.91
   8  -4  -7   36.85    2.63
  -8  -4   7   38.28    2.76
   8   4  -6   26.23    2.24
  -8  -4   6   26.13    2.07
   8  -4  -6   23.60    1.99
  -8   4   5   33.75    2.99
   8   4  -5   43.52    2.90
  -8  -4   5   42.68    2.79
   8  -4  -5   40.59    2.67
  -8   4   4   70.27    4.38
   8   4  -4   64.09    3.99
   8  -4  -4   61.91    3.79
  -8  -4   4   59.81    3.96
  -8   4   3   42.19    2.93
   8   4  -3   35.59    2.51
  -8  -4   3   36.78    2.56
   8  -4  -3   34.51    2.42
   8   4  -2  112.48    6.12
   8   4  -2  100.63    5.76
  -8   4   2  101.33    6.62
   8  -4  -2  109.68    6.01
  -8  -4   2  113.25    6.34
   8   4  -1  116.20    6.53
   8   4  -1  120.70    6.76
  -8   4   1  117.22    7.16
   8  -4  -1  125.04    6.72
  -8  -4   1  129.49    7.16
  -8   4   0   45.71    2.94
   8   4   0   45.30    2.66
   8  -4   0   43.79    2.77
  -8  -4   0   40.95    3.06
  -8   4  -1  124.43    6.76
   8   4   1  122.89    6.50
   8  -4   1  128.34    6.65
   8  -4   1  113.67    6.71
  -8  -4  -1  100.67    7.04
   8   4   2   35.99    2.36
  -8   4  -2   32.58    2.38
  -8  -4  -2   39.26    2.86
   8  -4   2   36.81    2.57
   8  -4   2   34.51    2.30
  -8   4  -3   28.98    2.09
   8   4   3   30.12    2.15
   8  -4   3   26.28    2.13
   8  -4   3   30.78    2.11
  -8  -4  -3   32.79    2.57
  -8   4  -4    7.15    0.93
   8   4   4    5.41    0.92
   8  -4   4    4.25    0.80
  -8  -4  -4    6.34    1.26
   8   4   5    3.36    0.81
  -8  -4  -5    3.72    1.08
   8  -4   5    3.05    0.72
   8   4   6   -0.12    0.54
  -8  -4  -6    0.57    0.78
   8  -4   6    0.82    0.56
  -8   5   7   38.18    3.38
   8   5  -7   46.53    3.27
  -8  -5   7   45.40    3.17
   8  -5  -7   45.41    3.06
   8   5  -6    4.70    1.01
  -8  -5   6    6.56    1.16
   8  -5  -6    5.40    0.97
   8   5  -5   12.39    1.52
  -8   5   5    9.83    1.73
  -8  -5   5   12.45    1.38
   8  -5  -5   12.06    1.41
  -8   5   4    2.00    0.83
   8   5  -4    1.27    0.64
  -8  -5   4    1.98    0.62
   8  -5  -4    1.69    0.65
  -8   5   3   17.03    1.85
   8   5  -3   11.34    1.33
  -8  -5   3   12.41    1.42
   8  -5  -3   12.16    1.34
   8   5  -2    1.01    0.49
  -8   5   2   -0.17    0.49
   8  -5  -2    0.58    0.59
  -8  -5   2    1.37    0.63
   8   5  -1    8.58    0.86
  -8   5   1    6.81    1.17
   8   5  -1   10.16    1.05
   8  -5  -1   10.40    1.23
  -8  -5   1   10.96    1.36
  -8   5   0    1.37    0.61
   8   5   0    1.12    0.42
   8  -5   0    1.07    0.51
  -8  -5   0    0.81    0.61
   8   5   1   59.97    3.31
  -8   5  -1   61.94    3.55
   8  -5   1   50.15    3.39
  -8  -5  -1   47.03    3.71
  -8   5  -2    2.75    0.67
   8   5   2    2.12    0.66
   8  -5   2    3.59    0.81
  -8  -5  -2    2.24    0.90
   8   5   3   47.43    3.06
  -8   5  -3   45.22    3.06
  -8  -5  -3   49.16    3.58
   8  -5   3   47.57    3.03
  -8   5  -4    0.62    0.48
   8   5   4    2.48    0.76
  -8  -5  -4    1.91    0.91
   8  -5   4    1.56    0.56
  -8   5  -5   39.20    2.81
   8   5   5   38.39    2.80
  -8  -5  -5   40.80    3.27
   8  -5   5   41.81    2.84
   8   5   6    4.34    0.90
   8  -5   6    4.20    0.87
  -8  -5  -6    6.24    1.34
   8   6  -6   23.47    2.16
   8  -6  -6   19.03    1.95
  -8  -6   6   25.12    2.05
   8   6  -5    5.19    1.04
  -8   6   5    5.81    1.32
   8  -6  -5    5.95    1.01
  -8  -6   5    6.60    1.18
   8   6  -4  128.22    7.40
  -8   6   4  132.63    7.89
   8  -6  -4  121.50    7.11
  -8  -6   4  125.83    7.49
  -8   6   3   26.31    2.56
   8   6  -3   24.39    2.04
   8  -6  -3   25.45    2.02
  -8  -6   3   26.12    2.17
  -8   6   2  116.64    7.47
   8   6  -2  116.07    6.87
   8  -6  -2  121.52    6.76
  -8  -6   2  125.56    7.17
  -8   6   1    9.26    1.47
  -8  -6   1   12.20    1.51
   8  -6  -1    9.84    1.28
   8   6   0   96.92    5.63
  -8   6   0  103.10    6.14
   8  -6   0  102.09    5.80
  -8  -6   0  108.55    6.33
   8   6   1    0.77    0.50
  -8   6  -1    1.07    0.58
  -8  -6  -1    0.01    0.62
   8  -6   1    0.41    0.47
   8   6   2   37.38    2.50
  -8   6  -2   38.12    2.72
   8   6   3   -0.64    0.50
  -8  -6  -3   -0.06    0.77
  -8   6  -4    9.66    1.28
   8   6   4    9.63    1.36
  -8  -6  -4   10.89    1.81
   8   6   5    0.52    0.64
  -8  -6  -5    2.60    0.95
   8  -6   5    0.76    0.51
   8   7  -6    8.32    1.45
  -8   7   6    5.06    1.21
  -8   7   5   10.33    1.74
   8   7  -5   12.14    1.62
  -8  -7   5   11.04    1.47
   8  -7  -5   11.62    1.55
  -8   7   4    3.40    1.00
   8   7  -4    3.46    0.88
   8  -7  -4    2.61    0.81
  -8  -7   4    3.04    0.81
   8   7  -3   -0.16    0.47
  -8   7   3   -0.60    0.62
   8  -7  -3    0.40    0.64
  -8  -7   3    0.22    0.64
  -8   7   2    5.78    1.21
  -8  -7   2    9.87    1.44
   8  -7  -2    9.36    1.33
  -8   7   1    0.35    0.66
  -8  -7   1   -0.18    0.66
   8  -7  -1    0.06    0.53
  -8   7   0    5.74    1.06
   8  -7   0    7.49    1.07
  -8  -7   0    8.07    1.43
   8   7   1   11.81    1.20
  -8   7  -1   11.02    1.48
  -8  -7  -1   16.74    1.86
  -8   7  -2   36.67    2.64
   8   7   2   32.24    2.30
  -8  -7  -2   30.88    2.74
   8   7   3   25.36    2.06
  -8   7  -3   28.33    2.24
  -8   7  -4   14.71    1.60
  -8  -7  -4   17.74    2.09
  -8   8   5   39.73    3.38
   8   8  -5   40.90    2.98
  -8   8   4    1.63    0.83
   8   8  -4    3.07    0.79
  -8  -8   4    0.97    0.70
   8  -8  -4    1.90    0.79
  -8   8   3   87.72    6.31
   8  -8  -3   93.51    5.53
  -8  -8   3   94.70    5.84
  -8   8   2   14.49    1.89
   8  -8  -2   16.55    1.74
  -8  -8   2   17.17    1.89
  -8   8   1   64.31    4.63
  -8  -8   1   76.47    4.70
   8  -8  -1   65.48    4.24
  -8   8   0    0.44    0.62
  -8  -8   0    1.69    0.74
  -8   8  -1   31.63    2.57
  -8  -8  -1   34.96    2.76
   8   8   2    0.67    0.57
  -8   8  -2    0.76    0.64
  -8  -8  -2    2.03    0.88
   8   8   3    6.77    1.16
  -8  -8  -3    5.01    1.10
   8  -9  -3   -0.16    0.61
   8  -9  -2    0.16    0.63
  -8  -9   2    0.78    0.72
  -8   9   1    2.62    0.84
  -8  -9   1    1.87    0.82
  -8   9   0   30.83    2.62
  -8  -9   0   31.00    2.66
  -8   9  -1    3.23    0.85
  -8  -9  -1    3.97    0.96
  -9   0   7   -0.23    0.61
  -9   0   6  188.88   10.82
   9   0  -5    0.10    0.29
  -9   0   5   -0.27    0.54
  -9   0   4  268.50   17.20
   9   0  -4  331.60   16.48
  -9   0   4  342.14   17.17
   9   0  -3   -0.10    0.33
  -9   0   3    0.35    0.26
  -9   0   3   -0.18    0.44
  -9   0   2  106.74    5.94
   9   0  -2   94.71    5.81
  -9   0   2  105.25    5.80
   9   0  -1   -0.07    0.41
  -9   0   1   -0.45    0.30
  -9   0   1   -0.44    0.28
  -9   0   0   57.94    3.42
  -9   0   0   57.15    3.57
   9   0   0   58.62    3.52
   9   0   1    0.90    0.53
  -9   0  -1   -0.58    0.34
  -9   0  -1    0.11    0.22
   9   0   2   17.29    1.65
  -9   0  -2   16.79    1.67
  -9   0  -3   -0.67    0.48
   9   0   3    0.16    0.51
   9   0   4    3.13    0.76
  -9   0  -4    3.48    0.83
  -9   0  -5   -0.73    0.48
   9   0   5   -0.02    0.54
  -9   0  -6    0.34    0.67
   9   0   6    1.82    0.64
  -9   0  -7    0.46    0.65
   9   1  -8    5.67    1.17
  -9   1   8    4.88    1.08
   9   1  -7    2.87    0.90
  -9   1   7    2.45    0.86
  -9   1   6    5.02    1.07
   9  -1  -6    5.57    0.82
  -9  -1   6    5.23    1.07
  -9   1   5    1.01    0.62
  -9  -1   5    0.82    0.37
   9  -1  -5    0.17    0.42
  -9  -1   5    0.91    0.59
  -9   1   4    6.80    1.17
   9   1  -4    8.29    0.89
  -9  -1   4    9.06    1.27
   9  -1  -4    8.20    0.96
  -9  -1   4    9.22    0.95
  -9   1   3    4.07    0.81
   9   1  -3    5.58    0.80
  -9  -1   3    5.35    0.73
   9  -1  -3    6.39    0.83
  -9  -1   3    4.67    0.83
  -9   1   2   30.97    2.00
  -9   1   2   36.85    2.37
   9   1  -2   38.40    2.32
  -9  -1   2   33.03    2.19
   9  -1  -2   34.75    2.22
  -9  -1   2   27.71    2.20
  -9   1   1   87.68    5.50
   9   1  -1  106.52    5.46
  -9   1   1  105.91    5.58
   9  -1  -1  100.54    5.63
  -9  -1   1   82.81    5.42
  -9   1   0   17.48    1.37
   9   1   0   13.38    1.35
  -9   1   0   15.21    1.27
  -9  -1   0   12.39    1.09
  -9  -1   0   18.37    1.52
   9  -1   0   16.17    1.54
  -9   1  -1   62.06    3.86
   9  -1   1   69.08    3.98
   9   1   2   69.71    4.26
  -9   1  -2   69.66    4.06
  -9   1  -2   70.33    4.36
   9  -1   2   77.69    4.34
  -9  -1  -2   68.46    4.58
  -9   1  -3   89.22    4.99
   9   1   3   93.05    4.88
  -9  -1  -3   68.93    5.17
   9  -1   3   73.48    4.82
   9   1   4   12.43    1.44
  -9   1  -4   10.42    1.43
   9  -1   4   11.97    1.37
  -9  -1  -4   11.32    1.65
  -9   1  -5   51.81    3.66
   9   1   5   55.18    3.51
  -9  -1  -5   51.30    3.92
   9  -1   5   56.14    3.48
   9   1   6   26.79    2.15
  -9   1  -6   26.89    2.41
  -9  -1  -6   26.88    2.57
  -9   1  -7   17.64    1.97
   9   1   7   15.84    1.66
  -9  -1  -7   16.61    2.11
   9   2  -8    2.63    0.93
  -9   2   8    3.09    0.95
   9   2  -7   53.00    3.64
  -9   2   7   45.75    3.58
   9  -2  -7   48.84    3.12
   9   2  -6   69.97    4.38
  -9   2   6   55.19    4.36
  -9  -2   6   71.63    4.16
   9  -2  -6   68.43    3.95
   9   2  -5   74.77    4.78
   9  -2  -5   81.47    4.48
  -9  -2   5   75.08    4.63
  -9   2   4   68.88    4.67
  -9  -2   4   74.90    4.46
   9  -2  -4   78.60    4.31
  -9   2   3  171.25    9.26
   9   2  -3  160.46    8.67
  -9  -2   3  155.17    9.06
   9  -2  -3  158.98    8.70
  -9   2   2   27.19    2.02
   9   2  -2   25.41    1.81
  -9  -2   2   28.02    1.94
   9  -2  -2   26.48    1.85
  -9  -2   2   25.34    1.85
   9   2  -1   66.17    4.28
  -9   2   1   86.26    4.67
  -9  -2   1   69.69    4.56
   9  -2  -1   79.58    4.41
  -9   2   0   -0.16    0.36
   9   2   0    0.02    0.44
  -9   2   0    0.17    0.31
   9   2   0    0.40    0.23
  -9  -2   0    0.32    0.54
   9  -2   0    0.28    0.45
  -9   2  -1   38.52    2.64
  -9   2  -1   38.31    2.61
   9   2   1   39.77    2.69
  -9  -2  -1   44.99    2.94
   9  -2   1   48.61    2.94
   9   2   2    7.10    1.06
  -9   2  -2    6.34    0.93
  -9   2  -2    6.27    0.71
  -9  -2  -2    4.79    1.00
   9  -2   2    6.18    0.99
  -9   2  -3    2.46    0.66
   9   2   3    2.45    0.74
   9  -2   3    1.89    0.74
  -9  -2  -3    2.49    0.81
   9   2   4    5.00    0.92
  -9   2  -4    4.04    0.87
   9  -2   4    4.76    0.92
  -9  -2  -4    3.51    0.98
   9   2   5    1.80    0.67
  -9   2  -5    1.83    0.79
  -9  -2  -5    1.05    0.69
   9  -2   5    2.93    0.70
   9   2   6    1.78    0.73
  -9   2  -6    0.21    0.67
  -9  -2  -6    0.40    0.75
   9   2   7   14.31    1.46
  -9   2  -7    8.98    1.68
  -9   3   8   21.47    2.24
   9   3  -8   19.45    2.01
  -9   3   7    0.48    0.61
   9   3  -7    1.13    0.80
   9  -3  -7    2.07    0.65
  -9  -3   7    2.01    0.66
   9   3  -6   21.21    2.03
   9  -3  -6   21.16    1.70
  -9  -3   6   18.92    1.74
   9   3  -5    0.92    0.64
  -9   3   5    0.90    0.68
  -9  -3   5    0.83    0.47
   9  -3  -5    1.42    0.58
  -9   3   4   53.54    3.70
   9   3  -4   55.48    3.55
  -9  -3   4   53.78    3.42
   9  -3  -4   51.91    3.28
  -9   3   3   -0.87    0.42
   9   3  -3   -0.19    0.47
   9   3  -3   -0.15    0.31
   9  -3  -3    0.09    0.47
  -9  -3   3    0.11    0.39
   9   3  -2   48.74    3.15
  -9   3   2   60.60    3.69
   9   3  -2   55.30    3.32
   9  -3  -2   51.12    3.26
  -9  -3   2   56.09    3.49
  -9   3   1    9.62    1.25
   9   3  -1    9.35    0.89
   9   3  -1    8.20    0.95
  -9  -3   1    8.76    1.24
   9  -3  -1    7.79    1.07
   9   3   0  141.91    7.71
  -9   3   0  136.80    8.07
   9  -3   0  146.75    7.91
  -9   3  -1    0.41    0.32
  -9   3  -1   -0.15    0.35
   9   3   1    0.83    0.48
   9  -3   1    0.14    0.53
  -9  -3  -1    0.22    0.57
  -9   3  -2   79.09    4.74
   9   3   2   77.85    4.68
  -9   3  -2   79.42    4.69
   9  -3   2   82.03    4.78
  -9  -3  -2   85.04    5.10
   9   3   3    7.20    1.16
  -9   3  -3    8.80    1.20
  -9   3  -3    8.37    0.99
   9  -3   3    7.04    1.18
  -9  -3  -3    8.64    1.53
   9   3   4  102.63    6.01
  -9  -3  -4  107.11    6.69
   9   3   5    2.44    0.80
  -9  -3  -5    1.05    0.84
   9   3   6   44.70    3.09
  -9   3  -6   42.86    3.24
  -9  -3  -6   42.78    3.50
   9   4  -7   34.27    2.72
  -9  -4   7   30.37    2.46
   9  -4  -7   32.12    2.40
   9   4  -6   32.28    2.49
  -9  -4   6   26.37    2.22
   9  -4  -6   27.78    2.15
   9   4  -5   44.99    3.14
  -9   4   5   44.93    3.38
   9  -4  -5   44.49    2.91
  -9  -4   5   43.70    3.01
  -9   4   4   11.55    1.58
   9   4  -4   10.46    1.42
   9  -4  -4   10.30    1.26
  -9  -4   4   12.28    1.35
   9   4  -3   55.76    3.57
  -9   4   3   58.93    3.88
  -9  -4   3   58.09    3.67
   9  -4  -3   53.67    3.46
   9   4  -2   62.66    3.85
   9   4  -2   61.11    3.60
  -9   4   2   63.39    4.34
   9  -4  -2   63.68    3.85
  -9  -4   2   69.26    4.12
   9   4  -1   67.26    3.80
  -9   4   1   67.07    4.36
   9  -4  -1   62.42    3.92
  -9  -4   1   68.73    4.30
  -9   4   0   47.98    3.19
   9   4   0   49.52    2.93
   9  -4   0   45.76    3.05
   9   4   1   17.48    1.46
  -9   4  -1   16.91    1.48
   9  -4   1   13.98    1.57
  -9  -4  -1   16.54    1.91
   9   4   2    3.84    0.79
  -9   4  -2    4.00    0.72
   9  -4   2    4.89    0.74
   9  -4   2    4.10    0.91
  -9  -4  -2    3.21    0.91
   9   4   3    2.35    0.69
  -9   4  -3    1.40    0.56
   9  -4   3    0.60    0.41
  -9  -4  -3    0.82    0.67
   9  -4   3    1.05    0.60
   9   4   4    0.87    0.69
  -9  -4  -4    1.03    0.79
   9  -4   4    0.34    0.44
   9   4   5    3.66    0.85
   9  -4   5    2.01    0.62
  -9  -4  -5    2.65    0.97
   9   4   6    5.06    0.97
   9  -4   6    5.81    1.03
  -9  -4  -6    7.09    1.35
   9   5  -7    1.28    0.75
   9  -5  -7   -0.54    0.59
  -9  -5   7   -0.23    0.47
   9   5  -6   -0.03    0.68
  -9  -5   6    0.49    0.55
   9  -5  -6   -0.06    0.61
   9   5  -5    0.45    0.65
  -9   5   5   -0.42    0.66
   9  -5  -5    0.04    0.57
  -9  -5   5    0.32    0.49
   9   5  -4    0.93    0.63
  -9   5   4    1.16    0.66
   9  -5  -4    1.24    0.62
  -9  -5   4    0.92    0.61
   9   5  -3    1.45    0.63
  -9   5   3    1.39    0.77
   9  -5  -3    2.66    0.75
  -9  -5   3    2.35    0.70
  -9   5   2   62.47    4.80
   9   5  -2   74.42    4.34
  -9  -5   2   77.27    4.65
   9  -5  -2   73.29    4.32
   9   5  -1   67.74    3.94
  -9   5   1   68.62    4.56
   9  -5  -1   66.75    4.15
  -9  -5   1   75.60    4.57
   9   5   0    0.50    0.44
  -9   5   0    1.11    0.63
   9  -5   0    1.33    0.60
  -9  -5   0    1.51    0.71
   9   5   1   69.01    3.98
  -9   5  -1   69.79    4.22
   9  -5   1   64.18    4.16
  -9   5  -2    3.52    0.77
   9   5   2    3.72    0.78
   9  -5   2    3.56    0.80
  -9  -5  -2    2.45    0.97
  -9   5  -3   99.88    6.05
   9   5   3   98.16    5.92
  -9  -5  -3  113.41    6.61
  -9   5  -4    8.09    1.07
   9   5   4    6.27    1.07
  -9  -5  -4    5.39    1.18
   9  -5   4    8.00    1.05
   9   5   5   49.59    3.36
  -9  -5  -5   50.15    3.77
   9  -5   5   49.60    3.33
   9  -5   6    4.76    0.90
  -9   6   6   30.96    2.91
   9   6  -6   38.99    2.82
   9  -6  -6   36.06    2.63
  -9  -6   6   32.13    2.64
   9   6  -5    4.46    1.01
  -9   6   5    6.76    1.34
   9  -6  -5    7.10    1.23
  -9  -6   5    5.40    0.96
  -9   6   4  100.57    6.22
   9   6  -4   96.30    5.82
  -9  -6   4   96.46    5.93
   9  -6  -4   91.50    5.57
   9   6  -3   14.46    1.52
  -9   6   3   12.57    1.88
   9  -6  -3   14.07    1.54
  -9  -6   3   16.29    1.71
  -9   6   2   52.51    4.26
  -9  -6   2   66.25    4.14
   9  -6  -2   62.25    3.81
  -9   6   1    2.84    0.87
   9  -6  -1    3.51    0.84
  -9  -6   1    4.45    0.97
  -9   6   0   50.18    3.42
   9   6   0   46.62    2.94
  -9  -6   0   52.33    3.59
   9  -6   0   46.11    3.10
   9   6   1    0.81    0.54
  -9   6  -1    1.40    0.64
   9  -6   1    1.81    0.56
  -9  -6  -1    0.64    0.71
   9   6   2   11.40    1.30
  -9   6  -2   11.35    1.40
  -9  -6  -2    9.15    1.50
   9   6   3    0.95    0.65
  -9   6  -3    1.22    0.65
  -9  -6  -3    1.57    0.90
  -9   6  -4   -0.78    0.44
   9   6   4   -0.10    0.59
  -9  -6  -4   -0.57    0.68
   9   6   5   -0.54    0.56
  -9   7   5    0.03    0.71
   9   7  -5    0.42    0.67
  -9  -7   5    0.49    0.59
   9  -7  -5    0.45    0.66
  -9   7   4   -0.68    0.62
   9   7  -4   -0.36    0.52
   9  -7  -4    0.50    0.66
  -9  -7   4   -0.33    0.54
  -9   7   3    1.36    0.87
   9  -7  -3    0.08    0.62
  -9  -7   3    1.12    0.73
  -9   7   2    0.73    0.71
  -9  -7   2    0.92    0.69
  -9   7   1    2.37    0.92
   9  -7  -1    4.46    0.96
  -9  -7   1    3.99    0.99
  -9   7   0   16.05    1.84
   9  -7   0   16.34    1.57
  -9  -7   0   20.28    2.03
   9   7   1   47.54    3.10
  -9   7  -1   55.69    3.52
  -9  -7  -1   47.57    3.70
   9   7   2   60.56    3.84
  -9   7  -2   66.44    4.17
   9   7   3   25.00    2.01
  -9   7  -3   23.78    2.12
  -9  -7  -3   22.91    2.38
   9   7   4   15.30    1.62
  -9   7  -4   11.83    1.49
  -9  -7  -4   12.04    1.88
  -9   8   4    9.08    1.51
   9  -8  -4    4.58    0.99
  -9  -8   4    5.85    1.11
  -9   8   3   60.04    4.80
   9  -8  -3   66.84    4.21
  -9  -8   3   68.37    4.50
  -9   8   2    4.75    0.95
   9  -8  -2    2.36    0.87
  -9  -8   2    4.37    1.00
  -9   8   1   48.21    3.81
   9  -8  -1   51.53    3.47
  -9  -8   1   57.73    3.93
  -9   8   0    1.34    0.72
  -9  -8   0    0.49    0.76
  -9   8  -1   21.81    2.03
  -9  -8  -1   23.25    2.26
  -9   8  -2    1.52    0.71
   9   8   2    2.30    0.64
  -9  -8  -2    0.16    0.72
   9   8   3    0.66    0.60
  -9   8  -3    2.76    0.76
   9  -9  -2    4.27    0.95
  -9  -9   1    9.48    1.65
  -9  -9   0   30.18    2.76
 -10   0   7    0.17    0.59
 -10   0   6   63.17    4.30
  10   0  -5   -0.37    0.30
  10   0  -4  109.12    5.81
 -10   0   4   98.66    6.23
 -10   0   3    0.04    0.48
  10   0  -3   -0.27    0.38
 -10   0   3   -0.37    0.22
  10   0  -2   49.68    3.53
 -10   0   2   65.00    3.61
 -10   0   2   54.46    3.39
  10   0  -1    0.92    0.57
 -10   0   0    0.42    0.31
  10   0   0    0.22    0.55
 -10   0   0    1.00    0.45
 -10   0  -1    0.18    0.44
  10   0   1   -0.05    0.56
 -10   0  -2   -0.03    0.48
  10   0   2    1.52    0.72
 -10   0  -3   -0.38    0.55
  10   0   3   -0.05    0.60
  10   0   4   28.20    2.25
 -10   0  -4   28.78    2.51
  10   0   5    0.72    0.60
 -10   0  -5   -0.17    0.62
  10   0   6   28.85    2.26
 -10   0  -6   26.15    2.54
  10   1  -8    3.00    0.92
 -10   1   8    2.37    0.90
 -10   1   7    0.15    0.72
  10   1  -7   -0.36    0.70
 -10   1   6    9.03    1.48
 -10  -1   6   12.92    1.67
  10  -1  -6   10.82    1.15
 -10   1   5   -0.53    0.57
 -10  -1   5    1.74    0.68
  10  -1  -5    0.75    0.44
  10   1  -4    3.67    0.68
 -10   1   4    3.16    0.89
  10  -1  -4    2.84    0.63
 -10  -1   4    3.34    0.84
 -10  -1   4    4.20    0.75
 -10   1   3   51.76    3.29
  10   1  -3   48.76    3.13
 -10  -1   3   47.36    3.03
  10  -1  -3   47.03    2.99
  10   1  -2   69.01    3.82
 -10   1   2   68.69    3.90
 -10  -1   2   55.09    3.76
  10  -1  -2   57.69    3.76
  10   1  -1  177.15    8.68
 -10   1   1  159.56    8.88
 -10   1   1  171.85    8.86
  10  -1  -1  130.22    8.76
 -10  -1   1  151.92    8.75
 -10   1   0   49.12    3.06
 -10   1   0   44.42    2.90
  10   1   0   47.18    3.04
  10  -1   0   50.45    3.18
 -10  -1   0   43.09    2.79
 -10  -1   0   51.37    3.21
 -10   1  -1  229.97   11.79
  10   1   1  197.39   11.55
  10   1   2   30.43    2.46
 -10   1  -2   32.16    2.54
 -10  -1  -2   35.94    2.67
  10  -1   2   39.78    2.62
 -10   1  -3   83.31    5.01
  10   1   3   87.58    4.88
 -10  -1  -3   68.46    5.11
 -10   1  -4   21.79    1.91
  10  -1   4   17.61    1.79
 -10   1  -5    9.76    1.55
  10   1   5   13.26    1.56
 -10  -1  -5   10.55    1.81
  10  -1   5   10.35    1.40
  10   1   6   10.35    1.38
 -10   1  -6   11.39    1.68
 -10  -1  -6   12.95    1.93
  10   2  -8    3.20    0.89
 -10   2   8    3.17    0.97
  10   2  -7   42.89    3.16
 -10   2   7   33.53    3.02
  10   2  -6   20.35    2.10
  10  -2  -6   22.04    1.76
 -10  -2   6   21.30    1.74
 -10   2   5   74.57    5.16
  10   2  -5   82.22    5.04
 -10  -2   5   83.52    4.84
  10  -2  -5   79.45    4.64
 -10   2   4   15.61    1.79
 -10  -2   4   20.80    1.60
  10  -2  -4   17.88    1.55
 -10   2   3  106.43    6.07
  10   2  -3  107.95    5.66
 -10  -2   3   91.26    5.88
  10  -2  -3   99.18    5.67
 -10  -2   3  100.96    5.92
 -10   2   2    7.24    1.07
  10   2  -2    6.68    0.92
 -10  -2   2    5.07    0.93
  10  -2  -2    5.72    0.99
 -10  -2   2    4.81    0.85
  10   2  -1   54.95    3.43
 -10   2   1   61.05    3.58
  10  -2  -1   61.01    3.59
 -10  -2   1   47.80    3.26
 -10   2   0   -0.15    0.36
  10   2   0   -0.37    0.43
 -10   2   0   -0.04    0.35
 -10  -2   0    0.57    0.61
  10  -2   0   -0.35    0.53
 -10   2  -1    1.35    0.43
 -10   2  -1    2.42    0.60
  10   2   1    1.48    0.65
  10  -2   1    3.06    0.79
 -10  -2  -1    2.14    0.72
  10   2   2    4.34    0.88
 -10   2  -2    7.03    0.98
 -10   2  -2    4.22    0.74
  10  -2   2    6.17    1.02
 -10  -2  -2    5.72    1.03
 -10   2  -3   18.43    1.70
  10   2   3   22.17    1.87
  10  -2   3   17.23    1.85
 -10  -2  -3   20.23    2.03
 -10   2  -4    2.67    0.82
  10   2   4    2.63    0.87
  10  -2   4    2.15    0.79
 -10  -2  -4    2.42    0.83
 -10   2  -5   17.73    1.86
  10   2   5   15.51    1.70
  10  -2   5   17.75    1.66
  10   2   6    8.80    1.42
 -10   2  -6    9.28    1.40
 -10  -2  -6    5.73    1.30
 -10   3   8    2.32    0.88
  10   3  -7   -0.01    0.62
 -10   3   7   -1.05    0.61
  10  -3  -7    0.74    0.52
 -10  -3   7    0.11    0.43
 -10   3   6    1.75    0.92
  10   3  -6    5.00    1.11
  10  -3  -6    3.44    0.77
 -10  -3   6    3.60    0.75
  10   3  -5    4.00    0.94
 -10   3   5    3.12    0.92
  10  -3  -5    3.44    0.78
 -10  -3   5    3.34    0.70
 -10   3   4   62.18    4.20
  10   3  -4   67.27    4.13
  10  -3  -4   60.88    3.81
 -10  -3   4   63.30    3.99
  10   3  -3   20.57    1.87
 -10   3   3   25.67    2.03
 -10  -3   3   20.85    1.81
  10  -3  -3   22.15    1.78
  10   3  -2   80.37    4.86
  10   3  -2   72.13    4.68
 -10   3   2   86.34    5.11
  10  -3  -2   86.49    4.81
 -10  -3   2   89.40    5.10
  10   3  -1    8.05    1.00
 -10   3   1    6.89    1.21
  10  -3  -1    7.34    1.14
 -10  -3   1    5.11    0.98
 -10   3   0  210.82   11.77
  10   3   0  218.98   11.26
 -10  -3   0  209.90   11.97
  10  -3   0  197.07   11.47
 -10   3  -1    0.29    0.45
  10   3   1    1.00    0.51
 -10  -3  -1    0.10    0.63
  10  -3   1    0.57    0.60
 -10   3  -2   59.85    3.78
  10   3   2   60.25    3.81
 -10   3  -2   60.02    3.73
 -10  -3  -2   60.82    4.08
  10  -3   2   66.79    3.88
  10   3   3    4.62    0.94
 -10   3  -3    2.32    0.72
 -10  -3  -3    3.94    1.00
  10  -3   3    2.13    0.72
 -10   3  -4   99.93    6.03
  10   3   4   99.08    5.84
 -10  -3  -4   98.83    6.35
 -10   3  -5   -0.50    0.63
  10   3   5    0.87    0.72
 -10  -3  -5    0.51    0.83
 -10   3  -6   20.27    2.18
  10   3   6   23.83    2.09
 -10  -3  -6   20.56    2.35
  10   4  -7   21.21    2.12
  10  -4  -7   18.90    1.73
 -10  -4   7   19.29    1.78
  10   4  -6   35.04    2.75
 -10   4   6   29.01    2.82
  10  -4  -6   35.08    2.44
 -10  -4   6   33.27    2.54
  10   4  -5   43.87    3.18
 -10   4   5   45.19    3.35
  10  -4  -5   43.76    2.92
 -10  -4   5   43.68    3.07
  10   4  -4   18.64    1.85
 -10   4   4   20.11    2.08
  10  -4  -4   19.91    1.74
 -10  -4   4   20.16    1.80
  10   4  -3  101.66    5.97
 -10   4   3  105.58    6.23
 -10  -4   3  102.79    6.12
  10  -4  -3   96.37    5.79
  10   4  -2   28.82    1.88
 -10   4   2   28.23    2.40
  10   4  -2   24.58    1.99
  10  -4  -2   30.09    2.13
 -10  -4   2   27.45    2.26
 -10   4   1   59.54    4.22
  10   4  -1   68.21    3.77
  10  -4  -1   67.09    3.92
 -10  -4   1   59.80    4.19
 -10   4   0    2.36    0.73
  10   4   0    3.99    0.74
 -10  -4   0    2.11    0.80
  10  -4   0    3.72    0.82
 -10   4  -1    1.16    0.52
  10   4   1   -0.02    0.52
  10  -4   1   -0.52    0.47
 -10  -4  -1   -0.89    0.57
  10   4   2   -0.23    0.53
 -10   4  -2   -0.19    0.37
 -10  -4  -2    0.19    0.68
  10  -4   2    0.59    0.57
 -10   4  -3   10.01    1.18
  10   4   3   11.94    1.40
 -10   4  -3   10.28    1.28
  10  -4   3    8.99    1.27
 -10  -4  -3   11.30    1.66
  10   4   4   -0.75    0.59
 -10  -4  -4    1.58    0.80
  10   4   5   12.14    1.61
 -10   4  -5   10.42    1.54
 -10  -4  -5   10.28    1.86
 -10   4  -6    9.40    1.59
  10   4   6   13.17    1.61
 -10   5   7   -0.75    0.70
  10   5  -7   -0.05    0.69
  10  -5  -7    1.88    0.68
 -10  -5   7    0.91    0.58
  10   5  -6    0.95    0.75
 -10   5   6   -0.50    0.58
 -10  -5   6    0.49    0.57
  10  -5  -6    0.21    0.57
 -10   5   5    9.64    1.74
  10   5  -5   12.89    1.65
 -10  -5   5   12.63    1.48
  10  -5  -5   11.48    1.40
 -10   5   4    6.20    1.18
  10   5  -4    5.30    0.99
 -10  -5   4    5.69    1.01
  10  -5  -4    4.59    0.92
 -10   5   3   75.89    4.99
  10   5  -3   71.00    4.57
 -10  -5   3   82.32    4.86
  10  -5  -3   71.58    4.49
 -10   5   2   26.83    2.66
 -10  -5   2   36.30    2.68
  10  -5  -2   33.89    2.42
  10   5  -1   49.24    2.93
 -10   5   1   48.02    3.51
 -10  -5   1   49.07    3.48
  10  -5  -1   46.27    3.12
  10   5   0   -0.04    0.42
 -10  -5   0    0.17    0.68
  10  -5   0   -0.18    0.49
  10   5   1   92.56    5.15
 -10   5  -1   94.81    5.45
 -10  -5  -1   79.58    5.66
 -10   5  -2   25.38    2.03
  10   5   2   26.66    2.04
 -10  -5  -2   24.75    2.51
  10  -5   2   26.24    2.10
  10   5   3   76.29    4.76
 -10   5  -3   77.72    4.82
 -10  -5  -3   83.71    5.31
  10   5   4    1.87    0.80
 -10  -5  -4   -0.07    0.71
  10   5   5   21.95    2.05
 -10  -5  -5   23.58    2.37
  10  -5   5   24.87    1.97
 -10   6   6   58.31    4.03
  10   6  -6   50.57    3.66
  10  -6  -6   46.64    3.39
 -10  -6   6   52.23    3.65
 -10   6   5    7.82    1.46
  10   6  -5    5.98    1.11
 -10  -6   5    7.16    1.31
  10  -6  -5    7.46    1.25
  10   6  -4   52.14    3.60
 -10   6   4   55.76    3.92
  10  -6  -4   48.41    3.45
 -10  -6   4   56.90    3.76
 -10   6   3   12.87    1.79
  10  -6  -3    9.93    1.47
 -10  -6   3   10.95    1.61
 -10   6   2   18.95    2.05
  10  -6  -2   17.62    1.79
 -10  -6   2   19.48    2.05
 -10   6   1    3.87    1.03
 -10  -6   1    5.41    1.06
  10  -6  -1    4.92    0.92
 -10   6   0    3.47    0.93
  10   6   0    4.29    0.74
 -10  -6   0    3.01    0.90
  10  -6   0    5.59    0.95
  10   6   1    1.07    0.58
 -10   6  -1    1.11    0.65
 -10  -6  -1    0.27    0.79
  10  -6   1    1.34    0.54
 -10   6  -2    0.96    0.57
  10   6   2    2.05    0.75
 -10  -6  -2    0.51    0.77
  10   6   3    0.32    0.60
 -10   6  -3   -0.13    0.53
 -10  -6  -3    0.03    0.82
  10   6   4    7.90    1.29
 -10   6  -4    4.90    0.91
 -10  -6  -4    6.73    1.32
 -10   7   5    4.67    1.19
  10   7  -5    2.96    0.86
 -10  -7   5    4.09    0.90
  10  -7  -5    3.95    0.93
  10   7  -4    4.12    0.87
 -10   7   4    2.82    0.87
  10  -7  -4    2.64    0.83
 -10  -7   4    1.57    0.77
 -10   7   3    4.32    1.13
  10  -7  -3    3.62    0.96
 -10  -7   3    3.34    0.99
 -10   7   2   19.70    2.27
  10  -7  -2   21.09    2.04
 -10  -7   2   25.34    2.33
 -10   7   1   45.03    3.67
  10  -7  -1   48.77    3.31
 -10  -7   1   56.94    3.82
 -10   7   0   29.89    2.62
 -10  -7   0   33.82    2.80
  10  -7   0   30.38    2.33
 -10   7  -1   38.42    2.84
  10   7   1   34.35    2.43
  10   7   2   22.39    1.86
 -10   7  -2   26.23    2.09
 -10  -7  -2   21.30    2.38
  10   7   3   18.86    1.72
 -10   7  -3   20.42    1.84
 -10  -7  -3   15.96    2.12
 -10   8   3    8.22    1.49
 -10  -8   3   10.29    1.64
  10  -8  -3    7.05    1.26
 -10  -8   2    3.22    0.89
  10  -8  -2    1.43    0.83
 -10   8   1    0.06    0.75
 -10  -8   1   -0.21    0.73
  10  -8  -1    0.45    0.55
 -10   8   0    0.39    0.66
 -10  -8   0    1.23    0.77
 -10   8  -1    0.77    0.71
 -10  -8  -1    0.13    0.69
 -10   8  -2    0.13    0.56
 -10  -8  -2   -1.26    0.69
 -11   0   7    0.04    0.66
 -11   0   6   39.26    3.12
 -11   0   5    0.09    0.65
  11   0  -5   -0.68    0.31
  11   0  -4   13.50    1.29
 -11   0   4   13.39    1.66
  11   0  -3    0.20    0.43
 -11   0   3    0.60    0.55
 -11   0   2    2.11    0.46
 -11   0   2    2.07    0.63
  11   0  -2    2.87    0.74
 -11   0   1    0.09    0.36
 -11   0   1   -0.34    0.36
  11   0  -1    0.29    0.54
 -11   0   0    2.90    0.52
  11   0   0    3.95    0.84
 -11   0   0    4.59    0.78
 -11   0  -1   -0.41    0.44
  11   0   1    0.46    0.64
 -11   0  -2   -0.68    0.46
  11   0   2    0.08    0.67
 -11   0  -3    0.54    0.58
  11   0   4   77.04    4.91
 -11   0  -4   82.22    5.36
 -11   0  -5   -0.59    0.73
  11   0   5   -0.53    0.58
 -11   0  -6   41.70    3.52
  11   0   6   43.30    3.05
  11   1  -8    1.70    0.87
 -11   1   8    0.18    0.71
  11   1  -7    9.42    1.47
 -11   1   7    6.16    1.32
 -11   1   6   13.92    2.00
 -11  -1   6   20.01    2.09
  11  -1  -6   20.27    1.52
 -11   1   5   41.58    3.13
 -11  -1   5   36.98    3.02
  11  -1  -5   44.47    2.68
  11   1  -4    8.68    1.12
 -11   1   4   12.72    1.58
 -11  -1   4   13.73    1.26
  11  -1  -4   11.74    1.20
 -11   1   3   67.18    4.02
  11   1  -3   63.23    3.83
 -11  -1   3   61.98    3.81
  11  -1  -3   56.34    3.75
 -11   1   2   81.11    4.69
  11   1  -2   79.63    4.57
 -11  -1   2   76.01    4.66
  11  -1  -2   73.78    4.72
  11   1  -1  184.82    9.67
 -11   1   1  190.55   10.08
 -11   1   1  190.95    9.90
  11  -1  -1  165.12    9.83
 -11  -1   1  180.08    9.81
 -11  -1   1  151.43   10.00
  11   1   0    7.65    1.24
 -11   1   0    6.43    0.92
 -11   1   0    6.26    0.81
 -11  -1   0    6.63    1.05
  11  -1   0    7.95    1.27
  11   1   1  187.61   10.24
 -11   1  -1  173.07   10.54
 -11  -1  -1  183.09   10.54
  11  -1   1  198.82   10.22
  11   1   2   41.07    2.91
 -11   1  -2   39.08    2.94
 -11   1  -3   31.01    2.52
  11   1   3   26.13    2.34
 -11  -1  -3   29.71    2.50
  11  -1   3   30.48    2.45
  11  -1   4    8.44    1.37
 -11  -1  -4    8.08    1.44
 -11   1  -5   15.52    1.88
  11   1   5   16.53    1.78
 -11  -1  -5   12.64    1.86
  11  -1   5   15.97    1.71
  11   1   6    0.12    0.55
 -11   1  -6   -0.17    0.64
 -11   2   7   19.98    2.24
 -11   2   6   10.82    1.72
  11   2  -6   10.43    1.68
  11  -2  -6   10.49    1.26
  11   2  -5   17.85    2.00
 -11   2   5   20.54    2.18
  11  -2  -5   21.00    1.72
 -11  -2   5   22.91    1.73
 -11   2   4    0.33    0.58
  11  -2  -4    0.50    0.46
 -11  -2   4    0.80    0.45
  11   2  -3   23.92    1.76
 -11   2   3   24.75    2.03
  11  -2  -3   23.32    1.85
 -11  -2   3   22.83    1.89
  11   2  -2   -0.41    0.42
 -11   2   2    0.71    0.50
 -11  -2   2    0.37    0.38
 -11  -2   2    0.25    0.39
  11  -2  -2    0.37    0.54
 -11   2   1    1.41    0.49
  11   2  -1    1.62    0.68
  11  -2  -1    1.70    0.70
  11   2   0   17.56    1.80
 -11   2   0   21.69    1.76
  11  -2   0   22.84    2.02
 -11  -2   0   23.23    2.04
  11   2   1   25.26    2.10
 -11   2  -1   28.13    1.94
 -11   2  -1   23.06    1.91
 -11   2  -2    0.88    0.54
  11   2   2    0.32    0.59
 -11  -2  -2    1.04    0.63
  11  -2   2    0.19    0.62
 -11   2  -3   45.28    3.12
  11   2   3   42.76    3.11
 -11  -2  -3   45.54    3.33
  11  -2   3   44.13    3.19
 -11   2  -4    7.08    1.29
  11   2   4    6.40    1.16
 -11  -2  -4    5.43    1.12
  11  -2   4    4.81    1.07
  11   2   5   30.32    2.38
 -11   2  -5   31.40    2.47
  11  -2   5   22.93    2.25
 -11  -2  -5   24.85    2.59
 -11   2  -6   16.07    1.92
  11   2   6   19.07    1.89
  11   3  -7    1.40    0.81
 -11   3   7    0.42    0.74
  11  -3  -7    0.73    0.55
  11   3  -6   31.76    2.70
 -11   3   6   30.10    2.83
 -11  -3   6   30.30    2.39
  11  -3  -6   33.02    2.35
  11   3  -5    6.15    1.18
 -11   3   5    8.45    1.51
 -11  -3   5    6.82    1.10
  11  -3  -5    6.79    1.18
  11   3  -4   93.77    5.97
 -11   3   4  105.23    6.11
 -11  -3   4  100.89    5.94
  11  -3  -4   94.80    5.65
  11   3  -3    0.62    0.60
 -11   3   3    0.87    0.65
  11  -3  -3    0.80    0.56
 -11  -3   3    1.13    0.57
  11   3  -2   68.96    4.17
  11   3  -2   60.47    4.03
 -11   3   2   75.08    4.36
 -11  -3   2   69.75    4.37
  11  -3  -2   68.83    4.16
  11   3  -1   -0.33    0.44
 -11   3   1    0.66    0.54
 -11  -3   1   -0.94    0.49
  11  -3  -1   -0.02    0.55
 -11   3   0   63.90    4.11
  11   3   0   63.22    3.92
  11  -3   0   63.81    4.19
  11   3   1    0.79    0.57
  11  -3   1    1.03    0.69
 -11  -3  -1    0.75    0.67
 -11   3  -2  111.86    6.57
 -11   3  -2  103.14    6.35
  11   3   2  111.72    6.34
 -11  -3  -2  111.60    6.67
  11  -3   2  107.84    6.29
 -11   3  -3    4.06    0.76
  11   3   3    3.75    0.92
  11  -3   3    2.61    0.79
 -11  -3  -3    3.52    0.91
 -11   3  -4   56.19    3.67
  11   3   4   54.46    3.62
 -11  -3  -4   57.35    3.97
  11  -3   4   45.49    3.50
  11   3   5    0.19    0.69
 -11   3  -5    1.18    0.66
 -11  -3  -5   -0.44    0.70
  11   3   6    0.96    0.72
 -11   3  -6    1.08    0.75
 -11   4   7    7.84    1.53
  11   4  -7   10.38    1.68
  11  -4  -7   10.56    1.34
 -11  -4   7   11.70    1.32
  11   4  -6   18.18    1.98
 -11   4   6   20.55    2.19
  11  -4  -6   16.50    1.71
 -11  -4   6   17.93    1.79
  11   4  -5   16.88    1.79
 -11   4   5   12.41    1.82
  11  -4  -5   15.00    1.57
 -11  -4   5   14.79    1.58
  11   4  -4   23.77    2.04
 -11   4   4   25.15    2.33
  11  -4  -4   22.30    1.95
 -11  -4   4   21.52    1.99
 -11   4   3   16.49    1.69
  11   4  -3   14.82    1.52
  11  -4  -3   14.05    1.55
 -11  -4   3   16.13    1.63
  11   4  -2    1.63    0.53
 -11   4   2   -0.57    0.49
 -11  -4   2   -0.06    0.50
  11  -4  -2    0.33    0.55
 -11   4   1    0.48    0.56
  11   4  -1    1.32    0.52
 -11  -4   1    0.43    0.63
  11  -4  -1    1.77    0.74
 -11   4   0    8.56    1.19
  11   4   0    8.06    1.13
  11  -4   0    6.42    1.16
 -11  -4   0    6.44    1.19
  11   4   1   21.29    1.80
 -11   4  -1   20.79    1.81
 -11  -4  -1   19.54    2.14
  11  -4   1   18.82    1.89
 -11   4  -2   22.44    1.88
  11   4   2   23.33    2.03
  11  -4   2   24.92    1.99
 -11  -4  -2   23.72    2.30
  11   4   3   30.90    2.49
 -11  -4  -3   34.64    2.76
  11  -4   3   31.60    2.41
 -11   4  -4   11.90    1.57
  11   4   4   10.30    1.53
 -11  -4  -4   11.88    1.69
  11   4   5   25.06    2.33
 -11   4  -5   28.59    2.34
 -11  -4  -5   24.45    2.51
 -11   5   6   15.07    1.89
  11   5  -6   14.18    1.87
 -11  -5   6   14.25    1.66
  11  -5  -6   13.06    1.56
 -11   5   5   53.24    3.61
  11   5  -5   40.48    3.26
  11  -5  -5   41.66    3.06
 -11  -5   5   46.60    3.26
  11   5  -4    3.99    0.90
 -11   5   4    5.69    1.15
  11  -5  -4    4.56    0.94
 -11   5   3   76.88    4.93
  11  -5  -3   75.39    4.60
 -11  -5   3   73.52    4.87
 -11   5   2    0.06    0.65
  11  -5  -2    0.67    0.64
 -11  -5   2    1.33    0.69
  11   5  -1  103.31    5.41
 -11   5   1   96.85    6.09
  11  -5  -1   99.55    5.61
 -11  -5   1   79.79    5.89
  11   5   0    2.27    0.67
 -11   5   0    2.63    0.76
 -11  -5   0    0.39    0.79
  11  -5   0    3.16    0.85
 -11   5  -1   78.27    4.86
  11   5   1   74.72    4.59
 -11  -5  -1   78.87    5.15
 -11   5  -2   17.08    1.64
  11   5   2   15.56    1.64
  11  -5   2   16.90    1.69
 -11  -5  -2   18.19    2.14
  11   5   3   11.86    1.57
 -11   5  -3   13.02    1.34
 -11  -5  -3   11.98    1.82
  11   5   4    6.50    1.16
 -11  -5  -4    5.09    1.17
  11   6  -6   28.14    2.48
 -11  -6   6   29.74    2.48
 -11   6   5    6.92    1.43
  11   6  -5    4.80    0.96
  11  -6  -5    2.60    0.86
 -11  -6   5    3.87    0.84
 -11   6   4   12.76    1.74
  11   6  -4   12.16    1.54
 -11  -6   4   14.03    1.74
  11  -6  -4   10.23    1.52
 -11   6   3   -0.55    0.57
  11  -6  -3   -0.36    0.64
 -11  -6   3    0.64    0.71
 -11   6   2    1.82    0.88
  11  -6  -2    0.52    0.72
 -11  -6   2   -0.09    0.68
 -11  -6   1   -0.16    0.60
  11  -6  -1   -0.40    0.55
  11   6   0    4.65    0.82
 -11   6   0    5.22    1.09
  11  -6   0    5.25    1.06
  11   6   1    0.92    0.62
 -11   6  -1    0.66    0.63
 -11  -6  -1    1.67    0.87
  11  -6   1    1.26    0.60
  11   6   2   11.92    1.44
 -11   6  -2    8.88    1.33
 -11  -6  -2   10.11    1.79
  11   6   3    0.46    0.65
 -11   6  -3    0.58    0.49
 -11  -6  -3    0.01    0.73
  11   6   4   33.00    2.49
 -11  -6  -4   30.51    2.90
 -11   7   4   11.06    1.75
  11  -7  -4   16.56    1.74
 -11  -7   4   16.15    1.92
 -11   7   3   35.42    3.17
 -11  -7   3   44.28    3.26
  11  -7  -3   38.43    2.93
 -11   7   2   89.08    6.42
 -11  -7   2  105.46    6.42
  11  -7  -2  100.62    5.90
 -11   7   1   51.54    3.95
 -11  -7   1   54.86    4.00
  11  -7  -1   53.04    3.53
 -11   7   0   32.97    2.62
 -11  -7   0   22.98    2.56
  11  -7   0   30.45    2.33
 -11   7  -1   20.49    1.99
  11   7   1   16.81    1.56
 -11   7  -2   16.37    1.70
  11   7   2   13.59    1.50
 -11  -7  -2   12.90    2.02
 -11   7  -3   12.61    1.41
  11   7   3   14.23    1.51
 -11  -7  -3   10.40    1.88
  11  -8  -3    6.02    1.28
 -11   8   2    0.61    0.78
  11  -8  -2   -0.33    0.63
 -11  -8   2    1.75    0.79
 -11   8   1    1.76    0.79
 -11  -8   1   -0.14    0.79
  11  -8  -1    0.83    0.63
 -11   8   0    0.96    0.75
 -11  -8   0   -1.41    0.68
 -11   8  -1    4.57    1.06
 -12   0   7   -0.24    0.71
 -12   0   6   10.24    1.69
 -12   0   5   -0.84    0.66
  12   0  -5   -0.73    0.35
  12   0  -4    6.88    1.03
 -12   0   3   -0.42    0.54
  12   0  -3    0.07    0.42
  12   0  -2   12.69    1.48
 -12   0   2   13.06    1.39
 -12   0   1   -0.33    0.35
  12   0  -1    0.74    0.59
 -12   0   1   -0.20    0.40
  12   0   0   31.50    2.42
 -12   0   0   31.89    2.33
  12   0   1    0.68    0.71
 -12   0  -1   -0.03    0.50
 -12   0  -2   47.42    3.41
  12   0   2   50.32    3.46
  12   0   3   -0.73    0.68
  12   0   4   55.07    3.79
 -12   0  -4   56.67    4.05
  12   0   5   -0.64    0.62
 -12   0  -5   -0.87    0.76
  12   0   6   35.20    2.73
 -12   1   7   12.87    1.91
 -12   1   6   17.75    2.12
  12  -1  -6   20.27    1.71
 -12  -1   6   18.24    2.03
 -12   1   5   57.03    3.74
  12  -1  -5   53.37    3.24
 -12  -1   5   43.17    3.55
  12   1  -4   35.73    2.42
 -12   1   4   38.30    2.74
  12  -1  -4   32.51    2.39
 -12  -1   4   29.76    2.61
  12   1  -3  109.95    6.20
 -12   1   3  120.81    6.50
 -12  -1   3   96.90    6.30
 -12  -1   3  107.99    6.43
  12  -1  -3  108.21    6.30
  12   1  -2   34.26    2.26
 -12   1   2   31.92    2.27
 -12  -1   2   32.55    2.28
  12  -1  -2   24.89    2.31
  12   1  -1  103.41    5.69
 -12   1   1  100.62    5.71
  12  -1  -1   96.96    5.84
 -12  -1   1   91.69    5.87
  12   1   0   24.60    2.04
 -12   1   0   20.68    1.62
 -12   1   0   22.06    1.73
  12  -1   0   24.03    1.98
 -12  -1   0   24.05    2.00
 -12   1  -1    0.86    0.50
  12   1   1   -0.30    0.68
 -12  -1  -1    0.85    0.55
  12  -1   1    1.71    0.74
  12   1   2   21.82    2.10
 -12   1  -2   16.03    1.78
 -12  -1  -2   27.06    2.13
 -12   1  -3    2.04    0.82
  12   1   3    2.42    0.90
  12  -1   3    2.90    0.96
 -12  -1  -3    3.55    1.00
 -12   1  -4    1.02    0.82
  12   1   4    0.24    0.70
 -12  -1  -4   -0.66    0.58
  12  -1   4   -1.15    0.60
 -12   1  -5    3.50    0.99
  12   1   5    2.24    0.91
  12  -1   5    0.57    0.71
 -12  -1  -5    0.38    0.73
 -12   1  -6    0.51    0.89
  12   1   6   -1.16    0.57
  12   2  -7   12.93    1.83
 -12   2   7    8.13    1.47
 -12   2   6    0.95    0.74
  12   2  -6    0.80    0.77
  12  -2  -6    0.45    0.51
 -12   2   5   12.92    1.78
  12   2  -5    7.72    1.39
  12  -2  -5   12.11    1.28
 -12   2   4    1.18    0.70
  12  -2  -4    0.14    0.50
 -12  -2   4    0.65    0.48
  12   2  -3   -0.15    0.37
 -12   2   3   -0.69    0.44
  12  -2  -3   -0.04    0.50
 -12  -2   3    0.33    0.44
  12   2  -2   16.50    1.47
 -12   2   2   15.28    1.53
 -12  -2   2   11.74    1.29
  12  -2  -2   13.87    1.55
  12   2  -1   57.81    3.36
 -12   2   1   48.83    3.17
  12  -2  -1   43.59    3.39
 -12  -2   1   48.91    3.44
 -12   2   0    0.05    0.38
  12   2   0    0.36    0.62
  12  -2   0    0.08    0.61
 -12  -2   0    0.61    0.60
 -12  -2  -1   60.31    4.00
  12  -2   1   61.06    3.86
 -12   2  -2    8.91    1.31
  12   2   2    7.40    1.25
  12  -2   2   10.82    1.50
 -12  -2  -2   10.31    1.41
 -12   2  -3   32.67    2.58
  12   2   3   27.82    2.53
 -12  -2  -3   32.15    2.69
  12  -2   3   35.16    2.70
 -12   2  -4    5.28    1.12
  12   2   4    6.83    1.23
 -12  -2  -4    5.89    1.22
  12  -2   4    5.43    1.18
  12   2   5   38.18    2.90
 -12   2  -5   38.65    2.97
 -12  -2  -5   32.44    3.03
  12   3  -7    2.65    0.93
 -12   3   7    3.02    0.94
  12   3  -6   46.95    3.67
 -12   3   6   51.71    3.85
  12  -3  -6   53.72    3.37
 -12   3   5    0.39    0.69
  12   3  -5   -0.32    0.71
 -12  -3   5    1.55    0.54
  12  -3  -5    1.10    0.65
  12   3  -4  131.32    8.45
 -12   3   4  154.13    8.57
 -12  -3   4  158.20    8.57
  12  -3  -4  139.79    8.09
  12   3  -3    0.07    0.55
 -12   3   3    1.44    0.68
  12  -3  -3    0.69    0.60
 -12  -3   3    1.29    0.61
  12   3  -2   48.34    3.18
 -12   3   2   52.21    3.33
  12  -3  -2   47.65    3.29
  12   3  -1   12.90    1.45
 -12   3   1   15.43    1.50
  12  -3  -1   14.03    1.63
 -12  -3   1   13.39    1.65
 -12   3   0   81.68    5.27
 -12  -3   0   94.79    5.49
  12  -3   0   80.27    5.29
  12   3   1    1.95    0.75
 -12   3  -1    3.94    0.73
 -12  -3  -1    4.78    1.03
  12  -3   1    4.06    0.95
  12   3   2   50.70    3.69
  12  -3   2   57.90    3.69
 -12  -3  -2   60.29    3.91
  12   3   3    5.45    1.12
  12  -3   3    6.72    1.21
 -12  -3  -3    5.35    1.08
  12   3   4    1.10    0.80
 -12   3  -4    3.34    0.84
  12  -3   4    2.13    0.78
 -12  -3  -4    3.53    1.04
  12   3   5    0.32    0.79
 -12   3  -5    1.50    0.71
 -12  -3  -5    0.87    0.84
  12  -4  -7   11.94    1.41
  12   4  -6    2.67    0.91
 -12   4   6    2.31    0.95
 -12  -4   6    3.36    0.80
  12  -4  -6    2.62    0.84
  12   4  -5   11.05    1.64
 -12   4   5   14.81    1.79
 -12  -4   5   13.61    1.49
  12  -4  -5   12.27    1.52
  12   4  -4    1.53    0.73
 -12   4   4    2.01    0.85
 -12  -4   4    2.99    0.76
  12  -4  -4    2.25    0.79
 -12   4   3    0.75    0.60
  12  -4  -3    0.18    0.53
 -12  -4   3    0.83    0.54
  12   4  -2    1.51    0.59
 -12   4   2    1.76    0.65
 -12  -4   2    1.81    0.72
  12  -4  -2    1.56    0.72
  12   4  -1   31.22    2.20
 -12   4   1   29.99    2.54
 -12  -4   1   24.85    2.47
  12  -4  -1   34.24    2.48
  12   4   0    4.04    0.81
 -12   4   0    2.23    0.75
 -12  -4   0    3.86    0.99
  12  -4   0    2.79    0.88
  12   4   1   37.90    2.76
 -12   4  -1   39.05    2.78
  12  -4   1   38.93    2.87
 -12  -4  -1   38.15    3.08
  12   4   2   51.89    3.67
  12  -4   2   58.26    3.64
 -12  -4  -2   57.73    3.99
  12   4   3    9.71    1.58
 -12  -4  -3   14.87    1.84
  12  -4   3   12.91    1.53
  12   4   4   12.32    1.66
 -12  -4  -4   15.22    1.81
  12   5  -6   25.22    2.38
 -12   5   6   26.72    2.52
 -12  -5   6   26.26    2.21
  12  -5  -6   20.77    2.05
 -12   5   5   42.43    3.24
  12   5  -5   37.44    3.05
  12  -5  -5   39.25    2.89
 -12  -5   5   41.39    3.04
  12   5  -4    2.36    0.81
 -12   5   4    5.48    1.11
 -12  -5   4    3.05    0.88
  12  -5  -4    3.54    0.91
 -12   5   3   78.33    4.98
  12  -5  -3   77.87    4.72
 -12  -5   3   74.44    5.00
 -12   5   2    9.95    1.56
 -12  -5   2   10.96    1.62
  12  -5  -2   11.56    1.45
 -12   5   1   90.81    5.96
  12   5  -1   98.88    5.38
  12  -5  -1   88.36    5.55
  12   5   0    3.77    0.81
 -12   5   0    2.41    0.76
 -12  -5   0    1.38    0.86
  12  -5   0    2.31    0.77
 -12   5  -1   35.96    2.69
  12   5   1   35.13    2.55
  12  -5   1   30.27    2.61
 -12  -5  -1   35.98    2.95
  12   5   2    8.40    1.35
 -12   5  -2    8.69    1.23
  12  -5   2    5.88    1.08
 -12  -5  -2    7.59    1.39
  12   5   3    9.70    1.52
  12   5   4   10.90    1.60
 -12  -5  -4    7.89    1.42
 -12   6   5    0.33    0.81
  12   6  -5    0.32    0.64
 -12  -6   5    0.62    0.60
  12  -6  -5    0.42    0.68
 -12   6   4   -0.55    0.58
  12  -6  -4   -0.07    0.67
 -12  -6   4   -0.59    0.60
 -12   6   3   -0.69    0.57
 -12  -6   3   -0.45    0.56
  12  -6  -3   -0.33    0.60
 -12   6   2    0.32    0.69
  12  -6  -2    1.31    0.68
 -12  -6   2    0.80    0.80
  12  -6  -1    0.71    0.68
 -12  -6   1   -1.08    0.65
 -12   6   0   20.54    2.10
  12   6   0   21.71    1.69
 -12  -6   0   16.59    2.19
  12  -6   0   19.75    1.93
 -12   6  -1    2.50    0.80
  12   6   1    1.07    0.64
 -12  -6  -1   -0.01    0.78
  12  -6   1    1.26    0.59
  12   6   2   36.10    2.67
 -12   6  -2   34.26    2.68
 -12  -6  -2   36.71    3.03
  12   6   3    6.12    1.16
 -12  -6  -3    5.79    1.25
 -12   7   3   40.28    3.38
  12  -7  -3   41.45    3.11
 -12  -7   3   49.18    3.51
 -12   7   2   24.70    2.62
 -12  -7   2   29.45    2.69
  12  -7  -2   28.89    2.31
 -12   7   1   23.22    2.35
  12  -7  -1   25.84    2.18
 -12  -7   1   22.86    2.49
 -12   7   0   22.98    2.24
  12  -7   0   22.73    2.01
 -12   7  -1   17.18    1.83
  12   7   1   14.44    1.50
 -12  -7  -1   10.48    1.99
 -12   7  -2    5.91    1.04
  12   7   2    4.05    0.91
 -13   0   7   -0.43    0.67
 -13   0   6    0.86    0.82
 -13   0   5   -0.58    0.64
  13   0  -5    1.12    0.50
  13   0  -4   11.75    1.31
  13   0  -3    0.96    0.55
 -13   0   3   -0.18    0.52
 -13   0   2   22.71    1.85
  13   0  -2   22.55    1.94
  13   0  -1   -0.24    0.47
  13   0   0  178.49    9.72
 -13   0   0  173.73   10.00
 -13   0  -1    0.78    0.49
  13   0   1    0.85    0.76
 -13   0  -2  115.08    7.57
  13   0   2  141.94    7.57
 -13   0  -3   -0.77    0.55
  13   0   3   -0.58    0.80
 -13   0  -4   50.77    3.74
  13   0   4   46.98    3.51
 -13   0  -5    1.22    0.74
 -13   1   7   34.40    3.05
 -13   1   6   26.71    2.44
 -13  -1   6   19.32    2.22
 -13   1   5   76.90    4.57
  13  -1  -5   60.87    4.02
 -13  -1   5   61.56    4.41
  13   1  -4   14.24    1.43
 -13   1   4   16.33    1.74
 -13  -1   4   13.46    1.66
  13  -1  -4   12.79    1.43
  13   1  -3  137.78    8.12
 -13   1   3  158.29    8.52
 -13  -1   3  145.92    8.47
 -13   1   2   17.66    1.58
  13   1  -2   17.51    1.58
  13  -1  -2   17.11    1.75
 -13  -1   2   15.78    1.54
  13   1  -1   43.90    2.84
 -13   1   1   38.69    2.63
  13  -1  -1   39.49    2.91
 -13  -1   1   39.81    2.86
  13   1   0   22.90    2.10
  13  -1   0   21.46    1.96
 -13  -1   0   24.64    2.08
  13   1   1    3.52    1.06
 -13   1  -1    3.43    0.77
 -13  -1  -1    3.58    0.83
  13  -1   1    4.66    0.98
 -13   1  -2    1.74    0.64
  13   1   2    0.57    0.85
  13  -1   2    1.85    0.89
 -13  -1  -2    1.63    0.67
 -13   1  -3    0.96    0.66
  13   1   3   -0.70    0.67
 -13  -1  -3    1.08    0.70
  13  -1   3   -0.78    0.60
 -13   1  -4    0.20    0.70
  13   1   4   -1.42    0.65
 -13  -1  -4    1.69    0.75
  13  -1   4    0.38    0.74
  13   1   5    3.72    1.06
 -13   1  -5    3.06    1.06
 -13  -1  -5    1.81    0.95
  13  -1   5    1.75    0.88
 -13   2   7    2.83    1.02
  13   2  -7    1.17    0.84
  13   2  -6    1.02    0.75
 -13   2   6    0.34    0.77
  13  -2  -6    0.23    0.50
  13   2  -5    0.50    0.71
 -13   2   5    0.05    0.70
  13  -2  -5    1.26    0.57
 -13   2   4   -0.03    0.53
  13  -2  -4   -0.11    0.54
 -13   2   3   29.86    2.19
  13   2  -3   30.47    2.04
 -13  -2   3   24.33    2.11
  13  -2  -3   26.79    2.20
 -13  -2   3   20.90    1.99
 -13   2   2   12.10    1.36
  13   2  -2   10.03    1.31
  13  -2  -2    9.33    1.36
 -13   2   1   73.42    4.60
  13   2  -1   84.36    4.77
 -13  -2   1   75.21    4.89
  13  -2  -1   74.66    4.86
  13   2   0   15.64    1.78
 -13   2   0   14.11    1.29
 -13  -2   0   15.94    1.72
  13  -2   0   15.92    1.74
  13   2   1   57.71    4.07
  13  -2   1   64.30    3.99
 -13  -2  -1   64.47    4.13
  13  -2   2   62.52    3.83
 -13  -2  -2   52.63    3.79
 -13   2  -3   47.18    3.78
  13  -2   3   57.39    3.79
 -13  -2  -3   58.13    3.86
 -13   2  -4    6.52    1.25
  13   2   4    8.60    1.44
  13  -2   4    7.89    1.36
 -13  -2  -4    6.39    1.27
 -13   2  -5   18.71    2.07
  13   2   5   16.03    1.91
 -13  -2  -5   14.11    1.94
  13  -3  -7   -0.33    0.48
  13   3  -6   37.29    3.31
 -13   3   6   49.80    3.53
  13  -3  -6   43.96    2.97
 -13   3   5    0.20    0.66
  13   3  -5   -0.98    0.67
  13  -3  -5    0.63    0.55
  13   3  -4   47.46    3.61
 -13   3   4   55.52    3.65
  13  -3  -4   52.97    3.44
 -13  -3   4   52.77    3.59
 -13   3   3    0.04    0.53
 -13  -3   3    0.83    0.49
  13  -3  -3    0.26    0.60
 -13   3   2   46.63    3.23
  13   3  -2   51.14    3.22
  13  -3  -2   46.57    3.35
 -13   3   1    1.99    0.57
  13   3  -1    1.26    0.67
  13  -3  -1    1.42    0.71
 -13  -3   1    1.17    0.75
  13   3   0   38.39    3.14
 -13   3   0   46.73    3.22
  13  -3   0   50.67    3.42
 -13  -3   0   52.60    3.47
  13   3   1    0.63    0.70
  13  -3   1    1.42    0.69
 -13  -3  -1    1.65    0.79
  13   3   2    0.57    0.77
 -13  -3  -2   -0.16    0.58
  13  -3   2    0.51    0.61
  13   3   3    2.10    0.85
 -13  -3  -3    0.23    0.66
  13  -3   3    0.23    0.70
  13   3   4    6.88    1.27
  13  -3   4    6.17    1.20
 -13   3  -5    3.36    0.92
 -13   4   6   -0.12    0.69
  13   4  -6    1.30    0.76
  13  -4  -6    1.92    0.70
  13   4  -5    0.52    0.62
 -13   4   5    0.12    0.64
  13  -4  -5   -0.42    0.58
 -13  -4   5    0.42    0.57
  13   4  -4   -0.88    0.54
 -13   4   4    1.79    0.76
  13  -4  -4    0.54    0.59
 -13  -4   4    1.35    0.64
 -13   4   3   12.39    1.56
 -13  -4   3   10.68    1.48
  13  -4  -3    9.63    1.43
 -13   4   2   21.04    1.82
  13  -4  -2   17.94    1.93
 -13   4   1   49.38    3.30
  13   4  -1   36.90    2.92
  13  -4  -1   49.70    3.37
 -13  -4   1   46.74    3.45
 -13   4   0    9.79    1.42
  13   4   0   12.00    1.43
  13  -4   0   11.41    1.58
 -13  -4   0   16.34    1.89
 -13   4  -1   46.91    3.39
  13   4   1   46.52    3.36
  13  -4   1   50.26    3.44
 -13  -4  -1   54.18    3.68
  13   4   2   18.93    1.98
 -13  -4  -2   21.33    2.22
  13  -4   2   18.52    1.80
  13   4   3   20.95    2.05
  13  -4   3   18.59    1.82
 -13  -4  -3   18.89    2.10
  13   4   4    9.08    1.52
 -13  -4  -4    7.67    1.36
 -13   5   5   37.87    3.06
  13  -5  -5   38.94    2.83
 -13  -5   5   39.19    2.98
 -13   5   4    0.85    0.70
  13  -5  -4    0.65    0.64
 -13  -5   4    0.01    0.61
 -13   5   3   53.76    3.50
 -13  -5   3   45.30    3.48
  13  -5  -3   45.13    3.27
 -13   5   2    5.41    1.09
  13  -5  -2    5.91    1.14
 -13  -5   2    3.16    0.98
  13   5  -1    8.66    1.32
 -13   5   1   11.08    1.56
 -13  -5   1    8.00    1.42
  13  -5  -1   12.01    1.55
 -13   5   0    4.08    0.87
  13   5   0    3.32    0.81
  13  -5   0    2.85    0.86
 -13  -5   0    3.66    1.11
 -13   5  -1    7.88    1.35
  13   5   1   10.75    1.45
 -13  -5  -1    6.71    1.33
  13  -5   1    9.41    1.46
  13   5   2    1.08    0.70
 -13  -5  -2    2.58    0.88
  13  -5   2    1.93    0.69
  13   5   3    0.27    0.67
 -13  -5  -3   -0.59    0.71
 -13   6   4   10.58    1.62
  13  -6  -4    9.58    1.44
 -13  -6   4    8.73    1.62
 -13   6   3    1.75    0.77
 -13  -6   3    1.13    0.78
  13  -6  -3    0.95    0.66
 -13   6   2   13.02    1.74
  13  -6  -2   11.42    1.52
 -13  -6   2    7.37    1.50
 -13   6   1    0.25    0.68
  13  -6  -1   -0.42    0.69
 -13   6   0   44.06    3.35
  13   6   0   47.32    3.02
  13  -6   0   44.43    3.24
 -13  -6   0   40.79    3.51
 -13   6  -1    0.23    0.65
  13   6   1    0.26    0.63
 -13  -6  -1   -0.96    0.71
  13  -6   1   -0.90    0.59
 -13   6  -2   32.31    2.66
  13   6   2   32.50    2.60
 -13  -6  -2   36.35    2.92
 -13   7   2   12.23    1.79
 -13  -7   2   12.02    1.90
  13  -7  -2   13.31    1.63
 -13   7   1   16.43    1.90
  13  -7  -1   14.50    1.74
 -13   7   0    2.34    0.87
 -13  -7   0    2.22    0.94
 -13   7  -1    2.71    0.80
 -14   0   6    1.27    0.79
 -14   0   5   -0.19    0.72
  14   0  -5    0.79    0.49
 -14   0   4   52.36    3.43
  14   0  -4   42.56    3.17
 -14   0   3   -0.31    0.47
  14   0  -3    0.47    0.59
 -14   0   2   38.45    2.62
  14   0  -2   36.85    2.67
  14   0  -1    0.04    0.58
  14   0   0  111.81    6.49
  14   0   1   -0.30    0.74
  14   0   2   93.98    5.48
 -14   0  -2   78.32    5.32
 -14   0  -3    0.10    0.60
  14   0   3   -0.37    0.80
  14   0   4   40.39    3.30
 -14   0  -4   47.36    3.47
 -14   1   6   17.49    1.97
 -14  -1   6   13.39    1.93
 -14   1   5   34.51    2.85
  14  -1  -5   33.82    2.54
 -14  -1   5   38.70    2.93
  14   1  -4    7.45    1.10
 -14   1   4    8.97    1.38
 -14  -1   4    8.88    1.43
  14  -1  -4    7.05    1.15
 -14   1   3   13.88    1.56
  14   1  -3   13.49    1.35
  14  -1  -3    9.57    1.37
 -14  -1   3   16.07    1.58
  14   1  -2    8.34    1.27
 -14   1   2    9.40    1.18
  14  -1  -2    9.06    1.44
  14   1  -1    2.07    0.76
  14  -1  -1    1.57    0.74
  14   1   0   -0.06    0.70
  14  -1   0    0.78    0.66
 -14  -1   0   -0.13    0.53
  14   1   1    0.33    0.79
 -14  -1  -1    0.30    0.54
  14  -1   1    0.62    0.72
 -14   1  -2    0.71    0.67
  14   1   2    1.56    0.99
  14  -1   2    3.45    1.05
 -14  -1  -2    1.11    0.65
  14   1   3    6.79    1.40
 -14   1  -3   10.47    1.47
 -14  -1  -3   10.11    1.56
  14  -1   3    8.53    1.44
 -14   1  -4    1.03    0.78
  14   1   4    1.10    0.88
 -14  -1  -4    0.94    0.85
  14  -1   4    1.18    0.96
 -14   2   6    1.79    0.89
  14   2  -6    1.84    0.79
  14  -2  -6    2.34    0.63
  14   2  -5   22.61    2.20
 -14   2   5   24.44    2.26
  14  -2  -5   23.13    2.00
 -14   2   4    0.37    0.68
  14  -2  -4    1.32    0.68
 -14   2   3   58.15    3.61
  14   2  -3   54.18    3.40
  14  -2  -3   48.80    3.63
  14   2  -2   10.16    1.29
 -14   2   2    8.18    1.13
 -14  -2   2    8.02    1.23
  14  -2  -2    8.32    1.33
  14   2  -1   82.22    4.75
 -14   2   1   74.85    4.58
  14  -2  -1   68.05    4.74
 -14  -2   1   76.40    4.85
  14   2   0    9.01    1.54
 -14  -2   0    7.59    1.31
  14  -2   0    8.05    1.38
  14   2   1   70.65    4.58
  14  -2   1   71.72    4.45
 -14  -2  -1   67.93    4.53
  14   2   2   25.26    2.57
  14  -2   2   35.04    2.59
 -14  -2  -2   31.00    2.44
  14   2   3   24.45    2.53
 -14  -2  -3   32.33    2.49
  14   2   4    2.81    1.07
 -14   2  -4    4.04    0.94
  14  -2   4    6.78    1.26
 -14  -2  -4    7.23    1.30
 -14   3   6   40.23    3.18
  14   3  -6   35.21    3.12
  14  -3  -6   41.88    2.79
 -14   3   5    2.38    0.86
  14   3  -5    1.71    0.88
  14  -3  -5    1.42    0.63
 -14   3   4   29.26    2.31
  14  -3  -4   24.83    2.18
 -14  -3   4   24.33    2.21
 -14   3   3    0.67    0.57
  14  -3  -3    0.42    0.57
 -14  -3   3   -0.08    0.47
  14   3  -2   31.53    2.25
 -14   3   2   28.61    2.17
  14  -3  -2   23.98    2.30
 -14  -3   2   22.09    2.23
  14   3  -1   -0.66    0.62
 -14   3   1    0.31    0.43
 -14  -3   1   -0.36    0.61
  14  -3  -1    1.33    0.78
  14   3   0   -0.84    0.61
  14  -3   0    0.89    0.74
 -14  -3   0   -0.84    0.49
 -14  -3  -1   -0.17    0.59
  14  -3   1    0.50    0.61
  14   3   2   -0.54    0.72
  14  -3   2    0.43    0.65
 -14  -3  -2    0.28    0.65
  14   3   3    2.44    1.07
 -14  -3  -3    5.15    1.02
  14  -3   3    4.07    1.05
  14  -3   4   30.76    2.52
 -14  -3  -4   29.59    2.53
  14   4  -6    3.13    1.01
  14  -4  -6    4.24    0.89
 -14   4   5   13.02    1.72
 -14  -4   5   15.11    1.62
  14  -4  -5   16.61    1.64
 -14   4   4   14.14    1.67
 -14  -4   4   12.59    1.56
  14  -4  -4   11.43    1.54
 -14   4   3   42.96    3.08
  14  -4  -3   39.25    2.98
 -14   4   2   45.33    3.07
  14  -4  -2   48.80    3.30
 -14  -4   2   36.32    3.16
 -14   4   1   45.13    2.92
  14   4  -1   32.62    2.69
  14  -4  -1   32.89    2.89
 -14  -4   1   44.90    3.18
 -14   4   0   22.51    2.01
  14   4   0   16.59    1.84
 -14  -4   0   22.21    2.19
  14  -4   0   22.01    2.16
 -14  -4  -1   33.43    2.77
  14  -4   1   33.11    2.58
  14   4   2   11.13    1.76
 -14  -4  -2   16.23    1.93
  14  -4   2   17.20    1.71
  14   4   3   24.25    2.36
 -14  -4  -3   28.75    2.47
  14  -4   3   26.35    2.25
 -14  -5   5   30.70    2.58
 -14   5   4    3.49    1.01
  14  -5  -4    3.96    0.93
 -14  -5   4    4.74    1.02
 -14   5   3   15.96    1.78
  14  -5  -3   16.66    1.76
 -14   5   2   -0.16    0.57
  14  -5  -2    1.09    0.83
 -14   5   1    1.20    0.66
  14  -5  -1    3.14    0.92
 -14  -5   1    1.97    0.88
 -14   5   0   11.81    1.57
  14   5   0    8.59    1.38
  14  -5   0   12.24    1.64
 -14  -5   0   10.81    1.78
  14   5   1    0.14    0.76
  14  -5   1    3.23    0.95
 -14  -5  -1    0.78    0.73
  14   5   2    0.73    0.79
  14  -5   2    0.29    0.56
 -14  -5  -2    1.59    0.81
 -14  -6   4   26.78    2.52
 -14   6   3    1.02    0.65
  14  -6  -3   -0.24    0.57
 -14  -6   3   -0.46    0.67
 -14   6   2   34.57    2.85
  14  -6  -2   35.36    2.81
 -14   6   1    1.41    0.84
 -14  -6   1   -0.21    0.70
 -14   6   0   52.45    3.82
  14  -6   0   48.00    3.56
 -14  -6   0   54.07    3.95
  14   6   1    3.34    0.89
 -14   6  -1    4.05    1.02
 -14  -6  -1    4.42    1.22
  14  -6   1    4.47    0.99
 -15   0   6   43.34    3.36
 -15   0   5   -0.54    0.68
  15   0  -4   82.79    5.33
 -15   0   4   95.36    5.58
  15   0  -3    0.15    0.53
 -15   0   3   -0.52    0.46
  15   0  -2   69.24    4.29
  15   0  -1    0.58    0.68
  15   0   0  112.92    6.59
  15   0   1   -0.21    0.77
 -15   0  -2   37.33    2.90
  15   0   2   46.08    3.31
  15   0   3   -1.22    0.83
 -15   0  -4    4.51    1.03
  15   0   4    4.92    1.21
 -15   1   6    1.93    0.89
 -15  -1   6    1.45    0.85
 -15   1   5   10.67    1.59
 -15  -1   5   10.05    1.53
  15  -1  -5    8.19    1.19
  15   1  -4    6.03    0.95
 -15   1   4    4.48    0.93
 -15  -1   4    3.89    0.95
  15  -1  -4    2.39    0.67
  15   1  -3    0.56    0.52
 -15   1   3   -0.29    0.51
  15  -1  -3    1.04    0.71
  15   1  -2    1.38    0.64
 -15   1   2    0.46    0.53
  15  -1  -2    0.92    0.69
  15   1  -1    4.22    0.92
  15  -1  -1    3.95    0.94
  15   1   0    1.26    0.82
  15  -1   0    0.63    0.77
 -15  -1   0    0.28    0.50
  15   1   1   17.52    2.06
  15  -1   1   16.94    1.88
 -15  -1  -1   15.65    1.70
  15   1   2   13.24    1.95
  15  -1   2   15.27    1.90
 -15  -1  -2   12.12    1.48
  15   1   3    4.39    1.18
  15  -1   3    7.29    1.33
 -15  -1  -3    4.11    0.98
  15   1   4    4.82    1.38
 -15   1  -4    5.21    1.05
  15  -1   4    6.90    1.30
 -15   2   6   12.90    1.79
  15   2  -6   15.71    1.86
  15  -2  -6   15.45    1.53
 -15   2   5   21.18    2.03
  15  -2  -5   16.14    1.73
 -15   2   4    9.61    1.44
  15  -2  -4    8.54    1.28
 -15   2   3   67.97    4.21
  15   2  -3   69.88    4.07
  15  -2  -3   58.68    4.29
  15   2  -2   29.17    2.23
 -15   2   2   24.37    1.99
  15  -2  -2   26.23    2.35
  15   2  -1   63.25    3.94
  15  -2  -1   58.45    3.96
 -15  -2   1   54.86    3.93
  15   2   0   16.40    1.96
 -15  -2   0   16.77    1.74
  15  -2   0   17.99    1.80
  15   2   1   21.52    2.34
 -15  -2  -1   24.81    2.18
  15  -2   1   25.86    2.20
  15   2   2    9.85    1.72
 -15  -2  -2    7.26    1.36
  15  -2   2   12.03    1.68
  15   2   3    8.44    1.57
 -15  -2  -3   11.65    1.53
  15  -2   3   10.70    1.71
 -15   3   5    0.46    0.74
  15   3  -5    2.35    0.91
  15  -3  -5    1.20    0.75
 -15   3   4    4.66    0.96
  15  -3  -4    3.84    0.98
  15  -3  -3    0.64    0.64
 -15   3   2    0.44    0.53
  15   3  -2    0.11    0.63
 -15  -3   2   -0.09    0.50
  15  -3  -2    1.30    0.70
  15   3  -1    0.86    0.72
  15  -3  -1    0.98    0.85
 -15  -3   1    0.33    0.64
  15   3   0   11.98    1.73
 -15  -3   0   13.08    1.69
  15  -3   0   14.98    1.76
  15   3   1    2.07    0.94
 -15  -3  -1    2.74    0.87
  15  -3   1    3.76    0.92
  15   3   2   14.73    2.04
 -15  -3  -2   19.00    2.00
  15  -3   2   21.95    1.98
  15   3   3    1.06    1.02
  15  -3   3    1.91    0.81
 -15  -3  -3    0.08    0.65
  15  -4  -5   17.18    1.76
 -15   4   4    9.83    1.39
 -15  -4   4    5.60    1.10
 -15   4   3   33.06    2.61
  15  -4  -3   30.53    2.61
 -15   4   2   21.16    1.87
 -15  -4   2   17.46    2.02
  15  -4  -2   20.89    2.07
  15   4  -1   24.10    2.07
 -15   4   1   25.61    2.01
 -15  -4   1   24.91    2.33
  15  -4  -1   21.47    2.24
  15   4   0   10.20    1.54
 -15  -4   0   16.42    1.86
  15  -4   0   13.90    1.77
  15  -4   1    8.90    1.41
 -15  -4  -1    9.65    1.53
  15  -4   2   13.98    1.60
 -15  -4  -2   13.18    1.75
 -15   5   3    0.50    0.65
 -15  -5   3   -0.83    0.58
  15  -5  -3    0.90    0.81
 -15   5   2    0.39    0.59
  15  -5  -2    1.48    0.66
 -15  -5   2   -1.17    0.60
 -15   5   1    0.10    0.67
 -15  -5   1    0.80    0.84
  15  -5  -1    1.91    0.83
  15   5   0   -0.82    0.70
 -15   5   0   -1.23    0.65
  15  -5   0    1.75    0.82
 -15  -5   0   -1.22    0.65
  15   5   1   10.37    1.58
 -15  -5  -1   16.03    1.89
  15  -5   1   14.21    1.68
 -15   6   2   34.60    2.66
 -15  -6   2   26.21    2.89
 -15   6   1    7.56    1.32
  15  -6  -1    6.24    1.26
 -15   6   0   39.63    3.13
  15  -6   0   37.68    2.96
 -16   0   5    0.99    0.71
 -16   0   4   47.55    3.20
  16   0  -4   41.28    3.03
  16   0  -3    0.08    0.52
  16   0  -2   49.20    3.28
  16   0  -1    0.28    0.60
  16   0   0   29.83    2.47
  16   0   1   -0.17    0.73
  16   0   2    1.67    0.92
 -16   0  -3   -0.33    0.67
  16   0   3   -0.45    0.74
 -16   1   5   -0.26    0.60
 -16  -1   5    0.32    0.67
 -16   1   4    0.39    0.56
  16  -1  -4    0.37    0.58
  16   1  -3    5.27    0.97
 -16   1   3    3.78    0.82
  16  -1  -3    2.93    0.81
  16   1  -2    8.86    1.31
  16  -1  -2    9.23    1.41
  16   1  -1   18.51    1.90
  16  -1  -1   17.00    1.82
  16   1   0    3.89    1.08
  16  -1   0    5.55    1.07
  16   1   1   28.56    2.43
 -16  -1  -1   21.02    1.99
  16  -1   1   20.41    2.16
  16   1   2   29.55    2.71
 -16  -1  -2   24.84    2.22
  16  -1   2   31.63    2.60
  16   1   3   25.23    2.55
  16  -1   3   24.33    2.40
 -16  -1  -3   21.91    2.11
 -16   2   5   55.02    3.80
  16  -2  -5   53.99    3.69
 -16   2   4    4.22    0.90
  16  -2  -4    4.78    1.05
  16   2  -3   52.47    3.21
 -16   2   3   50.52    3.28
  16  -2  -3   40.52    3.37
  16   2  -2    8.62    1.38
  16  -2  -2    6.88    1.28
  16   2  -1   31.52    2.51
  16  -2  -1   27.11    2.40
  16   2   0    4.26    1.05
  16  -2   0    3.99    0.97
 -16  -2   0    4.02    0.87
  16   2   1   20.66    2.22
  16  -2   1   16.43    1.90
 -16  -2  -1   17.29    1.88
  16   2   2    1.07    0.92
 -16  -2  -2    1.01    0.65
  16  -2   2    0.25    0.82
 -16  -2  -3    2.81    0.81
  16  -2   3    4.08    1.04
  16  -3  -5    1.58    0.65
 -16   3   4    2.53    0.75
  16  -3  -4    5.83    1.16
 -16   3   3   -0.60    0.46
  16  -3  -3   -0.14    0.65
 -16   3   2    6.73    1.14
  16   3  -2    9.98    1.38
  16  -3  -2    7.40    1.42
 -16  -3   2    6.29    1.16
  16   3  -1    1.04    0.76
  16  -3  -1    1.25    0.79
  16   3   0   46.03    3.36
 -16  -3   0   45.42    3.29
  16  -3   0   44.04    3.20
  16   3   1    0.96    0.91
 -16  -3  -1    1.27    0.69
  16  -3   1    1.44    0.81
  16   3   2   40.15    3.28
 -16  -3  -2   42.20    3.19
  16  -3   2   44.05    3.10
 -16   4   4    7.69    1.30
 -16   4   3   34.30    2.40
  16  -4  -3   26.85    2.46
 -16  -4   3   24.87    2.49
 -16   4   2   26.33    2.16
 -16  -4   2   26.88    2.40
  16  -4  -2   22.85    2.28
  16   4  -1   20.13    1.98
 -16  -4   1   25.00    2.22
  16  -4  -1   21.03    2.23
  16   4   0    9.38    1.45
 -16  -4   0   10.29    1.64
  16  -4   0    9.41    1.55
  16   4   1    9.64    1.60
  16  -4   1    9.50    1.38
 -16  -4  -1    7.37    1.27
 -16   5   2    1.15    0.61
 -16  -5   2    2.15    0.97
 -16   5   1   13.49    1.52
 -16  -5   1   15.30    1.84
  16  -5   0    4.27    1.12
 -16  -5   0    3.18    1.00
 -17   0   5    0.24    0.67
  17   0  -4   51.82    3.39
  17   0  -3    0.69    0.56
  17   0  -2   25.50    2.15
  17   0  -1    0.05    0.64
  17   0   0    3.02    0.94
  17   0   1   -0.96    0.68
 -17   1   4    0.83    0.63
  17  -1  -4    1.10    0.70
  17   1  -3   24.40    1.96
  17  -1  -3   22.84    2.09
  17   1  -2   17.19    1.67
  17  -1  -2   13.55    1.63
  17   1  -1   53.61    3.71
  17  -1  -1   56.06    3.70
  17   1   0    7.27    1.36
  17  -1   0    8.43    1.45
  17   1   1   41.77    3.27
  17  -1   1   42.52    3.21
 -17   2   4    9.61    1.38
  17  -2  -4   11.21    1.44
  17  -2  -3   23.68    2.23
  17   2  -2    3.64    0.98
  17  -2  -2    5.88    1.17
  17   2  -1   13.30    1.72
  17  -2  -1   10.43    1.55
  17   2   0    2.91    1.06
  17  -2   0    2.84    0.91
  17   2   1    1.48    0.90
  17  -2   1    0.35    0.75
 -17  -2  -1    0.24    0.58
 -17   3   3    0.21    0.50
  17  -3  -3    0.66    0.72
  17   3  -2   18.97    1.85
  17  -3  -2   18.55    2.07
  17   3  -1   -1.22    0.62
  17  -3  -1   -0.24    0.66
  17   3   0   46.84    3.38
  17  -3   0   43.34    3.18
 -17  -3   0   46.14    3.30
 -17  -3  -1   -0.72    0.50
 -17   4   2    0.31    0.60
 -17  -4   2    0.43    0.76
  17   4  -1    4.66    1.09
 -17  -4   1    4.22    0.98
  18   0  -3   -0.39    0.51
  18   0  -2    3.27    0.89
  18   0  -1    0.02    0.67
  18   1  -3   18.77    1.72
  18  -1  -3   18.51    1.81
  18   1  -2   12.10    1.50
  18  -1  -2   12.69    1.51
  18   1  -1   31.05    2.48
  18  -1  -1   27.12    2.34
  18   2  -2    1.65    0.77
  18   2  -1    0.79    0.67
   0   0   0    0.00    0.00
;
_shelx_res_checksum              38119
_shelx_res_file
;
TITL dmt45 in P2(1)/c
CELL 0.71073  13.91090   7.86610   7.02350  90.0000  98.8733  90.0000
ZERR    4.00   0.00160   0.00090   0.00080   0.0000   0.0015   0.0000
LATT  1
SYMM -X, 0.5+Y, 0.5-Z
SFAC C H N O RB
UNIT 24 32 4 8 4
TEMP -123
SIZE 0.8 0.2 0.05
L.S. 8
ACTA
BOND $H
DFIX 0.84 0.01 O2 H2A O2 H2B
rem CONN RB1 8
EQIV $1 -x+1, y-1/2, -z+1/2
EQIV $2 -x+1, -y+1, -z+1
HTAB O2 O1_$1
HTAB O2 N1_$2
FMAP 2
PLAN 10
rem EXTI    0.001385
WGHT    0.039400    0.511900
FVAR       0.19351
RB1   5    0.429232    0.410846    0.221944    11.00000    0.01860    0.01551 =
         0.02034    0.00007    0.00497    0.00074
O1    4    0.375610    0.445858    0.621782    11.00000    0.02093    0.01608 =
         0.03280   -0.00136    0.01155    0.00032
N1    3    0.271566    0.526592    0.827619    11.00000    0.01715    0.01391 =
         0.02172   -0.00016    0.00356   -0.00038
C1    1    0.288018    0.448288    0.662646    11.00000    0.01994    0.01082 =
         0.02024    0.00079    0.00602    0.00090
C2    1    0.209157    0.370882    0.540509    11.00000    0.02629    0.01827 =
         0.02169   -0.00296    0.00296    0.00009
AFIX  43
H2    2    0.220273    0.312171    0.427721    11.00000   -1.20000
AFIX   0
C3    1    0.116865    0.381259    0.586107    11.00000    0.02146    0.02129 =
         0.02985    0.00118   -0.00140   -0.00279
AFIX  43
H3    2    0.063894    0.330256    0.504446    11.00000   -1.20000
AFIX   0
C4    1    0.100892    0.466801    0.752542    11.00000    0.01692    0.02175 =
         0.02879    0.00391    0.00723    0.00147
AFIX  43
H4    2    0.037225    0.477288    0.784418    11.00000   -1.20000
AFIX   0
C5    1    0.179914    0.535515    0.869163    11.00000    0.02392    0.01344 =
         0.02358    0.00236    0.00951    0.00244
C6    1    0.168303    0.627493    1.053068    11.00000    0.03429    0.03036 =
         0.03228   -0.00926    0.01707    0.00002
AFIX 137
H6A   2    0.207953    0.571266    1.162562    11.00000   -1.50000
H6B   2    0.099786    0.625196    1.070665    11.00000   -1.50000
H6C   2    0.189637    0.745682    1.045274    11.00000   -1.50000
AFIX   0
O2    4    0.577541    0.258320    0.020568    11.00000    0.01871    0.02583 =
         0.02776   -0.01053    0.00513   -0.00168
H2A   2    0.598106    0.167860   -0.023359    11.00000    0.03309
H2B   2    0.622310    0.325549    0.065959    11.00000    0.05858
HKLF 4
REM  dmt45 in P2(1)/c
REM R1 =  0.0303 for    1623 Fo > 4sig(Fo)  and  0.0368 for all    1854 data
REM    100 parameters refined using      2 restraints
END
WGHT      0.0396      0.5041
REM Highest difference peak  0.662,  deepest hole -0.613,  1-sigma level  0.112
Q1    1   0.3854  0.4198  0.0716  11.00000  0.05    0.66
Q2    1   0.5009  0.4557  0.2834  11.00000  0.05    0.50
Q3    1   0.3642  0.4183  0.1561  11.00000  0.05    0.49
Q4    1   0.4750  0.4122  0.3599  11.00000  0.05    0.48
Q5    1   0.4190  0.2764  0.1206  11.00000  0.05    0.46
Q6    1   0.4183  0.4224  0.8375  11.00000  0.05    0.46
Q7    1   0.4471  0.4538  0.6047  11.00000  0.05    0.42
Q8    1   0.2465  0.6828  1.1354  11.00000  0.05    0.41
Q9    1   0.4996  0.3340  0.1151  11.00000  0.05    0.41
Q10   1   0.3619  0.3462  0.3190  11.00000  0.05    0.38
;
_shelxl_version_number           20.13
#END Tags that were not found in dictionaries
loop_
_space_group_symop_operation_xyz
'x, y, z'
'-x, y+1/2, -z+1/2'
'-x, -y, -z'
'x, -y-1/2, z-1/2'
loop_
_atom_site_type_symbol
_atom_site_label
_atom_site_fract_x
_atom_site_fract_y
_atom_site_fract_z
_atom_site_U_iso_or_equiv
_atom_site_adp_type
_atom_site_calc_flag
_atom_site_occupancy
Rb Rb1 0.42923(2) 0.41085(3) 0.22194(3) 0.01794(11) Uani d 1
O O1 0.37561(15) 0.4459(2) 0.6218(3) 0.0225(4) Uani d 1
N N1 0.27157(16) 0.5266(3) 0.8276(3) 0.0175(5) Uani d 1
C C1 0.2880(2) 0.4483(3) 0.6626(4) 0.0167(5) Uani d 1
C C2 0.2092(2) 0.3709(4) 0.5405(4) 0.0222(6) Uani d 1
H H2 0.2203 0.3122 0.4277 0.027 Uiso calc 1
C C3 0.1169(2) 0.3813(4) 0.5861(4) 0.0248(6) Uani d 1
H H3 0.0639 0.3303 0.5044 0.030 Uiso calc 1
C C4 0.1009(2) 0.4668(4) 0.7525(4) 0.0221(6) Uani d 1
H H4 0.0372 0.4773 0.7844 0.027 Uiso calc 1
C C5 0.1799(2) 0.5355(3) 0.8692(4) 0.0197(5) Uani d 1
C C6 0.1683(3) 0.6275(4) 1.0531(5) 0.0311(7) Uani d 1
H H6A 0.2080 0.5713 1.1626 0.047 Uiso calc 1
H H6B 0.0998 0.6252 1.0707 0.047 Uiso calc 1
H H6C 0.1896 0.7457 1.0453 0.047 Uiso calc 1
O O2 0.57754(14) 0.2583(3) 0.0206(3) 0.0239(4) Uani d 1
H H2A 0.598(2) 0.168(3) -0.023(5) 0.033(10) Uiso d 1
H H2B 0.622(2) 0.326(5) 0.066(6) 0.059(13) Uiso d 1
loop_
_atom_site_aniso_label
_atom_site_aniso_U_11
_atom_site_aniso_U_22
_atom_site_aniso_U_33
_atom_site_aniso_U_12
_atom_site_aniso_U_13
_atom_site_aniso_U_23
Rb1 0.01860(16) 0.01551(15) 0.02034(16) 0.00074(9) 0.00497(10) 0.00007(9)
O1 0.0209(10) 0.0161(9) 0.0328(11) 0.0003(8) 0.0115(9) -0.0014(8)
N1 0.0171(11) 0.0139(10) 0.0217(11) -0.0004(9) 0.0036(9) -0.0002(9)
C1 0.0199(13) 0.0108(11) 0.0202(12) 0.0009(10) 0.0060(10) 0.0008(10)
C2 0.0263(15) 0.0183(13) 0.0217(13) 0.0001(11) 0.0030(11) -0.0030(10)
C3 0.0215(15) 0.0213(14) 0.0298(15) -0.0028(11) -0.0014(12) 0.0012(11)
C4 0.0169(13) 0.0218(13) 0.0288(14) 0.0015(11) 0.0072(11) 0.0039(11)
C5 0.0239(14) 0.0134(12) 0.0236(13) 0.0024(11) 0.0095(11) 0.0024(10)
C6 0.0343(18) 0.0304(16) 0.0323(16) 0.0000(14) 0.0171(14) -0.0093(13)
O2 0.0187(10) 0.0258(11) 0.0278(11) -0.0017(9) 0.0051(8) -0.0105(9)
loop_
_atom_type_symbol
_atom_type_description
_atom_type_scat_dispersion_real
_atom_type_scat_dispersion_imag
_atom_type_scat_source
C C 0.0033 0.0016 'International Tables Vol C Tables 4.2.6.8 and 6.1.1.4'
H H 0.0000 0.0000 'International Tables Vol C Tables 4.2.6.8 and 6.1.1.4'
N N 0.0061 0.0033 'International Tables Vol C Tables 4.2.6.8 and 6.1.1.4'
O O 0.0106 0.0060 'International Tables Vol C Tables 4.2.6.8 and 6.1.1.4'
Rb Rb -0.9393 2.9676 'International Tables Vol C Tables 4.2.6.8 and 6.1.1.4'
loop_
_geom_angle_atom_site_label_1
_geom_angle_atom_site_label_2
_geom_angle_atom_site_label_3
_geom_angle_site_symmetry_1
_geom_angle_site_symmetry_3
_geom_angle
O1 Rb1 O1 4_565 3_666 128.78(5)
O1 Rb1 O1 . 4_565 102.57(6)
O1 Rb1 O1 . 3_666 87.99(6)
O1 Rb1 N1 4_565 1_554 87.29(6)
O1 Rb1 N1 3_666 1_554 129.58(6)
O1 Rb1 N1 . 1_554 120.91(6)
O1 Rb1 C1 4_565 4_565 21.82(6)
O1 Rb1 C1 3_666 4_565 145.73(6)
O1 Rb1 C1 . 4_565 88.23(6)
O1 Rb1 O2 . . 141.00(6)
O1 Rb1 O2 4_565 . 70.60(6)
O1 Rb1 O2 3_666 . 70.39(5)
O1 Rb1 O2 4_565 4_566 82.37(6)
O1 Rb1 O2 3_666 4_566 54.93(6)
O1 Rb1 O2 . 4_566 68.59(5)
O1 Rb1 O2 4_565 3_665 132.78(5)
O1 Rb1 O2 3_666 3_665 80.46(5)
O1 Rb1 O2 . 3_665 116.22(5)
O1 Rb1 O2 4_565 2_655 153.06(5)
O1 Rb1 O2 3_666 2_655 65.52(5)
O1 Rb1 O2 . 2_655 51.82(5)
O1 Rb1 H2B . . 133.8(7)
O1 Rb1 H2B 4_565 . 84.9(5)
O1 Rb1 H2B 3_666 . 55.1(4)
N1 Rb1 C1 1_554 4_565 80.52(6)
N1 Rb1 O2 1_554 . 97.52(6)
N1 Rb1 O2 1_554 4_566 167.49(6)
N1 Rb1 O2 1_554 3_665 50.49(5)
N1 Rb1 O2 1_554 2_655 99.02(5)
N1 Rb1 H2B 1_554 . 104.7(7)
C1 Rb1 O2 4_565 . 92.11(6)
C1 Rb1 O2 4_565 4_566 92.21(6)
C1 Rb1 O2 4_565 3_665 130.97(6)
C1 Rb1 O2 4_565 2_655 133.42(6)
C1 Rb1 H2B 4_565 . 106.7(4)
O2 Rb1 O2 . 4_566 72.43(4)
O2 Rb1 O2 . 3_665 92.43(5)
O2 Rb1 O2 4_566 3_665 135.35(4)
O2 Rb1 O2 . 2_655 133.45(4)
O2 Rb1 O2 4_566 2_655 93.38(5)
O2 Rb1 O2 3_665 2_655 66.651(10)
O2 Rb1 H2B . . 15.5(3)
O2 Rb1 H2B 4_566 . 67.4(8)
O2 Rb1 H2B 3_665 . 86.7(8)
O2 Rb1 H2B 2_655 . 118.1(4)
Rb1 O1 Rb1 4_566 3_666 95.10(6)
Rb1 O1 Rb1 . 4_566 92.59(5)
Rb1 O1 Rb1 . 3_666 92.01(6)
Rb1 O1 C1 . . 125.60(17)
Rb1 O1 C1 4_566 . 99.94(15)
Rb1 O1 C1 3_666 . 138.26(17)
Rb1 N1 C1 1_556 . 113.70(16)
Rb1 N1 C5 1_556 . 110.55(16)
C1 N1 C5 . . 119.6(2)
Rb1 C1 O1 4_566 . 58.24(13)
Rb1 C1 N1 4_566 . 115.94(16)
Rb1 C1 C2 4_566 . 95.44(16)
O1 C1 N1 . . 118.9(2)
O1 C1 C2 . . 121.7(2)
N1 C1 C2 . . 119.5(2)
C1 C2 H2 . . 120.1
C1 C2 C3 . . 119.8(3)
H2 C2 C3 . . 120.1
C2 C3 H3 . . 120.0
C2 C3 C4 . . 120.0(3)
H3 C3 C4 . . 120.0
C3 C4 H4 . . 120.9
C3 C4 C5 . . 118.2(3)
H4 C4 C5 . . 120.9
N1 C5 C4 . . 123.0(3)
N1 C5 C6 . . 116.0(3)
C4 C5 C6 . . 121.1(3)
C5 C6 H6A . . 109.5
C5 C6 H6B . . 109.5
C5 C6 H6C . . 109.5
H6A C6 H6B . . 109.5
H6A C6 H6C . . 109.5
H6B C6 H6C . . 109.5
Rb1 O2 Rb1 . 4_565 93.40(6)
Rb1 O2 Rb1 . 3_665 87.57(5)
Rb1 O2 Rb1 4_565 3_665 91.65(5)
Rb1 O2 Rb1 . 2_645 89.59(5)
Rb1 O2 Rb1 4_565 2_645 86.62(5)
Rb1 O2 Rb1 3_665 2_645 176.58(7)
Rb1 O2 H2A . . 146(3)
Rb1 O2 H2A 4_565 . 67(2)
Rb1 O2 H2A 3_665 . 119(3)
Rb1 O2 H2A 2_645 . 63(3)
Rb1 O2 H2B . . 95(3)
Rb1 O2 H2B 4_565 . 158(3)
Rb1 O2 H2B 3_665 . 69(3)
Rb1 O2 H2B 2_645 . 113(3)
H2A O2 H2B . . 113(4)
loop_
_geom_bond_atom_site_label_1
_geom_bond_atom_site_label_2
_geom_bond_site_symmetry_2
_geom_bond_distance
_geom_bond_publ_flag
Rb1 Rb1 3_665 4.1782(6) ?
Rb1 Rb1 3_666 4.3275(6) ?
Rb1 Rb1 4_565 4.3285(5) ?
Rb1 O1 . 3.027(2) y
Rb1 O1 4_565 2.960(2) y
Rb1 O1 3_666 2.988(2) y
Rb1 N1 1_554 3.382(2) y
Rb1 C1 4_565 3.429(3) .
Rb1 O2 . 2.9320(19) y
Rb1 O2 4_566 3.0152(19) y
Rb1 O2 3_665 3.104(2) y
Rb1 O2 2_655 3.287(2) y
Rb1 H2B . 3.13(4) ?
O1 Rb1 4_566 2.960(2) ?
O1 Rb1 3_666 2.988(2) ?
O1 C1 . 1.294(3) ?
N1 Rb1 1_556 3.382(2) ?
N1 C1 . 1.362(3) ?
N1 C5 . 1.353(4) ?
C1 Rb1 4_566 3.429(3) ?
C1 C2 . 1.421(4) ?
C2 H2 . 0.950 ?
C2 C3 . 1.373(4) ?
C3 H3 . 0.950 ?
C3 C4 . 1.396(4) ?
C4 H4 . 0.950 ?
C4 C5 . 1.376(4) ?
C5 C6 . 1.511(4) ?
C6 H6A . 0.980 ?
C6 H6B . 0.980 ?
C6 H6C . 0.980 ?
O2 Rb1 4_565 3.0152(19) ?
O2 Rb1 3_665 3.104(2) ?
O2 Rb1 2_645 3.287(2) ?
O2 H2A . 0.843(10) ?
O2 H2B . 0.841(10) ?
loop_
_geom_hbond_atom_site_label_D
_geom_hbond_atom_site_label_H
_geom_hbond_atom_site_label_A
_geom_hbond_site_symmetry_A
_geom_hbond_distance_DH
_geom_hbond_distance_HA
_geom_hbond_distance_DA
_geom_hbond_angle_DHA
_geom_hbond_publ_flag
O2 H2A O1 2_645 0.843(10) 1.934(12) 2.769(3) 171(4) y
O2 H2B N1 3_666 0.841(10) 1.937(11) 2.778(3) 178(5) y
