#------------------------------------------------------------------------------
#$Date: 2016-04-02 04:17:53 +0300 (Sat, 02 Apr 2016) $
#$Revision: 180695 $
#$URL: svn://www.crystallography.net/cod/cif/2/10/74/2107490.cif $
#------------------------------------------------------------------------------
#
# This file is available in the Crystallography Open Database (COD),
# http://www.crystallography.net/. The original data for this entry
# were provided by IUCr Journals, http://journals.iucr.org/.
#
# The file may be used within the scientific community so long as
# proper attribution is given to the journal article from which the
# data were obtained.
#
data_2107490
loop_
_publ_author_name
'Hejny, Clivia'
'Kahlenberg, Volker'
'Eberhard, Tim'
'Kr\"uger, Hannes'
_publ_section_title
;
 Melilite-like modulation and temperature-dependent evolution in the
 framework structure of K~2~Sc[Si~2~O~6~]F
;
_journal_coeditor_code           DK5040
_journal_issue                   2
_journal_name_full               'Acta Crystallographica Section B'
_journal_page_first              209
_journal_page_last               222
_journal_paper_doi               10.1107/S2052520615024865
_journal_volume                  72
_journal_year                    2016
_chemical_formula_sum            'F K2 O6 Sc Si2'
_chemical_formula_weight         294.3
_chemical_name_systematic        ' ?'
_space_group_IT_number           136
_symmetry_cell_setting           tetragonal
_symmetry_space_group_name_Hall  '-P 4n 2n'
_symmetry_space_group_name_H-M   'P 42/m n m'
_cell_angle_alpha                90
_cell_angle_beta                 90
_cell_angle_gamma                90
_cell_formula_units_Z            4
_cell_length_a                   8.9705(4)
_cell_length_b                   8.9705(4)
_cell_length_c                   8.2615(4)
_cell_measurement_reflns_used    4774
_cell_measurement_temperature    293
_cell_measurement_theta_max      29.33
_cell_measurement_theta_min      3.02
_cell_modulation_dimension       2
_cell_volume                     664.80(5)
_computing_cell_refinement
;
CrysAlisPro, Agilent Technologies,
Version 1.171.36.20 (release 27-06-2012 CrysAlis171 .NET)
(compiled Jul 11 2012,15:38:31)
;
_computing_data_collection
;
CrysAlisPro, Agilent Technologies,
Version 1.171.36.20 (release 27-06-2012 CrysAlis171 .NET)
(compiled Jul 11 2012,15:38:31)
;
_computing_data_reduction
;
CrysAlisPro, Agilent Technologies,
Version 1.171.36.20 (release 27-06-2012 CrysAlis171 .NET)
(compiled Jul 11 2012,15:38:31)
;
_diffrn_ambient_temperature      293
_diffrn_detector_area_resol_mean 10.3575
_diffrn_measured_fraction_theta_full 0.98
_diffrn_measured_fraction_theta_max 0.95
_diffrn_measurement_device       'four-cycle diffractometer'
_diffrn_measurement_device_type  'Xcalibur, Ruby, Gemini ultra'
_diffrn_measurement_method       '\w scans'
_diffrn_radiation_monochromator  graphite
_diffrn_radiation_probe          x-ray
_diffrn_radiation_source         'Enhance (Mo) X-ray Source'
_diffrn_radiation_type           'Mo K\a'
_diffrn_radiation_wavelength     0.7107
_diffrn_reflns_av_R_equivalents  0.0541
_diffrn_reflns_av_unetI/netI     0.0436
_diffrn_reflns_limit_h_max       11
_diffrn_reflns_limit_h_min       -12
_diffrn_reflns_limit_index_m_1_max 1
_diffrn_reflns_limit_index_m_1_min -1
_diffrn_reflns_limit_index_m_2_max 1
_diffrn_reflns_limit_index_m_2_min -1
_diffrn_reflns_limit_k_max       12
_diffrn_reflns_limit_k_min       -10
_diffrn_reflns_limit_l_max       10
_diffrn_reflns_limit_l_min       -10
_diffrn_reflns_number            36339
_diffrn_reflns_theta_full        28.73
_diffrn_reflns_theta_max         29.41
_diffrn_reflns_theta_min         3.03
_exptl_absorpt_coefficient_mu    2.728
_exptl_absorpt_correction_T_max  0.552
_exptl_absorpt_correction_T_min  0.406
_exptl_absorpt_correction_type   analytical
_exptl_absorpt_process_details
;
CrysAlisPro, Agilent Technologies,
Version 1.171.36.20 (release 27-06-2012 CrysAlis171 .NET)
(compiled Jul 11 2012,15:38:31)
Analytical numeric absorption correction using a multifaceted crystal
            model based on expressions derived by R.C. Clark & J.S. Reid.
(Clark, R. C. & Reid, J. S. (1995). Acta Cryst. A51, 887-897)
;
_exptl_crystal_colour
;
;
_exptl_crystal_density_diffrn    2.9396
_exptl_crystal_description
;
;
_exptl_crystal_F_000             576
_exptl_crystal_size_max          0.455
_exptl_crystal_size_mid          0.41
_exptl_crystal_size_min          0.307
_refine_diff_density_max         1.69
_refine_diff_density_min         -1.73
_refine_ls_extinction_coef       8000(200)
_refine_ls_extinction_method
'B-C type 1 Gaussian isotropic (Becker & Coppens, 1974)'
_refine_ls_goodness_of_fit_gt    1.83
_refine_ls_goodness_of_fit_ref   1.32
_refine_ls_number_constraints    0
_refine_ls_number_parameters     187
_refine_ls_number_reflns         4131
_refine_ls_number_restraints     0
_refine_ls_R_factor_all          0.1086
_refine_ls_R_factor_gt           0.0404
_refine_ls_shift/su_max          0.0366
_refine_ls_shift/su_mean         0.0060
_refine_ls_structure_factor_coef F
_refine_ls_weighting_details     w=1/(\s^2^(F)+0.0001F^2^)
_refine_ls_weighting_scheme      sigma
_refine_ls_wR_factor_gt          0.0540
_refine_ls_wR_factor_ref         0.0628
_reflns_number_gt                1684
_reflns_number_total             4131
_reflns_threshold_expression     I>3\s(I)
_cod_data_source_file            dk5040sup1.cif
_cod_data_source_block           III_223K
_cod_depositor_comments
;
The following automatic conversions were performed:

'_diffrn_radiation_probe' value 'X-ray' changed to 'x-ray' according
to
/usr/data/users/saulius/crontab/automatic-downloads/rss-feeds/IUCr/lib/dictionaries/cif_core.dic
dictionary named 'cif_core.dic' version 2.4.2 from 2011-04-26.

Automatic conversion script
Id: cif_fix_values 4268 2015-11-12 08:31:59Z antanas 
;
_cod_original_sg_symbol_H-M      'P 42/m 21/n 2/m'
_cod_original_formula_sum        'F1 K2 O6 Sc1 Si2'
_cod_database_code               2107490
loop_
_space_group_symop_id
_space_group_symop_operation_xyz
1 x,y,z
2 -x,-y,z
3 -y+0.5,x+0.5,z+0.5
4 y+0.5,-x+0.5,z+0.5
5 -x+0.5,y+0.5,-z+0.5
6 x+0.5,-y+0.5,-z+0.5
7 y,x,-z
8 -y,-x,-z
9 -x,-y,-z
10 x,y,-z
11 y+0.5,-x+0.5,-z+0.5
12 -y+0.5,x+0.5,-z+0.5
13 x+0.5,-y+0.5,z+0.5
14 -x+0.5,y+0.5,z+0.5
15 -y,-x,z
16 y,x,z
loop_
_space_group_symop_ssg_id
_space_group_symop_ssg_operation_algebraic
1 x1,x2,x3,x4,x5
2 -x1,-x2,x3,-x4,-x5
3 -x2+1/2,x1+1/2,x3+1/2,-x5+1/2,x4+1/2
4 x2+1/2,-x1+1/2,x3+1/2,x5+1/2,-x4+1/2
5 -x1+1/2,x2+1/2,-x3+1/2,x5,x4
6 x1+1/2,-x2+1/2,-x3+1/2,-x5,-x4
7 x2,x1,-x3,x4+1/2,-x5+1/2
8 -x2,-x1,-x3,-x4+1/2,x5+1/2
9 -x1,-x2,-x3,-x4,-x5
10 x1,x2,-x3,x4,x5
11 x2+1/2,-x1+1/2,-x3+1/2,x5+1/2,-x4+1/2
12 -x2+1/2,x1+1/2,-x3+1/2,-x5+1/2,x4+1/2
13 x1+1/2,-x2+1/2,x3+1/2,-x5,-x4
14 -x1+1/2,x2+1/2,x3+1/2,x5,x4
15 -x2,-x1,x3,-x4+1/2,x5+1/2
16 x2,x1,x3,x4+1/2,-x5+1/2
loop_
_atom_site_label
_atom_site_type_symbol
_atom_site_fract_x
_atom_site_fract_y
_atom_site_fract_z
_atom_site_adp_type
_atom_site_U_iso_or_equiv
_atom_site_site_symmetry_multiplicity
_atom_site_occupancy
_atom_site_calc_flag
Sc Sc 0.5 0 0.25 Uani 0.00436(14) 4 1 d
K1 K 0.79288(5) 0.20712(5) 0 Uani 0.01446(17) 4 1 d
K2 K 0.34291(5) 0.34291(5) 0 Uani 0.0234(2) 4 1 d
Si Si 0.12243(4) 0.12243(4) 0.19662(7) Uani 0.00510(15) 8 1 d
O1 O 0 0 0.2591(3) Uani 0.0103(5) 4 1 d
O2 O 0.11661(15) 0.11661(15) 0 Uani 0.0127(5) 4 1 d
F F 0.5 0 0 Uani 0.0134(5) 4 1 d
O3 O 0.07265(12) 0.28124(11) 0.25894(14) Uani 0.0121(3) 16 1 d
loop_
_atom_site_aniso_label
_atom_site_aniso_type_symbol
_atom_site_aniso_U_11
_atom_site_aniso_U_22
_atom_site_aniso_U_33
_atom_site_aniso_U_12
_atom_site_aniso_U_13
_atom_site_aniso_U_23
Sc Sc 0.00438(19) 0.00438(19) 0.0043(3) 0 0 0
K1 K 0.0162(2) 0.0162(2) 0.0109(4) 0.0061(3) 0 0
K2 K 0.0288(3) 0.0288(3) 0.0125(4) -0.0191(3) 0 0
Si Si 0.0052(2) 0.0052(2) 0.0049(3) 0.00006(19) -0.00002(15) -0.00002(15)
O1 O 0.0110(7) 0.0110(7) 0.0087(12) -0.0048(8) 0 0
O2 O 0.0170(7) 0.0170(7) 0.0039(12) -0.0055(8) 0 0
F F 0.0199(9) 0.0154(9) 0.0048(10) -0.0019(7) 0 0
O3 O 0.0144(6) 0.0070(5) 0.0148(7) 0.0026(4) -0.0008(5) -0.0022(4)
loop_
_atom_site_displace_Fourier_atom_site_label
_atom_site_displace_Fourier_axis
_atom_site_displace_Fourier_wave_vector_seq_id
_atom_site_displace_Fourier_param_cos
_atom_site_displace_Fourier_param_sin
Sc x 1 0 -0.00441(5)
Sc y 1 0 -0.00736(5)
Sc z 1 -0.00033(7) 0
Sc x 2 0 -0.00736(5)
Sc y 2 0 0.00441(5)
Sc z 2 -0.00033(7) 0
Sc x 3 0 0.00046(6)
Sc y 3 0 0.00067(6)
Sc z 3 0.00053(10) 0
Sc x 4 0 -0.00067(6)
Sc y 4 0 0.00046(6)
Sc z 4 -0.00053(10) 0
K1 x 1 0.01404(7) 0.00554(6)
K1 y 1 0.01404(7) -0.00554(6)
K1 z 1 0 0
K1 x 2 -0.00583(7) 0.00135(7)
K1 y 2 -0.00583(7) 0.00135(7)
K1 z 2 0 0
K1 x 3 -0.00120(9) 0.00033(9)
K1 y 3 -0.00053(8) 0.00112(8)
K1 z 3 0 0
K1 x 4 0.00053(8) -0.00112(8)
K1 y 4 0.00120(9) -0.00033(9)
K1 z 4 0 0
K2 x 1 0.01659(9) -0.00719(9)
K2 y 1 -0.01659(9) 0.00719(9)
K2 z 1 0 0
K2 x 2 -0.00451(8) -0.00103(7)
K2 y 2 0.00451(8) -0.00103(7)
K2 z 2 0 0
K2 x 3 -0.00662(9) -0.00228(10)
K2 y 3 0.00534(9) 0.00205(10)
K2 z 3 0 0
K2 x 4 0.00534(9) -0.00205(10)
K2 y 4 -0.00662(9) 0.00228(10)
K2 z 4 0 0
Si x 1 0.00106(5) 0.00300(5)
Si y 1 -0.00106(5) -0.00300(5)
Si z 1 0 0
Si x 2 0.00471(5) -0.00744(5)
Si y 2 -0.00471(5) -0.00744(5)
Si z 2 0 0.00055(10)
Si x 3 -0.00039(7) -0.00013(7)
Si y 3 0.00006(6) 0.00118(7)
Si z 3 -0.00002(10) 0.00014(10)
Si x 4 0.00006(6) -0.00118(7)
Si y 4 -0.00039(7) 0.00013(7)
Si z 4 -0.00002(10) -0.00014(10)
O1 x 1 0 -0.0181(2)
O1 y 1 0 0.0181(2)
O1 z 1 0 0
O1 x 2 0 -0.00798(18)
O1 y 2 0 -0.00798(18)
O1 z 2 0 0
O1 x 3 0 0.0023(2)
O1 y 3 0 -0.0005(2)
O1 z 3 0.0001(4) 0
O1 x 4 0 0.0005(2)
O1 y 4 0 -0.0023(2)
O1 z 4 0.0001(4) 0
O2 x 1 0.0073(2) 0.0159(2)
O2 y 1 -0.0073(2) -0.0159(2)
O2 z 1 0 0
O2 x 2 0.0008(2) -0.00645(19)
O2 y 2 -0.0008(2) -0.00645(19)
O2 z 2 0 0
O2 x 3 0.0005(3) -0.0006(3)
O2 y 3 -0.0016(2) 0.0025(2)
O2 z 3 0 0
O2 x 4 -0.0016(2) -0.0025(2)
O2 y 4 0.0005(3) 0.0006(3)
O2 z 4 0 0
F x 1 0 -0.0144(2)
F y 1 0 -0.0012(2)
F z 1 0 0
F x 2 0 -0.0190(2)
F y 2 0 -0.0095(2)
F z 2 0 0
F x 3 0 -0.0022(3)
F y 3 0 0.0004(3)
F z 3 0 0
F x 4 0 -0.0025(3)
F y 4 0 -0.0004(3)
F z 4 0 0
O3 x 1 -0.01443(15) 0.01520(14)
O3 y 1 -0.00418(14) 0.00607(13)
O3 z 1 -0.00319(19) -0.01713(19)
O3 x 2 0.01674(14) -0.00338(14)
O3 y 2 0.00030(13) -0.00900(13)
O3 z 2 0.00341(19) 0.00330(19)
O3 x 3 0.00095(16) -0.00191(17)
O3 y 3 0.00140(16) 0.00131(15)
O3 z 3 -0.0022(3) -0.0004(3)
O3 x 4 0.00126(16) -0.00151(16)
O3 y 4 -0.00006(15) -0.00039(16)
O3 z 4 0.0018(3) 0.0000(3)
loop_
_atom_site_Fourier_wave_vector_seq_id
_jana_atom_site_fourier_wave_vector_q1_coeff
_jana_atom_site_fourier_wave_vector_q2_coeff
1 1 0
2 0 1
3 1 1
4 -1 1
loop_
_atom_site_U_Fourier_atom_site_label
_atom_site_U_Fourier_tens_elem
_atom_site_U_Fourier_wave_vector_seq_id
_atom_site_U_Fourier_param_cos
_atom_site_U_Fourier_param_sin
Sc U11 1 -0.0005(2) 0
Sc U22 1 0.0001(2) 0
Sc U33 1 -0.0001(3) 0
Sc U12 1 -0.00024(18) 0
Sc U13 1 0 -0.0002(2)
Sc U23 1 0 0.0001(2)
Sc U11 2 -0.0001(2) 0
Sc U22 2 0.0005(2) 0
Sc U33 2 0.0001(3) 0
Sc U12 2 -0.00024(18) 0
Sc U13 2 0 -0.0001(2)
Sc U23 2 0 -0.0002(2)
K1 U11 1 -0.0011(4) 0.0015(3)
K1 U22 1 0.0011(4) 0.0015(3)
K1 U33 1 0 -0.0004(6)
K1 U12 1 0 0.0007(4)
K1 U13 1 0 0
K1 U23 1 0 0
K1 U11 2 0.0027(4) -0.0007(4)
K1 U22 2 -0.0027(4) 0.0007(4)
K1 U33 2 0 0
K1 U12 2 0 0
K1 U13 2 0 0
K1 U23 2 0 0
K2 U11 1 0.0016(4) -0.0008(4)
K2 U22 1 -0.0016(4) 0.0008(4)
K2 U33 1 0 0
K2 U12 1 0 0
K2 U13 1 0 0
K2 U23 1 0 0
K2 U11 2 0.0007(4) -0.0186(4)
K2 U22 2 -0.0007(4) -0.0186(4)
K2 U33 2 0 0.0005(6)
K2 U12 2 0 0.0203(5)
K2 U13 2 0 0
K2 U23 2 0 0
Si U11 1 -0.0003(3) -0.0001(3)
Si U22 1 0.0003(3) 0.0001(3)
Si U33 1 0 0
Si U12 1 0 0
Si U13 1 -0.0002(2) 0.0001(2)
Si U23 1 0.0002(2) -0.0001(2)
Si U11 2 -0.0005(3) 0.0001(2)
Si U22 2 0.0005(3) 0.0001(2)
Si U33 2 0 -0.0002(5)
Si U12 2 0 -0.0004(3)
Si U13 2 -0.0001(2) -0.0001(2)
Si U23 2 0.0001(2) -0.0001(2)
O1 U11 1 -0.0006(11) 0
O1 U22 1 0.0006(11) 0
O1 U33 1 0 0
O1 U12 1 0 0
O1 U13 1 0 0.0038(9)
O1 U23 1 0 -0.0038(9)
O1 U11 2 0.0027(11) 0
O1 U22 2 -0.0027(11) 0
O1 U33 2 0 0
O1 U12 2 0 0
O1 U13 2 0 0.0000(8)
O1 U23 2 0 0.0000(8)
O2 U11 1 -0.0048(12) -0.0009(12)
O2 U22 1 0.0048(12) 0.0009(12)
O2 U33 1 0 0
O2 U12 1 0 0
O2 U13 1 0 0
O2 U23 1 0 0
O2 U11 2 -0.0024(12) -0.0013(10)
O2 U22 2 0.0024(12) -0.0013(10)
O2 U33 2 0 -0.0002(18)
O2 U12 2 0 0.0026(12)
O2 U13 2 0 0
O2 U23 2 0 0
F U11 1 -0.0027(14) 0
F U22 1 -0.0001(12) 0
F U33 1 0.0005(15) 0
F U12 1 0.0014(10) 0
F U13 1 0 0
F U23 1 0 0
F U11 2 0.0010(14) 0
F U22 2 0.0008(12) 0
F U33 2 -0.0016(15) 0
F U12 2 -0.0001(10) 0
F U13 2 0 0
F U23 2 0 0
O3 U11 1 0.0020(8) 0.0029(8)
O3 U22 1 0.0012(7) -0.0008(7)
O3 U33 1 0.0025(11) 0.0041(10)
O3 U12 1 0.0008(6) -0.0011(6)
O3 U13 1 -0.0015(7) -0.0018(7)
O3 U23 1 -0.0010(7) -0.0007(6)
O3 U11 2 -0.0012(8) 0.0015(8)
O3 U22 2 -0.0006(7) 0.0007(7)
O3 U33 2 0.0008(11) -0.0015(11)
O3 U12 2 -0.0015(6) -0.0009(6)
O3 U13 2 0.0003(7) 0.0020(7)
O3 U23 2 0.0008(6) 0.0004(6)
loop_
_atom_type_symbol
_atom_type_scat_dispersion_real
_atom_type_scat_dispersion_imag
_atom_type_scat_source
F 0.0171 0.0103 'International Tables Vol C tables 4.2.6.8 and 6.1.1.1'
K 0.2009 0.2494 'International Tables Vol C tables 4.2.6.8 and 6.1.1.1'
O 0.0106 0.0060 'International Tables Vol C tables 4.2.6.8 and 6.1.1.1'
Sc 0.2519 0.3716 'International Tables Vol C tables 4.2.6.8 and 6.1.1.1'
Si 0.0817 0.0704 'International Tables Vol C tables 4.2.6.8 and 6.1.1.1'
loop_
_cell_wave_vector_seq_id
_cell_wave_vector_x
_cell_wave_vector_y
_cell_wave_vector_z
1 0.298600 0.298600 0.000000
2 -0.298600 0.298600 0.000000
loop_
_geom_bond_atom_site_label_1
_geom_bond_atom_site_label_2
_geom_bond_site_ssg_symmetry_2
_geom_bond_distance_av
_geom_bond_distance_min
_geom_bond_distance_max
Sc F . 2.0700(14) 2.060(3) 2.0820(17)
Sc F 3_54555 2.0702(14) 2.060(3) 2.0820(17)
Sc O3 5_54555 2.078(5) 2.054(5) 2.100(6)
Sc O3 6_55555 2.078(5) 2.054(5) 2.100(6)
Sc O3 15_65555 2.078(5) 2.054(5) 2.100(6)
Sc O3 16_55555 2.078(5) 2.054(5) 2.100(6)
K1 O2 1_65555 3.026(9) 2.879(9) 3.218(9)
K1 O2 2_65555 3.022(9) 2.879(9) 3.218(9)
K1 O3 4_55455 2.808(7) 2.708(7) 2.941(7)
K1 O3 6_55555 2.815(7) 2.708(7) 2.940(7)
K1 O3 11_55555 2.808(7) 2.708(7) 2.941(7)
K1 O3 13_55455 2.815(7) 2.708(7) 2.940(7)
K2 O1 3_55455 2.825(5) 2.650(6) 2.996(5)
K2 O1 5_55555 2.825(5) 2.650(6) 2.996(5)
K2 O2 . 2.888(9) 2.802(9) 2.952(9)
K2 O3 . 3.280(7) 2.832(7) 3.716(7)
K2 O3 3_55455 3.068(7) 2.812(7) 3.569(7)
K2 O3 6_55555 3.087(7) 2.812(7) 3.569(7)
K2 O3 7_55555 3.295(7) 2.832(7) 3.716(7)
K2 O3 10_55555 3.280(7) 2.832(7) 3.716(7)
K2 O3 12_55555 3.068(7) 2.812(7) 3.569(7)
K2 O3 13_55455 3.087(7) 2.812(7) 3.569(7)
K2 O3 16_55555 3.295(7) 2.832(7) 3.716(7)
Si O1 . 1.647(4) 1.630(4) 1.664(4)
Si O2 . 1.632(2) 1.622(3) 1.641(2)
Si O3 . 1.590(6) 1.572(6) 1.608(6)
Si O3 16_55555 1.590(6) 1.572(6) 1.608(6)
loop_
_refln_index_h
_refln_index_k
_refln_index_l
_refln_index_m_1
_refln_index_m_2
_refln_F_squared_calc
_refln_F_squared_meas
_refln_F_squared_sigma
_refln_observed_status
0 0 2 0 0 8046.90 8710.58 154.31 o
0 0 2 1 1 0.02 0.32 1.18 <
0 0 4 0 0 88660.50 102055.00 1118.54 o
0 0 4 1 1 0.31 0.52 1.81 <
0 0 6 0 0 956.49 860.32 52.28 o
0 0 6 1 1 0.13 0.19 1.81 <
0 0 8 0 0 8649.48 8366.79 287.14 o
0 0 8 1 1 0.00 2.32 3.57 <
0 0 10 0 0 2365.31 2399.33 168.44 o
0 0 10 1 1 0.14 -1.23 5.15 <
1 0 0 1 0 6.03 5.02 1.66 o
1 0 1 0 0 496.22 530.67 21.19 o
1 0 1 1 -1 2.60 1.63 0.64 <
1 0 1 1 0 0.82 0.96 0.42 <
1 0 1 1 1 1.55 2.16 0.69 o
1 0 2 0 1 0.29 -0.47 0.68 <
1 0 2 1 0 0.60 1.12 0.58 <
1 0 2 1 1 0.44 0.22 0.55 <
1 0 3 -1 1 0.51 1.73 1.31 <
1 0 3 0 0 1318.83 1246.35 31.07 o
1 0 3 0 1 0.15 0.72 0.98 <
1 0 3 1 -1 2.40 2.30 1.27 <
1 0 3 1 0 0.00 0.36 0.69 <
1 0 3 1 1 0.55 0.46 0.83 <
1 0 4 0 1 0.65 -0.12 1.25 <
1 0 4 1 0 3.24 2.42 0.97 <
1 0 4 1 1 1.39 2.24 1.38 <
1 0 5 -1 1 1.92 2.05 1.38 <
1 0 5 0 0 1257.36 1342.66 41.53 o
1 0 5 0 1 0.96 0.72 1.20 <
1 0 5 1 -1 6.65 4.51 2.01 <
1 0 5 1 0 0.42 -0.64 1.29 <
1 0 5 1 1 3.16 2.78 1.34 <
1 0 6 0 1 0.03 0.34 1.20 <
1 0 6 1 0 0.02 -0.38 1.17 <
1 0 6 1 1 0.10 -0.18 1.24 <
1 0 7 -1 1 0.99 3.46 3.09 <
1 0 7 0 0 334.73 378.84 26.82 o
1 0 7 0 1 0.38 -0.42 1.61 <
1 0 7 1 -1 2.20 2.55 2.81 <
1 0 7 1 0 0.12 1.56 1.84 <
1 0 7 1 1 0.81 0.61 1.83 <
1 0 8 0 1 0.41 -0.49 2.39 <
1 0 8 1 0 0.77 -3.87 2.86 <
1 0 8 1 1 1.25 0.55 2.54 <
1 0 9 -1 1 1.61 -4.61 4.64 <
1 0 9 0 0 16.71 6.03 3.99 <
1 0 9 0 1 1.17 -1.34 3.00 <
1 0 9 1 -1 2.47 -3.09 4.26 <
1 0 9 1 0 0.28 -1.11 2.38 <
1 0 9 1 1 1.66 0.50 3.29 <
1 0 10 0 1 0.00 -0.53 2.89 <
1 0 10 1 0 0.00 0.22 2.96 <
1 0 10 1 1 0.15 0.23 3.06 <
1 1 0 0 0 71.63 98.81 6.54 o
1 1 0 0 1 2.80 2.60 0.92 <
1 1 0 1 1 0.01 0.24 0.41 <
1 1 1 -1 1 0.50 0.78 0.60 <
1 1 1 0 0 87.49 101.36 4.89 o
1 1 1 0 1 7.03 6.50 0.81 o
1 1 1 1 1 0.37 0.08 0.35 <
1 1 2 -1 1 0.00 -0.12 0.60 <
1 1 2 0 0 895.24 914.17 22.13 o
1 1 2 0 1 2.92 2.23 0.64 o
1 1 2 1 1 0.22 -0.16 0.52 <
1 1 3 -1 1 0.01 -0.59 0.93 <
1 1 3 0 0 882.04 853.14 22.72 o
1 1 3 0 1 60.34 70.74 5.10 o
1 1 3 1 1 0.03 -1.03 0.81 <
1 1 4 -1 1 0.05 0.31 1.03 <
1 1 4 0 0 1278.47 1259.77 32.07 o
1 1 4 0 1 13.04 12.27 2.20 o
1 1 4 1 1 0.08 0.43 0.81 <
1 1 5 -1 1 0.61 0.25 1.24 <
1 1 5 0 0 453.88 507.75 20.60 o
1 1 5 0 1 51.21 53.14 4.92 o
1 1 5 1 1 0.32 -0.37 1.07 <
1 1 6 -1 1 0.09 0.10 1.39 <
1 1 6 0 0 2859.47 2908.45 55.63 o
1 1 6 0 1 2.80 3.77 1.62 <
1 1 6 1 1 0.23 0.54 1.23 <
1 1 7 -1 1 0.05 0.97 1.69 <
1 1 7 0 0 270.18 278.69 22.97 o
1 1 7 0 1 37.81 37.14 5.92 o
1 1 7 1 1 0.00 0.10 2.04 <
1 1 8 -1 1 0.11 0.91 2.62 <
1 1 8 0 0 2319.48 2325.92 72.49 o
1 1 8 0 1 17.80 13.67 3.64 o
1 1 8 1 1 0.10 -7.41 3.10 <
1 1 9 -1 1 0.29 -0.92 2.06 <
1 1 9 0 0 17.40 19.05 7.19 <
1 1 9 0 1 22.15 16.51 4.80 o
1 1 9 1 1 0.13 0.51 2.78 <
1 1 10 -1 1 0.07 -2.27 2.90 <
1 1 10 0 0 2144.04 2064.75 78.22 o
1 1 10 0 1 4.04 1.34 2.80 <
1 1 10 1 1 0.10 -3.27 3.64 <
2 0 0 -1 1 1.34 2.68 1.31 <
2 0 0 0 0 1482.51 1480.38 19.37 o
2 0 0 0 1 5.09 3.74 0.82 o
2 0 0 1 -1 10.26 8.10 1.52 o
2 0 0 1 0 6.15 4.93 0.85 o
2 0 0 1 1 5.79 5.55 1.28 o
2 0 1 0 1 18.34 15.30 1.42 o
2 0 1 1 0 70.45 64.84 2.22 o
2 0 1 1 1 0.03 0.34 0.31 <
2 0 2 -1 1 1.19 0.13 0.68 <
2 0 2 0 0 13495.40 13232.90 91.47 o
2 0 2 0 1 11.36 10.66 1.40 o
2 0 2 1 -1 3.39 5.16 1.32 o
2 0 2 1 0 16.65 17.24 1.83 o
2 0 2 1 1 7.24 6.29 1.19 o
2 0 3 0 1 14.72 19.66 2.29 o
2 0 3 1 0 62.89 62.11 3.93 o
2 0 3 1 1 0.81 0.93 0.72 <
2 0 4 -1 1 1.27 2.22 1.38 <
2 0 4 0 0 749.15 796.04 23.17 o
2 0 4 0 1 5.73 6.05 1.63 o
2 0 4 1 -1 3.46 2.13 1.60 <
2 0 4 1 0 0.88 1.27 0.87 <
2 0 4 1 1 3.75 4.68 1.39 o
2 0 5 0 1 48.01 52.69 5.11 o
2 0 5 1 0 18.08 19.13 3.26 o
2 0 5 1 1 0.17 -1.27 1.13 <
2 0 6 -1 1 0.02 0.83 1.97 <
2 0 6 0 0 4971.15 5249.24 75.80 o
2 0 6 0 1 0.42 0.31 1.42 <
2 0 6 1 -1 2.34 4.28 1.97 <
2 0 6 1 0 2.82 2.65 1.19 <
2 0 6 1 1 1.36 0.48 1.45 <
2 0 7 0 1 14.46 14.96 3.62 o
2 0 7 1 0 29.50 26.88 4.55 o
2 0 7 1 1 0.62 0.70 2.10 <
2 0 8 -1 1 0.78 -6.10 3.78 <
2 0 8 0 0 214.36 221.81 21.99 o
2 0 8 0 1 6.09 7.67 3.45 <
2 0 8 1 -1 0.79 0.31 2.77 <
2 0 8 1 0 0.02 -0.16 2.21 <
2 0 8 1 1 2.10 -0.53 1.91 <
2 0 9 0 1 21.02 18.45 4.58 o
2 0 9 1 0 1.88 0.65 2.51 <
2 0 9 1 1 0.16 -2.12 2.79 <
2 0 10 -1 1 0.00 1.09 4.36 <
2 0 10 0 0 2124.35 1965.19 76.42 o
2 0 10 0 1 0.47 0.25 2.74 <
2 0 10 1 -1 0.86 -1.63 6.04 <
2 0 10 1 0 1.99 0.97 3.69 <
2 0 10 1 1 0.19 2.65 3.64 <
2 1 0 -1 -1 2.21 2.23 0.76 <
2 1 0 -1 0 20.99 19.14 1.81 o
2 1 0 -1 1 1.90 1.66 0.64 <
2 1 0 0 -1 38.98 35.61 2.04 o
2 1 0 0 0 1098.17 1179.46 13.45 o
2 1 0 0 1 1.36 2.44 0.57 o
2 1 0 1 -1 1.26 3.17 0.85 o
2 1 0 1 0 165.70 165.86 5.74 o
2 1 0 1 1 1.71 2.75 0.62 o
2 1 1 -1 -1 0.61 0.79 0.31 <
2 1 1 -1 0 8.71 9.39 1.04 o
2 1 1 -1 1 1.26 1.39 0.44 o
2 1 1 0 -1 35.76 30.48 1.91 o
2 1 1 0 0 13.84 20.44 1.61 o
2 1 1 0 1 39.81 40.71 1.79 o
2 1 1 1 -1 1.83 1.98 0.50 o
2 1 1 1 0 20.42 17.14 1.30 o
2 1 1 1 1 4.56 4.28 0.57 o
2 1 2 -1 -1 1.73 2.12 0.86 <
2 1 2 -1 0 5.96 7.62 1.42 o
2 1 2 -1 1 3.51 2.81 0.75 o
2 1 2 0 -1 18.76 18.16 1.80 o
2 1 2 0 0 15738.70 15823.90 71.77 o
2 1 2 0 1 13.75 14.79 1.56 o
2 1 2 1 -1 1.28 1.79 0.67 <
2 1 2 1 0 10.67 9.72 1.20 o
2 1 2 1 1 0.63 0.09 0.55 <
2 1 3 -1 -1 1.03 0.39 0.70 <
2 1 3 -1 0 0.01 -0.16 0.94 <
2 1 3 -1 1 0.83 0.03 0.81 <
2 1 3 0 -1 122.31 124.59 5.82 o
2 1 3 0 0 11.12 12.53 1.72 o
2 1 3 0 1 5.84 6.27 1.32 o
2 1 3 1 -1 1.47 1.50 0.80 <
2 1 3 1 0 169.81 176.50 6.48 o
2 1 3 1 1 0.84 1.15 0.68 <
2 1 4 -1 -1 0.92 0.54 1.09 <
2 1 4 -1 0 4.16 4.62 1.25 o
2 1 4 -1 1 0.64 1.48 0.93 <
2 1 4 0 -1 4.69 3.72 1.03 o
2 1 4 0 0 243.11 209.53 9.18 o
2 1 4 0 1 2.01 2.77 1.22 <
2 1 4 1 -1 0.27 0.64 0.93 <
2 1 4 1 0 54.45 57.48 5.10 o
2 1 4 1 1 1.05 1.60 0.96 <
2 1 5 -1 -1 0.01 -0.89 1.45 <
2 1 5 -1 0 10.60 10.72 2.19 o
2 1 5 -1 1 0.22 1.25 1.11 <
2 1 5 0 -1 0.03 1.66 1.31 <
2 1 5 0 0 28.53 31.77 3.48 o
2 1 5 0 1 28.12 29.65 3.54 o
2 1 5 1 -1 0.60 0.20 1.03 <
2 1 5 1 0 4.46 3.98 1.14 o
2 1 5 1 1 3.06 4.05 1.32 o
2 1 6 -1 -1 0.67 0.42 1.42 <
2 1 6 -1 0 0.03 -0.69 1.25 <
2 1 6 -1 1 1.61 1.06 1.40 <
2 1 6 0 -1 27.31 23.09 3.44 o
2 1 6 0 0 701.76 779.83 20.99 o
2 1 6 0 1 0.19 1.07 1.50 <
2 1 6 1 -1 1.03 0.51 1.31 <
2 1 6 1 0 0.01 -1.34 1.32 <
2 1 6 1 1 0.18 1.15 1.53 <
2 1 7 -1 -1 0.81 -1.34 2.29 <
2 1 7 -1 0 0.26 -1.10 1.72 <
2 1 7 -1 1 0.87 0.69 2.20 <
2 1 7 0 -1 65.75 62.36 8.96 o
2 1 7 0 0 7.53 8.69 2.91 <
2 1 7 0 1 1.08 1.99 2.61 <
2 1 7 1 -1 0.52 -1.70 2.27 <
2 1 7 1 0 80.09 83.01 8.85 o
2 1 7 1 1 0.19 -3.31 2.16 <
2 1 8 -1 -1 0.29 0.70 2.46 <
2 1 8 -1 0 0.05 -6.90 2.80 <
2 1 8 -1 1 0.07 -3.01 2.95 <
2 1 8 0 -1 1.38 2.72 3.11 <
2 1 8 0 0 2398.11 2403.75 52.11 o
2 1 8 0 1 10.75 6.86 2.75 <
2 1 8 1 -1 0.00 0.56 2.57 <
2 1 8 1 0 6.31 8.23 2.85 <
2 1 8 1 1 0.43 -0.47 2.59 <
2 1 9 -1 -1 0.08 1.39 2.53 <
2 1 9 -1 0 6.00 3.80 2.78 <
2 1 9 -1 1 0.03 -2.59 2.54 <
2 1 9 0 -1 0.77 -0.24 3.12 <
2 1 9 0 0 3.81 3.59 2.61 <
2 1 9 0 1 6.37 5.19 2.67 <
2 1 9 1 -1 0.15 -1.99 2.99 <
2 1 9 1 0 0.19 -1.36 2.09 <
2 1 9 1 1 0.86 1.00 2.80 <
2 1 10 -1 -1 0.17 2.03 3.08 <
2 1 10 -1 0 0.21 4.85 3.75 <
2 1 10 -1 1 1.02 -7.00 4.86 <
2 1 10 0 -1 23.44 22.15 6.08 o
2 1 10 0 0 1.02 3.36 3.51 <
2 1 10 0 1 2.71 3.93 3.67 <
2 1 10 1 -1 0.54 -15.72 4.87 <
2 1 10 1 0 0.42 -0.91 2.68 <
2 1 10 1 1 0.20 -0.56 3.29 <
2 2 0 -1 1 7.47 3.83 0.57 o
2 2 0 0 0 12129.20 11587.70 64.85 o
2 2 0 0 1 24.85 21.84 1.64 o
2 2 0 1 1 1.06 2.11 0.53 o
2 2 1 -1 1 0.37 -0.31 0.28 <
2 2 1 0 0 6862.35 7036.25 39.85 o
2 2 1 0 1 1.12 2.00 0.52 o
2 2 1 1 1 1.64 1.40 0.41 o
2 2 2 -1 1 3.27 1.61 0.57 <
2 2 2 0 0 1089.06 1350.30 21.43 o
2 2 2 0 1 40.02 46.85 2.83 o
2 2 2 1 1 0.05 -0.26 0.56 <
2 2 3 -1 1 0.28 0.93 0.94 <
2 2 3 0 0 284.20 260.63 10.71 o
2 2 3 0 1 6.35 5.12 1.11 o
2 2 3 1 1 0.33 0.67 0.61 <
2 2 4 -1 1 2.51 2.44 1.02 <
2 2 4 0 0 7501.71 7696.65 78.02 o
2 2 4 0 1 5.07 5.92 1.56 o
2 2 4 1 1 0.15 1.27 0.93 <
2 2 5 -1 1 0.75 1.12 1.08 <
2 2 5 0 0 9048.35 9034.07 82.22 o
2 2 5 0 1 5.40 4.95 1.25 o
2 2 5 1 1 2.82 0.99 1.23 <
2 2 6 -1 1 1.99 2.44 1.64 <
2 2 6 0 0 68.13 65.26 8.93 o
2 2 6 0 1 3.56 1.63 1.61 <
2 2 6 1 1 0.07 -0.54 1.31 <
2 2 7 -1 1 0.12 -1.59 2.22 <
2 2 7 0 0 168.76 168.60 18.06 o
2 2 7 0 1 1.53 0.94 2.43 <
2 2 7 1 1 0.23 -0.85 2.66 <
2 2 8 -1 1 0.38 -0.09 2.70 <
2 2 8 0 0 3382.56 3356.53 88.14 o
2 2 8 0 1 0.00 -2.45 2.35 <
2 2 8 1 1 0.02 -0.50 2.12 <
2 2 9 -1 1 0.07 3.17 2.51 <
2 2 9 0 0 660.00 681.45 41.60 o
2 2 9 0 1 0.13 -2.14 3.07 <
2 2 9 1 1 0.42 -4.36 2.80 <
2 2 10 -1 1 1.04 1.59 3.37 <
2 2 10 0 0 6.50 10.80 4.55 <
2 2 10 0 1 0.36 0.04 3.56 <
2 2 10 1 1 0.12 -3.92 3.79 <
3 0 0 0 1 0.01 0.36 0.45 <
3 0 0 1 0 18.04 20.70 1.83 o
3 0 0 1 1 1.90 1.69 0.63 <
3 0 1 -1 1 0.08 0.06 0.34 <
3 0 1 0 0 457.81 472.79 7.91 o
3 0 1 0 1 25.72 22.28 1.29 o
3 0 1 1 -1 0.47 -0.12 0.56 <
3 0 1 1 0 2.84 3.65 0.58 o
3 0 1 1 1 0.24 0.25 0.40 <
3 0 2 0 1 186.15 187.57 5.64 o
3 0 2 1 0 102.06 117.40 4.08 o
3 0 2 1 1 0.48 1.23 0.54 <
3 0 3 -1 1 0.00 0.96 1.69 <
3 0 3 0 0 2241.45 2276.71 35.08 o
3 0 3 0 1 50.17 50.50 3.75 o
3 0 3 1 -1 0.79 0.84 1.34 <
3 0 3 1 0 24.51 23.82 2.36 o
3 0 3 1 1 2.16 1.75 0.89 <
3 0 4 0 1 0.05 -0.40 1.03 <
3 0 4 1 0 0.08 0.50 0.78 <
3 0 4 1 1 0.43 1.30 0.94 <
3 0 5 -1 1 0.06 2.46 2.31 <
3 0 5 0 0 2302.84 2407.89 43.66 o
3 0 5 0 1 1.67 -0.35 1.33 <
3 0 5 1 -1 1.08 -4.56 1.92 <
3 0 5 1 0 24.94 29.33 3.28 o
3 0 5 1 1 0.06 -0.48 1.04 <
3 0 6 0 1 57.54 61.16 6.51 o
3 0 6 1 0 6.17 6.66 1.87 o
3 0 6 1 1 0.00 0.03 0.95 <
3 0 7 -1 1 0.00 0.46 1.92 <
3 0 7 0 0 1023.92 1061.68 45.11 o
3 0 7 0 1 28.87 23.56 4.16 o
3 0 7 1 -1 0.37 -0.53 3.43 <
3 0 7 1 0 21.31 18.90 4.11 o
3 0 7 1 1 1.28 2.15 2.33 <
3 0 8 0 1 0.34 -1.66 2.36 <
3 0 8 1 0 7.21 7.77 3.05 <
3 0 8 1 1 0.01 -2.81 2.81 <
3 0 9 -1 1 0.00 -1.89 3.60 <
3 0 9 0 0 96.76 91.17 14.92 o
3 0 9 0 1 0.81 0.82 2.05 <
3 0 9 1 -1 0.01 -3.10 3.68 <
3 0 9 1 0 14.93 12.16 4.04 o
3 0 9 1 1 0.06 2.24 2.58 <
3 0 10 0 1 20.50 16.37 4.71 o
3 0 10 1 0 0.36 -7.36 4.39 <
3 0 10 1 1 0.05 3.02 4.88 <
3 1 0 -1 -1 0.00 0.54 0.47 <
3 1 0 -1 0 52.71 55.15 2.87 o
3 1 0 -1 1 0.19 -0.11 0.51 <
3 1 0 0 -1 2.78 0.80 0.62 <
3 1 0 0 0 17564.70 16747.30 64.97 o
3 1 0 0 1 29.66 31.89 2.19 o
3 1 0 1 -1 5.97 9.29 1.27 o
3 1 0 1 0 93.16 109.58 4.02 o
3 1 0 1 1 0.98 1.92 0.59 o
3 1 1 -1 -1 5.79 5.32 0.68 o
3 1 1 -1 0 2.37 2.49 0.53 o
3 1 1 -1 1 6.69 5.25 0.68 o
3 1 1 0 -1 55.86 55.61 2.31 o
3 1 1 0 0 4647.93 4598.86 23.22 o
3 1 1 0 1 121.87 120.05 3.53 o
3 1 1 1 -1 0.79 1.14 0.37 o
3 1 1 1 0 3.79 3.67 0.61 o
3 1 1 1 1 1.59 2.08 0.48 o
3 1 2 -1 -1 4.67 2.52 0.67 o
3 1 2 -1 0 11.79 11.73 1.34 o
3 1 2 -1 1 0.59 2.22 0.69 o
3 1 2 0 -1 1.79 1.76 0.49 o
3 1 2 0 0 412.18 613.55 9.42 o
3 1 2 0 1 44.47 40.12 2.50 o
3 1 2 1 -1 2.01 2.90 0.65 o
3 1 2 1 0 71.41 73.08 3.16 o
3 1 2 1 1 2.78 1.34 0.66 <
3 1 3 -1 -1 10.53 10.89 1.64 o
3 1 3 -1 0 8.93 8.99 1.54 o
3 1 3 -1 1 8.00 7.93 1.51 o
3 1 3 0 -1 3.52 3.41 0.86 o
3 1 3 0 0 401.65 428.57 10.12 o
3 1 3 0 1 12.90 11.95 1.69 o
3 1 3 1 -1 8.14 6.46 1.29 o
3 1 3 1 0 3.93 4.54 0.99 o
3 1 3 1 1 3.57 5.28 1.30 o
3 1 4 -1 -1 0.10 -1.12 1.00 <
3 1 4 -1 0 11.24 10.03 1.82 o
3 1 4 -1 1 0.05 0.01 0.82 <
3 1 4 0 -1 0.05 0.24 1.05 <
3 1 4 0 0 6661.95 6791.26 51.47 o
3 1 4 0 1 0.32 0.26 0.87 <
3 1 4 1 -1 3.57 3.85 1.23 o
3 1 4 1 0 39.95 47.38 3.82 o
3 1 4 1 1 0.63 1.36 1.00 <
3 1 5 -1 -1 0.91 1.57 1.24 <
3 1 5 -1 0 13.02 14.65 2.36 o
3 1 5 -1 1 1.55 0.79 1.12 <
3 1 5 0 -1 83.88 85.81 5.91 o
3 1 5 0 0 3915.89 4045.68 37.88 o
3 1 5 0 1 103.01 105.19 6.54 o
3 1 5 1 -1 0.54 -1.46 1.40 <
3 1 5 1 0 0.29 1.01 1.05 <
3 1 5 1 1 0.04 -0.29 1.12 <
3 1 6 -1 -1 0.82 2.67 1.53 <
3 1 6 -1 0 0.03 1.33 1.39 <
3 1 6 -1 1 0.14 -0.68 1.53 <
3 1 6 0 -1 4.12 3.84 1.64 <
3 1 6 0 0 836.96 832.39 20.90 o
3 1 6 0 1 0.01 0.41 1.01 <
3 1 6 1 -1 0.47 0.83 1.43 <
3 1 6 1 0 18.64 18.55 3.20 o
3 1 6 1 1 0.85 1.20 1.42 <
3 1 7 -1 -1 3.63 3.51 2.15 <
3 1 7 -1 0 8.11 10.99 3.51 o
3 1 7 -1 1 2.96 3.63 2.53 <
3 1 7 0 -1 5.81 5.93 2.74 <
3 1 7 0 0 153.18 138.39 11.45 o
3 1 7 0 1 1.05 2.69 1.76 <
3 1 7 1 -1 5.68 5.34 2.54 <
3 1 7 1 0 7.96 4.99 2.69 <
3 1 7 1 1 2.52 5.51 2.60 <
3 1 8 -1 -1 0.22 1.85 1.98 <
3 1 8 -1 0 0.05 -2.12 2.04 <
3 1 8 -1 1 0.01 1.59 2.54 <
3 1 8 0 -1 1.35 2.63 2.20 <
3 1 8 0 0 984.23 995.45 33.31 o
3 1 8 0 1 11.16 9.22 2.83 o
3 1 8 1 -1 1.57 1.12 3.41 <
3 1 8 1 0 7.61 11.26 3.50 o
3 1 8 1 1 0.38 -2.35 2.82 <
3 1 9 -1 -1 0.71 4.12 3.06 <
3 1 9 -1 0 4.78 3.06 3.25 <
3 1 9 -1 1 0.50 -1.01 2.33 <
3 1 9 0 -1 16.09 16.41 3.68 o
3 1 9 0 0 478.04 480.54 23.27 o
3 1 9 0 1 26.69 24.50 5.50 o
3 1 9 1 -1 0.41 -0.57 3.10 <
3 1 9 1 0 3.49 0.81 3.04 <
3 1 9 1 1 0.08 -2.93 3.33 <
3 1 10 -1 -1 0.16 1.65 3.81 <
3 1 10 -1 0 1.75 -0.75 3.38 <
3 1 10 -1 1 0.13 -0.68 3.29 <
3 1 10 0 -1 1.94 0.58 4.48 <
3 1 10 0 0 406.60 371.84 28.46 o
3 1 10 0 1 2.25 4.83 3.70 <
3 1 10 1 -1 0.01 -4.89 5.53 <
3 1 10 1 0 1.42 -1.66 6.61 <
3 1 10 1 1 0.25 -5.26 4.04 <
3 2 0 -1 -1 0.02 -0.21 0.54 <
3 2 0 -1 0 27.04 19.27 1.44 o
3 2 0 -1 1 6.47 6.69 1.29 o
3 2 0 0 -1 204.37 198.63 5.80 o
3 2 0 0 0 1799.28 1553.67 13.92 o
3 2 0 0 1 30.43 36.50 2.38 o
3 2 0 1 -1 9.70 8.26 1.19 o
3 2 0 1 0 41.19 43.91 2.57 o
3 2 0 1 1 5.24 7.39 1.21 o
3 2 1 -1 -1 0.05 0.38 0.49 <
3 2 1 -1 0 17.94 16.65 1.31 o
3 2 1 -1 1 1.94 1.08 0.50 <
3 2 1 0 -1 128.13 123.69 3.77 o
3 2 1 0 0 125.08 120.41 3.69 o
3 2 1 0 1 17.55 15.93 1.14 o
3 2 1 1 -1 0.01 -0.18 0.50 <
3 2 1 1 0 94.25 88.52 3.10 o
3 2 1 1 1 0.60 -0.02 0.38 <
3 2 2 -1 -1 18.61 17.95 1.57 o
3 2 2 -1 0 146.89 157.52 4.77 o
3 2 2 -1 1 0.92 0.42 0.47 <
3 2 2 0 -1 22.99 22.69 1.88 o
3 2 2 0 0 561.90 707.74 9.98 o
3 2 2 0 1 143.90 158.25 4.76 o
3 2 2 1 -1 9.15 8.01 1.05 o
3 2 2 1 0 81.61 77.34 3.21 o
3 2 2 1 1 3.87 4.15 0.81 o
3 2 3 -1 -1 0.55 -0.04 0.66 <
3 2 3 -1 0 98.04 100.05 4.61 o
3 2 3 -1 1 1.45 1.40 0.75 <
3 2 3 0 -1 142.03 142.57 5.77 o
3 2 3 0 0 207.36 205.87 6.71 o
3 2 3 0 1 2.82 3.43 1.13 o
3 2 3 1 -1 0.00 0.51 0.77 <
3 2 3 1 0 68.44 64.10 3.89 o
3 2 3 1 1 0.03 0.93 0.81 <
3 2 4 -1 -1 0.10 -0.57 0.95 <
3 2 4 -1 0 18.35 17.44 2.54 o
3 2 4 -1 1 4.73 3.57 1.28 <
3 2 4 0 -1 55.63 56.03 4.03 o
3 2 4 0 0 29.91 34.21 3.38 o
3 2 4 0 1 25.69 27.91 3.02 o
3 2 4 1 -1 4.14 5.46 1.50 o
3 2 4 1 0 33.55 33.54 3.60 o
3 2 4 1 1 1.97 2.82 1.17 <
3 2 5 -1 -1 0.54 0.27 1.17 <
3 2 5 -1 0 1.37 2.29 1.23 <
3 2 5 -1 1 0.74 1.20 1.02 <
3 2 5 0 -1 41.17 36.48 4.02 o
3 2 5 0 0 22.51 22.68 2.83 o
3 2 5 0 1 14.24 14.53 2.15 o
3 2 5 1 -1 0.02 -0.15 1.08 <
3 2 5 1 0 48.21 49.73 4.43 o
3 2 5 1 1 0.33 -0.89 1.31 <
3 2 6 -1 -1 4.83 3.93 2.04 <
3 2 6 -1 0 46.12 42.75 5.12 o
3 2 6 -1 1 0.05 0.46 1.74 <
3 2 6 0 -1 44.80 40.90 5.02 o
3 2 6 0 0 2377.05 2367.01 39.09 o
3 2 6 0 1 78.23 71.00 7.45 o
3 2 6 1 -1 5.72 4.85 1.88 <
3 2 6 1 0 56.81 53.86 5.74 o
3 2 6 1 1 2.69 2.40 1.90 <
3 2 7 -1 -1 0.48 0.85 1.59 <
3 2 7 -1 0 58.21 53.19 7.10 o
3 2 7 -1 1 0.65 0.27 2.10 <
3 2 7 0 -1 48.04 44.52 6.58 o
3 2 7 0 0 112.41 107.91 10.25 o
3 2 7 0 1 1.76 3.06 2.36 <
3 2 7 1 -1 0.11 -0.71 2.13 <
3 2 7 1 0 18.60 18.58 4.40 o
3 2 7 1 1 0.09 -2.80 2.24 <
3 2 8 -1 -1 0.32 -1.24 2.41 <
3 2 8 -1 0 8.08 8.50 2.59 o
3 2 8 -1 1 2.91 0.31 2.15 <
3 2 8 0 -1 1.40 2.28 2.76 <
3 2 8 0 0 669.12 682.52 27.62 o
3 2 8 0 1 16.44 13.67 4.22 o
3 2 8 1 -1 0.64 0.88 2.62 <
3 2 8 1 0 19.09 20.55 4.92 o
3 2 8 1 1 0.29 -0.83 3.06 <
3 2 9 -1 -1 0.30 0.84 1.73 <
3 2 9 -1 0 1.09 -4.75 3.33 <
3 2 9 -1 1 0.15 -5.92 3.54 <
3 2 9 0 -1 26.94 24.00 5.27 o
3 2 9 0 0 8.83 10.91 3.11 o
3 2 9 0 1 1.91 -1.70 2.81 <
3 2 9 1 -1 0.37 2.87 3.17 <
3 2 9 1 0 33.17 28.47 5.82 o
3 2 9 1 1 0.01 1.13 2.83 <
3 2 10 -1 -1 1.12 3.94 3.13 <
3 2 10 -1 0 15.22 2.87 3.77 <
3 2 10 -1 1 0.01 1.86 3.88 <
3 2 10 0 -1 25.82 9.84 4.91 <
3 2 10 0 0 1615.18 1532.37 65.16 o
3 2 10 0 1 30.02 20.24 7.49 <
3 2 10 1 -1 3.40 9.79 6.85 <
3 2 10 1 0 25.75 25.47 10.18 <
3 2 10 1 1 1.92 0.81 5.38 <
3 3 0 -1 1 0.20 0.64 0.65 <
3 3 0 0 0 2209.99 2222.76 29.82 o
3 3 0 0 1 8.04 6.81 1.00 o
3 3 0 1 1 4.37 2.69 0.66 o
3 3 1 -1 1 0.10 0.15 0.35 <
3 3 1 0 0 2.52 7.15 1.11 o
3 3 1 0 1 51.99 53.03 2.53 o
3 3 1 1 1 0.04 0.28 0.46 <
3 3 2 -1 1 3.01 2.52 0.64 o
3 3 2 0 0 2713.32 2588.96 26.14 o
3 3 2 0 1 1.59 1.84 0.59 o
3 3 2 1 1 0.01 0.10 0.64 <
3 3 3 -1 1 0.08 0.23 0.72 <
3 3 3 0 0 2565.08 2619.67 35.28 o
3 3 3 0 1 5.94 8.02 1.54 o
3 3 3 1 1 0.00 0.12 0.65 <
3 3 4 -1 1 0.15 0.15 0.89 <
3 3 4 0 0 179.90 190.24 10.84 o
3 3 4 0 1 5.26 6.03 1.32 o
3 3 4 1 1 2.83 2.18 1.07 <
3 3 5 -1 1 0.04 0.37 0.92 <
3 3 5 0 0 840.01 844.68 23.62 o
3 3 5 0 1 91.12 91.11 5.82 o
3 3 5 1 1 0.07 0.57 1.18 <
3 3 6 -1 1 1.14 -1.21 1.38 <
3 3 6 0 0 4370.47 4497.97 76.80 o
3 3 6 0 1 0.47 -2.83 2.37 <
3 3 6 1 1 0.04 -0.97 1.86 <
3 3 7 -1 1 0.04 -1.24 2.05 <
3 3 7 0 0 1295.09 1267.32 59.80 o
3 3 7 0 1 12.64 12.70 3.37 o
3 3 7 1 1 0.03 -0.75 2.60 <
3 3 8 -1 1 0.16 1.41 2.51 <
3 3 8 0 0 255.17 249.42 23.76 o
3 3 8 0 1 3.21 3.05 2.62 <
3 3 8 1 1 1.12 2.51 3.38 <
3 3 9 -1 1 0.04 -1.31 2.76 <
3 3 9 0 0 6.55 1.12 4.77 <
3 3 9 0 1 25.31 15.24 4.58 o
3 3 9 1 1 0.14 0.96 2.69 <
3 3 10 -1 1 0.27 -14.65 6.50 <
3 3 10 0 0 3095.05 3039.56 130.48 o
3 3 10 0 1 0.07 2.45 5.89 <
3 3 10 1 1 0.00 0.61 1.96 <
4 0 0 -1 1 48.76 40.75 3.57 o
4 0 0 0 0 378.70 452.17 12.82 o
4 0 0 0 1 133.67 129.38 4.47 o
4 0 0 1 -1 14.81 12.61 2.06 o
4 0 0 1 0 0.19 0.50 0.57 <
4 0 0 1 1 22.34 21.97 2.15 o
4 0 1 0 1 99.58 99.61 3.07 o
4 0 1 1 0 122.68 111.14 3.19 o
4 0 1 1 1 0.30 0.17 0.44 <
4 0 2 -1 1 0.00 -0.36 0.67 <
4 0 2 0 0 1382.74 1504.53 20.66 o
4 0 2 0 1 0.09 -0.36 0.58 <
4 0 2 1 -1 2.83 3.86 1.03 o
4 0 2 1 0 45.48 43.49 2.50 o
4 0 2 1 1 7.36 8.24 1.18 o
4 0 3 0 1 75.69 79.96 4.28 o
4 0 3 1 0 22.41 19.97 2.08 o
4 0 3 1 1 0.16 0.04 0.77 <
4 0 4 -1 1 15.21 14.13 2.86 o
4 0 4 0 0 2871.71 2914.57 43.46 o
4 0 4 0 1 26.94 26.07 2.78 o
4 0 4 1 -1 16.25 15.07 2.46 o
4 0 4 1 0 8.14 8.26 1.38 o
4 0 4 1 1 11.23 10.90 1.81 o
4 0 5 0 1 41.81 42.40 4.34 o
4 0 5 1 0 117.42 115.91 7.94 o
4 0 5 1 1 0.08 0.26 1.19 <
4 0 6 -1 1 2.06 2.46 2.25 <
4 0 6 0 0 5928.79 5923.86 89.34 o
4 0 6 0 1 19.48 15.50 3.09 o
4 0 6 1 -1 0.14 -0.86 2.10 <
4 0 6 1 0 1.35 3.00 1.86 <
4 0 6 1 1 3.94 3.54 1.68 <
4 0 7 0 1 20.73 21.16 4.19 o
4 0 7 1 0 5.97 6.80 2.59 <
4 0 7 1 1 0.27 -0.67 1.51 <
4 0 8 -1 1 1.32 4.14 3.56 <
4 0 8 0 0 5898.93 5787.26 105.99 o
4 0 8 0 1 0.38 -3.75 3.27 <
4 0 8 1 -1 14.22 11.26 4.45 <
4 0 8 1 0 22.89 19.54 4.19 o
4 0 8 1 1 3.43 1.02 2.22 <
4 0 9 0 1 24.04 30.94 6.52 o
4 0 9 1 0 44.12 40.01 6.57 o
4 0 9 1 1 0.04 -0.58 2.96 <
4 0 10 -1 1 2.08 1.46 6.21 <
4 0 10 0 0 4463.27 4386.54 153.59 o
4 0 10 0 1 19.55 13.88 6.40 <
4 0 10 1 -1 1.04 -6.10 7.08 <
4 0 10 1 0 0.17 2.74 4.69 <
4 0 10 1 1 1.71 -7.61 5.91 <
4 1 0 -1 -1 7.36 3.92 0.87 o
4 1 0 -1 0 232.59 258.27 6.19 o
4 1 0 -1 1 9.26 12.95 1.94 o
4 1 0 0 -1 0.16 0.28 0.97 <
4 1 0 0 0 13333.10 13012.00 60.54 o
4 1 0 0 1 88.30 87.96 3.63 o
4 1 0 1 -1 1.59 1.44 1.08 <
4 1 0 1 0 249.50 248.36 6.60 o
4 1 0 1 1 10.68 7.19 1.22 o
4 1 1 -1 -1 0.05 0.19 0.38 <
4 1 1 -1 0 29.25 30.57 1.79 o
4 1 1 -1 1 0.01 0.31 0.55 <
4 1 1 0 -1 7.38 7.16 0.88 o
4 1 1 0 0 142.88 160.62 4.24 o
4 1 1 0 1 14.03 13.49 1.22 o
4 1 1 1 -1 0.06 0.34 0.52 <
4 1 1 1 0 14.86 14.19 1.35 o
4 1 1 1 1 0.41 -0.18 0.48 <
4 1 2 -1 -1 9.02 6.72 1.17 o
4 1 2 -1 0 105.58 106.24 3.61 o
4 1 2 -1 1 2.85 4.63 0.83 o
4 1 2 0 -1 3.74 2.89 0.69 o
4 1 2 0 0 445.40 400.31 7.24 o
4 1 2 0 1 1.03 1.33 0.56 <
4 1 2 1 -1 1.52 1.13 0.61 <
4 1 2 1 0 77.53 78.99 3.84 o
4 1 2 1 1 0.33 0.35 0.80 <
4 1 3 -1 -1 1.04 -1.08 0.86 <
4 1 3 -1 0 12.20 11.24 1.51 o
4 1 3 -1 1 0.65 0.66 0.70 <
4 1 3 0 -1 22.55 21.93 1.99 o
4 1 3 0 0 2730.54 2709.49 23.67 o
4 1 3 0 1 2.23 2.75 0.69 o
4 1 3 1 -1 0.68 1.04 0.81 <
4 1 3 1 0 0.07 0.50 0.54 <
4 1 3 1 1 0.87 0.98 0.62 <
4 1 4 -1 -1 3.54 1.44 0.86 <
4 1 4 -1 0 154.07 163.76 8.06 o
4 1 4 -1 1 5.03 2.70 1.11 <
4 1 4 0 -1 7.32 4.72 1.28 o
4 1 4 0 0 6304.85 6528.32 48.10 o
4 1 4 0 1 58.92 58.04 4.10 o
4 1 4 1 -1 0.44 -0.47 0.94 <
4 1 4 1 0 119.98 120.36 5.57 o
4 1 4 1 1 5.46 3.61 1.19 o
4 1 5 -1 -1 1.22 -0.84 1.49 <
4 1 5 -1 0 66.45 68.99 5.80 o
4 1 5 -1 1 0.04 -0.34 1.26 <
4 1 5 0 -1 32.94 35.19 4.90 o
4 1 5 0 0 1725.47 1727.60 29.84 o
4 1 5 0 1 21.91 22.86 3.25 o
4 1 5 1 -1 0.73 1.43 1.18 <
4 1 5 1 0 24.10 20.85 2.94 o
4 1 5 1 1 1.65 -0.07 1.39 <
4 1 6 -1 -1 4.72 4.39 2.07 <
4 1 6 -1 0 66.52 65.33 6.17 o
4 1 6 -1 1 1.13 2.82 1.39 <
4 1 6 0 -1 5.15 7.39 2.35 o
4 1 6 0 0 590.73 618.68 18.99 o
4 1 6 0 1 2.79 3.23 1.79 <
4 1 6 1 -1 0.26 -0.01 1.64 <
4 1 6 1 0 22.42 23.48 3.87 o
4 1 6 1 1 0.01 -0.14 1.28 <
4 1 7 -1 -1 1.73 0.24 2.06 <
4 1 7 -1 0 12.27 10.51 3.17 o
4 1 7 -1 1 0.14 1.84 2.51 <
4 1 7 0 -1 11.47 14.43 3.84 o
4 1 7 0 0 1332.02 1375.97 36.81 o
4 1 7 0 1 1.17 0.82 2.27 <
4 1 7 1 -1 0.51 2.84 2.38 <
4 1 7 1 0 2.26 3.58 2.65 <
4 1 7 1 1 1.04 0.98 1.51 <
4 1 8 -1 -1 0.95 -5.81 2.85 <
4 1 8 -1 0 80.96 76.60 9.17 o
4 1 8 -1 1 1.76 3.14 2.95 <
4 1 8 0 -1 18.22 15.52 4.24 o
4 1 8 0 0 1678.45 1701.33 44.16 o
4 1 8 0 1 28.43 29.12 5.53 o
4 1 8 1 -1 0.03 -1.28 2.85 <
4 1 8 1 0 33.13 35.13 6.10 o
4 1 8 1 1 1.60 1.68 1.64 <
4 1 9 -1 -1 1.63 0.29 2.67 <
4 1 9 -1 0 13.94 13.31 4.14 o
4 1 9 -1 1 0.15 -1.54 2.55 <
4 1 9 0 -1 2.43 -5.37 3.19 <
4 1 9 0 0 30.71 39.20 7.04 o
4 1 9 0 1 0.96 -1.97 2.83 <
4 1 9 1 -1 0.26 0.71 3.85 <
4 1 9 1 0 11.70 15.11 4.45 o
4 1 9 1 1 0.49 -4.39 3.90 <
4 1 10 -1 -1 2.30 -11.71 6.96 <
4 1 10 -1 0 34.70 34.94 9.50 o
4 1 10 -1 1 0.33 -4.36 6.51 <
4 1 10 0 -1 7.57 2.01 4.13 <
4 1 10 0 0 470.77 449.16 38.55 o
4 1 10 0 1 1.87 3.23 3.54 <
4 1 10 1 -1 0.11 -6.35 5.00 <
4 1 10 1 0 10.34 5.76 5.66 <
4 1 10 1 1 0.01 7.62 5.50 <
4 2 0 -1 -1 1.77 2.17 0.77 <
4 2 0 -1 0 0.14 0.56 0.77 <
4 2 0 -1 1 4.34 2.39 0.63 o
4 2 0 0 -1 31.42 30.81 2.70 o
4 2 0 0 0 11656.90 11248.10 50.34 o
4 2 0 0 1 120.96 118.09 4.28 o
4 2 0 1 -1 1.82 -0.45 0.64 <
4 2 0 1 0 90.80 105.83 4.59 o
4 2 0 1 1 5.46 4.65 1.03 o
4 2 1 -1 -1 2.78 1.86 0.57 o
4 2 1 -1 0 0.37 0.42 0.49 <
4 2 1 -1 1 7.49 7.45 0.94 o
4 2 1 0 -1 107.17 105.14 3.81 o
4 2 1 0 0 18.57 19.03 1.60 o
4 2 1 0 1 6.79 5.49 0.90 o
4 2 1 1 -1 6.85 7.86 1.07 o
4 2 1 1 0 153.95 157.98 4.91 o
4 2 1 1 1 8.11 8.01 1.07 o
4 2 2 -1 -1 13.65 11.24 1.27 o
4 2 2 -1 0 0.02 0.09 0.48 <
4 2 2 -1 1 0.05 0.30 0.52 <
4 2 2 0 -1 0.52 -0.09 0.82 <
4 2 2 0 0 4897.13 5008.97 30.80 o
4 2 2 0 1 21.47 19.08 1.55 o
4 2 2 1 -1 1.82 1.78 0.65 <
4 2 2 1 0 35.73 32.00 2.34 o
4 2 2 1 1 3.61 4.29 0.84 o
4 2 3 -1 -1 1.43 1.95 0.79 <
4 2 3 -1 0 0.28 -0.37 0.70 <
4 2 3 -1 1 3.13 3.29 0.97 o
4 2 3 0 -1 72.84 75.67 3.77 o
4 2 3 0 0 59.58 59.53 3.50 o
4 2 3 0 1 16.50 16.76 2.23 o
4 2 3 1 -1 0.14 -0.49 0.60 <
4 2 3 1 0 2.38 2.98 0.86 o
4 2 3 1 1 0.72 1.22 0.85 <
4 2 4 -1 -1 0.96 -1.14 1.26 <
4 2 4 -1 0 0.32 1.09 0.87 <
4 2 4 -1 1 2.56 1.96 0.87 <
4 2 4 0 -1 12.39 11.86 1.75 o
4 2 4 0 0 6560.02 6720.38 43.13 o
4 2 4 0 1 65.60 68.25 4.44 o
4 2 4 1 -1 0.70 -0.13 0.96 <
4 2 4 1 0 15.28 16.58 1.92 o
4 2 4 1 1 3.34 3.70 1.18 o
4 2 5 -1 -1 1.77 0.17 1.29 <
4 2 5 -1 0 0.11 0.38 1.06 <
4 2 5 -1 1 5.30 7.35 1.69 o
4 2 5 0 -1 64.15 58.51 5.07 o
4 2 5 0 0 1.05 -0.09 1.15 <
4 2 5 0 1 0.89 0.03 1.15 <
4 2 5 1 -1 11.95 14.48 2.39 o
4 2 5 1 0 204.25 213.16 11.89 o
4 2 5 1 1 9.24 5.85 1.86 o
4 2 6 -1 -1 6.46 4.67 2.09 <
4 2 6 -1 0 0.32 -0.61 1.62 <
4 2 6 -1 1 0.06 -1.14 1.58 <
4 2 6 0 -1 3.41 2.70 2.03 <
4 2 6 0 0 2068.81 2104.09 38.59 o
4 2 6 0 1 12.59 11.06 2.62 o
4 2 6 1 -1 0.54 0.71 1.84 <
4 2 6 1 0 0.45 -1.29 1.81 <
4 2 6 1 1 1.55 1.85 1.73 <
4 2 7 -1 -1 0.32 -0.70 2.12 <
4 2 7 -1 0 0.04 -0.85 1.71 <
4 2 7 -1 1 0.43 1.20 2.18 <
4 2 7 0 -1 17.75 17.59 4.01 o
4 2 7 0 0 23.59 28.29 5.08 o
4 2 7 0 1 10.76 10.85 3.52 o
4 2 7 1 -1 0.58 2.23 2.49 <
4 2 7 1 0 0.19 0.48 1.72 <
4 2 7 1 1 0.00 -0.07 2.21 <
4 2 8 -1 -1 0.25 0.70 2.27 <
4 2 8 -1 0 0.71 -1.52 2.15 <
4 2 8 -1 1 1.09 1.75 2.39 <
4 2 8 0 -1 2.53 0.53 2.34 <
4 2 8 0 0 2360.17 2371.64 52.41 o
4 2 8 0 1 19.20 18.59 4.77 o
4 2 8 1 -1 0.08 0.97 2.96 <
4 2 8 1 0 2.21 -5.70 3.51 <
4 2 8 1 1 1.67 3.88 3.04 <
4 2 9 -1 -1 1.21 -0.90 2.98 <
4 2 9 -1 0 1.25 -3.07 3.07 <
4 2 9 -1 1 3.26 3.99 3.25 <
4 2 9 0 -1 45.41 49.62 7.87 o
4 2 9 0 0 5.93 3.24 1.93 <
4 2 9 0 1 0.97 0.53 2.65 <
4 2 9 1 -1 4.72 6.93 4.62 <
4 2 9 1 0 64.36 61.33 9.29 o
4 2 9 1 1 4.51 4.38 3.24 <
4 2 10 -1 -1 3.78 -1.23 6.49 <
4 2 10 -1 0 0.15 -1.53 5.02 <
4 2 10 -1 1 0.03 2.49 5.46 <
4 2 10 0 -1 2.08 1.75 5.10 <
4 2 10 0 0 863.84 804.03 52.78 o
4 2 10 0 1 9.77 1.78 3.10 <
4 2 10 1 -1 0.15 -6.29 6.26 <
4 2 10 1 0 5.97 2.47 4.83 <
4 2 10 1 1 0.36 0.09 5.02 <
4 3 0 -1 -1 0.47 4.12 1.06 o
4 3 0 -1 0 2.32 1.67 0.56 o
4 3 0 -1 1 3.02 3.48 0.84 o
4 3 0 0 -1 30.57 26.80 2.44 o
4 3 0 0 0 196.01 207.66 6.78 o
4 3 0 0 1 130.50 134.43 5.47 o
4 3 0 1 -1 7.13 2.93 0.83 o
4 3 0 1 0 115.41 111.11 4.84 o
4 3 0 1 1 0.08 2.73 1.20 <
4 3 1 -1 -1 6.24 5.66 0.90 o
4 3 1 -1 0 14.54 15.53 1.37 o
4 3 1 -1 1 3.79 3.87 0.71 o
4 3 1 0 -1 95.73 97.15 3.92 o
4 3 1 0 0 414.48 389.73 7.46 o
4 3 1 0 1 27.45 28.17 1.81 o
4 3 1 1 -1 3.57 3.16 0.78 o
4 3 1 1 0 66.17 71.85 3.34 o
4 3 1 1 1 0.01 0.60 0.53 <
4 3 2 -1 -1 0.20 0.02 0.52 <
4 3 2 -1 0 57.59 53.40 2.89 o
4 3 2 -1 1 7.83 4.01 0.84 o
4 3 2 0 -1 107.36 105.46 4.46 o
4 3 2 0 0 166.69 154.77 4.91 o
4 3 2 0 1 21.62 23.14 1.86 o
4 3 2 1 -1 0.00 -0.14 0.70 <
4 3 2 1 0 11.90 11.50 1.28 o
4 3 2 1 1 0.04 0.67 0.50 <
4 3 3 -1 -1 2.02 1.59 0.87 <
4 3 3 -1 0 16.65 16.84 1.84 o
4 3 3 -1 1 2.13 0.01 0.73 <
4 3 3 0 -1 1.71 -0.29 0.87 <
4 3 3 0 0 3553.25 3633.29 27.61 o
4 3 3 0 1 119.90 123.21 4.84 o
4 3 3 1 -1 2.33 1.89 0.80 <
4 3 3 1 0 55.74 62.21 3.35 o
4 3 3 1 1 10.09 9.46 1.25 o
4 3 4 -1 -1 0.06 -1.04 0.88 <
4 3 4 -1 0 0.28 0.11 0.91 <
4 3 4 -1 1 2.83 2.75 0.84 o
4 3 4 0 -1 11.21 10.32 1.62 o
4 3 4 0 0 159.00 158.30 6.76 o
4 3 4 0 1 43.91 45.25 3.45 o
4 3 4 1 -1 3.12 1.55 0.85 <
4 3 4 1 0 50.88 48.95 3.69 o
4 3 4 1 1 0.28 0.86 1.09 <
4 3 5 -1 -1 4.09 4.13 1.72 <
4 3 5 -1 0 5.54 2.83 1.60 <
4 3 5 -1 1 2.44 4.27 1.66 <
4 3 5 0 -1 165.39 159.65 8.69 o
4 3 5 0 0 36.89 38.59 4.24 o
4 3 5 0 1 0.02 1.87 1.35 <
4 3 5 1 -1 1.47 2.32 1.44 <
4 3 5 1 0 42.25 44.52 4.96 o
4 3 5 1 1 3.40 2.56 1.92 <
4 3 6 -1 -1 0.46 0.17 1.39 <
4 3 6 -1 0 56.80 54.58 5.81 o
4 3 6 -1 1 2.12 2.42 2.15 <
4 3 6 0 -1 28.97 25.28 4.47 o
4 3 6 0 0 51.51 66.31 7.33 o
4 3 6 0 1 0.12 1.25 2.25 <
4 3 6 1 -1 0.46 -1.19 1.65 <
4 3 6 1 0 0.34 -1.41 1.94 <
4 3 6 1 1 0.02 0.37 1.80 <
4 3 7 -1 -1 1.30 1.67 2.77 <
4 3 7 -1 0 7.36 6.85 2.99 <
4 3 7 -1 1 0.61 -2.40 2.12 <
4 3 7 0 -1 6.96 6.70 2.74 <
4 3 7 0 0 1357.10 1413.33 37.72 o
4 3 7 0 1 66.71 65.12 9.38 o
4 3 7 1 -1 1.87 2.62 2.72 <
4 3 7 1 0 13.94 16.64 4.14 o
4 3 7 1 1 7.43 7.21 3.64 <
4 3 8 -1 -1 0.02 0.66 2.04 <
4 3 8 -1 0 5.62 2.98 2.98 <
4 3 8 -1 1 2.50 2.98 2.45 <
4 3 8 0 -1 0.53 -4.12 2.39 <
4 3 8 0 0 104.68 96.56 11.27 o
4 3 8 0 1 2.16 1.61 3.01 <
4 3 8 1 -1 0.39 -0.04 2.77 <
4 3 8 1 0 11.37 11.06 3.93 <
4 3 8 1 1 0.52 3.20 2.63 <
4 3 9 -1 -1 0.56 -1.92 2.89 <
4 3 9 -1 0 4.57 7.85 3.78 <
4 3 9 -1 1 1.38 3.98 3.69 <
4 3 9 0 -1 47.64 45.85 9.83 o
4 3 9 0 0 309.10 296.82 21.11 o
4 3 9 0 1 2.21 -0.04 3.30 <
4 3 9 1 -1 0.00 -7.08 4.06 <
4 3 9 1 0 42.33 33.84 6.38 o
4 3 9 1 1 1.16 -5.40 3.50 <
4 3 10 -1 -1 0.29 1.34 2.24 <
4 3 10 -1 0 39.12 35.39 13.14 <
4 3 10 -1 1 0.22 4.14 7.91 <
4 3 10 0 -1 5.29 5.59 6.96 <
4 3 10 0 0 19.77 6.72 6.21 <
4 3 10 0 1 4.07 2.76 4.56 <
4 3 10 1 -1 1.01 -21.62 14.54 <
4 3 10 1 0 0.24 -2.76 4.11 <
4 3 10 1 1 0.08 -12.83 11.04 <
4 4 0 -1 1 1.06 0.23 0.69 <
4 4 0 0 0 24336.90 23196.60 122.98 o
4 4 0 0 1 64.79 61.81 3.60 o
4 4 0 1 1 0.30 1.15 0.75 <
4 4 1 -1 1 0.01 -0.32 0.52 <
4 4 1 0 0 227.25 238.28 7.20 o
4 4 1 0 1 21.90 21.73 1.75 o
4 4 1 1 1 0.22 0.12 0.54 <
4 4 2 -1 1 4.27 2.11 0.65 o
4 4 2 0 0 3156.27 3146.24 27.96 o
4 4 2 0 1 12.53 13.66 1.47 o
4 4 2 1 1 5.38 1.02 0.70 <
4 4 3 -1 1 0.02 -1.62 0.78 <
4 4 3 0 0 83.40 90.98 5.70 o
4 4 3 0 1 25.37 23.23 2.03 o
4 4 3 1 1 1.49 -0.42 0.72 <
4 4 4 -1 1 0.22 -0.19 0.71 <
4 4 4 0 0 7982.52 7865.82 66.17 o
4 4 4 0 1 6.28 4.58 1.16 o
4 4 4 1 1 0.02 -1.08 1.02 <
4 4 5 -1 1 0.01 -0.41 1.66 <
4 4 5 0 0 214.03 212.49 13.21 o
4 4 5 0 1 4.98 5.47 1.96 <
4 4 5 1 1 0.04 0.47 1.31 <
4 4 6 -1 1 3.52 0.98 1.82 <
4 4 6 0 0 87.42 78.39 11.49 o
4 4 6 0 1 6.60 5.56 2.18 <
4 4 6 1 1 0.95 -0.52 1.94 <
4 4 7 -1 1 0.00 1.75 2.31 <
4 4 7 0 0 22.31 24.82 8.61 <
4 4 7 0 1 24.15 24.44 4.74 o
4 4 7 1 1 1.39 -0.14 3.03 <
4 4 8 -1 1 0.01 -2.40 2.60 <
4 4 8 0 0 346.52 320.32 27.15 o
4 4 8 0 1 7.55 12.30 3.81 o
4 4 8 1 1 0.56 -0.23 2.99 <
4 4 9 -1 1 0.01 -7.76 3.85 <
4 4 9 0 0 127.12 120.07 24.56 o
4 4 9 0 1 0.90 0.94 3.34 <
4 4 9 1 1 0.11 -16.37 6.84 <
4 4 10 -1 1 1.90 5.82 11.57 <
5 0 0 0 1 304.33 307.23 7.24 o
5 0 0 1 0 24.45 23.47 2.12 o
5 0 0 1 1 0.02 -0.02 1.01 <
5 0 1 -1 1 9.16 11.06 1.58 o
5 0 1 0 0 15.93 9.98 1.58 o
5 0 1 0 1 27.75 25.07 1.66 o
5 0 1 1 -1 9.97 10.15 1.61 o
5 0 1 1 0 16.12 14.94 1.30 o
5 0 1 1 1 8.71 9.85 1.11 o
5 0 2 0 1 4.42 4.01 0.77 o
5 0 2 1 0 55.70 51.96 2.87 o
5 0 2 1 1 1.06 -0.01 0.67 <
5 0 3 -1 1 17.63 16.27 2.67 o
5 0 3 0 0 2857.69 2907.03 35.26 o
5 0 3 0 1 35.03 33.65 2.58 o
5 0 3 1 -1 9.59 12.25 2.20 o
5 0 3 1 0 4.34 4.67 1.13 o
5 0 3 1 1 9.89 6.79 1.08 o
5 0 4 0 1 161.33 169.48 6.04 o
5 0 4 1 0 25.61 23.49 2.48 o
5 0 4 1 1 0.03 -0.59 1.14 <
5 0 5 -1 1 1.25 2.66 2.11 <
5 0 5 0 0 508.80 492.63 23.58 o
5 0 5 0 1 11.14 13.10 2.89 o
5 0 5 1 -1 4.73 1.35 1.28 <
5 0 5 1 0 30.51 25.46 4.00 o
5 0 5 1 1 3.03 4.06 1.65 <
5 0 6 0 1 7.25 5.09 1.99 <
5 0 6 1 0 13.84 14.23 2.51 o
5 0 6 1 1 0.31 0.85 1.82 <
5 0 7 -1 1 10.63 2.29 2.50 <
5 0 7 0 0 1198.44 1236.82 49.68 o
5 0 7 0 1 10.73 7.77 2.92 <
5 0 7 1 -1 4.52 7.52 3.40 <
5 0 7 1 0 0.42 3.32 2.70 <
5 0 7 1 1 5.23 3.25 3.03 <
5 0 8 0 1 53.96 53.37 7.43 o
5 0 8 1 0 20.14 16.55 4.20 o
5 0 8 1 1 0.06 0.11 2.17 <
5 0 9 -1 1 0.44 -5.77 4.96 <
5 0 9 0 0 68.57 63.11 12.65 o
5 0 9 0 1 12.46 12.31 3.83 o
5 0 9 1 -1 1.85 -4.57 6.02 <
5 0 9 1 0 0.09 -0.36 2.62 <
5 0 9 1 1 1.03 -2.07 3.55 <
5 0 10 0 1 4.38 3.76 4.27 <
5 0 10 1 1 0.02 -3.74 6.77 <
5 1 0 -1 -1 10.90 14.26 1.77 o
5 1 0 -1 0 448.00 445.35 9.84 o
5 1 0 -1 1 13.51 40.28 4.10 o
5 1 0 0 -1 231.98 239.93 7.01 o
5 1 0 0 0 9986.66 9338.85 49.41 o
5 1 0 0 1 0.68 0.93 0.72 <
5 1 0 1 -1 0.51 3.77 1.57 <
5 1 0 1 0 1.15 2.51 1.24 <
5 1 0 1 1 0.79 0.85 0.65 <
5 1 1 -1 -1 0.83 -0.10 0.46 <
5 1 1 -1 0 0.38 0.20 0.51 <
5 1 1 -1 1 7.08 2.98 0.68 o
5 1 1 0 -1 24.08 24.22 1.86 o
5 1 1 0 0 2692.28 2632.66 18.05 o
5 1 1 0 1 0.31 0.39 0.52 <
5 1 1 1 -1 0.00 -1.56 0.82 <
5 1 1 1 0 57.22 58.38 2.72 o
5 1 1 1 1 0.67 0.27 0.54 <
5 1 2 -1 -1 0.02 -0.50 0.62 <
5 1 2 -1 0 0.19 -0.46 0.53 <
5 1 2 -1 1 0.16 1.24 0.64 <
5 1 2 0 -1 19.04 20.10 2.01 o
5 1 2 0 0 4795.52 4566.44 29.14 o
5 1 2 0 1 0.95 0.90 0.76 <
5 1 2 1 -1 3.28 2.34 0.81 <
5 1 2 1 0 1.82 2.30 0.83 <
5 1 2 1 1 9.18 9.88 1.38 o
5 1 3 -1 -1 0.56 -0.29 0.81 <
5 1 3 -1 0 9.10 8.70 1.26 o
5 1 3 -1 1 3.31 1.74 0.63 <
5 1 3 0 -1 29.97 29.31 2.30 o
5 1 3 0 0 67.08 74.04 3.85 o
5 1 3 0 1 6.13 5.52 1.07 o
5 1 3 1 -1 0.71 1.73 0.76 <
5 1 3 1 0 64.09 66.61 3.54 o
5 1 3 1 1 1.30 0.31 0.56 <
5 1 4 -1 -1 3.57 3.55 0.93 o
5 1 4 -1 0 214.23 216.96 7.05 o
5 1 4 -1 1 5.08 2.79 1.01 <
5 1 4 0 -1 80.94 85.30 4.93 o
5 1 4 0 0 3282.66 3307.59 31.08 o
5 1 4 0 1 0.27 -0.55 0.97 <
5 1 4 1 -1 0.05 -0.49 1.05 <
5 1 4 1 0 4.49 3.98 1.15 o
5 1 4 1 1 1.21 3.15 0.99 o
5 1 5 -1 -1 0.46 0.25 1.54 <
5 1 5 -1 0 0.24 0.72 1.41 <
5 1 5 -1 1 4.49 2.15 1.66 <
5 1 5 0 -1 6.06 7.25 1.93 o
5 1 5 0 0 3404.14 3422.75 40.14 o
5 1 5 0 1 4.67 3.76 1.83 <
5 1 5 1 -1 0.59 -0.72 1.21 <
5 1 5 1 0 20.25 21.91 2.94 o
5 1 5 1 1 0.29 -0.45 1.07 <
5 1 6 -1 -1 0.79 0.66 1.46 <
5 1 6 -1 0 7.72 8.08 2.42 o
5 1 6 -1 1 0.95 1.04 1.54 <
5 1 6 0 -1 1.09 2.19 1.68 <
5 1 6 0 0 402.98 445.44 16.10 o
5 1 6 0 1 0.06 0.46 1.79 <
5 1 6 1 -1 0.82 2.05 1.33 <
5 1 6 1 0 0.15 -1.41 1.81 <
5 1 6 1 1 2.62 4.21 2.56 <
5 1 7 -1 -1 0.24 2.19 2.24 <
5 1 7 -1 0 2.81 1.86 2.08 <
5 1 7 -1 1 1.53 3.52 2.62 <
5 1 7 0 -1 20.45 20.72 4.25 o
5 1 7 0 0 17.09 16.21 3.91 o
5 1 7 0 1 2.38 -2.61 2.22 <
5 1 7 1 -1 1.36 1.79 1.82 <
5 1 7 1 0 42.90 45.45 6.63 o
5 1 7 1 1 0.25 -2.83 1.95 <
5 1 8 -1 -1 0.19 -0.34 2.86 <
5 1 8 -1 0 53.07 50.73 8.16 o
5 1 8 -1 1 0.56 -4.98 3.30 <
5 1 8 0 -1 7.06 7.44 3.07 <
5 1 8 0 0 153.59 145.82 13.72 o
5 1 8 0 1 0.21 -1.91 2.62 <
5 1 8 1 -1 0.12 -1.10 2.78 <
5 1 8 1 0 7.72 6.58 2.97 <
5 1 8 1 1 1.43 2.36 2.76 <
5 1 9 -1 -1 0.26 -6.32 3.20 <
5 1 9 -1 0 2.73 3.12 3.40 <
5 1 9 -1 1 1.20 -0.79 3.63 <
5 1 9 0 -1 0.31 -0.75 3.27 <
5 1 9 0 0 653.69 625.57 28.58 o
5 1 9 0 1 0.08 -1.57 2.77 <
5 1 9 1 -1 1.01 1.35 4.19 <
5 1 9 1 0 2.69 -4.31 3.43 <
5 1 9 1 1 0.87 1.37 2.57 <
5 1 10 -1 -1 1.41 -0.12 3.32 <
5 1 10 -1 0 6.78 3.96 4.15 <
5 1 10 -1 1 0.97 -4.63 5.61 <
5 1 10 0 -1 3.26 5.03 8.09 <
5 1 10 0 0 29.07 32.69 11.24 <
5 1 10 0 1 0.38 14.17 6.73 <
5 1 10 1 0 0.01 6.09 1.91 o
5 1 10 1 1 0.49 -3.29 5.98 <
5 2 0 -1 -1 0.09 0.17 0.77 <
5 2 0 -1 0 103.56 95.27 5.42 o
5 2 0 -1 1 3.70 8.17 1.90 o
5 2 0 0 -1 1.90 4.25 2.16 <
5 2 0 0 0 381.66 360.79 11.73 o
5 2 0 0 1 310.10 298.14 8.59 o
5 2 0 1 -1 1.87 0.83 0.93 <
5 2 0 1 0 446.59 431.99 13.34 o
5 2 0 1 1 14.24 10.59 1.95 o
5 2 1 -1 -1 1.16 1.55 0.61 <
5 2 1 -1 0 25.52 24.54 1.81 o
5 2 1 -1 1 3.18 2.49 0.51 o
5 2 1 0 -1 47.12 45.67 2.63 o
5 2 1 0 0 1119.13 1096.45 13.24 o
5 2 1 0 1 29.27 27.65 2.18 o
5 2 1 1 -1 0.23 -1.24 0.78 <
5 2 1 1 0 31.98 25.87 2.06 o
5 2 1 1 1 0.71 0.08 0.62 <
5 2 2 -1 -1 0.01 1.45 0.78 <
5 2 2 -1 0 132.19 134.34 4.76 o
5 2 2 -1 1 9.12 6.00 1.02 o
5 2 2 0 -1 11.88 13.12 1.52 o
5 2 2 0 0 1765.47 1740.26 17.98 o
5 2 2 0 1 0.17 -0.35 0.76 <
5 2 2 1 -1 6.67 2.60 0.78 o
5 2 2 1 0 16.46 14.92 1.58 o
5 2 2 1 1 0.41 0.16 0.72 <
5 2 3 -1 -1 0.92 0.24 0.74 <
5 2 3 -1 0 1.52 1.31 0.76 <
5 2 3 -1 1 0.10 -0.56 0.71 <
5 2 3 0 -1 11.44 11.55 1.49 o
5 2 3 0 0 673.74 689.17 11.54 o
5 2 3 0 1 0.63 0.87 0.76 <
5 2 3 1 -1 1.83 -0.47 1.23 <
5 2 3 1 0 21.10 16.56 2.57 o
5 2 3 1 1 0.44 1.18 0.91 <
5 2 4 -1 -1 0.07 0.94 1.07 <
5 2 4 -1 0 27.02 26.84 2.68 o
5 2 4 -1 1 0.27 -0.06 0.88 <
5 2 4 0 -1 1.20 1.12 1.28 <
5 2 4 0 0 68.55 75.39 5.11 o
5 2 4 0 1 108.05 112.44 5.62 o
5 2 4 1 -1 0.27 -0.37 1.00 <
5 2 4 1 0 279.42 277.96 9.71 o
5 2 4 1 1 5.70 3.27 1.11 <
5 2 5 -1 -1 4.55 3.90 1.61 <
5 2 5 -1 0 31.82 32.14 3.72 o
5 2 5 -1 1 4.42 4.90 1.88 <
5 2 5 0 -1 49.73 48.97 4.57 o
5 2 5 0 0 758.65 762.29 17.02 o
5 2 5 0 1 43.86 39.69 4.16 o
5 2 5 1 -1 0.20 -0.66 1.41 <
5 2 5 1 0 19.07 16.88 2.56 o
5 2 5 1 1 2.87 1.65 1.29 <
5 2 6 -1 -1 0.00 -2.62 1.93 <
5 2 6 -1 0 17.81 20.48 3.71 o
5 2 6 -1 1 0.63 0.06 1.72 <
5 2 6 0 -1 7.52 8.29 2.95 <
5 2 6 0 0 13.32 14.35 3.22 o
5 2 6 0 1 26.86 28.99 5.21 o
5 2 6 1 -1 7.04 1.71 1.39 <
5 2 6 1 0 5.83 10.72 3.06 o
5 2 6 1 1 0.15 -2.44 1.79 <
5 2 7 -1 -1 1.66 1.73 2.52 <
5 2 7 -1 0 0.62 3.07 2.38 <
5 2 7 -1 1 0.03 -1.12 1.82 <
5 2 7 0 -1 1.32 -0.84 2.29 <
5 2 7 0 0 290.02 298.47 17.34 o
5 2 7 0 1 1.97 -1.33 2.62 <
5 2 7 1 -1 1.96 1.42 2.25 <
5 2 7 1 0 15.20 11.73 3.16 o
5 2 7 1 1 1.06 0.19 1.66 <
5 2 8 -1 -1 0.03 1.30 2.85 <
5 2 8 -1 0 0.00 -1.10 2.75 <
5 2 8 -1 1 0.51 0.22 3.55 <
5 2 8 0 -1 0.43 -1.78 2.78 <
5 2 8 0 0 1065.45 1086.94 35.54 o
5 2 8 0 1 7.48 7.46 3.20 <
5 2 8 1 -1 0.05 -0.44 3.18 <
5 2 8 1 0 109.08 95.24 12.00 o
5 2 8 1 1 0.69 -2.48 2.51 <
5 2 9 -1 -1 3.24 -0.94 3.26 <
5 2 9 -1 0 6.82 2.81 3.54 <
5 2 9 -1 1 2.22 3.71 3.52 <
5 2 9 0 -1 31.41 25.97 6.26 o
5 2 9 0 0 345.48 345.36 21.07 o
5 2 9 0 1 34.86 28.39 5.99 o
5 2 9 1 -1 0.64 -2.00 4.13 <
5 2 9 1 0 4.04 2.80 4.47 <
5 2 9 1 1 2.22 6.15 5.51 <
5 2 10 -1 -1 0.01 -6.82 6.34 <
5 2 10 -1 0 2.04 -3.28 5.66 <
5 2 10 -1 1 0.02 -12.18 6.98 <
5 2 10 0 -1 2.10 1.29 8.30 <
5 2 10 0 0 162.07 148.52 38.97 o
5 2 10 0 1 25.60 16.86 8.45 <
5 2 10 1 0 0.61 17.53 13.10 <
5 2 10 1 1 0.36 -1.06 5.48 <
5 3 0 -1 -1 60.64 62.75 4.13 o
5 3 0 -1 0 95.73 86.65 4.54 o
5 3 0 -1 1 1.07 0.66 0.81 <
5 3 0 0 -1 8.92 8.32 1.40 o
5 3 0 0 0 2736.12 2594.85 31.66 o
5 3 0 0 1 9.87 8.12 1.32 o
5 3 0 1 -1 2.14 5.68 1.22 o
5 3 0 1 0 7.37 22.81 3.20 o
5 3 0 1 1 8.23 4.84 1.03 o
5 3 1 -1 -1 0.64 0.80 0.70 <
5 3 1 -1 0 40.95 37.76 2.65 o
5 3 1 -1 1 2.12 2.64 0.75 o
5 3 1 0 -1 16.05 15.32 1.69 o
5 3 1 0 0 267.44 269.88 7.15 o
5 3 1 0 1 9.78 9.34 1.17 o
5 3 1 1 -1 1.41 1.12 0.76 <
5 3 1 1 0 48.65 53.64 2.84 o
5 3 1 1 1 0.46 -0.33 0.67 <
5 3 2 -1 -1 3.61 2.30 0.86 <
5 3 2 -1 0 8.39 6.53 1.14 o
5 3 2 -1 1 1.19 2.32 0.74 o
5 3 2 0 -1 6.88 7.42 1.27 o
5 3 2 0 0 202.62 206.74 6.25 o
5 3 2 0 1 25.57 27.96 2.32 o
5 3 2 1 -1 2.34 1.16 0.84 <
5 3 2 1 0 31.35 23.37 2.21 o
5 3 2 1 1 10.66 8.55 1.30 o
5 3 3 -1 -1 0.80 0.15 0.64 <
5 3 3 -1 0 0.08 0.03 0.76 <
5 3 3 -1 1 6.59 5.40 1.01 o
5 3 3 0 -1 3.99 2.42 1.11 <
5 3 3 0 0 250.36 242.60 7.16 o
5 3 3 0 1 153.48 157.76 5.69 o
5 3 3 1 -1 0.05 -0.15 0.82 <
5 3 3 1 0 47.49 50.73 3.62 o
5 3 3 1 1 0.16 0.14 0.68 <
5 3 4 -1 -1 37.12 33.81 3.18 o
5 3 4 -1 0 85.00 81.47 4.82 o
5 3 4 -1 1 0.38 1.36 0.99 <
5 3 4 0 -1 2.52 2.26 1.02 <
5 3 4 0 0 3818.75 3844.20 32.38 o
5 3 4 0 1 28.75 26.46 2.75 o
5 3 4 1 -1 1.63 3.28 1.01 o
5 3 4 1 0 0.60 -0.17 1.10 <
5 3 4 1 1 4.38 2.85 1.03 <
5 3 5 -1 -1 2.82 1.51 1.21 <
5 3 5 -1 0 66.91 67.17 5.24 o
5 3 5 -1 1 0.16 -1.49 1.30 <
5 3 5 0 -1 40.08 40.90 3.93 o
5 3 5 0 0 786.48 783.77 18.84 o
5 3 5 0 1 10.38 10.44 2.20 o
5 3 5 1 -1 2.61 1.17 1.14 <
5 3 5 1 0 19.69 21.76 2.81 o
5 3 5 1 1 0.45 -0.70 1.22 <
5 3 6 -1 -1 2.39 3.52 2.00 <
5 3 6 -1 0 0.02 -0.66 1.95 <
5 3 6 -1 1 1.09 -0.17 1.99 <
5 3 6 0 -1 14.10 9.05 2.38 o
5 3 6 0 0 296.19 291.25 14.75 o
5 3 6 0 1 59.53 65.94 6.15 o
5 3 6 1 -1 0.83 2.70 1.97 <
5 3 6 1 0 0.00 -0.98 1.92 <
5 3 6 1 1 7.59 6.53 2.14 o
5 3 7 -1 -1 1.22 -0.12 1.91 <
5 3 7 -1 0 1.05 0.54 2.15 <
5 3 7 -1 1 3.18 2.84 2.69 <
5 3 7 0 -1 1.20 0.83 1.82 <
5 3 7 0 0 94.63 95.77 9.81 o
5 3 7 0 1 81.52 85.53 9.20 o
5 3 7 1 -1 0.05 -0.47 2.53 <
5 3 7 1 0 48.05 55.58 7.42 o
5 3 7 1 1 0.08 -3.93 3.00 <
5 3 8 -1 -1 14.15 6.42 2.64 <
5 3 8 -1 0 64.46 65.74 8.52 o
5 3 8 -1 1 0.01 -0.76 2.46 <
5 3 8 0 -1 32.37 28.63 5.64 o
5 3 8 0 0 4105.65 4100.91 70.22 o
5 3 8 0 1 49.16 43.50 6.81 o
5 3 8 1 -1 1.08 1.30 2.65 <
5 3 8 1 0 13.86 8.72 4.10 <
5 3 8 1 1 1.55 0.59 2.88 <
5 3 9 -1 -1 1.59 2.55 3.37 <
5 3 9 -1 0 16.37 9.43 3.56 <
5 3 9 -1 1 0.47 -4.67 3.56 <
5 3 9 0 -1 4.29 7.70 5.45 <
5 3 9 0 0 23.47 24.07 11.17 <
5 3 9 0 1 0.24 2.55 5.52 <
5 3 9 1 -1 0.58 -15.09 7.59 <
5 3 9 1 0 0.40 6.09 6.02 <
5 3 9 1 1 0.13 1.82 4.55 <
5 3 10 -1 -1 1.97 -2.97 11.34 <
5 3 10 -1 0 1.02 -11.05 10.51 <
5 3 10 -1 1 0.87 -20.24 14.06 <
5 4 0 -1 -1 10.31 9.65 1.57 o
5 4 0 -1 0 469.38 485.80 10.18 o
5 4 0 -1 1 10.66 14.62 1.91 o
5 4 0 0 -1 1.62 2.20 0.88 <
5 4 0 0 0 8.55 17.22 2.29 o
5 4 0 0 1 1.76 1.67 0.91 <
5 4 0 1 -1 0.14 -0.38 1.38 <
5 4 0 1 0 32.03 23.37 2.40 o
5 4 0 1 1 1.02 1.02 0.79 <
5 4 1 -1 -1 2.05 1.01 0.70 <
5 4 1 -1 0 19.68 22.03 1.79 o
5 4 1 -1 1 0.07 -0.30 0.49 <
5 4 1 0 -1 238.54 254.49 6.75 o
5 4 1 0 0 2260.65 2266.19 18.53 o
5 4 1 0 1 0.41 -0.03 0.62 <
5 4 1 1 -1 0.00 0.94 0.90 <
5 4 1 1 0 42.16 69.70 3.97 o
5 4 1 1 1 1.77 0.96 0.68 <
5 4 2 -1 -1 0.20 0.02 0.68 <
5 4 2 -1 0 9.27 8.06 1.21 o
5 4 2 -1 1 0.79 -0.16 0.64 <
5 4 2 0 -1 169.88 174.12 6.15 o
5 4 2 0 0 936.98 921.39 12.96 o
5 4 2 0 1 3.99 2.42 0.79 o
5 4 2 1 -1 22.44 20.34 2.13 o
5 4 2 1 0 36.01 38.43 3.02 o
5 4 2 1 1 0.12 1.05 0.93 <
5 4 3 -1 -1 1.17 1.13 0.72 <
5 4 3 -1 0 10.12 10.36 1.41 o
5 4 3 -1 1 0.00 0.04 0.82 <
5 4 3 0 -1 27.16 29.57 2.66 o
5 4 3 0 0 6.46 6.65 1.27 o
5 4 3 0 1 38.80 41.79 3.01 o
5 4 3 1 -1 0.66 -0.49 1.12 <
5 4 3 1 0 142.38 152.78 6.02 o
5 4 3 1 1 0.26 -1.09 0.96 <
5 4 4 -1 -1 5.99 4.65 1.15 o
5 4 4 -1 0 272.13 280.79 9.10 o
5 4 4 -1 1 4.92 4.99 1.10 o
5 4 4 0 -1 2.31 4.01 1.29 o
5 4 4 0 0 0.70 3.37 1.20 <
5 4 4 0 1 7.72 9.77 1.65 o
5 4 4 1 -1 0.76 0.29 0.94 <
5 4 4 1 0 0.86 0.47 1.04 <
5 4 4 1 1 1.25 2.22 1.12 <
5 4 5 -1 -1 1.55 0.87 1.04 <
5 4 5 -1 0 16.78 16.50 2.53 o
5 4 5 -1 1 0.02 -0.33 1.56 <
5 4 5 0 -1 278.67 296.12 10.90 o
5 4 5 0 0 3656.69 3673.85 38.34 o
5 4 5 0 1 15.54 14.08 2.48 o
5 4 5 1 -1 0.26 -0.93 1.40 <
5 4 5 1 0 3.04 4.23 1.82 <
5 4 5 1 1 1.63 0.05 1.41 <
5 4 6 -1 -1 0.01 0.60 1.54 <
5 4 6 -1 0 0.29 -2.90 1.64 <
5 4 6 -1 1 1.59 -0.07 1.50 <
5 4 6 0 -1 34.95 35.90 5.25 o
5 4 6 0 0 399.64 385.12 14.24 o
5 4 6 0 1 12.82 12.34 2.74 o
5 4 6 1 -1 7.50 6.49 1.88 o
5 4 6 1 0 2.13 1.60 1.58 <
5 4 6 1 1 0.02 -1.25 1.79 <
5 4 7 -1 -1 0.73 -0.28 2.24 <
5 4 7 -1 0 1.76 0.77 1.91 <
5 4 7 -1 1 0.05 1.68 2.41 <
5 4 7 0 -1 15.99 15.15 3.45 o
5 4 7 0 0 1.74 3.24 2.53 <
5 4 7 0 1 17.27 18.75 4.37 o
5 4 7 1 -1 1.33 0.71 2.20 <
5 4 7 1 0 86.99 94.86 8.78 o
5 4 7 1 1 0.22 -0.42 1.99 <
5 4 8 -1 -1 2.42 -7.23 3.22 <
5 4 8 -1 0 95.73 100.35 13.02 o
5 4 8 -1 1 0.99 3.60 3.09 <
5 4 8 0 -1 15.91 15.44 5.19 <
5 4 8 0 0 3.40 8.32 4.75 <
5 4 8 0 1 12.23 11.44 4.12 <
5 4 8 1 -1 1.95 -6.52 4.10 <
5 4 8 1 0 16.91 14.12 4.61 o
5 4 8 1 1 1.01 2.71 3.96 <
5 4 9 -1 -1 0.43 -3.71 4.36 <
5 4 9 -1 0 14.98 6.16 3.98 <
5 4 9 -1 1 0.10 -3.66 3.77 <
5 4 9 0 -1 62.57 48.86 21.67 <
5 4 9 0 0 385.80 401.24 64.75 o
5 4 9 0 1 0.10 4.57 6.07 <
5 4 9 1 -1 0.63 1.62 5.99 <
5 4 9 1 0 6.59 -2.23 5.38 <
5 4 9 1 1 0.12 -3.90 11.30 <
5 5 0 -1 1 28.31 16.87 1.96 o
5 5 0 0 0 1280.40 1207.70 22.30 o
5 5 0 0 1 32.59 26.13 2.42 o
5 5 0 1 1 1.18 0.30 0.83 <
5 5 1 -1 1 3.44 3.41 0.79 o
5 5 1 0 0 987.15 952.55 18.26 o
5 5 1 0 1 53.76 51.81 3.40 o
5 5 1 1 1 0.00 0.82 0.88 <
5 5 2 -1 1 3.30 3.32 0.92 o
5 5 2 0 0 2.82 7.28 1.99 o
5 5 2 0 1 1.47 1.40 0.79 <
5 5 2 1 1 10.24 4.19 1.09 o
5 5 3 -1 1 2.09 2.84 1.04 <
5 5 3 0 0 88.33 69.46 5.57 o
5 5 3 0 1 36.71 34.88 3.17 o
5 5 3 1 1 2.04 -2.21 1.40 <
5 5 4 -1 1 13.60 6.98 1.40 o
5 5 4 0 0 46.23 38.81 4.73 o
5 5 4 0 1 3.81 -1.04 1.15 <
5 5 4 1 1 3.05 -0.11 1.17 <
5 5 5 -1 1 3.11 3.79 1.57 <
5 5 5 0 0 1184.78 1148.18 38.30 o
5 5 5 0 1 35.55 33.82 4.10 o
5 5 5 1 1 0.50 -0.95 1.58 <
5 5 6 -1 1 0.03 -1.58 1.98 <
5 5 6 0 0 1184.07 1140.05 41.27 o
5 5 6 0 1 9.63 9.63 2.32 o
5 5 6 1 1 1.61 -0.73 2.20 <
5 5 7 -1 1 0.44 2.59 1.67 <
5 5 7 0 0 117.03 108.53 13.69 o
5 5 7 0 1 18.43 18.61 4.20 o
5 5 7 1 1 1.08 0.20 2.67 <
5 5 8 -1 1 2.57 3.54 3.32 <
5 5 8 0 0 538.17 543.84 43.06 o
5 5 8 0 1 3.26 3.66 3.51 <
5 5 8 1 1 5.53 5.56 5.13 <
6 0 0 -1 1 13.49 17.33 2.63 o
6 0 0 0 0 3662.77 3442.84 38.09 o
6 0 0 0 1 0.03 -0.46 0.93 <
6 0 0 1 -1 9.15 39.35 4.57 o
6 0 0 1 0 151.88 147.48 5.69 o
6 0 0 1 1 1.56 0.91 1.04 <
6 0 1 0 1 0.20 0.58 0.57 <
6 0 1 1 0 37.26 37.08 2.19 o
6 0 1 1 1 0.71 -0.45 0.59 <
6 0 2 -1 1 2.78 0.52 0.91 <
6 0 2 0 0 172.62 187.13 8.69 o
6 0 2 0 1 1.99 1.37 0.75 <
6 0 2 1 -1 3.73 -0.50 1.63 <
6 0 2 1 0 12.38 11.64 1.76 o
6 0 2 1 1 6.52 3.41 0.88 o
6 0 3 0 1 0.42 0.10 0.78 <
6 0 3 1 0 178.41 171.80 6.82 o
6 0 3 1 1 0.00 -1.11 0.75 <
6 0 4 -1 1 10.22 9.95 2.37 o
6 0 4 0 0 3251.96 3230.84 43.07 o
6 0 4 0 1 0.20 -0.14 0.89 <
6 0 4 1 -1 3.58 4.93 1.90 <
6 0 4 1 0 42.40 41.52 3.59 o
6 0 4 1 1 1.52 0.88 1.26 <
6 0 5 0 1 1.87 0.91 1.59 <
6 0 5 1 0 0.10 2.17 1.45 <
6 0 5 1 1 1.66 -0.58 1.44 <
6 0 6 -1 1 2.43 -1.06 2.03 <
6 0 6 0 0 4.50 8.69 3.18 <
6 0 6 0 1 1.93 2.05 1.45 <
6 0 6 1 -1 0.60 3.11 3.35 <
6 0 6 1 0 7.07 9.70 2.33 o
6 0 6 1 1 2.10 -0.13 1.67 <
6 0 7 0 1 1.08 -0.85 1.79 <
6 0 7 1 0 123.52 121.22 10.64 o
6 0 7 1 1 0.26 -1.60 2.25 <
6 0 8 -1 1 5.53 7.68 4.57 <
6 0 8 0 0 2354.32 2393.25 61.99 o
6 0 8 0 1 0.41 -1.83 2.59 <
6 0 8 1 -1 0.49 5.09 4.09 <
6 0 8 1 0 0.16 -2.47 2.77 <
6 0 8 1 1 1.19 -0.14 2.51 <
6 0 9 0 1 4.22 1.42 2.78 <
6 0 9 1 0 0.05 5.28 3.90 <
6 0 9 1 1 1.48 1.98 2.80 <
6 1 0 -1 -1 12.30 11.37 1.58 o
6 1 0 -1 0 14.35 17.53 1.93 o
6 1 0 -1 1 2.47 77.34 4.74 o
6 1 0 0 -1 301.06 306.58 8.23 o
6 1 0 0 0 5314.48 5160.61 37.39 o
6 1 0 0 1 61.02 57.99 3.40 o
6 1 0 1 -1 26.42 27.71 2.92 o
6 1 0 1 0 32.12 30.69 2.57 o
6 1 0 1 1 1.66 1.73 1.14 <
6 1 1 -1 -1 0.61 -0.15 0.57 <
6 1 1 -1 0 10.85 9.43 1.17 o
6 1 1 -1 1 0.10 4.51 1.57 <
6 1 1 0 -1 109.62 109.94 4.02 o
6 1 1 0 0 422.75 425.75 8.31 o
6 1 1 0 1 10.56 10.11 1.22 o
6 1 1 1 -1 0.40 -0.25 0.77 <
6 1 1 1 0 35.03 34.92 2.70 o
6 1 1 1 1 0.00 0.67 0.65 <
6 1 2 -1 -1 6.43 4.04 0.98 o
6 1 2 -1 0 27.25 27.88 2.31 o
6 1 2 -1 1 7.15 5.36 1.03 o
6 1 2 0 -1 2.19 2.45 0.92 <
6 1 2 0 0 51.66 56.72 3.20 o
6 1 2 0 1 130.26 130.14 5.26 o
6 1 2 1 -1 2.64 -0.01 0.76 <
6 1 2 1 0 7.26 4.27 1.08 o
6 1 2 1 1 19.71 19.12 2.13 o
6 1 3 -1 -1 1.75 1.09 0.84 <
6 1 3 -1 0 2.40 0.41 0.78 <
6 1 3 -1 1 0.66 0.27 0.75 <
6 1 3 0 -1 119.64 123.43 5.49 o
6 1 3 0 0 211.87 201.55 7.14 o
6 1 3 0 1 12.46 10.43 1.53 o
6 1 3 1 -1 0.48 -0.32 0.87 <
6 1 3 1 0 81.70 84.64 4.60 o
6 1 3 1 1 0.18 -0.32 0.87 <
6 1 4 -1 -1 8.88 7.51 1.65 o
6 1 4 -1 0 19.65 19.40 2.53 o
6 1 4 -1 1 0.07 0.15 0.91 <
6 1 4 0 -1 157.27 159.48 7.77 o
6 1 4 0 0 1189.56 1185.82 20.63 o
6 1 4 0 1 7.32 6.11 1.43 o
6 1 4 1 -1 9.91 8.28 1.63 o
6 1 4 1 0 64.53 66.95 4.51 o
6 1 4 1 1 3.42 3.02 1.12 <
6 1 5 -1 -1 4.04 -0.54 1.36 <
6 1 5 -1 0 12.62 9.34 2.21 o
6 1 5 -1 1 1.10 1.71 1.26 <
6 1 5 0 -1 46.79 48.10 4.68 o
6 1 5 0 0 317.74 342.68 11.50 o
6 1 5 0 1 41.81 39.77 4.09 o
6 1 5 1 -1 0.03 -0.28 1.26 <
6 1 5 1 0 8.60 9.98 2.17 o
6 1 5 1 1 0.02 0.11 1.35 <
6 1 6 -1 -1 3.13 3.17 1.49 <
6 1 6 -1 0 31.28 27.50 3.88 o
6 1 6 -1 1 0.31 -0.70 1.64 <
6 1 6 0 -1 12.17 12.40 2.69 o
6 1 6 0 0 941.51 914.87 22.85 o
6 1 6 0 1 9.97 8.41 2.09 o
6 1 6 1 -1 0.15 0.03 2.08 <
6 1 6 1 0 47.12 39.25 5.93 o
6 1 6 1 1 4.72 5.30 2.41 <
6 1 7 -1 -1 2.36 4.94 2.65 <
6 1 7 -1 0 0.18 0.55 2.15 <
6 1 7 -1 1 0.97 -2.87 2.04 <
6 1 7 0 -1 78.27 81.10 8.43 o
6 1 7 0 0 100.19 97.56 8.60 o
6 1 7 0 1 10.86 11.48 2.99 o
6 1 7 1 -1 0.55 -2.61 2.03 <
6 1 7 1 0 33.34 34.42 5.29 o
6 1 7 1 1 0.07 0.75 1.52 <
6 1 8 -1 -1 5.26 1.98 2.82 <
6 1 8 -1 0 19.32 15.07 5.02 o
6 1 8 -1 1 0.93 1.64 2.85 <
6 1 8 0 -1 42.14 45.55 7.48 o
6 1 8 0 0 24.41 23.47 4.71 o
6 1 8 0 1 6.67 6.22 2.77 <
6 1 8 1 -1 0.57 3.30 2.59 <
6 1 8 1 0 86.17 91.74 10.61 o
6 1 8 1 1 4.57 0.16 3.69 <
6 1 9 -1 -1 2.44 2.59 3.31 <
6 1 9 -1 0 7.79 -3.84 6.08 <
6 1 9 -1 1 0.95 -6.07 3.92 <
6 1 9 0 -1 14.31 14.88 4.93 o
6 1 9 0 0 110.24 109.12 13.18 o
6 1 9 0 1 10.30 3.31 4.48 <
6 1 9 1 -1 0.10 4.32 3.96 <
6 1 9 1 0 17.91 20.90 9.22 <
6 1 9 1 1 0.05 2.04 2.98 <
6 1 10 -1 1 0.06 6.87 5.80 <
6 1 10 0 1 0.02 32.08 17.94 <
6 2 0 -1 -1 8.44 5.43 1.21 o
6 2 0 -1 0 12.01 9.68 1.70 o
6 2 0 -1 1 8.70 7.68 2.15 o
6 2 0 0 -1 274.28 271.68 10.61 o
6 2 0 0 0 4133.75 4031.53 34.37 o
6 2 0 0 1 0.01 0.91 1.05 <
6 2 0 1 -1 5.62 3.65 1.60 <
6 2 0 1 0 48.75 41.51 4.51 o
6 2 0 1 1 9.21 14.64 2.58 o
6 2 1 -1 -1 5.20 8.13 1.19 o
6 2 1 -1 0 2.13 0.06 0.62 <
6 2 1 -1 1 18.37 11.27 1.34 o
6 2 1 0 -1 6.48 4.06 0.88 o
6 2 1 0 0 2367.84 2309.55 20.93 o
6 2 1 0 1 270.36 273.36 6.97 o
6 2 1 1 -1 3.24 2.40 0.84 <
6 2 1 1 0 41.63 45.25 3.02 o
6 2 1 1 1 4.44 7.25 1.22 o
6 2 2 -1 -1 0.79 -0.13 0.75 <
6 2 2 -1 0 1.90 1.91 0.80 <
6 2 2 -1 1 8.45 5.33 0.84 o
6 2 2 0 -1 7.55 8.61 1.51 o
6 2 2 0 0 3142.51 3098.85 27.53 o
6 2 2 0 1 74.31 73.92 4.10 o
6 2 2 1 -1 2.74 1.27 1.00 <
6 2 2 1 0 16.81 11.09 1.68 o
6 2 2 1 1 4.71 2.45 0.97 <
6 2 3 -1 -1 3.20 3.94 1.16 o
6 2 3 -1 0 38.19 38.73 3.36 o
6 2 3 -1 1 3.79 2.39 0.80 o
6 2 3 0 -1 49.78 52.57 4.37 o
6 2 3 0 0 190.71 204.81 8.55 o
6 2 3 0 1 54.41 51.48 4.27 o
6 2 3 1 -1 3.74 1.32 1.09 <
6 2 3 1 0 4.40 5.03 1.40 o
6 2 3 1 1 0.99 -0.65 0.85 <
6 2 4 -1 -1 5.36 2.39 1.18 <
6 2 4 -1 0 13.57 12.33 1.92 o
6 2 4 -1 1 4.76 3.33 1.16 <
6 2 4 0 -1 123.93 124.56 6.41 o
6 2 4 0 0 2724.10 2713.00 28.72 o
6 2 4 0 1 5.46 3.35 1.04 o
6 2 4 1 -1 3.95 6.15 1.85 o
6 2 4 1 0 15.46 14.71 2.14 o
6 2 4 1 1 4.62 6.51 1.63 o
6 2 5 -1 -1 3.37 6.25 1.88 o
6 2 5 -1 0 30.21 26.32 3.07 o
6 2 5 -1 1 17.78 11.89 2.12 o
6 2 5 0 -1 45.01 37.27 4.55 o
6 2 5 0 0 4532.73 4555.19 40.62 o
6 2 5 0 1 253.73 258.65 10.38 o
6 2 5 1 -1 2.13 3.50 1.43 <
6 2 5 1 0 53.28 57.98 4.80 o
6 2 5 1 1 12.49 14.07 2.37 o
6 2 6 -1 -1 0.36 -0.45 1.80 <
6 2 6 -1 0 5.76 3.46 2.17 <
6 2 6 -1 1 3.28 2.50 1.96 <
6 2 6 0 -1 3.16 3.72 2.44 <
6 2 6 0 0 1711.58 1704.39 37.69 o
6 2 6 0 1 8.78 8.72 3.28 <
6 2 6 1 -1 1.33 -1.48 2.20 <
6 2 6 1 0 0.10 0.18 1.67 <
6 2 6 1 1 1.12 -1.43 2.11 <
6 2 7 -1 -1 1.75 1.31 2.23 <
6 2 7 -1 0 27.35 30.11 4.97 o
6 2 7 -1 1 1.87 -0.13 2.65 <
6 2 7 0 -1 30.60 33.21 5.51 o
6 2 7 0 0 27.17 37.23 5.83 o
6 2 7 0 1 33.74 28.16 4.83 o
6 2 7 1 -1 0.99 3.31 2.15 <
6 2 7 1 0 2.69 3.41 3.06 <
6 2 7 1 1 2.18 -2.25 1.74 <
6 2 8 -1 -1 2.20 4.04 3.52 <
6 2 8 -1 0 12.25 9.21 3.15 <
6 2 8 -1 1 1.64 2.15 2.77 <
6 2 8 0 -1 19.78 14.73 3.68 o
6 2 8 0 0 1248.71 1250.74 38.95 o
6 2 8 0 1 19.79 16.93 4.43 o
6 2 8 1 -1 1.88 3.82 3.04 <
6 2 8 1 0 0.08 3.12 2.71 <
6 2 8 1 1 1.02 -0.83 3.68 <
6 2 9 -1 -1 1.01 2.01 3.33 <
6 2 9 -1 0 4.72 1.01 5.22 <
6 2 9 -1 1 4.34 -12.63 6.10 <
6 2 9 0 -1 1.02 -3.33 6.26 <
6 2 9 0 0 305.90 285.19 25.95 o
6 2 9 0 1 40.96 33.08 7.96 o
6 2 9 1 -1 2.85 2.76 4.65 <
6 2 9 1 0 13.79 11.09 3.49 o
6 2 9 1 1 5.77 4.84 4.29 <
6 2 10 -1 1 1.33 -0.32 1.75 <
6 3 0 -1 -1 0.54 0.35 1.27 <
6 3 0 -1 0 98.63 90.63 5.82 o
6 3 0 -1 1 1.03 -2.85 1.10 <
6 3 0 0 -1 251.60 245.74 10.41 o
6 3 0 0 0 3558.70 3426.13 41.85 o
6 3 0 0 1 432.73 452.38 13.81 o
6 3 0 1 -1 12.48 0.85 1.19 <
6 3 0 1 0 80.18 76.61 6.22 o
6 3 0 1 1 0.02 1.59 1.28 <
6 3 1 -1 -1 2.05 5.19 1.40 o
6 3 1 -1 0 56.57 52.79 2.96 o
6 3 1 -1 1 0.61 -0.02 0.62 <
6 3 1 0 -1 6.02 4.48 0.95 o
6 3 1 0 0 719.39 681.72 11.59 o
6 3 1 0 1 0.13 -0.39 0.63 <
6 3 1 1 -1 0.48 1.27 0.80 <
6 3 1 1 0 20.66 16.20 1.72 o
6 3 1 1 1 7.86 4.11 0.92 o
6 3 2 -1 -1 5.71 1.42 0.94 <
6 3 2 -1 0 26.89 23.80 2.47 o
6 3 2 -1 1 4.63 2.05 0.84 <
6 3 2 0 -1 369.20 365.80 10.47 o
6 3 2 0 0 3917.48 3723.32 29.18 o
6 3 2 0 1 16.57 13.57 1.66 o
6 3 2 1 -1 3.50 -1.13 1.11 <
6 3 2 1 0 267.69 280.36 8.25 o
6 3 2 1 1 1.93 1.71 0.93 <
6 3 3 -1 -1 0.97 0.01 0.98 <
6 3 3 -1 0 20.60 19.43 2.57 o
6 3 3 -1 1 2.90 2.99 0.93 o
6 3 3 0 -1 0.00 -2.06 1.13 <
6 3 3 0 0 439.27 417.96 11.04 o
6 3 3 0 1 6.32 6.00 1.30 o
6 3 3 1 -1 3.60 4.24 1.17 o
6 3 3 1 0 6.08 6.48 1.44 o
6 3 3 1 1 16.35 10.84 1.90 o
6 3 4 -1 -1 0.44 1.06 1.14 <
6 3 4 -1 0 114.39 110.73 5.29 o
6 3 4 -1 1 0.01 -0.84 1.06 <
6 3 4 0 -1 70.23 67.00 5.07 o
6 3 4 0 0 419.27 409.68 12.80 o
6 3 4 0 1 175.96 177.72 7.37 o
6 3 4 1 -1 6.49 3.58 1.43 <
6 3 4 1 0 35.84 28.92 3.66 o
6 3 4 1 1 0.01 -0.51 1.08 <
6 3 5 -1 -1 1.44 -0.33 0.96 <
6 3 5 -1 0 46.85 44.88 4.34 o
6 3 5 -1 1 0.07 -1.40 1.42 <
6 3 5 0 -1 6.75 3.74 1.41 <
6 3 5 0 0 525.66 504.81 14.87 o
6 3 5 0 1 4.33 4.84 1.59 o
6 3 5 1 -1 0.09 -1.30 1.98 <
6 3 5 1 0 60.66 54.30 4.80 o
6 3 5 1 1 1.09 -2.55 1.60 <
6 3 6 -1 -1 3.47 2.25 1.69 <
6 3 6 -1 0 0.12 -2.18 2.07 <
6 3 6 -1 1 0.10 2.60 1.94 <
6 3 6 0 -1 61.39 58.40 6.58 o
6 3 6 0 0 38.33 39.42 6.18 o
6 3 6 0 1 6.53 10.03 2.92 o
6 3 6 1 -1 4.21 1.93 2.64 <
6 3 6 1 0 110.99 126.06 10.97 o
6 3 6 1 1 1.95 -0.02 2.11 <
6 3 7 -1 -1 0.73 1.03 1.90 <
6 3 7 -1 0 15.03 18.13 4.22 o
6 3 7 -1 1 3.67 3.60 2.24 <
6 3 7 0 -1 2.37 3.14 2.24 <
6 3 7 0 0 242.08 242.09 15.08 o
6 3 7 0 1 3.70 4.85 2.44 <
6 3 7 1 -1 2.87 4.82 2.79 <
6 3 7 1 0 9.38 7.63 3.00 <
6 3 7 1 1 13.74 7.53 3.58 <
6 3 8 -1 -1 0.21 -2.78 2.79 <
6 3 8 -1 0 107.09 119.64 12.56 o
6 3 8 -1 1 1.26 -6.18 3.39 <
6 3 8 0 -1 0.11 -3.17 3.26 <
6 3 8 0 0 384.55 357.89 20.67 o
6 3 8 0 1 24.39 24.29 5.55 o
6 3 8 1 -1 1.85 -1.14 3.24 <
6 3 8 1 0 5.91 8.40 3.63 <
6 3 8 1 1 0.10 0.49 3.50 <
6 3 9 -1 -1 0.19 -2.50 4.23 <
6 3 9 -1 0 7.53 0.55 5.56 <
6 3 9 -1 1 0.68 -1.54 3.95 <
6 3 9 0 -1 1.06 -1.30 4.20 <
6 3 9 0 0 191.77 198.65 40.87 o
6 3 9 1 0 23.31 32.67 16.23 <
6 3 9 1 1 0.01 -4.10 6.20 <
6 4 0 -1 -1 4.64 10.20 2.52 o
6 4 0 -1 0 105.68 96.25 6.44 o
6 4 0 -1 1 7.22 4.84 1.07 o
6 4 0 0 -1 2.43 3.21 1.30 <
6 4 0 0 0 1776.30 1751.41 25.75 o
6 4 0 0 1 91.42 91.15 5.43 o
6 4 0 1 -1 6.58 3.54 1.78 <
6 4 0 1 0 28.22 46.60 5.17 o
6 4 0 1 1 10.66 9.45 1.93 o
6 4 1 -1 -1 0.04 -1.04 0.65 <
6 4 1 -1 0 2.87 1.70 0.82 <
6 4 1 -1 1 5.98 6.31 1.05 o
6 4 1 0 -1 23.12 24.99 2.17 o
6 4 1 0 0 1042.14 1069.30 15.09 o
6 4 1 0 1 9.59 11.53 1.50 o
6 4 1 1 -1 0.06 -0.57 0.83 <
6 4 1 1 0 38.05 52.23 3.95 o
6 4 1 1 1 0.87 2.85 1.07 <
6 4 2 -1 -1 17.20 17.19 2.06 o
6 4 2 -1 0 251.25 245.82 7.51 o
6 4 2 -1 1 11.53 15.02 1.76 o
6 4 2 0 -1 3.57 2.63 0.96 <
6 4 2 0 0 1564.62 1520.82 19.31 o
6 4 2 0 1 25.33 26.74 2.66 o
6 4 2 1 -1 1.39 2.52 1.08 <
6 4 2 1 0 0.19 -1.57 1.82 <
6 4 2 1 1 4.46 4.44 1.27 o
6 4 3 -1 -1 1.41 3.01 1.16 <
6 4 3 -1 0 0.33 0.83 1.03 <
6 4 3 -1 1 9.53 8.84 1.37 o
6 4 3 0 -1 37.24 37.09 3.76 o
6 4 3 0 0 1002.70 1024.43 17.83 o
6 4 3 0 1 19.68 21.79 2.52 o
6 4 3 1 -1 0.96 2.34 1.44 <
6 4 3 1 0 8.25 10.04 1.98 o
6 4 3 1 1 0.50 1.60 1.13 <
6 4 4 -1 -1 0.95 0.24 0.98 <
6 4 4 -1 0 26.25 22.73 2.73 o
6 4 4 -1 1 2.60 1.04 1.22 <
6 4 4 0 -1 0.30 -1.80 1.14 <
6 4 4 0 0 1151.75 1119.36 20.17 o
6 4 4 0 1 71.63 76.22 5.10 o
6 4 4 1 -1 6.66 2.18 1.43 <
6 4 4 1 0 3.25 1.46 1.16 <
6 4 4 1 1 6.09 5.24 1.37 o
6 4 5 -1 -1 0.22 0.26 1.35 <
6 4 5 -1 0 5.23 4.11 1.71 <
6 4 5 -1 1 2.13 1.17 1.31 <
6 4 5 0 -1 4.57 5.80 1.95 <
6 4 5 0 0 661.17 694.11 18.03 o
6 4 5 0 1 5.04 8.80 2.28 o
6 4 5 1 -1 1.18 0.97 1.74 <
6 4 5 1 0 36.83 45.42 5.38 o
6 4 5 1 1 0.59 1.78 1.49 <
6 4 6 -1 -1 4.13 2.09 1.97 <
6 4 6 -1 0 46.79 45.40 5.64 o
6 4 6 -1 1 2.54 3.23 2.15 <
6 4 6 0 -1 14.30 13.20 3.57 o
6 4 6 0 0 837.12 840.58 25.43 o
6 4 6 0 1 10.94 15.38 3.19 o
6 4 6 1 -1 2.11 0.15 2.45 <
6 4 6 1 0 15.94 18.81 3.82 o
6 4 6 1 1 4.64 3.33 2.37 <
6 4 7 -1 -1 1.18 4.03 2.02 <
6 4 7 -1 0 0.22 -2.35 2.24 <
6 4 7 -1 1 5.31 6.55 2.42 <
6 4 7 0 -1 34.85 34.14 6.28 o
6 4 7 0 0 516.64 525.60 22.53 o
6 4 7 0 1 8.69 9.48 3.38 <
6 4 7 1 -1 1.66 1.58 2.63 <
6 4 7 1 0 11.91 15.83 4.64 o
6 4 7 1 1 0.39 -2.70 2.62 <
6 4 8 -1 -1 0.12 -3.04 3.01 <
6 4 8 -1 0 0.65 -0.92 3.18 <
6 4 8 -1 1 0.19 -2.14 3.28 <
6 4 8 0 -1 4.40 3.69 4.42 <
6 4 8 0 0 545.62 548.34 37.46 o
6 4 8 0 1 43.55 45.97 9.63 o
6 4 8 1 -1 4.86 -4.57 5.95 <
6 4 8 1 0 2.04 -7.09 5.77 <
6 4 8 1 1 1.75 4.80 3.15 <
6 4 9 -1 -1 0.10 -9.05 9.14 <
6 4 9 -1 0 0.17 -12.58 10.96 <
6 4 9 -1 1 1.61 -13.00 11.30 <
6 4 9 0 -1 0.00 -5.11 6.89 <
6 4 9 0 0 408.31 406.23 62.49 o
6 4 9 0 1 8.31 16.96 10.80 <
6 5 0 -1 -1 0.03 1.52 1.42 <
6 5 0 -1 0 0.09 0.99 0.78 <
6 5 0 -1 1 3.24 2.25 1.06 <
6 5 0 0 -1 10.86 11.97 2.17 o
6 5 0 0 0 270.89 302.86 11.06 o
6 5 0 0 1 0.39 -0.52 0.87 <
6 5 0 1 -1 4.27 2.86 1.61 <
6 5 0 1 0 244.53 225.30 11.04 o
6 5 0 1 1 3.56 2.44 0.98 <
6 5 1 -1 -1 1.36 1.36 1.04 <
6 5 1 -1 0 5.94 6.50 1.26 o
6 5 1 -1 1 1.97 1.21 0.77 <
6 5 1 0 -1 27.41 32.77 2.93 o
6 5 1 0 0 0.19 3.66 1.28 <
6 5 1 0 1 32.97 37.94 2.88 o
6 5 1 1 -1 3.21 3.21 1.09 <
6 5 1 1 0 53.72 70.91 4.29 o
6 5 1 1 1 0.03 0.39 0.91 <
6 5 2 -1 -1 9.12 10.57 1.70 o
6 5 2 -1 0 128.48 133.61 6.10 o
6 5 2 -1 1 0.13 0.80 0.87 <
6 5 2 0 -1 2.35 1.10 0.95 <
6 5 2 0 0 599.53 599.38 13.14 o
6 5 2 0 1 3.00 2.12 1.12 <
6 5 2 1 -1 2.92 2.69 1.11 <
6 5 2 1 0 38.26 49.35 4.02 o
6 5 2 1 1 0.24 0.35 1.21 <
6 5 3 -1 -1 0.66 0.56 1.15 <
6 5 3 -1 0 24.60 25.02 2.86 o
6 5 3 -1 1 2.16 2.30 0.95 <
6 5 3 0 -1 47.55 53.44 4.34 o
6 5 3 0 0 0.42 1.23 1.32 <
6 5 3 0 1 1.41 2.37 1.22 <
6 5 3 1 -1 0.13 -2.88 1.69 <
6 5 3 1 0 94.24 109.66 6.30 o
6 5 3 1 1 0.82 1.00 1.29 <
6 5 4 -1 -1 0.39 -1.47 1.41 <
6 5 4 -1 0 1.46 -1.32 1.42 <
6 5 4 -1 1 2.00 0.23 0.94 <
6 5 4 0 -1 0.66 -0.95 1.80 <
6 5 4 0 0 37.34 33.29 3.83 o
6 5 4 0 1 12.70 10.57 2.57 o
6 5 4 1 -1 2.62 1.72 1.69 <
6 5 4 1 0 136.64 115.40 10.58 o
6 5 4 1 1 0.41 -0.01 1.79 <
6 5 5 -1 -1 0.88 1.82 1.73 <
6 5 5 -1 0 0.51 -2.47 1.71 <
6 5 5 -1 1 0.71 0.92 1.72 <
6 5 5 0 -1 7.45 9.62 2.74 o
6 5 5 0 0 1.47 -1.83 2.20 <
6 5 5 0 1 53.22 62.03 7.77 o
6 5 5 1 -1 6.06 0.96 2.11 <
6 5 5 1 0 25.21 29.58 5.21 o
6 5 5 1 1 0.14 1.14 2.16 <
6 5 6 -1 -1 9.27 9.55 2.69 o
6 5 6 -1 0 125.54 131.76 10.67 o
6 5 6 -1 1 0.32 1.06 2.58 <
6 5 6 0 -1 40.20 42.48 6.33 o
6 5 6 0 0 79.80 96.26 10.29 o
6 5 6 0 1 31.40 34.17 6.13 o
6 5 6 1 -1 2.79 1.97 2.06 <
6 5 6 1 0 5.26 4.43 1.75 <
6 5 6 1 1 0.89 -0.41 3.22 <
6 5 7 -1 -1 0.69 -8.42 3.56 <
6 5 7 -1 0 12.61 9.34 2.92 o
6 5 7 -1 1 2.15 2.73 2.66 <
6 5 7 0 -1 35.07 46.28 8.81 o
6 5 7 0 0 3.63 3.65 2.67 <
6 5 7 0 1 0.24 1.00 3.05 <
6 5 7 1 -1 0.25 -0.49 2.56 <
6 5 7 1 0 43.05 59.94 9.14 o
6 5 7 1 1 1.22 -3.28 3.14 <
6 5 8 -1 -1 1.05 -3.91 4.11 <
6 5 8 -1 0 8.84 2.09 3.87 <
6 5 8 -1 1 0.56 10.30 5.51 <
6 5 8 0 -1 23.56 14.27 7.43 <
6 5 8 0 0 703.72 688.58 42.53 o
6 5 8 0 1 37.65 34.27 10.90 o
6 5 8 1 -1 1.10 -6.31 8.11 <
6 5 8 1 0 48.52 25.64 12.95 <
6 5 8 1 1 0.40 -2.38 7.43 <
6 6 0 -1 1 4.40 1.39 1.06 <
6 6 0 0 0 3908.23 3660.63 52.42 o
6 6 0 0 1 3.98 5.87 1.53 o
6 6 0 1 1 10.68 5.84 2.64 <
6 6 1 -1 1 2.70 2.88 0.99 <
6 6 1 0 0 28.01 45.88 5.13 o
6 6 1 0 1 3.18 2.57 0.82 o
6 6 1 1 1 0.24 0.09 1.60 <
6 6 2 -1 1 0.30 -0.62 1.04 <
6 6 2 0 0 848.82 903.11 23.55 o
6 6 2 0 1 2.42 1.68 1.30 <
6 6 2 1 1 4.06 -0.59 1.29 <
6 6 3 -1 1 7.27 4.80 1.71 <
6 6 3 0 0 3283.84 3452.73 66.90 o
6 6 3 0 1 83.56 86.56 7.87 o
6 6 3 1 1 0.33 0.60 1.84 <
6 6 4 -1 1 4.11 -0.95 1.50 <
6 6 4 0 0 2862.14 2613.17 69.87 o
6 6 4 0 1 0.00 -1.09 2.25 <
6 6 4 1 1 7.96 5.26 2.55 <
6 6 5 -1 1 0.45 -0.32 2.82 <
6 6 5 0 0 522.13 491.16 31.61 o
6 6 5 0 1 3.81 -1.74 2.91 <
6 6 5 1 1 0.44 2.23 2.22 <
6 6 6 -1 1 0.01 2.65 3.38 <
6 6 6 0 0 478.57 531.54 41.10 o
6 6 6 0 1 14.08 14.67 3.99 o
6 6 6 1 1 3.42 -0.33 4.95 <
6 6 7 -1 1 5.00 6.45 3.00 <
6 6 7 0 0 1733.38 1851.90 95.26 o
6 6 7 0 1 27.67 32.52 10.07 o
6 6 7 1 1 0.09 -6.98 4.50 <
6 6 8 -1 1 3.31 -0.97 7.00 <
6 6 8 0 1 2.55 -2.62 5.26 <
7 0 0 0 1 27.27 27.11 2.59 o
7 0 0 1 0 0.13 -1.21 1.35 <
7 0 0 1 1 0.28 0.89 0.78 <
7 0 1 -1 1 6.20 4.98 1.31 o
7 0 1 0 0 780.29 769.14 15.93 o
7 0 1 0 1 5.39 4.65 0.80 o
7 0 1 1 -1 2.20 2.26 1.33 <
7 0 1 1 0 0.07 0.63 0.76 <
7 0 1 1 1 3.77 0.63 0.77 <
7 0 2 0 1 42.16 41.84 3.70 o
7 0 2 1 0 27.63 26.17 2.85 o
7 0 2 1 1 0.63 0.27 1.09 <
7 0 3 -1 1 19.29 12.68 2.95 o
7 0 3 0 0 3520.99 3492.64 47.20 o
7 0 3 0 1 29.86 27.65 2.98 o
7 0 3 1 -1 5.84 2.28 1.48 <
7 0 3 1 0 1.45 0.09 1.27 <
7 0 3 1 1 0.14 -0.19 1.06 <
7 0 4 0 1 2.77 2.58 0.98 <
7 0 4 1 0 0.78 1.87 1.06 <
7 0 4 1 1 0.01 -0.17 1.28 <
7 0 5 -1 1 0.84 -1.39 1.46 <
7 0 5 0 0 38.03 42.47 6.19 o
7 0 5 0 1 32.94 34.73 4.20 o
7 0 5 1 -1 0.06 0.08 2.38 <
7 0 5 1 0 1.55 1.71 1.43 <
7 0 5 1 1 5.30 3.45 1.67 <
7 0 6 0 1 0.54 -1.20 2.44 <
7 0 6 1 0 4.43 4.86 2.52 <
7 0 6 1 1 0.01 -1.72 2.05 <
7 0 7 -1 1 9.55 8.92 4.73 <
7 0 7 0 0 1595.20 1595.85 61.10 o
7 0 7 0 1 14.56 14.43 3.50 o
7 0 7 1 -1 8.53 0.54 3.77 <
7 0 7 1 0 2.21 4.82 2.84 <
7 0 7 1 1 0.03 1.60 2.30 <
7 0 8 0 1 5.39 7.53 3.20 <
7 0 8 1 0 6.03 10.75 4.14 <
7 0 8 1 1 0.16 -0.50 3.14 <
7 0 9 -1 1 2.38 -5.09 5.34 <
7 0 9 0 0 507.88 504.66 72.15 o
7 0 9 0 1 0.45 3.73 4.19 <
7 0 9 1 0 1.03 8.40 9.18 <
7 0 9 1 1 1.30 0.24 6.75 <
7 1 0 -1 -1 0.95 0.61 1.01 <
7 1 0 -1 0 77.77 81.08 4.70 o
7 1 0 -1 1 5.62 75.41 4.79 o
7 1 0 0 -1 7.46 7.30 1.65 o
7 1 0 0 0 70.66 55.37 3.91 o
7 1 0 0 1 2.45 1.12 0.82 <
7 1 0 1 -1 2.66 1.17 1.29 <
7 1 0 1 0 88.36 87.32 5.91 o
7 1 0 1 1 8.80 10.83 2.59 o
7 1 1 -1 -1 7.33 8.15 1.41 o
7 1 1 -1 0 111.13 110.57 4.53 o
7 1 1 -1 1 5.08 6.58 1.29 o
7 1 1 0 -1 4.39 4.86 0.95 o
7 1 1 0 0 177.88 191.39 6.23 o
7 1 1 0 1 16.84 15.17 1.70 o
7 1 1 1 -1 1.08 3.28 1.08 o
7 1 1 1 0 4.07 3.55 0.91 o
7 1 1 1 1 13.48 9.43 1.46 o
7 1 2 -1 -1 19.68 17.60 2.43 o
7 1 2 -1 0 197.18 195.21 7.63 o
7 1 2 -1 1 0.22 0.71 0.63 <
7 1 2 0 -1 79.33 79.83 5.01 o
7 1 2 0 0 199.69 179.05 6.65 o
7 1 2 0 1 298.63 313.23 9.07 o
7 1 2 1 -1 5.38 0.55 1.21 <
7 1 2 1 0 151.73 154.50 8.16 o
7 1 2 1 1 0.63 -0.32 0.93 <
7 1 3 -1 -1 13.87 12.83 1.93 o
7 1 3 -1 0 152.51 150.16 6.68 o
7 1 3 -1 1 3.33 5.06 1.13 o
7 1 3 0 -1 0.00 -1.50 0.96 <
7 1 3 0 0 364.10 352.74 10.38 o
7 1 3 0 1 2.38 1.97 0.98 <
7 1 3 1 -1 1.53 1.34 1.28 <
7 1 3 1 0 50.65 47.32 4.43 o
7 1 3 1 1 15.27 10.10 2.00 o
7 1 4 -1 -1 0.66 -0.53 0.87 <
7 1 4 -1 0 27.94 26.35 2.97 o
7 1 4 -1 1 1.34 -1.70 1.17 <
7 1 4 0 -1 1.14 1.40 0.98 <
7 1 4 0 0 149.81 155.51 7.39 o
7 1 4 0 1 8.18 9.95 1.90 o
7 1 4 1 -1 4.44 4.40 1.61 <
7 1 4 1 0 54.06 56.74 5.34 o
7 1 4 1 1 4.05 3.28 1.32 <
7 1 5 -1 -1 1.58 4.56 2.15 <
7 1 5 -1 0 39.98 42.86 4.61 o
7 1 5 -1 1 3.25 1.82 1.22 <
7 1 5 0 -1 3.80 3.43 1.46 <
7 1 5 0 0 725.41 739.17 20.83 o
7 1 5 0 1 16.44 16.44 2.59 o
7 1 5 1 -1 0.42 2.17 1.81 <
7 1 5 1 0 0.50 -2.39 2.01 <
7 1 5 1 1 6.03 1.67 1.54 <
7 1 6 -1 -1 10.45 11.77 3.25 o
7 1 6 -1 0 189.73 199.50 13.06 o
7 1 6 -1 1 2.15 3.02 2.13 <
7 1 6 0 -1 79.21 81.83 7.92 o
7 1 6 0 0 305.88 312.80 15.59 o
7 1 6 0 1 53.66 60.28 6.69 o
7 1 6 1 -1 0.57 0.52 1.99 <
7 1 6 1 0 110.93 114.33 11.63 o
7 1 6 1 1 0.02 -1.28 2.75 <
7 1 7 -1 -1 10.98 8.63 2.75 o
7 1 7 -1 0 89.28 89.94 10.08 o
7 1 7 -1 1 2.03 2.60 2.11 <
7 1 7 0 -1 4.64 10.87 3.35 o
7 1 7 0 0 146.24 138.99 11.00 o
7 1 7 0 1 8.08 7.04 3.08 <
7 1 7 1 -1 1.22 2.82 2.94 <
7 1 7 1 0 22.41 20.64 5.07 o
7 1 7 1 1 11.44 6.81 2.78 <
7 1 8 -1 -1 0.17 2.73 2.63 <
7 1 8 -1 0 1.27 -1.13 3.22 <
7 1 8 -1 1 0.00 1.44 2.89 <
7 1 8 0 -1 0.23 -6.53 3.91 <
7 1 8 0 0 1016.44 1015.69 36.25 o
7 1 8 0 1 44.73 46.50 7.18 o
7 1 8 1 -1 5.12 5.20 4.47 <
7 1 8 1 0 25.38 27.03 6.13 o
7 1 8 1 1 0.50 1.82 3.13 <
7 1 9 -1 -1 0.28 -8.96 6.63 <
7 1 9 -1 0 20.04 24.53 10.35 <
7 1 9 -1 1 0.85 0.21 6.57 <
7 1 9 0 -1 5.01 -1.00 1.88 <
7 1 9 0 0 21.03 29.34 11.31 <
7 1 9 0 1 0.05 -3.54 5.57 <
7 1 9 1 0 5.81 20.05 9.73 <
7 1 9 1 1 1.57 2.86 3.61 <
7 2 0 -1 -1 4.21 2.10 1.07 <
7 2 0 -1 0 9.91 11.09 2.31 o
7 2 0 -1 1 0.03 11.17 3.86 <
7 2 0 0 -1 63.87 65.07 6.03 o
7 2 0 0 0 4152.78 4058.82 47.13 o
7 2 0 0 1 8.50 8.85 2.14 o
7 2 0 1 -1 0.43 -0.05 2.26 <
7 2 0 1 0 192.25 169.69 9.17 o
7 2 0 1 1 1.66 1.76 1.25 <
7 2 1 -1 -1 0.05 0.10 0.73 <
7 2 1 -1 0 5.18 5.75 1.12 o
7 2 1 -1 1 11.77 11.37 2.16 o
7 2 1 0 -1 0.00 -0.54 0.85 <
7 2 1 0 0 919.57 902.19 14.92 o
7 2 1 0 1 17.35 17.33 1.93 o
7 2 1 1 -1 1.47 1.36 0.88 <
7 2 1 1 0 10.05 12.56 1.72 o
7 2 1 1 1 0.01 0.95 0.93 <
7 2 2 -1 -1 7.48 9.65 1.79 o
7 2 2 -1 0 7.58 8.44 1.50 o
7 2 2 -1 1 0.01 -1.97 1.32 <
7 2 2 0 -1 17.47 15.64 2.33 o
7 2 2 0 0 115.61 111.04 5.95 o
7 2 2 0 1 57.09 59.45 4.00 o
7 2 2 1 -1 0.16 0.11 1.15 <
7 2 2 1 0 107.20 116.82 6.29 o
7 2 2 1 1 2.23 1.69 1.00 <
7 2 3 -1 -1 0.15 -0.26 1.06 <
7 2 3 -1 0 12.54 11.40 1.90 o
7 2 3 -1 1 8.72 7.10 1.64 o
7 2 3 0 -1 22.50 22.40 3.03 o
7 2 3 0 0 1176.82 1183.00 23.37 o
7 2 3 0 1 0.01 -0.66 1.13 <
7 2 3 1 -1 4.82 0.48 1.58 <
7 2 3 1 0 43.11 51.30 4.65 o
7 2 3 1 1 0.11 -0.19 1.57 <
7 2 4 -1 -1 3.71 2.93 1.36 <
7 2 4 -1 0 5.63 4.30 1.54 <
7 2 4 -1 1 0.21 -0.73 1.48 <
7 2 4 0 -1 1.26 1.63 1.42 <
7 2 4 0 0 809.81 782.94 19.06 o
7 2 4 0 1 1.95 2.62 1.55 <
7 2 4 1 -1 0.18 -2.67 1.76 <
7 2 4 1 0 60.18 49.90 4.88 o
7 2 4 1 1 2.24 1.15 1.48 <
7 2 5 -1 -1 0.25 0.75 1.44 <
7 2 5 -1 0 0.40 0.02 1.62 <
7 2 5 -1 1 7.37 5.29 1.54 o
7 2 5 0 -1 6.94 5.44 2.51 <
7 2 5 0 0 389.78 397.57 14.54 o
7 2 5 0 1 29.20 33.34 4.67 o
7 2 5 1 -1 0.01 -2.99 1.94 <
7 2 5 1 0 0.57 1.17 1.79 <
7 2 5 1 1 0.00 -0.43 1.51 <
7 2 6 -1 -1 3.45 4.50 2.19 <
7 2 6 -1 0 3.87 1.51 2.04 <
7 2 6 -1 1 0.09 -1.91 2.08 <
7 2 6 0 -1 22.16 17.96 3.97 o
7 2 6 0 0 831.85 829.32 28.55 o
7 2 6 0 1 0.27 1.57 2.31 <
7 2 6 1 -1 0.25 -2.42 2.54 <
7 2 6 1 0 6.22 9.14 2.54 o
7 2 6 1 1 0.58 3.05 1.93 <
7 2 7 -1 -1 0.21 0.93 2.25 <
7 2 7 -1 0 10.62 9.02 2.57 o
7 2 7 -1 1 5.40 3.61 2.40 <
7 2 7 0 -1 12.20 12.12 4.04 o
7 2 7 0 0 838.60 870.91 29.31 o
7 2 7 0 1 0.01 -8.18 3.26 <
7 2 7 1 -1 5.05 4.80 3.28 <
7 2 7 1 0 19.56 27.05 5.02 o
7 2 7 1 1 0.27 -2.48 2.40 <
7 2 8 -1 -1 2.74 1.64 3.80 <
7 2 8 -1 0 2.92 -2.50 3.30 <
7 2 8 -1 1 0.43 -7.32 3.86 <
7 2 8 0 -1 31.77 30.84 7.35 o
7 2 8 0 0 86.05 87.43 12.05 o
7 2 8 0 1 29.73 37.34 6.53 o
7 2 8 1 -1 0.00 -2.70 3.93 <
7 2 8 1 0 1.48 6.32 4.42 <
7 2 8 1 1 1.93 3.92 3.48 <
7 2 9 -1 -1 0.10 2.52 4.00 <
7 2 9 -1 0 0.03 3.78 5.78 <
7 2 9 -1 1 2.39 14.73 7.64 <
7 2 9 0 -1 0.12 5.29 7.75 <
7 2 9 0 0 134.99 158.89 38.58 o
7 2 9 0 1 6.25 -0.26 9.95 <
7 3 0 -1 -1 0.05 0.24 1.54 <
7 3 0 -1 0 107.20 100.21 6.81 o
7 3 0 -1 1 16.54 11.68 2.41 o
7 3 0 0 -1 0.80 -0.49 1.51 <
7 3 0 0 0 3962.58 3838.52 47.49 o
7 3 0 0 1 96.61 99.31 7.40 o
7 3 0 1 -1 0.04 -1.99 1.85 <
7 3 0 1 0 28.73 32.01 5.07 o
7 3 0 1 1 8.10 11.83 2.82 o
7 3 1 -1 -1 0.07 0.22 0.73 <
7 3 1 -1 0 0.48 -0.10 0.85 <
7 3 1 -1 1 2.76 1.49 0.70 <
7 3 1 0 -1 51.94 58.45 4.26 o
7 3 1 0 0 0.87 4.63 1.10 o
7 3 1 0 1 0.21 -0.67 1.01 <
7 3 1 1 -1 0.24 -0.59 0.97 <
7 3 1 1 0 136.88 141.73 5.81 o
7 3 1 1 1 0.58 -0.53 0.72 <
7 3 2 -1 -1 18.60 19.66 2.46 o
7 3 2 -1 0 19.81 19.37 2.08 o
7 3 2 -1 1 6.23 3.39 1.25 <
7 3 2 0 -1 0.01 -0.69 1.03 <
7 3 2 0 0 1516.80 1558.11 21.36 o
7 3 2 0 1 63.31 62.20 4.01 o
7 3 2 1 -1 2.10 0.80 1.06 <
7 3 2 1 0 171.24 149.66 6.93 o
7 3 2 1 1 3.48 1.57 1.04 <
7 3 3 -1 -1 0.65 0.08 1.17 <
7 3 3 -1 0 8.85 9.42 1.81 o
7 3 3 -1 1 0.53 -2.15 1.26 <
7 3 3 0 -1 105.36 119.65 6.64 o
7 3 3 0 0 871.72 902.18 18.95 o
7 3 3 0 1 2.83 0.91 1.30 <
7 3 3 1 -1 4.59 -0.48 1.41 <
7 3 3 1 0 58.14 63.34 4.80 o
7 3 3 1 1 1.19 1.06 1.39 <
7 3 4 -1 -1 0.02 0.18 1.55 <
7 3 4 -1 0 50.14 46.76 4.24 o
7 3 4 -1 1 7.62 4.34 1.41 o
7 3 4 0 -1 1.92 1.31 1.33 <
7 3 4 0 0 1659.81 1612.11 25.93 o
7 3 4 0 1 36.88 35.18 3.99 o
7 3 4 1 -1 0.40 0.95 1.95 <
7 3 4 1 0 7.34 4.69 2.34 <
7 3 4 1 1 1.79 2.34 1.46 <
7 3 5 -1 -1 0.03 -0.25 1.70 <
7 3 5 -1 0 6.39 3.98 1.83 <
7 3 5 -1 1 2.75 1.56 1.27 <
7 3 5 0 -1 20.53 22.54 3.94 o
7 3 5 0 0 172.55 147.21 10.14 o
7 3 5 0 1 0.00 -0.36 1.60 <
7 3 5 1 -1 0.48 2.49 1.67 <
7 3 5 1 0 132.85 138.39 10.51 o
7 3 5 1 1 0.25 0.15 1.94 <
7 3 6 -1 -1 8.95 14.19 3.86 o
7 3 6 -1 0 34.44 36.79 6.91 o
7 3 6 -1 1 0.88 -0.36 2.07 <
7 3 6 0 -1 0.93 -0.33 2.40 <
7 3 6 0 0 165.91 167.40 12.03 o
7 3 6 0 1 9.24 13.60 3.53 o
7 3 6 1 -1 0.41 -0.05 2.35 <
7 3 6 1 0 59.07 49.02 6.42 o
7 3 6 1 1 0.03 -2.16 2.08 <
7 3 7 -1 -1 0.81 0.75 2.32 <
7 3 7 -1 0 6.80 7.66 2.78 <
7 3 7 -1 1 0.54 -2.26 2.39 <
7 3 7 0 -1 37.77 42.43 6.97 o
7 3 7 0 0 344.99 368.07 20.13 o
7 3 7 0 1 0.04 -4.15 2.66 <
7 3 7 1 -1 4.08 -0.35 2.74 <
7 3 7 1 0 32.02 40.52 6.78 o
7 3 7 1 1 0.49 4.39 3.71 <
7 3 8 -1 -1 0.27 0.75 3.02 <
7 3 8 -1 0 10.34 9.90 3.69 <
7 3 8 -1 1 1.50 -3.89 3.77 <
7 3 8 0 -1 2.74 -5.24 8.59 <
7 3 8 0 0 243.40 216.58 25.11 o
7 3 8 0 1 1.97 -7.61 5.28 <
7 3 8 1 -1 0.66 -20.68 14.87 <
7 3 8 1 0 0.28 10.06 10.29 <
7 3 8 1 1 0.19 6.23 6.60 <
7 3 9 -1 1 0.31 9.42 9.33 <
7 4 0 -1 -1 0.21 2.66 1.60 <
7 4 0 -1 0 33.53 30.65 4.23 o
7 4 0 -1 1 1.91 -0.07 1.24 <
7 4 0 0 -1 1.12 0.80 1.36 <
7 4 0 0 0 3.90 9.99 2.39 o
7 4 0 0 1 35.53 39.38 4.59 o
7 4 0 1 -1 8.20 3.50 1.99 <
7 4 0 1 0 79.79 88.56 9.90 o
7 4 0 1 1 16.46 12.61 3.28 o
7 4 1 -1 -1 5.96 4.58 1.08 o
7 4 1 -1 0 26.00 27.16 2.33 o
7 4 1 -1 1 1.55 -0.79 0.87 <
7 4 1 0 -1 7.48 8.44 1.47 o
7 4 1 0 0 151.53 169.99 7.42 o
7 4 1 0 1 4.43 6.40 1.37 o
7 4 1 1 -1 6.95 6.27 1.67 o
7 4 1 1 0 0.69 0.75 0.94 <
7 4 1 1 1 0.00 0.29 0.88 <
7 4 2 -1 -1 8.18 6.68 1.45 o
7 4 2 -1 0 13.39 14.29 2.01 o
7 4 2 -1 1 0.02 -2.32 1.13 <
7 4 2 0 -1 13.48 13.78 2.05 o
7 4 2 0 0 247.87 214.20 7.95 o
7 4 2 0 1 0.02 -2.94 1.13 <
7 4 2 1 -1 0.30 1.21 1.43 <
7 4 2 1 0 19.99 15.80 2.30 o
7 4 2 1 1 3.82 2.35 1.16 <
7 4 3 -1 -1 10.03 10.03 2.01 o
7 4 3 -1 0 2.29 1.30 1.23 <
7 4 3 -1 1 0.37 -1.42 1.37 <
7 4 3 0 -1 4.90 6.25 1.84 o
7 4 3 0 0 407.34 393.21 13.79 o
7 4 3 0 1 8.80 7.18 1.59 o
7 4 3 1 -1 2.17 0.45 2.00 <
7 4 3 1 0 1.02 0.95 1.41 <
7 4 3 1 1 1.96 1.55 1.60 <
7 4 4 -1 -1 0.23 -0.02 1.42 <
7 4 4 -1 0 8.87 7.57 1.94 o
7 4 4 -1 1 0.98 0.99 1.33 <
7 4 4 0 -1 1.72 -1.38 1.77 <
7 4 4 0 0 1.03 0.35 1.78 <
7 4 4 0 1 30.29 32.42 4.49 o
7 4 4 1 -1 5.06 4.03 1.84 <
7 4 4 1 0 82.86 89.15 7.67 o
7 4 4 1 1 11.78 7.63 2.26 o
7 4 5 -1 -1 1.93 1.93 2.04 <
7 4 5 -1 0 61.04 61.48 7.24 o
7 4 5 -1 1 4.10 4.40 2.39 <
7 4 5 0 -1 3.11 1.24 2.05 <
7 4 5 0 0 702.11 741.78 26.08 o
7 4 5 0 1 14.56 15.34 3.28 o
7 4 5 1 -1 6.18 0.21 2.28 <
7 4 5 1 0 0.00 0.26 2.06 <
7 4 5 1 1 0.77 -1.21 1.79 <
7 4 6 -1 -1 4.44 5.10 2.40 <
7 4 6 -1 0 0.09 -0.30 1.88 <
7 4 6 -1 1 0.12 -4.03 2.33 <
7 4 6 0 -1 6.40 5.70 2.69 <
7 4 6 0 0 75.63 66.45 7.86 o
7 4 6 0 1 0.34 -0.35 2.63 <
7 4 6 1 -1 0.77 -4.86 3.09 <
7 4 6 1 0 28.88 17.06 4.14 o
7 4 6 1 1 3.08 1.80 2.13 <
7 4 7 -1 -1 6.62 6.10 3.31 <
7 4 7 -1 0 1.85 3.31 3.93 <
7 4 7 -1 1 0.23 0.13 3.06 <
7 4 7 0 -1 13.21 11.50 4.12 <
7 4 7 0 0 154.95 144.71 13.32 o
7 4 7 0 1 0.53 0.87 2.28 <
7 4 7 1 -1 2.23 -3.46 4.89 <
7 4 7 1 0 4.74 5.54 4.08 <
7 4 7 1 1 1.94 -6.87 4.33 <
7 4 8 -1 -1 0.31 2.37 7.26 <
7 4 8 -1 0 0.04 -5.63 5.52 <
7 4 8 -1 1 0.26 -13.01 6.62 <
7 4 8 0 -1 1.41 14.85 10.27 <
7 4 8 0 0 16.09 10.30 6.63 <
7 4 8 0 1 17.52 17.59 9.69 <
7 4 8 1 -1 1.81 12.49 11.35 <
7 4 8 1 0 64.59 92.39 31.09 <
7 4 8 1 1 4.85 -6.92 7.34 <
7 5 0 -1 -1 0.70 0.07 2.18 <
7 5 0 -1 0 21.76 21.35 3.84 o
7 5 0 -1 1 7.00 3.11 1.77 <
7 5 0 0 -1 226.46 238.30 13.37 o
7 5 0 0 0 4595.79 4583.82 58.62 o
7 5 0 0 1 63.71 59.07 5.98 o
7 5 0 1 -1 16.98 15.70 3.99 o
7 5 0 1 0 69.96 158.89 13.14 o
7 5 0 1 1 2.21 0.53 2.20 <
7 5 1 -1 -1 0.51 1.17 1.04 <
7 5 1 -1 0 0.13 0.47 0.95 <
7 5 1 -1 1 5.24 4.40 1.31 o
7 5 1 0 -1 0.03 0.81 1.40 <
7 5 1 0 0 68.37 64.54 4.76 o
7 5 1 0 1 42.36 44.85 3.59 o
7 5 1 1 -1 0.38 -1.84 1.95 <
7 5 1 1 0 49.46 60.38 5.31 o
7 5 1 1 1 0.88 -0.09 1.63 <
7 5 2 -1 -1 11.00 6.04 1.43 o
7 5 2 -1 0 47.97 54.75 4.23 o
7 5 2 -1 1 1.02 0.30 0.90 <
7 5 2 0 -1 7.64 8.06 1.96 o
7 5 2 0 0 433.54 482.30 13.79 o
7 5 2 0 1 12.34 14.35 2.16 o
7 5 2 1 -1 12.06 4.55 1.70 <
7 5 2 1 0 42.54 30.77 4.65 o
7 5 2 1 1 1.12 2.20 1.55 <
7 5 3 -1 -1 0.02 -1.70 1.31 <
7 5 3 -1 0 9.58 6.22 1.83 o
7 5 3 -1 1 1.54 0.43 1.41 <
7 5 3 0 -1 74.71 79.24 7.52 o
7 5 3 0 0 1100.86 1103.63 25.46 o
7 5 3 0 1 15.04 10.15 2.59 o
7 5 3 1 -1 0.76 1.89 2.20 <
7 5 3 1 0 4.01 1.49 3.10 <
7 5 3 1 1 0.02 -1.94 2.70 <
7 5 4 -1 -1 1.77 0.50 1.56 <
7 5 4 -1 0 2.35 1.57 2.02 <
7 5 4 -1 1 1.66 0.61 1.74 <
7 5 4 0 -1 89.25 93.14 9.32 o
7 5 4 0 0 2196.48 2160.99 40.74 o
7 5 4 0 1 5.20 -1.50 2.27 <
7 5 4 1 -1 7.08 4.73 2.16 <
7 5 4 1 0 15.80 16.24 4.07 o
7 5 4 1 1 1.79 0.83 3.00 <
7 5 5 -1 -1 1.43 1.16 1.98 <
7 5 5 -1 0 4.36 4.05 1.94 <
7 5 5 -1 1 6.87 2.85 2.12 <
7 5 5 0 -1 18.93 16.21 4.57 o
7 5 5 0 0 39.17 42.73 7.00 o
7 5 5 0 1 130.97 139.79 11.97 o
7 5 5 1 -1 0.09 -3.03 2.63 <
7 5 5 1 0 125.17 156.40 14.85 o
7 5 5 1 1 1.21 -3.86 3.53 <
7 5 6 -1 -1 3.04 -0.73 2.40 <
7 5 6 -1 0 3.98 5.77 2.85 <
7 5 6 -1 1 0.40 -4.86 3.79 <
7 5 6 0 -1 10.20 8.15 3.34 <
7 5 6 0 0 1.33 6.24 3.15 <
7 5 6 0 1 13.76 12.29 4.12 <
7 5 6 1 -1 2.09 -3.70 2.99 <
7 5 6 1 0 0.23 0.62 2.24 <
7 5 6 1 1 0.74 -4.31 2.95 <
7 5 7 -1 -1 0.43 1.13 2.86 <
7 5 7 -1 0 4.35 4.91 3.47 <
7 5 7 -1 1 0.18 -3.58 3.86 <
7 5 7 0 -1 43.44 49.22 12.14 o
7 5 7 0 0 572.61 576.36 37.01 o
7 5 7 0 1 22.24 18.31 6.49 <
7 5 7 1 -1 0.68 2.99 6.10 <
7 5 7 1 0 6.60 6.24 5.50 <
7 5 7 1 1 0.07 -2.26 5.16 <
7 5 8 -1 -1 3.21 -5.71 9.54 <
7 5 8 -1 0 2.63 -9.18 9.78 <
7 5 8 -1 1 0.05 3.08 4.34 <
7 5 8 0 -1 6.25 22.48 16.46 <
7 5 8 0 0 497.05 474.49 48.99 o
7 5 8 0 1 11.07 1.84 3.09 <
7 6 0 -1 -1 20.59 18.45 4.28 o
7 6 0 -1 0 361.31 406.81 21.37 o
7 6 0 -1 1 0.94 1.51 2.38 <
7 6 0 0 -1 127.92 134.36 12.77 o
7 6 0 0 0 1416.17 1511.93 42.91 o
7 6 0 0 1 7.66 9.09 5.08 <
7 6 0 1 -1 24.99 23.47 6.47 o
7 6 0 1 0 97.95 164.59 17.91 o
7 6 0 1 1 0.37 0.39 3.30 <
7 6 1 -1 -1 1.33 1.26 1.10 <
7 6 1 -1 0 6.93 7.78 1.71 o
7 6 1 -1 1 0.21 -0.73 1.23 <
7 6 1 0 -1 8.02 8.52 2.52 o
7 6 1 0 0 385.25 371.41 15.15 o
7 6 1 0 1 58.54 61.61 6.24 o
7 6 1 1 -1 0.02 1.45 2.17 <
7 6 1 1 0 27.48 46.78 6.17 o
7 6 1 1 1 1.90 3.83 2.42 <
7 6 2 -1 -1 5.78 5.61 2.09 <
7 6 2 -1 0 7.40 7.16 1.93 o
7 6 2 -1 1 0.77 -0.86 1.82 <
7 6 2 0 -1 2.19 1.86 1.86 <
7 6 2 0 0 168.57 148.52 9.91 o
7 6 2 0 1 2.38 -0.41 1.86 <
7 6 2 1 -1 0.19 0.46 2.06 <
7 6 2 1 0 100.06 97.37 8.97 o
7 6 2 1 1 0.70 -1.79 1.86 <
7 6 3 -1 -1 0.50 -0.20 1.93 <
7 6 3 -1 0 35.90 34.44 5.47 o
7 6 3 -1 1 0.90 -2.57 2.19 <
7 6 3 0 -1 48.21 57.77 7.20 o
7 6 3 0 0 242.90 234.78 14.45 o
7 6 3 0 1 3.73 1.36 2.37 <
7 6 3 1 -1 1.79 1.45 2.61 <
7 6 3 1 0 86.29 109.05 10.80 o
7 6 3 1 1 1.50 -0.31 2.18 <
7 6 4 -1 -1 9.32 7.31 2.96 <
7 6 4 -1 0 239.09 241.63 16.44 o
7 6 4 -1 1 1.02 1.00 2.54 <
7 6 4 0 -1 17.22 16.75 4.10 o
7 6 4 0 0 140.26 156.24 12.15 o
7 6 4 0 1 3.14 3.61 2.64 <
7 6 4 1 -1 14.53 9.18 3.44 <
7 6 4 1 0 114.86 131.54 12.52 o
7 6 4 1 1 0.14 2.21 2.31 <
7 6 5 -1 -1 1.40 3.78 2.45 <
7 6 5 -1 0 0.03 -6.10 2.93 <
7 6 5 -1 1 0.01 1.95 2.66 <
7 6 5 0 -1 0.01 -0.86 2.81 <
7 6 5 0 0 345.22 338.25 19.08 o
7 6 5 0 1 86.16 87.38 10.58 o
7 6 5 1 -1 0.73 7.02 3.11 <
7 6 5 1 0 4.70 6.83 3.31 <
7 6 5 1 1 0.87 0.77 2.06 <
7 6 6 -1 -1 0.34 0.23 2.38 <
7 6 6 -1 0 0.11 -1.36 3.38 <
7 6 6 -1 1 0.24 0.64 2.68 <
7 6 6 0 -1 49.41 46.19 8.61 o
7 6 6 0 0 379.92 406.67 30.65 o
7 6 6 0 1 22.00 23.66 6.60 o
7 6 6 1 -1 1.88 -6.30 6.12 <
7 6 6 1 0 117.92 115.16 15.67 o
7 6 6 1 1 0.38 -7.42 4.82 <
7 6 7 -1 -1 0.37 2.24 4.14 <
7 6 7 -1 0 24.34 21.32 6.22 o
7 6 7 -1 1 0.44 -3.86 4.86 <
7 6 7 0 -1 29.81 25.69 9.38 <
7 6 7 0 0 135.18 121.27 19.32 o
7 6 7 0 1 3.31 3.49 4.31 <
7 6 7 1 -1 3.00 5.51 7.91 <
7 6 7 1 0 52.92 59.52 23.79 <
7 6 7 1 1 2.21 -16.39 12.16 <
7 7 0 -1 1 10.99 12.51 4.85 <
7 7 0 0 0 86.14 109.12 20.68 o
7 7 0 0 1 11.62 14.54 5.63 <
7 7 0 1 1 0.36 3.51 3.55 <
7 7 1 -1 1 0.89 1.28 2.14 <
7 7 1 0 0 178.01 146.36 16.70 o
7 7 1 0 1 67.12 61.67 8.20 o
7 7 1 1 1 0.49 3.11 2.51 <
7 7 2 -1 1 12.26 7.65 2.28 o
7 7 2 0 0 1865.07 1639.64 57.71 o
7 7 2 0 1 49.71 47.16 6.91 o
7 7 2 1 1 16.15 9.97 3.50 <
7 7 3 -1 1 4.25 4.26 1.92 <
7 7 3 0 0 202.39 245.07 32.85 o
7 7 3 0 1 7.47 8.00 3.59 <
7 7 3 1 1 3.44 4.08 3.43 <
7 7 4 -1 1 8.21 2.36 3.03 <
7 7 4 0 0 321.06 381.80 28.23 o
7 7 4 0 1 12.13 10.33 4.42 <
7 7 4 1 1 1.55 2.63 3.17 <
7 7 5 -1 1 0.00 -0.01 2.29 <
7 7 5 0 0 656.99 603.66 54.13 o
7 7 5 0 1 95.39 87.52 12.77 o
7 7 5 1 1 0.04 -0.79 4.24 <
7 7 6 -1 1 7.54 5.19 4.33 <
7 7 6 0 0 2423.10 2257.29 101.14 o
7 7 6 0 1 42.12 28.73 9.48 o
7 7 7 -1 1 3.68 21.89 14.04 <
8 0 0 -1 1 1.66 0.86 1.62 <
8 0 0 0 0 6407.62 6143.19 81.34 o
8 0 0 0 1 94.98 97.16 6.32 o
8 0 0 1 -1 48.19 103.90 9.24 o
8 0 0 1 0 53.33 53.18 4.87 o
8 0 0 1 1 10.25 13.82 2.61 o
8 0 1 0 1 36.95 30.57 2.53 o
8 0 1 1 0 29.24 34.61 3.17 o
8 0 1 1 1 0.08 0.79 0.87 <
8 0 2 -1 1 19.30 21.81 3.42 o
8 0 2 0 0 4569.25 4515.25 55.64 o
8 0 2 0 1 5.61 4.43 1.16 o
8 0 2 1 -1 21.35 16.38 4.65 o
8 0 2 1 0 0.00 -1.65 1.33 <
8 0 2 1 1 2.66 4.94 1.59 o
8 0 3 0 1 0.23 -1.69 1.45 <
8 0 3 1 0 2.10 2.83 1.56 <
8 0 3 1 1 1.45 1.30 1.06 <
8 0 4 -1 1 0.00 -0.15 1.84 <
8 0 4 0 0 1520.45 1514.76 42.72 o
8 0 4 0 1 15.03 13.12 2.42 o
8 0 4 1 -1 26.67 13.50 4.07 o
8 0 4 1 0 5.72 5.91 2.29 <
8 0 4 1 1 4.10 5.98 2.46 <
8 0 5 0 1 62.46 55.99 6.50 o
8 0 5 1 0 41.88 51.38 7.14 o
8 0 5 1 1 1.84 -1.98 2.59 <
8 0 6 -1 1 23.77 24.13 8.23 <
8 0 6 0 0 146.55 169.26 19.00 o
8 0 6 0 1 63.53 60.90 8.07 o
8 0 6 1 -1 5.97 3.48 3.85 <
8 0 6 1 0 30.75 32.11 6.11 o
8 0 6 1 1 6.03 5.91 3.16 <
8 0 7 0 1 0.01 -0.66 2.54 <
8 0 7 1 0 0.44 0.71 3.17 <
8 0 7 1 1 2.76 3.51 2.18 <
8 0 8 -1 1 1.34 -3.51 5.32 <
8 0 8 0 0 13.24 4.56 5.04 <
8 0 8 0 1 5.16 0.65 3.50 <
8 0 8 1 0 7.66 -4.61 3.92 <
8 0 8 1 1 0.25 1.80 4.25 <
8 1 0 -1 -1 0.03 -0.02 1.27 <
8 1 0 -1 0 206.18 210.60 10.19 o
8 1 0 -1 1 1.09 0.59 1.17 <
8 1 0 0 -1 29.58 24.47 3.56 o
8 1 0 0 0 1.05 3.30 1.18 <
8 1 0 0 1 149.35 143.59 8.96 o
8 1 0 1 -1 4.73 2.74 1.53 <
8 1 0 1 0 10.01 5.63 2.05 <
8 1 0 1 1 0.01 -1.34 1.83 <
8 1 1 -1 -1 2.85 2.49 1.05 <
8 1 1 -1 0 0.24 0.50 1.02 <
8 1 1 -1 1 1.03 3.69 1.12 o
8 1 1 0 -1 83.06 84.20 4.59 o
8 1 1 0 0 168.66 171.26 6.50 o
8 1 1 0 1 0.06 -0.72 0.90 <
8 1 1 1 -1 9.19 9.86 1.80 o
8 1 1 1 0 19.02 19.09 2.40 o
8 1 1 1 1 1.00 1.53 0.82 <
8 1 2 -1 -1 11.13 9.95 1.78 o
8 1 2 -1 0 40.91 37.42 3.55 o
8 1 2 -1 1 9.68 8.99 1.84 o
8 1 2 0 -1 279.91 279.02 10.17 o
8 1 2 0 0 5.77 10.06 2.00 o
8 1 2 0 1 34.23 33.88 3.79 o
8 1 2 1 -1 0.76 2.22 1.26 <
8 1 2 1 0 43.69 44.03 4.16 o
8 1 2 1 1 0.13 0.66 1.02 <
8 1 3 -1 -1 4.39 2.94 1.44 <
8 1 3 -1 0 44.34 46.77 3.83 o
8 1 3 -1 1 5.28 3.25 1.30 <
8 1 3 0 -1 0.05 -0.91 1.42 <
8 1 3 0 0 454.17 444.96 14.33 o
8 1 3 0 1 15.11 16.81 2.68 o
8 1 3 1 -1 1.67 1.81 1.75 <
8 1 3 1 0 1.79 1.48 1.28 <
8 1 3 1 1 1.75 2.80 1.27 <
8 1 4 -1 -1 0.01 -3.06 1.67 <
8 1 4 -1 0 108.72 111.23 8.72 o
8 1 4 -1 1 0.86 -0.17 1.42 <
8 1 4 0 -1 1.84 1.56 2.30 <
8 1 4 0 0 2.65 3.47 1.96 <
8 1 4 0 1 93.15 91.24 7.38 o
8 1 4 1 -1 2.85 2.88 1.85 <
8 1 4 1 0 20.88 15.47 3.19 o
8 1 4 1 1 0.13 -1.82 1.77 <
8 1 5 -1 -1 1.33 2.67 2.58 <
8 1 5 -1 0 8.62 6.07 2.78 <
8 1 5 -1 1 0.04 -1.49 2.06 <
8 1 5 0 -1 150.68 147.27 12.77 o
8 1 5 0 0 726.58 725.96 24.95 o
8 1 5 0 1 1.66 -0.58 1.80 <
8 1 5 1 -1 11.43 7.85 3.08 <
8 1 5 1 0 36.57 38.02 5.75 o
8 1 5 1 1 0.32 1.60 1.92 <
8 1 6 -1 -1 6.36 9.24 3.33 <
8 1 6 -1 0 4.90 1.63 3.30 <
8 1 6 -1 1 5.98 5.33 2.15 <
8 1 6 0 -1 79.43 83.86 9.01 o
8 1 6 0 0 1.32 4.44 2.21 <
8 1 6 0 1 10.49 7.88 2.85 <
8 1 6 1 -1 0.91 -5.96 2.90 <
8 1 6 1 0 62.12 61.62 8.22 o
8 1 6 1 1 0.41 -2.63 3.01 <
8 1 7 -1 -1 1.85 0.37 2.59 <
8 1 7 -1 0 22.45 22.53 5.00 o
8 1 7 -1 1 2.12 2.94 1.72 <
8 1 7 0 -1 0.04 6.56 3.77 <
8 1 7 0 0 126.02 120.50 12.10 o
8 1 7 0 1 3.10 -2.57 3.45 <
8 1 7 1 -1 0.79 2.61 3.95 <
8 1 7 1 0 0.71 -0.45 2.52 <
8 1 7 1 1 1.04 1.46 2.89 <
8 1 8 -1 -1 0.00 4.33 4.85 <
8 1 8 -1 0 32.87 31.38 7.39 o
8 1 8 -1 1 0.40 -2.06 4.22 <
8 1 8 0 -1 5.60 7.80 5.84 <
8 1 8 0 0 15.67 19.68 6.78 <
8 1 8 0 1 37.27 43.98 10.61 o
8 1 8 1 -1 1.31 5.74 7.15 <
8 1 8 1 0 31.76 24.75 8.47 <
8 1 8 1 1 0.42 2.01 4.20 <
8 1 9 -1 1 0.96 30.22 17.09 <
8 2 0 -1 -1 6.55 8.41 2.33 o
8 2 0 -1 0 146.90 151.11 10.66 o
8 2 0 -1 1 0.23 21.24 5.04 o
8 2 0 0 -1 34.98 29.62 5.17 o
8 2 0 0 0 4528.52 4120.78 54.57 o
8 2 0 0 1 0.61 3.63 2.89 <
8 2 0 1 -1 0.61 0.09 2.50 <
8 2 0 1 0 0.13 -4.63 2.55 <
8 2 0 1 1 17.57 15.47 3.22 o
8 2 1 -1 -1 0.84 -0.05 1.04 <
8 2 1 -1 0 13.04 14.19 1.97 o
8 2 1 -1 1 0.67 -0.10 1.08 <
8 2 1 0 -1 24.08 24.29 2.67 o
8 2 1 0 0 448.80 410.54 11.30 o
8 2 1 0 1 1.26 -0.95 1.10 <
8 2 1 1 -1 0.64 -2.48 1.16 <
8 2 1 1 0 0.26 -1.34 1.15 <
8 2 1 1 1 4.86 5.87 1.91 o
8 2 2 -1 -1 0.00 -0.51 0.92 <
8 2 2 -1 0 6.48 5.09 1.22 o
8 2 2 -1 1 3.08 4.46 1.32 o
8 2 2 0 -1 3.71 1.98 1.20 <
8 2 2 0 0 1018.05 990.13 19.68 o
8 2 2 0 1 0.01 -2.15 1.28 <
8 2 2 1 -1 0.07 -1.68 1.76 <
8 2 2 1 0 7.28 6.27 1.67 o
8 2 2 1 1 0.99 -0.10 1.21 <
8 2 3 -1 -1 4.52 2.13 0.97 <
8 2 3 -1 0 45.05 43.32 4.16 o
8 2 3 -1 1 0.02 -4.38 1.70 <
8 2 3 0 -1 1.70 -0.35 1.52 <
8 2 3 0 0 823.05 786.30 19.71 o
8 2 3 0 1 0.02 -0.06 1.32 <
8 2 3 1 -1 0.73 -1.50 1.55 <
8 2 3 1 0 23.86 21.16 3.42 o
8 2 3 1 1 1.99 2.53 1.30 <
8 2 4 -1 -1 6.13 5.26 1.67 o
8 2 4 -1 0 68.44 68.77 6.71 o
8 2 4 -1 1 0.35 -2.98 1.74 <
8 2 4 0 -1 12.95 10.77 3.05 o
8 2 4 0 0 3239.40 3117.98 49.42 o
8 2 4 0 1 0.34 0.61 1.70 <
8 2 4 1 -1 0.09 -0.64 2.04 <
8 2 4 1 0 3.98 -4.00 2.40 <
8 2 4 1 1 10.74 6.45 2.40 <
8 2 5 -1 -1 0.00 1.31 2.53 <
8 2 5 -1 0 2.04 3.35 2.25 <
8 2 5 -1 1 0.98 0.06 2.18 <
8 2 5 0 -1 51.73 50.36 7.06 o
8 2 5 0 0 158.64 142.73 11.53 o
8 2 5 0 1 2.76 2.26 1.85 <
8 2 5 1 -1 0.65 -5.82 2.53 <
8 2 5 1 0 2.21 2.55 1.86 <
8 2 5 1 1 5.21 3.44 2.50 <
8 2 6 -1 -1 0.16 -1.07 2.57 <
8 2 6 -1 0 1.68 -3.26 2.12 <
8 2 6 -1 1 1.28 2.12 2.43 <
8 2 6 0 -1 0.40 -2.18 2.87 <
8 2 6 0 0 527.83 522.99 23.83 o
8 2 6 0 1 0.01 -2.18 2.19 <
8 2 6 1 -1 0.88 -2.95 2.63 <
8 2 6 1 0 20.54 17.89 4.31 o
8 2 6 1 1 0.09 3.45 2.69 <
8 2 7 -1 -1 3.33 -1.19 2.13 <
8 2 7 -1 0 23.49 26.22 5.49 o
8 2 7 -1 1 0.05 -5.39 3.25 <
8 2 7 0 -1 1.02 0.45 3.73 <
8 2 7 0 0 515.71 481.41 26.16 o
8 2 7 0 1 0.17 -0.46 2.69 <
8 2 7 1 -1 0.06 3.03 4.51 <
8 2 7 1 0 7.64 4.61 3.83 <
8 2 7 1 1 0.78 -0.55 3.64 <
8 2 8 -1 -1 4.20 8.97 4.48 <
8 2 8 -1 0 9.94 0.31 3.78 <
8 2 8 -1 1 0.36 -4.51 4.54 <
8 2 8 0 -1 1.02 -6.34 11.12 <
8 2 8 0 0 1623.12 1460.95 85.78 o
8 2 8 0 1 0.25 -14.00 7.85 <
8 2 8 1 0 8.22 10.32 2.70 o
8 2 8 1 1 4.01 -13.37 12.00 <
8 3 0 -1 -1 2.97 4.02 2.15 <
8 3 0 -1 0 103.35 101.35 8.44 o
8 3 0 -1 1 6.95 6.61 3.09 <
8 3 0 0 -1 197.97 217.19 15.30 o
8 3 0 0 0 6.15 4.98 1.94 <
8 3 0 0 1 18.74 34.84 4.75 o
8 3 0 1 -1 4.13 -3.75 2.96 <
8 3 0 1 0 152.72 183.12 13.02 o
8 3 0 1 1 0.34 2.16 2.25 <
8 3 1 -1 -1 0.37 0.27 0.98 <
8 3 1 -1 0 14.76 15.48 2.21 o
8 3 1 -1 1 3.01 3.78 1.02 o
8 3 1 0 -1 67.01 68.32 5.18 o
8 3 1 0 0 58.84 51.98 4.08 o
8 3 1 0 1 1.54 -0.21 1.20 <
8 3 1 1 -1 2.83 2.60 1.54 <
8 3 1 1 0 0.51 -2.00 1.55 <
8 3 1 1 1 0.48 2.96 1.21 <
8 3 2 -1 -1 0.63 -0.64 1.31 <
8 3 2 -1 0 181.24 174.66 7.50 o
8 3 2 -1 1 22.37 9.33 1.57 o
8 3 2 0 -1 48.42 51.35 5.09 o
8 3 2 0 0 679.61 647.68 16.39 o
8 3 2 0 1 51.81 53.73 4.06 o
8 3 2 1 -1 0.03 -1.27 1.63 <
8 3 2 1 0 13.74 16.49 2.91 o
8 3 2 1 1 10.86 7.63 1.84 o
8 3 3 -1 -1 0.57 -0.47 1.36 <
8 3 3 -1 0 22.19 23.01 3.06 o
8 3 3 -1 1 7.00 2.70 1.36 <
8 3 3 0 -1 2.44 3.67 1.46 <
8 3 3 0 0 709.79 757.32 20.14 o
8 3 3 0 1 73.59 78.03 6.69 o
8 3 3 1 -1 0.17 -0.33 1.62 <
8 3 3 1 0 21.99 31.00 4.36 o
8 3 3 1 1 3.14 3.61 2.01 <
8 3 4 -1 -1 1.20 0.25 1.62 <
8 3 4 -1 0 62.73 58.72 6.20 o
8 3 4 -1 1 3.09 -0.60 1.93 <
8 3 4 0 -1 152.52 156.10 10.38 o
8 3 4 0 0 1.71 4.77 2.18 <
8 3 4 0 1 1.71 1.26 1.67 <
8 3 4 1 -1 1.52 -8.79 3.12 <
8 3 4 1 0 195.96 219.57 13.94 o
8 3 4 1 1 0.02 -4.79 2.91 <
8 3 5 -1 -1 0.21 -0.43 2.36 <
8 3 5 -1 0 7.30 8.59 2.34 o
8 3 5 -1 1 0.98 4.03 2.27 <
8 3 5 0 -1 111.98 122.78 9.71 o
8 3 5 0 0 570.43 573.69 20.80 o
8 3 5 0 1 9.27 7.08 2.28 o
8 3 5 1 -1 8.43 6.32 2.77 <
8 3 5 1 0 10.93 4.66 2.32 <
8 3 5 1 1 0.02 2.18 1.93 <
8 3 6 -1 -1 1.62 -0.66 2.44 <
8 3 6 -1 0 90.10 84.93 9.80 o
8 3 6 -1 1 9.15 2.88 1.96 <
8 3 6 0 -1 30.83 34.41 5.56 o
8 3 6 0 0 489.05 478.53 20.15 o
8 3 6 0 1 89.00 91.68 9.91 o
8 3 6 1 -1 0.52 -3.25 2.58 <
8 3 6 1 0 1.76 -4.47 3.57 <
8 3 6 1 1 4.42 1.36 2.99 <
8 3 7 -1 -1 0.33 -2.05 3.40 <
8 3 7 -1 0 12.53 9.74 3.27 <
8 3 7 -1 1 3.54 -0.78 2.87 <
8 3 7 0 -1 0.50 -1.82 5.95 <
8 3 7 0 0 338.77 360.90 29.44 o
8 3 7 0 1 43.05 48.58 8.80 o
8 3 7 1 -1 0.99 -12.22 10.65 <
8 3 7 1 0 9.30 19.59 9.25 <
8 3 7 1 1 1.39 5.34 4.89 <
8 3 8 -1 -1 0.06 -22.40 10.24 <
8 3 8 -1 0 23.08 7.11 9.01 <
8 3 8 -1 1 0.47 3.02 10.83 <
8 3 8 0 -1 91.95 82.86 29.58 <
8 3 8 0 0 0.61 14.98 8.41 <
8 3 8 0 1 4.87 -14.15 12.22 <
8 3 8 1 1 0.15 -2.33 12.47 <
8 4 0 -1 -1 16.36 21.56 5.12 o
8 4 0 -1 0 100.82 104.36 9.59 o
8 4 0 -1 1 7.10 3.76 1.86 <
8 4 0 0 -1 245.86 253.44 17.48 o
8 4 0 0 0 103.80 89.66 9.17 o
8 4 0 0 1 176.59 177.43 11.66 o
8 4 0 1 -1 17.76 18.97 4.82 o
8 4 0 1 0 28.39 26.72 5.94 o
8 4 0 1 1 0.32 -2.40 2.22 <
8 4 1 -1 -1 0.70 0.66 1.41 <
8 4 1 -1 0 41.01 40.05 3.66 o
8 4 1 -1 1 1.58 2.09 1.35 <
8 4 1 0 -1 0.59 1.92 1.65 <
8 4 1 0 0 705.90 648.12 19.05 o
8 4 1 0 1 69.11 69.92 5.24 o
8 4 1 1 -1 0.92 -1.33 1.72 <
8 4 1 1 0 47.29 55.51 6.16 o
8 4 1 1 1 10.23 4.52 2.25 <
8 4 2 -1 -1 5.65 5.57 1.81 o
8 4 2 -1 0 46.85 42.99 4.59 o
8 4 2 -1 1 0.30 -0.04 1.20 <
8 4 2 0 -1 51.32 52.88 5.42 o
8 4 2 0 0 2.14 6.11 2.09 <
8 4 2 0 1 7.35 6.36 1.70 o
8 4 2 1 -1 0.01 -1.71 1.91 <
8 4 2 1 0 0.16 1.58 1.93 <
8 4 2 1 1 6.74 6.39 2.01 o
8 4 3 -1 -1 1.24 0.30 1.80 <
8 4 3 -1 0 59.17 56.09 6.01 o
8 4 3 -1 1 1.40 -0.02 1.33 <
8 4 3 0 -1 15.68 11.99 2.60 o
8 4 3 0 0 458.72 409.10 16.03 o
8 4 3 0 1 178.31 171.33 12.89 o
8 4 3 1 -1 3.04 0.68 1.80 <
8 4 3 1 0 28.77 37.48 5.29 o
8 4 3 1 1 1.05 -2.66 2.74 <
8 4 4 -1 -1 12.32 11.68 2.79 o
8 4 4 -1 0 46.65 45.30 6.19 o
8 4 4 -1 1 2.27 3.04 2.21 <
8 4 4 0 -1 58.66 56.20 6.30 o
8 4 4 0 0 428.38 468.52 19.08 o
8 4 4 0 1 29.98 27.87 4.38 o
8 4 4 1 -1 17.55 16.55 4.45 o
8 4 4 1 0 31.63 25.18 4.38 o
8 4 4 1 1 0.01 0.36 2.83 <
8 4 5 -1 -1 0.22 -3.25 2.51 <
8 4 5 -1 0 19.75 19.05 3.80 o
8 4 5 -1 1 1.19 -3.40 2.32 <
8 4 5 0 -1 12.22 14.69 3.57 o
8 4 5 0 0 635.49 594.12 22.97 o
8 4 5 0 1 13.86 16.94 3.87 o
8 4 5 1 -1 0.05 -4.25 3.75 <
8 4 5 1 0 42.56 48.67 7.15 o
8 4 5 1 1 19.15 5.73 2.89 <
8 4 6 -1 -1 3.73 5.62 2.78 <
8 4 6 -1 0 70.14 68.01 8.31 o
8 4 6 -1 1 0.45 1.37 2.24 <
8 4 6 0 -1 10.67 8.47 3.32 <
8 4 6 0 0 1860.09 1845.93 46.70 o
8 4 6 0 1 44.97 40.80 7.26 o
8 4 6 1 -1 0.22 10.26 6.71 <
8 4 6 1 0 0.44 -1.76 4.66 <
8 4 6 1 1 8.66 3.75 2.67 <
8 4 7 -1 -1 1.09 -6.63 4.24 <
8 4 7 -1 0 34.74 35.02 8.49 o
8 4 7 -1 1 0.75 3.26 4.42 <
8 4 7 0 -1 12.17 12.11 8.86 <
8 4 7 0 0 240.93 210.50 31.88 o
8 4 7 0 1 112.98 98.55 19.83 o
8 4 7 1 1 0.18 -7.22 6.96 <
8 4 8 -1 -1 6.70 -18.77 14.08 <
8 4 8 -1 0 8.36 15.25 12.62 <
8 4 8 -1 1 0.15 1.85 4.37 <
8 5 0 -1 -1 0.54 3.80 2.99 <
8 5 0 -1 0 30.46 30.46 4.91 o
8 5 0 -1 1 1.01 0.79 2.86 <
8 5 0 0 -1 7.76 7.01 3.52 <
8 5 0 0 0 692.37 620.88 27.95 o
8 5 0 0 1 16.50 15.49 3.99 o
8 5 0 1 -1 17.45 10.89 3.34 o
8 5 0 1 0 41.12 38.09 8.67 o
8 5 0 1 1 7.13 6.55 3.95 <
8 5 1 -1 -1 0.01 1.46 1.83 <
8 5 1 -1 0 26.44 29.38 3.99 o
8 5 1 -1 1 11.33 7.31 1.77 o
8 5 1 0 -1 11.14 13.64 2.99 o
8 5 1 0 0 974.52 1053.95 26.08 o
8 5 1 0 1 43.69 43.89 5.39 o
8 5 1 1 -1 0.06 -0.50 2.51 <
8 5 1 1 0 5.60 4.60 3.08 <
8 5 1 1 1 8.37 6.27 2.05 o
8 5 2 -1 -1 0.70 -0.06 1.09 <
8 5 2 -1 0 17.92 18.50 3.34 o
8 5 2 -1 1 7.91 5.95 1.89 o
8 5 2 0 -1 14.60 11.43 2.90 o
8 5 2 0 0 95.09 81.61 8.05 o
8 5 2 0 1 21.29 25.68 5.11 o
8 5 2 1 -1 2.96 -2.89 1.89 <
8 5 2 1 0 153.40 166.18 11.76 o
8 5 2 1 1 1.56 0.21 2.01 <
8 5 3 -1 -1 0.35 1.67 1.78 <
8 5 3 -1 0 0.78 0.22 2.24 <
8 5 3 -1 1 1.98 0.28 1.78 <
8 5 3 0 -1 2.56 4.15 2.22 <
8 5 3 0 0 37.31 23.72 4.45 o
8 5 3 0 1 0.68 -3.62 3.09 <
8 5 3 1 -1 1.14 2.38 2.16 <
8 5 3 1 0 1.61 -1.48 2.25 <
8 5 3 1 1 6.46 7.47 2.87 <
8 5 4 -1 -1 0.01 -0.61 2.52 <
8 5 4 -1 0 60.60 65.06 7.45 o
8 5 4 -1 1 0.18 -3.87 2.64 <
8 5 4 0 -1 0.34 -3.17 2.64 <
8 5 4 0 0 437.06 383.09 19.53 o
8 5 4 0 1 25.87 30.91 5.73 o
8 5 4 1 -1 10.33 4.26 3.74 <
8 5 4 1 0 16.48 11.24 3.97 <
8 5 4 1 1 5.19 -4.71 3.31 <
8 5 5 -1 -1 0.26 -0.18 2.21 <
8 5 5 -1 0 38.74 36.70 6.24 o
8 5 5 -1 1 13.74 8.46 3.28 <
8 5 5 0 -1 20.90 19.67 5.70 o
8 5 5 0 0 2082.40 2266.12 50.05 o
8 5 5 0 1 78.81 82.55 11.12 o
8 5 5 1 -1 0.93 -4.05 5.59 <
8 5 5 1 0 4.85 -1.32 3.74 <
8 5 5 1 1 5.63 3.80 3.37 <
8 5 6 -1 -1 0.05 -0.12 2.24 <
8 5 6 -1 0 0.57 2.35 2.85 <
8 5 6 -1 1 2.61 2.85 2.84 <
8 5 6 0 -1 54.96 48.57 13.65 o
8 5 6 0 0 139.48 118.58 14.56 o
8 5 6 0 1 3.63 8.70 3.70 <
8 5 6 1 -1 4.63 -0.73 8.17 <
8 5 6 1 0 66.29 65.24 22.66 <
8 5 6 1 1 1.54 -2.11 6.82 <
8 5 7 -1 -1 1.06 -5.57 8.85 <
8 5 7 -1 0 1.94 -3.23 4.56 <
8 5 7 -1 1 1.68 8.43 6.96 <
8 5 7 0 0 9.09 28.65 16.79 <
8 5 7 0 1 0.54 10.72 6.29 <
8 6 0 -1 -1 4.89 7.46 3.51 <
8 6 0 -1 0 47.35 52.33 9.80 o
8 6 0 -1 1 1.55 1.90 2.47 <
8 6 0 0 -1 66.44 74.78 12.22 o
8 6 0 0 0 1803.49 1870.93 61.13 o
8 6 0 0 1 0.22 -5.24 3.52 <
8 6 0 1 -1 6.98 4.35 3.61 <
8 6 0 1 0 16.79 34.75 9.20 o
8 6 0 1 1 1.62 3.86 3.24 <
8 6 1 -1 -1 6.56 4.97 2.17 <
8 6 1 -1 0 9.36 10.44 3.12 o
8 6 1 -1 1 5.52 1.91 2.14 <
8 6 1 0 -1 0.90 0.60 2.72 <
8 6 1 0 0 155.56 161.36 12.52 o
8 6 1 0 1 9.21 9.47 3.05 o
8 6 1 1 -1 0.03 -0.53 2.77 <
8 6 1 1 0 47.18 56.30 9.04 o
8 6 1 1 1 0.09 -1.36 2.49 <
8 6 2 -1 -1 2.61 0.99 2.09 <
8 6 2 -1 0 1.21 4.44 2.44 <
8 6 2 -1 1 2.33 1.74 2.01 <
8 6 2 0 -1 6.82 5.34 2.54 <
8 6 2 0 0 550.44 527.71 21.25 o
8 6 2 0 1 43.01 46.91 7.07 o
8 6 2 1 -1 0.00 -3.25 2.35 <
8 6 2 1 0 1.31 9.19 3.50 <
8 6 2 1 1 13.24 11.88 3.88 o
8 6 3 -1 -1 2.26 -1.17 3.12 <
8 6 3 -1 0 9.62 7.91 2.77 <
8 6 3 -1 1 9.80 7.75 3.15 <
8 6 3 0 -1 24.86 27.23 6.37 o
8 6 3 0 0 64.87 74.45 9.59 o
8 6 3 0 1 3.62 3.00 2.12 <
8 6 3 1 -1 0.07 -4.25 2.93 <
8 6 3 1 0 6.59 13.99 5.37 <
8 6 3 1 1 0.15 1.32 1.99 <
8 6 4 -1 -1 5.03 2.15 2.35 <
8 6 4 -1 0 71.23 74.07 9.62 o
8 6 4 -1 1 2.36 3.01 1.87 <
8 6 4 0 -1 62.85 66.54 11.10 o
8 6 4 0 0 1657.23 1747.33 47.55 o
8 6 4 0 1 2.08 1.67 2.95 <
8 6 4 1 -1 6.28 0.84 2.81 <
8 6 4 1 0 33.33 28.99 7.64 o
8 6 4 1 1 1.09 1.04 4.21 <
8 6 5 -1 -1 7.10 7.25 3.58 <
8 6 5 -1 0 39.10 35.90 6.44 o
8 6 5 -1 1 2.26 -0.85 2.52 <
8 6 5 0 -1 2.28 2.95 3.33 <
8 6 5 0 0 156.06 174.88 18.06 o
8 6 5 0 1 11.75 11.31 4.01 <
8 6 5 1 -1 0.13 0.04 4.54 <
8 6 5 1 0 57.49 71.84 26.67 <
8 6 5 1 1 0.12 4.60 7.30 <
8 6 6 -1 -1 1.09 -6.02 5.71 <
8 6 6 -1 0 5.19 6.03 7.06 <
8 6 6 -1 1 3.45 -7.26 4.75 <
8 6 6 0 -1 8.12 1.47 2.81 <
8 6 6 0 0 536.20 519.80 47.45 o
8 6 6 0 1 7.73 13.27 6.46 <
8 6 6 1 1 9.39 27.51 16.23 <
8 6 7 -1 0 9.14 -1.32 8.24 <
8 6 7 -1 1 6.29 -0.48 7.23 <
8 7 0 -1 -1 6.72 4.96 3.61 <
8 7 0 -1 0 25.24 20.73 7.30 <
8 7 0 -1 1 0.02 0.16 2.88 <
8 7 0 0 -1 0.20 3.35 4.62 <
8 7 0 0 0 0.16 11.76 5.85 <
8 7 0 0 1 23.16 16.71 5.28 o
8 7 0 1 -1 0.18 -0.81 3.03 <
8 7 0 1 0 165.90 146.91 18.22 o
8 7 0 1 1 0.64 1.20 5.51 <
8 7 1 -1 -1 7.02 9.54 3.48 <
8 7 1 -1 0 0.32 2.38 2.84 <
8 7 1 -1 1 0.07 0.85 2.19 <
8 7 1 0 -1 60.79 72.27 10.19 o
8 7 1 0 0 504.24 532.45 23.96 o
8 7 1 0 1 4.35 4.90 2.29 <
8 7 1 1 -1 1.61 3.91 2.56 <
8 7 1 1 0 10.79 34.48 7.40 o
8 7 1 1 1 0.36 -0.08 3.32 <
8 7 2 -1 -1 7.68 8.65 3.09 <
8 7 2 -1 0 157.47 164.59 13.10 o
8 7 2 -1 1 0.58 -6.14 3.61 <
8 7 2 0 -1 40.22 42.39 6.80 o
8 7 2 0 0 0.10 3.19 2.65 <
8 7 2 0 1 56.13 68.29 8.65 o
8 7 2 1 -1 12.22 12.99 4.42 <
8 7 2 1 0 54.11 68.56 8.96 o
8 7 2 1 1 4.20 2.03 2.36 <
8 7 3 -1 -1 2.83 5.48 3.44 <
8 7 3 -1 0 14.69 11.14 4.64 <
8 7 3 -1 1 0.41 2.16 2.56 <
8 7 3 0 -1 3.10 1.76 3.88 <
8 7 3 0 0 11.05 6.01 3.80 <
8 7 3 0 1 23.37 25.32 6.05 o
8 7 3 1 -1 6.22 2.23 5.72 <
8 7 3 1 0 62.03 81.84 19.91 o
8 7 3 1 1 1.77 3.21 3.50 <
8 7 4 -1 -1 6.11 -0.74 3.57 <
8 7 4 -1 0 35.63 33.59 7.26 o
8 7 4 -1 1 0.18 0.28 3.88 <
8 7 4 0 -1 0.53 -4.23 5.99 <
8 7 4 0 0 8.62 10.68 6.81 <
8 7 4 0 1 7.40 4.82 3.46 <
8 7 4 1 -1 0.03 -0.49 3.43 <
8 7 5 -1 -1 7.21 12.52 6.31 <
8 7 5 -1 0 2.12 3.42 7.41 <
8 7 5 -1 1 0.03 -5.27 6.70 <
8 7 5 0 -1 94.12 123.64 34.82 o
8 7 5 0 1 36.39 43.05 13.47 o
8 7 6 -1 -1 5.93 -12.73 7.97 <
8 7 6 -1 0 154.98 170.66 38.27 o
8 7 6 -1 1 1.08 -14.84 11.82 <
8 8 0 -1 1 8.80 3.13 4.99 <
8 8 0 0 0 2882.16 2651.31 113.18 o
8 8 0 0 1 90.93 88.86 14.39 o
8 8 0 1 1 0.20 -15.81 11.87 <
8 8 1 -1 1 5.33 4.23 2.26 <
8 8 1 0 0 31.24 22.03 8.16 <
8 8 1 0 1 5.70 4.14 3.19 <
8 8 1 1 1 0.15 7.30 6.43 <
8 8 2 -1 1 1.71 1.89 2.01 <
8 8 2 0 0 2730.41 3086.55 99.38 o
8 8 2 0 1 56.26 65.19 10.87 o
8 8 3 -1 1 5.32 4.79 4.52 <
8 8 4 -1 1 4.64 2.37 4.79 <
9 0 0 0 1 5.82 12.16 3.17 o
9 0 0 1 0 209.51 232.78 21.99 o
9 0 0 1 1 9.22 6.86 2.35 <
9 0 1 -1 1 5.40 2.57 1.65 <
9 0 1 0 0 1795.31 1735.95 39.27 o
9 0 1 0 1 1.58 2.87 1.43 <
9 0 1 1 -1 4.02 18.81 6.37 <
9 0 1 1 0 42.48 36.67 4.16 o
9 0 1 1 1 7.40 3.67 1.29 <
9 0 2 0 1 24.79 30.00 3.38 o
9 0 2 1 0 12.82 15.16 2.97 o
9 0 2 1 1 0.82 -1.93 1.52 <
9 0 3 -1 1 1.29 0.87 1.47 <
9 0 3 0 0 1.63 3.13 2.38 <
9 0 3 0 1 21.36 23.66 3.54 o
9 0 3 1 -1 2.32 -1.43 3.13 <
9 0 3 1 0 2.70 2.91 1.73 <
9 0 3 1 1 4.58 0.89 1.55 <
9 0 4 0 1 1.39 5.51 2.75 <
9 0 4 1 0 220.92 241.82 14.37 o
9 0 4 1 1 6.04 4.86 2.26 <
9 0 5 -1 1 5.96 3.07 3.79 <
9 0 5 0 0 3346.56 3253.47 84.04 o
9 0 5 0 1 0.40 -0.40 2.50 <
9 0 5 1 -1 3.86 0.65 4.25 <
9 0 5 1 0 90.71 89.14 9.15 o
9 0 5 1 1 8.48 1.12 2.76 <
9 0 6 0 1 29.38 32.43 5.64 o
9 0 6 1 0 0.13 -5.09 3.00 <
9 0 6 1 1 0.11 -2.60 2.48 <
9 0 7 -1 1 1.04 2.23 4.49 <
9 0 7 0 0 0.67 5.19 4.75 <
9 0 7 0 1 10.59 6.83 2.90 <
9 0 7 1 -1 0.89 2.50 2.85 <
9 0 7 1 0 0.18 -1.57 3.87 <
9 0 7 1 1 0.96 -0.45 2.40 <
9 0 8 0 1 0.06 11.45 9.73 <
9 1 0 -1 -1 4.05 -0.34 1.67 <
9 1 0 -1 0 12.52 11.49 2.25 o
9 1 0 -1 1 5.72 5.59 2.19 <
9 1 0 0 -1 42.41 42.12 6.98 o
9 1 0 0 0 375.50 346.59 17.10 o
9 1 0 0 1 52.04 58.75 5.77 o
9 1 0 1 -1 5.79 11.60 4.07 <
9 1 0 1 0 212.40 235.43 14.93 o
9 1 0 1 1 10.87 14.61 3.94 o
9 1 1 -1 -1 0.87 2.91 1.52 <
9 1 1 -1 0 27.55 27.11 2.95 o
9 1 1 -1 1 10.66 10.35 1.77 o
9 1 1 0 -1 0.96 1.43 1.81 <
9 1 1 0 0 706.65 685.34 16.23 o
9 1 1 0 1 124.96 119.82 6.71 o
9 1 1 1 -1 4.07 8.49 3.16 <
9 1 1 1 0 5.97 3.59 1.65 <
9 1 1 1 1 1.12 3.95 1.91 <
9 1 2 -1 -1 3.17 1.99 1.62 <
9 1 2 -1 0 24.48 25.43 3.69 o
9 1 2 -1 1 1.22 1.30 1.30 <
9 1 2 0 -1 20.14 22.71 3.43 o
9 1 2 0 0 139.42 144.09 9.12 o
9 1 2 0 1 111.05 117.65 8.08 o
9 1 2 1 -1 3.54 3.33 2.13 <
9 1 2 1 0 23.41 35.07 5.04 o
9 1 2 1 1 0.14 -0.75 1.30 <
9 1 3 -1 -1 0.13 0.32 2.12 <
9 1 3 -1 0 0.02 -1.00 1.62 <
9 1 3 -1 1 2.51 3.95 1.78 <
9 1 3 0 -1 8.08 6.40 2.03 o
9 1 3 0 0 27.11 23.93 4.16 o
9 1 3 0 1 26.26 23.53 3.94 o
9 1 3 1 -1 8.26 4.64 1.91 <
9 1 3 1 0 25.86 21.81 4.06 o
9 1 3 1 1 0.01 0.42 1.32 <
9 1 4 -1 -1 2.59 4.14 2.28 <
9 1 4 -1 0 34.95 34.93 4.97 o
9 1 4 -1 1 2.20 5.55 2.51 <
9 1 4 0 -1 82.78 87.32 8.12 o
9 1 4 0 0 1113.06 1083.04 28.52 o
9 1 4 0 1 34.14 39.97 5.26 o
9 1 4 1 -1 4.49 6.75 2.74 <
9 1 4 1 0 95.92 108.53 9.08 o
9 1 4 1 1 6.13 6.27 2.32 <
9 1 5 -1 -1 1.18 3.37 2.10 <
9 1 5 -1 0 48.71 43.96 6.54 o
9 1 5 -1 1 12.24 8.62 3.01 <
9 1 5 0 -1 0.00 0.46 2.07 <
9 1 5 0 0 1081.80 1075.19 31.72 o
9 1 5 0 1 157.73 148.02 11.46 o
9 1 5 1 -1 1.72 0.27 2.82 <
9 1 5 1 0 0.45 -4.54 2.92 <
9 1 5 1 1 1.74 4.34 2.70 <
9 1 6 -1 -1 2.53 -0.25 3.38 <
9 1 6 -1 0 0.03 -3.90 3.24 <
9 1 6 -1 1 2.97 3.71 2.29 <
9 1 6 0 -1 0.68 2.55 3.19 <
9 1 6 0 0 1065.91 1087.84 33.63 o
9 1 6 0 1 88.27 91.74 10.71 o
9 1 6 1 -1 2.36 -11.85 4.76 <
9 1 6 1 0 74.95 89.31 11.47 o
9 1 6 1 1 0.11 -2.61 2.90 <
9 1 7 -1 -1 0.09 6.34 3.64 <
9 1 7 -1 0 0.50 6.87 3.86 <
9 1 7 -1 1 1.83 2.76 4.21 <
9 1 7 0 -1 2.97 3.04 4.83 <
9 1 7 0 0 34.18 24.15 6.90 o
9 1 7 0 1 10.72 13.58 4.93 <
9 1 7 1 -1 4.09 -2.84 6.91 <
9 1 7 1 0 13.94 16.10 7.02 <
9 1 7 1 1 0.04 1.84 3.29 <
9 1 8 -1 0 55.88 51.61 23.70 <
9 1 8 -1 1 0.16 0.27 5.84 <
9 1 8 0 1 14.19 13.31 8.76 <
9 2 0 -1 -1 21.17 25.86 4.85 o
9 2 0 -1 0 108.28 117.21 9.30 o
9 2 0 -1 1 0.19 26.23 7.33 o
9 2 0 0 -1 0.53 0.51 1.51 <
9 2 0 0 0 672.88 668.95 25.40 o
9 2 0 0 1 269.68 290.85 14.96 o
9 2 0 1 -1 5.44 7.27 3.28 <
9 2 0 1 0 2.18 -3.04 3.45 <
9 2 0 1 1 1.12 1.18 2.22 <
9 2 1 -1 -1 7.11 5.62 1.66 o
9 2 1 -1 0 8.12 9.31 1.86 o
9 2 1 -1 1 0.02 -1.69 1.29 <
9 2 1 0 -1 3.02 5.91 1.79 o
9 2 1 0 0 106.93 85.84 7.23 o
9 2 1 0 1 5.92 7.06 1.74 o
9 2 1 1 -1 0.13 1.40 1.96 <
9 2 1 1 0 26.42 27.19 4.05 o
9 2 1 1 1 19.27 11.12 2.57 o
9 2 2 -1 -1 0.04 2.29 2.04 <
9 2 2 -1 0 0.08 -0.62 1.36 <
9 2 2 -1 1 1.83 1.03 1.94 <
9 2 2 0 -1 42.31 46.75 6.15 o
9 2 2 0 0 247.63 222.72 11.60 o
9 2 2 0 1 79.81 74.54 6.31 o
9 2 2 1 -1 2.24 4.42 2.70 <
9 2 2 1 0 48.98 45.18 5.75 o
9 2 2 1 1 7.04 6.43 2.18 <
9 2 3 -1 -1 2.83 3.10 1.89 <
9 2 3 -1 0 7.78 5.31 1.81 <
9 2 3 -1 1 0.32 -4.39 2.06 <
9 2 3 0 -1 7.79 12.81 3.15 o
9 2 3 0 0 108.63 83.04 7.34 o
9 2 3 0 1 32.57 33.59 4.77 o
9 2 3 1 -1 1.22 0.14 2.25 <
9 2 3 1 0 38.78 47.07 6.08 o
9 2 3 1 1 17.13 8.77 2.76 o
9 2 4 -1 -1 18.73 19.08 3.79 o
9 2 4 -1 0 178.46 196.88 11.73 o
9 2 4 -1 1 0.52 -8.42 3.02 <
9 2 4 0 -1 3.60 1.97 2.43 <
9 2 4 0 0 36.22 40.49 5.50 o
9 2 4 0 1 90.92 99.54 8.92 o
9 2 4 1 -1 2.05 -1.45 2.75 <
9 2 4 1 0 1.37 -0.70 2.53 <
9 2 4 1 1 0.00 -1.87 2.32 <
9 2 5 -1 -1 7.84 6.25 2.66 <
9 2 5 -1 0 31.54 32.72 5.19 o
9 2 5 -1 1 0.01 -1.80 2.26 <
9 2 5 0 -1 0.29 -4.13 3.46 <
9 2 5 0 0 78.95 60.78 7.53 o
9 2 5 0 1 0.02 -4.53 2.93 <
9 2 5 1 -1 1.95 -0.74 2.53 <
9 2 5 1 0 8.27 10.72 3.83 <
9 2 5 1 1 14.47 12.00 3.70 o
9 2 6 -1 -1 0.02 -5.84 3.32 <
9 2 6 -1 0 36.91 35.66 6.00 o
9 2 6 -1 1 0.17 0.67 3.12 <
9 2 6 0 -1 13.45 12.05 4.15 <
9 2 6 0 0 123.57 139.91 12.51 o
9 2 6 0 1 0.01 -0.76 2.96 <
9 2 6 1 -1 4.14 4.54 4.62 <
9 2 6 1 0 40.10 32.82 8.11 o
9 2 6 1 1 0.67 1.01 4.34 <
9 2 7 -1 -1 1.25 2.36 4.85 <
9 2 7 -1 0 7.29 3.85 3.76 <
9 2 7 -1 1 0.18 -2.22 4.32 <
9 2 7 0 -1 6.97 4.26 6.07 <
9 2 7 0 0 56.12 37.82 13.01 <
9 2 7 0 1 19.05 7.13 6.28 <
9 2 8 -1 1 2.59 -8.45 6.54 <
9 3 0 -1 -1 2.85 11.69 3.87 o
9 3 0 -1 0 0.27 -4.00 2.25 <
9 3 0 -1 1 5.74 3.86 2.05 <
9 3 0 0 -1 82.69 86.75 10.36 o
9 3 0 0 0 3203.43 3306.19 65.10 o
9 3 0 0 1 287.07 308.88 19.50 o
9 3 0 1 -1 0.72 -4.46 3.93 <
9 3 0 1 0 262.96 293.76 19.62 o
9 3 0 1 1 10.99 11.96 3.66 o
9 3 1 -1 -1 1.69 2.28 2.14 <
9 3 1 -1 0 0.17 -0.83 1.75 <
9 3 1 -1 1 0.00 -0.15 1.13 <
9 3 1 0 -1 0.25 0.50 1.93 <
9 3 1 0 0 51.06 71.33 6.47 o
9 3 1 0 1 6.41 4.10 1.64 <
9 3 1 1 -1 0.01 -1.02 2.02 <
9 3 1 1 0 0.09 0.81 1.40 <
9 3 1 1 1 0.40 -0.39 1.39 <
9 3 2 -1 -1 1.61 2.11 1.80 <
9 3 2 -1 0 0.04 -4.23 1.99 <
9 3 2 -1 1 2.27 2.65 1.30 <
9 3 2 0 -1 0.39 2.81 1.80 <
9 3 2 0 0 1391.18 1319.31 28.80 o
9 3 2 0 1 7.34 2.31 1.78 <
9 3 2 1 -1 14.18 6.37 2.13 <
9 3 2 1 0 34.98 21.85 3.97 o
9 3 2 1 1 0.25 1.21 2.16 <
9 3 3 -1 -1 2.04 3.66 2.22 <
9 3 3 -1 0 16.42 19.16 3.62 o
9 3 3 -1 1 0.88 -1.95 2.13 <
9 3 3 0 -1 6.90 10.51 3.22 o
9 3 3 0 0 607.32 700.15 24.60 o
9 3 3 0 1 10.39 13.65 3.21 o
9 3 3 1 -1 5.79 4.39 2.80 <
9 3 3 1 0 25.90 20.99 4.37 o
9 3 3 1 1 0.17 2.47 1.97 <
9 3 4 -1 -1 1.97 -0.30 2.07 <
9 3 4 -1 0 0.45 -3.59 2.64 <
9 3 4 -1 1 3.64 4.67 2.33 <
9 3 4 0 -1 21.40 16.56 3.40 o
9 3 4 0 0 1333.21 1391.73 34.45 o
9 3 4 0 1 132.52 147.19 10.26 o
9 3 4 1 -1 1.34 -1.96 2.38 <
9 3 4 1 0 105.51 114.49 10.61 o
9 3 4 1 1 6.20 7.49 2.99 <
9 3 5 -1 -1 0.51 2.59 2.84 <
9 3 5 -1 0 1.74 1.59 2.49 <
9 3 5 -1 1 0.11 -0.43 1.71 <
9 3 5 0 -1 2.57 1.88 3.10 <
9 3 5 0 0 6.64 7.40 3.82 <
9 3 5 0 1 19.77 14.59 3.75 o
9 3 5 1 -1 2.12 4.56 5.21 <
9 3 5 1 0 6.01 8.32 4.89 <
9 3 5 1 1 0.58 -1.14 2.92 <
9 3 6 -1 -1 0.87 2.77 2.78 <
9 3 6 -1 0 3.58 2.48 2.71 <
9 3 6 -1 1 2.31 1.35 2.92 <
9 3 6 0 -1 17.94 15.97 5.58 <
9 3 6 0 0 124.32 103.96 15.89 o
9 3 6 0 1 8.01 12.52 5.47 <
9 3 6 1 -1 5.93 0.98 6.64 <
9 3 6 1 0 1.65 -1.37 6.15 <
9 3 6 1 1 1.09 3.78 3.01 <
9 3 7 -1 -1 3.02 4.83 10.77 <
9 3 7 -1 0 5.14 14.10 7.69 <
9 3 7 -1 1 0.02 -6.19 8.44 <
9 4 0 -1 -1 26.12 32.89 6.99 o
9 4 0 -1 0 25.21 16.82 4.90 o
9 4 0 -1 1 5.88 3.88 2.53 <
9 4 0 0 -1 0.33 -1.96 3.75 <
9 4 0 0 0 42.63 43.42 7.54 o
9 4 0 0 1 3.50 7.80 3.31 <
9 4 0 1 -1 1.22 3.58 3.05 <
9 4 0 1 0 57.53 38.08 7.09 o
9 4 0 1 1 0.17 -0.24 2.29 <
9 4 1 -1 -1 0.32 0.53 1.37 <
9 4 1 -1 0 21.43 18.25 3.68 o
9 4 1 -1 1 2.45 5.32 1.98 <
9 4 1 0 -1 40.14 40.52 5.41 o
9 4 1 0 0 433.24 436.54 17.82 o
9 4 1 0 1 25.48 22.40 3.71 o
9 4 1 1 -1 2.27 0.32 1.98 <
9 4 1 1 0 0.17 1.47 2.02 <
9 4 1 1 1 0.05 0.14 2.32 <
9 4 2 -1 -1 0.63 1.21 2.33 <
9 4 2 -1 0 23.70 25.19 3.93 o
9 4 2 -1 1 9.13 9.98 2.24 o
9 4 2 0 -1 3.42 3.72 1.49 <
9 4 2 0 0 49.15 68.02 6.44 o
9 4 2 0 1 0.96 0.63 1.88 <
9 4 2 1 -1 1.35 0.50 2.34 <
9 4 2 1 0 47.19 69.70 7.77 o
9 4 2 1 1 2.28 2.80 2.29 <
9 4 3 -1 -1 0.06 -1.19 1.87 <
9 4 3 -1 0 13.36 13.24 3.11 o
9 4 3 -1 1 6.62 4.34 2.49 <
9 4 3 0 -1 13.00 13.21 3.58 o
9 4 3 0 0 192.55 187.76 13.27 o
9 4 3 0 1 8.60 7.73 2.87 <
9 4 3 1 -1 0.00 3.83 2.44 <
9 4 3 1 0 39.50 44.96 8.32 o
9 4 3 1 1 1.82 -1.51 2.81 <
9 4 4 -1 -1 15.67 13.93 3.79 o
9 4 4 -1 0 28.53 21.64 4.16 o
9 4 4 -1 1 5.43 3.01 2.15 <
9 4 4 0 -1 3.18 1.41 2.25 <
9 4 4 0 0 36.38 30.95 5.82 o
9 4 4 0 1 0.31 0.75 2.48 <
9 4 4 1 -1 1.50 -0.55 4.63 <
9 4 4 1 0 25.69 16.09 4.66 o
9 4 4 1 1 0.03 -0.63 2.24 <
9 4 5 -1 -1 1.65 0.42 3.05 <
9 4 5 -1 0 20.69 27.05 6.03 o
9 4 5 -1 1 0.48 1.41 3.28 <
9 4 5 0 -1 108.96 106.23 22.35 o
9 4 5 0 0 1238.26 1251.63 41.06 o
9 4 5 0 1 76.62 74.54 10.84 o
9 4 5 1 -1 5.34 -12.18 6.69 <
9 4 5 1 0 6.90 -7.57 8.61 <
9 4 5 1 1 1.17 3.62 3.07 <
9 4 6 -1 -1 0.12 -1.84 3.81 <
9 4 6 -1 0 27.97 25.24 8.95 <
9 4 6 -1 1 7.27 4.52 3.58 <
9 4 6 0 -1 2.62 -1.16 6.44 <
9 4 6 0 0 32.78 27.19 10.34 <
9 4 6 0 1 14.56 23.02 10.73 <
9 5 0 -1 -1 4.50 6.37 3.93 <
9 5 0 -1 0 59.73 62.21 15.40 o
9 5 0 -1 1 1.54 -1.42 2.65 <
9 5 0 0 -1 10.42 13.27 4.45 <
9 5 0 0 0 1058.45 1043.72 45.64 o
9 5 0 0 1 20.42 18.94 6.40 <
9 5 0 1 -1 1.71 -1.91 3.36 <
9 5 0 1 0 2.64 2.07 3.42 <
9 5 0 1 1 1.78 -0.73 3.53 <
9 5 1 -1 -1 2.46 2.09 1.98 <
9 5 1 -1 0 0.04 3.73 2.04 <
9 5 1 -1 1 1.86 -1.76 1.90 <
9 5 1 0 -1 49.92 58.25 8.86 o
9 5 1 0 0 15.41 12.53 3.88 o
9 5 1 0 1 0.77 1.27 2.17 <
9 5 1 1 -1 1.83 -2.20 3.35 <
9 5 1 1 0 17.67 26.65 6.23 o
9 5 1 1 1 0.01 4.40 3.17 <
9 5 2 -1 -1 0.31 0.84 1.80 <
9 5 2 -1 0 0.04 -0.51 2.27 <
9 5 2 -1 1 1.24 0.42 2.04 <
9 5 2 0 -1 59.94 62.68 8.88 o
9 5 2 0 0 1320.76 1443.11 35.61 o
9 5 2 0 1 0.13 -3.58 2.72 <
9 5 2 1 -1 8.84 7.13 3.05 <
9 5 2 1 0 5.52 8.74 4.32 <
9 5 2 1 1 2.81 1.53 2.19 <
9 5 3 -1 -1 1.07 3.28 2.49 <
9 5 3 -1 0 2.66 4.27 2.84 <
9 5 3 -1 1 0.08 3.07 2.81 <
9 5 3 0 -1 31.11 37.01 7.43 o
9 5 3 0 0 145.60 169.13 14.33 o
9 5 3 0 1 3.20 0.91 2.57 <
9 5 3 1 -1 4.05 3.10 4.20 <
9 5 3 1 0 1.18 3.81 3.17 <
9 5 3 1 1 3.55 3.79 3.05 <
9 5 4 -1 -1 3.50 -2.59 3.33 <
9 5 4 -1 0 28.23 32.80 6.19 o
9 5 4 -1 1 2.82 -1.18 3.76 <
9 5 4 0 -1 0.25 -5.74 4.51 <
9 5 4 0 0 246.01 230.48 17.30 o
9 5 4 0 1 5.39 2.98 2.70 <
9 5 4 1 -1 0.46 3.07 4.43 <
9 5 4 1 0 0.25 6.28 5.54 <
9 5 4 1 1 0.53 -0.65 4.21 <
9 5 5 -1 -1 2.73 0.51 2.63 <
9 5 5 -1 0 0.69 -7.40 4.39 <
9 5 5 -1 1 3.19 -10.31 4.04 <
9 5 5 0 -1 48.34 55.38 16.05 o
9 5 5 0 0 126.83 111.65 16.19 o
9 5 5 0 1 5.30 1.06 4.08 <
9 5 5 1 -1 0.70 -2.67 4.70 <
9 5 5 1 0 32.55 43.75 20.32 <
9 5 5 1 1 1.09 -17.51 12.30 <
9 5 6 -1 -1 0.13 -7.19 8.13 <
9 5 6 -1 0 6.42 10.70 10.66 <
9 5 6 -1 1 0.02 -11.28 9.89 <
9 5 6 0 0 137.69 158.18 38.54 o
9 5 6 0 1 6.78 5.97 7.25 <
9 6 0 -1 -1 6.28 4.98 3.33 <
9 6 0 -1 0 51.63 57.28 10.85 o
9 6 0 -1 1 0.01 2.97 3.11 <
9 6 0 0 -1 5.30 9.87 3.52 <
9 6 0 0 0 76.27 111.93 15.67 o
9 6 0 0 1 23.27 21.85 7.54 <
9 6 0 1 -1 20.69 9.32 4.19 <
9 6 0 1 0 14.13 23.38 7.99 <
9 6 0 1 1 1.32 -1.59 3.26 <
9 6 1 -1 -1 1.58 0.20 2.21 <
9 6 1 -1 0 40.81 44.89 6.68 o
9 6 1 -1 1 2.52 3.62 2.69 <
9 6 1 0 -1 0.05 0.80 3.14 <
9 6 1 0 0 128.12 110.08 11.70 o
9 6 1 0 1 12.57 7.51 3.60 <
9 6 1 1 -1 1.30 -2.01 4.08 <
9 6 1 1 0 15.93 12.99 4.81 <
9 6 1 1 1 1.15 0.14 2.71 <
9 6 2 -1 -1 4.70 7.50 2.78 <
9 6 2 -1 0 118.17 120.38 10.38 o
9 6 2 -1 1 0.26 -1.12 2.07 <
9 6 2 0 -1 39.06 40.87 7.24 o
9 6 2 0 0 294.52 257.10 16.75 o
9 6 2 0 1 9.19 5.93 2.73 <
9 6 2 1 -1 0.44 1.14 3.25 <
9 6 2 1 0 12.20 17.38 5.52 o
9 6 2 1 1 3.03 2.54 3.78 <
9 6 3 -1 -1 1.17 1.93 2.89 <
9 6 3 -1 0 5.30 1.67 2.60 <
9 6 3 -1 1 0.27 -0.90 3.31 <
9 6 3 0 -1 0.62 1.77 2.98 <
9 6 3 0 0 312.68 292.96 30.04 o
9 6 3 0 1 5.33 3.48 2.53 <
9 6 3 1 -1 0.32 5.49 4.61 <
9 6 3 1 0 0.35 8.76 7.19 <
9 6 3 1 1 2.20 1.72 3.74 <
9 6 4 -1 -1 3.16 -0.94 3.49 <
9 6 4 -1 0 17.49 14.67 4.94 <
9 6 4 -1 1 0.43 -6.75 3.75 <
9 6 4 0 -1 0.12 -8.70 7.46 <
9 6 4 0 0 30.28 14.27 6.25 <
9 6 4 0 1 0.24 -3.23 6.09 <
9 6 4 1 -1 10.35 0.73 6.42 <
9 6 4 1 0 34.44 24.14 15.72 <
9 6 4 1 1 0.68 -23.60 14.68 <
9 6 5 -1 -1 1.69 5.39 5.42 <
9 6 5 -1 0 58.08 58.06 13.43 o
9 6 5 -1 1 4.09 1.47 4.67 <
9 6 5 0 -1 0.50 1.80 10.35 <
9 6 5 0 1 12.26 10.66 7.56 <
9 6 6 -1 0 34.97 40.18 19.06 <
9 6 6 -1 1 1.84 12.04 12.23 <
9 7 0 -1 -1 0.01 -1.72 3.11 <
9 7 0 -1 0 4.13 7.60 4.21 <
9 7 0 -1 1 0.89 1.44 2.77 <
9 7 0 0 -1 4.97 1.04 4.60 <
9 7 0 0 0 443.97 391.43 34.63 o
9 7 0 0 1 17.09 14.37 5.72 <
9 7 0 1 -1 2.74 0.31 2.44 <
9 7 0 1 0 4.54 7.97 9.07 <
9 7 0 1 1 5.41 21.39 13.64 <
9 7 1 -1 -1 0.77 1.38 3.29 <
9 7 1 -1 0 11.46 9.37 4.21 <
9 7 1 -1 1 0.78 3.97 3.89 <
9 7 1 0 -1 14.51 18.59 6.68 <
9 7 1 0 0 2.75 4.83 3.02 <
9 7 1 0 1 1.04 -9.49 4.80 <
9 7 1 1 -1 0.87 0.74 5.07 <
9 7 1 1 0 15.39 30.27 9.25 o
9 7 1 1 1 0.00 6.42 7.47 <
9 7 2 -1 -1 10.54 11.94 4.02 <
9 7 2 -1 0 54.56 62.05 8.50 o
9 7 2 -1 1 0.50 -3.15 2.90 <
9 7 2 0 -1 48.96 51.60 11.04 o
9 7 2 0 0 178.07 179.79 18.16 o
9 7 2 0 1 5.31 8.91 4.45 <
9 7 2 1 -1 0.41 -5.05 3.96 <
9 7 2 1 0 0.27 -0.30 8.36 <
9 7 2 1 1 4.86 5.14 7.06 <
9 7 3 -1 -1 0.13 0.12 4.36 <
9 7 3 -1 0 2.30 5.16 5.03 <
9 7 3 -1 1 7.76 5.31 4.21 <
9 7 3 0 -1 2.19 7.83 5.11 <
9 7 3 0 0 293.24 320.39 55.61 o
9 7 3 0 1 87.71 85.10 28.71 <
9 7 4 -1 -1 0.35 5.69 6.21 <
9 7 4 -1 0 0.29 5.66 10.14 <
9 7 4 -1 1 0.62 -17.33 12.78 <
9 8 0 -1 -1 0.02 7.44 5.91 <
9 8 0 -1 0 182.91 186.04 24.45 o
9 8 0 -1 1 7.30 14.46 7.48 <
9 8 0 0 -1 53.30 68.75 26.05 <
9 8 1 -1 -1 0.02 4.64 4.92 <
9 8 1 -1 0 4.94 3.90 3.60 <
9 8 1 -1 1 0.19 3.71 3.94 <
9 8 2 -1 -1 7.14 7.03 4.96 <
9 8 2 -1 0 1.79 25.43 16.55 <
9 8 2 -1 1 1.38 2.43 6.18 <
9 8 2 0 -1 5.90 21.50 13.88 <
10 0 0 -1 1 1.20 1.44 2.10 <
10 0 0 0 0 2862.89 3103.83 108.37 o
10 0 0 0 1 0.33 2.30 4.12 <
10 0 0 1 -1 34.45 82.57 18.01 o
10 0 0 1 0 37.23 36.29 8.58 o
10 0 0 1 1 8.72 8.83 3.75 <
10 0 1 0 1 14.48 13.14 3.26 o
10 0 1 1 0 1.38 0.32 2.33 <
10 0 1 1 1 1.70 -2.54 2.21 <
10 0 2 -1 1 0.12 0.92 1.63 <
10 0 2 0 0 842.30 847.29 46.98 o
10 0 2 0 1 4.86 5.95 2.33 <
10 0 2 1 -1 6.57 16.26 6.46 <
10 0 2 1 0 0.00 -0.03 2.33 <
10 0 2 1 1 0.57 0.97 2.64 <
10 0 3 0 1 0.44 0.06 2.07 <
10 0 3 1 0 11.86 12.51 5.03 <
10 0 3 1 1 0.09 0.23 2.07 <
10 0 4 -1 1 1.35 -1.55 2.79 <
10 0 4 0 0 1991.49 2101.96 58.30 o
10 0 4 0 1 5.02 4.94 2.22 <
10 0 4 1 0 6.41 7.89 3.77 <
10 0 4 1 1 6.44 7.19 3.33 <
10 0 5 0 1 28.90 27.19 4.97 o
10 0 5 1 0 0.04 1.91 3.26 <
10 0 5 1 1 2.87 -1.11 3.61 <
10 0 6 -1 1 0.23 0.85 2.61 <
10 0 6 0 0 361.57 322.94 31.89 o
10 0 6 0 1 0.42 -5.47 4.54 <
10 0 6 1 1 0.22 4.91 6.62 <
10 0 7 0 1 0.08 5.62 6.41 <
10 1 0 -1 -1 9.20 15.09 6.56 <
10 1 0 -1 0 58.26 52.01 10.74 o
10 1 0 -1 1 14.39 33.27 5.74 o
10 1 0 0 -1 150.74 171.68 25.87 o
10 1 0 0 0 222.51 196.74 21.62 o
10 1 0 0 1 5.57 10.45 4.31 <
10 1 0 1 -1 0.61 6.84 5.25 <
10 1 0 1 0 191.01 182.19 18.66 o
10 1 0 1 1 6.50 7.25 3.03 <
10 1 1 -1 -1 0.59 -0.75 2.65 <
10 1 1 -1 0 2.62 0.17 2.00 <
10 1 1 -1 1 0.33 13.79 3.43 o
10 1 1 0 -1 0.31 1.59 2.95 <
10 1 1 0 0 77.72 62.27 8.64 o
10 1 1 0 1 5.82 0.20 1.63 <
10 1 1 1 -1 3.27 6.92 4.28 <
10 1 1 1 0 5.44 3.89 3.76 <
10 1 1 1 1 0.10 -1.58 2.54 <
10 1 2 -1 -1 2.64 4.13 2.74 <
10 1 2 -1 0 67.26 76.03 7.56 o
10 1 2 -1 1 1.34 3.29 2.08 <
10 1 2 0 -1 36.02 28.45 5.84 o
10 1 2 0 0 99.91 130.90 10.85 o
10 1 2 0 1 15.00 12.87 4.00 o
10 1 2 1 -1 3.71 4.76 3.25 <
10 1 2 1 0 135.30 149.70 13.09 o
10 1 2 1 1 10.22 9.87 2.92 o
10 1 3 -1 -1 0.92 0.29 2.47 <
10 1 3 -1 0 7.90 9.23 2.57 o
10 1 3 -1 1 0.01 0.94 1.53 <
10 1 3 0 -1 11.06 6.49 2.93 <
10 1 3 0 0 19.83 14.09 3.67 o
10 1 3 0 1 28.35 27.87 5.09 o
10 1 3 1 -1 0.04 4.47 3.45 <
10 1 3 1 0 9.06 10.84 4.69 <
10 1 3 1 1 4.48 3.41 1.87 <
10 1 4 -1 -1 5.33 0.79 2.32 <
10 1 4 -1 0 23.99 21.55 4.36 o
10 1 4 -1 1 18.45 20.16 4.28 o
10 1 4 0 -1 149.36 170.36 17.38 o
10 1 4 0 0 10.19 20.69 5.00 o
10 1 4 0 1 33.15 31.01 5.21 o
10 1 4 1 -1 0.04 0.25 3.54 <
10 1 4 1 0 72.54 69.57 8.58 o
10 1 4 1 1 2.05 -0.55 2.81 <
10 1 5 -1 -1 0.12 1.69 3.48 <
10 1 5 -1 0 0.23 -3.90 3.00 <
10 1 5 -1 1 1.15 -6.17 2.77 <
10 1 5 0 -1 8.66 8.01 5.10 <
10 1 5 0 0 88.16 74.77 9.76 o
10 1 5 0 1 0.77 -6.71 3.08 <
10 1 5 1 -1 6.90 0.59 3.63 <
10 1 5 1 0 22.19 25.51 7.10 o
10 1 5 1 1 1.49 1.70 3.59 <
10 1 6 -1 -1 0.48 0.66 6.02 <
10 1 6 -1 0 16.72 14.64 5.25 <
10 1 6 -1 1 0.08 -11.83 4.35 <
10 1 6 0 -1 42.98 31.24 10.36 o
10 1 6 0 0 213.34 189.54 18.89 o
10 1 6 0 1 69.05 59.63 11.91 o
10 1 6 1 0 18.08 30.50 7.56 o
10 1 6 1 1 1.90 2.10 5.12 <
10 1 7 -1 1 0.39 -11.75 7.62 <
10 1 7 0 1 10.41 8.46 8.43 <
10 2 0 -1 -1 6.53 10.83 4.16 <
10 2 0 -1 0 15.01 15.04 3.90 o
10 2 0 -1 1 8.12 13.89 4.32 o
10 2 0 0 -1 33.61 45.56 10.63 o
10 2 0 0 0 962.95 953.84 41.16 o
10 2 0 0 1 13.09 17.62 4.35 o
10 2 0 1 -1 3.18 9.79 7.45 <
10 2 0 1 0 26.65 34.01 7.89 o
10 2 0 1 1 4.57 2.84 2.32 <
10 2 1 -1 -1 10.28 8.79 2.90 o
10 2 1 -1 0 180.27 195.02 11.35 o
10 2 1 -1 1 6.48 8.53 2.81 o
10 2 1 0 -1 0.07 1.17 2.48 <
10 2 1 0 0 24.54 32.22 5.25 o
10 2 1 0 1 7.81 9.42 2.84 o
10 2 1 1 -1 0.00 2.83 2.40 <
10 2 1 1 0 1.21 4.13 2.47 <
10 2 1 1 1 7.51 6.89 2.46 <
10 2 2 -1 -1 4.46 3.27 1.97 <
10 2 2 -1 0 38.23 45.28 6.34 o
10 2 2 -1 1 0.63 -0.71 1.94 <
10 2 2 0 -1 59.25 71.21 9.15 o
10 2 2 0 0 1324.83 1315.91 35.00 o
10 2 2 0 1 10.44 13.85 3.11 o
10 2 2 1 -1 0.08 1.11 3.02 <
10 2 2 1 0 88.92 125.69 13.93 o
10 2 2 1 1 4.16 3.24 2.65 <
10 2 3 -1 -1 2.38 5.00 2.56 <
10 2 3 -1 0 49.10 50.71 6.93 o
10 2 3 -1 1 0.00 -2.27 2.14 <
10 2 3 0 -1 98.38 102.38 10.60 o
10 2 3 0 0 1352.05 1380.43 36.99 o
10 2 3 0 1 55.43 53.90 7.67 o
10 2 3 1 -1 2.82 2.59 2.95 <
10 2 3 1 0 3.09 -2.01 3.03 <
10 2 3 1 1 3.18 7.43 2.83 <
10 2 4 -1 -1 4.55 0.86 2.23 <
10 2 4 -1 0 25.15 29.83 6.36 o
10 2 4 -1 1 5.82 4.39 2.05 <
10 2 4 0 -1 12.93 18.76 4.50 o
10 2 4 0 0 775.62 728.71 27.79 o
10 2 4 0 1 35.84 44.02 6.82 o
10 2 4 1 -1 3.28 -5.92 4.04 <
10 2 4 1 0 18.63 24.32 5.90 o
10 2 4 1 1 3.77 -0.63 2.39 <
10 2 5 -1 -1 13.66 10.73 3.92 <
10 2 5 -1 0 206.45 214.63 16.46 o
10 2 5 -1 1 11.84 12.55 3.62 o
10 2 5 0 -1 40.87 36.85 7.72 o
10 2 5 0 0 674.59 718.54 32.50 o
10 2 5 0 1 64.86 70.88 10.43 o
10 2 5 1 -1 1.11 -3.04 5.34 <
10 2 5 1 0 3.28 2.09 3.14 <
10 2 5 1 1 6.82 -0.21 4.93 <
10 2 6 -1 -1 2.33 7.58 5.44 <
10 2 6 -1 0 9.91 3.89 4.26 <
10 2 6 -1 1 0.18 -7.08 5.06 <
10 2 6 0 -1 75.34 109.13 31.14 o
10 2 6 0 0 929.86 917.11 54.82 o
10 2 6 0 1 1.50 -18.76 7.68 <
10 2 6 1 1 2.82 20.82 13.96 <
10 2 7 -1 1 0.03 -1.34 12.49 <
10 3 0 -1 -1 0.54 2.67 3.02 <
10 3 0 -1 0 351.54 360.86 21.92 o
10 3 0 -1 1 53.58 46.17 10.59 o
10 3 0 0 -1 45.65 48.30 9.67 o
10 3 0 0 0 801.17 870.07 34.62 o
10 3 0 0 1 18.81 29.50 6.74 o
10 3 0 1 -1 1.76 -1.84 3.35 <
10 3 0 1 0 42.70 36.35 8.32 o
10 3 0 1 1 0.34 2.77 3.03 <
10 3 1 -1 -1 0.00 4.49 2.81 <
10 3 1 -1 0 1.29 1.30 1.90 <
10 3 1 -1 1 4.51 1.38 2.26 <
10 3 1 0 -1 0.72 2.67 2.00 <
10 3 1 0 0 498.93 466.41 20.31 o
10 3 1 0 1 32.09 34.43 5.26 o
10 3 1 1 -1 14.56 11.37 4.13 <
10 3 1 1 0 14.81 16.34 3.99 o
10 3 1 1 1 0.40 -1.24 1.48 <
10 3 2 -1 -1 19.27 18.96 4.38 o
10 3 2 -1 0 192.09 200.59 12.70 o
10 3 2 -1 1 2.14 -0.10 2.39 <
10 3 2 0 -1 11.07 12.68 4.36 <
10 3 2 0 0 17.26 9.74 2.85 o
10 3 2 0 1 0.19 -0.72 2.43 <
10 3 2 1 -1 6.70 5.97 3.75 <
10 3 2 1 0 58.04 70.80 8.58 o
10 3 2 1 1 1.21 3.18 2.32 <
10 3 3 -1 -1 1.34 3.05 2.54 <
10 3 3 -1 0 6.21 5.83 2.93 <
10 3 3 -1 1 9.47 8.57 2.74 o
10 3 3 0 -1 55.31 63.25 9.56 o
10 3 3 0 0 295.76 275.23 18.09 o
10 3 3 0 1 21.38 18.26 3.72 o
10 3 3 1 -1 10.95 -2.16 3.79 <
10 3 3 1 0 7.40 3.80 3.22 <
10 3 3 1 1 0.83 1.24 2.28 <
10 3 4 -1 -1 0.00 -2.58 2.80 <
10 3 4 -1 0 168.54 174.89 13.48 o
10 3 4 -1 1 27.28 15.81 3.35 o
10 3 4 0 -1 2.47 3.69 3.91 <
10 3 4 0 0 68.28 71.59 9.97 o
10 3 4 0 1 65.78 74.81 9.61 o
10 3 4 1 -1 2.53 -12.58 6.03 <
10 3 4 1 0 39.93 31.86 10.02 o
10 3 4 1 1 0.80 -2.95 6.32 <
10 3 5 -1 -1 0.60 -6.29 5.12 <
10 3 5 -1 0 7.14 6.36 4.52 <
10 3 5 -1 1 1.16 -3.83 3.21 <
10 3 5 0 -1 8.69 9.34 7.74 <
10 3 5 0 0 469.55 453.15 38.23 o
10 3 5 0 1 23.50 25.56 8.61 <
10 3 5 1 -1 10.87 21.01 13.61 <
10 3 5 1 0 11.04 34.25 14.19 <
10 3 5 1 1 0.11 0.31 6.74 <
10 3 6 -1 -1 7.52 9.26 5.23 <
10 3 6 -1 0 34.46 49.76 16.70 <
10 3 6 -1 1 0.52 3.14 6.18 <
10 3 6 0 1 30.02 34.72 15.38 <
10 4 0 -1 -1 1.16 3.55 3.37 <
10 4 0 -1 0 53.57 58.15 9.27 o
10 4 0 -1 1 0.07 7.01 3.26 <
10 4 0 0 -1 11.57 8.86 4.25 <
10 4 0 0 0 1222.40 1116.72 47.17 o
10 4 0 0 1 2.95 2.29 2.39 <
10 4 0 1 -1 3.39 6.54 2.26 <
10 4 0 1 0 180.23 207.70 21.02 o
10 4 0 1 1 5.18 4.17 2.64 <
10 4 1 -1 -1 2.69 1.85 2.42 <
10 4 1 -1 0 17.40 21.07 4.07 o
10 4 1 -1 1 0.02 -1.57 2.13 <
10 4 1 0 -1 0.34 -0.03 1.62 <
10 4 1 0 0 109.97 92.63 11.15 o
10 4 1 0 1 0.24 0.41 2.69 <
10 4 1 1 -1 0.04 0.12 4.83 <
10 4 1 1 0 28.58 21.18 5.33 o
10 4 1 1 1 10.00 5.49 3.13 <
10 4 2 -1 -1 4.37 6.04 2.91 <
10 4 2 -1 0 36.29 33.67 5.60 o
10 4 2 -1 1 0.12 -1.51 2.17 <
10 4 2 0 -1 82.18 97.66 10.02 o
10 4 2 0 0 44.69 58.35 7.22 o
10 4 2 0 1 14.92 23.51 4.72 o
10 4 2 1 -1 19.38 26.91 8.46 o
10 4 2 1 0 8.25 6.93 4.21 <
10 4 2 1 1 0.06 -2.37 2.87 <
10 4 3 -1 -1 1.94 2.44 2.85 <
10 4 3 -1 0 58.21 63.34 7.94 o
10 4 3 -1 1 2.01 4.48 2.66 <
10 4 3 0 -1 6.82 4.00 6.48 <
10 4 3 0 0 19.16 6.14 2.75 <
10 4 3 0 1 4.52 5.33 2.79 <
10 4 3 1 -1 0.01 4.54 2.89 <
10 4 3 1 0 64.40 54.08 12.09 o
10 4 3 1 1 8.12 -4.56 3.39 <
10 4 4 -1 -1 2.28 -2.67 5.35 <
10 4 4 -1 0 19.25 19.60 5.88 o
10 4 4 -1 1 0.34 0.81 3.61 <
10 4 4 0 -1 33.52 32.56 9.28 o
10 4 4 0 0 1319.62 1205.47 59.98 o
10 4 4 0 1 0.89 -2.89 8.75 <
10 4 4 1 -1 1.09 4.07 4.60 <
10 4 4 1 0 79.34 104.19 22.62 o
10 4 4 1 1 3.33 -11.34 6.98 <
10 4 5 -1 -1 3.04 -0.83 4.55 <
10 4 5 -1 0 2.64 0.39 2.70 <
10 4 5 -1 1 0.57 -1.97 3.09 <
10 4 5 0 -1 0.35 -11.86 10.38 <
10 4 5 0 0 170.80 160.15 27.14 o
10 4 5 0 1 0.67 6.73 8.34 <
10 4 5 1 1 7.31 2.35 4.52 <
10 5 0 -1 -1 10.58 9.17 3.25 <
10 5 0 -1 0 56.92 66.23 11.90 o
10 5 0 -1 1 1.04 0.74 3.19 <
10 5 0 0 -1 186.05 185.70 39.21 o
10 5 0 0 0 1179.02 1197.30 51.05 o
10 5 0 0 1 28.22 30.40 8.37 o
10 5 0 1 -1 0.07 -30.06 15.63 <
10 5 0 1 0 54.53 63.03 15.42 o
10 5 0 1 1 19.59 20.86 10.27 <
10 5 1 -1 -1 4.80 6.07 3.76 <
10 5 1 -1 0 0.00 0.79 1.87 <
10 5 1 -1 1 1.38 0.29 2.49 <
10 5 1 0 -1 14.99 13.09 6.11 <
10 5 1 0 0 152.92 163.59 16.14 o
10 5 1 0 1 28.87 22.00 5.71 o
10 5 1 1 -1 0.53 -5.10 4.09 <
10 5 1 1 0 4.15 7.07 4.96 <
10 5 1 1 1 2.42 3.07 3.77 <
10 5 2 -1 -1 1.89 6.79 2.98 <
10 5 2 -1 0 6.56 5.06 3.50 <
10 5 2 -1 1 1.55 -2.45 2.59 <
10 5 2 0 -1 72.89 76.03 14.02 o
10 5 2 0 0 446.52 502.18 31.39 o
10 5 2 0 1 194.18 210.04 18.57 o
10 5 2 1 -1 0.00 -5.45 6.73 <
10 5 2 1 0 12.41 6.29 4.99 <
10 5 2 1 1 2.30 0.38 4.95 <
10 5 3 -1 -1 8.99 8.69 5.46 <
10 5 3 -1 0 4.76 -5.01 4.12 <
10 5 3 -1 1 0.09 0.27 2.33 <
10 5 3 0 -1 13.15 7.00 5.37 <
10 5 3 0 0 327.89 341.59 26.61 o
10 5 3 0 1 3.47 1.90 3.83 <
10 5 3 1 -1 0.96 -3.78 4.18 <
10 5 3 1 0 43.54 48.46 16.05 o
10 5 3 1 1 2.61 -7.51 5.57 <
10 5 4 -1 -1 9.46 7.96 6.79 <
10 5 4 -1 0 52.99 61.99 11.88 o
10 5 4 -1 1 0.23 -3.67 4.98 <
10 5 4 0 -1 88.20 82.80 18.70 o
10 5 4 0 0 254.40 239.25 32.22 o
10 5 4 0 1 1.50 8.00 6.07 <
10 5 5 -1 -1 1.64 4.55 6.40 <
10 5 5 -1 0 2.29 7.24 4.40 <
10 5 5 -1 1 2.39 6.42 7.73 <
10 6 0 -1 -1 14.22 25.23 11.04 <
10 6 0 -1 0 66.04 71.84 14.12 o
10 6 0 -1 1 7.06 4.24 4.27 <
10 6 0 0 -1 2.43 -1.08 2.73 <
10 6 0 0 0 220.41 232.99 31.48 o
10 6 0 0 1 33.61 30.94 10.90 <
10 6 0 1 -1 2.80 -12.98 10.83 <
10 6 0 1 0 7.25 7.30 5.01 <
10 6 0 1 1 0.40 2.07 4.19 <
10 6 1 -1 -1 0.00 -1.38 2.52 <
10 6 1 -1 0 0.00 2.16 2.40 <
10 6 1 -1 1 2.04 -0.13 2.62 <
10 6 1 0 -1 22.72 14.85 6.68 <
10 6 1 0 0 68.93 42.37 11.33 o
10 6 1 0 1 56.66 57.52 11.23 o
10 6 1 1 -1 0.91 6.19 4.58 <
10 6 1 1 0 21.30 27.29 9.38 <
10 6 1 1 1 0.68 -13.51 9.32 <
10 6 2 -1 -1 0.04 3.96 3.81 <
10 6 2 -1 0 3.02 4.36 4.34 <
10 6 2 -1 1 9.92 12.34 5.41 <
10 6 2 0 -1 27.62 35.02 10.25 o
10 6 2 0 0 952.07 929.16 53.52 o
10 6 2 0 1 43.27 51.89 11.02 o
10 6 2 1 0 12.55 4.16 6.68 <
10 6 2 1 1 3.48 -0.06 4.23 <
10 6 3 -1 -1 0.06 -2.10 4.04 <
10 6 3 -1 0 4.44 10.39 5.26 <
10 6 3 -1 1 0.02 3.00 5.43 <
10 6 3 0 -1 12.06 32.31 17.07 <
10 6 3 0 0 564.97 740.49 58.42 o
10 6 3 0 1 4.57 -0.20 6.32 <
10 6 4 -1 -1 10.64 11.77 5.42 <
10 6 4 -1 0 39.99 54.14 16.22 o
10 6 4 -1 1 4.54 0.24 1.44 <
10 7 0 -1 -1 0.55 3.41 4.77 <
10 7 0 -1 0 57.51 51.61 15.71 o
10 7 0 -1 1 0.04 9.45 7.27 <
10 7 0 0 -1 99.66 152.58 37.17 o
10 7 0 0 0 1157.48 1411.74 111.97 o
10 7 0 0 1 289.18 344.65 55.79 o
10 7 1 -1 -1 2.75 4.09 4.11 <
10 7 1 -1 0 6.48 8.18 5.52 <
10 7 1 -1 1 4.84 -0.44 5.82 <
10 7 1 0 0 7.25 4.52 4.32 <
10 7 2 -1 -1 4.86 -0.04 4.19 <
10 7 2 -1 0 15.29 16.61 6.96 <
10 7 2 -1 1 2.55 1.80 4.00 <
10 7 2 0 1 24.60 23.11 15.10 <
10 7 3 -1 0 0.94 15.50 12.06 <
11 0 0 0 1 65.51 73.38 12.07 o
11 0 0 1 0 26.17 45.55 10.02 o
11 0 0 1 1 7.85 5.72 4.31 <
11 0 1 -1 1 0.05 5.33 5.23 <
11 0 1 0 0 58.00 49.99 13.52 o
11 0 1 0 1 10.73 9.15 4.07 <
11 0 1 1 -1 9.97 23.28 10.15 <
11 0 1 1 0 7.19 -2.37 3.77 <
11 0 1 1 1 7.16 6.93 3.65 <
11 0 2 0 1 21.00 25.32 5.87 o
11 0 2 1 0 185.26 237.87 20.65 o
11 0 2 1 1 2.75 3.21 2.65 <
11 0 3 -1 1 7.08 8.37 4.03 <
11 0 3 0 0 282.89 328.21 31.53 o
11 0 3 0 1 127.05 139.92 14.31 o
11 0 3 1 -1 1.83 14.09 9.05 <
11 0 3 1 0 1.59 0.06 6.24 <
11 0 3 1 1 18.42 20.67 6.13 o
11 0 4 0 1 30.19 28.96 9.01 o
11 0 4 1 0 17.42 20.38 8.92 <
11 0 4 1 1 5.95 13.41 6.89 <
11 0 5 -1 1 3.50 -0.14 4.42 <
11 0 5 0 0 398.91 325.60 54.20 o
11 0 5 0 1 3.28 -1.70 3.06 <
11 0 5 1 1 1.42 9.07 11.23 <
11 1 0 -1 -1 2.47 3.82 4.52 <
11 1 0 -1 0 36.97 37.96 9.29 o
11 1 0 -1 1 13.48 21.75 6.18 o
11 1 0 0 -1 56.68 64.51 11.63 o
11 1 0 0 0 1083.41 1040.71 47.17 o
11 1 0 0 1 196.74 181.43 39.70 o
11 1 0 1 -1 2.26 12.37 9.14 <
11 1 0 1 0 1.87 -5.75 4.85 <
11 1 0 1 1 0.17 4.55 5.36 <
11 1 1 -1 -1 5.98 4.36 3.11 <
11 1 1 -1 0 0.84 4.12 2.81 <
11 1 1 -1 1 0.04 1.45 2.31 <
11 1 1 0 -1 23.54 34.39 7.08 o
11 1 1 0 0 121.73 91.46 10.55 o
11 1 1 0 1 10.47 14.91 5.10 <
11 1 1 1 -1 5.39 8.58 4.95 <
11 1 1 1 0 0.81 -2.95 2.64 <
11 1 1 1 1 10.51 3.80 2.54 <
11 1 2 -1 -1 1.23 -1.18 3.52 <
11 1 2 -1 0 3.31 5.63 3.42 <
11 1 2 -1 1 2.89 6.80 3.09 <
11 1 2 0 -1 12.94 5.71 4.17 <
11 1 2 0 0 384.81 399.11 24.08 o
11 1 2 0 1 11.34 15.72 5.14 o
11 1 2 1 -1 0.30 4.86 5.89 <
11 1 2 1 0 8.35 -2.90 6.00 <
11 1 2 1 1 3.42 3.21 3.20 <
11 1 3 -1 -1 5.15 -1.26 3.97 <
11 1 3 -1 0 0.53 1.18 4.05 <
11 1 3 -1 1 1.69 4.21 2.65 <
11 1 3 0 -1 2.72 5.24 7.25 <
11 1 3 0 0 1019.30 952.00 41.34 o
11 1 3 0 1 7.31 5.28 3.34 <
11 1 3 1 -1 14.48 4.46 3.29 <
11 1 3 1 0 34.88 36.88 10.46 o
11 1 3 1 1 5.51 -2.41 3.83 <
11 1 4 -1 -1 0.90 -1.29 4.44 <
11 1 4 -1 0 9.60 12.98 5.75 <
11 1 4 -1 1 4.55 4.46 3.33 <
11 1 4 0 -1 21.98 26.75 9.22 <
11 1 4 0 0 494.84 448.19 36.35 o
11 1 4 0 1 74.79 79.17 12.08 o
11 1 4 1 0 0.74 -14.81 11.60 <
11 1 4 1 1 0.05 4.20 8.09 <
11 1 5 -1 -1 4.36 7.87 8.80 <
11 1 5 -1 0 0.60 -7.29 5.50 <
11 1 5 -1 1 0.27 -8.14 4.98 <
11 1 5 0 1 35.19 46.84 19.50 <
11 1 6 -1 1 0.07 -29.01 16.38 <
11 2 0 -1 -1 0.86 7.23 6.67 <
11 2 0 -1 0 5.51 4.57 4.51 <
11 2 0 -1 1 3.42 10.50 7.93 <
11 2 0 0 0 1326.38 1308.47 61.59 o
11 2 0 0 1 14.53 6.27 3.44 <
11 2 0 1 -1 2.89 8.44 11.54 <
11 2 0 1 0 2.63 4.43 5.57 <
11 2 0 1 1 1.85 1.27 2.48 <
11 2 1 -1 -1 0.01 -0.09 3.20 <
11 2 1 -1 0 3.01 4.22 3.30 <
11 2 1 -1 1 0.17 1.15 2.75 <
11 2 1 0 -1 2.47 1.00 4.05 <
11 2 1 0 0 3.96 12.05 3.95 o
11 2 1 0 1 25.09 26.25 5.86 o
11 2 1 1 -1 0.15 -7.30 4.93 <
11 2 1 1 0 7.12 3.30 2.81 <
11 2 1 1 1 4.19 3.22 1.89 <
11 2 2 -1 -1 8.49 21.23 6.53 o
11 2 2 -1 0 19.73 15.22 4.43 o
11 2 2 -1 1 8.27 11.02 4.68 <
11 2 2 0 -1 1.11 -0.86 2.86 <
11 2 2 0 0 414.71 504.17 29.16 o
11 2 2 0 1 107.66 128.97 14.73 o
11 2 2 1 -1 1.22 1.49 4.71 <
11 2 2 1 0 91.66 132.50 23.34 o
11 2 2 1 1 6.57 5.06 5.39 <
11 2 3 -1 -1 0.17 4.23 3.67 <
11 2 3 -1 0 2.76 2.76 3.85 <
11 2 3 -1 1 0.58 -0.73 3.44 <
11 2 3 0 -1 17.85 24.24 9.13 <
11 2 3 0 0 2.14 6.06 4.82 <
11 2 3 0 1 8.58 6.08 3.38 <
11 2 3 1 -1 0.51 -11.73 10.01 <
11 2 3 1 0 0.16 2.79 5.70 <
11 2 3 1 1 7.00 7.35 7.31 <
11 2 4 -1 -1 0.80 -5.25 5.23 <
11 2 4 -1 0 0.37 -4.91 3.54 <
11 2 4 -1 1 0.61 -2.81 2.78 <
11 2 4 0 -1 70.79 73.93 26.95 <
11 2 4 0 0 209.72 204.76 42.01 o
11 2 4 0 1 0.46 -7.78 7.19 <
11 2 5 -1 -1 0.10 -3.86 9.47 <
11 2 5 -1 0 2.96 -27.99 15.47 <
11 2 5 -1 1 0.01 -0.77 6.88 <
11 2 5 0 1 26.08 18.80 16.22 <
11 3 0 -1 -1 1.29 3.92 3.76 <
11 3 0 -1 0 2.84 0.51 4.89 <
11 3 0 -1 1 10.50 8.95 5.46 <
11 3 0 0 -1 6.14 -3.37 7.52 <
11 3 0 0 0 18.34 13.11 8.63 <
11 3 0 0 1 36.26 46.07 11.57 o
11 3 1 -1 -1 0.03 0.12 3.27 <
11 3 1 -1 0 14.25 11.98 3.55 o
11 3 1 -1 1 3.03 -0.88 2.71 <
11 3 1 0 -1 14.44 1.72 3.46 <
11 3 1 0 0 201.77 202.16 37.37 o
11 3 1 0 1 19.46 16.74 5.23 o
11 3 2 -1 -1 4.23 8.54 4.04 <
11 3 2 -1 0 2.32 5.00 3.00 <
11 3 2 -1 1 2.20 6.30 3.63 <
11 3 2 0 -1 29.06 38.05 12.16 o
11 3 2 0 0 85.04 79.08 17.08 o
11 3 2 0 1 12.67 14.03 5.97 <
11 3 3 -1 -1 1.95 -11.81 7.97 <
11 3 3 -1 0 0.07 6.97 4.82 <
11 3 3 -1 1 0.13 -2.41 3.07 <
11 3 3 0 -1 6.86 16.36 11.56 <
11 3 3 0 0 40.95 53.84 13.83 o
11 3 3 0 1 1.60 -10.18 6.57 <
11 3 3 1 0 1.84 -13.58 10.72 <
11 3 3 1 1 4.83 9.53 7.71 <
11 3 4 -1 -1 0.79 8.79 11.74 <
11 3 4 -1 0 2.27 11.82 5.79 <
11 3 4 -1 1 4.80 3.31 1.98 <
11 3 4 0 1 13.74 5.38 5.14 <
11 3 5 -1 1 5.11 -15.36 11.60 <
11 4 0 -1 1 3.39 4.65 3.66 <
11 4 0 0 1 0.33 24.54 14.04 <
11 4 1 -1 0 2.37 4.10 2.52 <
11 4 1 -1 1 0.03 -1.76 2.66 <
11 4 1 0 1 27.86 42.38 19.98 <
11 4 1 1 1 4.08 -15.88 11.63 <
11 4 2 -1 -1 8.76 8.61 4.00 <
11 4 2 -1 0 0.28 3.94 4.40 <
11 4 2 -1 1 5.10 9.00 5.02 <
11 4 2 0 0 2.15 5.21 8.43 <
11 4 2 0 1 34.35 51.52 23.09 <
11 4 2 1 1 6.64 -0.43 7.87 <
11 4 3 -1 -1 0.13 7.40 7.56 <
11 4 3 -1 0 41.46 34.36 11.11 o
11 4 3 -1 1 3.05 4.99 5.12 <
11 4 3 0 -1 4.11 17.12 11.94 <
11 4 3 0 0 51.70 32.21 16.65 <
11 4 3 0 1 3.05 7.07 4.88 <
11 4 4 -1 0 12.23 6.80 5.36 <
11 4 4 -1 1 1.70 -0.83 3.79 <
11 4 4 0 1 2.48 6.35 5.53 <
11 4 5 -1 1 0.28 5.08 1.99 <
11 5 0 -1 0 78.44 83.60 25.80 o
11 5 0 -1 1 2.47 1.37 2.50 <
11 5 0 0 1 1.50 8.29 11.53 <
11 5 1 -1 0 30.74 49.35 20.77 <
11 5 1 -1 1 0.84 -7.37 6.59 <
11 5 1 0 0 0.69 -4.05 8.96 <
11 5 1 0 1 4.30 -11.46 8.06 <
11 5 2 -1 -1 2.83 9.89 12.39 <
11 5 2 -1 0 0.01 -2.01 7.90 <
11 5 2 -1 1 0.53 1.21 4.46 <
11 5 2 0 1 3.27 -2.65 5.60 <
11 5 3 -1 0 60.25 64.42 17.60 o
11 5 3 -1 1 1.13 -4.25 6.87 <
11 5 4 -1 1 6.21 -0.59 9.45 <
11 6 0 -1 0 80.38 51.99 22.70 <
11 6 0 -1 1 7.45 15.79 8.84 <
11 6 1 -1 0 25.31 15.37 8.32 <
11 6 1 -1 1 10.50 14.85 7.63 <
11 6 2 -1 1 1.92 -6.61 7.33 <
12 0 0 -1 1 35.27 37.97 13.19 <
12 0 0 0 0 106.75 193.81 42.16 o
12 0 0 0 1 94.15 123.42 19.09 o
12 0 0 1 1 17.21 16.98 12.01 <
12 0 1 0 1 11.90 22.29 6.48 o
12 0 1 1 1 0.59 -6.11 8.18 <
12 0 2 -1 1 9.73 19.86 9.24 <
12 0 2 0 1 0.02 11.03 5.32 <
12 0 2 1 1 5.91 27.36 14.97 <
12 0 3 0 1 50.15 37.04 19.38 <
12 0 4 -1 1 15.25 22.57 14.21 <
12 1 0 -1 -1 0.19 2.67 4.80 <
12 1 0 -1 0 1.29 -2.28 3.65 <
12 1 0 -1 1 0.35 24.77 7.60 o
12 1 0 0 0 54.02 37.45 17.94 <
12 1 0 1 1 0.00 -9.05 8.50 <
12 1 1 -1 -1 0.78 -15.78 11.50 <
12 1 1 -1 0 6.17 11.83 5.78 <
12 1 1 -1 1 2.54 4.57 3.43 <
12 1 1 0 0 239.67 229.94 31.46 o
12 1 1 0 1 35.99 27.08 8.56 o
12 1 1 1 1 0.97 2.73 4.37 <
12 1 2 -1 -1 3.36 4.04 4.72 <
12 1 2 -1 0 1.45 6.69 5.13 <
12 1 2 -1 1 7.46 15.30 6.31 <
12 1 2 0 0 0.04 7.85 12.52 <
12 1 2 0 1 22.35 21.44 9.39 <
12 1 2 1 1 0.01 -8.25 6.07 <
12 1 3 -1 0 65.06 51.66 21.88 <
12 1 3 -1 1 0.15 0.20 4.00 <
12 1 3 0 1 0.13 -0.27 3.38 <
12 1 4 -1 1 0.78 10.40 8.59 <
12 2 0 -1 -1 10.84 19.41 7.82 <
12 2 0 -1 0 5.24 0.54 2.08 <
12 2 0 -1 1 3.07 28.62 16.79 <
12 2 0 0 0 842.26 977.46 88.04 o
12 2 0 0 1 0.42 -0.02 0.41 <
12 2 1 -1 -1 1.17 4.59 4.34 <
12 2 1 -1 0 22.18 29.77 9.21 o
12 2 1 -1 1 0.25 -0.40 2.80 <
12 2 1 0 0 0.20 5.50 1.66 o
12 2 1 0 1 9.11 6.90 7.81 <
12 2 2 -1 0 30.25 37.36 11.11 o
12 2 2 -1 1 30.88 33.83 9.29 o
12 2 2 0 0 94.85 85.52 28.06 o
12 2 2 0 1 0.22 -10.44 9.33 <
12 2 3 -1 0 2.79 -2.12 10.15 <
12 2 3 -1 1 0.23 24.56 14.35 <
12 3 2 -1 0 12.86 15.11 8.65 <
12 3 2 -1 1 0.49 2.43 2.26 <
12 3 3 -1 1 1.68 -11.51 9.99 <
