#------------------------------------------------------------------------------
#$Date: 2016-04-02 04:14:52 +0300 (Sat, 02 Apr 2016) $
#$Revision: 180693 $
#$URL: svn://www.crystallography.net/cod/cif/2/10/74/2107484.cif $
#------------------------------------------------------------------------------
#
# This file is available in the Crystallography Open Database (COD),
# http://www.crystallography.net/. The original data for this entry
# were provided by IUCr Journals, http://journals.iucr.org/.
#
# The file may be used within the scientific community so long as
# proper attribution is given to the journal article from which the
# data were obtained.
#
data_2107484
loop_
_publ_author_name
'Pogoda, Dorota'
'Janczak, Jan'
'Videnova-Adrabinska, Veneta'
_publ_section_title
;
 New polymorphs of an old drug: conformational and synthon polymorphism of
 5-nitrofurazone
;
_journal_coeditor_code           XK5025
_journal_issue                   2
_journal_name_full               'Acta Crystallographica Section B'
_journal_page_first              263
_journal_page_last               273
_journal_paper_doi               10.1107/S2052520615024956
_journal_volume                  72
_journal_year                    2016
_chemical_formula_moiety         'C6 H6 N4 O4'
_chemical_formula_sum            'C6 H6 N4 O4'
_chemical_formula_weight         198.15
_space_group_crystal_system      monoclinic
_space_group_IT_number           4
_space_group_name_Hall           'P 2yb'
_space_group_name_H-M_alt        'P 1 21 1'
_symmetry_space_group_name_Hall  'P 2yb'
_symmetry_space_group_name_H-M   'P 1 21 1'
_atom_sites_solution_hydrogens   mixed
_audit_creation_method           SHELXL-2014/7
_cell_angle_alpha                90
_cell_angle_beta                 90.924(7)
_cell_angle_gamma                90
_cell_formula_units_Z            2
_cell_length_a                   4.1964(3)
_cell_length_b                   7.0129(5)
_cell_length_c                   14.4528(10)
_cell_measurement_reflns_used    1345
_cell_measurement_temperature    295(2)
_cell_measurement_theta_max      29.40
_cell_measurement_theta_min      3.02
_cell_volume                     425.28(5)
_computing_cell_refinement
;
Oxford Diffraction  (2010). CrysAlis Red,
Version 1.171.33.42
;
_computing_data_collection
;
Oxford Diffraction  (2010). CrysAlis CCD,
Version 1.171.33.42
;
_computing_data_reduction
;
Oxford Diffraction  (2010). CrysAlis Red,
Version 1.171.33.42
;
_computing_molecular_graphics
;
Brandenburg & Putz (2006). Diamond 3.0. Crystal and Molecular
Structure Visualisation, University of Bonn, Germany
;
_computing_publication_material  'SHELXL-2014/7 (Sheldrick, 2015)'
_computing_structure_refinement  'SHELXL-2014/7 (Sheldrick, 2015)'
_computing_structure_solution    'SHELXS-97 (Sheldrick, 1990)'
_diffrn_ambient_temperature      295(2)
_diffrn_detector_area_resol_mean '1024x1024 with blocks 2x2'
_diffrn_measured_fraction_theta_full 0.990
_diffrn_measured_fraction_theta_max 0.945
_diffrn_measurement_device_type  'KUMA KM-4 CCD'
_diffrn_measurement_method       \w-scan
_diffrn_radiation_monochromator  graphite
_diffrn_radiation_type           MoK\a
_diffrn_radiation_wavelength     0.71073
_diffrn_reflns_av_R_equivalents  0.0204
_diffrn_reflns_limit_h_max       5
_diffrn_reflns_limit_h_min       -5
_diffrn_reflns_limit_k_max       9
_diffrn_reflns_limit_k_min       -7
_diffrn_reflns_limit_l_max       19
_diffrn_reflns_limit_l_min       -19
_diffrn_reflns_number            5895
_diffrn_reflns_theta_full        27.000
_diffrn_reflns_theta_max         29.432
_diffrn_reflns_theta_min         2.819
_exptl_absorpt_coefficient_mu    0.132
_exptl_absorpt_correction_T_max  0.9837
_exptl_absorpt_correction_T_min  0.9742
_exptl_absorpt_correction_type   numerical
_exptl_absorpt_process_details
;
Oxford Diffraction  (2010). CrysAlis Red,
Version 1.171.33.42
;
_exptl_crystal_colour            yellow
_exptl_crystal_density_diffrn    1.547
_exptl_crystal_density_meas      1.54
_exptl_crystal_density_method    floatation
_exptl_crystal_description       parallelepiped
_exptl_crystal_F_000             204
_exptl_crystal_size_max          0.240
_exptl_crystal_size_mid          0.220
_exptl_crystal_size_min          0.160
_refine_diff_density_max         0.096
_refine_diff_density_min         -0.103
_refine_ls_abs_structure_details
;
 Flack x determined using 449 quotients [(I+)-(I-)]/[(I+)+(I-)]
 (Parsons, Flack and Wagner, Acta Cryst. B69 (2013) 249-259).
;
_refine_ls_abs_structure_Flack   -0.10(10)
_refine_ls_extinction_method     none
_refine_ls_goodness_of_fit_ref   1.002
_refine_ls_hydrogen_treatment    mixed
_refine_ls_matrix_type           full
_refine_ls_number_parameters     136
_refine_ls_number_reflns         1893
_refine_ls_number_restraints     1
_refine_ls_restrained_S_all      1.001
_refine_ls_R_factor_all          0.0561
_refine_ls_R_factor_gt           0.0320
_refine_ls_shift/su_max          0.000
_refine_ls_shift/su_mean         0.000
_refine_ls_structure_factor_coef Fsqd
_refine_ls_weighting_details
'w=1/[\s^2^(Fo^2^)+(0.0270P)^2^] where P=(Fo^2^+2Fc^2^)/3'
_refine_ls_weighting_scheme      calc
_refine_ls_wR_factor_gt          0.0526
_refine_ls_wR_factor_ref         0.0592
_reflns_number_gt                1386
_reflns_number_total             1893
_reflns_threshold_expression     'I > 2\s(I)'
_cod_data_source_file            xk5025sup1.cif
_cod_data_source_block           1066p
_cod_database_code               2107484
_shelx_space_group_comment
;
The symmetry employed for this shelxl refinement is uniquely defined
by the following loop, which should always be used as a source of
symmetry information in preference to the above space-group names.
They are only intended as comments.
;
_shelx_estimated_absorpt_t_min   0.969
_shelx_estimated_absorpt_t_max   0.979
_shelx_hkl_file
;
   0   0  -2   22.04    0.15
   0   0  -2   22.16    0.29
   0   0  -3  547.69    2.32
   0   0  -3  547.49    2.39
   0   0  -3  547.56    2.08
   0   0  -4  321.87    2.06
   0   0  -4  321.84    2.00
   0   0  -4  321.77    1.80
   0   0  -5   12.06    0.51
   0   0  -5   11.24    0.59
   0   0  -5   11.73    0.61
   0   0  -6   21.55    0.66
   0   0  -6   20.92    0.75
   0   0  -6   20.71    0.75
   0   0  -7    1.79    0.53
   0   0  -7    1.72    0.37
   0   0  -7    1.41    0.47
   0   0  -7    1.11    0.45
   0   0  -8    1.22    0.37
   0   0  -8    1.07    0.47
   0   0  -8    1.06    0.29
   0   0  -8    0.88    0.47
   0   0  -8    1.67    0.56
   0   0  -9    5.36    0.53
   0   0  -9    4.55    0.42
   0   0  -9    5.28    0.62
   0   0  -9    4.92    0.70
   0   0  -9    4.86    0.61
   0   0 -10    8.82    0.88
   0   0 -10   10.43    0.80
   0   0 -10    9.39    0.65
   0   0 -10    9.84    0.82
   0   0 -11  141.70    2.51
   0   0 -11  141.78    2.11
   0   0 -11  141.78    2.46
   0   0 -11  141.79    2.50
   0   0 -12   14.14    0.84
   0   0 -12   14.71    1.14
   0   0 -12   14.21    1.01
   0   0 -12   14.73    1.03
   0   0 -13    0.18    0.58
   0   0 -13    0.79    0.74
   0   0 -13    0.08    0.83
   0   0  14    4.29    0.90
   0   0 -14    4.41    0.79
   0   0 -14    4.26    0.93
   0   0 -14    4.42    0.83
   0   0 -15    5.14    1.08
   0   0  15    5.34    0.96
   0   0 -15    5.58    0.93
   0   0 -16   -0.30    0.91
   0   0 -16   -0.02    0.75
   0   0  16   -0.15    0.87
   0   0 -17    1.81    1.00
   0   0  17    1.12    0.84
   0   0 -17    0.76    0.89
   0   0 -18    8.73    1.33
   0   0  18    7.04    1.20
   0   0 -18    5.92    1.04
   0   0 -19    2.06    1.00
   0   0  19   -0.19    0.91
   0  -1  -1  394.49    1.67
   0   1  -1  391.89    0.24
   0  -1  -2 1082.13    3.28
   0   1  -2 1095.17    3.19
   0  -1  -2 1086.70    2.87
   0   1  -2 1085.75    2.58
   0   1  -3  175.48    1.33
   0  -1  -3  176.57    1.16
   0  -1  -3  173.35    1.52
   0  -1  -3  173.69    1.43
   0   1  -3  174.84    1.52
   0   1  -4   77.91    1.03
   0   1  -4   77.34    1.08
   0   1  -4   77.74    1.13
   0  -1  -4   77.25    1.10
   0   1  -4   77.46    1.17
   0  -1  -4   77.07    0.92
   0   1   4   77.24    1.18
   0  -1  -4   77.92    1.12
   0   1  -5   54.04    1.14
   0   1  -5   54.71    1.06
   0   1  -5   54.08    0.74
   0   1  -5   54.41    1.06
   0   1   5   54.92    1.17
   0  -1  -5   54.51    0.96
   0  -1  -5   54.62    1.12
   0  -1  -5   54.56    1.12
   0   1  -5   54.77    1.15
   0   1  -6   43.33    0.72
   0  -1  -6   43.21    1.01
   0   1  -6   44.10    1.01
   0   1   6   43.56    0.84
   0  -1  -6   44.57    1.04
   0   1   6   44.17    1.09
   0  -1  -6   43.17    0.92
   0   1  -6   44.23    1.09
   0   1  -6   44.22    0.96
   0   1  -6   44.34    1.14
   0  -1  -7    4.89    0.49
   0   1   7    4.14    0.55
   0   1  -7    5.03    0.48
   0   1  -7    4.67    0.63
   0   1  -7    4.85    0.52
   0  -1  -7    4.12    0.49
   0   1  -7    4.54    0.59
   0  -1  -7    3.93    0.51
   0   1  -7    4.39    0.33
   0   1   7    4.17    0.35
   0   1  -8  100.26    1.83
   0   1  -8  104.77    1.85
   0  -1  -8  108.18    1.85
   0  -1  -8  106.76    1.74
   0   1  -8  106.15    1.77
   0  -1  -8  102.04    1.63
   0   1  -8  102.42    1.57
   0   1   8   99.85    1.35
   0   1  -8  106.48    1.34
   0   1   8  103.20    1.87
   0   1   9   91.49    1.91
   0   1  -9   93.61    1.92
   0  -1  -9   95.36    1.88
   0   1  -9   94.67    1.60
   0   1  -9   98.44    1.93
   0  -1  -9   95.21    1.71
   0   1  -9   96.19    1.82
   0  -1  -9   95.99    1.75
   0   1  -9   98.82    1.39
   0   1   9   91.45    1.33
   0  -1 -10   46.57    1.45
   0   1 -10   45.90    1.52
   0  -1 -10   48.44    1.34
   0  -1 -10   49.32    1.36
   0   1 -10   47.25    1.48
   0   1 -10   50.63    1.45
   0   1 -10   47.34    1.22
   0   1  10   46.90    1.52
   0   1  11   35.40    1.44
   0  -1 -11   36.54    1.37
   0   1 -11   35.06    1.33
   0   1 -11   35.41    1.42
   0  -1 -11   34.94    1.25
   0   1 -11   35.00    1.12
   0   1 -11   32.89    1.42
   0  -1 -11   34.24    1.23
   0   1 -12   49.60    1.61
   0   1 -12   50.16    1.74
   0   1  12   47.21    1.72
   0   1 -12   50.66    1.69
   0  -1 -12   48.84    1.48
   0  -1 -12   52.00    1.56
   0  -1 -12   51.53    1.68
   0   1 -13   21.22    1.19
   0   1 -13   21.50    1.30
   0  -1 -13   22.53    1.28
   0   1 -13   20.53    1.32
   0  -1 -13   23.01    1.35
   0   1  13   21.21    1.32
   0  -1 -13   21.13    1.15
   0  -1 -13   20.91    1.10
   0   1 -14    0.38    0.78
   0   1  14    0.13    0.78
   0  -1 -14    0.58    0.59
   0  -1 -14    0.38    0.71
   0  -1 -14   -0.26    0.66
   0  -1 -14    1.34    0.89
   0   1 -14    0.37    0.83
   0   1 -15    3.02    0.95
   0  -1 -15    2.68    0.75
   0   1 -15    3.31    0.97
   0  -1 -15    3.10    0.98
   0   1  15    2.96    0.97
   0   1 -16    7.30    1.17
   0   1 -16    7.68    1.10
   0  -1 -16    6.31    1.20
   0   1  16    8.34    1.21
   0  -1 -17    0.31    0.90
   0   1 -17    0.00    0.77
   0   1 -17    1.65    1.05
   0   1  17    1.23    0.96
   0  -1  18   -0.31    1.02
   0   1 -18    1.54    1.04
   0  -1 -18   -0.31    1.03
   0   1  18    1.49    0.98
   0   1 -19    0.76    0.94
   0  -1 -19   -2.24    0.93
   0   1  19   -0.08    0.88
   0  -1  19   -0.34    0.82
   0   2   0   66.11    0.68
   0  -2   0   64.19    0.81
   0   2  -1  194.99    1.37
   0  -2   1  190.99    1.12
   0   2  -1  192.52    1.70
   0  -2  -1  186.24    1.52
   0   2   1  192.29    1.73
   0   2  -2  242.12    1.86
   0   2   2  236.45    2.01
   0  -2  -2  241.09    1.42
   0   2   2  241.58    1.91
   0   2  -2  249.33    1.97
   0   2   2  240.19    1.89
   0   2  -2  241.30    2.02
   0   2  -2  238.31    1.74
   0  -2  -2  232.78    1.88
   0   2  -3  131.12    1.56
   0  -2  -3  127.69    1.26
   0   2  -3  130.55    1.08
   0   2   3  128.55    1.50
   0  -2  -3  128.90    1.55
   0   2   3  123.58    1.53
   0   2  -3  128.68    1.47
   0   2  -3  126.99    1.46
   0   2  -3  124.31    1.56
   0   2   3  129.04    1.53
   0   2  -4  454.76    3.04
   0   2  -4  453.00    2.36
   0  -2  -4  450.04    2.68
   0   2  -4  459.02    3.10
   0   2  -4  454.97    2.93
   0  -2  -4  446.27    3.06
   0   2   4  457.97    2.99
   0   2   4  458.26    3.05
   0   2  -4  456.63    2.97
   0   2   5   11.88    0.60
   0  -2  -5   11.20    0.65
   0   2  -5   11.78    0.65
   0   2  -5   11.61    0.52
   0   2  -5   11.83    0.65
   0   2  -5   11.26    0.65
   0  -2  -5   11.69    0.50
   0   2   5   11.89    0.66
   0  -2  -6    2.07    0.49
   0   2  -6    2.51    0.53
   0   2   6    2.40    0.41
   0   2  -6    2.23    0.49
   0   2   6    2.00    0.52
   0  -2  -6    2.31    0.42
   0   2  -6    1.79    0.46
   0   2  -6    2.32    0.39
   0   2   7   33.27    0.96
   0   2   7   33.72    1.12
   0   2  -7   34.17    0.96
   0   2  -7   32.47    1.10
   0  -2  -7   32.27    0.82
   0  -2  -7   32.99    1.08
   0  -2  -7   32.59    1.01
   0   2  -7   33.83    1.13
   0   2  -7   33.24    1.04
   0  -2  -8   46.26    1.06
   0   2  -8   47.11    1.36
   0   2   8   47.53    1.14
   0   2  -8   50.46    1.24
   0   2  -8   49.69    1.40
   0   2  -8   48.72    1.29
   0  -2  -8   51.77    1.37
   0   2   8   47.08    1.38
   0  -2  -8   51.25    1.33
   0   2  -9    6.87    0.78
   0  -2  -9    7.47    0.74
   0   2  -9    7.48    0.64
   0  -2  -9    8.14    0.70
   0   2   9    6.44    0.54
   0  -2  -9    7.35    0.61
   0   2   9    7.61    0.81
   0   2  -9    7.21    0.71
   0   2  -9    6.80    0.79
   0   2  10   12.12    0.97
   0  -2 -10   12.46    0.75
   0   2  10   12.46    0.68
   0   2 -10   11.66    0.97
   0   2 -10   13.61    0.99
   0  -2 -10   11.66    0.87
   0  -2 -10   12.09    0.89
   0   2 -10   12.76    0.86
   0   2 -10   12.11    0.81
   0   2 -11    9.12    0.99
   0  -2 -11    8.94    0.73
   0  -2 -11    8.70    0.84
   0  -2 -11    9.37    0.89
   0   2 -11    8.12    0.92
   0   2 -11    9.50    0.82
   0   2  11    9.63    0.98
   0   2 -11    9.35    0.83
   0  -2 -12    7.90    0.87
   0  -2 -12    7.12    0.85
   0   2 -12    6.35    0.91
   0   2 -12    5.82    0.92
   0   2 -12    6.43    0.79
   0   2  12    6.42    0.94
   0  -2 -13   23.76    1.29
   0   2  13   24.78    1.39
   0  -2 -13   24.90    1.28
   0   2 -13   24.67    1.39
   0   2 -13   24.18    1.39
   0   2  14   26.53    1.51
   0   2 -14   28.76    1.59
   0  -2 -14   26.09    1.38
   0   2 -14   28.74    1.56
   0  -2 -14   26.85    1.42
   0   2 -15    5.85    1.09
   0   2  15    4.18    1.07
   0   2 -15    4.05    0.96
   0  -2 -15    6.28    0.88
   0  -2 -16    1.65    1.05
   0   2 -16    1.69    0.94
   0   2 -16    1.64    1.07
   0   2  16    1.61    1.00
   0  -2 -16    1.63    0.82
   0   2 -17    6.95    1.18
   0   2  17    6.25    1.12
   0  -2 -17    6.90    1.27
   0   2 -17    6.06    1.02
   0   2  18    0.06    1.03
   0  -2 -18    0.13    0.99
   0   2 -18   -0.13    0.79
   0  -2 -19   -1.53    0.96
   0   3   0    0.04    0.33
   0   3   0    0.14    0.20
   0   3   0   -0.16    0.42
   0   3   0    0.56    0.39
   0   3   0    0.16    0.37
   0   3  -1  119.72    1.56
   0   3   1  118.55    1.58
   0   3  -1  118.33    1.61
   0  -3  -1  114.96    1.42
   0   3   1  118.54    1.42
   0   3   1  117.19    0.92
   0  -3   1  113.12    1.15
   0   3   1  118.01    1.59
   0   3  -1  119.21    1.26
   0   3  -1  115.66    1.55
   0   3  -1  118.42    1.61
   0   3   1  117.71    1.68
   0   3  -2  102.96    1.31
   0   3  -2  105.29    1.50
   0   3   2   96.36    1.20
   0  -3  -2  104.60    1.48
   0   3  -2  103.13    1.60
   0   3  -2  103.72    1.41
   0   3   2  104.54    1.52
   0   3   2  101.68    1.61
   0  -3  -2  100.28    0.95
   0   3  -2  105.67    1.57
   0  -3   2   98.55    0.91
   0   3   2  103.13    1.52
   0   3   3   12.31    0.66
   0   3  -3   12.47    0.53
   0   3  -3   12.32    0.67
   0  -3  -3   13.05    0.66
   0   3  -3   12.42    0.68
   0   3  -3   12.26    0.60
   0   3   3   12.52    0.65
   0  -3  -3   11.73    0.45
   0   3   3   12.69    0.72
   0   3  -3   12.45    0.63
   0   3   4  250.18    2.62
   0  -3  -4  257.94    2.59
   0   3   4  253.46    2.51
   0  -3  -4  246.10    2.03
   0   3  -4  246.26    2.55
   0   3  -4  252.46    2.44
   0   3  -4  252.04    2.41
   0   3  -4  251.37    1.96
   0   3   4  250.49    2.54
   0   3  -4  250.62    2.65
   0   3   5  100.63    1.74
   0  -3  -5  100.46    1.73
   0   3  -5   98.85    1.75
   0   3   5   99.19    0.97
   0   3  -5   98.56    1.77
   0   3   5   95.78    1.71
   0  -3  -5  100.31    1.46
   0   3  -5   99.94    1.68
   0   3  -5   98.16    1.64
   0   3  -6   80.86    1.67
   0  -3  -6   75.14    1.39
   0   3  -6   78.89    1.60
   0  -3  -6   79.76    1.64
   0   3   6   74.65    1.60
   0   3  -6   75.70    1.61
   0   3   6   74.99    1.56
   0   3  -7    3.94    0.64
   0  -3  -7    3.92    0.62
   0   3  -7    4.73    0.65
   0   3   7    4.92    0.61
   0  -3  -7    4.27    0.55
   0   3  -7    4.35    0.63
   0   3   7    4.44    0.67
   0   3  -8    9.30    0.81
   0  -3  -8    8.60    0.78
   0   3   8    9.56    0.83
   0   3  -8    9.78    0.85
   0   3  -8    9.27    0.85
   0   3   8    9.56    0.73
   0  -3  -8    9.56    0.69
   0   3  -9    0.94    0.65
   0   3  -9    1.18    0.70
   0   3   9    0.76    0.47
   0  -3  -9    1.22    0.64
   0   3   9    1.32    0.65
   0  -3  -9    1.34    0.53
   0   3  -9    1.39    0.68
   0   3 -10   18.75    1.13
   0   3 -10   19.97    1.18
   0   3  10   18.62    0.95
   0  -3 -10   19.28    1.04
   0   3  10   20.93    1.19
   0  -3 -10   21.01    1.14
   0   3 -10   19.54    1.20
   0  -3 -11    1.26    0.61
   0   3 -11    1.50    0.69
   0   3  11    0.85    0.47
   0  -3 -11    0.96    0.71
   0   3 -11    0.69    0.74
   0   3  11    0.96    0.79
   0   3 -11    1.47    0.76
   0  -3 -12   18.55    1.15
   0   3  12   19.56    1.28
   0   3 -12   18.73    1.30
   0  -3 -12   18.30    1.20
   0   3 -12   18.37    1.24
   0   3 -12   19.32    1.16
   0  -3 -13   12.59    1.05
   0   3 -13   12.13    1.21
   0   3 -13   13.58    1.08
   0  -3 -13   13.65    1.13
   0   3  13   13.74    1.23
   0   3 -13   13.42    1.21
   0   3 -14    3.71    0.98
   0   3  14    3.00    0.96
   0  -3 -14    2.16    0.80
   0   3 -14    3.75    1.04
   0  -3 -15   35.00    1.69
   0   3 -15   33.76    1.78
   0   3 -15   40.87    1.93
   0   3  15   40.82    1.93
   0  -3 -16    3.50    0.82
   0   3 -16    1.57    1.00
   0   3 -16    1.45    0.87
   0   3  16    1.42    0.93
   0   3  17    3.01    1.14
   0   3 -17    2.05    0.96
   0  -3 -17    3.51    0.90
   0   3  18    0.23    1.08
   0  -3 -18    2.15    1.13
   0   3 -18    1.30    0.94
   0   4   0   20.41    0.55
   0   4   0   22.27    0.91
   0   4   0   21.81    0.85
   0   4   0   21.11    0.83
   0   4   0   22.54    0.91
   0  -4   0   21.02    0.68
   0   4   1   21.31    0.90
   0   4  -1   21.21    0.85
   0  -4  -1   20.91    0.73
   0   4  -1   20.66    0.87
   0   4   1   21.28    0.86
   0  -4   1   19.27    0.60
   0   4  -1   20.98    0.89
   0   4  -1   21.32    0.65
   0   4   1   20.35    0.89
   0   4  -1   20.11    0.83
   0   4   1   22.59    0.81
   0   4   2   30.96    1.11
   0   4  -2   30.16    0.99
   0   4   2   30.78    1.05
   0   4   2   31.55    1.05
   0   4  -2   31.28    1.07
   0  -4  -2   31.99    0.96
   0   4  -2   31.86    1.09
   0   4  -2   32.96    0.86
   0   4   2   31.38    0.87
   0   4  -2   32.79    1.00
   0  -4   2   30.25    0.65
   0   4  -3  256.45    2.71
   0   4   3  259.37    2.19
   0   4  -3  259.40    2.46
   0   4   3  265.17    2.81
   0   4  -3  260.71    2.85
   0  -4  -3  264.78    2.72
   0   4  -3  263.29    2.54
   0   4  -3  253.50    2.90
   0   4   3  257.95    2.97
   0   4   3  257.74    2.78
   0   4  -4   70.44    1.65
   0  -4  -4   69.51    1.54
   0  -4  -4   69.27    1.09
   0   4  -4   72.21    1.61
   0   4   4   67.11    1.61
   0   4  -4   68.47    1.29
   0   4   4   69.24    1.55
   0   4  -4   69.52    1.42
   0   4  -4   70.86    1.51
   0   4   4   65.54    1.50
   0   4   5    0.58    0.56
   0   4  -5    0.29    0.56
   0   4  -5    0.81    0.58
   0   4  -5    0.80    0.53
   0   4  -5    0.76    0.51
   0   4   5    0.72    0.55
   0  -4  -5    0.45    0.50
   0  -4  -5    0.60    0.32
   0   4  -6   36.15    1.28
   0  -4  -6   35.04    0.98
   0   4  -6   35.21    1.21
   0   4   6   37.29    1.30
   0   4  -6   36.39    1.33
   0  -4  -6   36.04    1.28
   0   4   6   34.85    1.26
   0   4  -6   38.27    1.24
   0   4  -7    1.60    0.67
   0   4   7    1.95    0.65
   0   4  -7    1.87    0.67
   0  -4  -7    1.82    0.42
   0   4  -7    2.08    0.71
   0  -4  -7    1.88    0.62
   0   4   7    1.69    0.59
   0   4  -8    1.63    0.67
   0   4   8    1.73    0.64
   0   4  -8    2.46    0.74
   0   4   8    2.06    0.72
   0   4  -8    1.89    0.70
   0  -4  -8    2.23    0.69
   0  -4  -8    2.22    0.53
   0   4  -9    0.66    0.72
   0   4   9    1.08    0.57
   0   4  -9    0.54    0.67
   0   4  -9    0.72    0.74
   0  -4  -9    0.84    0.67
   0  -4  -9    0.76    0.51
   0   4   9    0.99    0.73
   0   4  10    5.68    0.72
   0   4 -10    4.94    0.85
   0   4 -10    5.62    0.87
   0   4  10    5.72    0.88
   0   4 -10    5.45    0.91
   0  -4 -10    6.42    0.88
   0  -4 -10    4.94    0.64
   0   4 -11    1.42    0.80
   0   4  11    1.32    0.78
   0   4 -11    0.63    0.77
   0   4  11    0.95    0.54
   0  -4 -11    1.04    0.69
   0   4 -11    0.37    0.76
   0   4  12    2.78    0.94
   0   4 -12    1.93    0.80
   0   4 -12    2.25    0.86
   0   4 -12    2.90    0.95
   0  -4 -12    2.48    0.87
   0   4  12    2.01    0.57
   0   4 -13   13.35    1.25
   0   4  13   14.17    1.31
   0   4 -13   13.13    1.20
   0  -4 -13   13.10    1.20
   0   4 -13   13.57    1.29
   0   4 -14   16.48    1.34
   0   4 -14   18.31    1.44
   0   4  14   18.87    1.49
   0   4 -14   16.93    1.31
   0  -4 -14   15.63    1.29
   0   4 -15    6.79    1.04
   0   4 -15    7.89    1.14
   0   4  15    8.74    1.33
   0  -4 -15    7.68    1.11
   0   4 -15    8.86    1.35
   0   4 -16    1.85    1.03
   0   4  16    1.64    1.16
   0   4 -17    2.48    1.00
   0   4  17    3.28    1.29
   0   5   0    0.14    0.49
   0   5   0   -0.05    0.53
   0   5   0   -0.14    0.58
   0  -5   0    0.22    0.29
   0   5   0    0.06    0.54
   0   5   1   13.91    0.79
   0   5  -1   12.54    0.80
   0   5  -1   13.89    0.87
   0   5  -1   13.48    0.92
   0   5   1   12.48    0.80
   0   5   1   12.19    0.90
   0  -5  -1   11.94    0.67
   0   5  -1   13.17    0.85
   0   5   1   12.41    0.87
   0   5  -2   28.04    1.17
   0   5   2   28.82    1.11
   0  -5  -2   27.86    1.01
   0   5  -2   26.63    1.07
   0   5   2   28.84    1.17
   0   5  -2   29.01    1.18
   0   5   2   29.28    1.21
   0   5  -2   28.61    1.08
   0   5   2   29.40    0.99
   0   5   3   41.08    1.34
   0   5  -3   41.46    1.30
   0  -5  -3   41.74    1.26
   0   5  -3   42.76    1.42
   0   5   3   41.42    1.45
   0   5   3   43.21    1.38
   0   5  -3   42.33    1.41
   0   5  -3   42.65    1.25
   0   5  -4    3.77    0.76
   0   5  -4    3.66    0.77
   0   5  -4    3.01    0.62
   0  -5  -4    3.68    0.64
   0   5   4    3.08    0.65
   0   5  -4    4.39    0.56
   0   5   4    4.14    0.69
   0   5  -4    3.84    0.57
   0   5   4    4.08    0.75
   0   5   5    4.56    0.68
   0   5  -5    5.60    0.72
   0  -5  -5    4.70    0.68
   0   5   5    6.45    0.84
   0   5  -5    5.33    0.84
   0   5  -5    5.66    0.73
   0   5  -5    5.20    0.76
   0   5   5    5.91    0.82
   0   5   6    3.45    0.72
   0   5  -6    3.05    0.83
   0   5  -6    3.21    0.63
   0  -5  -6    3.20    0.68
   0   5  -6    3.12    0.66
   0   5  -6    2.23    0.74
   0   5   6    3.07    0.70
   0   5  -7    7.02    0.87
   0   5  -7    7.47    0.82
   0   5   7    6.83    0.83
   0   5  -7    6.45    0.78
   0   5  -7    8.49    1.05
   0  -5  -7    7.04    0.84
   0   5   7    7.51    0.89
   0   5   8   24.11    1.29
   0   5  -8   24.65    1.23
   0   5  -8   25.46    1.41
   0  -5  -8   24.87    1.28
   0   5   8   24.92    1.30
   0   5  -8   24.09    1.30
   0  -5  -9    9.54    1.01
   0   5   9    9.32    0.95
   0   5  -9    9.36    0.97
   0   5  -9    9.21    1.07
   0   5  -9    9.60    1.00
   0   5   9    8.73    0.99
   0   5 -10   16.49    1.29
   0   5 -10   17.93    1.26
   0   5  10   17.23    1.24
   0   5  10   16.01    1.12
   0   5 -10   16.80    1.22
   0  -5 -10   18.85    1.29
   0   5  11   13.51    1.09
   0   5 -11   14.82    1.20
   0   5  11   13.25    1.19
   0   5 -11   13.70    1.26
   0   5 -11   14.42    1.21
   0  -5 -11   15.73    1.27
   0   5 -12   16.14    1.40
   0  -5 -12   16.39    1.30
   0   5  12   16.53    1.32
   0   5 -12   17.44    1.37
   0   5 -12   16.87    1.27
   0   5  12   17.43    1.19
   0  -5 -13    4.44    0.96
   0   5 -13    5.64    1.06
   0   5  13    5.14    1.08
   0   5 -13    6.53    1.08
   0   5 -13    4.12    0.95
   0   5 -14   -1.05    0.90
   0   5 -14   -0.47    0.99
   0  -5 -14   -1.09    0.66
   0   5 -14    1.80    0.98
   0   5  14    0.00    1.02
   0   5  15    2.69    1.11
   0   5 -15    0.85    0.83
   0   5 -15    2.65    1.02
   0   5 -16   -0.81    0.86
   0   5  16    0.54    0.99
   0   5 -16    0.72    1.03
   0   6   0  249.70    3.36
   0   6   0  252.56    3.23
   0   6   0  246.02    3.26
   0   6   0  255.86    3.47
   0   6  -1   35.57    1.40
   0   6   1   34.52    1.41
   0   6  -1   37.30    1.43
   0   6   1   36.06    1.38
   0   6   1   35.67    1.46
   0   6   1   34.59    1.27
   0   6  -1   34.48    1.34
   0   6  -1   35.23    1.43
   0   6  -2    4.89    0.72
   0   6   2    4.93    0.78
   0   6  -2    4.04    0.69
   0   6   2    4.89    0.96
   0   6  -2    4.39    0.83
   0   6   2    4.00    0.77
   0   6  -2    4.13    0.83
   0   6   3    1.85    0.74
   0   6   3    2.68    0.75
   0   6  -3    3.64    0.65
   0  -6  -3    2.97    0.60
   0   6  -3    3.04    0.84
   0   6  -3    2.63    0.76
   0   6   3    2.37    0.67
   0   6  -3    2.21    0.61
   0   6   4    3.47    0.73
   0   6  -4    2.09    0.60
   0  -6  -4    3.01    0.64
   0   6   4    3.68    0.79
   0   6  -4    3.24    0.83
   0   6   4    2.21    0.76
   0   6  -4    2.35    0.71
   0  -6  -5    4.80    0.77
   0   6  -5    5.24    0.92
   0   6  -5    4.61    0.72
   0   6  -5    5.66    0.83
   0   6   5    5.07    0.80
   0   6   5    5.52    0.88
   0   6   5    5.28    0.90
   0   6   6    1.64    0.76
   0   6  -6    2.29    0.65
   0   6  -6    2.01    0.80
   0   6   6    1.49    0.70
   0  -6  -6    1.33    0.63
   0   6  -6    2.17    0.71
   0   6   7    2.29    0.78
   0   6   7    2.77    0.80
   0   6  -7    1.79    0.89
   0  -6  -7    2.37    0.73
   0   6  -7    2.41    0.79
   0   6  -7    2.21    0.69
   0   6   8    1.98    0.75
   0   6  -8    2.23    0.94
   0   6   8    2.17    0.81
   0  -6  -8    1.18    0.68
   0   6  -8    1.36    0.74
   0   6  -9    5.97    0.95
   0   6   9    5.55    0.95
   0   6  -9    5.31    1.07
   0   6  -9    5.88    0.93
   0  -6  -9    5.40    0.97
   0   6   9    6.98    0.93
   0   6 -10   -0.20    0.77
   0   6  10    0.83    0.88
   0   6 -10    0.54    0.76
   0   6  10   -0.34    0.68
   0   6 -10    0.52    1.05
   0  -6 -10   -0.06    0.79
   0   6 -11   15.44    1.42
   0   6 -11   17.23    1.31
   0   6  11   15.14    1.25
   0   6 -11   15.45    1.43
   0  -6 -11   15.55    1.29
   0   6  11   14.90    1.31
   0   6  12    2.19    0.73
   0   6 -12    2.73    0.97
   0   6 -12    2.66    0.91
   0   6 -12    1.50    1.04
   0  -6 -12    0.93    0.78
   0   6  12    2.54    0.95
   0   6  13    2.40    0.72
   0   6 -13    3.41    0.97
   0   6 -13    2.50    1.02
   0   6  13    3.17    1.15
   0   6 -13    1.66    0.94
   0   6  14    0.94    1.12
   0   6 -14   -0.77    1.08
   0   6 -14    1.34    0.93
   0   6  15    0.88    0.92
   0   6 -15   -0.30    1.05
   0   6 -15    2.56    0.74
   0   7   0   -0.35    0.61
   0   7   0    0.29    0.68
   0   7   0   -0.48    0.82
   0   7  -1    7.90    1.02
   0   7   1    8.86    1.07
   0   7   1    7.47    0.87
   0   7  -1    8.25    0.86
   0   7  -1    8.17    0.94
   0   7  -1    8.59    0.96
   0   7   1    8.39    0.99
   0   7   2   36.75    1.52
   0   7  -2   37.43    1.64
   0   7  -2   35.31    1.46
   0   7  -2   35.87    1.59
   0   7   2   36.27    1.65
   0   7   2   35.00    1.57
   0   7  -2   37.65    1.51
   0   7  -3   10.90    0.96
   0   7   3   10.89    0.97
   0   7  -3   12.29    1.08
   0   7  -3   10.31    1.10
   0   7   3   11.09    1.10
   0   7   3   10.16    1.15
   0   7   4    5.05    0.82
   0   7   4    5.70    1.01
   0   7  -4    5.00    0.86
   0   7  -4    4.22    0.77
   0   7  -4    4.62    0.96
   0   7   4    5.16    0.89
   0   7  -5    0.40    0.91
   0   7   5   -0.02    0.76
   0   7  -5   -0.10    0.75
   0   7   5    1.53    0.92
   0  -7  -5    0.37    0.60
   0   7   5    0.35    0.72
   0   7   6    1.48    0.74
   0   7  -6    0.61    0.87
   0  -7  -6    1.00    0.67
   0   7  -6    0.55    0.78
   0   7   6    0.52    0.75
   0   7  -7    1.97    0.78
   0  -7  -7    1.36    0.67
   0   7   7    1.85    0.89
   0   7  -7    2.10    0.97
   0   7  -8    2.69    0.94
   0  -7  -8    1.14    0.71
   0   7   8    1.70    0.85
   0   7   8    1.22    0.75
   0   7  -8    1.25    0.90
   0   7   9    3.01    0.90
   0  -7  -9    3.44    0.77
   0   7  -9    5.57    0.92
   0   7  -9    3.78    1.09
   0   7   9    3.72    0.95
   0  -7 -10    3.98    0.70
   0   7  10    3.93    0.91
   0   7  10    3.99    1.01
   0   7 -10    3.90    0.92
   0   7 -10    3.93    1.12
   0   7 -11   -0.72    1.19
   0   7 -11    1.81    0.79
   0   7  11   -0.48    0.68
   0   7  11    0.19    1.06
   0   7 -12    2.55    1.18
   0   7  12    4.23    0.96
   0   7 -12    2.02    0.99
   0   7  12    2.24    0.93
   0   7 -13   -0.07    1.18
   0   7  13    1.40    0.92
   0   7 -13    0.67    0.83
   0   8   0    0.71    0.83
   0   8   0    2.15    0.79
   0   8  -1    1.14    0.69
   0   8  -1   -0.14    0.86
   0   8   1    1.18    0.67
   0   8   1    1.63    0.86
   0   8   2    4.20    0.85
   0   8  -2    2.20    0.76
   0   8  -2    2.40    0.88
   0   8   2    2.68    0.85
   0   8   3    5.50    0.91
   0   8  -3    4.24    0.99
   0   8   3    5.68    0.95
   0   8  -3    6.27    1.03
   0   8   4    3.89    0.91
   0   8  -4    5.38    1.02
   0   8  -4    3.61    0.99
   0   8   4    5.22    0.99
   0   8   5    0.09    0.80
   0   8  -5   -0.35    1.01
   0   8   5    1.43    0.92
   0   8  -5    0.28    0.71
   0   8  -6   -0.42    0.77
   0   8   6   -1.33    0.81
   0   8  -6   -1.01    1.04
   0   8   7   -0.16    0.71
   0   8  -7   -0.10    1.03
   0   8  -7   -0.54    0.90
   0   8   7   -1.11    0.83
   0   8  -8   -0.38    1.07
   0   8  -8    0.00    0.81
   0   8   8    0.94    0.79
   0   8   8    0.51    1.36
   0   8  -9    0.63    0.87
   0   8  -9    0.22    0.92
   0   8   9    0.64    0.77
   0   8   9    1.57    0.91
   0   8 -10    0.48    0.90
   0   8  10    0.00    0.81
   0   8 -10    0.20    1.10
   0   8  10    0.95    0.93
   0   8  11    0.85    0.72
   0   8 -11    0.78    0.87
   0   9   0    0.20    0.71
   0   9   1    0.38    0.68
   0   9   2    1.26    0.74
   0   9   3    0.56    0.78
   0   9   4   -0.56    0.78
   0   9  -4   -0.53    1.02
   0   9  -5   -1.38    1.01
   0   9   5   -1.03    0.77
   0   9  -6    0.99    1.09
  -1   0  19    0.40    0.86
   1   0 -19   -0.37    0.90
  -1   0  18    0.29    0.95
   1   0 -18   -0.46    1.07
   1   0 -17    0.47    0.85
   1   0 -17    0.10    0.95
   1   0 -17    0.90    0.68
   1   0 -16    0.50    0.80
   1   0 -16   -0.24    0.83
   1   0 -16   -0.17    0.67
   1   0 -15   17.50    1.26
   1   0 -15   18.21    1.28
   1   0 -15   17.03    1.35
   1   0 -14    0.78    0.67
   1   0 -14    1.15    0.70
   1   0 -14    1.38    0.84
   1   0 -13    6.35    0.94
   1   0 -13    5.40    0.80
   1   0 -13    5.88    0.81
   1   0 -12    3.76    0.57
   1   0 -12    4.17    0.70
   1   0 -12    4.17    0.87
   1   0 -12    3.64    0.67
   1   0 -11    3.39    0.87
   1   0 -11    2.33    0.63
   1   0 -11    3.44    0.67
   1   0 -11    2.62    0.49
   1   0 -10   25.24    1.15
   1   0 -10   25.78    0.98
   1   0 -10   25.21    1.18
   1   0  -9    2.12    0.54
   1   0  -9    1.61    0.36
   1   0  -9    1.05    0.54
   1   0  -9    2.19    0.43
   1   0  -8  522.89    4.05
   1   0  -8  522.35    3.51
   1   0  -8  521.45    3.95
   1   0  -8  521.64    3.21
   1   0  -7   12.08    0.71
   1   0  -7   11.60    0.69
   1   0  -7   11.83    0.54
   1   0  -6  118.79    1.65
   1   0  -6  115.45    1.71
   1   0  -6  116.26    1.41
   1   0  -5   10.10    0.48
   1   0  -5    9.50    0.58
   1   0  -5    9.15    0.54
   1   0  -4    0.11    0.34
   1   0  -4    0.13    0.28
   1   0  -4    0.32    0.40
   1   0  -3    2.40    0.43
   1   0  -3    2.41    0.40
   1   0  -2    0.20    0.34
   1   0  -2    0.16    0.39
  -1   0   1   58.88    0.89
   1   0  -1   58.85    0.90
   1   0  -1   58.89    0.86
   1   0   0  182.33    1.53
  -1   0   0  186.92    1.57
   1   0   0  189.13    1.55
   1   0   1  334.55    2.13
   1   0   1  334.30    2.10
  -1   0  -1  334.48    2.10
  -1   0  -2    7.19    0.55
   1   0   2    7.78    0.51
   1   0   3 4684.13   35.36
  -1   0  -3 4683.67   33.83
   1   0   4  265.02    2.31
  -1   0  -4  265.42    2.18
   1   0   4  265.34    2.03
  -1   0  -4  265.89    2.06
   1   0   5   70.86    1.16
  -1   0  -5   70.87    1.17
   1   0   5   70.86    1.27
  -1   0  -5   70.82    1.20
   1   0   6    0.72    0.42
  -1   0  -6    1.31    0.44
  -1   0  -6    0.74    0.44
   1   0   7    7.17    0.62
  -1   0  -7    7.55    0.61
  -1   0  -7    7.36    0.67
  -1   0  -8    7.36    0.70
  -1   0  -8    7.72    0.63
   1   0   8    7.83    0.70
  -1   0  -9    1.25    0.63
  -1   0  -9    1.44    0.51
   1   0   9    1.26    0.60
   1   0  10    1.83    0.67
  -1   0 -10    2.07    0.71
  -1   0 -10    2.16    0.59
   1   0  11    1.73    0.72
  -1   0 -11    1.26    0.75
  -1   0 -11    1.20    0.59
   1   0  12    9.39    0.96
  -1   0 -12    7.74    0.95
  -1   0 -12    7.67    0.79
   1   0  13   14.93    1.14
  -1   0 -13   15.35    1.22
  -1   0 -14   28.38    1.54
   1   0  14   25.43    1.44
  -1   0 -15   11.57    1.25
   1   0  15   10.17    1.15
  -1   0 -16    3.28    1.01
   1   0  16    1.81    0.92
   1   0  17    1.10    0.79
  -1   0 -17    1.13    0.91
   1   0  18    0.97    0.91
  -1   0 -18    1.98    1.18
   1   0  19    0.40    0.76
  -1   0 -19    0.88    0.87
   1  -1 -19   -1.13    0.96
  -1   1  19   -0.43    0.84
   1   1 -18    2.30    1.12
   1  -1 -18    0.43    1.00
  -1   1  18    2.10    1.02
  -1   1  17    0.15    0.88
   1   1 -17    0.29    0.56
   1  -1 -17    0.65    0.62
   1   1 -17    0.74    0.89
   1  -1 -17    0.62    1.02
   1   1 -17    0.99    0.98
   1   1 -16    1.39    0.75
   1   1 -16    1.84    0.85
   1  -1 -16    1.96    0.80
   1   1 -16    1.65    0.97
  -1   1  16    2.89    0.91
   1  -1 -16    3.01    1.04
   1  -1 -15   18.94    1.48
   1   1 -15   18.97    1.32
   1   1 -15   18.94    1.33
   1  -1 -15   18.91    1.32
  -1   1  15   18.94    1.34
   1   1 -15   18.95    1.23
   1   1 -14    6.35    0.86
  -1   1  14    6.13    1.02
   1   1 -14    6.15    0.99
   1  -1 -14    5.64    0.77
   1  -1 -14    5.41    0.84
   1   1 -14    6.01    0.93
   1  -1 -13   17.23    1.17
   1   1 -13   15.53    1.18
   1   1 -13   17.40    1.18
   1   1 -13   18.20    1.12
  -1   1  13   16.67    1.23
   1  -1 -13   16.74    1.04
   1  -1 -13   17.07    1.02
   1   1 -12    5.26    0.76
   1   1 -12    5.43    0.93
   1   1 -12    5.96    0.88
   1  -1 -12    5.80    0.70
   1  -1 -12    5.98    0.85
   1  -1 -12    5.19    0.70
   1   1 -11    1.16    0.67
   1  -1 -11    1.06    0.59
   1   1 -11    1.04    0.60
   1   1 -11    0.38    0.73
   1  -1 -11    1.16    0.52
   1  -1 -11    1.10    0.53
   1  -1 -10   33.31    1.16
   1  -1 -10   33.61    1.30
   1   1 -10   31.53    1.28
   1   1 -10   33.04    1.09
   1   1 -10   32.74    1.23
   1   1 -10   34.04    1.32
   1  -1 -10   32.81    1.13
   1   1  -9   52.82    1.28
   1  -1  -9   54.17    1.38
   1   1  -9   51.35    1.08
   1   1  -9   52.73    1.50
   1  -1  -9   52.82    1.47
   1   1  -9   52.81    1.43
   1  -1  -9   51.68    1.28
   1   1  -9   49.10    1.44
   1   1  -8  156.72    2.05
   1  -1  -8  160.02    2.03
   1  -1  -8  161.16    2.31
   1   1  -8  158.09    2.22
   1  -1  -8  158.01    2.16
   1   1  -8  157.63    1.74
  -1   1   8  152.54    1.80
   1   1  -8  162.48    2.36
   1   1  -8  151.30    2.19
   1  -1  -7   23.79    0.88
   1  -1  -7   23.51    0.81
  -1   1   7   21.44    0.71
   1   1  -7   23.32    0.82
   1   1  -7   23.22    0.88
   1   1  -7   22.71    0.88
   1  -1  -7   22.87    0.92
   1   1  -7   22.40    0.93
   1   1  -6  138.32    1.89
   1   1  -6  138.13    1.99
   1  -1  -6  138.02    1.98
   1  -1  -6  138.46    1.68
  -1   1   6  138.26    1.67
   1   1  -6  138.56    1.83
   1   1  -6  138.23    1.85
  -1   1   5  150.15    1.66
   1   1  -5  149.78    1.76
   1  -1  -5  150.65    1.86
   1   1  -5  149.28    1.88
   1   1  -5  150.65    1.67
   1  -1  -5  150.87    1.55
   1   1  -5  150.55    1.79
   1   1  -4   98.24    1.43
   1   1  -4  100.50    1.41
   1  -1  -4   96.37    1.41
  -1   1   4   98.64    1.33
   1  -1  -4   96.51    1.16
   1   1  -4   96.87    1.34
   1   1  -4  100.51    1.23
   1   1  -4   96.85    1.45
   1   1  -3   21.73    0.70
   1   1  -3   21.73    0.70
  -1  -1   3   21.78    0.57
   1   1  -3   21.76    0.71
   1   1  -3   21.79    0.64
  -1   1   3   21.71    0.66
   1  -1  -3   21.72    0.67
   1  -1  -3   21.75    0.52
   1   1  -2  188.46    1.70
   1   1  -2  188.69    1.75
   1   1  -2  188.93    1.78
   1  -1  -2  189.18    1.39
  -1   1   2  188.47    1.77
  -1  -1   2  188.73    1.52
   1   1  -2  188.96    1.59
   1  -1  -2  188.55    1.68
   1  -1  -1  163.33    1.52
   1   1  -1  168.27    1.63
  -1  -1   1  164.11    1.44
  -1   1   1  166.45    1.63
   1   1  -1  166.63    1.45
   1   1  -1  162.27    1.58
   1  -1  -1  169.54    1.31
  -1   1   0  621.02    2.93
  -1  -1   0  613.65    2.84
   1  -1   0  615.51    2.81
   1   1   0  617.36    2.96
  -1   1   0  633.74    3.02
   1  -1   0  617.42    2.60
   1   1   0  619.34    2.73
   1  -1   1  866.40    3.38
  -1  -1  -1  867.87    3.54
  -1   1  -1  872.31    3.42
   1   1   1  873.54    3.32
   1   1   1  871.50    3.55
  -1   1  -1  884.51    3.54
  -1  -1  -2 1469.05    4.88
   1   1   2 1484.16    4.80
   1   1   2 1508.38    4.58
   1   1   2 1478.43    4.64
  -1   1  -2 1480.26    4.46
   1  -1   2 1474.78    4.61
  -1  -1  -3  362.69    2.60
   1   1   3  362.44    2.51
  -1   1  -3  367.34    2.46
  -1   1  -3  365.67    2.27
   1  -1   3  359.49    2.46
   1   1   3  363.94    2.49
   1   1   3  359.30    2.46
  -1   1  -4  147.84    1.48
  -1  -1  -4  146.72    1.78
   1   1   4  146.05    1.75
   1   1   4  149.73    1.73
  -1   1  -4  150.55    1.73
  -1   1  -4  149.22    1.53
   1  -1   4  146.70    1.72
  -1   1  -5  133.33    1.72
   1  -1   5  137.20    1.79
  -1   1  -5  134.75    1.53
  -1   1  -5  131.79    1.77
   1   1   5  133.86    1.78
  -1  -1  -5  133.31    1.78
  -1   1  -6   69.33    1.27
  -1   1  -6   69.84    1.36
   1   1   6   69.84    1.35
  -1   1  -6   69.60    1.14
  -1  -1  -6   69.69    1.36
  -1   1  -6   69.20    1.39
  -1  -1  -7    4.88    0.57
   1   1   7    4.82    0.60
  -1   1  -7    4.53    0.53
  -1  -1  -7    4.21    0.58
  -1   1  -7    3.90    0.61
  -1   1  -7    4.03    0.61
  -1   1  -7    3.77    0.45
  -1   1  -8   15.09    0.88
  -1   1  -8   13.99    0.76
  -1   1  -8   14.57    0.70
   1   1   8   15.03    0.80
  -1  -1  -8   14.51    0.84
  -1   1  -8   14.53    0.87
  -1  -1  -8   14.63    0.86
  -1  -1  -9   21.16    1.03
  -1   1  -9   19.27    1.06
  -1   1  -9   21.37    1.08
  -1   1  -9   21.50    0.84
   1   1   9   19.70    1.04
  -1   1  -9   20.11    0.91
  -1  -1  -9   20.41    0.99
  -1   1 -10    1.97    0.72
  -1   1 -10    1.50    0.55
  -1  -1 -10    1.83    0.71
  -1   1 -10    1.53    0.48
   1   1  10    1.68    0.71
  -1  -1 -10    0.99    0.62
  -1   1 -10    1.44    0.71
  -1   1 -11    5.42    0.87
  -1   1 -11    5.78    0.88
  -1  -1 -11    5.76    0.79
  -1  -1 -11    6.42    0.89
  -1   1 -11    6.04    0.70
   1   1  11    5.53    0.87
  -1   1 -12   28.06    1.38
  -1   1 -12   27.85    1.41
  -1  -1 -12   26.40    1.36
   1   1  12   25.59    1.36
  -1  -1 -12   28.49    1.27
   1  -1  12   25.90    1.32
  -1  -1 -13   12.04    1.10
  -1   1 -13   10.84    1.10
   1   1  13   11.93    1.09
   1  -1  13   10.81    1.04
  -1   1 -13   11.79    1.14
  -1  -1 -13   12.02    1.05
   1   1  14    6.03    0.99
   1  -1  14    5.55    0.92
  -1   1 -14    6.55    1.04
  -1   1 -14    5.26    1.02
  -1  -1 -14    5.41    1.03
  -1  -1 -14    5.25    0.92
  -1   1 -15   16.32    1.33
  -1  -1 -15   16.84    1.34
   1  -1  15   15.65    1.26
   1   1  15   16.29    1.32
  -1  -1 -15   14.51    1.23
   1   1  16   11.22    1.23
  -1  -1 -16   11.89    1.25
   1  -1  16   11.13    1.22
  -1   1 -16   13.60    1.35
   1   1  17   -0.01    0.89
  -1   1 -17   -0.08    0.88
   1  -1  17    0.64    0.93
  -1  -1 -17    0.64    0.99
   1   1  18    0.29    0.96
   1  -1  18    1.44    0.97
  -1  -1 -18    1.36    1.02
  -1   1 -18   -0.40    0.87
  -1   1 -19   -1.75    0.87
   1   1  19    0.14    0.85
   1  -1  19    0.22    0.74
   1  -2 -18    1.64    0.88
   1   2 -18    0.54    0.91
  -1   2  18    1.55    1.07
   1   2 -17    0.28    0.93
   1   2 -17    2.18    0.79
   1   2 -17    0.34    0.78
  -1   2  17    1.33    0.99
   1   2 -16   -0.06    0.86
   1  -2 -16    0.05    0.69
  -1   2  16    0.82    0.93
   1   2 -16    0.81    0.70
   1  -2 -16    1.30    0.79
   1   2 -16    0.75    0.87
  -1   2  15    1.09    0.85
   1   2 -15   -0.46    0.94
   1  -2 -15   -0.13    0.63
   1   2 -15    1.37    0.85
   1   2 -15    0.01    0.62
   1  -2 -15   -0.22    0.71
   1   2 -14   27.58    1.54
   1  -2 -14   29.13    1.48
   1   2 -14   27.31    1.50
  -1   2  14   27.50    1.54
   1   2 -14   25.73    1.37
   1  -2 -14   26.85    1.38
   1   2 -13    9.71    0.92
   1   2 -13   10.26    1.07
   1   2 -13    8.52    1.07
   1  -2 -13    8.44    0.90
  -1   2  13    8.63    1.06
   1  -2 -13    8.67    0.96
  -1   2  12    2.65    0.82
   1   2 -12    4.48    0.88
   1   2 -12    3.04    0.86
   1   2 -12    2.85    0.69
   1  -2 -12    3.23    0.71
   1  -2 -12    3.06    0.73
   1   2 -12    2.57    0.64
   1  -2 -11   65.60    1.84
   1   2 -11   65.97    1.91
  -1   2  11   64.48    1.89
   1   2 -11   62.28    1.81
   1   2 -11   65.33    1.70
   1  -2 -11   66.79    1.83
   1   2 -11   65.49    1.74
   1   2 -10   87.55    1.88
   1  -2 -10   84.09    1.97
   1   2 -10   85.11    1.85
   1  -2 -10   83.65    1.91
  -1   2  10   82.48    1.96
   1   2 -10   83.95    2.04
   1   2 -10   80.52    1.91
   1   2  -9   15.13    0.84
   1   2  -9   16.32    0.91
   1   2  -9   14.70    0.93
  -1   2   9   14.74    0.75
   1  -2  -9   15.59    0.91
   1  -2  -9   14.89    0.71
   1   2  -9   15.06    0.99
  -1   2   9   13.37    0.92
   1  -2  -9   14.57    0.89
  -1   2   8   12.09    0.82
   1   2  -8   10.90    0.83
   1   2  -8   11.26    0.78
   1   2  -8   12.11    0.73
   1  -2  -8   13.15    0.62
   1  -2  -8   12.20    0.82
   1   2  -8   11.64    0.80
  -1   2   8   12.62    0.72
   1  -2  -8   12.50    0.78
   1  -2  -7    1.36    0.31
   1   2  -7    1.39    0.39
   1   2  -7    1.06    0.45
  -1   2   7    1.24    0.47
   1   2  -7    0.92    0.57
   1  -2  -7    1.10    0.47
   1   2  -7    1.14    0.48
   1  -2  -7    1.26    0.46
  -1   2   7    1.37    0.40
  -1   2   6    0.71    0.38
   1   2  -6    0.96    0.41
   1   2  -6    0.71    0.33
   1  -2  -6    0.42    0.40
   1   2  -6    1.02    0.46
   1   2  -6    0.47    0.44
  -1   2   6    0.95    0.43
   1  -2  -6    0.54    0.25
   1  -2  -6    0.47    0.43
   1   2  -5   78.40    1.50
   1   2  -5   77.45    1.25
   1  -2  -5   77.71    1.39
   1   2  -5   78.94    1.30
   1  -2  -5   76.25    0.98
  -1   2   5   78.13    1.32
   1   2  -5   77.57    1.50
  -1   2   5   77.36    1.42
   1   2  -5   77.47    1.50
   1  -2  -4  186.27    1.97
   1   2  -4  191.20    2.17
  -1   2   4  189.14    2.13
   1   2  -4  200.17    1.82
   1  -2  -4  186.87    1.33
  -1   2   4  196.43    1.85
   1   2  -4  187.98    1.79
   1   2  -4  190.56    2.18
  -1   2   4  186.88    2.13
   1   2  -4  185.97    2.18
   1   2  -3  142.81    1.81
   1   2  -3  143.15    1.78
  -1   2   3  138.61    1.76
   1  -2  -3  141.31    1.60
  -1  -2   3  139.37    1.27
   1   2  -3  142.76    1.82
   1  -2  -3  140.93    1.05
   1   2  -3  140.75    1.43
  -1   2   3  143.03    1.82
   1  -2  -2   81.09    0.78
   1   2  -2   79.03    1.28
   1  -2  -2   76.41    1.12
   1   2  -2   80.39    1.03
  -1   2   2   81.02    1.34
   1   2  -2   81.92    1.34
  -1  -2   2   81.65    1.01
   1   2  -2   82.23    1.37
  -1   2   2   80.65    1.38
   1   2  -1  212.42    2.10
  -1  -2   1  210.60    1.70
   1  -2  -1  213.75    1.34
  -1   2   1  215.45    2.13
   1  -2  -1  208.82    1.73
   1   2  -1  214.24    1.58
   1   2  -1  217.38    1.94
   1   2  -1  215.69    2.06
  -1   2   1  213.35    2.04
   1   2  -1  209.41    1.94
  -1  -2   0  607.59    3.04
   1   2   0  602.91    3.32
   1   2   0  611.89    3.17
  -1   2   0  615.00    3.41
   1   2   0  608.00    3.30
   1   2   0  612.07    3.47
   1   2   0  610.21    2.66
  -1   2   0  611.69    3.45
   1  -2   0  595.73    2.83
  -1   2  -1  117.46    1.52
   1   2   1  115.07    1.24
   1   2   1  115.16    1.56
  -1  -2  -1  115.69    1.45
   1   2   1  118.81    1.44
  -1   2  -1  118.36    1.55
  -1   2  -1  118.32    1.58
   1   2   1  116.28    1.56
   1   2   1  114.26    1.39
   1  -2   1  110.21    1.26
   1   2   2   30.83    0.74
  -1  -2  -2   31.53    0.88
  -1   2  -2   31.63    0.92
   1   2   2   30.75    0.89
  -1   2  -2   30.84    0.91
   1   2   2   31.86    0.90
   1  -2   2   30.65    0.73
  -1   2  -2   31.40    0.82
   1   2   2   32.85    0.77
   1   2   2   32.25    0.78
  -1   2  -3   34.40    0.82
   1   2   3   36.89    0.78
  -1  -2  -3   33.58    0.95
  -1   2  -3   35.29    0.75
  -1   2  -3   34.83    0.98
   1   2   3   34.10    0.95
  -1   2  -3   34.62    0.98
   1   2   3   33.39    0.93
   1   2   3   34.33    0.84
   1  -2   3   34.30    0.81
   1   2   3   35.26    0.85
   1   2   4   50.46    1.19
  -1   2  -4   54.38    0.91
  -1   2  -4   52.30    1.15
   1  -2   4   50.12    1.03
  -1   2  -4   49.28    1.20
   1   2   4   52.24    1.09
  -1  -2  -4   51.22    1.19
  -1   2  -4   52.36    0.98
   1   2   4   49.85    1.16
   1   2   4   53.20    1.06
  -1   2  -4   50.92    1.19
   1   2   4   50.07    0.88
  -1   2  -5   30.17    0.98
   1  -2   5   30.06    0.88
  -1   2  -5   30.75    1.04
   1   2   5   30.83    1.01
  -1  -2  -5   31.27    1.01
  -1   2  -5   30.28    1.01
   1   2   5   30.86    0.96
   1   2   5   30.07    0.87
  -1   2  -5   30.59    0.76
  -1   2  -5   32.00    0.73
   1  -2   6   99.05    1.62
  -1   2  -6   97.87    1.27
  -1   2  -6   97.11    1.74
  -1  -2  -6  104.70    1.81
   1   2   6  100.72    1.81
  -1   2  -6   99.72    1.80
  -1   2  -6  101.27    1.76
   1   2   6   96.27    1.63
  -1   2  -6   97.24    1.28
  -1   2  -7   89.56    1.81
  -1  -2  -7   92.02    1.81
  -1   2  -7   88.09    1.72
  -1   2  -7   93.68    1.82
  -1   2  -7   89.88    1.29
   1   2   7   90.60    1.81
   1   2   7   88.48    1.63
   1  -2   7   92.60    1.69
   1   2   8    0.42    0.60
   1   2   8   -0.03    0.47
  -1  -2  -8   -0.05    0.56
  -1   2  -8   -0.17    0.56
  -1   2  -8    0.38    0.63
  -1   2  -8    0.16    0.55
   1   2   9    1.52    0.71
  -1   2  -9    1.42    0.62
  -1  -2  -9    1.39    0.66
   1   2   9    1.71    0.49
  -1   2  -9    1.42    0.65
  -1   2  -9    1.16    0.66
  -1  -2 -10   17.25    1.12
   1   2  10   16.88    0.85
   1   2  10   16.95    1.15
  -1   2 -10   16.52    1.15
  -1   2 -10   16.92    1.01
  -1   2 -10   16.72    1.13
  -1  -2 -11    8.55    0.98
   1   2  11    8.91    0.97
  -1   2 -11    8.24    0.97
  -1   2 -11    8.68    0.98
  -1   2 -11    9.93    0.90
  -1   2 -12    3.33    0.83
   1   2  12    4.13    0.85
  -1  -2 -12    5.25    0.89
  -1  -2 -12    3.82    0.81
  -1   2 -12    4.03    0.80
  -1   2 -12    4.12    0.78
  -1  -2 -13    7.45    1.04
   1   2  13    8.25    1.04
  -1   2 -13    6.11    1.03
  -1   2 -13    6.27    0.97
  -1  -2 -13    7.19    1.01
  -1  -2 -14    3.08    0.89
  -1   2 -14    2.56    0.91
  -1   2 -14    2.69    0.98
  -1  -2 -14    3.43    0.92
   1   2  14    2.90    0.95
   1   2  15    0.56    0.90
  -1   2 -15    0.07    0.85
  -1  -2 -15   -0.26    0.88
  -1   2 -15    0.07    0.95
  -1  -2 -15   -0.28    0.80
   1   2  16    2.70    0.94
  -1   2 -16    3.16    1.02
  -1   2 -16    2.45    0.94
  -1  -2 -16    2.40    1.02
   1  -2  16    2.80    0.88
  -1  -2 -16    1.33    0.92
   1   2  17    3.55    1.17
   1  -2  17    3.94    0.99
  -1  -2 -17    3.33    0.88
  -1   2 -17    3.35    1.03
  -1  -2 -17    3.50    0.82
   1  -2  18    1.35    0.82
  -1   2 -18    2.07    0.94
   1   2  18    2.61    1.12
  -1  -2 -18    1.16    1.01
   1  -2  19    0.60    0.85
  -1   3  18   -0.13    0.83
   1   3 -18   -0.74    0.75
  -1   3  17    1.02    1.01
   1   3 -17    1.07    0.83
  -1   3  16    0.16    0.85
   1   3 -16    0.35    0.71
   1   3 -16    0.51    0.94
   1  -3 -16    1.15    0.76
   1  -3 -16    0.87    0.80
  -1   3  15   -0.17    0.89
   1  -3 -15   -0.49    0.66
   1   3 -15   -0.88    1.02
   1  -3 -15   -0.21    0.79
   1   3 -15    0.02    0.72
  -1   3  14    2.71    0.93
   1   3 -14    3.55    0.68
   1  -3 -14    3.31    0.81
   1  -3 -14    2.53    0.86
   1   3 -14    2.58    0.90
   1   3 -14    3.92    0.96
   1   3 -13   12.23    0.95
   1  -3 -13   11.04    1.04
   1   3 -13   10.16    1.08
   1   3 -13   12.96    1.08
   1   3 -13   12.99    1.21
  -1   3  13   11.08    1.10
   1  -3 -13   11.27    1.11
   1   3 -12  143.40    2.79
   1   3 -12  146.79    3.02
   1   3 -12  140.90    2.61
   1  -3 -12  144.27    2.83
  -1   3  12  140.73    2.83
   1  -3 -12  149.35    2.94
   1   3 -12  141.94    2.73
   1   3 -11   32.16    1.39
   1  -3 -11   37.75    1.54
   1   3 -11   35.72    1.34
   1  -3 -11   36.51    1.46
   1   3 -11   34.97    1.45
  -1   3  11   35.71    1.51
   1   3 -11   36.08    1.58
   1   3 -10   13.27    0.86
   1   3 -10   12.98    0.92
   1  -3 -10   12.99    0.98
  -1   3  10   12.50    0.99
   1   3 -10   12.45    1.04
   1   3 -10   11.82    0.97
   1  -3 -10   12.91    1.03
  -1   3  10   11.49    0.85
  -1   3   9   68.17    1.78
   1  -3  -9   71.15    1.84
   1   3  -9   69.69    1.55
   1  -3  -9   70.45    1.73
   1   3  -9   69.07    1.88
   1   3  -9   69.50    1.81
  -1   3   9   70.84    1.69
   1   3  -9   67.69    1.71
   1   3  -8    6.33    0.75
   1   3  -8    5.79    0.86
   1   3  -8    6.17    0.68
   1   3  -8    6.85    0.57
   1  -3  -8    5.92    0.66
  -1   3   8    7.56    0.76
   1  -3  -8    7.35    0.75
  -1   3   8    6.67    0.69
   1   3  -7    3.80    0.47
  -1   3   7    3.86    0.60
   1  -3  -7    3.67    0.55
   1   3  -7    3.89    0.67
   1   3  -7    3.42    0.59
  -1   3   7    3.84    0.60
   1  -3  -7    3.20    0.59
   1   3  -7    4.06    0.72
   1   3  -6   14.30    0.85
   1   3  -6   13.38    0.88
   1   3  -6   14.81    0.74
   1   3  -6   14.95    0.63
  -1   3   6   14.16    0.83
  -1   3   6   15.08    0.77
   1  -3  -6   12.77    0.82
   1   3  -6   14.71    0.87
   1  -3  -6   14.34    0.74
   1   3  -5   11.73    0.73
   1   3  -5   11.16    0.60
   1  -3  -5   12.69    0.66
  -1   3   5   12.65    0.68
   1   3  -5   12.29    0.54
   1   3  -5   11.07    0.76
  -1   3   5   11.51    0.76
   1  -3  -5   11.60    0.72
   1   3  -5   11.64    0.78
   1   3  -4   28.75    0.70
  -1  -3   4   27.69    0.55
  -1   3   4   28.61    1.06
  -1   3   4   29.58    0.85
   1   3  -4   29.31    0.85
   1   3  -4   29.37    0.77
   1   3  -4   28.25    1.04
   1  -3  -4   28.43    0.84
  -1   3   4   28.20    1.03
   1   3  -4   28.11    0.98
   1   3  -4   27.83    1.02
   1   3  -3   95.29    1.64
   1   3  -3   95.51    1.75
  -1   3   3   95.11    1.39
   1   3  -3   95.33    1.16
   1  -3  -3   95.69    1.39
   1   3  -3   95.05    1.40
  -1  -3   3   95.71    1.11
   1   3  -3   95.57    1.46
  -1   3   3   95.69    1.74
   1   3  -3   95.86    1.77
  -1   3   3   95.42    1.79
   1   3  -2  134.49    1.79
   1  -3  -2  138.13    1.51
   1   3  -2  140.94    2.00
   1   3  -2  143.22    1.54
  -1   3   2  138.36    1.47
   1   3  -2  142.40    2.00
   1   3  -2  140.50    1.25
  -1  -3   2  141.58    1.41
  -1   3   2  145.84    2.06
  -1   3   2  135.30    1.96
   1   3  -2  141.09    1.77
   1   3  -1  207.53    1.77
   1  -3  -1  204.69    1.72
   1   3  -1  212.15    2.40
   1  -3  -1  207.05    1.25
  -1   3   1  207.01    2.38
  -1  -3   1  208.68    1.85
   1   3  -1  208.22    2.11
   1   3  -1  211.23    2.33
   1   3  -1  209.30    1.48
   1   3  -1  212.22    2.22
  -1   3   1  213.98    2.41
  -1   3   1  209.22    2.11
  -1  -3   0   70.07    1.18
   1   3   0   68.03    1.34
   1   3   0   69.65    1.03
  -1   3   0   68.47    1.43
   1   3   0   69.76    1.43
   1   3   0   69.29    1.20
   1   3   0   69.03    0.89
  -1   3   0   68.75    1.30
  -1   3   0   69.78    1.39
   1   3   0   71.05    1.33
   1  -3   0   67.25    0.98
   1   3   1   16.89    0.56
   1   3   1   15.53    0.78
  -1   3  -1   16.49    0.75
   1   3   1   16.26    0.61
  -1   3  -1   16.13    0.76
  -1   3  -1   15.79    0.79
   1   3   1   16.19    0.67
   1   3   1   16.66    0.76
   1  -3   1   15.66    0.52
  -1  -3  -1   15.79    0.68
   1   3   1   16.21    0.49
  -1   3  -2   28.11    0.89
   1   3   2   27.85    0.77
   1   3   2   26.34    0.66
   1   3   2   26.58    0.70
  -1   3  -2   26.07    0.98
   1   3   2   26.68    0.95
   1   3   2   25.62    0.93
  -1   3  -2   27.51    0.97
  -1  -3  -2   26.65    0.87
   1   3   2   27.68    0.79
   1  -3   2   25.55    0.65
   1  -3   3    7.63    0.44
  -1   3  -3    7.48    0.53
  -1   3  -3    7.39    0.40
  -1  -3  -3    8.16    0.63
  -1   3  -3    6.88    0.64
   1   3   3    6.97    0.64
   1   3   3    7.49    0.46
  -1   3  -3    7.20    0.64
   1   3   3    7.17    0.63
   1   3   3    7.76    0.46
  -1   3  -3    7.98    0.57
   1   3   3    7.61    0.46
   1   3   4   31.76    0.86
   1   3   4   29.96    0.75
   1   3   4   28.82    1.04
  -1   3  -4   30.48    0.95
  -1   3  -4   29.55    0.87
   1   3   4   29.85    0.83
  -1   3  -4   28.96    1.08
  -1  -3  -4   31.51    1.06
  -1   3  -4   29.43    1.09
   1  -3   4   30.44    0.81
   1   3   4   29.31    1.04
   1  -3   5  113.48    1.60
  -1   3  -5  112.07    2.02
   1   3   5  114.27    1.61
  -1   3  -5  110.73    1.99
  -1   3  -5  109.29    1.79
   1   3   5  115.11    1.69
   1   3   5  111.26    1.97
  -1  -3  -5  112.78    1.95
  -1   3  -5  110.57    1.55
   1   3   5  110.02    1.93
  -1   3  -6   24.15    1.00
   1   3   6   24.17    0.84
   1  -3   6   24.52    0.85
  -1   3  -6   24.19    1.09
   1   3   6   22.28    1.06
  -1   3  -6   23.07    1.07
   1   3   6   23.00    0.99
  -1  -3  -6   24.40    1.07
  -1   3  -7   10.73    0.85
  -1   3  -7    9.86    0.85
  -1  -3  -7   10.23    0.88
   1   3   7   10.63    0.88
   1  -3   7   10.96    0.68
   1   3   7   10.94    0.66
  -1   3  -7   10.49    0.87
   1   3   7   10.91    0.77
  -1   3  -8    4.54    0.78
   1   3   8    3.89    0.77
  -1   3  -8    3.72    0.74
   1   3   8    4.08    0.66
  -1  -3  -8    4.40    0.84
  -1   3  -8    4.24    0.74
   1  -3   8    4.09    0.56
  -1   3  -9    5.68    0.84
   1  -3   9    5.99    0.65
  -1   3  -9    4.56    0.83
  -1   3  -9    5.94    0.84
   1   3   9    5.13    0.84
   1   3   9    5.68    0.67
  -1  -3  -9    6.18    0.87
  -1  -3 -10    0.59    0.79
   1   3  10    0.30    0.50
   1  -3  10   -0.02    0.50
  -1   3 -10    0.19    0.74
  -1   3 -10    0.65    0.73
  -1   3 -10    0.57    0.70
   1   3  10    0.56    0.73
  -1   3 -11    1.05    0.73
  -1   3 -11    0.89    0.76
  -1  -3 -11    1.49    0.83
   1   3  11    1.54    0.77
  -1   3 -11    0.88    0.75
   1   3  11    1.31    0.54
   1   3  12    6.01    0.98
  -1   3 -12    7.06    0.98
  -1   3 -12    5.49    0.99
  -1  -3 -12    5.78    1.01
  -1   3 -12    6.09    0.90
  -1   3 -13    1.34    0.85
  -1   3 -13    3.31    0.85
  -1  -3 -13    2.90    0.99
   1   3  13    2.36    0.92
  -1   3 -13    2.23    0.93
  -1   3 -14    0.59    0.91
  -1   3 -14    0.10    0.75
  -1  -3 -14    0.51    0.92
  -1   3 -14   -0.32    0.95
   1   3  14    1.06    0.94
  -1   3 -15    2.34    0.98
  -1  -3 -15    4.63    1.02
  -1  -3 -15    2.42    0.99
   1   3  15    2.59    0.99
  -1   3 -15    1.57    1.06
   1   3  16    3.10    1.15
  -1  -3 -16    2.79    1.04
  -1   3 -16    2.36    1.05
  -1  -3 -16    1.12    1.01
   1   3  17    1.47    1.14
  -1   3 -17    0.91    1.03
  -1  -3 -17    0.24    0.83
  -1  -3 -18    4.72    1.04
   1   3  18    4.69    1.35
  -1   3 -18    4.35    1.12
  -1   4  17    0.98    0.92
   1   4 -17    2.87    0.85
   1  -4 -16    0.88    0.74
  -1   4  16    0.68    0.92
   1   4 -16    1.64    0.91
  -1   4  15    0.43    0.92
   1   4 -15    0.62    0.76
   1   4 -15   -0.47    1.04
   1  -4 -15    0.80    0.63
   1  -4 -15    0.28    0.80
   1  -4 -14   10.68    1.01
   1   4 -14   11.95    1.19
   1   4 -14   13.71    1.23
  -1   4  14   12.09    1.22
   1   4 -14   12.73    1.39
   1  -4 -14   10.67    1.24
   1  -4 -13    1.19    0.69
   1   4 -13    2.27    0.99
   1  -4 -13    0.88    0.83
   1   4 -13    1.54    0.70
   1   4 -13    1.14    0.85
  -1   4  13    1.94    0.85
   1  -4 -12    2.70    0.72
  -1   4  12    3.26    0.92
   1   4 -12    2.30    0.96
   1   4 -12    3.49    1.29
   1  -4 -12    2.06    0.78
   1   4 -12    2.52    0.89
   1  -4 -11   49.46    1.64
  -1   4  11   49.80    1.80
   1   4 -11   50.15    1.86
   1   4 -11   49.50    1.72
   1  -4 -11   51.40    1.87
  -1   4  11   47.33    1.62
   1   4 -11   49.32    1.81
  -1   4  10   37.35    1.54
   1   4 -10   38.64    1.59
   1   4 -10   37.53    1.47
   1  -4 -10   36.65    1.39
   1   4 -10   36.51    1.55
  -1   4  10   35.73    1.43
   1  -4 -10   38.62    1.59
   1   4  -9   11.53    0.94
   1  -4  -9   12.32    0.88
  -1   4   9   13.40    0.98
   1   4  -9   11.16    1.06
   1  -4  -9   12.75    1.01
  -1   4   9   12.51    0.94
   1   4  -9   12.27    1.02
  -1   4   8   17.05    1.06
   1   4  -8   17.46    0.99
   1  -4  -8   18.21    0.93
   1   4  -8   17.66    1.13
  -1   4   8   18.57    1.03
   1   4  -8   17.82    1.12
   1  -4  -8   18.29    1.08
   1   4  -7    1.48    0.67
   1   4  -7    0.96    0.54
  -1   4   7    1.40    0.62
   1   4  -7    1.56    0.72
   1  -4  -7    1.61    0.51
   1   4  -7    1.40    0.69
  -1   4   7    1.34    0.57
   1  -4  -7    1.38    0.60
  -1   4   6    2.91    0.66
   1   4  -6    3.04    0.68
   1  -4  -6    2.92    0.63
   1  -4  -6    2.79    0.46
   1   4  -6    2.57    0.66
   1   4  -6    2.99    0.60
  -1   4   6    2.93    0.58
   1   4  -6    2.76    0.72
  -1   4   5   17.61    1.05
   1   4  -5   15.76    0.96
   1   4  -5   17.62    0.84
   1  -4  -5   18.04    0.75
  -1   4   5   17.79    0.82
   1   4  -5   16.81    0.92
  -1   4   5   17.02    1.00
   1   4  -5   17.32    1.01
   1  -4  -5   17.68    0.93
  -1   4   4   24.49    0.88
   1  -4  -4   25.86    0.80
  -1   4   4   23.63    1.12
   1   4  -4   23.88    1.07
   1   4  -4   25.40    0.91
   1   4  -4   25.57    1.01
   1   4  -4   23.11    1.09
   1  -4  -4   25.71    1.01
  -1   4   4   24.95    1.11
   1   4  -4   25.25    0.86
  -1   4   3   76.41    1.76
  -1   4   3   76.98    1.75
   1   4  -3   77.41    1.73
   1  -4  -3   77.21    1.60
  -1   4   3   75.71    1.37
   1   4  -3   77.53    1.73
   1  -4  -3   76.81    1.23
   1   4  -3   77.87    1.57
   1   4  -3   76.03    1.47
   1   4  -3   78.35    1.43
  -1   4   2   22.27    1.05
   1   4  -2   22.00    0.79
   1   4  -2   22.71    1.02
  -1   4   2   20.98    0.74
   1  -4  -2   21.94    0.65
   1   4  -2   22.39    0.87
  -1   4   2   21.79    0.82
   1   4  -2   21.52    0.98
  -1  -4   2   22.21    0.67
   1  -4  -2   22.26    0.87
  -1   4   2   22.34    1.02
   1   4  -2   20.04    0.85
   1   4  -1   15.69    0.80
  -1   4   1   14.84    0.91
   1   4  -1   14.78    0.67
   1   4  -1   13.61    0.84
  -1   4   1   14.16    0.61
  -1   4   1   15.98    0.77
   1   4  -1   14.57    0.82
  -1   4   1   15.54    0.90
  -1  -4   1   15.83    0.64
   1   4  -1   15.56    0.70
   1   4   0  256.32    2.86
   1   4   0  257.24    2.37
  -1   4   0  263.02    3.01
  -1   4   0  254.35    2.21
   1   4   0  258.70    2.99
  -1   4   0  260.77    2.74
   1   4   0  259.09    2.43
  -1   4   0  258.18    2.95
  -1  -4   0  261.57    2.42
   1   4   0  259.35    2.81
  -1   4  -1    2.34    0.65
   1   4   1    2.79    0.59
   1   4   1    3.06    0.39
  -1   4  -1    2.31    0.53
   1   4   1    2.46    0.44
  -1  -4  -1    2.34    0.47
  -1   4  -1    2.40    0.35
   1   4   1    3.59    0.51
   1   4   1    3.17    0.56
  -1   4  -1    2.82    0.55
   1   4   2   12.23    0.62
  -1  -4  -2   12.73    0.74
  -1   4  -2   11.68    0.54
  -1   4  -2   11.47    0.86
   1   4   2   13.74    0.86
  -1   4  -2   12.19    0.72
  -1   4  -2   13.35    0.85
   1   4   2   13.10    0.59
   1   4   2   13.73    0.68
   1   4   2   12.41    0.83
   1   4   3    2.69    0.59
  -1   4  -3    2.35    0.47
  -1   4  -3    2.53    0.37
  -1   4  -3    2.46    0.67
  -1   4  -3    2.49    0.45
   1   4   3    2.99    0.67
   1   4   3    2.40    0.36
   1   4   3    3.05    0.49
   1   4   3    2.99    0.40
  -1  -4  -3    2.76    0.55
  -1   4  -3    2.61    0.61
  -1   4  -4   24.53    1.12
  -1   4  -4   23.65    0.78
  -1   4  -4   24.14    1.12
   1   4   4   26.06    1.13
  -1  -4  -4   25.89    1.06
  -1   4  -4   25.04    0.93
  -1   4  -4   23.56    0.91
   1   4   4   24.24    1.11
  -1   4  -5   20.84    0.94
  -1   4  -5   19.30    1.10
  -1  -4  -5   21.44    1.04
   1   4   5   20.39    1.05
   1   4   5   21.03    1.09
  -1   4  -5   21.04    1.11
  -1   4  -5   20.90    0.84
  -1   4  -6   49.73    1.41
   1   4   6   48.38    1.23
  -1   4  -6   48.47    1.59
   1   4   6   47.93    1.53
  -1   4  -6   49.09    1.58
   1   4   6   50.76    1.54
  -1  -4  -6   52.47    1.56
  -1   4  -7   47.61    1.60
  -1   4  -7   46.99    1.46
   1   4   7   45.61    1.28
  -1   4  -7   46.54    1.63
   1   4   7   47.27    1.60
  -1  -4  -7   50.05    1.58
   1   4   7   48.33    1.55
   1   4   8    1.35    0.62
  -1   4  -8    1.63    0.70
  -1   4  -8    1.02    0.79
  -1   4  -8    1.00    0.77
  -1  -4  -8    1.70    1.01
   1   4   8    1.36    0.78
   1   4   9    6.74    0.81
  -1   4  -9    6.25    0.89
   1   4   9    6.60    0.92
  -1  -4  -9    8.03    0.98
  -1   4  -9    6.43    0.87
  -1   4  -9    7.53    0.94
  -1   4 -10   12.78    1.10
   1   4  10   13.40    1.17
  -1   4 -10   13.34    1.10
  -1   4 -10   12.52    1.09
  -1  -4 -10   14.69    1.21
   1   4  10   14.42    0.99
   1   4  11    1.28    0.62
  -1   4 -11    1.19    0.81
  -1  -4 -11    3.05    0.94
  -1   4 -11    2.17    0.85
  -1   4 -11    3.02    0.90
   1   4  11    2.04    0.88
   1   4  12    2.96    0.65
  -1  -4 -12    2.71    0.92
  -1   4 -12    2.90    0.92
  -1   4 -12    3.55    0.93
  -1   4 -12    2.68    0.88
   1   4  12    2.34    0.96
   1   4  13    1.75    0.92
  -1   4 -13    1.82    0.97
  -1   4 -13    1.96    0.83
  -1  -4 -13    2.85    1.01
  -1   4 -13    3.13    0.92
  -1  -4 -14    1.48    1.02
  -1   4 -14    0.00    0.87
   1   4  14    0.02    0.95
  -1   4 -14    0.39    1.04
  -1   4 -14    1.19    0.90
  -1   4 -15    0.50    0.91
  -1   4 -15    0.78    0.93
  -1  -4 -15    0.90    1.08
   1   4  15    0.45    1.02
  -1   4 -15   -0.61    0.98
  -1   4 -16    0.21    0.88
   1   4  16    1.13    1.10
  -1   4 -17    2.02    0.94
  -1  -4 -17    3.85    1.17
   1   4  17    2.05    1.19
   1   5 -16    0.82    1.02
  -1   5  16    2.08    0.98
   1   5 -15    3.23    1.11
   1   5 -15    1.52    0.75
  -1   5  15    2.10    0.97
   1   5 -14    1.91    0.69
  -1   5  14    2.55    1.00
  -1   5  13    1.28    0.79
   1   5 -13    1.20    0.97
   1   5 -13    1.05    0.85
   1  -5 -13    0.34    0.88
   1   5 -13    0.09    0.73
  -1   5  12    4.84    0.86
   1   5 -12    3.05    0.73
   1   5 -12    4.82    1.01
   1  -5 -12    2.82    0.88
   1   5 -12    4.06    1.04
  -1   5  12    4.00    0.90
   1   5 -11    1.19    0.70
  -1   5  11    1.07    0.75
   1  -5 -11   -0.33    0.77
   1   5 -11    2.35    0.92
  -1   5  11    0.75    0.65
   1   5 -11    0.33    0.89
   1   5 -10    1.11    0.85
   1   5 -10    0.21    0.67
   1  -5 -10    0.20    0.68
  -1   5  10    0.35    0.68
  -1   5  10    0.71    0.71
   1   5 -10   -0.06    0.85
   1   5  -9   21.59    1.30
   1   5  -9   21.28    1.16
  -1   5   9   20.85    1.18
   1   5  -9   21.30    1.34
   1  -5  -9   21.82    1.31
  -1   5   9   20.72    1.23
   1   5  -8   24.63    1.42
  -1   5   8   23.56    1.31
   1   5  -8   24.47    1.31
   1   5  -8   24.76    1.17
  -1   5   8   24.43    1.18
   1   5  -8   24.70    1.29
   1  -5  -8   25.76    1.35
   1   5  -7   17.50    1.20
   1   5  -7   18.94    1.14
   1   5  -7   18.29    1.17
   1   5  -7   19.14    1.01
   1  -5  -7   20.58    1.17
  -1   5   7   18.33    1.00
  -1   5   7   17.44    1.15
   1   5  -6    0.14    0.73
   1   5  -6   -0.12    0.53
  -1   5   6    1.63    0.83
  -1   5   6    0.69    0.70
   1  -5  -6    1.00    0.64
   1   5  -6    0.83    0.70
   1   5  -6    0.28    0.72
  -1   5   6    0.89    0.54
   1   5  -5   21.70    1.07
  -1   5   5   23.03    1.28
   1   5  -5   20.27    1.16
   1   5  -5   21.22    1.00
  -1   5   5   20.93    0.98
   1   5  -5   22.18    1.26
   1  -5  -5   21.85    1.11
  -1   5   5   21.70    1.19
  -1   5   4    0.10    0.70
   1   5  -4    0.53    0.51
  -1   5   4    0.40    0.62
   1   5  -4    0.58    0.53
   1  -5  -4    0.29    0.51
  -1   5   4   -0.03    0.46
   1   5  -4   -0.06    0.63
   1   5  -4    0.08    0.66
  -1   5   3    0.90    0.62
   1   5  -3    0.09    0.48
  -1   5   3    0.95    0.73
   1   5  -3    0.81    0.43
   1   5  -3    1.00    0.64
   1   5  -3    0.43    0.63
   1   5  -3    0.96    0.49
   1  -5  -3    0.47    0.47
  -1   5   2    6.95    0.64
  -1   5   2    7.73    0.88
   1   5  -2    7.69    0.63
   1   5  -2    7.06    0.80
   1   5  -2    6.75    0.79
  -1   5   2    8.31    0.85
   1  -5  -2    7.82    0.67
   1   5  -2    7.06    0.68
   1   5  -2    7.58    0.61
  -1   5   1    1.98    0.65
  -1   5   1    1.64    0.72
   1   5  -1    1.77    0.51
   1   5  -1    2.56    0.63
  -1   5   1    1.66    0.56
   1   5  -1    1.73    0.46
   1   5  -1    0.65    0.61
   1  -5  -1    1.41    0.44
   1   5  -1    1.57    0.64
   1   5   0   31.26    1.06
  -1   5   0   30.88    1.31
   1   5   0   32.01    1.29
   1   5   0   32.85    1.26
  -1   5   0   34.22    1.23
   1   5   0   32.38    1.21
   1  -5   0   29.91    0.96
  -1   5   0   32.83    1.32
  -1  -5  -1   42.63    1.22
  -1   5  -1   42.99    1.40
   1   5   1   43.10    1.21
  -1   5  -1   43.36    1.54
   1   5   1   42.99    1.47
   1   5   1   43.57    1.33
   1   5   1   42.87    1.44
  -1   5  -1   44.30    1.43
   1   5   2   41.23    1.19
  -1   5  -2   43.16    1.51
   1   5   2   41.76    1.48
   1   5   2   43.67    1.25
  -1   5  -2   42.62    1.39
  -1   5  -2   44.65    1.47
   1   5   2   42.83    1.46
  -1  -5  -2   41.10    1.33
   1   5   3    0.95    0.64
  -1   5  -3    0.84    0.55
  -1   5  -3    0.68    0.75
  -1   5  -3    1.28    0.73
   1   5   3    1.17    0.57
   1   5   3    0.53    0.67
  -1  -5  -3    1.24    0.57
   1   5   4    4.14    0.75
  -1   5  -4    3.93    0.60
   1   5   4    3.71    0.78
  -1   5  -4    4.23    0.84
  -1   5  -4    4.93    0.83
  -1  -5  -4    4.00    0.71
   1   5   5   31.47    1.39
  -1   5  -5   31.12    1.47
   1   5   5   32.99    1.41
  -1   5  -5   30.68    1.41
  -1  -5  -5   31.62    1.30
  -1   5  -6   12.88    1.10
   1   5   6   11.81    1.02
  -1   5  -6   12.74    0.87
  -1   5  -6   12.87    1.08
  -1  -5  -6   12.45    0.98
   1   5   6   13.82    1.04
   1   5   7    2.40    0.74
   1   5   7    0.73    0.71
  -1   5  -7    1.20    0.68
  -1   5  -7    1.05    0.75
  -1  -5  -7    1.40    0.72
  -1   5  -7    1.68    0.81
  -1  -5  -8    8.85    1.00
  -1   5  -8    8.44    1.06
  -1   5  -8    8.90    1.00
  -1   5  -8    8.88    0.91
   1   5   8    9.18    1.04
   1   5   8   10.27    0.95
   1   5   9    0.87    0.68
  -1   5  -9    0.74    0.76
  -1   5  -9    1.10    0.67
   1   5   9    1.92    0.85
  -1  -5  -9    1.12    0.96
  -1   5  -9    1.41    0.83
   1   5  10   -0.13    0.62
  -1   5 -10    0.76    0.78
  -1   5 -10    1.36    0.88
  -1  -5 -10    1.57    0.97
  -1   5 -10    0.73    0.87
   1   5  10    0.19    0.85
   1   5  11    3.98    0.83
  -1  -5 -11    5.13    1.09
  -1   5 -11    3.95    0.89
  -1   5 -11    5.57    1.01
  -1   5 -11    5.49    1.08
   1   5  11    4.88    1.06
   1   5  12    5.86    0.83
  -1   5 -12    5.96    1.08
  -1  -5 -12    5.69    1.17
  -1   5 -12    5.06    1.06
  -1   5 -12    7.27    1.18
   1   5  12    5.67    1.14
  -1   5 -13    5.08    1.06
  -1  -5 -13    4.99    1.09
  -1   5 -13    4.72    1.08
   1   5  13    4.65    0.84
  -1   5 -13    6.55    1.23
   1   5  13    6.95    1.23
  -1   5 -14    3.38    1.12
   1   5  14    1.93    0.99
  -1   5 -14    0.80    0.94
  -1   5 -14    2.96    1.10
  -1   5 -15    2.72    0.90
  -1   5 -15    3.03    1.11
   1   5  15    2.84    1.28
   1   5  16    4.74    1.27
  -1   5 -16    4.31    1.07
  -1   5 -16    4.80    1.12
   1   6 -15    2.71    1.19
   1   6 -14    1.32    1.12
  -1   6  13    0.92    0.79
   1   6 -13    0.92    1.01
  -1   6  12    1.22    0.82
   1   6 -12   -0.05    0.97
   1   6 -12    1.42    1.07
   1  -6 -12   -0.03    0.68
  -1   6  11    0.82    0.80
   1   6 -11    0.56    0.82
   1  -6 -11   -0.27    0.82
   1   6 -11    0.83    0.93
  -1   6  10    1.86    0.78
   1   6 -10    1.47    0.87
   1  -6 -10    0.37    0.83
   1   6 -10    0.76    0.93
  -1   6   9    2.53    0.84
   1  -6  -9    1.98    0.73
   1   6  -9    2.13    0.86
   1   6  -9    2.14    0.97
   1   6  -8   36.85    1.75
   1   6  -8   36.48    1.65
   1   6  -8   36.93    1.56
   1  -6  -8   36.88    1.59
  -1   6   8   36.92    1.63
   1   6  -7    5.24    0.85
   1   6  -7    6.73    0.99
  -1   6   7    5.93    0.96
   1  -6  -7    5.53    0.88
   1   6  -7    5.30    0.94
  -1   6   6    6.15    0.91
  -1   6   6    7.94    1.08
   1   6  -6    7.16    0.95
   1   6  -6    5.76    0.81
   1  -6  -6    6.54    0.90
   1   6  -6    7.59    1.07
  -1   6   5    4.76    0.86
  -1   6   5    5.10    1.04
   1   6  -5    3.88    0.82
   1   6  -5    5.66    0.93
   1  -6  -5    5.74    0.78
  -1   6   4    4.83    0.86
   1   6  -4    3.79    0.79
  -1   6   4    4.33    0.89
   1  -6  -4    5.39    0.68
   1   6  -4    4.81    0.84
  -1   6   3    0.78    0.72
   1   6  -3    0.76    0.68
  -1   6   3    1.06    0.79
   1   6  -3    0.83    0.53
   1  -6  -3    0.60    0.50
   1   6  -3    0.39    0.74
   1  -6  -2   19.01    0.98
   1   6  -2   19.16    1.15
  -1   6   2   20.64    1.26
   1   6  -2   19.80    1.21
   1   6  -2   20.02    1.07
  -1   6   2   18.75    1.17
   1   6  -1    2.39    0.62
  -1   6   1    3.31    0.75
  -1   6   1    1.46    0.78
   1   6  -1    2.15    0.77
   1   6  -1    3.20    0.77
  -1   6   0   11.34    1.08
   1   6   0   10.52    0.98
   1   6   0   11.89    0.97
  -1   6   0   12.15    0.94
   1   6   0   11.46    0.90
  -1   6   0   10.68    0.98
   1   6   1   18.18    1.03
  -1   6  -1   17.51    1.23
   1   6   1   19.06    1.19
  -1   6  -1   18.84    1.11
   1   6   1   18.86    1.15
  -1   6  -1   18.02    1.14
  -1   6  -2   16.17    1.15
  -1   6  -2   16.13    1.23
   1   6   2   14.71    1.10
   1   6   2   14.73    1.10
  -1   6  -2   13.98    1.03
  -1   6  -3  140.99    2.85
   1   6   3  142.16    2.78
  -1   6  -3  142.67    2.77
  -1  -6  -3  134.59    2.43
   1   6   3  138.98    2.79
  -1   6  -3  144.04    2.59
  -1   6  -4   33.46    1.62
   1   6   4   34.67    1.56
  -1   6  -4   36.77    1.54
  -1  -6  -4   33.59    1.41
   1   6   4   33.35    1.52
   1   6   5    6.53    0.99
  -1   6  -5    5.26    0.99
  -1   6  -5    6.21    0.95
   1   6   5    6.21    0.92
  -1  -6  -5    5.74    0.88
   1   6   6    1.97    0.75
   1   6   6    0.16    0.77
  -1   6  -6    0.16    0.82
  -1  -6  -6    0.16    0.73
  -1   6  -6    0.49    0.85
   1   6   7    1.09    0.74
   1   6   7   -0.13    0.83
  -1   6  -7    0.31    0.87
  -1  -6  -7    0.19    0.77
  -1   6  -7    0.58    0.90
  -1   6  -8    0.44    0.85
   1   6   8    0.99    0.77
   1   6   8   -0.11    0.82
  -1  -6  -8    0.24    0.80
  -1   6  -8    1.22    0.90
   1   6   9    0.63    0.73
  -1   6  -9    0.11    0.80
   1   6   9   -0.31    0.84
  -1  -6  -9    0.64    0.82
  -1   6  -9    0.23    0.94
   1   6  10    0.32    0.65
  -1   6 -10    0.07    0.92
   1   6  10   -0.27    0.91
  -1  -6 -10    0.56    0.91
  -1   6 -10    1.00    0.98
   1   6  11   -0.51    0.70
  -1   6 -11    0.20    0.90
  -1   6 -11    0.49    0.74
  -1  -6 -11    0.74    0.96
   1   6  11    0.35    0.87
  -1   6 -11    1.85    1.01
   1   6  12    1.33    0.69
  -1   6 -12   -0.59    0.97
  -1   6 -12    3.32    1.11
   1   6  12    3.11    1.07
  -1   6 -12    1.13    0.88
  -1   6 -13    2.14    1.02
   1   6  13    1.35    0.74
  -1   6 -13    3.00    1.17
   1   6  13    2.73    0.98
  -1   6 -14    3.21    1.02
   1   6  14    4.37    1.13
  -1   6 -14    3.84    1.33
  -1   6 -15    2.86    1.24
  -1   7  13    3.37    0.85
  -1   7  12    1.68    0.88
   1   7 -12    1.47    1.08
  -1   7  11    1.73    0.96
   1   7 -11    2.44    1.16
  -1   7  10    2.97    1.06
   1  -7 -10    0.99    0.76
   1   7 -10    2.51    1.16
  -1   7   9    3.41    0.90
   1   7  -9    2.90    0.91
   1  -7  -9    2.87    0.83
   1   7  -9    2.27    1.12
   1   7  -8    2.84    0.95
  -1   7   8    3.38    0.89
   1  -7  -8    1.67    0.83
   1   7  -8    3.22    1.08
   1   7  -7    3.14    0.85
   1  -7  -7    1.55    0.83
  -1   7   7    4.22    1.00
   1   7  -7    2.84    1.00
  -1   7   6    2.59    0.91
  -1   7   6    5.69    1.13
   1  -7  -6    2.23    0.77
   1   7  -6    4.11    1.00
   1   7  -6    4.03    0.88
  -1   7   5    3.42    0.92
  -1   7   5    4.72    1.12
   1   7  -5    3.65    0.86
   1  -7  -5    2.81    0.68
   1   7  -5    3.94    0.90
   1   7  -4    0.12    0.69
  -1   7   4    0.11    0.77
  -1   7   4    0.60    0.91
   1   7  -4    0.17    0.81
  -1   7   3    0.27    0.75
  -1   7   3    1.56    0.93
   1   7  -3    0.24    0.77
   1   7  -3    0.58    0.80
  -1   7   2    1.05    0.78
  -1   7   2    1.93    0.95
   1   7  -2    2.28    0.71
   1   7  -2    1.42    0.79
   1   7  -2    0.70    0.76
  -1   7   1    5.77    0.91
  -1   7   1    6.04    1.03
   1   7  -1    5.18    0.91
   1   7  -1    8.25    0.89
   1   7  -1    4.48    0.85
  -1   7   0    6.02    1.06
   1   7   0    7.05    0.98
   1   7   0    6.89    0.88
  -1   7   0    7.62    0.98
  -1   7  -1   23.16    1.31
  -1   7  -1   22.86    1.45
   1   7   1   19.71    1.34
   1   7   1   24.02    1.37
  -1   7  -1   22.44    1.34
  -1   7  -2   11.35    1.17
   1   7   2   10.64    1.11
  -1   7  -2   10.83    1.11
   1   7   2   11.78    1.13
  -1   7  -2   11.56    1.03
   1   7   3    6.36    0.98
  -1   7  -3    5.14    0.76
  -1   7  -3    6.40    1.12
   1   7   3    6.19    0.94
  -1   7  -3    7.59    1.04
   1   7   4    5.66    1.02
  -1   7  -4    2.27    1.00
   1   7   4    3.60    0.84
  -1   7  -4    5.08    0.98
  -1   7  -5    6.39    1.08
   1   7   5    6.67    0.99
  -1   7  -5    7.03    1.09
   1   7   5    7.16    1.02
  -1   7  -6    7.60    1.16
  -1   7  -6    5.00    1.04
   1   7   6    7.27    1.10
  -1  -7  -6    6.52    0.93
   1   7   6    8.13    1.06
   1   7   7    3.34    0.92
  -1   7  -7    1.44    0.92
   1   7   7    1.37    0.92
  -1  -7  -7    1.59    0.89
  -1   7  -7    2.11    0.90
  -1  -7  -8    0.92    1.04
   1   7   8    0.06    0.77
  -1   7  -8    0.53    0.92
   1   7   8    0.54    0.92
  -1   7  -8    1.57    1.07
  -1   7  -9    0.24    1.05
   1   7   9    0.26    0.83
  -1  -7  -9    0.21    0.97
  -1   7  -9    0.23    1.02
   1   7   9    0.25    1.07
   1   7  10    1.00    0.72
  -1   7 -10    1.07    1.05
   1   7  10    1.06    0.99
  -1  -7 -10    1.02    0.98
  -1   7 -10    1.00    1.08
   1   7  11    0.52    1.08
   1   7  11   -2.18    0.87
  -1   7 -11    1.15    1.02
  -1   7 -11    1.43    1.13
   1   7  12    4.15    0.84
   1   7  12    3.45    1.03
  -1   7 -12    4.29    0.99
  -1   7 -12    4.74    1.31
   1   7  13    0.50    0.75
  -1   8  10    2.06    0.91
  -1   8   9    2.57    0.88
   1   8  -9   -0.25    0.76
   1   8  -9    2.36    1.20
  -1   8   8    1.22    0.91
   1   8  -8    0.75    0.82
   1   8  -8    1.27    1.37
   1   8  -7    0.44    0.89
  -1   8   7    2.35    0.92
   1   8  -7    0.40    0.90
  -1   8   6    2.15    0.90
  -1   8   6    5.09    1.27
   1   8  -6    2.35    0.90
   1   8  -6    1.80    1.12
  -1   8   5    0.70    1.16
   1   8  -5   -0.08    0.85
  -1   8   5    0.65    0.89
   1   8  -5    0.50    0.82
  -1   8   4    0.32    1.07
   1   8  -4    0.34    0.76
  -1   8   4    2.32    0.91
   1   8  -4    1.35    0.95
  -1   8   3    0.52    0.74
  -1   8   3    0.74    0.99
   1   8  -3    0.44    0.65
   1   8  -3    0.36    0.82
  -1   8   2    0.40    0.82
  -1   8   2   -0.03    0.97
   1   8  -2    0.94    0.76
   1   8  -2    0.22    0.77
   1   8  -1    8.51    1.07
  -1   8   1    9.24    1.26
  -1   8   1    6.76    0.98
   1   8  -1    7.85    0.95
  -1   8   0   10.49    1.29
   1   8   0   10.54    1.15
   1   8   0   12.30    1.15
  -1   8   0   10.71    1.08
   1   8   1    6.00    0.99
  -1   8  -1    4.68    0.88
  -1   8  -1    3.82    1.11
   1   8   1    4.64    1.00
  -1   8  -2    0.75    0.75
   1   8   2    0.51    0.85
  -1   8  -2    1.27    1.01
   1   8   2    2.69    0.89
  -1   8  -2    1.61    0.86
   1   8   3    2.13    0.89
  -1   8  -3    1.89    0.90
   1   8   3    3.02    0.89
  -1   8  -3    1.61    0.91
   1   8   4    3.38    0.95
  -1   8  -4    4.77    1.18
   1   8   4    4.59    0.99
  -1   8  -4    3.61    1.00
   1   8   5    1.77    0.86
  -1   8  -5    0.36    0.98
   1   8   5    0.46    0.82
  -1   8  -5    0.10    0.98
   1   8   6    5.54    1.04
  -1   8  -6    2.82    0.98
   1   8   6    4.78    0.98
  -1   8  -6    5.53    1.25
   1   8   7    1.02    0.86
  -1   8  -7    0.51    0.87
   1   8   7    2.26    0.89
  -1   8  -7    2.92    1.24
   1   8   8   -0.07    0.86
  -1   8  -8   -0.38    0.86
   1   8   8    0.57    1.03
  -1   8  -8   -0.15    1.03
   1   8   9    0.20    0.81
  -1   8  -9   -2.08    0.88
   1   8   9    1.03    0.93
  -1   8  -9    1.24    1.05
   1   8  10    1.11    1.14
   1   9  -6    2.20    0.76
  -1   9   5    2.56    1.03
   1   9  -5    0.15    0.68
   1   9  -5    0.58    1.10
  -1   9   4    1.94    0.76
  -1   9   4    0.45    0.95
   1   9  -4   -0.27    0.75
   1   9  -4    1.35    1.08
  -1   9   3    0.98    1.03
   1   9  -3    0.46    0.78
  -1   9   2    2.33    0.93
   1   9  -2    0.43    0.85
  -1   9   2    1.49    0.98
  -1   9   1    2.01    0.93
   1   9  -1    1.15    0.93
  -1   9   1    1.32    0.87
   1   9   0    0.81    0.81
  -1   9   0    2.57    0.87
  -1   9   0    3.33    1.01
   1   9   0    2.24    0.98
  -1   9  -1    1.60    0.80
   1   9   1   -0.52    0.71
  -1   9  -1   -1.55    0.90
   1   9   1    0.94    0.73
  -1   9  -2   -2.38    0.92
   1   9   2   -1.65    0.84
   1   9   3   -1.95    0.83
  -1   9  -3   -0.69    0.93
   1   9   3   -0.17    0.82
   1   9   4    1.34    0.82
  -1   9  -4    1.17    0.93
   1   9   4    0.50    0.84
  -1   9  -4    1.83    1.01
   1   9   5    1.78    0.82
  -1   9  -5    0.62    0.95
   1   9   6    0.69    0.66
   2   0 -18   -1.05    0.95
   2   0 -16    5.72    0.88
   2   0 -16    5.30    1.07
   2   0 -15    1.47    0.67
   2   0 -15    1.05    0.85
   2   0 -15    1.25    0.82
   2   0 -14    5.88    0.93
   2   0 -14    7.63    0.93
   2   0 -14    6.42    0.97
   2   0 -13    7.43    0.97
   2   0 -13    6.46    0.85
   2   0 -13    5.42    0.86
   2   0 -12   -0.31    0.64
   2   0 -12   -0.02    0.64
   2   0 -11    0.22    0.61
   2   0 -11   -0.06    0.63
   2   0 -11    0.20    0.48
   2   0 -10    1.71    0.65
   2   0 -10    2.39    0.63
   2   0  -9    0.60    0.38
   2   0  -9    1.01    0.59
   2   0  -9    1.61    0.58
   2   0  -8    0.46    0.42
   2   0  -8   -0.17    0.49
   2   0  -8    0.22    0.58
  -2   0   7  192.67    2.23
   2   0  -7  205.06    2.64
   2   0  -7  206.69    2.76
   2   0  -7  196.47    2.42
   2   0  -6    0.67    0.41
  -2   0   6    1.20    0.48
   2   0  -6    1.11    0.47
   2   0  -6    1.09    0.55
   2   0  -5  228.29    2.57
   2   0  -5  227.14    2.67
   2   0  -5  218.79    2.49
  -2   0   5  219.69    2.36
  -2   0   4  177.15    2.14
   2   0  -4  175.37    2.19
   2   0  -4  175.77    2.28
   2   0  -4  175.17    2.19
  -2   0   3  173.69    2.14
   2   0  -3  172.60    2.14
   2   0  -3  174.89    2.22
   2   0  -3  172.65    2.17
  -2   0   2   30.62    1.00
  -2   0   2   30.12    1.00
   2   0  -2   29.57    0.71
   2   0  -2   30.62    1.00
   2   0  -2   31.13    1.01
   2   0  -2   29.19    0.94
   2   0  -1   25.58    0.93
   2   0  -1   26.37    0.92
   2   0  -1   25.37    0.89
  -2   0   1   25.29    0.93
   2   0   0    2.88    0.48
   2   0   0    3.28    0.51
  -2   0   0    2.71    0.53
   2   0   1   25.27    0.93
  -2   0  -1   24.13    0.92
   2   0   1   24.39    0.93
   2   0   2   92.48    1.65
  -2   0  -2   95.53    1.67
   2   0   2   94.85    1.66
   2   0   3    5.80    0.60
   2   0   3    5.78    0.61
  -2   0  -3    5.38    0.39
   2   0   3    5.30    0.37
  -2   0  -3    6.28    0.64
   2   0   4   24.27    0.94
  -2   0  -4   24.22    0.69
   2   0   4   24.29    0.69
  -2   0  -4   24.24    0.96
   2   0   4   24.28    0.95
   2   0   5   42.04    1.28
  -2   0  -5   41.30    1.01
   2   0   5   41.62    0.98
  -2   0  -5   41.44    1.28
   2   0   6  242.04    3.03
  -2   0  -6  242.34    2.47
   2   0   6  241.24    2.42
  -2   0  -6  241.49    2.89
   2   0   7   68.76    1.75
  -2   0  -7   67.74    1.47
   2   0   7   66.17    1.44
  -2   0  -7   68.60    1.65
   2   0   8    1.46    0.67
   2   0   8    1.29    0.55
  -2   0  -8    0.87    0.52
  -2   0  -8    0.84    0.64
   2   0   9    6.33    0.83
  -2   0  -9    5.83    0.73
   2   0   9    5.53    0.70
  -2   0  -9    6.14    0.78
   2   0  10    0.28    0.60
   2   0  10    0.54    0.69
  -2   0 -10    0.25    0.60
  -2   0 -10    0.13    0.63
  -2   0 -11    5.39    0.80
  -2   0 -11    6.64    0.80
   2   0  11    5.03    0.85
   2   0  11    5.89    0.78
   2   0  12    0.43    0.65
  -2   0 -12    0.07    0.65
   2   0  12    0.17    0.69
  -2   0 -12    0.15    0.63
   2   0  13    1.35    0.74
   2   0  13    0.32    0.67
  -2   0 -13    0.43    0.66
  -2   0 -13   -0.07    0.67
   2   0  14    0.36    0.72
   2   0  14   -0.17    0.72
  -2   0 -14   -0.55    0.68
   2   0  15    2.14    0.80
   2   0  15    1.00    0.81
  -2   0 -15    0.58    0.88
   2   0  16    6.17    1.10
  -2   0 -16    4.73    0.94
   2   0  16    4.50    0.97
  -2   0 -17    1.80    0.92
  -2   0 -18    4.15    1.06
   2   1 -18    1.79    0.80
   2  -1 -18    0.00    0.86
  -2   1  17    0.40    1.01
   2   1 -17    0.79    0.76
  -2   1  16   -0.37    0.81
   2   1 -16   -0.06    0.77
   2   1 -16    0.83    0.58
   2  -1 -16    0.79    0.64
   2   1 -16    1.38    0.82
   2  -1 -16    1.55    0.93
   2   1 -15    1.34    0.75
   2  -1 -15    2.15    0.76
   2   1 -15    3.50    1.01
   2   1 -15    1.13    0.82
   2   1 -14    0.05    0.70
   2   1 -14    1.07    0.63
   2  -1 -14    1.29    0.74
   2   1 -14    0.82    0.78
   2   1 -13    8.85    0.93
   2   1 -13    8.49    0.92
   2  -1 -13    8.63    0.94
   2   1 -13    9.13    1.02
   2  -1 -13    9.62    0.89
   2   1 -12   63.44    1.85
   2   1 -12   64.64    1.93
   2  -1 -12   63.15    2.00
   2   1 -12   63.14    2.01
   2  -1 -12   63.96    1.81
   2   1 -11   11.77    1.04
   2   1 -11   11.54    0.96
   2   1 -11   10.87    0.93
   2  -1 -11   11.59    0.98
   2  -1 -11   12.30    0.90
   2  -1 -11   12.02    0.89
   2   1 -10    5.32    0.81
   2   1 -10    4.46    0.71
   2  -1 -10    5.18    0.79
   2   1 -10    4.41    0.73
   2  -1 -10    4.76    0.65
   2   1 -10    4.59    0.66
   2   1  -9   12.14    0.94
   2   1  -9   12.39    0.83
   2   1  -9   12.88    0.90
   2  -1  -9   12.27    0.96
   2  -1  -9   12.94    0.79
   2   1  -9   12.93    0.79
   2   1  -8    2.15    0.50
   2  -1  -8    2.04    0.54
  -2   1   8    1.81    0.52
   2   1  -8    2.65    0.55
   2  -1  -8    1.98    0.66
   2   1  -8    2.65    0.63
   2   1  -8    2.17    0.61
   2   1  -7    3.54    0.57
   2   1  -7    3.87    0.65
  -2   1   7    3.78    0.57
   2  -1  -7    3.79    0.53
   2  -1  -7    3.46    0.46
   2   1  -7    3.12    0.62
   2   1  -7    3.60    0.52
   2  -1  -7    3.73    0.67
  -2   1   6   65.90    1.46
  -2  -1   6   66.34    1.30
   2   1  -6   67.88    1.60
   2   1  -6   68.38    1.27
   2  -1  -6   71.85    1.44
   2  -1  -6   70.74    1.63
   2   1  -6   69.64    1.55
   2   1  -6   68.27    1.55
   2  -1  -6   68.19    1.37
  -2   1   5  156.61    2.15
  -2  -1   5  161.37    1.97
   2   1  -5  162.45    2.31
   2  -1  -5  160.81    2.02
   2  -1  -5  159.00    2.04
   2  -1  -5  165.31    2.31
   2   1  -5  165.98    2.25
   2   1  -5  157.44    2.24
  -2   1   4   11.71    0.74
   2   1  -4   11.53    0.72
   2   1  -4   12.53    0.68
   2   1  -4   12.32    0.75
   2  -1  -4   11.72    0.62
   2   1  -4   11.60    0.72
   2  -1  -4   12.55    0.76
   2  -1  -4   12.01    0.68
   2   1  -3   28.14    0.99
   2  -1  -3   28.29    0.86
  -2   1   3   27.25    0.82
   2   1  -3   27.31    0.86
   2  -1  -3   27.51    0.94
  -2   1   3   26.37    0.99
  -2  -1   3   28.10    0.95
   2  -1  -3   28.77    1.00
   2   1  -3   28.62    0.97
   2   1  -3   28.02    0.99
   2  -1  -2    0.66    0.37
   2   1  -2    0.38    0.45
   2  -1  -2    0.90    0.46
   2   1  -2    0.56    0.43
  -2   1   2    0.80    0.51
   2   1  -2    0.39    0.36
  -2   1   2    0.62    0.34
   2   1  -2    0.18    0.37
  -2  -1   2    0.55    0.43
  -2   1   1   21.80    0.92
   2  -1  -1   23.61    0.81
  -2   1   1   22.60    0.71
   2   1  -1   23.56    0.75
  -2  -1   1   22.57    0.88
  -2   1   1   23.43    0.94
   2  -1  -1   23.73    0.91
   2   1  -1   21.82    0.88
   2   1  -1   21.05    0.91
   2   1  -1   24.82    0.90
  -2   1   0    8.96    0.72
  -2   1   0    9.53    0.52
   2   1   0    9.48    0.54
   2   1   0    9.87    0.71
   2   1   0    9.77    0.69
   2  -1   0    9.93    0.61
  -2   1   0    9.72    0.69
  -2  -1   0   10.55    0.70
   2  -1   0    9.89    0.68
   2   1   0    9.33    0.65
  -2   1  -1  175.66    2.25
   2  -1   1  178.72    2.15
  -2   1  -1  178.46    1.81
   2   1   1  184.56    1.93
   2   1   1  183.88    2.28
  -2   1  -1  188.09    2.28
  -2  -1  -1  181.43    2.26
   2   1   1  183.72    2.27
   2  -1   1  184.37    2.24
   2   1   1  183.51    2.21
  -2   1  -2   13.80    0.78
  -2   1  -2   14.66    0.64
   2   1   2   13.63    0.63
   2   1   2   14.44    0.79
   2  -1   2   14.67    0.75
   2   1   2   14.14    0.76
  -2   1  -2   14.17    0.78
  -2  -1  -2   14.84    0.84
   2   1   2   14.48    0.76
   2  -1   2   14.66    0.78
   2   1   3   20.52    0.87
   2   1   3   22.43    0.91
  -2   1  -3   20.16    0.90
  -2   1  -3   20.02    0.75
   2   1   3   19.70    0.76
  -2  -1  -3   20.12    0.93
   2   1   3   20.08    0.89
  -2   1  -3   20.80    0.90
   2  -1   3   21.64    0.90
   2  -1   3   20.69    0.90
   2  -1   4  138.94    2.10
   2   1   4  137.22    2.09
  -2  -1  -4  135.61    2.14
  -2   1  -4  133.06    1.79
  -2  -1  -4  129.76    1.39
   2   1   4  129.06    1.78
   2   1   4  138.16    2.14
  -2   1  -4  141.20    2.03
   2   1   5  293.29    3.18
   2  -1   5  302.29    3.19
   2   1   5  294.73    3.17
  -2   1  -5  284.33    2.75
  -2  -1  -5  287.36    2.31
   2   1   5  290.12    2.78
   2  -1   5  281.78    2.19
  -2   1  -5  292.00    2.96
  -2  -1  -5  298.99    3.17
   2  -1   6   86.99    1.82
   2   1   6   87.77    1.87
  -2   1  -6   81.80    1.62
  -2  -1  -6   84.33    1.42
   2   1   6   87.72    1.66
   2  -1   6   83.63    1.35
   2   1   6   92.52    1.89
  -2   1  -6   86.02    1.70
  -2  -1  -6   87.30    1.86
   2  -1   7   20.00    1.03
   2   1   7   19.36    1.04
  -2   1  -7   18.66    0.94
  -2  -1  -7   19.39    0.86
   2   1   7   18.99    0.96
   2  -1   7   17.40    0.75
  -2   1  -7   19.62    0.96
  -2  -1  -7   18.98    1.05
   2  -1   8   11.67    0.91
   2   1   8   12.76    0.94
  -2   1  -8   10.95    0.85
  -2  -1  -8   11.20    0.78
   2   1   8    9.31    0.80
   2  -1   8   10.71    0.71
  -2   1  -8   10.92    0.82
  -2  -1  -8   10.18    0.93
  -2   1  -9   14.85    0.95
   2  -1   9   17.03    1.06
   2   1   9   15.34    1.05
  -2   1  -9   15.28    1.00
  -2  -1  -9   15.23    0.94
   2   1   9   15.15    1.00
   2  -1   9   13.99    0.84
  -2  -1  -9   14.52    1.09
   2   1  10    3.56    0.76
  -2   1 -10    3.51    0.75
  -2  -1 -10    2.62    0.68
   2  -1  10    3.13    0.64
  -2  -1 -10    2.38    0.79
   2   1  10    2.81    0.72
   2  -1  10    3.60    0.71
  -2   1 -10    3.28    0.68
   2   1  11    1.43    0.72
  -2   1 -11    1.26    0.71
  -2  -1 -11    1.29    0.64
  -2  -1 -11    1.19    0.75
   2   1  11    0.81    0.67
   2  -1  11    1.33    0.71
   2   1  12    0.38    0.66
  -2  -1 -12    1.00    0.73
   2  -1  12    0.25    0.65
   2   1  12    0.25    0.69
  -2   1 -12    0.31    0.70
  -2  -1 -12    0.07    0.73
   2   1  13    0.85    0.79
  -2  -1 -13    0.13    0.69
   2  -1  13    0.31    0.66
  -2   1 -13    0.34    0.66
   2   1  13   -0.20    0.73
  -2  -1 -13    0.21    0.79
   2   1  14    2.88    0.91
   2   1  14    1.73    0.79
  -2   1 -14    1.12    0.86
  -2  -1 -14    2.56    0.85
   2  -1  14    2.35    0.74
  -2  -1 -14    2.23    0.91
   2   1  15    5.53    1.10
  -2  -1 -15    4.59    0.97
  -2   1 -15    4.92    1.04
  -2  -1 -15    4.55    1.01
   2   1  15    3.52    0.83
   2  -1  15    3.71    0.91
   2   1  16    6.55    1.14
   2  -1  16    5.28    0.92
  -2   1 -16    4.20    0.99
  -2  -1 -16    5.62    1.04
   2   1  17    0.80    0.93
  -2   1 -17    1.50    0.96
  -2  -1 -17    0.62    0.87
   2   1  18    5.03    1.28
  -2   1 -18    2.68    0.89
  -2  -1 -18    2.33    0.87
  -2   2  18    2.64    0.97
  -2   2  17    1.55    0.89
  -2   2  16    0.01    0.84
   2   2 -16    0.15    0.65
   2   2 -16    0.61    0.82
  -2   2  15    3.11    0.88
   2   2 -15    1.93    0.71
   2  -2 -15    2.75    0.81
   2   2 -15    3.85    1.02
   2  -2 -15    2.43    0.67
  -2   2  14    2.23    0.79
   2   2 -14    2.85    0.74
   2  -2 -14    2.57    0.82
   2   2 -14    2.70    0.89
   2  -2 -14    2.91    0.75
  -2   2  13    1.51    0.79
   2   2 -13    2.44    0.68
   2  -2 -13    1.94    0.72
   2   2 -13    1.62    0.88
   2   2 -13    2.72    0.73
   2  -2 -13    2.39    0.74
   2  -2 -12    6.29    0.88
  -2   2  12    5.00    0.84
   2   2 -12    7.60    0.89
   2   2 -12    5.47    0.80
   2   2 -12    6.68    0.83
   2  -2 -12    6.46    0.84
   2   2 -12    5.43    0.99
  -2   2  11   67.53    1.92
   2   2 -11   71.38    1.93
   2  -2 -11   72.11    2.06
   2   2 -11   70.67    1.91
   2   2 -11   70.75    2.09
   2  -2 -11   71.02    1.97
   2   2 -10   48.92    1.56
   2  -2 -10   51.82    1.70
   2  -2 -10   49.63    1.62
   2   2 -10   49.60    1.73
  -2   2  10   48.29    1.56
   2   2 -10   48.99    1.59
   2   2  -9    6.10    0.89
  -2   2   9    4.85    0.74
   2   2  -9    5.25    0.71
   2  -2  -9    5.41    0.82
   2   2  -9    5.67    0.74
  -2   2   9    5.26    0.65
  -2   2   8   89.79    1.80
   2   2  -8   95.01    2.14
   2   2  -8   93.30    1.96
   2  -2  -8   92.24    2.03
  -2   2   8   91.82    1.89
   2   2  -8   91.33    1.99
   2   2  -7   56.25    1.63
  -2   2   7   55.49    1.33
   2   2  -7   56.50    1.47
   2  -2  -7   56.78    1.56
   2   2  -7   55.29    1.55
  -2   2   7   52.72    1.45
  -2   2   6   17.06    0.74
   2  -2  -6   17.98    0.72
   2   2  -6   18.64    0.97
   2   2  -6   16.99    1.01
   2  -2  -6   17.54    0.93
   2   2  -6   17.80    0.88
   2   2  -6   16.99    0.93
   2  -2  -6   17.18    0.76
  -2   2   6   15.65    0.92
  -2   2   5   34.13    1.19
  -2   2   5   35.71    0.90
   2   2  -5   36.02    1.20
   2   2  -5   36.03    1.24
   2  -2  -5   37.35    0.93
   2  -2  -5   37.86    1.20
   2   2  -5   38.32    1.12
   2  -2  -5   35.18    1.01
   2   2  -5   36.73    1.23
  -2   2   4    4.35    0.62
  -2   2   4    4.17    0.58
   2   2  -4    3.82    0.58
   2   2  -4    3.81    0.61
   2  -2  -4    3.95    0.39
   2  -2  -4    4.07    0.54
  -2  -2   4    3.17    0.45
   2   2  -4    3.86    0.60
   2   2  -4    3.72    0.53
  -2   2   3   29.28    1.11
  -2  -2   3   30.51    0.97
  -2   2   3   29.96    0.97
   2   2  -3   30.59    1.04
   2  -2  -3   31.62    0.83
   2  -2  -3   32.56    1.08
   2   2  -3   33.93    1.14
   2   2  -3   31.77    0.97
   2   2  -3   30.12    1.11
  -2   2   2   18.43    0.93
  -2  -2   2   18.58    0.79
  -2   2   2   18.93    0.82
   2   2  -2   21.02    0.86
   2   2  -2   20.99    0.92
   2  -2  -2   20.38    0.69
   2  -2  -2   19.99    0.88
   2   2  -2   20.40    0.80
   2   2  -2   18.87    0.90
  -2   2   1   49.96    1.34
   2   2  -1   49.77    1.32
   2  -2  -1   49.19    1.09
  -2   2   1   49.91    1.22
   2   2  -1   49.11    1.26
  -2  -2   1   49.62    1.25
   2  -2  -1   49.71    1.29
   2   2  -1   49.63    1.32
   2   2  -1   49.41    1.21
  -2   2   0  133.70    2.08
  -2   2   0  134.03    1.87
   2   2   0  135.19    2.05
   2   2   0  136.62    1.97
   2  -2   0  139.28    1.80
  -2  -2   0  131.58    1.95
   2   2   0  138.82    2.07
   2  -2   0  139.77    1.98
   2   2   0  140.68    1.90
  -2   2  -1   88.44    1.71
  -2   2  -1   89.73    1.57
   2   2   1   91.71    1.62
   2   2   1   90.16    1.68
   2   2   1   91.67    1.68
   2  -2   1   92.13    1.52
  -2  -2  -1   94.10    1.70
  -2   2  -1   91.56    1.67
   2  -2   1   92.44    1.64
   2   2   1   94.17    1.61
  -2   2  -2   24.67    1.00
   2   2   2   23.77    0.94
  -2   2  -2   23.95    0.92
   2   2   2   24.24    0.94
   2  -2   2   26.12    0.92
  -2   2  -2   25.29    0.97
  -2  -2  -2   25.28    1.01
   2   2   2   25.47    0.98
   2  -2   2   24.99    0.94
   2   2   2   24.77    0.91
  -2   2  -3  279.14    2.91
   2   2   3  291.39    2.90
  -2   2  -3  275.41    2.80
   2   2   3  281.08    2.89
   2   2   3  289.24    2.89
   2   2   3  290.00    3.03
   2  -2   3  294.53    2.94
  -2   2  -3  288.62    2.87
  -2  -2  -3  288.68    3.09
   2  -2   4  172.56    2.34
  -2   2  -4  167.40    2.27
   2   2   4  176.29    2.37
   2   2   4  171.98    2.42
  -2   2  -4  166.89    2.29
   2   2   4  167.75    2.31
  -2   2  -4  170.07    2.24
  -2  -2  -4  173.49    2.50
   2   2   4  173.91    2.26
  -2   2  -5   37.61    1.20
   2  -2   5   38.56    1.22
   2   2   5   38.26    1.23
  -2   2  -5   37.84    1.21
   2   2   5   36.59    1.20
  -2  -2  -5   40.15    1.37
  -2   2  -5   38.91    1.16
   2   2   5   37.83    1.12
   2   2   5   38.99    1.28
  -2   2  -6    8.61    0.73
   2  -2   6    8.86    0.73
   2   2   6    8.62    0.76
  -2   2  -6   10.04    0.80
   2   2   6    8.99    0.78
   2   2   6    8.22    0.76
  -2   2  -6    8.62    0.69
  -2  -2  -6    8.71    0.94
   2   2   6   10.55    0.70
   2   2   7   44.63    1.41
  -2   2  -7   39.21    1.21
   2  -2   7   43.56    1.39
   2   2   7   43.50    1.43
  -2   2  -7   42.61    1.40
   2   2   7   42.77    1.40
  -2  -2  -7   46.02    1.53
  -2   2  -7   44.06    1.25
  -2  -2  -8    1.41    0.77
  -2   2  -8    0.77    0.63
   2  -2   8    0.84    0.60
   2   2   8    1.04    0.59
   2   2   8    1.09    0.62
  -2   2  -8    1.00    0.50
   2   2   8    0.45    0.62
   2  -2   9   14.30    1.01
   2   2   9   14.80    1.05
  -2   2  -9   12.89    0.98
   2   2   9   12.88    1.02
  -2  -2  -9   13.48    1.13
  -2  -2 -10    8.09    1.08
   2  -2  10    8.04    0.94
   2   2  10    8.06    0.93
  -2   2 -10    8.09    0.95
   2   2  10    8.02    0.95
  -2   2 -11    1.66    0.76
   2   2  11    1.54    0.71
   2  -2  11    1.54    0.68
  -2  -2 -11    1.36    0.86
   2   2  11    1.47    0.80
   2   2  12   -0.19    0.73
  -2   2 -12    0.78    0.75
   2  -2  12    0.54    0.67
   2   2  12    0.50    0.79
  -2  -2 -12    0.75    0.82
   2   2  13    4.24    0.88
   2   2  13    5.73    0.99
  -2   2 -13    7.99    1.07
   2  -2  13    5.17    0.86
  -2  -2 -13    4.77    0.99
  -2   2 -14    1.69    0.89
   2   2  14    0.56    0.71
  -2  -2 -14    1.69    0.97
   2  -2  14    0.99    0.69
   2   2  14    1.65    0.93
   2   2  15    2.17    1.01
  -2   2 -15    3.74    0.93
   2   2  15    2.91    0.77
  -2  -2 -15    3.09    1.02
   2  -2  15    2.22    0.77
   2  -2  16    0.31    0.65
  -2   2 -16    2.01    0.86
  -2  -2 -16    1.19    0.99
   2   2  16    0.81    0.98
  -2   2 -17    1.29    0.93
   2   2  17    0.35    1.04
   2   2  18   -0.27    1.04
  -2   3  17    0.70    0.84
  -2   3  16    1.99    0.98
  -2   3  15    0.74    0.71
   2  -3 -15    0.95    0.66
   2   3 -15    1.68    0.99
   2  -3 -15    0.45    0.66
  -2   3  14    1.29    0.79
   2  -3 -14    1.16    0.76
   2   3 -14    0.89    0.88
   2  -3 -14    1.60    0.66
  -2   3  13    2.48    0.78
   2  -3 -13    2.44    0.79
   2  -3 -13    2.02    0.71
   2   3 -13    1.52    0.90
   2   3 -13    2.71    0.83
  -2   3  12    2.18    0.73
   2   3 -12    2.06    0.59
   2  -3 -12    1.91    0.66
   2   3 -12    0.90    0.86
   2  -3 -12    1.30    0.68
   2   3 -12    2.17    0.85
   2   3 -11    3.13    0.79
  -2   3  11    3.61    0.71
   2   3 -11    2.55    0.61
   2  -3 -11    2.44    0.70
   2  -3 -11    1.90    0.77
   2   3 -11    1.69    0.89
   2   3 -10   17.01    1.02
   2  -3 -10   17.47    1.17
   2   3 -10   18.70    1.32
   2   3 -10   17.33    1.12
   2  -3 -10   16.30    1.12
  -2   3  10   16.35    1.00
   2   3  -9  134.59    2.37
   2  -3  -9  138.96    2.62
   2   3  -9  137.23    2.77
   2   3  -9  140.41    2.71
   2  -3  -9  136.60    2.65
  -2   3   9  133.37    2.51
   2   3  -8  207.45    3.24
   2   3  -8  203.81    2.75
   2  -3  -8  206.93    3.03
   2   3  -8  200.39    3.16
  -2   3   8  194.50    2.99
   2   3  -7    2.84    0.73
  -2   3   7    2.88    0.68
   2   3  -7    3.04    0.77
   2   3  -7    2.45    0.72
   2   3  -7    2.47    0.55
   2  -3  -7    2.68    0.63
   2   3  -6    9.00    0.89
   2   3  -6    9.94    0.69
   2  -3  -6   10.39    0.83
   2   3  -6    8.87    0.85
   2   3  -6    8.30    0.83
  -2   3   6    9.69    0.82
   2   3  -5    7.14    0.62
   2   3  -5    6.01    0.74
  -2   3   5    6.91    0.82
   2   3  -5    5.94    0.75
   2  -3  -5    6.31    0.67
   2   3  -5    5.74    0.71
  -2   3   5    6.21    0.71
   2   3  -4    0.80    0.56
  -2   3   4    0.70    0.62
  -2   3   4    0.49    0.61
   2   3  -4    0.81    0.59
   2   3  -4    0.32    0.52
  -2  -3   4    0.80    0.40
   2  -3  -4    0.89    0.50
   2   3  -4    0.90    0.42
  -2   3   3   43.87    1.34
   2   3  -3   42.96    1.34
   2   3  -3   43.76    1.32
   2  -3  -3   46.08    1.25
   2   3  -3   45.13    1.11
  -2  -3   3   41.33    1.09
   2   3  -3   44.46    1.39
  -2   3   3   42.30    1.40
  -2   3   2    5.56    0.74
  -2   3   2    5.86    0.72
   2   3  -2    6.49    0.68
   2   3  -2    6.01    0.57
   2  -3  -2    6.98    0.62
   2   3  -2    7.21    0.66
  -2  -3   2    6.37    0.57
   2   3  -2    6.41    0.72
  -2   3   1   13.95    0.92
  -2   3   1   13.56    0.87
   2   3  -1   13.49    0.85
   2   3  -1   13.98    0.82
   2  -3  -1   14.90    0.59
  -2  -3   1   13.04    0.75
   2  -3  -1   14.24    0.75
   2   3  -1   14.81    0.87
   2   3  -1   15.43    0.70
  -2   3   0   30.93    1.19
  -2   3   0   30.79    1.13
   2   3   0   32.31    1.16
   2   3   0   32.75    1.10
   2  -3   0   32.22    0.88
  -2  -3   0   32.76    1.10
   2   3   0   32.71    1.15
   2  -3   0   33.28    1.04
   2   3   0   34.06    0.98
  -2   3  -1   50.46    1.44
   2  -3   1   48.73    1.23
  -2   3  -1   48.86    1.38
   2   3   1   47.86    1.37
   2   3   1   48.13    1.31
   2  -3   1   49.43    1.12
  -2  -3  -1   50.06    1.35
   2   3   1   46.75    1.31
   2   3   1   50.15    1.17
  -2   3  -2   18.85    0.98
  -2   3  -2   17.43    0.95
   2   3   2   16.48    0.93
   2   3   2   17.89    0.89
  -2  -3  -2   18.38    0.94
   2   3   2   18.13    0.88
   2  -3   2   17.50    0.82
   2   3   2   19.92    0.83
   2   3   3   50.24    1.26
  -2   3  -3   48.28    1.38
   2   3   3   48.26    1.34
  -2   3  -3   49.28    1.44
   2   3   3   50.68    1.44
   2   3   3   48.04    1.29
  -2  -3  -3   48.04    1.43
   2  -3   3   52.52    1.30
   2   3   4    0.81    0.45
  -2   3  -4    0.83    0.56
   2   3   4    0.97    0.48
   2   3   4    0.84    0.47
   2  -3   4    1.05    0.45
  -2   3  -4    0.83    0.61
  -2   3  -4    0.54    0.44
  -2  -3  -4    0.72    0.65
   2   3   4    0.82    0.60
   2   3   5    1.09    0.40
  -2   3  -5    0.43    0.52
   2  -3   5    1.07    0.45
  -2   3  -5    0.19    0.59
   2   3   5    0.89    0.50
  -2   3  -5    0.44    0.43
   2   3   5    0.29    0.44
   2   3   5    0.46    0.58
  -2  -3  -5    1.11    0.67
  -2   3  -6    2.14    0.54
   2  -3   6    2.60    0.55
  -2   3  -6    2.26    0.68
   2   3   6    2.07    0.58
  -2  -3  -6    2.33    0.76
   2   3   6    2.22    0.70
   2   3   6    2.14    0.60
   2   3   7    0.09    0.56
  -2  -3  -7    1.48    0.76
  -2   3  -7    0.81    0.73
   2   3   7    0.76    0.53
   2  -3   7    0.72    0.50
   2   3   7    0.56    0.65
   2   3   8    3.37    0.70
  -2   3  -8    2.98    0.77
   2   3   8    3.12    0.63
   2  -3   8    2.70    0.59
  -2  -3  -8    3.60    0.89
   2   3   8    3.76    0.89
  -2   3  -9    1.53    0.67
   2  -3   9    1.27    0.56
   2   3   9    1.21    0.74
   2   3   9    1.63    0.61
   2   3   9    0.77    0.58
  -2  -3  -9    1.39    0.85
   2  -3  10    1.32    0.60
  -2  -3 -10    1.50    0.84
  -2   3 -10    0.77    0.67
   2   3  10    1.42    0.60
   2   3  10    1.17    0.59
   2   3  10    1.19    0.81
   2   3  11    1.09    0.66
   2  -3  11    1.63    0.61
   2   3  11    1.92    0.62
  -2   3 -11    1.06    0.74
  -2  -3 -11    1.36    0.91
   2   3  11    0.60    0.85
   2   3  12    4.09    0.84
   2  -3  12    3.87    0.73
  -2   3 -12    3.10    0.81
  -2  -3 -12    4.32    1.06
   2   3  12    3.25    0.99
   2  -3  13    0.91    0.63
   2   3  13    0.89    0.72
  -2  -3 -13    0.09    0.94
  -2   3 -13   -1.33    0.80
   2   3  13    0.07    0.85
   2  -3  14    1.65    0.65
  -2   3 -14   -0.16    0.84
  -2  -3 -14    1.82    1.10
   2   3  14    0.70    0.93
   2   3  14    1.13    0.71
   2   3  15    1.79    0.70
   2  -3  15    2.45    0.70
  -2   3 -15    0.58    0.84
  -2  -3 -15    2.26    1.12
   2   3  15    1.01    1.01
  -2   3 -16   -0.56    0.85
   2   3  16   -1.06    1.07
  -2   3 -17   -1.15    0.73
   2   3  17   -0.20    1.05
   2  -4 -14    0.98    0.74
   2  -4 -14    2.00    0.82
   2   4 -14    0.31    0.84
   2   4 -13    0.15    0.95
   2  -4 -13    1.58    0.63
   2  -4 -13    0.93    0.75
   2   4 -13    1.39    0.90
   2  -4 -12    4.96    0.80
   2   4 -12    2.89    0.92
   2  -4 -12    5.03    0.87
   2   4 -12    4.77    1.15
   2  -4 -11   18.14    1.17
   2   4 -11   16.23    1.34
   2   4 -11   19.87    1.34
   2  -4 -11   19.01    1.29
  -2   4  11   18.05    1.16
   2  -4 -10   28.85    1.35
   2   4 -10   31.08    1.60
   2   4 -10   33.31    1.59
   2  -4 -10   30.48    1.51
  -2   4  10   30.92    1.45
   2   4  -9    3.48    0.79
  -2   4   9    2.79    0.70
   2  -4  -9    2.11    0.62
   2   4  -9    3.56    0.89
   2  -4  -9    2.15    0.77
   2   4  -8   39.95    1.63
   2  -4  -8   38.76    1.40
   2   4  -8   44.56    1.68
   2   4  -8   40.25    1.63
   2  -4  -8   43.68    1.62
  -2   4   8   39.05    1.55
   2   4  -7   10.53    1.05
   2  -4  -7    9.94    0.82
   2   4  -7   10.59    0.96
   2   4  -7   11.44    1.05
  -2   4   7   10.41    0.98
   2   4  -6   42.69    1.55
   2   4  -6   41.94    1.58
   2  -4  -6   43.46    1.39
   2   4  -6   40.34    1.56
  -2   4   6   42.71    1.58
  -2   4   5   19.37    1.18
   2   4  -5   19.48    1.17
   2  -4  -5   18.53    0.95
   2   4  -5   19.64    1.13
   2   4  -5   19.83    1.16
  -2   4   5   19.57    1.14
   2   4  -4    7.87    0.80
  -2   4   4    8.02    0.92
   2   4  -4    6.90    0.82
   2  -4  -4    7.67    0.68
   2   4  -4    8.27    0.86
  -2   4   4    8.12    0.88
  -2   4   3    7.71    0.88
   2   4  -3    6.12    0.81
   2   4  -3    5.81    0.69
   2  -4  -3    5.64    0.58
   2   4  -3    6.49    0.79
  -2   4   3    7.41    0.87
   2   4  -2    1.09    0.60
  -2   4   2    1.84    0.66
   2   4  -2    0.99    0.66
  -2   4   2    0.71    0.69
   2   4  -2    0.86    0.52
   2  -4  -2    0.85    0.44
   2   4  -1   26.18    1.07
  -2   4   1   27.51    1.23
   2   4  -1   27.57    1.22
  -2  -4   1   27.17    1.03
   2   4  -1   26.77    1.17
   2  -4  -1   27.65    0.96
  -2   4   1   25.91    1.21
  -2   4   0   35.82    1.35
  -2  -4   0   38.03    1.22
   2   4   0   35.00    1.36
   2   4   0   37.17    1.22
   2  -4   0   38.39    1.10
   2   4   0   34.78    1.26
  -2   4   0   34.70    1.35
  -2   4  -1   12.05    0.95
   2   4   1   10.31    0.91
   2   4   1   11.88    0.78
  -2  -4  -1   11.07    0.81
   2   4   1   11.37    0.82
   2  -4   1   12.59    0.71
  -2   4  -1   10.96    0.93
  -2   4  -2    8.36    0.91
   2   4   2    8.79    0.85
   2   4   2    9.15    0.73
  -2  -4  -2    9.80    0.84
   2   4   2    9.18    0.75
  -2   4  -2    9.16    0.88
  -2   4  -3   86.55    2.06
   2   4   3   88.95    2.06
   2   4   3   87.84    1.79
  -2  -4  -3   90.63    2.01
   2   4   3   86.32    1.78
   2   4   3   90.26    2.08
  -2   4  -3   88.79    1.96
  -2   4  -4   10.24    0.98
   2   4   4    9.64    0.94
   2   4   4   10.02    0.74
   2   4   4   10.33    0.97
  -2  -4  -4   11.05    0.91
   2   4   4   10.79    0.74
  -2   4  -4   10.30    0.88
  -2   4  -5    4.58    0.71
  -2   4  -5    5.14    0.87
   2   4   5    3.87    0.61
   2   4   5    4.68    0.81
  -2  -4  -5    4.95    0.85
   2   4   5    4.52    0.85
  -2   4  -6    1.58    0.74
   2   4   6    0.90    0.49
   2   4   6    0.84    0.48
  -2  -4  -6    1.62    0.78
   2   4   6    1.41    0.72
   2   4   6    2.09    0.75
   2   4   7    5.29    0.66
  -2   4  -7    5.22    0.85
   2   4   7    4.27    0.85
  -2  -4  -7    6.18    0.95
   2   4   7    5.96    0.85
   2   4   8    9.67    0.83
  -2   4  -8    9.21    1.02
   2   4   8   10.36    1.03
  -2  -4  -8    9.14    1.08
   2   4   9    5.36    0.73
  -2  -4  -9    6.00    1.06
  -2   4  -9    5.80    0.94
   2   4   9    5.35    0.92
  -2   4 -10    3.27    0.90
   2   4  10    2.51    0.64
  -2  -4 -10    1.70    0.98
   2   4  10    2.38    0.86
  -2   4 -11    2.74    0.96
   2   4  11    0.85    0.60
  -2  -4 -11    1.04    0.97
  -2   4 -12    0.61    0.90
   2   4  12    0.27    0.60
  -2  -4 -12    1.14    1.08
   2   4  12    1.42    0.96
   2   4  13    3.79    1.04
  -2   4 -13    6.41    1.13
   2   4  13    3.39    0.79
  -2  -4 -13    4.60    1.16
   2   4  14    1.12    0.60
  -2   4 -14    0.71    0.96
   2   4  14    1.12    0.97
  -2   4 -15   -0.69    0.87
   2   4  15    0.42    1.10
  -2   4 -16   -1.07    0.79
   2   4  16   -0.94    0.93
   2   5 -15    0.09    0.84
   2   5 -14    1.70    0.95
   2   5 -13    3.60    0.98
   2   5 -12    8.14    1.22
   2   5 -12    9.61    1.31
   2  -5 -12   10.13    1.09
  -2   5  12    8.76    1.03
  -2   5  11    3.62    0.84
   2   5 -11    2.34    0.99
   2  -5 -11    4.62    0.89
   2   5 -11    4.79    1.00
  -2   5  10    1.56    0.68
   2   5 -10    1.13    0.92
   2  -5 -10    1.42    0.70
   2   5 -10    1.61    0.91
  -2   5   9    5.19    0.89
   2   5  -9    5.49    1.01
   2  -5  -9    4.79    0.77
   2   5  -9    4.69    1.02
   2   5  -8   -0.25    0.84
  -2   5   8    0.23    0.71
   2   5  -8    1.38    0.84
   2   5  -8    0.77    0.78
   2  -5  -8    0.16    0.61
   2   5  -7    2.79    0.84
  -2   5   7    1.94    0.80
   2   5  -7    2.17    0.86
   2   5  -7    2.77    0.79
   2  -5  -7    1.73    0.63
  -2   5   6   33.18    1.55
   2   5  -6   29.94    1.48
   2   5  -6   31.15    1.42
   2   5  -6   29.96    1.49
   2  -5  -6   29.28    1.34
  -2   5   6   29.97    1.49
   2   5  -5    5.22    0.88
  -2   5   5    3.74    0.88
  -2   5   5    6.20    0.97
   2   5  -5    4.91    0.87
   2   5  -5    5.18    0.76
   2  -5  -5    6.47    0.78
   2   5  -4    5.76    0.85
  -2   5   4    4.59    0.88
  -2   5   4    5.91    0.92
   2   5  -4    5.49    0.76
   2   5  -4    3.87    0.84
   2   5  -3    3.55    0.75
  -2   5   3    2.74    0.80
  -2   5   3    3.58    0.86
   2   5  -3    2.65    0.87
   2   5  -3    2.46    0.64
   2   5  -2    4.43    0.79
  -2   5   2    5.33    0.85
   2   5  -2    4.51    0.83
   2   5  -2    4.90    0.67
  -2   5   2    5.01    0.91
   2   5  -1    0.91    0.64
  -2   5   1    1.48    0.73
  -2   5   1    0.33    0.76
   2   5  -1    0.47    0.45
   2   5  -1    0.25    0.68
  -2   5   0    5.65    0.83
  -2   5   0    5.47    0.91
   2   5   0    4.56    0.61
   2   5   0    4.64    0.80
   2   5   0    5.69    0.75
   2   5   0    5.81    0.79
  -2   5  -1   35.36    1.50
   2   5   1   33.36    1.43
   2   5   1   33.68    1.21
  -2  -5  -1   33.30    1.27
   2   5   1   32.52    1.30
   2   5   1   31.19    1.38
  -2   5  -1   31.95    1.40
   2   5   2    0.98    0.70
   2   5   2    0.18    0.50
  -2   5  -2    0.29    0.62
  -2   5  -2   -0.46    0.77
   2   5   2    0.35    0.72
  -2  -5  -2    0.42    0.63
   2   5   3    0.40    0.74
  -2   5  -3    0.70    0.60
  -2   5  -3   -0.10    0.79
   2   5   3    0.22    0.69
  -2  -5  -3    0.06    0.69
  -2   5  -4   32.23    1.52
   2   5   4   32.39    1.46
   2   5   4   31.01    1.46
  -2  -5  -4   33.60    1.42
  -2   5  -4   32.92    1.34
  -2   5  -5   28.40    1.49
   2   5   5   30.24    1.45
  -2  -5  -5   29.45    1.40
   2   5   5   28.84    1.43
  -2   5  -5   28.58    1.24
  -2   5  -6    5.20    0.94
  -2  -5  -6    6.52    0.91
   2   5   6    5.35    0.93
   2   5   6    5.91    0.89
   2   5   7    4.28    0.92
  -2   5  -7    4.24    0.94
   2   5   7    3.74    0.94
  -2  -5  -7    3.87    0.94
  -2   5  -8    8.54    1.07
  -2  -5  -8    8.09    1.11
   2   5   8    7.40    1.06
   2   5   8    9.10    1.06
   2   5   9    5.02    0.91
  -2   5  -9    5.20    1.02
   2   5   9    4.66    0.99
  -2  -5  -9    4.27    1.03
  -2   5 -10    0.38    0.79
  -2  -5 -10    0.79    0.90
   2   5  10   -0.05    0.88
   2   5  10    0.52    0.76
  -2   5 -11   -0.21    0.85
  -2  -5 -11    1.49    0.93
   2   5  11    1.45    1.04
  -2   5 -12   -0.76    0.95
  -2  -5 -12    0.45    0.91
   2   5  12   -0.10    0.91
  -2   5 -13    1.02    0.96
   2   5  13    1.24    1.04
  -2   5 -14    4.82    1.04
   2   5  14    2.09    1.06
   2   6 -13   -0.53    1.03
  -2   6  12   -0.61    0.84
   2   6 -12    0.90    0.92
  -2   6  11   -0.06    0.75
   2   6 -11    0.90    0.85
   2   6 -11    0.77    1.06
  -2   6  10    0.88    0.83
   2   6 -10    0.55    0.94
   2  -6 -10    2.47    0.74
   2   6 -10    1.34    1.00
  -2   6   9    1.00    0.78
   2   6  -9   -0.39    0.87
   2   6  -9    0.46    0.84
   2  -6  -9    2.23    0.78
   2   6  -9    0.24    0.91
  -2   6   8    1.60    0.78
   2   6  -8    0.84    0.91
   2   6  -8    1.21    0.81
   2  -6  -8    1.52    0.70
   2   6  -8    1.56    0.93
   2   6  -7    3.37    0.92
  -2   6   7    3.73    0.94
   2   6  -7    2.71    0.81
   2  -6  -7    3.32    0.80
   2   6  -7    2.77    1.01
  -2   6   6    3.06    0.87
  -2   6   6    3.70    1.08
   2   6  -6    2.56    0.91
   2   6  -6    3.26    0.82
   2  -6  -6    1.64    0.73
   2   6  -6    2.69    0.92
  -2   6   5   27.13    1.57
   2   6  -5   27.54    1.46
   2   6  -5   27.77    1.31
   2   6  -5   27.03    1.56
   2  -6  -5   27.23    1.26
  -2   6   5   27.47    1.49
   2   6  -4    3.57    0.91
  -2   6   4    3.05    0.87
  -2   6   4    3.36    0.98
   2   6  -4    2.91    0.90
   2   6  -4    2.20    0.68
   2  -6  -4    2.56    0.67
   2   6  -3    3.36    0.83
  -2   6   3    3.74    0.89
  -2   6   3    4.01    0.97
   2   6  -3    3.82    0.96
   2  -6  -3    2.64    0.57
   2   6  -2    1.87    0.73
  -2   6   2    2.03    0.81
  -2   6   2    2.49    0.93
   2   6  -2    2.88    0.91
   2  -6  -2    2.43    0.60
   2   6  -2    3.44    0.71
   2   6  -1    0.31    0.67
   2   6  -1    0.99    0.66
  -2   6   1   -0.03    0.73
  -2   6   1   -0.31    0.85
   2   6  -1    0.18    0.75
   2   6   0    0.58    0.63
   2   6   0    0.28    0.65
   2   6   0   -0.07    0.71
  -2   6   0    0.13    0.70
  -2   6   0    0.39    0.83
   2   6   1    2.75    0.66
   2   6   1    3.62    0.83
  -2   6  -1    0.86    0.71
  -2   6  -1    2.44    0.90
   2   6   1    1.64    0.79
   2   6   2    0.42    0.71
  -2   6  -2   -0.31    0.60
  -2   6  -2    0.44    0.88
   2   6   2    0.14    0.74
   2   6   3    4.78    0.93
  -2   6  -3    4.30    0.77
  -2   6  -3    4.83    0.99
   2   6   3    5.82    0.95
   2   6   4    5.69    0.99
  -2   6  -4    4.15    0.73
  -2   6  -4    3.29    0.98
   2   6   4    4.71    0.95
  -2  -6  -4    5.88    0.87
   2   6   5    4.98    0.97
  -2   6  -5    2.87    0.94
   2   6   5    3.94    0.88
  -2  -6  -5    4.93    0.92
  -2   6  -6   31.97    1.73
   2   6   6   29.47    1.64
  -2  -6  -6   31.46    1.56
   2   6   6   31.60    1.62
  -2   6  -7   14.70    1.41
   2   6   7   14.73    1.41
  -2   6  -7   14.73    1.37
  -2  -6  -7   14.74    1.34
   2   6   7   14.75    1.31
   2   6   8    2.38    0.91
  -2   6  -8    1.59    0.99
  -2   6  -8    2.07    1.01
   2   6   8    1.97    0.96
  -2  -6  -8    1.94    0.94
   2   6   9    1.40    0.88
  -2   6  -9    3.38    1.12
   2   6   9    0.71    0.90
  -2   6  -9    1.11    1.01
  -2  -6  -9    1.01    0.94
   2   6  10    1.43    0.89
  -2   6 -10    1.21    0.91
   2   6  10   -0.07    0.93
  -2  -6 -10    0.99    0.90
  -2   6 -11    0.81    1.00
   2   6  11   -0.87    0.94
   2   6  11    2.18    0.84
  -2   6 -12    0.81    0.95
   2   6  12   -0.51    0.99
   2   6  12    1.75    0.89
  -2   6 -13   -0.63    0.93
   2   6  13   -2.20    1.00
  -2   7  12    3.39    0.96
  -2   7  11    1.37    0.87
   2   7 -11    1.16    1.20
  -2   7  10    0.23    0.83
   2   7 -10    0.60    1.07
  -2   7   9   -0.21    0.88
   2   7  -9   -0.59    0.88
   2   7  -9   -0.48    0.94
  -2   7   8    0.13    0.76
   2   7  -8    0.61    0.91
   2  -7  -8    0.49    0.54
   2   7  -8   -0.02    0.99
  -2   7   7    2.50    0.90
   2   7  -7    3.22    1.01
   2  -7  -7    3.07    0.84
   2   7  -7    1.88    1.07
  -2   7   6    2.77    0.92
  -2   7   6    4.37    1.14
   2   7  -6    1.95    0.85
   2  -7  -6    3.33    0.82
   2   7  -6    1.63    1.03
   2   7  -5   12.87    1.30
  -2   7   5   10.54    1.27
   2   7  -5   10.04    1.16
   2  -7  -5   10.99    1.01
  -2   7   5   11.21    1.18
  -2   7   4    4.17    0.98
  -2   7   4    2.93    0.99
   2   7  -4    3.01    0.93
   2   7  -4    4.98    1.10
  -2   7   3    2.53    0.91
   2   7  -3    1.05    0.85
  -2   7   3    2.71    1.03
   2   7  -3    2.37    0.96
  -2   7   2    4.84    0.98
  -2   7   2    3.83    1.15
   2   7  -2    4.83    1.02
   2   7  -2    3.67    0.93
   2   7  -1    0.52    0.69
  -2   7   1    0.14    0.77
  -2   7   1   -0.59    1.08
   2   7  -1    0.39    0.85
   2   7  -1    1.36    0.86
   2   7   0    4.33    0.93
  -2   7   0    5.38    0.97
  -2   7   0    2.89    1.10
   2   7   0    3.60    0.93
   2   7   0    4.26    0.90
   2   7   1    2.37    0.81
  -2   7  -1    2.88    0.83
  -2   7  -1    0.39    1.08
   2   7   1    2.15    0.93
   2   7   2    2.27    0.84
  -2   7  -2    2.24    0.76
  -2   7  -2    1.78    1.06
   2   7   2    1.57    0.89
   2   7   3    6.15    1.00
  -2   7  -3    6.55    1.14
   2   7   3    6.61    1.04
  -2   7  -3    6.56    0.90
   2   7   4    4.25    0.97
  -2   7  -4    4.28    1.15
   2   7   4    4.31    1.02
  -2   7  -5   10.16    1.27
   2   7   5    8.20    1.12
   2   7   5   11.18    1.21
   2   7   6    3.09    0.93
  -2   7  -6    0.82    0.96
   2   7   6    2.90    0.94
   2   7   7    1.45    0.93
  -2   7  -7    0.70    0.88
  -2   7  -7    2.89    1.10
   2   7   7    2.68    1.02
  -2  -7  -7    2.83    0.96
   2   7   8    1.01    0.77
  -2   7  -8    0.79    1.00
  -2   7  -8    0.07    1.09
   2   7   8    0.98    1.01
  -2  -7  -8    1.14    0.94
   2   7   9    2.95    0.99
  -2   7  -9    2.38    1.10
  -2   7  -9    1.34    1.09
   2   7   9    1.92    1.05
   2   7  10    0.93    0.89
  -2   7 -10    0.26    0.96
   2   7  10    0.60    1.19
   2   7  11    0.20    0.76
   2   8  -8    1.67    0.96
  -2   8   7   -0.78    0.86
   2   8  -7    2.48    1.04
   2   8  -7    0.11    1.09
  -2   8   6   -1.15    0.91
  -2   8   6    2.70    1.23
   2   8  -6    0.58    0.92
   2   8  -6   -0.27    1.07
  -2   8   5   -0.69    1.02
  -2   8   5    1.93    1.13
   2   8  -5    0.64    0.89
   2   8  -5    1.02    0.94
  -2   8   4    0.03    0.89
  -2   8   4   -0.38    1.09
   2   8  -4   -0.48    0.86
   2   8  -4   -0.34    0.94
  -2   8   3    0.39    0.78
  -2   8   3    0.57    1.13
   2   8  -3   -0.38    0.88
   2   8  -3    0.65    0.98
  -2   8   2    0.31    0.88
  -2   8   2    0.41    1.14
   2   8  -2    0.91    0.95
   2   8  -2   -0.01    0.92
  -2   8   1    1.47    0.86
  -2   8   1    3.15    1.21
   2   8  -1    2.89    1.07
   2   8   0    1.77    0.88
  -2   8   0    1.61    0.83
  -2   8   0    1.52    1.04
   2   8   0    1.41    0.89
   2   8   1    1.21    0.75
  -2   8  -1    1.49    0.85
  -2   8  -1   -0.63    1.14
   2   8   1    0.85    0.89
   2   8   2    6.20    1.05
  -2   8  -2    6.02    1.05
   2   8   2    4.69    1.12
  -2   8  -2    4.44    1.19
  -2   8  -3    8.53    1.43
   2   8   3    6.33    1.13
   2   8   3    8.19    1.17
   2   8   4    6.44    1.07
  -2   8  -4    7.65    1.20
   2   8   4    6.22    1.17
   2   8   5    1.36    0.90
  -2   8  -5    1.83    1.02
   2   8   5    1.44    0.96
   2   8   6    1.63    0.99
  -2   8  -6    2.17    0.95
   2   8   6    1.97    0.92
   2   8   7    2.76    0.98
  -2   8  -7    0.35    0.87
   2   8   7    2.66    0.97
   2   9   1    2.38    0.82
  -2   9  -1    0.04    0.86
   3   0 -14   -0.32    0.70
   3   0 -13   11.50    1.09
   3   0 -13   10.51    1.12
   3   0 -12    3.04    0.80
   3   0 -12    2.62    0.85
   3   0 -11    6.59    0.86
   3   0 -11    6.57    0.94
   3   0 -10   16.69    1.23
   3   0 -10   16.72    1.10
   3   0  -9   16.73    1.19
   3   0  -9   16.89    1.09
   3   0  -9   16.88    1.00
   3   0  -8    5.96    0.89
   3   0  -8    4.14    0.68
   3   0  -8    5.02    0.75
   3   0  -7    0.43    0.56
  -3   0   7    0.31    0.64
   3   0  -7    0.12    0.57
   3   0  -7    0.58    0.66
   3   0  -6    0.37    0.56
  -3   0   6    0.80    0.70
   3   0  -6    0.22    0.56
   3   0  -6   -0.20    0.64
   3   0  -5    2.55    0.72
  -3   0   5    3.83    0.74
   3   0  -5    3.17    0.64
   3   0  -5    2.85    0.74
  -3   0   4   41.98    1.45
   3   0  -4   47.84    1.47
   3   0  -4   46.67    1.52
   3   0  -4   43.34    1.49
  -3   0   3    5.74    0.83
   3   0  -3    5.72    0.79
   3   0  -3    5.27    0.77
  -3   0   3    5.54    0.77
   3   0  -3    5.28    0.69
  -3   0   2   25.60    1.23
   3   0  -2   23.61    1.12
  -3   0   2   24.31    1.15
   3   0  -2   26.02    1.19
   3   0  -2   24.76    1.19
  -3   0   1    9.91    0.95
  -3   0   1    9.54    0.89
   3   0  -1    9.16    0.80
   3   0  -1   10.51    0.87
   3   0  -1    9.81    0.90
   3   0   0    4.17    0.81
   3   0   0    3.40    0.73
   3   0   0    4.26    0.68
  -3   0   0    4.32    0.75
   3   0   1    4.77    0.72
   3   0   1    4.48    0.70
  -3   0  -1    4.83    0.79
   3   0   1    5.70    0.75
   3   0   2    1.33    0.62
   3   0   2    1.52    0.68
  -3   0  -2    0.96    0.69
   3   0   3   28.36    1.26
  -3   0  -3   29.71    1.30
   3   0   3   29.23    1.29
  -3   0  -4    3.38    0.80
   3   0   4    2.33    0.68
   3   0   4    2.70    0.69
   3   0   5    6.60    0.86
  -3   0  -5    7.42    0.91
   3   0   5    7.25    0.90
   3   0   6    0.82    0.70
  -3   0  -6    0.89    0.75
   3   0   6    0.65    0.74
   3   0   7    0.61    0.66
   3   0   7    0.30    0.67
  -3   0  -7    0.83    0.72
   3   0   8    6.20    0.88
   3   0   8    8.33    0.98
  -3   0  -8    6.58    0.92
   3   0   9   10.02    1.04
   3   0   9   10.58    1.09
  -3   0  -9   10.71    1.09
   3   0  10   18.03    1.26
  -3   0 -10   15.62    1.26
   3   0  11    0.21    0.72
  -3   0 -11   -0.03    0.77
  -3   0 -12    2.89    0.95
   3   0  12    2.72    0.80
   3   0  13   -0.63    0.75
  -3   0 -13    0.40    0.75
   3   0  14   -0.41    0.68
   3   1 -15   -0.27    0.80
   3   1 -14    0.10    0.59
   3  -1 -14   -1.09    0.60
   3   1 -14   -0.52    0.77
   3   1 -13    1.08    0.72
   3  -1 -13    1.99    0.73
   3   1 -13    2.52    0.90
   3  -1 -13    1.90    0.59
   3   1 -12    0.85    0.78
   3   1 -12    0.06    0.65
   3  -1 -12    0.97    0.79
   3   1 -11    4.42    0.89
   3   1 -11    4.58    0.91
   3  -1 -11    4.06    0.92
   3   1 -10    0.74    0.57
   3   1 -10    1.24    0.75
   3  -1 -10    1.36    0.79
   3   1 -10    1.46    0.70
   3   1  -9   56.64    1.88
   3  -1  -9   57.27    1.94
   3  -1  -9   58.31    1.71
   3   1  -9   56.91    1.88
   3   1  -9   58.06    1.77
  -3   1   8   28.54    1.27
   3  -1  -8   30.77    1.44
   3  -1  -8   28.56    1.22
   3   1  -8   29.13    1.38
   3   1  -8   30.69    1.41
   3   1  -8   28.71    1.30
   3   1  -7    5.33    0.80
  -3   1   7    4.15    0.76
   3   1  -7    4.84    0.80
   3  -1  -7    4.45    0.65
   3  -1  -7    5.46    0.69
   3  -1  -7    5.22    0.83
   3   1  -7    4.16    0.78
  -3   1   6    8.06    0.86
  -3  -1   6    8.11    0.80
   3   1  -6    9.26    0.87
   3  -1  -6    7.80    0.69
   3  -1  -6    8.61    0.92
   3   1  -6    8.61    0.88
   3   1  -6    7.99    0.88
   3  -1  -6    7.24    0.80
  -3   1   5   29.72    1.33
  -3  -1   5   31.13    1.26
   3   1  -5   30.07    1.32
   3  -1  -5   32.39    1.19
   3  -1  -5   30.94    1.34
   3   1  -5   30.77    1.30
   3   1  -5   29.55    1.29
   3  -1  -5   28.48    1.23
  -3   1   4    9.87    0.94
   3   1  -4   10.15    0.73
   3   1  -4    9.84    0.89
   3  -1  -4    9.44    0.75
   3  -1  -4    9.82    0.90
   3   1  -4   11.28    0.93
  -3  -1   4    8.99    0.85
   3   1  -4   10.49    0.90
   3  -1  -4    9.47    0.85
  -3   1   3   43.27    1.51
   3   1  -3   45.74    1.23
   3   1  -3   46.03    1.50
   3  -1  -3   44.48    1.36
  -3  -1   3   44.46    1.47
   3  -1  -3   48.08    1.56
   3   1  -3   44.13    1.47
   3   1  -3   44.44    1.53
   3  -1  -3   45.56    1.49
  -3   1   2   38.57    1.45
   3   1  -2   39.13    1.12
   3  -1  -2   39.71    1.30
  -3  -1   2   39.60    1.40
   3   1  -2   38.95    1.40
   3  -1  -2   39.24    1.41
   3   1  -2   41.13    1.42
   3   1  -2   39.02    1.44
   3  -1  -2   39.91    1.42
  -3   1   1   37.26    1.44
   3   1  -1   39.55    1.10
   3   1  -1   41.25    1.42
   3  -1  -1   41.86    1.34
  -3   1   1   39.68    1.48
  -3  -1   1   40.59    1.42
   3  -1  -1   42.06    1.47
   3   1  -1   41.46    1.41
   3   1  -1   36.76    1.41
   3   1   0    2.06    0.73
  -3   1   0    1.73    0.78
   3  -1   0    1.72    0.69
   3   1   0    1.38    0.64
   3   1   0    2.23    0.44
   3   1   0    2.54    0.69
   3  -1   0    2.34    0.59
  -3   1   0    1.97    0.70
  -3  -1   0    1.81    0.67
  -3   1  -1   14.69    1.07
   3   1   1   15.45    1.02
   3  -1   1   17.10    0.99
  -3   1  -1   17.32    1.06
  -3  -1  -1   14.98    1.03
   3   1   1   15.23    1.03
   3  -1   1   17.08    1.05
   3   1   1   16.63    1.04
  -3   1  -2   23.04    1.25
   3   1   2   23.36    1.17
   3  -1   2   26.26    1.19
  -3   1  -2   24.80    1.22
  -3  -1  -2   25.51    1.24
   3   1   2   23.90    1.21
   3  -1   2   26.14    1.20
   3   1   2   25.91    1.19
   3   1   3    0.86    0.69
  -3   1  -3    0.52    0.74
   3   1   3    0.53    0.65
   3  -1   3   -0.10    0.61
  -3   1  -3    0.09    0.64
   3  -1   3    0.34    0.61
  -3  -1  -3    0.43    0.71
   3   1   3    0.15    0.58
  -3   1  -4    8.69    0.96
   3   1   4    8.94    0.92
   3  -1   4    8.67    0.86
  -3   1  -4    8.09    0.92
  -3  -1  -4   11.58    0.99
   3   1   4    8.85    0.89
   3  -1   4   10.00    0.93
   3   1   4   10.08    0.92
   3  -1   5    1.35    0.66
   3   1   5    0.96    0.62
   3   1   5    1.82    0.70
  -3   1  -5    1.57    0.82
   3   1   5    0.58    0.66
  -3   1  -5    0.69    0.69
   3  -1   5    1.71    0.75
  -3  -1  -5    1.15    0.76
  -3   1  -6    2.05    0.83
   3  -1   6    2.22    0.69
   3   1   6    2.45    0.71
   3   1   6    1.81    0.76
   3  -1   6    2.66    0.76
  -3   1  -6    1.91    0.73
  -3  -1  -6    2.10    0.87
  -3   1  -7   16.19    1.13
   3  -1   7   15.05    1.14
   3   1   7   15.40    1.11
   3   1   7   15.04    1.16
   3  -1   7   15.99    1.13
  -3   1  -7   15.13    1.10
  -3  -1  -7   14.66    1.21
  -3   1  -8   22.78    1.27
   3  -1   8   24.83    1.34
   3   1   8   26.45    1.40
   3   1   8   25.44    1.36
  -3   1  -8   24.30    1.25
  -3  -1  -8   24.84    1.45
   3  -1   9    7.57    0.95
   3   1   9    8.80    1.01
  -3  -1  -9    8.02    1.08
   3   1   9    8.86    1.03
  -3   1  -9    8.51    0.93
   3  -1  10    1.22    0.77
   3   1  10    1.06    0.77
   3   1  10    0.83    0.74
  -3   1 -10    2.09    0.70
  -3  -1 -10    0.74    0.89
   3   1  11    3.64    0.89
   3  -1  11    3.93    0.84
  -3  -1 -11    4.20    0.98
   3   1  11    3.66    0.84
   3   1  12    1.29    0.77
  -3  -1 -12    1.73    0.93
   3   1  12    2.88    0.88
   3  -1  12    1.53    0.79
   3   1  13    0.88    0.74
   3   1  13    1.42    0.82
  -3  -1 -13    1.26    0.94
   3  -1  13    1.07    0.75
   3  -1  14   -0.21    0.64
  -3  -1 -14    1.13    0.93
   3   2 -14    0.07    0.64
   3   2 -14   -0.02    0.83
   3  -2 -14   -0.17    0.62
   3   2 -13    1.09    0.62
   3  -2 -13    1.41    0.74
   3   2 -13    1.61    0.88
   3  -2 -13    0.59    0.64
   3   2 -12    4.93    0.79
   3  -2 -12    4.82    0.85
   3   2 -12    6.63    1.04
   3   2 -11   11.78    1.07
   3  -2 -11   12.04    1.14
   3   2 -11   12.19    1.20
   3   2 -11   13.03    1.06
   3   2 -10    0.18    0.63
   3   2 -10    0.38    0.77
   3   2 -10    0.11    0.67
   3  -2 -10    0.30    0.75
   3   2  -9    2.33    0.76
  -3   2   9    2.24    0.77
   3   2  -9    2.49    0.80
   3   2  -9    2.69    0.72
   3  -2  -9    2.53    0.80
   3   2  -8   71.43    2.04
   3   2  -8   71.11    2.18
   3  -2  -8   71.78    2.24
   3   2  -8   71.81    2.09
  -3   2   8   71.27    1.99
  -3   2   7   61.54    1.83
   3   2  -7   62.42    1.95
   3  -2  -7   63.86    1.93
   3   2  -7   63.22    1.83
   3   2  -7   61.96    1.88
  -3   2   6    6.47    0.91
   3   2  -6    5.45    0.76
   3   2  -6    6.59    0.87
   3  -2  -6    6.44    0.84
   3   2  -6    6.38    0.80
   3   2  -6    6.11    0.86
   3  -2  -6    5.06    0.70
  -3   2   5   22.40    1.26
   3   2  -5   23.50    1.12
   3   2  -5   23.66    1.25
   3   2  -5   25.17    1.18
  -3  -2   5   22.17    1.10
   3  -2  -5   26.44    1.25
   3   2  -5   24.51    1.27
   3  -2  -5   23.47    1.13
  -3   2   4   17.34    1.14
   3   2  -4   19.51    1.02
   3   2  -4   20.51    1.15
   3  -2  -4   17.32    0.88
   3  -2  -4   20.42    1.15
   3   2  -4   20.34    1.09
  -3  -2   4   19.66    1.03
   3   2  -4   19.92    1.18
   3  -2  -4   18.72    1.04
  -3   2   3   19.53    1.17
  -3   2   3   19.71    0.97
   3   2  -3   20.23    1.00
   3   2  -3   19.48    1.11
   3  -2  -3   20.99    0.95
  -3  -2   3   20.16    1.07
   3  -2  -3   19.35    1.08
   3   2  -3   20.93    1.09
   3   2  -3   18.87    1.15
  -3   2   2   10.19    0.99
  -3   2   2   11.33    0.76
   3   2  -2   11.40    0.80
   3   2  -2    9.79    0.89
   3  -2  -2   11.12    0.76
  -3  -2   2   11.39    0.89
   3  -2  -2   11.29    0.90
   3   2  -2   11.52    0.91
   3   2  -2   11.05    0.96
   3   2  -1    4.04    0.77
  -3   2   1    3.46    0.89
   3  -2  -1    3.69    0.74
   3   2  -1    4.01    0.73
  -3   2   1    3.63    0.57
   3   2  -1    3.50    0.57
   3   2  -1    3.96    0.71
   3  -2  -1    3.36    0.57
  -3  -2   1    3.37    0.70
   3   2   0    2.94    0.75
  -3   2   0    2.66    0.82
   3  -2   0    3.05    0.69
  -3   2   0    2.25    0.54
   3   2   0    3.02    0.66
   3   2   0    2.97    0.69
   3  -2   0    3.16    0.57
   3   2   0    2.56    0.55
  -3  -2   0    2.50    0.67
   3   2   1    1.80    0.71
  -3   2  -1    1.95    0.77
  -3   2  -1    2.32    0.54
   3  -2   1    1.97    0.70
   3   2   1    1.67    0.62
   3   2   1    2.13    0.68
   3  -2   1    1.85    0.55
   3   2   1    1.90    0.54
  -3   2  -1    1.99    0.68
  -3  -2  -1    2.22    0.69
  -3   2  -2    9.47    0.99
  -3   2  -2    9.63    0.75
   3   2   2    9.45    0.75
   3   2   2    8.18    0.87
   3  -2   2    7.75    0.71
  -3   2  -2    8.70    0.89
  -3  -2  -2   11.21    0.94
   3   2   2   10.03    0.94
   3  -2   2    9.34    0.88
   3   2   2    9.97    0.88
  -3   2  -3    9.59    1.03
  -3   2  -3    9.54    0.77
   3   2   3   11.02    0.79
   3   2   3    8.91    0.85
   3  -2   3   10.59    0.86
  -3   2  -3    9.99    0.93
  -3  -2  -3   11.91    1.03
   3   2   3   10.47    0.94
   3  -2   3   10.69    0.93
   3   2   3   10.03    0.90
  -3   2  -4   29.38    1.41
  -3   2  -4   32.17    1.19
   3   2   4   30.63    1.20
   3   2   4   32.37    1.40
   3  -2   4   31.59    1.35
  -3   2  -4   30.74    1.32
  -3  -2  -4   32.76    1.47
   3   2   4   29.01    1.32
   3  -2   4   30.74    1.34
   3   2   4   30.29    1.31
  -3   2  -5   11.74    1.07
  -3   2  -5   13.68    0.91
   3   2   5   13.34    0.94
   3   2   5   12.55    1.03
   3  -2   5   14.00    1.01
  -3   2  -5   14.13    1.03
  -3  -2  -5   13.70    1.20
   3   2   5   12.96    0.99
   3  -2   5   13.34    1.02
   3   2   5   12.97    0.98
  -3   2  -6   36.26    1.50
   3   2   6   40.64    1.58
  -3   2  -6   39.82    1.39
   3   2   6   36.73    1.37
   3   2   6   38.23    1.56
   3  -2   6   39.84    1.54
  -3   2  -6   36.89    1.43
  -3  -2  -6   36.88    1.61
   3   2   6   37.70    1.43
   3  -2   6   40.47    1.54
   3  -2   7   48.57    1.74
  -3   2  -7   46.70    1.63
   3   2   7   51.19    1.75
  -3   2  -7   49.08    1.57
   3   2   7   48.29    1.59
   3   2   7   49.14    1.77
  -3   2  -7   45.51    1.59
  -3  -2  -7   51.37    1.89
   3   2   7   48.38    1.59
  -3   2  -8    8.98    0.92
   3  -2   8   10.49    0.97
   3   2   8   10.19    1.01
  -3   2  -8    9.63    0.88
   3   2   8   10.45    0.93
   3   2   8   10.40    1.02
  -3   2  -8    8.16    0.87
  -3  -2  -8   11.05    1.18
   3  -2   9    1.36    0.71
  -3   2  -9    2.21    0.71
   3   2   9    1.31    0.71
   3   2   9    0.97    0.67
  -3  -2  -9    1.47    0.98
   3   2   9    1.51    0.70
   3  -2  10    3.47    0.77
  -3   2 -10    2.82    0.74
   3   2  10    4.56    0.84
   3   2  10    3.78    0.78
  -3  -2 -10    2.69    0.98
   3   2  10    3.85    0.82
  -3   2 -11   -0.92    0.65
   3  -2  11    0.17    0.67
   3   2  11    0.66    0.73
  -3  -2 -11    0.57    0.97
   3   2  11   -0.08    0.56
   3   2  11    2.03    0.76
   3   2  12    1.44    0.79
  -3   2 -12    2.07    0.78
   3  -2  12    1.82    0.82
   3   2  12    2.26    0.79
  -3  -2 -12    1.75    0.98
   3   2  13   -0.08    0.74
  -3   2 -13   -1.14    0.68
   3   2  13    1.29    0.74
   3  -2  13    0.50    0.83
  -3  -2 -13    0.25    0.97
   3   2  14    1.21    0.63
   3   3 -13   -0.07    0.72
   3  -3 -13   -0.31    0.61
   3   3 -13    0.38    0.91
   3  -3 -13   -0.12    0.61
   3   3 -12    1.15    0.67
   3  -3 -12    1.79    0.69
   3   3 -12    1.60    1.00
   3  -3 -12    0.88    0.64
   3   3 -11    1.16    0.84
   3   3 -11    1.12    0.87
   3  -3 -11    1.17    0.70
   3   3 -10    3.33    0.79
  -3   3  10    2.33    0.71
   3   3 -10    3.57    0.96
   3   3 -10    2.64    0.72
   3  -3 -10    2.88    0.80
   3   3  -9    1.00    0.75
  -3   3   9    0.90    0.65
   3   3  -9    0.25    0.76
   3   3  -9    0.13    0.58
   3  -3  -9    1.07    0.72
   3   3  -8    1.66    0.76
  -3   3   8    1.39    0.68
   3   3  -8    2.16    0.65
   3  -3  -8    1.86    0.75
   3   3  -8    1.59    0.81
   3   3  -7    4.79    0.83
  -3   3   7    4.30    0.88
   3   3  -7    4.43    0.85
   3  -3  -7    6.54    0.87
   3   3  -7    5.54    0.76
   3   3  -7    5.80    0.94
   3   3  -6   37.36    1.59
   3   3  -6   39.41    1.56
   3  -3  -6   40.41    1.55
   3   3  -6   38.71    1.39
   3   3  -6   36.00    1.57
  -3   3   6   38.68    1.62
  -3   3   5  167.39    3.04
   3   3  -5  168.80    2.89
   3   3  -5  167.22    3.06
   3  -3  -5  167.28    2.85
   3   3  -5  167.45    2.69
   3   3  -5  168.67    3.06
   3   3  -4    1.40    0.60
   3   3  -4    2.84    0.83
  -3   3   4    2.80    0.86
  -3   3   4    2.72    0.77
   3   3  -4    1.89    0.69
   3   3  -4    1.91    0.71
  -3  -3   4    2.15    0.64
   3  -3  -4    2.13    0.65
  -3   3   3   11.98    1.06
  -3   3   3   13.06    0.94
   3   3  -3   12.30    0.95
   3   3  -3   12.05    1.02
   3  -3  -3   12.24    0.93
  -3  -3   3   11.01    0.85
   3   3  -3   11.68    0.87
   3   3  -3   10.51    0.99
  -3   3   2    6.04    0.94
  -3   3   2    6.29    0.77
   3   3  -2    6.50    0.82
   3   3  -2    5.31    0.75
   3  -3  -2    6.67    0.80
   3   3  -2    5.58    0.75
   3   3  -2    6.13    0.85
  -3  -3   2    4.62    0.67
   3   3  -1    1.61    0.73
   3  -3  -1    1.65    0.62
  -3   3   1    1.41    0.85
   3   3  -1    1.82    0.62
  -3   3   1    1.54    0.65
   3   3  -1    0.95    0.60
   3   3  -1    2.05    0.65
  -3  -3   1    1.21    0.62
  -3   3   0   11.46    1.08
  -3   3   0   11.70    0.88
   3   3   0   12.58    0.92
   3   3   0   11.94    0.93
  -3  -3   0   14.56    0.99
   3  -3   0   13.18    0.94
   3   3   0   10.57    0.96
   3   3   0   12.96    0.92
   3   3   1    1.12    0.63
  -3   3  -1    0.68    0.74
   3  -3   1    1.10    0.62
  -3   3  -1    1.14    0.64
   3   3   1    0.54    0.55
   3   3   1    0.70    0.63
   3  -3   1    1.25    0.50
   3   3   1    0.14    0.58
  -3  -3  -1    1.47    0.69
   3   3   2    0.99    0.66
  -3   3  -2    0.87    0.76
  -3   3  -2    1.11    0.65
   3  -3   2    0.64    0.63
   3   3   2    1.73    0.66
   3   3   2    0.64    0.56
   3  -3   2    0.77    0.48
   3   3   2    1.18    0.64
  -3  -3  -2    0.87    0.76
   3   3   3    3.32    0.63
  -3   3  -3    2.88    0.78
  -3   3  -3    2.79    0.69
   3  -3   3    3.38    0.70
   3   3   3    3.25    0.73
   3  -3   3    3.29    0.63
   3   3   3    3.29    0.70
   3   3   3    3.25    0.63
  -3  -3  -3    3.04    0.84
  -3   3  -4   28.90    1.36
  -3   3  -4   28.36    1.24
   3   3   4   29.95    1.28
   3   3   4   30.60    1.35
   3  -3   4   28.79    1.25
  -3   3  -4   28.10    1.29
  -3  -3  -4   29.61    1.44
   3   3   4   29.66    1.28
   3  -3   4   30.90    1.32
   3   3   4   30.63    1.29
   3   3   5    1.28    0.58
   3   3   5    3.18    0.71
  -3   3  -5    2.36    0.75
  -3   3  -5    3.07    0.74
   3   3   5    1.86    0.64
   3  -3   5    2.77    0.63
   3   3   5    2.50    0.73
  -3   3  -5    1.62    0.63
  -3  -3  -5    3.10    0.86
   3  -3   5    1.79    0.62
   3   3   6   35.54    1.45
  -3   3  -6   35.25    1.48
  -3   3  -6   34.34    1.44
   3   3   6   37.53    1.50
   3   3   6   35.44    1.51
  -3   3  -6   34.51    1.36
  -3  -3  -6   36.23    1.65
   3  -3   6   36.41    1.48
   3  -3   7    2.83    0.73
  -3   3  -7    3.04    0.82
   3   3   7    3.47    0.75
  -3   3  -7    2.96    0.77
   3   3   7    3.53    0.78
   3   3   7    3.28    0.81
  -3  -3  -7    3.60    0.96
   3  -3   8    2.55    0.74
   3   3   8    2.71    0.72
  -3   3  -8    2.19    0.77
   3   3   8    3.32    0.72
  -3  -3  -8    2.44    0.93
   3   3   8    1.72    0.78
   3  -3   9    0.23    0.66
   3   3   9    0.07    0.68
  -3   3  -9   -1.37    0.71
   3   3   9   -0.08    0.65
  -3  -3  -9    0.26    0.92
   3   3   9   -0.10    0.72
   3  -3  10    1.09    0.70
  -3   3 -10    0.17    0.71
   3   3  10    0.67    0.72
   3   3  10    0.29    0.65
  -3  -3 -10    0.51    0.97
   3   3  10    0.23    0.79
   3  -3  11    0.52    0.60
  -3   3 -11    1.51    0.77
   3   3  11   -0.53    0.66
   3   3  11    1.10    0.68
  -3  -3 -11   -0.35    1.00
   3   3  11   -0.37    0.82
   3  -3  12    0.29    0.63
  -3   3 -12    1.88    0.78
   3   3  12    0.00    0.67
  -3  -3 -12    0.12    1.04
   3   3  12    0.88    0.72
   3   3  12    1.02    0.80
   3  -3  13    0.28    0.60
  -3   3 -13    2.17    0.85
   3   3  13    1.14    0.92
   3   3  13    0.36    0.70
  -3   3 -14    1.90    0.82
   3   3  14    0.87    0.98
  -3   3 -15    2.67    0.77
   3   3  15    2.77    1.06
   3   4 -14    1.61    0.95
   3   4 -13    0.24    1.01
   3   4 -12    6.19    1.05
   3  -4 -12    5.99    0.85
   3  -4 -11    5.09    0.85
   3  -4 -11    3.73    0.86
   3   4 -10    1.29    0.85
  -3   4  10    0.75    0.73
   3   4 -10    1.59    0.89
   3  -4 -10    2.02    0.78
   3  -4 -10    1.08    0.78
   3   4  -9    5.41    0.97
  -3   4   9    5.81    0.94
   3   4  -9    5.49    1.02
   3  -4  -9    5.76    0.92
   3   4  -8   17.80    1.32
   3  -4  -8   18.11    1.23
   3   4  -8   17.72    1.31
   3   4  -8   18.56    1.33
  -3   4   8   18.76    1.30
   3   4  -7   39.76    1.72
   3  -4  -7   34.75    1.53
   3   4  -7   38.39    1.73
   3   4  -7   38.47    1.71
  -3   4   7   38.75    1.72
   3   4  -6   12.52    1.08
   3   4  -6   11.32    1.09
   3  -4  -6   10.86    0.96
   3   4  -6   10.39    1.08
  -3   4   6   12.59    1.13
   3   4  -5    6.07    1.04
  -3   4   5    7.06    1.00
  -3   4   5    8.75    1.04
   3   4  -5    7.61    0.94
   3   4  -5    7.21    0.92
   3  -4  -5    7.18    0.84
  -3   4   4    6.70    1.05
  -3   4   4    8.07    0.96
   3   4  -4    8.31    0.96
   3  -4  -4    6.95    0.80
   3   4  -4    6.43    0.85
   3   4  -4    8.42    0.97
  -3   4   3   15.75    1.08
   3   4  -3   15.21    1.10
   3   4  -3   15.56    1.08
   3  -4  -3   14.66    0.99
   3   4  -3   15.95    1.13
  -3   4   3   15.48    1.24
   3  -4  -2    3.07    0.66
   3   4  -2    3.28    0.78
  -3   4   2    4.08    0.91
  -3   4   2    2.54    0.81
   3   4  -2    3.71    0.80
   3   4  -2    2.92    0.70
   3  -4  -1    1.95    0.61
   3   4  -1    3.23    0.74
  -3   4   1    2.78    0.85
  -3   4   1    1.42    0.79
   3   4  -1    3.57    0.70
   3   4  -1    2.24    0.74
  -3  -4   1    2.07    0.63
   3   4   0    1.76    0.70
  -3   4   0    1.13    0.79
   3  -4   0    1.58    0.56
  -3   4   0    0.90    0.79
   3   4   0    1.32    0.58
   3   4   0    1.37    0.66
  -3  -4   0    2.04    0.64
   3   4   1    1.67    0.65
  -3   4  -1    2.02    0.87
   3  -4   1    0.82    0.59
  -3   4  -1    1.29    0.83
   3   4   1    1.11    0.58
   3   4   1    0.85    0.67
  -3  -4  -1    1.38    0.66
  -3   4  -2    7.89    1.01
  -3   4  -2   10.29    1.00
   3   4   2    9.85    0.98
   3   4   2    7.56    0.85
  -3  -4  -2    8.72    0.96
   3   4   2    9.86    0.92
   3  -4   2    8.72    0.85
   3   4   3    4.70    0.76
  -3   4  -3    4.93    0.94
   3   4   3    5.73    0.84
  -3   4  -3    5.26    0.84
   3   4   3    4.95    0.76
  -3  -4  -3    6.07    0.92
   3  -4   3    5.52    0.74
  -3   4  -4   10.64    1.10
  -3   4  -4    9.40    0.97
   3   4   4   11.07    1.01
   3   4   4   10.34    0.95
  -3  -4  -4   10.83    1.06
   3   4   4   10.13    0.85
  -3   4  -5    4.30    0.88
  -3   4  -5    4.24    0.86
   3   4   5    4.20    0.75
   3   4   5    4.83    0.88
  -3  -4  -5    5.02    1.02
  -3   4  -6   12.94    1.11
  -3   4  -6   14.39    1.16
   3   4   6   15.08    1.22
   3   4   6   12.55    1.03
  -3  -4  -6   15.09    1.29
  -3   4  -7   13.66    1.18
   3   4   7   13.61    1.18
   3   4   7   10.13    0.97
  -3  -4  -7   10.74    1.19
  -3   4  -8    4.00    0.88
   3   4   8    3.74    0.69
   3   4   8    2.73    0.50
  -3  -4  -8    2.05    0.97
  -3   4  -9    0.32    0.74
   3   4   9   -0.13    0.97
  -3  -4  -9   -0.37    0.98
   3   4  10   -0.15    0.62
  -3   4 -10   -0.08    0.72
   3   4  10   -0.27    0.87
  -3  -4 -10   -0.28    1.07
  -3   4 -11    0.91    0.68
   3   4  11   -0.07    0.61
  -3  -4 -11    0.22    0.99
   3   4  11    1.49    0.96
  -3   4 -12   -1.55    0.78
   3   4  12    0.54    0.64
   3   4  12   -0.04    0.89
  -3   4 -13    1.02    0.78
   3   4  13   -0.73    0.92
  -3   4 -14    1.93    0.75
   3   4  14    0.15    0.89
   3   5 -13    1.69    1.04
   3   5 -12    1.58    1.05
   3   5 -11    1.53    1.01
  -3   5  11    0.92    0.86
   3   5 -10    0.73    0.83
  -3   5  10    0.30    0.82
   3   5  -9   13.70    1.29
   3   5  -9   12.66    1.26
   3  -5  -9   13.01    1.15
  -3   5   9   10.06    1.20
   3   5  -8    8.59    1.12
   3   5  -8    7.05    1.08
   3   5  -8    9.05    1.11
  -3   5   8    8.22    1.13
   3   5  -7    2.39    0.88
  -3   5   7    0.09    0.81
   3   5  -7    1.34    0.82
   3   5  -7   -0.02    0.83
   3   5  -6    2.68    0.90
  -3   5   6    2.18    0.85
  -3   5   6    5.19    1.08
   3   5  -6    2.98    0.92
   3   5  -6    2.43    0.84
   3   5  -5    1.74    0.90
  -3   5   5    2.41    0.82
  -3   5   5    3.55    0.98
   3   5  -5    1.86    0.89
   3   5  -5    1.53    0.78
   3   5  -4    2.37    0.87
  -3   5   4    3.26    0.93
  -3   5   4    1.91    0.87
   3   5  -4    2.36    0.79
   3   5  -4    3.22    0.78
  -3   5   3   15.82    1.24
   3   5  -3   14.97    1.21
   3   5  -3   12.27    1.04
   3   5  -3   13.10    1.14
  -3   5   3   15.36    1.28
   3   5  -2    2.38    0.81
  -3   5   2    3.20    0.88
  -3   5   2    3.49    0.85
   3   5  -2    1.71    0.67
   3   5  -2    3.24    0.83
   3   5  -1    0.16    0.68
  -3   5   1    0.44    0.80
  -3   5   1   -0.10    0.76
   3   5  -1    0.80    0.57
   3   5  -1    0.35    0.79
   3   5   0    0.32    0.65
  -3   5   0    0.23    0.82
  -3   5   0   -0.43    0.79
   3   5   0    1.11    0.63
   3   5   0    0.57    0.75
   3   5   1    4.92    0.80
  -3   5  -1    4.40    0.95
  -3   5  -1    5.27    0.97
   3   5   1    4.42    0.75
   3   5   1    4.17    0.86
   3   5   2    1.01    0.61
  -3   5  -2    0.45    0.87
  -3   5  -2    0.77    0.79
   3   5   2    0.62    0.55
   3   5   2    0.36    0.70
  -3  -5  -2    1.24    0.76
   3   5   3    1.29    0.64
  -3   5  -3    1.26    0.85
  -3   5  -3    2.83    0.87
   3   5   3    1.11    0.49
   3   5   3    2.13    0.84
  -3  -5  -3    2.70    0.82
  -3   5  -4    6.70    1.00
   3   5   4    7.50    1.02
  -3   5  -4    5.70    0.96
  -3  -5  -4    7.87    0.99
  -3   5  -5    0.65    0.76
  -3   5  -5    0.04    0.82
   3   5   5    0.84    0.81
  -3  -5  -5    0.77    0.90
  -3   5  -6   -0.06    0.87
   3   5   6    1.03    0.73
  -3  -5  -6    0.47    0.80
  -3   5  -7    4.43    0.99
   3   5   7    5.27    1.03
  -3  -5  -7    3.33    0.95
   3   5   8    5.40    1.13
  -3  -5  -8    5.76    1.05
  -3   5  -9    1.65    1.12
   3   5   9    1.69    1.01
  -3   5 -10    1.83    0.99
   3   5  10    1.91    1.14
  -3   5 -11    1.31    0.93
   3   5  11    1.31    0.95
  -3   5 -12    0.58    0.70
   3   5  12    0.35    0.95
  -3   5 -13   -0.06    0.74
   3   5  13   -1.47    1.07
  -3   6  11    6.31    1.16
   3   6 -11    5.84    1.29
  -3   6  10    2.60    0.95
   3   6 -10    1.80    1.13
   3   6  -9    0.95    0.95
  -3   6   9    1.33    0.98
   3   6  -9    0.40    0.89
   3   6  -8   -0.09    0.96
  -3   6   8    0.25    0.79
   3   6  -8   -0.32    0.89
   3   6  -8    0.82    0.77
   3   6  -7   -0.33    0.82
  -3   6   7   -0.63    0.94
   3   6  -7    0.65    0.84
   3   6  -7    1.05    0.79
   3  -6  -7   -0.20    0.55
   3   6  -6    1.49    0.87
  -3   6   6    0.17    0.91
  -3   6   6    3.49    1.07
   3   6  -6    2.48    1.00
   3   6  -6    0.02    0.76
   3  -6  -6    2.38    0.68
   3   6  -5    2.04    0.91
  -3   6   5    0.99    0.90
  -3   6   5    2.59    1.00
   3   6  -5    1.65    0.90
   3   6  -5    1.12    0.77
   3   6  -4    3.68    0.93
  -3   6   4    2.15    0.95
  -3   6   4    0.74    0.91
   3   6  -4    1.88    0.85
   3   6  -4    2.38    1.11
   3   6  -3    3.73    0.91
  -3   6   3    1.57    0.82
  -3   6   3    2.80    0.98
   3   6  -3    2.01    0.92
   3   6  -3    1.23    0.74
   3   6  -2    6.39    1.03
  -3   6   2    5.13    0.98
  -3   6   2    7.64    1.13
   3   6  -2    3.90    0.79
   3   6  -2    6.15    1.02
   3   6  -1    1.38    0.71
  -3   6   1    0.76    0.76
  -3   6   1    0.74    0.91
   3   6  -1    1.87    1.17
   3   6   0    2.01    0.81
  -3   6   0    1.54    0.82
  -3   6   0    1.11    0.91
   3   6   0    1.28    0.81
   3   6   1    0.42    0.63
  -3   6  -1    0.80    0.87
  -3   6  -1    1.89    0.92
   3   6   1    0.43    0.79
  -3   6  -2    1.57    0.86
  -3   6  -2    1.58    0.94
   3   6   2    0.38    0.86
  -3   6  -3    2.49    0.80
  -3   6  -3    3.22    1.03
   3   6   3    3.42    0.95
  -3   6  -4    0.60    0.79
  -3   6  -4    0.77    0.88
   3   6   4   -0.04    0.81
  -3  -6  -4    1.26    0.87
  -3   6  -5   -0.50    0.91
   3   6   5    1.13    0.84
  -3  -6  -5    0.19    0.73
  -3   6  -6   -0.07    0.94
   3   6   6    1.25    0.86
  -3  -6  -6    0.02    0.96
  -3   6  -7   -0.13    0.79
   3   6   7   -0.15    0.80
  -3  -6  -7   -0.72    1.09
  -3   6  -8    0.55    0.88
   3   6   8    1.01    1.01
  -3   6  -9    4.85    1.21
   3   6   9    6.26    1.28
  -3   6 -10    3.50    1.04
   3   6  10    2.95    1.01
  -3   6 -11    0.41    1.05
   3   6  11    0.41    1.15
  -3   7   8    2.16    0.95
   3   7  -8    2.83    1.07
   3   7  -8    2.12    1.21
  -3   7   7    0.99    0.85
   3   7  -7    1.54    0.86
   3   7  -7    1.03    1.07
   3   7  -6   -0.16    1.20
  -3   7   6    0.74    0.95
  -3   7   6    2.63    1.15
   3   7  -6    0.03    0.86
   3   7  -5    0.17    0.96
  -3   7   5   -0.15    0.93
  -3   7   5    1.28    1.20
   3   7  -5    0.23    0.93
   3  -7  -5   -1.21    0.67
   3   7  -4    0.40    0.84
  -3   7   4    0.61    0.91
  -3   7   4    0.23    1.16
   3   7  -4   -1.78    0.91
   3   7  -3    4.06    0.97
  -3   7   3    2.35    1.05
  -3   7   3    4.45    1.14
   3   7  -3    3.77    1.11
   3   7  -2    3.18    0.69
  -3   7   2    1.31    0.83
  -3   7   2    3.88    1.14
   3   7  -2    4.10    1.05
   3   7  -1    2.16    0.90
  -3   7   1    2.17    0.89
  -3   7   1    3.06    1.06
   3   7  -1    3.55    1.04
   3   7   0    0.96    0.63
  -3   7   0    0.10    0.87
  -3   7   0    0.30    0.95
   3   7   0    0.59    0.94
  -3   7  -1    0.04    0.93
  -3   7  -1   -0.97    1.05
   3   7   1   -1.01    0.88
  -3   7  -2   -0.24    0.88
  -3   7  -2    0.57    0.99
   3   7   2   -0.05    0.90
  -3   7  -3   -0.43    0.80
  -3   7  -3    0.55    1.01
   3   7   3    0.29    0.91
  -3   7  -4    1.26    0.99
   3   7   4    1.08    1.02
  -3   7  -5    2.08    1.14
   3   7   5    1.21    0.99
  -3   7  -6    1.46    1.06
   3   7   6    2.26    1.03
  -3   7  -7    0.89    1.03
   3   7   7    2.26    1.01
  -3   7  -8    2.64    0.94
   3   8  -3    2.84    1.15
  -3   8   2    2.62    0.92
   3   8  -2    1.34    0.90
  -3   8   1    0.75    0.80
  -3   8   1    1.12    1.06
  -3   8   0    1.97    0.91
  -3   8   0    1.27    0.94
  -3   8  -1   -0.16    0.88
  -3   8  -2    0.18    0.73
   4   0 -11    1.40    0.84
   4   0 -10    2.99    0.83
   4   0 -10    3.58    0.99
   4   0  -9    0.64    0.71
   4   0  -9    1.11    0.84
   4   0  -8    8.36    0.98
   4   0  -8    8.47    1.09
   4   0  -8    8.18    0.90
  -4   0   7   20.39    1.35
   4   0  -7   23.16    1.31
   4   0  -7   22.08    1.38
   4   0  -7   21.64    1.31
  -4   0   6   33.83    1.61
   4   0  -6   33.42    1.53
   4   0  -6   35.16    1.64
   4   0  -6   37.25    1.63
  -4   0   5    8.28    1.07
   4   0  -5    8.44    0.94
   4   0  -5    8.43    1.03
   4   0  -5    7.95    1.00
   4   0  -4    0.62    0.78
   4   0  -4    0.51    0.77
  -4   0   4   -0.12    0.85
   4   0  -4    1.05    0.69
   4   0  -3    5.15    0.90
   4   0  -3    5.69    0.92
  -4   0   3    5.41    1.00
   4   0  -3    5.47    0.82
  -4   0   2   12.15    1.21
   4   0  -2   14.15    1.07
  -4   0   2   10.82    1.01
   4   0  -2   15.50    1.19
   4   0  -2   12.79    1.13
   4   0  -1    0.32    0.78
  -4   0   1    0.54    0.88
   4   0  -1    0.45    0.76
   4   0  -1    0.31    0.62
  -4   0   1   -0.20    0.69
   4   0   0    0.75    0.76
  -4   0   0    0.51    0.91
   4   0   0    0.41    0.73
   4   0   0    0.27    0.71
  -4   0   0    0.31    0.76
  -4   0  -1   10.84    1.25
   4   0   1   10.79    1.04
  -4   0  -1    8.83    1.04
   4   0   1    9.27    1.07
   4   0   1   11.26    1.11
   4   0   2    2.31    0.87
  -4   0  -2    2.77    0.99
   4   0   2    1.47    0.79
   4   0   2    1.23    0.72
  -4   0  -2    1.61    0.86
   4   0   3   -0.16    0.81
   4   0   3    0.00    0.73
   4   0   3   -0.52    1.00
  -4   0  -3   -0.16    0.81
   4   0   4    2.79    0.88
   4   0   4    3.48    0.85
   4   0   4    3.04    0.87
  -4   0  -4    1.59    0.83
   4   0   5    2.97    0.85
   4   0   5    1.95    0.82
   4   0   6    0.78    0.78
  -4   0  -6    0.99    0.89
   4   0   6    1.02    0.76
   4   0   7    0.10    0.76
  -4   0  -7    0.13    0.80
   4   0   7   -0.03    0.74
   4   0   8    0.16    0.70
   4   0   8   -0.20    0.73
  -4   0  -8    0.40    0.90
   4   0   9    0.47    0.75
   4   0   9   -0.08    0.72
  -4   0  -9    0.67    0.83
   4   0  10    0.39    0.63
   4   0  10   -0.31    0.77
  -4   0 -10    0.17    0.83
  -4   0 -11    2.84    0.79
   4   1 -12    0.74    0.73
   4   1 -11    0.28    0.78
   4   1 -11    0.23    0.72
   4   1 -10    0.99    0.72
   4   1 -10    1.42    0.81
   4   1 -10    1.12    0.81
   4  -1 -10    0.76    0.87
   4   1  -9    1.45    0.74
   4   1  -9    0.60    0.74
   4  -1  -9    1.00    0.90
   4   1  -9    1.06    0.83
  -4   1   8    7.27    0.97
   4   1  -8    7.12    0.98
   4  -1  -8    9.29    1.15
   4   1  -8    8.51    1.09
   4   1  -8    6.89    0.94
   4   1  -7    0.99    0.81
   4  -1  -7    2.67    0.74
  -4   1   7    2.38    0.86
   4   1  -7    1.82    0.73
   4  -1  -7    2.09    0.85
   4   1  -7    2.39    0.79
  -4   1   6   15.92    1.21
  -4  -1   6   14.94    1.25
   4   1  -6   16.65    1.22
   4  -1  -6   15.64    1.06
   4  -1  -6   16.67    1.28
   4   1  -6   16.50    1.26
   4   1  -6   16.57    1.70
   4  -1  -6   14.88    1.13
  -4   1   5   30.81    1.67
  -4  -1   5   29.69    1.53
   4   1  -5   31.03    1.52
   4  -1  -5   28.93    1.37
   4  -1  -5   31.48    1.60
   4   1  -5   30.15    1.52
   4   1  -5   30.85    1.59
   4  -1  -5   30.41    1.52
   4  -1  -4    2.48    0.91
   4   1  -4    3.14    0.87
   4   1  -4    3.30    0.85
   4  -1  -4    2.81    0.82
  -4   1   4    2.11    0.91
  -4  -1   4    3.08    0.94
   4   1  -4    3.46    0.82
   4  -1  -4    2.53    0.64
   4  -1  -3    0.74    0.77
   4   1  -3    0.51    0.75
   4   1  -3    2.05    0.83
   4  -1  -3    0.77    0.80
  -4   1   3    0.77    0.91
  -4  -1   3    1.28    0.92
   4   1  -3    0.71    0.64
   4  -1  -3    0.22    0.56
  -4  -1   3    0.34    0.71
   4   1  -2    6.58    0.98
   4   1  -2    7.32    1.11
  -4   1   2    6.48    1.03
   4   1  -2    6.49    0.91
   4  -1  -2    6.56    0.84
  -4  -1   2    7.11    0.89
   4  -1  -2    6.58    0.95
   4  -1  -2    8.53    1.05
   4   1  -1    0.07    0.77
   4  -1  -1    0.27    0.79
  -4   1   1    0.53    0.88
   4  -1  -1    0.04    0.76
   4   1  -1    0.87    0.74
   4   1  -1    0.31    0.73
   4  -1  -1    0.50    0.60
  -4  -1   1    0.47    0.70
  -4   1   0    6.41    1.09
   4   1   0    8.33    0.99
   4  -1   0    7.57    0.90
  -4  -1   0    6.82    0.97
  -4   1   0    6.42    0.98
   4  -1   0    8.74    1.04
   4   1   0    7.41    0.99
   4   1   0    7.10    0.98
   4  -1   0    7.61    1.02
   4   1   1    2.15    0.87
  -4   1  -1    2.57    0.95
   4  -1   1    3.23    0.87
   4   1   1    2.77    0.84
   4   1   1    3.07    0.82
   4  -1   1    1.96    0.66
  -4   1  -1    1.60    0.81
  -4  -1  -1    2.25    0.85
   4   1   2    5.24    0.93
  -4   1  -2    4.63    1.04
   4  -1   2    5.51    0.98
   4   1   2    4.43    0.87
   4   1   2    4.06    0.88
   4  -1   2    4.50    0.82
  -4   1  -2    4.10    0.91
  -4  -1  -2    4.42    0.90
   4   1   3    0.73    0.75
  -4   1  -3   -0.44    0.88
   4  -1   3   -0.52    0.78
   4   1   3    0.06    0.75
   4   1   3   -0.15    0.70
   4  -1   3    0.64    0.72
  -4   1  -3    0.38    0.77
  -4  -1  -3   -0.25    0.74
  -4   1  -4    5.57    1.11
   4   1   4    5.73    0.98
   4  -1   4    4.63    0.86
   4  -1   4    6.07    0.98
  -4   1  -4    5.62    0.97
   4   1   4    5.11    0.91
  -4  -1  -4    5.24    0.93
   4   1   4    7.89    1.05
   4   1   5    3.12    0.89
  -4   1  -5    1.45    0.93
   4   1   5    3.12    0.87
   4  -1   5    2.72    0.78
   4  -1   5    1.87    0.84
  -4   1  -5    1.81    0.84
   4   1   5    2.59    0.80
  -4  -1  -5    1.34    0.84
   4   1   6    2.01    0.83
  -4   1  -6    1.64    0.95
   4   1   6    1.10    0.83
   4  -1   6    1.25    0.71
  -4   1  -6    0.71    0.83
  -4  -1  -6    2.86    0.94
   4  -1   6    0.50    0.69
   4   1   6    0.61    0.73
   4   1   7    0.89    0.74
  -4   1  -7    0.43    0.53
   4   1   7    1.09    0.77
   4  -1   7    1.06    0.75
  -4   1  -7    0.66    0.75
  -4  -1  -7    1.98    0.87
   4  -1   7    1.28    0.77
   4   1   7    1.69    0.76
   4  -1   8    0.31    0.73
   4   1   8    0.34    0.75
   4   1   8    0.38    0.72
  -4   1  -8    0.40    0.96
   4   1   8    0.32    0.75
   4  -1   8    0.30    0.67
  -4   1  -8    0.36    0.70
  -4  -1  -8    0.33    1.01
   4  -1   9    1.11    0.72
   4   1   9    1.15    0.74
  -4   1  -9    1.12    0.99
   4   1   9    1.12    0.72
   4  -1   9    1.14    0.76
  -4   1  -9    1.13    0.75
  -4  -1  -9    1.17    0.96
   4  -1  10    1.27    0.75
   4   1  10    1.96    0.78
   4   1  10    1.36    0.86
   4  -1  10    1.19    0.88
  -4   1 -10    1.90    0.81
  -4  -1 -10    1.89    0.94
   4   2 -11   -0.10    0.74
   4   2 -11   -0.82    0.76
   4   2 -10    0.00    0.67
   4   2 -10   -0.36    0.83
   4   2 -10    0.73    0.78
   4  -2 -10   -0.19    0.79
   4   2  -9    0.59    0.74
   4   2  -9    0.78    0.84
   4  -2  -9    1.43    0.85
   4   2  -9    0.99    0.77
   4   2  -8    4.02    0.91
  -4   2   8    3.82    1.02
   4   2  -8    3.48    0.93
   4  -2  -8    3.51    1.01
   4   2  -8    3.81    0.87
   4   2  -7    4.96    0.94
  -4   2   7    2.89    0.95
   4   2  -7    2.13    0.85
   4  -2  -7    2.47    0.89
   4   2  -7    3.14    0.85
   4   2  -6    2.57    0.86
   4  -2  -6    1.87    0.75
  -4   2   6    2.53    0.98
   4   2  -6    2.40    0.76
   4  -2  -6    3.49    0.89
   4   2  -6    2.15    0.81
  -4   2   5   10.99    1.22
  -4  -2   5   10.36    1.17
   4   2  -5   10.66    1.08
   4  -2  -5   11.30    1.14
   4   2  -5    9.71    1.03
   4   2  -5    9.55    1.11
   4  -2  -5   10.00    1.08
  -4   2   4   24.51    1.49
   4   2  -4   25.06    1.46
   4  -2  -4   29.38    1.52
   4   2  -4   26.47    1.43
  -4  -2   4   24.11    1.37
   4   2  -4   25.93    1.50
   4  -2  -4   27.96    1.50
  -4   2   3    9.98    1.15
   4   2  -3    8.89    1.05
  -4  -2   3   10.32    0.99
   4  -2  -3    9.78    1.08
   4   2  -3    9.88    1.03
   4   2  -3    9.33    1.07
   4  -2  -3   10.79    1.09
   4  -2  -2    0.28    0.80
   4   2  -2    0.37    0.77
   4   2  -2    0.40    0.74
  -4   2   2    0.92    0.89
   4  -2  -2    0.91    0.78
   4   2  -2    0.88    0.78
  -4  -2   2    1.99    0.78
  -4   2   1   15.23    1.34
   4   2  -1   14.00    1.14
   4  -2  -1   15.39    1.08
  -4  -2   1   15.21    1.20
   4  -2  -1   15.47    1.19
   4   2  -1   15.11    1.15
   4   2  -1   13.87    1.23
   4   2   0    4.37    0.88
  -4   2   0    4.67    1.03
   4  -2   0    5.17    0.86
   4   2   0    4.60    0.88
   4   2   0    4.65    0.91
   4  -2   0    4.65    0.68
  -4  -2   0    4.20    0.89
  -4   2  -1    7.84    1.15
   4   2   1    8.60    1.01
   4  -2   1    8.34    0.86
  -4  -2  -1    8.55    0.94
   4   2   1    8.93    1.09
   4  -2   1    9.78    1.03
   4   2   1    9.05    1.02
   4   2   2    1.53    0.87
  -4   2  -2    1.24    0.85
   4  -2   2    1.14    0.76
   4   2   2    0.90    0.71
   4   2   2    1.64    0.80
   4  -2   2    2.42    0.69
  -4   2  -2    0.46    0.74
  -4  -2  -2    0.55    0.72
   4   2   3    0.63    0.80
  -4   2  -3    1.14    0.95
   4  -2   3    0.45    0.75
   4   2   3    0.07    0.76
   4   2   3    0.48    0.70
   4  -2   3    0.91    0.63
  -4   2  -3   -0.45    0.79
  -4  -2  -3    0.83    0.76
   4   2   4   -0.17    0.75
  -4   2  -4    0.04    0.91
   4  -2   4   -0.01    0.74
   4   2   4   -1.41    0.70
   4  -2   4    0.08    0.65
   4   2   4    0.32    0.74
  -4   2  -4    0.09    0.73
  -4  -2  -4    0.11    0.74
   4   2   5    0.24    0.74
  -4   2  -5    0.91    0.90
   4   2   5    0.44    0.73
   4  -2   5    0.17    0.62
   4  -2   5    0.54    0.74
   4   2   5    0.52    0.75
  -4   2  -5    1.44    0.78
  -4  -2  -5    2.01    0.84
   4   2   6    1.12    0.80
  -4   2  -6    2.28    0.92
   4   2   6    1.32    0.73
   4  -2   6   -0.16    0.74
   4  -2   6    1.87    0.83
  -4   2  -6    3.10    0.86
  -4  -2  -6    2.35    0.87
   4   2   6    1.61    0.74
   4   2   7    4.04    0.79
  -4   2  -7    4.34    1.10
   4   2   7    5.38    0.95
   4  -2   7    3.25    0.78
  -4   2  -7    5.54    0.97
  -4  -2  -7    6.03    1.14
   4  -2   7    5.01    0.92
   4   2   7    4.48    0.94
   4   2   8    4.77    0.95
  -4   2  -8    3.58    1.06
   4   2   8    4.78    1.00
   4  -2   8    4.10    0.90
  -4   2  -8    4.59    0.92
  -4  -2  -8    4.53    1.11
   4  -2   8    3.96    0.86
   4  -2   9    4.02    0.83
   4   2   9    2.58    0.97
   4   2   9    3.47    0.87
   4  -2   9    3.51    0.80
  -4  -2  -9    2.52    1.11
   4  -2  10    6.03    0.99
   4   2  10    6.65    1.07
   4  -2  10    9.17    1.07
   4   2  10    5.56    1.11
   4   3 -12    0.90    0.86
   4   3 -11    2.36    0.89
   4   3 -10    2.52    0.85
   4   3  -9    4.98    1.02
  -4   3   9    4.68    1.07
   4   3  -9    5.59    0.98
   4  -3  -9    5.56    1.05
   4   3  -8    2.31    0.86
  -4   3   8    1.93    1.00
   4   3  -8    1.90    0.93
   4  -3  -8    1.65    0.89
   4   3  -7    2.18    0.84
  -4   3   7    2.05    0.98
   4   3  -7    1.28    0.84
   4  -3  -7    2.59    0.90
   4   3  -7    1.33    0.73
   4   3  -6    1.69    0.86
  -4   3   6    2.00    0.96
   4   3  -6    0.92    0.76
   4  -3  -6    1.89    0.81
   4   3  -6    1.18    0.72
   4   3  -5    3.05    0.94
  -4   3   5    3.53    1.07
   4   3  -5    1.53    0.78
   4  -3  -5    2.22    0.80
   4   3  -5    1.68    0.77
   4   3  -4    2.06    0.78
   4   3  -4    2.82    0.90
  -4   3   4    2.25    1.00
   4  -3  -4    2.23    0.73
   4   3  -4    3.02    0.83
   4  -3  -4    1.21    0.83
   4   3  -3    7.34    1.08
  -4   3   3    7.30    1.15
   4   3  -3    7.79    1.05
   4  -3  -3    7.27    1.02
  -4  -3   3    6.94    0.89
   4   3  -3    7.52    0.93
  -4   3   2   50.95    2.06
   4   3  -2   50.39    1.98
  -4  -3   2   50.64    1.81
   4  -3  -2   51.02    1.91
   4   3  -2   51.62    1.83
   4   3  -2   53.26    2.06
   4   3  -1   -0.07    0.86
   4  -3  -1    0.71    0.77
  -4   3   1    1.60    0.95
   4   3  -1    0.80    0.72
   4   3  -1    0.74    0.72
  -4  -3   1    1.49    0.77
  -4   3   0    8.04    1.13
   4  -3   0    6.48    0.95
   4   3   0    6.17    0.95
   4   3   0    7.92    0.94
   4   3   0    7.19    0.98
  -4  -3   0    6.71    0.92
   4   3   1    0.31    0.75
  -4   3  -1    0.52    0.89
   4  -3   1    0.61    0.73
   4   3   1    0.56    0.72
   4   3   1    0.58    0.75
  -4  -3  -1    0.08    0.70
   4   3   2   -0.01    0.72
  -4   3  -2   -0.27    0.86
   4  -3   2    0.06    0.71
   4   3   2   -0.18    0.67
   4   3   2    0.77    0.71
  -4  -3  -2    0.59    0.79
   4   3   3    0.20    0.72
  -4   3  -3    0.43    0.88
   4  -3   3   -0.02    0.70
   4   3   3   -0.34    0.67
   4   3   3    0.65    0.73
  -4  -3  -3    1.65    0.85
   4   3   4    1.30    0.72
  -4   3  -4    0.34    0.86
   4  -3   4   -0.23    0.76
   4   3   4    0.47    0.70
   4   3   4    0.12    0.66
   4  -3   4   -1.10    0.53
   4   3   5    3.64    0.81
  -4   3  -5    1.89    0.98
   4  -3   5    2.84    0.87
   4   3   5    2.12    0.85
   4  -3   5    1.71    0.70
   4   3   5    2.26    0.79
  -4   3  -5    1.11    0.72
  -4  -3  -5    4.16    0.92
   4   3   6    0.52    0.67
  -4   3  -6    0.04    0.84
   4   3   6   -0.01    0.71
   4  -3   6   -0.32    0.58
   4  -3   6    0.41    0.75
  -4   3  -6   -0.53    0.72
  -4  -3  -6    1.66    0.85
   4   3   6    0.18    0.71
  -4   3  -7    5.04    1.01
   4   3   7    4.52    0.90
   4  -3   7    5.90    0.87
   4  -3   7    4.99    1.01
  -4  -3  -7    4.50    1.07
   4   3   7    6.88    0.92
   4   3   8    3.33    0.79
   4   3   8    4.95    0.89
   4  -3   8    4.28    0.85
  -4  -3  -8    3.12    1.13
   4  -3   8    4.09    0.84
   4   3   9   13.41    1.20
   4  -3   9   10.66    0.98
   4  -3   9   10.39    1.09
   4   3   9   10.81    1.15
   4  -3  10    0.68    0.66
   4   4 -11    2.04    0.77
   4   4 -10    0.63    0.84
  -4   4  10    1.79    0.81
   4   4  -9    0.55    0.66
   4  -4  -9    0.58    0.75
   4   4  -8    6.55    1.07
   4  -4  -8    6.20    0.99
  -4   4   8    9.32    1.19
   4   4  -7    0.74    0.81
  -4   4   7    2.45    0.98
   4   4  -7    1.15    0.67
   4   4  -7    0.64    0.83
   4  -4  -7    1.95    0.86
   4   4  -6    0.59    0.76
  -4   4   6    0.39    0.91
   4   4  -6    1.64    0.78
   4   4  -6    0.34    0.83
   4  -4  -6    0.76    0.77
   4   4  -5   11.54    1.09
   4   4  -5    9.53    1.06
   4  -4  -5   10.32    1.12
   4   4  -5    9.71    1.11
  -4   4   5   10.43    1.28
   4   4  -4   13.76    1.19
   4   4  -4   14.60    1.29
   4  -4  -4   15.42    1.26
   4   4  -4   14.84    1.36
  -4   4   4   14.58    1.42
  -4   4   3    9.39    1.26
   4   4  -3    9.32    1.07
   4   4  -3    8.95    1.09
   4  -4  -3    9.29    1.04
   4   4  -3   10.76    1.19
   4  -4  -2    0.95    0.75
   4   4  -2    1.41    0.89
  -4   4   2    0.65    1.02
   4   4  -2    0.20    0.80
   4   4  -2    0.77    0.78
  -4   4   1    8.07    1.21
   4   4  -1    7.51    0.94
   4   4  -1    8.07    1.05
   4  -4  -1    6.63    0.95
   4   4  -1    8.23    1.07
   4   4   0    4.22    1.01
   4  -4   0    3.72    0.85
  -4   4   0    5.94    1.14
   4   4   0    4.98    0.91
   4   4   0    4.32    0.91
  -4  -4   0    3.53    0.84
   4   4   1   -0.06    0.76
  -4   4  -1    1.23    0.99
   4  -4   1    0.26    0.68
   4   4   1   -0.11    0.67
   4   4   1    0.39    0.76
  -4  -4  -1    0.62    0.61
   4   4   2   -0.37    0.68
  -4   4  -2    0.78    0.93
   4  -4   2    0.48    0.67
   4   4   2   -0.05    0.66
   4   4   2    0.01    0.69
  -4  -4  -2    0.64    0.75
   4   4   3    0.26    0.66
  -4   4  -3    0.59    1.04
   4   4   3    0.60    0.77
   4   4   3   -0.22    0.72
  -4  -4  -3    1.43    0.77
   4   4   4    0.05    0.66
  -4   4  -4    1.06    0.94
   4   4   4    1.25    0.63
  -4  -4  -4    2.05    0.87
  -4   4  -5    0.66    0.93
   4   4   5    1.60    0.80
  -4  -4  -5    2.62    0.87
  -4   4  -6    0.35    0.88
   4   4   6    0.10    0.60
  -4  -4  -6   -0.54    0.97
   4   4   7    4.73    0.94
  -4  -4  -7    5.83    1.11
   4   4   8    2.34    0.81
  -4   5  10   -0.27    0.73
   4   5  -9    2.66    0.85
  -4   5   9    0.68    0.83
   4   5  -8    2.67    0.96
  -4   5   8    0.92    0.95
   4   5  -8    0.55    0.93
   4   5  -7    1.09    0.90
  -4   5   7    1.67    1.02
   4   5  -7    0.31    0.96
   4   5  -6    4.47    1.04
  -4   5   6    5.58    1.08
   4   5  -6    6.29    1.08
   4   5  -5    8.83    1.22
   4   5  -5   11.09    1.25
  -4   5   5   12.72    1.36
   4   5  -4    1.58    0.88
  -4   5   4    1.64    0.86
   4   5  -4    0.24    0.85
   4   5  -4   -0.03    0.79
   4   5  -3    0.01    0.89
  -4   5   3    0.55    1.05
   4   5  -3    0.45    0.86
   4   5  -3   -0.43    0.71
   4   5  -2    1.05    0.81
  -4   5   2    0.57    1.03
   4   5  -2    0.65    0.79
   4   5  -2    0.58    0.71
   4   5  -1    1.32    0.78
  -4   5   1   -0.18    1.02
   4   5  -1    1.31    0.86
   4   5  -1    1.38    0.75
   4   5   0    1.38    0.87
  -4   5   0    0.58    0.98
   4   5   0    2.01    0.77
   4   5   0    1.68    0.83
   4   5   1    0.05    0.77
  -4   5  -1    0.24    0.96
   4   5   1    1.00    0.54
   4   5   1    0.87    0.72
   4   5   2    1.40    0.75
  -4   5  -2    0.34    1.05
   4   5   2    0.00    0.72
   4   5   2   -0.29    0.71
   4   5   3    1.10    0.64
  -4   5  -3    0.52    0.86
   4   5   3   -1.18    0.65
   4   5   3   -0.50    0.77
  -4  -5  -3    1.21    0.74
  -4   5  -4    2.91    1.11
   4   5   4    1.71    0.68
   4   5   4    1.96    0.78
  -4  -5  -4    2.88    0.85
  -4   5  -5    1.32    1.02
   4   5   5    0.25    0.59
   4   5   5    1.20    0.80
  -4  -5  -5   -0.95    0.98
   4   5   6    1.38    0.91
   4   5   7    0.74    0.73
   4   5   8    1.22    0.77
   4   5   9    0.81    0.79
   4   6  -7    3.52    1.07
   4   6  -6    1.63    0.99
  -4   6   6    1.62    0.89
   4   6  -6    1.67    0.96
   4   6  -5    0.15    1.01
  -4   6   5    0.12    1.01
  -4   6   5    0.19    1.02
   4   6  -5    0.16    0.75
   4   6  -4    0.28    0.83
  -4   6   4    1.01    0.94
  -4   6   4    1.20    0.98
   4   6  -4    1.25    0.86
   4   6  -3    0.48    0.85
  -4   6   3    1.75    0.98
  -4   6   3   -1.35    0.98
   4   6  -3   -1.17    0.83
   4   6  -2   -0.39    0.84
  -4   6   2    2.70    0.99
  -4   6   2    1.73    0.93
   4   6  -2   -0.59    0.92
   4   6  -1   -0.01    0.84
  -4   6   1    2.61    1.03
  -4   6   1    2.67    1.00
   4   6  -1    1.52    0.89
   4   6   0    0.52    0.76
  -4   6   0    2.46    0.95
  -4   6   0    0.90    0.91
   4   6   0    3.17    1.04
   4   6   1   -0.22    0.66
  -4   6  -1    2.25    0.97
  -4   6  -1    0.17    0.80
   4   6   1    1.71    0.90
  -4   6  -2    1.48    0.90
  -4   6  -2   -0.39    0.89
   4   6   2   -1.44    0.89
  -4   6  -3    0.93    0.89
  -4   6  -3    0.16    0.93
   4   6   3   -0.01    0.81
  -4   6  -4    0.24    0.73
  -4   6  -4    0.19    0.96
   4   6   4    1.10    0.91
  -4   6  -5    1.58    0.90
   4   6   5    0.18    0.95
  -4   6  -6    2.69    0.91
   4   6   6    1.71    0.87
  -4   6  -7   -0.55    0.86
   4   6   7    2.34    0.92
  -4   7   1    2.37    0.95
  -4   7   0    3.78    0.90
  -4   7  -1    0.33    0.94
   5   0  -8   -1.74    0.79
   5   0  -7    1.67    0.80
   5   0  -6    0.28    0.84
  -5   0   6    0.29    0.97
   5   0  -6    0.22    0.64
   5   0  -5    4.68    0.99
  -5   0   5    3.51    1.11
   5   0  -5    4.33    0.93
  -5   0   4   14.94    1.48
   5   0  -4   17.91    1.39
   5   0  -4   18.27    1.50
  -5   0   3   12.69    1.55
   5   0  -3    9.74    1.09
   5   0  -3   12.84    1.31
   5   0  -3   10.74    1.28
   5   0  -2    0.02    0.83
   5   0  -2   -1.63    0.84
  -5   0   2   -0.28    1.05
   5   0  -2   -0.44    0.77
   5   0  -1    1.52    0.92
   5   0  -1    0.98    0.89
  -5   0   1    0.52    1.12
   5   0  -1    1.50    0.81
  -5   0   1   -0.01    0.71
   5   0   0    0.85    0.96
  -5   0   0    0.83    1.09
   5   0   0    1.53    0.91
   5   0   0    1.45    0.79
  -5   0   0    0.31    0.72
   5   0   1    2.24    0.92
  -5   0  -1    0.55    1.11
   5   0   1    2.38    0.91
   5   0   1    2.79    0.87
  -5   0  -1    1.42    0.81
   5   0   2    0.42    0.92
  -5   0  -2   -0.04    1.08
   5   0   2    1.19    0.87
   5   0   2    1.61    0.81
  -5   0  -2    0.93    0.72
   5   0   3    2.14    1.12
  -5   0  -3   -0.19    1.14
   5   0   3   -0.23    0.73
   5   0   4    3.19    1.16
  -5   0  -4    1.18    1.12
   5   0   5    1.77    1.05
  -5   0  -5    1.35    1.24
   5   0   6    0.93    0.98
  -5   0  -6   -0.25    1.08
   5   0   7    2.48    0.92
  -5   0  -7    0.86    1.03
   5   0   8    1.15    0.98
  -5   0  -8   -0.15    1.02
   5   0   9    0.85    0.73
  -5   0  -9   -0.25    1.03
   5   1  -9    0.59    0.80
   5   1  -8    0.04    0.80
   5   1  -7   -0.45    0.78
  -5   1   7   -0.20    0.90
   5   1  -6    0.00    0.93
   5  -1  -6    2.39    0.96
  -5   1   6   -0.05    0.94
   5   1  -5    3.53    1.02
   5  -1  -5    2.98    1.00
  -5   1   5    2.83    1.07
  -5  -1   5    2.10    1.03
   5   1  -4    3.36    1.09
   5  -1  -4    2.52    0.96
  -5   1   4    3.32    1.16
  -5  -1   4    2.70    1.10
   5   1  -4    4.19    0.88
   5   1  -3    1.02    0.84
   5   1  -3    1.89    1.01
   5  -1  -3    1.03    0.92
  -5   1   3    1.53    1.14
  -5  -1   3    1.44    1.18
   5   1  -3    1.16    0.75
   5  -1  -3    1.09    0.65
  -5   1   2   13.39    1.47
  -5  -1   2   12.30    1.45
   5   1  -2   11.12    1.14
   5  -1  -2   10.52    1.12
  -5  -1   2   10.85    1.27
   5  -1  -2   12.01    1.31
   5   1  -2   13.23    1.28
   5   1  -2   14.57    1.44
   5  -1  -2   12.13    1.37
   5  -1  -1    0.34    0.87
   5   1  -1    0.38    0.92
   5   1  -1    0.34    0.84
   5  -1  -1    0.37    0.93
  -5   1   1    1.57    1.18
  -5  -1   1    0.98    1.17
   5   1  -1   -0.83    0.75
   5  -1  -1    0.23    0.70
  -5  -1   1   -0.54    0.73
   5   1   0    3.10    1.07
   5  -1   0    2.13    1.02
  -5   1   0    2.45    1.21
   5  -1   0    1.21    0.90
  -5  -1   0    2.96    1.14
   5   1   0    1.46    0.90
   5   1   0    1.62    0.85
   5  -1   0    2.43    0.82
  -5  -1   0    1.93    0.86
   5   1   1   -0.47    0.92
   5  -1   1    1.43    1.01
  -5   1  -1    1.51    1.15
  -5  -1  -1    1.49    1.12
   5  -1   1    0.44    0.87
   5   1   1    0.73    0.87
   5   1   1    0.73    0.77
   5  -1   1    1.68    0.80
  -5   1  -1    0.01    0.85
  -5  -1  -1    0.94    0.81
   5   1   2   -0.42    0.92
   5  -1   2    0.81    0.95
  -5   1  -2    1.13    1.11
  -5  -1  -2    0.31    1.17
   5  -1   2    0.58    0.83
   5   1   2    1.02    0.79
   5   1   2    1.25    0.81
   5  -1   2   -0.24    0.62
  -5   1  -2   -1.58    0.75
  -5  -1  -2    1.57    0.96
   5   1   3    0.65    0.99
   5  -1   3    1.38    0.93
  -5   1  -3    1.86    1.12
   5  -1   3    1.54    0.64
   5   1   4   -0.74    0.94
   5  -1   4    0.09    0.94
  -5   1  -4   -0.49    1.13
   5  -1   4   -0.69    0.67
   5   1   5   -0.81    0.95
   5  -1   5   -0.19    0.91
  -5   1  -5   -0.46    1.07
   5   1   6   -0.63    0.97
  -5   1  -6   -0.37    1.21
   5   1   7    0.30    0.83
  -5   1  -7    0.07    1.20
   5   1   8    1.46    0.91
  -5   1  -8   -0.28    1.21
  -5   1  -9   -0.03    1.08
   5   2  -9    0.74    0.87
   5   2  -8    0.80    0.86
  -5   2   8    1.49    1.09
   5   2  -7    1.98    0.90
  -5   2   7    2.78    1.17
   5   2  -6    1.23    0.82
  -5   2   6    0.58    0.98
   5   2  -5   -0.48    0.85
   5  -2  -5   -0.90    0.84
  -5   2   5   -0.04    1.01
   5   2  -4    0.45    0.87
   5  -2  -4   -0.60    0.83
  -5   2   4    0.42    1.08
  -5  -2   4    1.50    1.20
   5   2  -3    0.92    0.79
   5   2  -3   -0.12    0.86
   5  -2  -3    0.50    0.84
  -5   2   3    0.26    0.98
  -5  -2   3    2.42    0.99
  -5  -2   3   -0.33    0.74
   5   2  -2    1.26    0.83
   5   2  -2    1.11    0.95
   5  -2  -2    1.86    0.94
  -5   2   2    0.74    1.17
  -5  -2   2    0.73    1.07
  -5  -2   2    0.25    0.69
   5   2  -1    6.94    1.11
   5   2  -1    4.61    0.99
   5  -2  -1    7.17    1.14
  -5   2   1    7.29    1.38
  -5  -2   1    4.69    0.91
   5   2   0    5.69    1.18
   5  -2   0    3.88    1.01
  -5   2   0    3.98    1.28
   5  -2   0    2.53    1.10
   5   2   0    4.01    0.92
  -5  -2   0    4.72    1.03
   5   2   1    2.57    1.02
  -5   2  -1    1.07    1.07
   5  -2   1    0.85    0.98
   5   2   1    1.85    0.78
  -5  -2  -1    3.53    0.80
   5   2   2    4.29    1.06
  -5   2  -2    3.85    1.35
   5  -2   2    3.85    1.06
   5   2   2    4.30    1.02
   5  -2   2    2.53    0.87
   5   2   3    1.12    0.90
  -5   2  -3    0.19    1.10
   5  -2   3    0.04    0.72
   5   2   4    1.48    0.91
  -5   2  -4    1.54    1.12
   5  -2   4    0.74    0.62
   5   2   5    0.41    0.82
  -5   2  -5    1.44    1.33
   5   2   6    0.15    0.92
  -5   2  -6    1.16    1.23
   5   2   7   -0.62    0.78
  -5   2  -7    1.76    1.25
  -5   2  -8    0.92    1.21
  -5   3   8   -0.29    1.07
   5   3  -7    4.29    0.96
  -5   3   7    3.23    1.11
   5   3  -6    2.21    1.11
  -5   3   6    2.14    1.22
   5   3  -5    1.84    0.98
  -5   3   5    1.15    1.01
   5   3  -4    0.17    0.81
  -5   3   4    1.98    1.21
   5  -3  -4    1.96    0.93
   5   3  -3   -0.31    0.90
  -5   3   3    0.66    1.10
   5  -3  -3    2.69    1.01
   5   3  -2   -0.12    0.75
   5   3  -2   -1.17    0.99
  -5   3   2    0.62    1.09
   5  -3  -2    1.59    1.01
  -5  -3   2   -0.17    0.74
   5   3  -1    0.33    0.93
   5   3  -1    0.39    0.75
  -5   3   1    0.35    1.40
   5  -3  -1    0.32    1.04
  -5  -3   1    0.33    0.75
   5   3   0    0.22    0.84
  -5   3   0    0.86    1.06
   5   3   0    0.14    0.77
  -5   3  -1    9.96    1.39
   5   3   1    8.21    1.30
   5   3   2   -0.11    0.94
  -5   3  -2   -0.13    1.05
   5   3   3    1.52    1.03
  -5   3  -3    0.54    1.20
   5   3   4    0.05    0.82
  -5   3  -4   -0.37    0.95
   5   3   5    1.37    0.66
  -5   3  -5    0.87    1.05
  -5   3  -6   -0.07    1.07
  -5   3  -7   -0.57    0.95
  -5   4   4    0.82    1.18
   5   4  -3    0.74    1.02
  -5   4   3    0.77    1.30
   5   4  -2    3.40    1.07
  -5   4   2    3.21    1.36
   5  -4  -2    1.85    0.95
   5   4  -1    5.44    1.17
  -5   4   1    6.65    1.45
   5   4   0    1.75    1.04
  -5   4   0    4.81    1.40
   5   4   1    0.62    0.91
  -5   4  -1    1.52    1.22
   5   4   2    0.90    1.00
  -5   4  -2    1.76    1.03
   5   4   3    0.16    0.81
  -5   4  -3    0.49    1.13
   5   4   4   -0.70    0.73
  -5   4  -4    0.31    0.91
  -5   4  -5    0.19    1.02
   0   0   0    0.00    0.00
;
_shelx_hkl_checksum              34610
_shelx_res_file
;
    1066p.res created by SHELXL-2014/7
TITL 1066p in P2(1)
CELL 0.71073   4.1964   7.0129  14.4528  90.000  90.924  90.000
ZERR    2.00   0.0003   0.0005   0.0010   0.000   0.007   0.000
LATT -1
SYMM -X, 0.5+Y, -Z
SFAC C H N O
UNIT 12 12 8 8
OMIT -4
ACTA 54
L.S. 4
BOND $H
HTAB 2
EQIV $1 -X-1, Y+0.5, -Z+1
HTAB N3 O4_$1
EQIV $2 X-1, Y-1, Z
HTAB N4 O3_$2
EQIV $3 -X-1, Y-0.5, -Z+1
HTAB N4 O4_$3
FMAP 2
PLAN 20
SIZE 0.24 0.22 0.16
WGHT    0.027000
FVAR       0.70382
MOLE   1
O1    4    0.438276    0.338616    0.225425    11.00000    0.04650    0.05003 =
         0.04154    0.00462    0.01347    0.00370
C1    1    0.606568    0.317260    0.147084    11.00000    0.03924    0.06049 =
         0.03839    0.00939    0.01140    0.00638
C2    1    0.573322    0.144112    0.109566    11.00000    0.04575    0.08247 =
         0.04194   -0.00766    0.01053    0.00762
AFIX  43
H2    2    0.667126    0.099222    0.055926    11.00000   -1.20000
AFIX   0
C3    1    0.367425    0.043841    0.167861    11.00000    0.05097    0.05936 =
         0.05247   -0.01102    0.00900    0.00083
AFIX  43
H3    2    0.297596   -0.081191    0.160540    11.00000   -1.20000
AFIX   0
C4    1    0.290441    0.166090    0.237201    11.00000    0.03641    0.04482 =
         0.04230    0.00106    0.00143    0.00354
N1    3    0.792051    0.476486    0.120526    11.00000    0.05814    0.07295 =
         0.05214    0.01719    0.01543    0.00632
O2    4    0.945349    0.458487    0.049434    11.00000    0.08011    0.11269 =
         0.06291    0.02362    0.03431    0.00283
O3    4    0.795807    0.619251    0.168708    11.00000    0.11336    0.06784 =
         0.09423    0.00286    0.04199   -0.01683
C5    1    0.092016    0.153554    0.317569    11.00000    0.04049    0.04369 =
         0.03944    0.00165    0.00621    0.00383
AFIX  43
H5    2    0.056224    0.259920    0.354400    11.00000   -1.20000
AFIX   0
N2    3   -0.033377   -0.007454    0.336882    11.00000    0.04022    0.04364 =
         0.04077    0.00273    0.00879    0.00565
N3    3   -0.219527   -0.011766    0.413029    11.00000    0.05073    0.03591 =
         0.04354   -0.00143    0.01485    0.00374
H1    2   -0.276186    0.094664    0.441923    11.00000   -1.20000
C6    1   -0.352721   -0.177704    0.441250    11.00000    0.05416    0.03383 =
         0.04225    0.00309    0.00795    0.00506
O4    4   -0.510677   -0.178662    0.512612    11.00000    0.07570    0.03569 =
         0.04708    0.00249    0.02244   -0.00036
N4    3   -0.301819   -0.331695    0.390402    11.00000    0.10993    0.03558 =
         0.06499   -0.00199    0.04213   -0.00343
H41   2   -0.207027   -0.327414    0.338026    11.00000   -1.20000
H42   2   -0.386570   -0.439433    0.408990    11.00000   -1.20000
hklf 4
REM  1066p in P2(1)
REM R1 =  0.0320 for    1386 Fo > 4sig(Fo)  and  0.0561 for all    1893 data
REM    136 parameters refined using      1 restraints
END
WGHT      0.0237      0.0000
REM Instructions for potential hydrogen bonds
EQIV $4 -x+2, y-1/2, -z
HTAB C2 O2_$4
HTAB N3 O4_$1
HTAB N4 O3_$2
HTAB N4 O4_$3
REM Highest difference peak  0.096,  deepest hole -0.103,  1-sigma level  0.024
Q1    1   1.1106  0.6800  0.2321  11.00000  0.05    0.10
Q2    1  -0.2728 -0.2593  0.5212  11.00000  0.05    0.08
Q3    1   0.6992  0.2240  0.1438  11.00000  0.05    0.08
Q4    1   0.1662  0.2386  0.3677  11.00000  0.05    0.08
Q5    1  -0.2720  0.0380  0.2745  11.00000  0.05    0.08
Q6    1   0.2128  0.1214  0.1963  11.00000  0.05    0.08
Q7    1  -0.7563 -0.1821  0.4356  11.00000  0.05    0.08
Q8    1   0.3458 -0.3248  0.1811  11.00000  0.05    0.08
Q9    1  -0.2115 -0.2610  0.4362  11.00000  0.05    0.08
Q10   1   0.2525  0.1433  0.1635  11.00000  0.05    0.07
Q11   1   0.5634  0.6174  0.1297  11.00000  0.05    0.07
Q12   1   0.4306  0.0767  0.2421  11.00000  0.05    0.07
Q13   1   0.0182  0.4528  0.2993  11.00000  0.05    0.07
Q14   1  -0.2460  0.1589  0.3012  11.00000  0.05    0.07
Q15   1  -0.3050 -0.3488  0.2644  11.00000  0.05    0.07
Q16   1   0.3541  0.0881  0.0533  11.00000  0.05    0.07
Q17   1   0.9187  0.5133  0.1789  11.00000  0.05    0.07
Q18   1   0.9453  0.1582  0.0545  11.00000  0.05    0.07
Q19   1  -0.8052 -0.3286  0.4044  11.00000  0.05    0.07
Q20   1  -0.5677 -0.1943  0.3559  11.00000  0.05    0.07
;
_shelx_res_checksum              54343
loop_
_space_group_symop_operation_xyz
'x, y, z'
'-x, y+1/2, -z'
loop_
_atom_site_type_symbol
_atom_site_label
_atom_site_fract_x
_atom_site_fract_y
_atom_site_fract_z
_atom_site_U_iso_or_equiv
_atom_site_adp_type
_atom_site_calc_flag
_atom_site_occupancy
O O1 0.4383(3) 0.3386(2) 0.22542(8) 0.0459(3) Uani d 1
C C1 0.6066(5) 0.3173(4) 0.14708(13) 0.0459(5) Uani d 1
C C2 0.5733(5) 0.1441(4) 0.10957(14) 0.0566(6) Uani d 1
H H2 0.6671 0.0992 0.0559 0.068 Uiso calc 1
C C3 0.3674(5) 0.0438(4) 0.16786(14) 0.0542(6) Uani d 1
H H3 0.2976 -0.0812 0.1605 0.065 Uiso calc 1
C C4 0.2904(4) 0.1661(3) 0.23720(12) 0.0412(5) Uani d 1
N N1 0.7921(5) 0.4765(3) 0.12053(13) 0.0609(5) Uani d 1
O O2 0.9453(4) 0.4585(3) 0.04943(11) 0.0849(6) Uani d 1
O O3 0.7958(5) 0.6193(3) 0.16871(13) 0.0914(6) Uani d 1
C C5 0.0920(4) 0.1536(3) 0.31757(12) 0.0411(5) Uani d 1
H H5 0.0562 0.2599 0.3544 0.049 Uiso calc 1
N N2 -0.0334(3) -0.0075(2) 0.33688(10) 0.0415(4) Uani d 1
N N3 -0.2195(4) -0.0118(2) 0.41303(11) 0.0432(4) Uani d 1
H H1 -0.276(5) 0.095(3) 0.4419(14) 0.052 Uiso d 1
C C6 -0.3527(5) -0.1777(3) 0.44125(12) 0.0433(5) Uani d 1
O O4 -0.5107(4) -0.17866(19) 0.51261(9) 0.0526(4) Uani d 1
N N4 -0.3018(6) -0.3317(3) 0.39040(16) 0.0697(6) Uani d 1
H H41 -0.207(6) -0.327(4) 0.3380(17) 0.084 Uiso d 1
H H42 -0.387(6) -0.439(4) 0.4090(17) 0.084 Uiso d 1
loop_
_atom_site_aniso_label
_atom_site_aniso_U_11
_atom_site_aniso_U_22
_atom_site_aniso_U_33
_atom_site_aniso_U_12
_atom_site_aniso_U_13
_atom_site_aniso_U_23
O1 0.0465(7) 0.0500(9) 0.0415(7) 0.0037(7) 0.0135(6) 0.0046(7)
C1 0.0392(10) 0.0605(13) 0.0384(10) 0.0064(12) 0.0114(9) 0.0094(12)
C2 0.0458(11) 0.0825(18) 0.0419(11) 0.0076(13) 0.0105(10) -0.0077(14)
C3 0.0510(12) 0.0594(14) 0.0525(12) 0.0008(11) 0.0090(11) -0.0110(11)
C4 0.0364(9) 0.0448(12) 0.0423(11) 0.0035(10) 0.0014(9) 0.0011(11)
N1 0.0581(11) 0.0729(14) 0.0521(11) 0.0063(11) 0.0154(10) 0.0172(11)
O2 0.0801(11) 0.1127(16) 0.0629(10) 0.0028(11) 0.0343(9) 0.0236(10)
O3 0.1134(14) 0.0678(13) 0.0942(13) -0.0168(11) 0.0420(12) 0.0029(12)
C5 0.0405(9) 0.0437(13) 0.0394(10) 0.0038(11) 0.0062(9) 0.0016(11)
N2 0.0402(9) 0.0436(11) 0.0408(9) 0.0056(8) 0.0088(8) 0.0027(8)
N3 0.0507(9) 0.0359(11) 0.0435(9) 0.0037(9) 0.0149(8) -0.0014(8)
C6 0.0542(11) 0.0338(10) 0.0422(11) 0.0051(11) 0.0080(9) 0.0031(11)
O4 0.0757(9) 0.0357(8) 0.0471(7) -0.0004(9) 0.0224(7) 0.0025(7)
N4 0.1099(17) 0.0356(11) 0.0650(12) -0.0034(11) 0.0421(12) -0.0020(10)
loop_
_atom_type_symbol
_atom_type_description
_atom_type_scat_dispersion_real
_atom_type_scat_dispersion_imag
_atom_type_scat_source
C C 0.0033 0.0016 'International Tables Vol C Tables 4.2.6.8 and 6.1.1.4'
H H 0.0000 0.0000 'International Tables Vol C Tables 4.2.6.8 and 6.1.1.4'
N N 0.0061 0.0033 'International Tables Vol C Tables 4.2.6.8 and 6.1.1.4'
O O 0.0106 0.0060 'International Tables Vol C Tables 4.2.6.8 and 6.1.1.4'
loop_
_geom_angle_atom_site_label_1
_geom_angle_atom_site_label_2
_geom_angle_atom_site_label_3
_geom_angle
C1 O1 C4 104.45(18)
C2 C1 O1 112.82(19)
C2 C1 N1 131.31(19)
O1 C1 N1 115.8(2)
C1 C2 C3 105.82(19)
C1 C2 H2 127.1
C3 C2 H2 127.1
C4 C3 C2 106.4(2)
C4 C3 H3 126.8
C2 C3 H3 126.8
C3 C4 O1 110.54(17)
C3 C4 C5 134.5(2)
O1 C4 C5 114.95(16)
O3 N1 O2 124.1(2)
O3 N1 C1 119.61(18)
O2 N1 C1 116.3(2)
N2 C5 C4 118.33(18)
N2 C5 H5 120.8
C4 C5 H5 120.8
C5 N2 N3 116.11(16)
C6 N3 N2 120.47(17)
C6 N3 H1 117.7(14)
N2 N3 H1 121.5(14)
O4 C6 N4 123.5(2)
O4 C6 N3 119.02(19)
N4 C6 N3 117.47(16)
C6 N4 H41 123(2)
C6 N4 H42 117.5(17)
H41 N4 H42 120(3)
loop_
_geom_bond_atom_site_label_1
_geom_bond_atom_site_label_2
_geom_bond_distance
O1 C1 1.352(2)
O1 C4 1.372(3)
C1 C2 1.336(3)
C1 N1 1.418(3)
C2 C3 1.405(3)
C2 H2 0.9300
C3 C4 1.362(3)
C3 H3 0.9300
C4 C5 1.443(2)
N1 O3 1.220(3)
N1 O2 1.228(2)
C5 N2 1.278(3)
C5 H5 0.9300
N2 N3 1.360(2)
N3 C6 1.357(3)
N3 H1 0.89(2)
C6 O4 1.235(2)
C6 N4 1.326(3)
N4 H41 0.86(2)
N4 H42 0.88(3)
loop_
_geom_hbond_atom_site_label_D
_geom_hbond_atom_site_label_H
_geom_hbond_atom_site_label_A
_geom_hbond_site_symmetry_A
_geom_hbond_distance_DH
_geom_hbond_distance_HA
_geom_hbond_distance_DA
_geom_hbond_angle_DHA
N3 H1 O4 2_456 0.89(2) 1.94(2) 2.817(2) 166.6(19)
N4 H41 O3 1_445 0.86(2) 2.48(2) 3.255(3) 151(2)
N4 H42 O4 2_446 0.88(3) 2.07(3) 2.922(2) 162(2)

_cod_database_fobs_code 2107484
