#------------------------------------------------------------------------------
#$Date: 2016-04-02 04:17:53 +0300 (Sat, 02 Apr 2016) $
#$Revision: 180695 $
#$URL: svn://www.crystallography.net/cod/cif/2/10/74/2107487.cif $
#------------------------------------------------------------------------------
#
# This file is available in the Crystallography Open Database (COD),
# http://www.crystallography.net/. The original data for this entry
# were provided by IUCr Journals, http://journals.iucr.org/.
#
# The file may be used within the scientific community so long as
# proper attribution is given to the journal article from which the
# data were obtained.
#
data_2107487
loop_
_publ_author_name
'Hejny, Clivia'
'Kahlenberg, Volker'
'Eberhard, Tim'
'Kr\"uger, Hannes'
_publ_section_title
;
 Melilite-like modulation and temperature-dependent evolution in the
 framework structure of K~2~Sc[Si~2~O~6~]F
;
_journal_coeditor_code           DK5040
_journal_issue                   2
_journal_name_full               'Acta Crystallographica Section B'
_journal_page_first              209
_journal_page_last               222
_journal_paper_doi               10.1107/S2052520615024865
_journal_volume                  72
_journal_year                    2016
_chemical_formula_sum            'F K2 O6 Sc Si2'
_chemical_formula_weight         294.3
_chemical_name_systematic        ' ?'
_space_group_IT_number           136
_symmetry_cell_setting           tetragonal
_symmetry_space_group_name_Hall  '-P 4n 2n'
_symmetry_space_group_name_H-M   'P 42/m n m'
_cell_angle_alpha                90
_cell_angle_beta                 90
_cell_angle_gamma                90
_cell_formula_units_Z            4
_cell_length_a                   8.98780(10)
_cell_length_b                   8.98780(10)
_cell_length_c                   8.2694(2)
_cell_measurement_reflns_used    6650
_cell_measurement_temperature    293
_cell_measurement_theta_max      23.22
_cell_measurement_theta_min      3
_cell_modulation_dimension       2
_cell_volume                     668.007(19)
_computing_cell_refinement
;
CrysAlisPro, Agilent Technologies,
Version 1.171.36.20 (release 27-06-2012 CrysAlis171 .NET)
(compiled Jul 11 2012,15:38:31)
;
_computing_data_collection
;
CrysAlisPro, Agilent Technologies,
Version 1.171.36.20 (release 27-06-2012 CrysAlis171 .NET)
(compiled Jul 11 2012,15:38:31)
;
_computing_data_reduction
;
CrysAlisPro, Agilent Technologies,
Version 1.171.36.20 (release 27-06-2012 CrysAlis171 .NET)
(compiled Jul 11 2012,15:38:31)
;
_diffrn_ambient_temperature      293
_diffrn_detector_area_resol_mean 10.3575
_diffrn_measured_fraction_theta_full 0.95
_diffrn_measured_fraction_theta_max 0.95
_diffrn_measurement_device_type  'Xcalibur, Ruby, Gemini ultra'
_diffrn_measurement_method       '\w scans'
_diffrn_radiation_monochromator  graphite
_diffrn_radiation_probe          x-ray
_diffrn_radiation_source         'Enhance (Mo) X-ray Source'
_diffrn_radiation_type           'Mo K\a'
_diffrn_radiation_wavelength     0.71069
_diffrn_reflns_av_R_equivalents  0.0587
_diffrn_reflns_av_unetI/netI     0.0026
_diffrn_reflns_limit_h_max       11
_diffrn_reflns_limit_h_min       -11
_diffrn_reflns_limit_index_m_1_max 1
_diffrn_reflns_limit_index_m_1_min -1
_diffrn_reflns_limit_index_m_2_max 1
_diffrn_reflns_limit_index_m_2_min -1
_diffrn_reflns_limit_k_max       11
_diffrn_reflns_limit_k_min       -11
_diffrn_reflns_limit_l_max       10
_diffrn_reflns_limit_l_min       -10
_diffrn_reflns_number            43219
_diffrn_reflns_theta_full        26.73
_diffrn_reflns_theta_max         26.74
_diffrn_reflns_theta_min         1.35
_exptl_absorpt_coefficient_mu    2.71
_exptl_absorpt_correction_T_max  1
_exptl_absorpt_correction_T_min  0.649
_exptl_absorpt_correction_type   multi-scan
_exptl_absorpt_process_details
;
CrysAlisPro, Agilent Technologies,
Version 1.171.36.20 (release 27-06-2012 CrysAlis171 .NET)
(compiled Jul 11 2012,15:38:31)
Empirical absorption correction using spherical harmonics,
 implemented in SCALE3 ABSPACK scaling algorithm.
;
_exptl_crystal_colour
;
;
_exptl_crystal_density_diffrn    2.9255
_exptl_crystal_description
;
;
_exptl_crystal_F_000             576
_exptl_crystal_size_max          0.361
_exptl_crystal_size_mid          0.23
_exptl_crystal_size_min          0.088
_refine_diff_density_max         0.79
_refine_diff_density_min         -0.75
_refine_ls_extinction_coef       76000(17000)
_refine_ls_extinction_method
'B-C type 1 Gaussian isotropic (Becker & Coppens, 1974)'
_refine_ls_goodness_of_fit_gt    4.27
_refine_ls_goodness_of_fit_ref   4.21
_refine_ls_number_constraints    0
_refine_ls_number_parameters     268
_refine_ls_number_reflns         3223
_refine_ls_number_restraints     0
_refine_ls_R_factor_all          0.0545
_refine_ls_R_factor_gt           0.0515
_refine_ls_shift/su_max          0.1401
_refine_ls_shift/su_mean         0.0145
_refine_ls_structure_factor_coef F
_refine_ls_weighting_details     w=1/(\s^2^(F)+0.0001F^2^)
_refine_ls_weighting_scheme      sigma
_refine_ls_wR_factor_gt          0.0631
_refine_ls_wR_factor_ref         0.0639
_reflns_number_gt                3074
_reflns_number_total             3223
_reflns_threshold_expression     I>3\s(I)
_cod_data_source_file            dk5040sup1.cif
_cod_data_source_block           II_rt_incom
_cod_depositor_comments
;
The following automatic conversions were performed:

'_diffrn_radiation_probe' value 'X-ray' changed to 'x-ray' according
to
/usr/data/users/saulius/crontab/automatic-downloads/rss-feeds/IUCr/lib/dictionaries/cif_core.dic
dictionary named 'cif_core.dic' version 2.4.2 from 2011-04-26.

Automatic conversion script
Id: cif_fix_values 4268 2015-11-12 08:31:59Z antanas 
;
_cod_original_sg_symbol_H-M      'P 42/m 21/n 2/m'
_cod_original_formula_sum        'F1 K2 O6 Sc1 Si2'
_cod_database_code               2107487
loop_
_space_group_symop_id
_space_group_symop_operation_xyz
1 x,y,z
2 -x,-y,z
3 -y+0.5,x+0.5,z+0.5
4 y+0.5,-x+0.5,z+0.5
5 -x+0.5,y+0.5,-z+0.5
6 x+0.5,-y+0.5,-z+0.5
7 y,x,-z
8 -y,-x,-z
9 -x,-y,-z
10 x,y,-z
11 y+0.5,-x+0.5,-z+0.5
12 -y+0.5,x+0.5,-z+0.5
13 x+0.5,-y+0.5,z+0.5
14 -x+0.5,y+0.5,z+0.5
15 -y,-x,z
16 y,x,z
loop_
_space_group_symop_ssg_id
_space_group_symop_ssg_operation_algebraic
1 x1,x2,x3,x4,x5
2 -x1,-x2,x3,-x4,-x5
3 -x2+1/2,x1+1/2,x3+1/2,-x5+1/2,x4+1/2
4 x2+1/2,-x1+1/2,x3+1/2,x5+1/2,-x4+1/2
5 -x1+1/2,x2+1/2,-x3+1/2,x5,x4
6 x1+1/2,-x2+1/2,-x3+1/2,-x5,-x4
7 x2,x1,-x3,x4+1/2,-x5+1/2
8 -x2,-x1,-x3,-x4+1/2,x5+1/2
9 -x1,-x2,-x3,-x4,-x5
10 x1,x2,-x3,x4,x5
11 x2+1/2,-x1+1/2,-x3+1/2,x5+1/2,-x4+1/2
12 -x2+1/2,x1+1/2,-x3+1/2,-x5+1/2,x4+1/2
13 x1+1/2,-x2+1/2,x3+1/2,-x5,-x4
14 -x1+1/2,x2+1/2,x3+1/2,x5,x4
15 -x2,-x1,x3,-x4+1/2,x5+1/2
16 x2,x1,x3,x4+1/2,-x5+1/2
loop_
_atom_site_label
_atom_site_type_symbol
_atom_site_fract_x
_atom_site_fract_y
_atom_site_fract_z
_atom_site_adp_type
_atom_site_U_iso_or_equiv
_atom_site_site_symmetry_multiplicity
_atom_site_occupancy
_atom_site_calc_flag
Sc Sc 0.5 0 0.25 Uani 0.00838(13) 4 1 d
K1 K 0.79314(4) 0.20686(4) 0 Uani 0.02308(13) 4 1 d
K2 K 0.34293(4) 0.34293(4) 0 Uani 0.03292(14) 4 1 d
Si Si 0.12224(3) 0.12224(3) 0.19667(5) Uani 0.00955(12) 8 1 d
O1 O 0 0 0.25974(18) Uani 0.0182(3) 4 1 d
O2 O 0.11643(12) 0.11643(12) 0 Uani 0.0217(3) 4 1 d
F F 0.5 0 0 Uani 0.0235(4) 4 1 d
O3 O 0.07264(8) 0.28094(9) 0.25906(8) Uani 0.02148(19) 16 1 d
loop_
_atom_site_aniso_label
_atom_site_aniso_type_symbol
_atom_site_aniso_U_11
_atom_site_aniso_U_22
_atom_site_aniso_U_33
_atom_site_aniso_U_12
_atom_site_aniso_U_13
_atom_site_aniso_U_23
Sc Sc 0.0090(2) 0.0090(2) 0.0072(3) 0 0 0
K1 K 0.0263(2) 0.0263(2) 0.0167(3) 0.00903(16) 0 0
K2 K 0.0402(2) 0.0402(2) 0.0184(3) -0.0235(2) 0 0
Si Si 0.01040(19) 0.01040(19) 0.0078(2) 0.00047(11) -0.00024(7) -0.00024(7)
O1 O 0.0199(5) 0.0199(5) 0.0149(8) -0.0093(4) 0 0
O2 O 0.0281(5) 0.0281(5) 0.0089(6) -0.0091(5) 0 0
F F 0.0322(7) 0.0296(8) 0.0086(7) -0.0030(5) 0 0
O3 O 0.0266(3) 0.0132(3) 0.0247(4) 0.0046(2) -0.0014(2) -0.0033(2)
loop_
_atom_site_displace_Fourier_atom_site_label
_atom_site_displace_Fourier_axis
_atom_site_displace_Fourier_wave_vector_seq_id
_atom_site_displace_Fourier_param_cos
_atom_site_displace_Fourier_param_sin
Sc x 1 0 -0.00314(2)
Sc y 1 0 -0.00540(3)
Sc z 1 -0.000148(15) 0
Sc x 2 0 -0.00540(3)
Sc y 2 0 0.00314(2)
Sc z 2 -0.000148(15) 0
Sc x 3 0 0.000253(16)
Sc y 3 0 0.000400(15)
Sc z 3 0.000201(19) 0
Sc x 4 0 -0.000400(15)
Sc y 4 0 0.000253(16)
Sc z 4 -0.000201(19) 0
K1 x 1 0.00982(5) 0.00409(3)
K1 y 1 0.00982(5) -0.00409(3)
K1 z 1 0 0
K1 x 2 -0.00429(3) 0.00054(2)
K1 y 2 -0.00429(3) 0.00054(2)
K1 z 2 0 0
K1 x 3 -0.00053(2) 0.00016(3)
K1 y 3 -0.00037(2) 0.00050(2)
K1 z 3 0 0
K1 x 4 0.00037(2) -0.00050(2)
K1 y 4 0.00053(2) -0.00016(3)
K1 z 4 0 0
K2 x 1 0.01136(6) -0.00316(4)
K2 y 1 -0.01136(6) 0.00316(4)
K2 z 1 0 0
K2 x 2 -0.00260(3) -0.00069(2)
K2 y 2 0.00260(3) -0.00069(2)
K2 z 2 0 0
K2 x 3 -0.00318(3) -0.00106(3)
K2 y 3 0.00255(3) 0.00093(3)
K2 z 3 0 0
K2 x 4 0.00255(3) -0.00093(3)
K2 y 4 -0.00318(3) 0.00106(3)
K2 z 4 0 0
Si x 1 0.000652(16) 0.001877(18)
Si y 1 -0.000652(16) -0.001877(18)
Si z 1 0 0
Si x 2 0.00346(2) -0.00553(3)
Si y 2 -0.00346(2) -0.00553(3)
Si z 2 0 0.00038(2)
Si x 3 -0.000265(17) -0.000178(18)
Si y 3 0.000082(16) 0.000370(16)
Si z 3 -0.000027(19) 0.000134(18)
Si x 4 0.000082(16) -0.000370(16)
Si y 4 -0.000265(17) 0.000178(18)
Si z 4 -0.000027(19) -0.000134(18)
O1 x 1 0 -0.01335(13)
O1 y 1 0 0.01335(13)
O1 z 1 0 0
O1 x 2 0 -0.00570(8)
O1 y 2 0 -0.00570(8)
O1 z 2 0 0
O1 x 3 0 0.00102(7)
O1 y 3 0 -0.00050(7)
O1 z 3 -0.00007(8) 0
O1 x 4 0 0.00050(7)
O1 y 4 0 -0.00102(7)
O1 z 4 -0.00007(8) 0
O2 x 1 0.00466(8) 0.01042(10)
O2 y 1 -0.00466(8) -0.01042(10)
O2 z 1 0 0
O2 x 2 0.00078(8) -0.00458(8)
O2 y 2 -0.00078(8) -0.00458(8)
O2 z 2 0 0
O2 x 3 0.00032(8) -0.00033(8)
O2 y 3 -0.00097(7) 0.00083(7)
O2 z 3 0 0
O2 x 4 -0.00097(7) -0.00083(7)
O2 y 4 0.00032(8) 0.00033(8)
O2 z 4 0 0
F x 1 0 -0.00976(12)
F y 1 0 -0.00129(9)
F z 1 0 0
F x 2 0 -0.01292(13)
F y 2 0 -0.00631(11)
F z 2 0 0
F x 3 0 -0.00102(10)
F y 3 0 0.00017(9)
F z 3 0 0
F x 4 0 -0.00132(9)
F y 4 0 -0.00041(9)
F z 4 0 0
O3 x 1 -0.01088(7) 0.01115(7)
O3 y 1 -0.00313(5) 0.00456(6)
O3 z 1 -0.00181(6) -0.01151(8)
O3 x 2 0.01258(7) -0.00242(5)
O3 y 2 0.00030(5) -0.00670(6)
O3 z 2 0.00236(6) 0.00203(6)
O3 x 3 0.00061(5) -0.00115(6)
O3 y 3 0.00060(5) 0.00011(5)
O3 z 3 -0.00109(6) -0.00017(6)
O3 x 4 0.00061(5) -0.00103(5)
O3 y 4 -0.00025(5) -0.00007(5)
O3 z 4 0.00084(6) 0.00007(6)
loop_
_atom_site_Fourier_wave_vector_seq_id
_jana_atom_site_fourier_wave_vector_q1_coeff
_jana_atom_site_fourier_wave_vector_q2_coeff
1 1 0
2 0 1
3 1 1
4 -1 1
loop_
_atom_site_U_Fourier_atom_site_label
_atom_site_U_Fourier_tens_elem
_atom_site_U_Fourier_wave_vector_seq_id
_atom_site_U_Fourier_param_cos
_atom_site_U_Fourier_param_sin
Sc U11 1 -0.00025(7) 0
Sc U22 1 0.00007(7) 0
Sc U33 1 0.00007(6) 0
Sc U12 1 -0.00014(5) 0
Sc U13 1 0 0.00000(5)
Sc U23 1 0 0.00000(5)
Sc U11 2 -0.00007(7) 0
Sc U22 2 0.00025(7) 0
Sc U33 2 -0.00007(6) 0
Sc U12 2 -0.00014(5) 0
Sc U13 2 0 0.00000(5)
Sc U23 2 0 0.00000(5)
Sc U11 3 -0.00005(6) 0
Sc U22 3 0.00019(6) 0
Sc U33 3 -0.00001(7) 0
Sc U12 3 -0.00007(5) 0
Sc U13 3 0 0.00016(6)
Sc U23 3 0 -0.00007(5)
Sc U11 4 0.00019(6) 0
Sc U22 4 -0.00005(6) 0
Sc U33 4 -0.00001(7) 0
Sc U12 4 0.00007(5) 0
Sc U13 4 0 -0.00007(5)
Sc U23 4 0 -0.00016(6)
K1 U11 1 -0.00093(13) 0.00143(10)
K1 U22 1 0.00093(13) 0.00143(10)
K1 U33 1 0 -0.00063(11)
K1 U12 1 0 0.00131(12)
K1 U13 1 0 0
K1 U23 1 0 0
K1 U11 2 0.00238(12) -0.00070(11)
K1 U22 2 -0.00238(12) 0.00070(11)
K1 U33 2 0 0
K1 U12 2 0 0
K1 U13 2 0 0
K1 U23 2 0 0
K1 U11 3 0.00100(11) -0.00039(11)
K1 U22 3 0.00063(11) 0.00012(11)
K1 U33 3 0.00005(10) 0.00007(10)
K1 U12 3 0.00084(9) 0.00006(9)
K1 U13 3 0 0
K1 U23 3 0 0
K1 U11 4 0.00063(11) 0.00012(11)
K1 U22 4 0.00100(11) -0.00039(11)
K1 U33 4 0.00005(10) 0.00007(10)
K1 U12 4 0.00084(9) 0.00006(9)
K1 U13 4 0 0
K1 U23 4 0 0
K2 U11 1 0.00177(17) -0.00047(15)
K2 U22 1 -0.00177(17) 0.00047(15)
K2 U33 1 0 0
K2 U12 1 0 0
K2 U13 1 0 0
K2 U23 1 0 0
K2 U11 2 0.00064(14) -0.01770(13)
K2 U22 2 -0.00064(14) -0.01770(13)
K2 U33 2 0 0.00059(12)
K2 U12 2 0 0.01936(16)
K2 U13 2 0 0
K2 U23 2 0 0
K2 U11 3 0.00177(14) -0.00116(14)
K2 U22 3 0.00249(14) 0.00068(13)
K2 U33 3 -0.00021(11) 0.00010(11)
K2 U12 3 -0.00197(11) 0.00013(11)
K2 U13 3 0 0
K2 U23 3 0 0
K2 U11 4 0.00249(14) -0.00068(13)
K2 U22 4 0.00177(14) 0.00116(14)
K2 U33 4 -0.00021(11) -0.00010(11)
K2 U12 4 -0.00197(11) -0.00013(11)
K2 U13 4 0 0
K2 U23 4 0 0
Si U11 1 -0.00008(8) 0.00017(8)
Si U22 1 0.00008(8) -0.00017(8)
Si U33 1 0 0
Si U12 1 0 0
Si U13 1 -0.00008(5) -0.00006(5)
Si U23 1 0.00008(5) 0.00006(5)
Si U11 2 -0.00017(8) -0.00015(6)
Si U22 2 0.00017(8) -0.00015(6)
Si U33 2 0 0.00008(8)
Si U12 2 0 -0.00023(8)
Si U13 2 0.00000(5) -0.00005(5)
Si U23 2 0.00000(5) -0.00005(5)
Si U11 3 0.00020(7) -0.00002(7)
Si U22 3 0.00001(7) 0.00021(7)
Si U33 3 0.00002(7) 0.00012(7)
Si U12 3 0.00000(6) 0.00011(6)
Si U13 3 -0.00005(6) 0.00000(6)
Si U23 3 0.00002(5) 0.00000(6)
Si U11 4 0.00001(7) -0.00021(7)
Si U22 4 0.00020(7) 0.00002(7)
Si U33 4 0.00002(7) -0.00012(7)
Si U12 4 0.00000(6) -0.00011(6)
Si U13 4 0.00002(5) 0.00000(6)
Si U23 4 -0.00005(6) 0.00000(6)
O1 U11 1 -0.0006(4) 0
O1 U22 1 0.0006(4) 0
O1 U33 1 0 0
O1 U12 1 0 0
O1 U13 1 0 0.0035(3)
O1 U23 1 0 -0.0035(3)
O1 U11 2 -0.0008(3) 0
O1 U22 2 0.0008(3) 0
O1 U33 2 0 0
O1 U12 2 0 0
O1 U13 2 0 0.0001(2)
O1 U23 2 0 0.0001(2)
O1 U11 3 0.0003(3) 0
O1 U22 3 0.0008(3) 0
O1 U33 3 -0.0001(3) 0
O1 U12 3 -0.0010(3) 0
O1 U13 3 0 -0.0005(3)
O1 U23 3 0 0.0008(3)
O1 U11 4 0.0008(3) 0
O1 U22 4 0.0003(3) 0
O1 U33 4 -0.0001(3) 0
O1 U12 4 -0.0010(3) 0
O1 U13 4 0 -0.0008(3)
O1 U23 4 0 0.0005(3)
O2 U11 1 -0.0019(4) -0.0017(5)
O2 U22 1 0.0019(4) 0.0017(5)
O2 U33 1 0 0
O2 U12 1 0 0
O2 U13 1 0 0
O2 U23 1 0 0
O2 U11 2 0.0002(4) -0.0013(3)
O2 U22 2 -0.0002(4) -0.0013(3)
O2 U33 2 0 0.0005(3)
O2 U12 2 0 0.0012(4)
O2 U13 2 0 0
O2 U23 2 0 0
O2 U11 3 0.0013(4) 0.0001(4)
O2 U22 3 0.0007(4) -0.0002(4)
O2 U33 3 -0.0001(3) 0.0002(3)
O2 U12 3 -0.0011(3) 0.0003(3)
O2 U13 3 0 0
O2 U23 3 0 0
O2 U11 4 0.0007(4) 0.0002(4)
O2 U22 4 0.0013(4) -0.0001(4)
O2 U33 4 -0.0001(3) -0.0002(3)
O2 U12 4 -0.0011(3) -0.0003(3)
O2 U13 4 0 0
O2 U23 4 0 0
F U11 1 -0.0008(4) 0
F U22 1 0.0008(4) 0
F U33 1 -0.0002(3) 0
F U12 1 0.0004(3) 0
F U13 1 0 0
F U23 1 0 0
F U11 2 -0.0005(4) 0
F U22 2 -0.0004(4) 0
F U33 2 0.0006(3) 0
F U12 2 -0.0002(3) 0
F U13 2 0 0
F U23 2 0 0
F U11 3 0.0017(5) 0
F U22 3 -0.0002(4) 0
F U33 3 -0.0008(4) 0
F U12 3 -0.0010(4) 0
F U13 3 0 0
F U23 3 0 0
F U11 4 0.0023(5) 0
F U22 4 -0.0003(4) 0
F U33 4 0.0003(4) 0
F U12 4 0.0011(4) 0
F U13 4 0 0
F U23 4 0 0
O3 U11 1 0.0008(3) 0.0007(3)
O3 U22 1 0.0006(2) 0.0003(2)
O3 U33 1 0.0020(2) 0.0035(3)
O3 U12 1 0.0009(2) -0.0004(2)
O3 U13 1 0.0002(2) -0.0014(2)
O3 U23 1 -0.00049(18) -0.00089(19)
O3 U11 2 -0.0011(3) 0.0015(3)
O3 U22 2 0.0004(2) -0.0006(2)
O3 U33 2 -0.0010(2) -0.0019(2)
O3 U12 2 -0.0001(2) -0.00097(19)
O3 U13 2 -0.0004(2) 0.00089(19)
O3 U23 2 0.00010(17) 0.00071(18)
O3 U11 3 0.0004(3) 0.0003(3)
O3 U22 3 0.0003(2) 0.0003(2)
O3 U33 3 0.0019(3) -0.0008(3)
O3 U12 3 0.00022(18) 0.00022(18)
O3 U13 3 -0.0006(2) 0.0000(2)
O3 U23 3 -0.0009(2) 0.00020(19)
O3 U11 4 0.0005(3) 0.0004(3)
O3 U22 4 0.0003(2) 0.0000(2)
O3 U33 4 0.0012(3) 0.0006(3)
O3 U12 4 0.00008(18) 0.00009(18)
O3 U13 4 0.0001(2) 0.0000(2)
O3 U23 4 -0.0006(2) -0.0004(2)
loop_
_atom_type_symbol
_atom_type_scat_dispersion_real
_atom_type_scat_dispersion_imag
_atom_type_scat_source
F 0.0171 0.0103 'International Tables Vol C tables 4.2.6.8 and 6.1.1.1'
K 0.2009 0.2494 'International Tables Vol C tables 4.2.6.8 and 6.1.1.1'
O 0.0106 0.0060 'International Tables Vol C tables 4.2.6.8 and 6.1.1.1'
Sc 0.2519 0.3716 'International Tables Vol C tables 4.2.6.8 and 6.1.1.1'
Si 0.0817 0.0704 'International Tables Vol C tables 4.2.6.8 and 6.1.1.1'
loop_
_cell_wave_vector_seq_id
_cell_wave_vector_x
_cell_wave_vector_y
_cell_wave_vector_z
1 0.298200 0.298200 0.000000
2 -0.298200 0.298200 0.000000
loop_
_geom_angle_atom_site_label_1
_geom_angle_atom_site_label_2
_geom_angle_atom_site_label_3
_geom_angle_site_ssg_symmetry_1
_geom_angle_site_ssg_symmetry_3
_geom_angle_av
_geom_angle_min
_geom_angle_max
O2 K1 O2 1_65555 2_65555 58.72(9) 57.83(9) 59.60(9)
O3 K2 O3 . 3_55455 105.76(6) 99.71(6) 111.89(7)
O3 K2 O3 . 6_55555 90.52(6) 83.99(6) 96.27(6)
O3 K2 O3 . 7_55555 99.92(6) 98.07(6) 101.87(6)
O3 K2 O3 . 10_55555 81.50(6) 74.10(6) 88.81(7)
O3 K2 O3 . 12_55555 55.02(5) 51.10(5) 58.83(6)
O3 K2 O3 . 13_55455 148.76(7) 144.06(7) 154.44(6)
O3 K2 O3 . 16_55555 47.38(5) 46.52(5) 48.24(5)
O3 K2 O3 3_55455 6_55555 154.67(7) 153.64(7) 155.68(8)
O3 K2 O3 3_55455 7_55555 90.68(6) 83.99(6) 96.27(6)
O3 K2 O3 3_55455 10_55555 55.02(6) 51.10(5) 58.83(6)
O3 K2 O3 3_55455 12_55555 80.67(7) 76.59(6) 83.47(7)
O3 K2 O3 3_55455 13_55455 93.77(6) 92.50(6) 94.96(5)
O3 K2 O3 3_55455 16_55555 148.94(7) 144.06(7) 154.44(6)
O3 K2 O3 6_55555 7_55555 105.60(6) 99.71(6) 111.89(7)
O3 K2 O3 6_55555 10_55555 148.76(7) 144.06(7) 154.44(6)
O3 K2 O3 6_55555 12_55555 93.77(6) 92.50(6) 94.96(5)
O3 K2 O3 6_55555 13_55455 80.73(7) 76.59(6) 83.47(7)
O3 K2 O3 6_55555 16_55555 54.84(6) 51.10(5) 58.83(6)
O3 K2 O3 7_55555 10_55555 47.38(5) 46.52(5) 48.24(5)
O3 K2 O3 7_55555 12_55555 148.94(7) 144.06(7) 154.44(6)
O3 K2 O3 7_55555 13_55455 54.84(5) 51.10(5) 58.83(6)
O3 K2 O3 7_55555 16_55555 81.41(6) 74.10(6) 88.81(7)
O3 K2 O3 10_55555 12_55555 105.76(6) 99.71(6) 111.89(7)
O3 K2 O3 10_55555 13_55455 90.52(6) 83.99(6) 96.27(6)
O3 K2 O3 10_55555 16_55555 99.92(6) 98.07(6) 101.87(6)
O3 K2 O3 12_55555 13_55455 154.67(7) 153.64(7) 155.68(8)
O3 K2 O3 12_55555 16_55555 90.68(6) 83.99(6) 96.27(6)
O3 K2 O3 13_55455 16_55555 105.60(6) 99.71(6) 111.89(7)
K1 O2 K1 1_45555 2_65555 121.24(11) 117.84(10) 124.67(11)
K1 O2 O2 1_45555 2_55555 60.53(9) 57.77(9) 63.97(9)
K1 O2 O2 2_65555 2_55555 60.72(9) 57.77(9) 63.97(9)
loop_
_geom_bond_atom_site_label_1
_geom_bond_atom_site_label_2
_geom_bond_site_ssg_symmetry_2
_geom_bond_distance_av
_geom_bond_distance_min
_geom_bond_distance_max
K2 O3 3_55455 3.074(2) 2.897(2) 3.376(2)
K2 O3 6_55555 3.084(2) 2.897(2) 3.376(2)
K2 O3 12_55555 3.074(2) 2.897(2) 3.376(2)
K2 O3 13_55455 3.084(2) 2.897(2) 3.376(2)
loop_
_refln_index_h
_refln_index_k
_refln_index_l
_refln_index_m_1
_refln_index_m_2
_refln_F_squared_calc
_refln_F_squared_meas
_refln_F_squared_sigma
_refln_observed_status
0 0 0 1 1 0.28 0.13 0.11 <
0 0 2 1 1 0.00 0.10 0.07 <
0 0 4 1 1 0.20 0.24 0.05 o
0 0 6 1 1 0.04 0.05 0.05 <
0 0 8 1 1 0.06 0.21 0.05 o
0 0 10 1 1 0.03 0.22 0.06 o
1 0 0 0 1 0.08 0.19 0.07 <
1 0 0 1 0 1.89 1.40 0.08 o
1 0 0 1 1 0.12 0.08 0.06 <
1 0 1 -1 1 0.14 0.09 0.05 <
1 0 1 0 1 0.26 0.26 0.04 o
1 0 1 1 -1 0.35 0.28 0.08 o
1 0 1 1 0 0.39 0.37 0.05 o
1 0 1 1 1 0.40 0.35 0.05 o
1 0 2 0 1 0.11 0.23 0.05 o
1 0 2 1 0 0.08 0.18 0.05 o
1 0 2 1 1 0.13 0.15 0.05 <
1 0 3 -1 1 0.11 0.16 0.05 o
1 0 3 0 1 0.07 0.23 0.03 o
1 0 3 1 -1 0.63 0.48 0.05 o
1 0 3 1 0 0.00 0.13 0.03 o
1 0 3 1 1 0.14 0.16 0.03 o
1 0 4 0 1 0.10 0.27 0.03 o
1 0 4 1 0 1.36 1.32 0.04 o
1 0 4 1 1 0.39 0.42 0.03 o
1 0 5 -1 1 0.34 0.24 0.05 o
1 0 5 0 1 0.54 0.60 0.03 o
1 0 5 1 -1 0.96 1.00 0.05 o
1 0 5 1 0 0.19 0.27 0.03 o
1 0 5 1 1 0.67 0.62 0.03 o
1 0 6 0 1 0.04 0.13 0.03 o
1 0 6 1 0 0.15 0.31 0.04 o
1 0 6 1 1 0.07 0.13 0.03 o
1 0 7 -1 1 0.10 0.26 0.05 o
1 0 7 0 0 314.23 346.50 0.22 o
1 0 7 0 1 0.20 0.31 0.03 o
1 0 7 1 -1 0.57 0.38 0.05 o
1 0 7 1 0 0.02 0.13 0.03 o
1 0 7 1 1 0.24 0.29 0.04 o
1 0 8 0 1 0.03 0.21 0.03 o
1 0 8 1 0 0.53 0.57 0.04 o
1 0 8 1 1 0.40 0.36 0.04 o
1 0 9 -1 1 0.14 0.21 0.05 o
1 0 9 0 0 10.81 10.59 0.07 o
1 0 9 0 1 0.50 0.63 0.04 o
1 0 9 1 -1 0.31 0.41 0.05 o
1 0 9 1 0 0.14 0.28 0.04 o
1 0 9 1 1 0.26 0.36 0.04 o
1 0 10 0 1 0.03 0.17 0.04 o
1 0 10 1 0 0.08 0.20 0.04 o
1 0 10 1 1 0.09 0.20 0.04 o
1 1 0 -1 1 0.00 0.03 0.06 <
1 1 0 0 0 73.86 89.25 0.39 o
1 1 0 0 1 0.88 0.62 0.07 o
1 1 0 1 1 0.01 0.06 0.08 <
1 1 1 -1 1 0.12 0.19 0.05 o
1 1 1 0 0 90.81 97.95 0.31 o
1 1 1 0 1 2.64 2.24 0.06 o
1 1 1 1 1 0.10 0.13 0.06 <
1 1 2 -1 1 0.01 0.08 0.05 <
1 1 2 0 1 0.71 0.47 0.05 o
1 1 2 1 1 0.01 0.11 0.04 <
1 1 3 -1 1 0.00 0.04 0.03 <
1 1 3 0 1 27.90 30.40 0.07 o
1 1 3 1 1 0.03 0.09 0.04 <
1 1 4 -1 1 0.04 0.09 0.03 <
1 1 4 0 1 4.83 4.40 0.04 o
1 1 4 1 1 0.01 0.11 0.03 o
1 1 5 -1 1 0.17 0.28 0.03 o
1 1 5 0 0 428.51 478.14 0.77 o
1 1 5 0 1 20.51 20.90 0.06 o
1 1 5 1 1 0.03 0.15 0.03 o
1 1 6 -1 1 0.10 0.27 0.03 o
1 1 6 0 1 1.35 1.42 0.04 o
1 1 6 1 1 0.05 0.14 0.03 o
1 1 7 -1 1 0.00 0.16 0.03 o
1 1 7 0 0 234.48 256.43 0.20 o
1 1 7 0 1 14.97 15.25 0.05 o
1 1 7 1 1 0.01 0.10 0.03 o
1 1 8 -1 1 0.07 0.25 0.03 o
1 1 8 0 1 6.13 6.13 0.04 o
1 1 8 1 1 0.03 0.14 0.04 o
1 1 9 -1 1 0.08 0.17 0.04 o
1 1 9 0 0 13.77 13.41 0.07 o
1 1 9 0 1 7.11 7.13 0.04 o
1 1 9 1 1 0.00 0.16 0.04 o
1 1 10 -1 1 0.06 0.22 0.04 o
1 1 10 0 1 1.37 1.52 0.04 o
1 1 10 1 1 0.02 0.20 0.04 o
2 0 0 -1 1 0.59 0.37 0.11 o
2 0 0 0 1 1.87 1.18 0.09 o
2 0 0 1 -1 1.79 1.18 0.13 o
2 0 0 1 0 2.26 1.93 0.10 o
2 0 0 1 1 1.13 0.77 0.10 o
2 0 1 0 1 8.04 6.59 0.08 o
2 0 1 1 0 33.37 28.34 0.11 o
2 0 1 1 1 0.01 0.13 0.06 <
2 0 2 -1 1 0.18 0.18 0.06 <
2 0 2 0 1 4.65 3.73 0.05 o
2 0 2 1 -1 1.36 1.05 0.06 o
2 0 2 1 0 9.92 9.43 0.06 o
2 0 2 1 1 1.79 1.25 0.05 o
2 0 3 0 1 6.34 7.84 0.05 o
2 0 3 1 0 28.55 27.13 0.07 o
2 0 3 1 1 0.22 0.25 0.04 o
2 0 4 -1 1 0.67 0.57 0.05 o
2 0 4 0 1 2.27 1.94 0.04 o
2 0 4 1 -1 0.62 0.49 0.05 o
2 0 4 1 0 0.17 0.25 0.03 o
2 0 4 1 1 0.67 0.58 0.04 o
2 0 5 0 1 19.38 19.34 0.05 o
2 0 5 1 0 8.42 8.36 0.04 o
2 0 5 1 1 0.04 0.15 0.03 o
2 0 6 -1 1 0.02 0.10 0.05 <
2 0 6 0 1 0.09 0.28 0.04 o
2 0 6 1 -1 0.67 0.74 0.06 o
2 0 6 1 0 1.38 1.46 0.04 o
2 0 6 1 1 0.32 0.60 0.04 o
2 0 7 0 1 5.78 6.03 0.04 o
2 0 7 1 0 11.30 11.43 0.05 o
2 0 7 1 1 0.16 0.33 0.04 o
2 0 8 -1 1 0.46 0.46 0.05 o
2 0 8 0 0 217.49 237.21 0.19 o
2 0 8 0 1 2.12 2.21 0.04 o
2 0 8 1 -1 0.14 0.23 0.05 o
2 0 8 1 0 0.13 0.26 0.04 o
2 0 8 1 1 0.31 0.33 0.04 o
2 0 9 0 1 7.31 6.86 0.04 o
2 0 9 1 0 0.81 0.73 0.04 o
2 0 9 1 1 0.07 0.20 0.04 o
2 0 10 -1 1 0.02 0.15 0.05 <
2 0 10 0 1 0.22 0.31 0.04 o
2 0 10 1 -1 0.17 0.24 0.06 o
2 0 10 1 0 0.59 0.56 0.04 o
2 0 10 1 1 0.04 0.18 0.04 o
2 1 0 -1 -1 0.54 0.37 0.10 o
2 1 0 -1 0 8.37 7.26 0.11 o
2 1 0 -1 1 0.44 0.23 0.07 o
2 1 0 0 -1 13.78 11.50 0.12 o
2 1 0 0 1 0.49 0.68 0.08 o
2 1 0 1 -1 0.20 0.26 0.07 o
2 1 0 1 0 81.80 80.33 0.22 o
2 1 0 1 1 0.81 0.63 0.08 o
2 1 1 -1 -1 0.12 0.18 0.06 <
2 1 1 -1 0 4.71 4.38 0.08 o
2 1 1 -1 1 0.25 0.23 0.06 o
2 1 1 0 -1 15.20 12.11 0.08 o
2 1 1 0 0 21.64 16.51 0.11 o
2 1 1 0 1 22.96 20.36 0.10 o
2 1 1 1 -1 0.43 0.43 0.05 o
2 1 1 1 0 8.09 6.07 0.07 o
2 1 1 1 1 1.20 0.85 0.05 o
2 1 2 -1 -1 0.47 0.38 0.04 o
2 1 2 -1 0 4.41 4.23 0.05 o
2 1 2 -1 1 0.74 0.52 0.05 o
2 1 2 0 -1 6.12 5.27 0.05 o
2 1 2 0 1 8.32 7.88 0.06 o
2 1 2 1 -1 0.19 0.29 0.04 o
2 1 2 1 0 5.95 5.54 0.05 o
2 1 2 1 1 0.04 0.11 0.04 <
2 1 3 -1 -1 0.17 0.29 0.04 o
2 1 3 -1 0 0.06 0.21 0.04 o
2 1 3 -1 1 0.11 0.10 0.04 <
2 1 3 0 -1 50.73 50.84 0.09 o
2 1 3 0 0 13.72 9.33 0.06 o
2 1 3 0 1 3.33 3.45 0.04 o
2 1 3 1 -1 0.39 0.23 0.04 o
2 1 3 1 0 74.45 73.35 0.11 o
2 1 3 1 1 0.20 0.23 0.04 o
2 1 4 -1 -1 0.13 0.27 0.03 o
2 1 4 -1 0 1.83 1.95 0.04 o
2 1 4 -1 1 0.20 0.16 0.03 o
2 1 4 0 -1 1.11 1.02 0.04 o
2 1 4 0 0 218.26 187.17 0.15 o
2 1 4 0 1 1.09 1.13 0.04 o
2 1 4 1 -1 0.10 0.15 0.03 o
2 1 4 1 0 25.59 27.52 0.06 o
2 1 4 1 1 0.29 0.37 0.04 o
2 1 5 -1 -1 0.01 0.13 0.04 o
2 1 5 -1 0 4.42 4.63 0.04 o
2 1 5 -1 1 0.10 0.14 0.03 o
2 1 5 0 -1 0.00 0.28 0.04 o
2 1 5 0 0 26.06 24.17 0.06 o
2 1 5 0 1 14.94 15.09 0.05 o
2 1 5 1 -1 0.16 0.27 0.04 o
2 1 5 1 0 2.77 3.01 0.04 o
2 1 5 1 1 0.80 0.65 0.04 o
2 1 6 -1 -1 0.26 0.47 0.04 o
2 1 6 -1 0 0.31 0.55 0.04 o
2 1 6 -1 1 0.24 0.24 0.04 o
2 1 6 0 -1 8.96 8.66 0.05 o
2 1 6 0 1 0.07 0.35 0.04 o
2 1 6 1 -1 0.09 0.22 0.04 o
2 1 6 1 0 0.04 0.19 0.04 o
2 1 6 1 1 0.03 0.18 0.04 o
2 1 7 -1 -1 0.21 0.27 0.04 o
2 1 7 -1 0 0.03 0.18 0.04 o
2 1 7 -1 1 0.10 0.16 0.04 o
2 1 7 0 -1 24.35 24.24 0.06 o
2 1 7 0 0 6.59 7.10 0.05 o
2 1 7 0 1 0.54 0.70 0.04 o
2 1 7 1 -1 0.08 0.20 0.04 o
2 1 7 1 0 31.62 32.67 0.06 o
2 1 7 1 1 0.07 0.16 0.04 o
2 1 8 -1 -1 0.01 0.29 0.04 o
2 1 8 -1 0 0.08 0.19 0.03 o
2 1 8 -1 1 0.04 0.23 0.04 o
2 1 8 0 -1 0.90 1.05 0.04 o
2 1 8 0 1 4.37 4.46 0.04 o
2 1 8 1 -1 0.02 0.18 0.04 o
2 1 8 1 0 2.59 2.66 0.04 o
2 1 8 1 1 0.05 0.26 0.04 o
2 1 9 -1 -1 0.01 0.13 0.04 o
2 1 9 -1 0 1.71 1.73 0.04 o
2 1 9 -1 1 0.00 0.19 0.04 o
2 1 9 0 -1 0.14 0.26 0.04 o
2 1 9 0 0 2.71 3.84 0.05 o
2 1 9 0 1 2.81 2.78 0.04 o
2 1 9 1 -1 0.09 0.19 0.04 o
2 1 9 1 0 0.24 0.38 0.04 o
2 1 9 1 1 0.19 0.19 0.04 o
2 1 10 -1 -1 0.06 0.22 0.04 o
2 1 10 -1 0 0.02 0.22 0.04 o
2 1 10 -1 1 0.13 0.22 0.04 o
2 1 10 0 -1 6.27 5.82 0.04 o
2 1 10 0 0 5.09 4.67 0.05 o
2 1 10 0 1 1.18 1.04 0.04 o
2 1 10 1 -1 0.04 0.22 0.04 o
2 1 10 1 0 0.41 0.29 0.04 o
2 1 10 1 1 0.03 0.16 0.04 o
2 2 0 -1 1 1.42 0.90 0.08 o
2 2 0 0 1 9.86 9.01 0.09 o
2 2 0 1 1 0.80 0.66 0.06 o
2 2 1 -1 1 0.00 0.06 0.05 <
2 2 1 0 1 1.41 1.55 0.05 o
2 2 1 1 1 0.43 0.42 0.04 o
2 2 2 -1 1 0.34 0.23 0.04 o
2 2 2 0 1 27.40 29.31 0.08 o
2 2 2 1 1 0.00 0.09 0.04 <
2 2 3 -1 1 0.07 0.18 0.04 o
2 2 3 0 0 302.54 285.99 0.30 o
2 2 3 0 1 1.99 1.72 0.04 o
2 2 3 1 1 0.05 0.14 0.04 o
2 2 4 -1 1 0.51 0.37 0.04 o
2 2 4 0 1 1.26 1.29 0.04 o
2 2 4 1 1 0.08 0.25 0.04 o
2 2 5 -1 1 0.03 0.14 0.03 o
2 2 5 0 1 3.50 3.76 0.04 o
2 2 5 1 1 0.69 0.71 0.04 o
2 2 6 -1 1 0.22 0.26 0.04 o
2 2 6 0 0 59.16 63.00 0.11 o
2 2 6 0 1 2.50 2.78 0.04 o
2 2 6 1 1 0.15 0.30 0.04 o
2 2 7 -1 1 0.00 0.17 0.04 o
2 2 7 0 0 187.02 206.64 0.18 o
2 2 7 0 1 0.41 0.59 0.04 o
2 2 7 1 1 0.09 0.17 0.04 o
2 2 8 -1 1 0.08 0.22 0.04 o
2 2 8 0 1 0.27 0.37 0.04 o
2 2 8 1 1 0.03 0.20 0.04 o
2 2 9 -1 1 0.00 0.14 0.04 o
2 2 9 0 0 529.52 553.15 0.28 o
2 2 9 0 1 0.01 0.17 0.04 o
2 2 9 1 1 0.17 0.19 0.04 o
2 2 10 -1 1 0.11 0.22 0.04 o
2 2 10 0 0 9.13 8.97 0.08 o
2 2 10 0 1 0.20 0.40 0.04 o
2 2 10 1 1 0.15 0.13 0.07 <
3 0 0 0 1 1.24 1.78 0.09 o
3 0 0 1 0 8.35 9.33 0.10 o
3 0 0 1 1 0.57 0.33 0.08 o
3 0 1 -1 1 0.02 0.15 0.08 <
3 0 1 0 1 9.74 8.14 0.08 o
3 0 1 1 -1 0.04 0.06 0.07 <
3 0 1 1 0 2.00 2.33 0.06 o
3 0 1 1 1 0.03 0.04 0.04 <
3 0 2 0 1 86.81 83.25 0.14 o
3 0 2 1 0 60.04 64.21 0.12 o
3 0 2 1 1 0.25 0.39 0.04 o
3 0 3 -1 1 0.05 0.20 0.05 o
3 0 3 0 1 19.17 18.97 0.06 o
3 0 3 1 -1 0.32 0.29 0.06 o
3 0 3 1 0 8.15 8.06 0.05 o
3 0 3 1 1 0.32 0.39 0.04 o
3 0 4 0 1 0.30 0.57 0.04 o
3 0 4 1 0 0.03 0.21 0.04 o
3 0 4 1 1 0.13 0.28 0.04 o
3 0 5 -1 1 0.01 0.21 0.05 o
3 0 5 0 1 0.41 0.59 0.04 o
3 0 5 1 -1 0.28 0.23 0.06 o
3 0 5 1 0 10.74 11.05 0.05 o
3 0 5 1 1 0.01 0.19 0.04 o
3 0 6 0 1 23.79 22.88 0.06 o
3 0 6 1 0 4.96 5.12 0.04 o
3 0 6 1 1 0.00 0.21 0.04 o
3 0 7 -1 1 0.04 0.17 0.05 o
3 0 7 0 1 9.69 9.48 0.05 o
3 0 7 1 -1 0.11 0.27 0.05 o
3 0 7 1 0 6.67 6.84 0.04 o
3 0 7 1 1 0.13 0.23 0.04 o
3 0 8 0 1 0.02 0.22 0.04 o
3 0 8 1 0 2.94 3.45 0.04 o
3 0 8 1 1 0.01 0.17 0.04 o
3 0 9 -1 1 0.10 0.24 0.05 o
3 0 9 0 0 78.07 84.69 0.12 o
3 0 9 0 1 0.60 0.55 0.04 o
3 0 9 1 -1 0.03 0.17 0.05 o
3 0 9 1 0 5.19 5.00 0.04 o
3 0 9 1 1 0.00 0.09 0.04 <
3 0 10 0 1 6.97 6.08 0.05 o
3 0 10 1 0 0.01 0.63 0.16 o
3 0 10 1 1 0.01 0.14 0.04 o
3 1 0 -1 -1 0.05 0.10 0.07 <
3 1 0 -1 0 26.93 25.39 0.14 o
3 1 0 -1 1 0.05 0.14 0.08 <
3 1 0 0 -1 2.39 1.79 0.07 o
3 1 0 0 1 19.20 19.40 0.11 o
3 1 0 1 -1 1.73 1.81 0.07 o
3 1 0 1 0 52.21 56.32 0.16 o
3 1 0 1 1 0.31 0.29 0.06 o
3 1 1 -1 -1 1.36 0.99 0.05 o
3 1 1 -1 0 0.60 0.64 0.05 o
3 1 1 -1 1 1.27 0.94 0.05 o
3 1 1 0 -1 23.84 23.63 0.08 o
3 1 1 0 1 56.74 52.42 0.11 o
3 1 1 1 -1 0.25 0.29 0.04 o
3 1 1 1 0 2.44 2.13 0.04 o
3 1 1 1 1 0.45 0.40 0.05 o
3 1 2 -1 -1 0.88 0.84 0.04 o
3 1 2 -1 0 6.32 5.93 0.05 o
3 1 2 -1 1 0.45 0.46 0.04 o
3 1 2 0 -1 0.86 0.88 0.05 o
3 1 2 0 1 20.83 17.91 0.07 o
3 1 2 1 -1 0.61 0.60 0.04 o
3 1 2 1 0 35.01 32.80 0.10 o
3 1 2 1 1 0.52 0.48 0.04 o
3 1 3 -1 -1 2.50 2.21 0.04 o
3 1 3 -1 0 6.52 6.32 0.05 o
3 1 3 -1 1 1.93 1.60 0.04 o
3 1 3 0 -1 2.34 2.08 0.04 o
3 1 3 0 0 374.10 391.76 0.31 o
3 1 3 0 1 5.45 4.95 0.05 o
3 1 3 1 -1 1.54 1.49 0.05 o
3 1 3 1 0 1.88 1.81 0.04 o
3 1 3 1 1 1.21 1.06 0.04 o
3 1 4 -1 -1 0.00 0.14 0.04 o
3 1 4 -1 0 5.39 5.76 0.04 o
3 1 4 -1 1 0.05 0.09 0.03 <
3 1 4 0 -1 0.03 0.14 0.04 o
3 1 4 0 1 0.85 1.22 0.04 o
3 1 4 1 -1 1.05 0.93 0.04 o
3 1 4 1 0 23.47 24.97 0.06 o
3 1 4 1 1 0.19 0.29 0.04 o
3 1 5 -1 -1 0.17 0.24 0.04 o
3 1 5 -1 0 5.51 5.88 0.04 o
3 1 5 -1 1 0.21 0.23 0.04 o
3 1 5 0 -1 36.06 35.88 0.07 o
3 1 5 0 1 45.15 45.74 0.08 o
3 1 5 1 -1 0.04 0.16 0.04 o
3 1 5 1 0 0.43 0.59 0.04 o
3 1 5 1 1 0.00 0.09 0.04 <
3 1 6 -1 -1 0.09 0.22 0.04 o
3 1 6 -1 0 0.02 0.19 0.04 o
3 1 6 -1 1 0.14 0.21 0.04 o
3 1 6 0 -1 2.50 2.43 0.04 o
3 1 6 0 1 0.03 0.24 0.04 o
3 1 6 1 -1 0.09 0.20 0.04 o
3 1 6 1 0 9.66 9.32 0.05 o
3 1 6 1 1 0.19 0.21 0.04 o
3 1 7 -1 -1 0.78 0.86 0.04 o
3 1 7 -1 0 4.55 4.63 0.04 o
3 1 7 -1 1 0.62 0.49 0.04 o
3 1 7 0 -1 2.97 2.88 0.04 o
3 1 7 0 0 112.19 111.53 0.09 o
3 1 7 0 1 0.43 0.58 0.04 o
3 1 7 1 -1 0.91 0.97 0.04 o
3 1 7 1 0 2.83 2.90 0.04 o
3 1 7 1 1 0.77 0.69 0.04 o
3 1 8 -1 -1 0.08 0.15 0.04 o
3 1 8 -1 0 0.02 0.23 0.04 o
3 1 8 -1 1 0.04 0.19 0.04 o
3 1 8 0 -1 1.00 0.98 0.04 o
3 1 8 0 1 3.18 3.00 0.04 o
3 1 8 1 -1 0.43 0.63 0.04 o
3 1 8 1 0 5.64 5.64 0.04 o
3 1 8 1 1 0.10 0.26 0.04 o
3 1 9 -1 -1 0.10 0.22 0.04 o
3 1 9 -1 0 1.59 1.69 0.04 o
3 1 9 -1 1 0.11 0.15 0.04 o
3 1 9 0 -1 5.97 5.91 0.04 o
3 1 9 0 0 363.09 376.43 0.17 o
3 1 9 0 1 9.11 8.73 0.05 o
3 1 9 1 -1 0.05 0.19 0.04 o
3 1 9 1 0 0.88 0.83 0.04 o
3 1 9 1 1 0.03 0.18 0.04 o
3 1 10 -1 -1 0.01 0.28 0.04 o
3 1 10 -1 0 0.67 0.65 0.04 o
3 1 10 -1 1 0.07 0.22 0.04 o
3 1 10 0 0 275.40 287.79 0.16 o
3 1 10 0 1 0.64 0.74 0.04 o
3 2 0 -1 -1 0.03 0.13 0.06 <
3 2 0 -1 0 10.47 7.97 0.08 o
3 2 0 -1 1 1.49 1.11 0.06 o
3 2 0 0 -1 93.31 87.10 0.20 o
3 2 0 0 1 20.53 22.39 0.10 o
3 2 0 1 -1 2.09 1.72 0.06 o
3 2 0 1 0 21.49 20.94 0.10 o
3 2 0 1 1 1.97 1.72 0.06 o
3 2 1 -1 -1 0.03 0.08 0.04 <
3 2 1 -1 0 8.82 7.78 0.06 o
3 2 1 -1 1 0.25 0.24 0.04 o
3 2 1 0 -1 53.91 48.57 0.12 o
3 2 1 0 0 111.65 105.56 0.15 o
3 2 1 0 1 10.75 10.19 0.06 o
3 2 1 1 -1 0.01 0.07 0.04 <
3 2 1 1 0 38.33 34.20 0.08 o
3 2 1 1 1 0.06 0.12 0.04 o
3 2 2 -1 -1 4.80 4.34 0.05 o
3 2 2 -1 0 74.86 75.41 0.12 o
3 2 2 -1 1 0.19 0.21 0.04 o
3 2 2 0 -1 7.29 7.92 0.06 o
3 2 2 0 1 73.84 76.84 0.12 o
3 2 2 1 -1 1.65 1.47 0.05 o
3 2 2 1 0 42.70 43.59 0.09 o
3 2 2 1 1 1.10 0.83 0.04 o
3 2 3 -1 -1 0.22 0.22 0.04 o
3 2 3 -1 0 41.91 42.42 0.08 o
3 2 3 -1 1 0.28 0.31 0.04 o
3 2 3 0 -1 64.66 64.18 0.10 o
3 2 3 0 0 204.60 200.55 0.16 o
3 2 3 0 1 1.33 1.16 0.04 o
3 2 3 1 -1 0.00 0.17 0.04 o
3 2 3 1 0 29.96 27.88 0.07 o
3 2 3 1 1 0.00 0.12 0.04 o
3 2 4 -1 -1 0.06 0.25 0.04 o
3 2 4 -1 0 7.37 7.73 0.05 o
3 2 4 -1 1 0.77 0.68 0.04 o
3 2 4 0 -1 24.12 23.37 0.06 o
3 2 4 0 0 23.90 22.03 0.07 o
3 2 4 0 1 15.23 15.71 0.06 o
3 2 4 1 -1 0.78 0.84 0.04 o
3 2 4 1 0 17.16 17.69 0.06 o
3 2 4 1 1 0.75 0.72 0.04 o
3 2 5 -1 -1 0.18 0.20 0.04 o
3 2 5 -1 0 0.27 0.39 0.04 o
3 2 5 -1 1 0.05 0.23 0.04 o
3 2 5 0 -1 13.44 12.88 0.05 o
3 2 5 0 0 13.83 16.71 0.06 o
3 2 5 0 1 8.58 9.02 0.05 o
3 2 5 1 -1 0.00 0.14 0.04 o
3 2 5 1 0 16.96 16.74 0.06 o
3 2 5 1 1 0.05 0.14 0.04 o
3 2 6 -1 -1 0.72 0.90 0.04 o
3 2 6 -1 0 18.60 18.76 0.06 o
3 2 6 -1 1 0.07 0.20 0.04 o
3 2 6 0 -1 17.41 16.82 0.05 o
3 2 6 0 1 35.08 35.81 0.07 o
3 2 6 1 -1 1.00 1.01 0.04 o
3 2 6 1 0 27.43 29.07 0.06 o
3 2 6 1 1 0.69 0.57 0.04 o
3 2 7 -1 -1 0.15 0.23 0.04 o
3 2 7 -1 0 21.50 22.55 0.06 o
3 2 7 -1 1 0.12 0.19 0.04 o
3 2 7 0 -1 19.59 20.80 0.05 o
3 2 7 0 0 101.67 104.62 0.09 o
3 2 7 0 1 0.64 0.61 0.04 o
3 2 7 1 -1 0.02 0.21 0.04 o
3 2 7 1 0 7.63 7.59 0.05 o
3 2 7 1 1 0.04 0.15 0.04 o
3 2 8 -1 -1 0.22 0.22 0.04 o
3 2 8 -1 0 3.09 3.26 0.04 o
3 2 8 -1 1 0.28 0.45 0.04 o
3 2 8 0 -1 0.37 0.49 0.04 o
3 2 8 0 0 628.76 653.08 0.21 o
3 2 8 0 1 8.29 8.04 0.05 o
3 2 8 1 -1 0.06 0.12 0.04 o
3 2 8 1 0 9.55 9.87 0.05 o
3 2 8 1 1 0.12 0.21 0.04 o
3 2 9 -1 -1 0.03 0.16 0.04 o
3 2 9 -1 0 0.17 0.27 0.04 o
3 2 9 -1 1 0.00 0.12 0.04 o
3 2 9 0 -1 7.84 7.57 0.05 o
3 2 9 0 0 4.15 4.54 0.05 o
3 2 9 0 1 0.93 0.98 0.04 o
3 2 9 1 -1 0.01 0.15 0.04 o
3 2 9 1 0 10.74 9.94 0.05 o
3 2 9 1 1 0.00 0.14 0.04 o
3 2 10 -1 0 3.86 3.86 0.05 o
3 2 10 -1 1 0.01 0.20 0.04 o
3 3 0 -1 1 0.11 0.21 0.05 o
3 3 0 0 1 2.79 3.74 0.06 o
3 3 0 1 1 1.01 0.97 0.06 o
3 3 1 -1 1 0.10 0.19 0.04 o
3 3 1 0 0 13.81 13.66 0.09 o
3 3 1 0 1 24.82 24.98 0.07 o
3 3 1 1 1 0.00 0.11 0.04 <
3 3 2 -1 1 0.68 0.65 0.04 o
3 3 2 0 1 0.01 0.18 0.04 o
3 3 2 1 1 0.20 0.23 0.04 o
3 3 3 -1 1 0.04 0.14 0.04 o
3 3 3 0 1 2.59 2.69 0.05 o
3 3 3 1 1 0.04 0.16 0.04 o
3 3 4 -1 1 0.04 0.18 0.04 o
3 3 4 0 0 173.31 179.98 0.20 o
3 3 4 0 1 1.75 1.48 0.04 o
3 3 4 1 1 0.67 0.71 0.04 o
3 3 5 -1 1 0.09 0.23 0.04 o
3 3 5 0 1 40.53 40.48 0.08 o
3 3 5 1 1 0.03 0.27 0.04 o
3 3 6 -1 1 0.23 0.29 0.04 o
3 3 6 0 1 0.00 0.22 0.04 o
3 3 6 1 1 0.13 0.20 0.04 o
3 3 7 -1 1 0.00 0.17 0.04 o
3 3 7 0 1 5.00 5.27 0.04 o
3 3 7 1 1 0.02 0.19 0.04 o
3 3 8 -1 1 0.00 0.21 0.04 o
3 3 8 0 0 264.59 273.21 0.21 o
3 3 8 0 1 0.93 0.89 0.04 o
3 3 8 1 1 0.29 0.30 0.04 o
3 3 9 -1 1 0.08 0.14 0.04 o
3 3 9 0 0 11.82 11.31 0.08 o
3 3 9 0 1 9.49 8.97 0.05 o
3 3 9 1 1 0.00 0.18 0.04 o
4 0 0 -1 1 11.18 9.38 0.13 o
4 0 0 0 1 65.74 64.84 0.19 o
4 0 0 1 -1 3.13 2.81 0.10 o
4 0 0 1 0 0.01 0.06 0.06 <
4 0 0 1 1 5.36 4.80 0.08 o
4 0 1 0 1 46.52 45.72 0.12 o
4 0 1 1 0 52.80 48.03 0.11 o
4 0 1 1 1 0.27 0.26 0.04 o
4 0 2 -1 1 0.18 0.46 0.06 o
4 0 2 0 1 0.04 0.22 0.04 o
4 0 2 1 -1 0.64 0.69 0.07 o
4 0 2 1 0 18.26 17.94 0.09 o
4 0 2 1 1 1.83 1.60 0.04 o
4 0 3 0 1 40.72 40.85 0.09 o
4 0 3 1 0 7.42 7.08 0.05 o
4 0 3 1 1 0.08 0.40 0.04 o
4 0 4 -1 1 3.33 3.02 0.06 o
4 0 4 0 1 12.42 12.63 0.05 o
4 0 4 1 -1 3.16 2.78 0.07 o
4 0 4 1 0 3.18 3.22 0.05 o
4 0 4 1 1 2.47 2.38 0.04 o
4 0 5 0 1 15.83 15.69 0.06 o
4 0 5 1 0 49.52 49.46 0.08 o
4 0 5 1 1 0.13 0.24 0.04 o
4 0 6 -1 1 0.19 0.24 0.06 o
4 0 6 0 1 8.59 8.62 0.05 o
4 0 6 1 -1 0.01 0.24 0.05 o
4 0 6 1 0 0.20 0.31 0.04 o
4 0 6 1 1 0.92 0.99 0.04 o
4 0 7 0 1 10.63 11.10 0.05 o
4 0 7 1 0 1.38 1.45 0.04 o
4 0 7 1 1 0.06 0.19 0.04 o
4 0 8 -1 1 0.26 0.29 0.05 o
4 0 8 0 1 0.28 0.36 0.04 o
4 0 8 1 -1 2.39 2.14 0.06 o
4 0 8 1 0 9.40 9.09 0.05 o
4 0 8 1 1 0.57 0.69 0.04 o
4 0 9 0 1 8.47 7.92 0.05 o
4 0 9 1 0 15.07 14.30 0.05 o
4 0 9 1 1 0.00 0.05 0.04 <
4 1 0 -1 -1 1.16 0.83 0.07 o
4 1 0 -1 0 125.70 140.88 0.26 o
4 1 0 -1 1 1.96 1.68 0.07 o
4 1 0 0 -1 0.82 1.14 0.06 o
4 1 0 0 1 34.78 33.85 0.13 o
4 1 0 1 -1 0.27 0.49 0.06 o
4 1 0 1 0 126.79 134.20 0.23 o
4 1 0 1 1 2.12 1.96 0.06 o
4 1 1 -1 -1 0.08 0.12 0.05 <
4 1 1 -1 0 14.49 15.02 0.07 o
4 1 1 -1 1 0.00 0.09 0.04 <
4 1 1 0 -1 2.64 2.85 0.05 o
4 1 1 0 0 125.14 146.71 0.16 o
4 1 1 0 1 3.36 3.14 0.04 o
4 1 1 1 -1 0.03 0.10 0.04 <
4 1 1 1 0 6.46 5.82 0.05 o
4 1 1 1 1 0.04 0.20 0.04 o
4 1 2 -1 -1 1.70 1.52 0.05 o
4 1 2 -1 0 54.18 54.59 0.10 o
4 1 2 -1 1 1.09 1.23 0.04 o
4 1 2 0 -1 0.40 0.42 0.04 o
4 1 2 0 0 413.88 366.16 0.27 o
4 1 2 0 1 1.73 2.41 0.04 o
4 1 2 1 -1 0.31 0.36 0.04 o
4 1 2 1 0 35.26 36.21 0.08 o
4 1 2 1 1 0.34 0.36 0.04 o
4 1 3 -1 -1 0.08 0.18 0.04 o
4 1 3 -1 0 5.29 5.45 0.05 o
4 1 3 -1 1 0.09 0.14 0.04 o
4 1 3 0 -1 11.30 11.26 0.06 o
4 1 3 0 1 2.99 2.98 0.05 o
4 1 3 1 -1 0.18 0.24 0.06 o
4 1 3 1 0 0.06 0.22 0.05 o
4 1 3 1 1 0.28 0.26 0.04 o
4 1 4 -1 -1 0.38 0.37 0.04 o
4 1 4 -1 0 77.91 83.56 0.10 o
4 1 4 -1 1 0.92 0.91 0.04 o
4 1 4 0 -1 1.28 1.34 0.04 o
4 1 4 0 1 22.62 23.51 0.06 o
4 1 4 1 -1 0.02 0.17 0.04 o
4 1 4 1 0 60.28 64.09 0.10 o
4 1 4 1 1 0.73 0.80 0.04 o
4 1 5 -1 -1 0.26 0.38 0.04 o
4 1 5 -1 0 30.13 31.52 0.07 o
4 1 5 -1 1 0.02 0.16 0.04 o
4 1 5 0 -1 13.16 13.67 0.06 o
4 1 5 0 1 7.72 7.18 0.05 o
4 1 5 1 -1 0.00 0.12 0.04 o
4 1 5 1 0 9.45 9.32 0.05 o
4 1 5 1 1 0.36 0.48 0.04 o
4 1 6 -1 -1 1.06 1.28 0.04 o
4 1 6 -1 0 31.52 32.41 0.07 o
4 1 6 -1 1 0.35 0.55 0.04 o
4 1 6 0 -1 4.57 5.58 0.04 o
4 1 6 0 0 488.40 501.51 0.22 o
4 1 6 0 1 2.76 3.23 0.04 o
4 1 6 1 -1 0.00 0.12 0.04 o
4 1 6 1 0 9.34 10.86 0.05 o
4 1 6 1 1 0.00 0.15 0.04 o
4 1 7 -1 -1 0.22 0.22 0.03 o
4 1 7 -1 0 4.85 5.10 0.04 o
4 1 7 -1 1 0.01 0.22 0.04 o
4 1 7 0 -1 4.95 5.19 0.04 o
4 1 7 0 1 1.20 1.32 0.04 o
4 1 7 1 -1 0.17 0.25 0.04 o
4 1 7 1 0 1.02 1.23 0.04 o
4 1 7 1 1 0.34 0.35 0.04 o
4 1 8 -1 -1 0.03 0.20 0.04 o
4 1 8 -1 0 35.20 37.84 0.07 o
4 1 8 -1 1 0.25 0.33 0.04 o
4 1 8 0 -1 6.66 6.55 0.04 o
4 1 8 0 1 10.05 10.68 0.05 o
4 1 8 1 -1 0.01 0.10 0.04 <
4 1 8 1 0 15.47 15.79 0.05 o
4 1 8 1 1 0.07 0.18 0.04 o
4 1 9 -1 -1 0.24 0.28 0.04 o
4 1 9 -1 0 5.30 5.30 0.04 o
4 1 9 -1 1 0.02 0.20 0.04 o
4 1 9 0 -1 0.59 0.55 0.04 o
4 1 9 0 0 25.39 29.60 0.07 o
4 1 9 0 1 0.20 0.33 0.04 o
4 1 9 1 -1 0.01 0.21 0.04 o
4 1 9 1 0 3.72 3.59 0.04 o
4 1 9 1 1 0.20 0.28 0.04 o
4 2 0 -1 -1 0.08 0.14 0.06 <
4 2 0 -1 0 0.31 0.42 0.05 o
4 2 0 -1 1 1.06 0.92 0.06 o
4 2 0 0 -1 18.53 17.68 0.10 o
4 2 0 0 1 55.75 51.87 0.14 o
4 2 0 1 -1 0.28 0.21 0.06 o
4 2 0 1 0 50.99 49.03 0.14 o
4 2 0 1 1 1.34 1.23 0.05 o
4 2 1 -1 -1 0.45 0.40 0.04 o
4 2 1 -1 0 0.04 0.14 0.04 o
4 2 1 -1 1 1.87 1.68 0.04 o
4 2 1 0 -1 49.48 45.78 0.09 o
4 2 1 0 0 18.67 16.55 0.08 o
4 2 1 0 1 4.43 3.74 0.05 o
4 2 1 1 -1 2.27 1.96 0.04 o
4 2 1 1 0 67.35 63.23 0.12 o
4 2 1 1 1 1.89 1.63 0.04 o
4 2 2 -1 -1 3.02 2.56 0.04 o
4 2 2 -1 0 0.15 0.30 0.04 o
4 2 2 -1 1 0.03 0.13 0.04 o
4 2 2 0 -1 0.29 0.44 0.04 o
4 2 2 0 1 6.84 5.79 0.05 o
4 2 2 1 -1 0.58 0.60 0.04 o
4 2 2 1 0 17.06 17.87 0.06 o
4 2 2 1 1 0.97 0.86 0.05 o
4 2 3 -1 -1 0.29 0.24 0.05 o
4 2 3 -1 0 0.06 0.15 0.04 o
4 2 3 -1 1 0.89 0.82 0.04 o
4 2 3 0 -1 34.06 34.10 0.09 o
4 2 3 0 0 61.82 56.11 0.10 o
4 2 3 0 1 7.53 7.45 0.05 o
4 2 3 1 -1 0.00 0.13 0.04 o
4 2 3 1 0 0.67 0.63 0.05 o
4 2 3 1 1 0.25 0.31 0.04 o
4 2 4 -1 -1 0.07 0.13 0.04 o
4 2 4 -1 0 0.42 0.53 0.04 o
4 2 4 -1 1 0.49 0.48 0.04 o
4 2 4 0 -1 7.02 7.14 0.05 o
4 2 4 0 1 28.95 27.99 0.07 o
4 2 4 1 -1 0.12 0.21 0.05 o
4 2 4 1 0 9.63 9.58 0.06 o
4 2 4 1 1 0.77 0.79 0.04 o
4 2 5 -1 -1 0.25 0.32 0.04 o
4 2 5 -1 0 0.00 0.16 0.04 o
4 2 5 -1 1 1.11 1.20 0.04 o
4 2 5 0 -1 26.56 26.46 0.07 o
4 2 5 0 0 3.97 3.20 0.05 o
4 2 5 0 1 0.92 0.97 0.04 o
4 2 5 1 -1 3.18 2.90 0.05 o
4 2 5 1 0 85.02 86.08 0.10 o
4 2 5 1 1 1.83 1.72 0.05 o
4 2 6 -1 -1 0.99 1.12 0.04 o
4 2 6 -1 0 0.08 0.23 0.04 o
4 2 6 -1 1 0.04 0.21 0.04 o
4 2 6 0 -1 1.78 2.03 0.04 o
4 2 6 0 1 3.31 3.54 0.04 o
4 2 6 1 -1 0.25 0.38 0.04 o
4 2 6 1 0 0.13 0.30 0.04 o
4 2 6 1 1 0.33 0.40 0.04 o
4 2 7 -1 -1 0.09 0.15 0.04 o
4 2 7 -1 0 0.03 0.17 0.04 o
4 2 7 -1 1 0.08 0.22 0.04 o
4 2 7 0 -1 7.87 8.00 0.05 o
4 2 7 0 0 20.99 20.22 0.06 o
4 2 7 0 1 3.76 4.09 0.04 o
4 2 7 1 -1 0.06 0.17 0.04 o
4 2 7 1 0 0.18 0.41 0.04 o
4 2 7 1 1 0.01 0.21 0.04 o
4 2 8 -1 -1 0.02 0.13 0.04 o
4 2 8 -1 0 0.62 0.63 0.04 o
4 2 8 -1 1 0.14 0.21 0.04 o
4 2 8 0 -1 1.06 1.05 0.04 o
4 2 8 0 1 7.72 6.98 0.05 o
4 2 8 1 -1 0.02 0.19 0.04 o
4 2 8 1 0 0.46 0.48 0.04 o
4 2 8 1 1 0.32 0.43 0.04 o
4 2 9 -1 -1 0.17 0.20 0.04 o
4 2 9 -1 0 0.40 0.39 0.04 o
4 2 9 -1 1 0.69 0.68 0.04 o
4 2 9 0 -1 16.26 15.05 0.05 o
4 2 9 0 0 4.19 4.46 0.05 o
4 2 9 0 1 0.55 0.61 0.04 o
4 2 9 1 -1 0.94 0.86 0.04 o
4 2 9 1 0 21.59 20.67 0.06 o
4 2 9 1 1 0.79 0.70 0.04 o
4 3 0 -1 -1 0.40 0.50 0.05 o
4 3 0 -1 0 0.85 0.65 0.05 o
4 3 0 -1 1 0.70 0.78 0.05 o
4 3 0 0 -1 24.60 25.41 0.10 o
4 3 0 0 0 203.67 208.41 0.23 o
4 3 0 0 1 72.48 72.99 0.15 o
4 3 0 1 -1 1.38 1.13 0.06 o
4 3 0 1 0 57.30 60.83 0.13 o
4 3 0 1 1 0.05 0.09 0.06 <
4 3 1 -1 -1 1.41 1.24 0.04 o
4 3 1 -1 0 5.89 5.69 0.05 o
4 3 1 -1 1 0.64 0.60 0.04 o
4 3 1 0 -1 40.46 39.40 0.09 o
4 3 1 0 0 373.55 349.27 0.26 o
4 3 1 0 1 15.20 14.83 0.06 o
4 3 1 1 -1 0.77 0.92 0.04 o
4 3 1 1 0 29.97 28.49 0.07 o
4 3 1 1 1 0.04 0.19 0.04 o
4 3 2 -1 -1 0.02 0.16 0.05 o
4 3 2 -1 0 27.13 26.60 0.08 o
4 3 2 -1 1 0.94 1.06 0.04 o
4 3 2 0 -1 46.24 47.06 0.10 o
4 3 2 0 0 156.58 147.66 0.15 o
4 3 2 0 1 9.72 10.48 0.06 o
4 3 2 1 -1 0.01 0.14 0.05 <
4 3 2 1 0 6.38 6.22 0.05 o
4 3 2 1 1 0.23 0.31 0.04 o
4 3 3 -1 -1 0.40 0.46 0.04 o
4 3 3 -1 0 7.85 7.87 0.05 o
4 3 3 -1 1 0.13 0.23 0.04 o
4 3 3 0 -1 0.80 0.94 0.05 o
4 3 3 0 1 60.59 60.84 0.10 o
4 3 3 1 -1 0.62 0.52 0.05 o
4 3 3 1 0 27.48 27.85 0.07 o
4 3 3 1 1 2.45 2.27 0.05 o
4 3 4 -1 -1 0.08 0.23 0.04 o
4 3 4 -1 0 0.22 0.49 0.04 o
4 3 4 -1 1 0.56 0.66 0.04 o
4 3 4 0 -1 9.07 9.62 0.06 o
4 3 4 0 0 154.85 152.78 0.13 o
4 3 4 0 1 23.76 24.53 0.07 o
4 3 4 1 -1 0.51 0.59 0.05 o
4 3 4 1 0 25.55 27.32 0.07 o
4 3 4 1 1 0.00 0.17 0.04 o
4 3 5 -1 -1 0.94 1.01 0.04 o
4 3 5 -1 0 1.64 1.75 0.04 o
4 3 5 -1 1 0.65 0.56 0.04 o
4 3 5 0 -1 65.92 66.49 0.09 o
4 3 5 0 0 50.14 50.83 0.08 o
4 3 5 0 1 0.08 0.35 0.04 o
4 3 5 1 -1 0.30 0.47 0.04 o
4 3 5 1 0 15.72 16.03 0.06 o
4 3 5 1 1 0.46 0.39 0.04 o
4 3 6 -1 -1 0.14 0.25 0.04 o
4 3 6 -1 0 24.80 25.37 0.06 o
4 3 6 -1 1 0.22 0.38 0.04 o
4 3 6 0 -1 9.29 9.62 0.05 o
4 3 6 0 0 42.58 45.78 0.07 o
4 3 6 0 1 0.07 0.27 0.04 o
4 3 6 1 -1 0.06 0.22 0.04 o
4 3 6 1 0 0.22 0.42 0.04 o
4 3 6 1 1 0.01 0.17 0.04 o
4 3 7 -1 -1 0.24 0.37 0.04 o
4 3 7 -1 0 2.97 3.34 0.04 o
4 3 7 -1 1 0.02 0.15 0.04 o
4 3 7 0 -1 2.69 2.75 0.04 o
4 3 7 0 1 28.94 29.88 0.06 o
4 3 7 1 -1 0.41 0.28 0.04 o
4 3 7 1 0 6.48 6.97 0.05 o
4 3 7 1 1 1.60 1.54 0.04 o
4 3 8 -1 -1 0.00 0.14 0.04 o
4 3 8 -1 0 2.66 2.67 0.04 o
4 3 8 -1 1 0.37 0.38 0.04 o
4 3 8 0 -1 0.70 0.76 0.04 o
4 3 8 0 0 88.37 82.38 0.09 o
4 3 8 0 1 1.14 1.11 0.04 o
4 3 8 1 -1 0.03 0.14 0.04 o
4 3 8 1 0 5.59 5.41 0.04 o
4 3 8 1 1 0.07 0.24 0.04 o
4 3 9 -1 -1 0.12 0.26 0.04 o
4 3 9 -1 0 1.30 1.09 0.04 o
4 3 9 -1 1 0.33 0.24 0.04 o
4 3 9 0 -1 15.95 14.53 0.06 o
4 3 9 0 0 203.51 202.63 0.13 o
4 3 9 0 1 1.36 1.11 0.04 o
4 3 9 1 -1 0.01 0.11 0.04 <
4 3 9 1 0 13.89 12.48 0.05 o
4 3 9 1 1 0.12 0.16 0.04 o
4 4 0 -1 1 0.12 0.29 0.05 o
4 4 0 0 1 33.43 32.65 0.10 o
4 4 0 1 1 0.36 0.45 0.06 o
4 4 1 -1 1 0.03 0.13 0.04 o
4 4 1 0 0 213.95 215.26 0.22 o
4 4 1 0 1 9.45 10.05 0.05 o
4 4 1 1 1 0.01 0.13 0.04 o
4 4 2 -1 1 0.36 0.36 0.04 o
4 4 2 0 1 4.21 4.13 0.05 o
4 4 2 1 1 0.64 0.69 0.04 o
4 4 3 -1 1 0.15 0.24 0.04 o
4 4 3 0 0 74.00 76.84 0.14 o
4 4 3 0 1 6.90 6.52 0.05 o
4 4 3 1 1 0.17 0.25 0.04 o
4 4 4 -1 1 0.07 0.14 0.04 o
4 4 4 0 1 3.64 4.46 0.05 o
4 4 4 1 1 0.07 0.26 0.04 o
4 4 5 -1 1 0.01 0.19 0.04 o
4 4 5 0 0 183.22 194.67 0.20 o
4 4 5 0 1 3.21 4.06 0.05 o
4 4 5 1 1 0.02 0.11 0.04 <
4 4 6 -1 1 0.20 0.26 0.04 o
4 4 6 0 0 79.22 70.58 0.12 o
4 4 6 0 1 3.93 3.83 0.04 o
4 4 6 1 1 0.08 0.20 0.04 o
4 4 7 -1 1 0.13 0.20 0.04 o
4 4 7 0 0 16.86 17.81 0.09 o
4 4 7 0 1 6.04 6.42 0.05 o
4 4 7 1 1 0.12 0.21 0.04 o
4 4 8 -1 1 0.01 0.20 0.04 o
4 4 8 0 0 271.23 262.55 0.21 o
4 4 8 0 1 2.76 2.59 0.04 o
4 4 8 1 1 0.01 0.18 0.04 o
4 4 9 -1 1 0.02 0.13 0.04 o
4 4 9 0 0 92.29 94.31 0.14 o
4 4 9 0 1 0.25 0.24 0.04 o
5 0 0 0 1 151.43 149.45 0.25 o
5 0 0 1 0 8.47 7.45 0.08 o
5 0 0 1 1 0.00 0.09 0.06 <
5 0 1 -1 1 2.65 2.06 0.07 o
5 0 1 0 0 11.02 7.21 0.09 o
5 0 1 0 1 13.61 12.71 0.07 o
5 0 1 1 -1 2.24 2.10 0.07 o
5 0 1 1 0 6.77 7.30 0.06 o
5 0 1 1 1 2.03 1.93 0.05 o
5 0 2 0 1 0.74 0.78 0.04 o
5 0 2 1 0 25.84 23.70 0.08 o
5 0 2 1 1 0.14 0.16 0.04 o
5 0 3 -1 1 3.92 3.30 0.07 o
5 0 3 0 1 16.19 15.64 0.07 o
5 0 3 1 -1 2.67 2.31 0.08 o
5 0 3 1 0 2.36 2.33 0.06 o
5 0 3 1 1 1.72 1.56 0.04 o
5 0 4 0 1 75.08 77.07 0.11 o
5 0 4 1 0 9.54 8.78 0.05 o
5 0 4 1 1 0.00 0.14 0.05 <
5 0 5 -1 1 0.47 0.52 0.06 o
5 0 5 0 0 497.36 509.62 0.32 o
5 0 5 0 1 5.11 5.41 0.05 o
5 0 5 1 -1 0.80 0.98 0.06 o
5 0 5 1 0 13.36 13.11 0.06 o
5 0 5 1 1 1.00 1.11 0.04 o
5 0 6 0 1 1.93 1.86 0.04 o
5 0 6 1 0 4.50 4.76 0.04 o
5 0 6 1 1 0.05 0.26 0.04 o
5 0 7 -1 1 2.31 1.78 0.06 o
5 0 7 0 1 4.34 4.26 0.04 o
5 0 7 1 -1 1.18 1.14 0.06 o
5 0 7 1 0 0.27 0.51 0.04 o
5 0 7 1 1 0.71 0.65 0.04 o
5 0 8 0 1 20.56 21.23 0.06 o
5 0 8 1 0 7.53 7.20 0.05 o
5 0 8 1 1 0.00 0.14 0.04 o
5 0 9 -1 1 0.04 0.08 0.05 <
5 0 9 0 0 47.19 47.09 0.11 o
5 0 9 0 1 4.82 4.36 0.05 o
5 0 9 1 -1 0.29 0.28 0.07 o
5 0 9 1 0 0.05 0.24 0.04 o
5 0 9 1 1 0.45 0.27 0.04 o
5 1 0 -1 -1 3.64 3.66 0.08 o
5 1 0 -1 0 222.79 221.37 0.31 o
5 1 0 -1 1 1.86 1.88 0.07 o
5 1 0 0 -1 118.09 123.11 0.22 o
5 1 0 0 1 0.07 0.31 0.06 o
5 1 0 1 -1 0.05 0.45 0.07 o
5 1 0 1 0 1.53 1.90 0.08 o
5 1 0 1 1 0.16 0.19 0.06 o
5 1 1 -1 -1 0.08 0.10 0.05 <
5 1 1 -1 0 0.01 0.17 0.04 o
5 1 1 -1 1 0.66 0.61 0.04 o
5 1 1 0 -1 9.29 8.80 0.06 o
5 1 1 0 1 0.64 0.78 0.04 o
5 1 1 1 -1 0.03 0.22 0.05 o
5 1 1 1 0 28.95 27.77 0.07 o
5 1 1 1 1 0.00 0.14 0.04 o
5 1 2 -1 -1 0.00 0.09 0.05 <
5 1 2 -1 0 0.41 0.77 0.04 o
5 1 2 -1 1 0.09 0.33 0.04 o
5 1 2 0 -1 10.22 10.91 0.06 o
5 1 2 0 1 1.26 1.85 0.04 o
5 1 2 1 -1 0.59 0.59 0.05 o
5 1 2 1 0 1.67 1.99 0.05 o
5 1 2 1 1 2.24 2.10 0.04 o
5 1 3 -1 -1 0.01 0.15 0.05 <
5 1 3 -1 0 3.74 3.30 0.06 o
5 1 3 -1 1 0.24 0.29 0.05 o
5 1 3 0 -1 10.78 9.91 0.06 o
5 1 3 0 0 66.40 62.32 0.09 o
5 1 3 0 1 1.73 1.71 0.04 o
5 1 3 1 -1 0.44 0.51 0.04 o
5 1 3 1 0 26.81 25.94 0.07 o
5 1 3 1 1 0.14 0.18 0.04 o
5 1 4 -1 -1 1.26 1.40 0.05 o
5 1 4 -1 0 97.68 95.98 0.11 o
5 1 4 -1 1 0.69 0.75 0.04 o
5 1 4 0 -1 41.28 40.90 0.09 o
5 1 4 0 1 0.06 0.22 0.04 o
5 1 4 1 -1 0.02 0.12 0.04 o
5 1 4 1 0 3.27 3.46 0.05 o
5 1 4 1 1 0.33 0.38 0.05 o
5 1 5 -1 -1 0.08 0.15 0.04 o
5 1 5 -1 0 0.61 0.84 0.04 o
5 1 5 -1 1 0.42 0.53 0.04 o
5 1 5 0 -1 2.26 2.49 0.05 o
5 1 5 0 1 2.87 3.08 0.05 o
5 1 5 1 -1 0.05 0.21 0.04 o
5 1 5 1 0 11.22 11.50 0.06 o
5 1 5 1 1 0.03 0.19 0.04 o
5 1 6 -1 -1 0.16 0.30 0.04 o
5 1 6 -1 0 2.11 2.09 0.04 o
5 1 6 -1 1 0.21 0.23 0.04 o
5 1 6 0 -1 0.29 0.44 0.04 o
5 1 6 0 0 365.20 393.11 0.18 o
5 1 6 0 1 0.15 0.27 0.04 o
5 1 6 1 -1 0.29 0.38 0.04 o
5 1 6 1 0 0.00 0.24 0.04 o
5 1 6 1 1 0.43 0.53 0.04 o
5 1 7 -1 -1 0.01 0.18 0.04 o
5 1 7 -1 0 1.15 1.14 0.04 o
5 1 7 -1 1 0.20 0.25 0.04 o
5 1 7 0 -1 6.48 6.54 0.05 o
5 1 7 0 0 12.72 14.49 0.06 o
5 1 7 0 1 0.54 0.63 0.04 o
5 1 7 1 -1 0.45 0.55 0.04 o
5 1 7 1 0 15.60 15.90 0.05 o
5 1 7 1 1 0.05 0.22 0.04 o
5 1 8 -1 -1 0.10 0.27 0.04 o
5 1 8 -1 0 18.30 18.26 0.05 o
5 1 8 -1 1 0.09 0.21 0.04 o
5 1 8 0 -1 3.57 3.33 0.04 o
5 1 8 0 0 145.27 149.52 0.11 o
5 1 8 0 1 0.11 0.23 0.04 o
5 1 8 1 -1 0.00 0.15 0.04 o
5 1 8 1 0 4.19 4.13 0.05 o
5 1 8 1 1 0.39 0.26 0.04 o
5 1 9 -1 -1 0.02 0.20 0.04 o
5 1 9 -1 0 0.45 0.44 0.04 o
5 1 9 -1 1 0.04 0.15 0.04 o
5 1 9 0 -1 0.03 0.20 0.04 o
5 1 9 0 0 472.15 474.16 0.19 o
5 1 9 0 1 0.09 0.15 0.04 o
5 1 9 1 -1 0.10 0.18 0.05 o
5 1 9 1 0 1.27 1.01 0.05 o
5 1 9 1 1 0.01 0.23 0.04 o
5 2 0 -1 -1 0.08 0.11 0.07 <
5 2 0 -1 0 47.82 47.94 0.14 o
5 2 0 -1 1 1.60 1.60 0.06 o
5 2 0 0 -1 3.03 2.78 0.07 o
5 2 0 0 0 319.73 338.22 0.34 o
5 2 0 0 1 133.01 133.59 0.21 o
5 2 0 1 -1 0.07 0.16 0.07 <
5 2 0 1 0 204.61 208.78 0.26 o
5 2 0 1 1 3.21 2.91 0.06 o
5 2 1 -1 -1 0.31 0.26 0.04 o
5 2 1 -1 0 16.24 15.94 0.06 o
5 2 1 -1 1 0.96 0.83 0.04 o
5 2 1 0 -1 19.05 17.98 0.06 o
5 2 1 0 1 9.26 8.87 0.07 o
5 2 1 1 -1 0.05 0.19 0.04 o
5 2 1 1 0 11.97 11.10 0.06 o
5 2 1 1 1 0.11 0.15 0.05 <
5 2 2 -1 -1 0.30 0.29 0.04 o
5 2 2 -1 0 68.17 67.44 0.10 o
5 2 2 -1 1 1.80 1.60 0.04 o
5 2 2 0 -1 4.38 4.34 0.05 o
5 2 2 0 1 0.16 0.33 0.04 o
5 2 2 1 -1 0.87 0.82 0.04 o
5 2 2 1 0 12.75 13.07 0.06 o
5 2 2 1 1 0.17 0.27 0.04 o
5 2 3 -1 -1 0.13 0.20 0.04 o
5 2 3 -1 0 0.77 0.97 0.04 o
5 2 3 -1 1 0.03 0.10 0.05 <
5 2 3 0 -1 4.58 4.45 0.05 o
5 2 3 0 1 0.24 0.53 0.04 o
5 2 3 1 -1 0.40 0.35 0.04 o
5 2 3 1 0 7.58 6.74 0.05 o
5 2 3 1 1 0.17 0.24 0.04 o
5 2 4 -1 -1 0.08 0.25 0.05 o
5 2 4 -1 0 11.43 12.12 0.06 o
5 2 4 -1 1 0.27 0.45 0.05 o
5 2 4 0 -1 2.43 2.52 0.05 o
5 2 4 0 0 75.82 69.45 0.11 o
5 2 4 0 1 43.15 42.32 0.09 o
5 2 4 1 -1 0.00 0.10 0.04 <
5 2 4 1 0 124.00 130.95 0.13 o
5 2 4 1 1 1.15 1.14 0.05 o
5 2 5 -1 -1 0.88 0.78 0.04 o
5 2 5 -1 0 18.62 19.59 0.06 o
5 2 5 -1 1 1.15 1.21 0.04 o
5 2 5 0 -1 18.69 19.18 0.07 o
5 2 5 0 1 12.72 12.34 0.06 o
5 2 5 1 -1 0.02 0.19 0.04 o
5 2 5 1 0 6.65 6.79 0.05 o
5 2 5 1 1 0.53 0.62 0.04 o
5 2 6 -1 -1 0.05 0.11 0.04 <
5 2 6 -1 0 8.91 9.81 0.05 o
5 2 6 -1 1 0.11 0.28 0.04 o
5 2 6 0 -1 3.25 3.39 0.04 o
5 2 6 0 0 12.30 13.76 0.06 o
5 2 6 0 1 9.25 9.35 0.05 o
5 2 6 1 -1 1.02 0.84 0.04 o
5 2 6 1 0 4.93 5.13 0.05 o
5 2 6 1 1 0.03 0.19 0.04 o
5 2 7 -1 -1 0.24 0.22 0.04 o
5 2 7 -1 0 0.16 0.33 0.04 o
5 2 7 -1 1 0.01 0.12 0.04 o
5 2 7 0 -1 0.50 0.61 0.04 o
5 2 7 0 0 207.80 228.48 0.14 o
5 2 7 0 1 0.71 0.68 0.04 o
5 2 7 1 -1 0.37 0.36 0.04 o
5 2 7 1 0 4.73 4.44 0.05 o
5 2 7 1 1 0.33 0.33 0.04 o
5 2 8 -1 -1 0.07 0.19 0.04 o
5 2 8 -1 0 0.02 0.18 0.04 o
5 2 8 -1 1 0.02 0.11 0.04 <
5 2 8 0 -1 1.43 1.20 0.04 o
5 2 8 0 0 903.12 931.17 0.46 o
5 2 8 0 1 1.92 2.22 0.04 o
5 2 8 1 -1 0.07 0.17 0.04 o
5 2 8 1 0 45.11 43.75 0.08 o
5 2 8 1 1 0.08 0.22 0.04 o
5 2 9 -1 -1 0.45 0.46 0.04 o
5 2 9 -1 0 3.19 3.13 0.04 o
5 2 9 -1 1 0.40 0.46 0.04 o
5 2 9 0 -1 10.21 9.78 0.05 o
5 2 9 0 0 264.59 262.95 0.16 o
5 2 9 0 1 9.95 9.23 0.05 o
5 2 9 1 0 1.07 0.63 0.11 o
5 2 9 1 1 0.35 0.38 0.04 o
5 3 0 -1 -1 14.75 13.35 0.09 o
5 3 0 -1 0 48.10 44.17 0.12 o
5 3 0 -1 1 0.28 0.32 0.05 o
5 3 0 0 -1 3.32 3.21 0.07 o
5 3 0 0 1 7.52 6.68 0.07 o
5 3 0 1 -1 1.16 1.17 0.07 o
5 3 0 1 0 4.44 4.14 0.07 o
5 3 0 1 1 1.01 1.18 0.06 o
5 3 1 -1 -1 0.30 0.23 0.06 o
5 3 1 -1 0 16.89 16.84 0.07 o
5 3 1 -1 1 0.58 0.59 0.04 o
5 3 1 0 -1 8.87 8.17 0.07 o
5 3 1 0 0 239.20 243.94 0.19 o
5 3 1 0 1 3.85 3.73 0.05 o
5 3 1 1 -1 0.28 0.50 0.05 o
5 3 1 1 0 22.60 21.51 0.07 o
5 3 1 1 1 0.00 0.14 0.04 o
5 3 2 -1 -1 0.24 0.38 0.04 o
5 3 2 -1 0 2.85 2.40 0.04 o
5 3 2 -1 1 0.63 0.58 0.05 o
5 3 2 0 -1 5.41 5.67 0.05 o
5 3 2 0 0 189.49 201.98 0.16 o
5 3 2 0 1 11.63 12.32 0.06 o
5 3 2 1 -1 0.53 0.54 0.05 o
5 3 2 1 0 12.46 12.78 0.06 o
5 3 2 1 1 2.52 2.35 0.05 o
5 3 3 -1 -1 0.11 0.27 0.05 o
5 3 3 -1 0 0.14 0.28 0.05 o
5 3 3 -1 1 1.60 1.57 0.05 o
5 3 3 0 -1 1.88 1.77 0.05 o
5 3 3 0 0 246.46 248.02 0.16 o
5 3 3 0 1 68.68 69.52 0.11 o
5 3 3 1 -1 0.01 0.13 0.04 o
5 3 3 1 0 18.34 17.86 0.06 o
5 3 3 1 1 0.00 0.15 0.05 <
5 3 4 -1 -1 8.34 8.08 0.06 o
5 3 4 -1 0 39.29 37.49 0.08 o
5 3 4 -1 1 0.20 0.27 0.04 o
5 3 4 0 -1 1.80 2.01 0.06 o
5 3 4 0 1 16.99 16.42 0.06 o
5 3 4 1 -1 0.76 0.87 0.04 o
5 3 4 1 0 0.07 0.35 0.05 o
5 3 4 1 1 0.56 0.73 0.05 o
5 3 5 -1 -1 0.77 0.75 0.04 o
5 3 5 -1 0 26.78 27.67 0.07 o
5 3 5 -1 1 0.05 0.24 0.04 o
5 3 5 0 -1 19.43 19.73 0.06 o
5 3 5 0 0 693.11 717.86 0.92 o
5 3 5 0 1 5.22 5.23 0.05 o
5 3 5 1 -1 0.35 0.54 0.04 o
5 3 5 1 0 9.83 9.64 0.05 o
5 3 5 1 1 0.02 0.15 0.04 o
5 3 6 -1 -1 0.23 0.28 0.04 o
5 3 6 -1 0 0.03 0.26 0.04 o
5 3 6 -1 1 0.20 0.29 0.04 o
5 3 6 0 -1 5.05 5.11 0.05 o
5 3 6 0 0 288.79 288.49 0.16 o
5 3 6 0 1 25.81 27.35 0.06 o
5 3 6 1 -1 0.18 0.31 0.04 o
5 3 6 1 0 0.01 0.22 0.04 o
5 3 6 1 1 1.46 1.33 0.04 o
5 3 7 -1 -1 0.14 0.24 0.04 o
5 3 7 -1 0 0.58 0.61 0.04 o
5 3 7 -1 1 0.66 0.71 0.04 o
5 3 7 0 -1 0.64 0.63 0.04 o
5 3 7 0 0 89.74 90.91 0.09 o
5 3 7 0 1 33.33 33.55 0.07 o
5 3 7 1 -1 0.00 0.14 0.04 o
5 3 7 1 0 16.16 16.68 0.06 o
5 3 7 1 1 0.01 0.14 0.04 o
5 3 8 -1 -1 2.63 2.52 0.04 o
5 3 8 -1 0 24.80 24.15 0.06 o
5 3 8 -1 1 0.10 0.21 0.04 o
5 3 8 0 -1 15.61 14.51 0.06 o
5 3 8 0 1 23.67 21.56 0.06 o
5 3 8 1 -1 0.38 0.55 0.04 o
5 3 8 1 0 4.95 4.35 0.05 o
5 3 8 1 1 0.21 0.25 0.04 o
5 3 9 -1 -1 0.21 0.24 0.04 o
5 3 9 -1 0 5.12 4.36 0.05 o
5 3 9 -1 1 0.09 0.15 0.04 o
5 3 9 0 1 0.09 0.21 0.08 <
5 4 0 -1 -1 3.47 2.91 0.06 o
5 4 0 -1 0 232.59 241.51 0.25 o
5 4 0 -1 1 2.49 2.58 0.06 o
5 4 0 0 -1 3.75 3.07 0.07 o
5 4 0 0 0 13.06 12.49 0.09 o
5 4 0 0 1 1.09 0.94 0.06 o
5 4 0 1 -1 0.03 0.17 0.06 <
5 4 0 1 0 14.76 12.05 0.08 o
5 4 0 1 1 0.35 0.50 0.06 o
5 4 1 -1 -1 0.34 0.36 0.04 o
5 4 1 -1 0 9.67 9.66 0.05 o
5 4 1 -1 1 0.03 0.12 0.04 o
5 4 1 0 -1 106.29 109.66 0.12 o
5 4 1 0 1 0.06 0.29 0.04 o
5 4 1 1 -1 0.00 0.13 0.04 o
5 4 1 1 0 15.55 15.67 0.06 o
5 4 1 1 1 0.14 0.23 0.04 o
5 4 2 -1 -1 0.03 0.22 0.05 o
5 4 2 -1 0 6.73 6.55 0.05 o
5 4 2 -1 1 0.03 0.17 0.04 o
5 4 2 0 -1 75.97 76.45 0.12 o
5 4 2 0 1 2.04 2.03 0.05 o
5 4 2 1 -1 5.08 5.40 0.06 o
5 4 2 1 0 20.37 19.24 0.07 o
5 4 2 1 1 0.13 0.23 0.04 o
5 4 3 -1 -1 0.33 0.49 0.05 o
5 4 3 -1 0 5.25 5.41 0.05 o
5 4 3 -1 1 0.03 0.14 0.04 o
5 4 3 0 -1 11.32 11.66 0.07 o
5 4 3 0 0 14.72 11.54 0.07 o
5 4 3 0 1 21.51 21.60 0.07 o
5 4 3 1 -1 0.29 0.37 0.05 o
5 4 3 1 0 56.33 61.48 0.10 o
5 4 3 1 1 0.06 0.15 0.05 <
5 4 4 -1 -1 1.53 1.47 0.05 o
5 4 4 -1 0 128.00 133.33 0.13 o
5 4 4 -1 1 1.21 1.39 0.05 o
5 4 4 0 -1 0.09 0.31 0.04 o
5 4 4 0 0 2.29 2.89 0.05 o
5 4 4 0 1 4.37 4.44 0.05 o
5 4 4 1 -1 0.17 0.22 0.04 o
5 4 4 1 0 0.38 0.37 0.04 o
5 4 4 1 1 0.38 0.54 0.04 o
5 4 5 -1 -1 0.15 0.23 0.04 o
5 4 5 -1 0 7.39 7.65 0.05 o
5 4 5 -1 1 0.00 0.16 0.04 o
5 4 5 0 -1 117.12 123.56 0.12 o
5 4 5 0 1 7.43 7.31 0.05 o
5 4 5 1 -1 0.19 0.18 0.04 o
5 4 5 1 0 0.69 0.92 0.04 o
5 4 5 1 1 0.08 0.23 0.04 o
5 4 6 -1 -1 0.04 0.16 0.04 o
5 4 6 -1 0 0.62 0.73 0.04 o
5 4 6 -1 1 0.12 0.22 0.04 o
5 4 6 0 -1 12.47 12.92 0.05 o
5 4 6 0 0 360.64 358.34 0.18 o
5 4 6 0 1 7.12 6.66 0.05 o
5 4 6 1 -1 1.57 1.60 0.04 o
5 4 6 1 0 0.38 0.47 0.04 o
5 4 6 1 1 0.00 0.27 0.04 o
5 4 7 -1 -1 0.22 0.28 0.04 o
5 4 7 -1 0 0.92 1.03 0.04 o
5 4 7 -1 1 0.03 0.19 0.04 o
5 4 7 0 -1 5.63 5.68 0.05 o
5 4 7 0 0 0.35 0.93 0.05 o
5 4 7 0 1 8.97 8.69 0.05 o
5 4 7 1 -1 0.28 0.40 0.04 o
5 4 7 1 0 30.38 30.85 0.07 o
5 4 7 1 1 0.07 0.20 0.04 o
5 4 8 -1 -1 0.30 0.46 0.04 o
5 4 8 -1 0 38.64 37.25 0.07 o
5 4 8 -1 1 0.27 0.32 0.04 o
5 4 8 0 -1 5.18 4.72 0.05 o
5 4 8 0 0 1.08 2.01 0.05 o
5 4 8 0 1 6.81 6.34 0.05 o
5 4 8 1 -1 0.38 0.31 0.04 o
5 4 8 1 0 6.92 6.36 0.05 o
5 4 8 1 1 0.24 0.29 0.04 o
5 5 0 -1 1 4.42 4.27 0.07 o
5 5 0 0 1 15.31 14.04 0.08 o
5 5 0 1 1 0.21 0.65 0.06 o
5 5 1 -1 1 1.24 1.19 0.04 o
5 5 1 0 1 21.18 20.97 0.07 o
5 5 1 1 1 0.02 0.16 0.04 o
5 5 2 -1 1 1.49 1.35 0.05 o
5 5 2 0 0 3.88 3.72 0.08 o
5 5 2 0 1 0.20 0.27 0.04 o
5 5 2 1 1 1.50 1.34 0.05 o
5 5 3 -1 1 0.68 0.81 0.05 o
5 5 3 0 0 82.74 64.47 0.13 o
5 5 3 0 1 15.07 14.85 0.06 o
5 5 3 1 1 0.32 0.29 0.04 o
5 5 4 -1 1 1.76 1.94 0.04 o
5 5 4 0 0 56.74 49.16 0.12 o
5 5 4 0 1 2.02 1.67 0.04 o
5 5 4 1 1 0.38 0.37 0.04 o
5 5 5 -1 1 0.98 0.94 0.04 o
5 5 5 0 1 12.48 12.92 0.05 o
5 5 5 1 1 0.19 0.36 0.04 o
5 5 6 -1 1 0.12 0.30 0.04 o
5 5 6 0 0 1066.03 1026.38 1.08 o
5 5 6 0 1 4.82 4.91 0.05 o
5 5 6 1 1 0.29 0.31 0.04 o
5 5 7 -1 1 0.12 0.29 0.04 o
5 5 7 0 0 84.84 75.34 0.13 o
5 5 7 0 1 6.62 5.76 0.05 o
5 5 7 1 1 0.13 0.20 0.04 o
5 5 8 -1 1 0.14 0.23 0.04 o
5 5 8 0 0 449.94 416.32 0.27 o
5 5 8 0 1 1.03 0.94 0.05 o
6 0 0 -1 1 5.12 5.00 0.11 o
6 0 0 0 1 0.02 0.19 0.07 <
6 0 0 1 -1 4.02 3.87 0.11 o
6 0 0 1 0 62.51 62.35 0.15 o
6 0 0 1 1 0.00 0.21 0.07 <
6 0 1 0 1 0.74 0.77 0.05 o
6 0 1 1 0 13.09 13.00 0.07 o
6 0 1 1 1 0.11 0.22 0.05 o
6 0 2 -1 1 0.33 0.50 0.08 o
6 0 2 0 0 195.52 202.53 0.32 o
6 0 2 0 1 1.61 1.73 0.05 o
6 0 2 1 -1 0.55 0.53 0.07 o
6 0 2 1 0 8.38 9.04 0.06 o
6 0 2 1 1 1.35 1.18 0.05 o
6 0 3 0 1 0.06 0.25 0.05 o
6 0 3 1 0 70.11 70.63 0.12 o
6 0 3 1 1 0.00 0.13 0.04 o
6 0 4 -1 1 3.44 3.41 0.07 o
6 0 4 0 1 0.11 0.26 0.05 o
6 0 4 1 -1 1.36 1.37 0.10 o
6 0 4 1 0 15.62 15.64 0.07 o
6 0 4 1 1 0.10 0.43 0.05 o
6 0 5 0 1 1.31 1.17 0.04 o
6 0 5 1 0 0.24 0.46 0.05 o
6 0 5 1 1 0.29 0.39 0.04 o
6 0 6 -1 1 0.37 0.46 0.06 o
6 0 6 0 0 4.04 4.38 0.08 o
6 0 6 0 1 1.33 1.24 0.04 o
6 0 6 1 -1 0.00 0.22 0.07 o
6 0 6 1 0 1.88 1.85 0.05 o
6 0 6 1 1 0.20 0.37 0.04 o
6 0 7 0 1 0.04 0.20 0.04 o
6 0 7 1 0 43.11 45.01 0.08 o
6 0 7 1 1 0.10 0.21 0.04 o
6 0 8 -1 1 1.48 1.28 0.06 o
6 0 8 0 1 0.26 0.30 0.04 o
6 0 8 1 -1 0.08 0.27 0.07 o
6 0 8 1 0 0.01 0.20 0.04 o
6 0 8 1 1 0.27 0.19 0.04 o
6 0 9 0 1 1.82 1.53 0.05 o
6 1 0 -1 -1 2.12 1.91 0.07 o
6 1 0 -1 0 10.31 10.73 0.09 o
6 1 0 -1 1 0.11 0.28 0.07 o
6 1 0 0 -1 140.13 147.75 0.23 o
6 1 0 0 1 34.11 35.62 0.13 o
6 1 0 1 -1 5.02 4.81 0.08 o
6 1 0 1 0 17.47 16.58 0.10 o
6 1 0 1 1 0.43 0.69 0.07 o
6 1 1 -1 -1 0.03 0.17 0.05 o
6 1 1 -1 0 3.20 2.80 0.05 o
6 1 1 -1 1 0.10 0.25 0.04 o
6 1 1 0 -1 44.71 45.11 0.10 o
6 1 1 0 0 378.21 395.31 0.25 o
6 1 1 0 1 5.19 5.18 0.05 o
6 1 1 1 -1 0.04 0.15 0.05 <
6 1 1 1 0 10.79 9.57 0.06 o
6 1 1 1 1 0.00 0.12 0.05 <
6 1 2 -1 -1 1.03 0.84 0.05 o
6 1 2 -1 0 11.62 12.79 0.06 o
6 1 2 -1 1 1.34 1.18 0.04 o
6 1 2 0 -1 1.39 1.66 0.05 o
6 1 2 0 0 47.39 49.96 0.09 o
6 1 2 0 1 58.48 59.12 0.10 o
6 1 2 1 -1 0.43 0.47 0.05 o
6 1 2 1 0 3.22 3.05 0.05 o
6 1 2 1 1 4.26 4.36 0.05 o
6 1 3 -1 -1 0.71 0.79 0.05 o
6 1 3 -1 0 0.64 0.64 0.04 o
6 1 3 -1 1 0.14 0.17 0.04 o
6 1 3 0 -1 51.50 49.93 0.09 o
6 1 3 0 0 162.47 169.54 0.15 o
6 1 3 0 1 5.34 5.17 0.05 o
6 1 3 1 -1 0.14 0.19 0.05 o
6 1 3 1 0 31.72 31.43 0.08 o
6 1 3 1 1 0.19 0.26 0.05 o
6 1 4 -1 -1 1.41 1.46 0.06 o
6 1 4 -1 0 11.91 12.47 0.08 o
6 1 4 -1 1 0.03 0.20 0.06 o
6 1 4 0 -1 71.55 75.03 0.10 o
6 1 4 0 1 4.82 4.89 0.05 o
6 1 4 1 -1 2.05 2.06 0.05 o
6 1 4 1 0 31.52 32.40 0.07 o
6 1 4 1 1 0.77 0.82 0.04 o
6 1 5 -1 -1 0.63 0.68 0.04 o
6 1 5 -1 0 3.41 3.31 0.05 o
6 1 5 -1 1 0.38 0.55 0.04 o
6 1 5 0 -1 16.16 16.91 0.07 o
6 1 5 0 0 283.80 296.71 0.19 o
6 1 5 0 1 17.93 18.12 0.06 o
6 1 5 1 -1 0.01 0.16 0.04 o
6 1 5 1 0 1.39 1.36 0.04 o
6 1 5 1 1 0.02 0.27 0.05 o
6 1 6 -1 -1 0.48 0.49 0.04 o
6 1 6 -1 0 13.56 14.45 0.05 o
6 1 6 -1 1 0.06 0.18 0.04 o
6 1 6 0 -1 5.27 5.61 0.05 o
6 1 6 0 0 804.30 861.20 0.98 o
6 1 6 0 1 3.95 3.99 0.05 o
6 1 6 1 -1 0.00 0.24 0.05 o
6 1 6 1 0 19.73 20.53 0.07 o
6 1 6 1 1 0.84 1.03 0.04 o
6 1 7 -1 -1 0.67 0.69 0.04 o
6 1 7 -1 0 0.02 0.20 0.04 o
6 1 7 -1 1 0.17 0.18 0.04 o
6 1 7 0 -1 29.32 29.50 0.07 o
6 1 7 0 0 62.45 67.56 0.09 o
6 1 7 0 1 4.19 4.01 0.05 o
6 1 7 1 -1 0.24 0.23 0.05 o
6 1 7 1 0 11.59 11.87 0.06 o
6 1 7 1 1 0.09 0.19 0.04 o
6 1 8 -1 -1 0.71 0.67 0.04 o
6 1 8 -1 0 9.77 9.26 0.05 o
6 1 8 -1 1 0.33 0.30 0.04 o
6 1 8 0 -1 18.04 17.52 0.06 o
6 1 8 0 0 31.37 30.00 0.07 o
6 1 8 0 1 1.90 1.98 0.04 o
6 1 8 1 -1 0.20 0.32 0.05 o
6 1 8 1 0 36.96 36.44 0.08 o
6 1 8 1 1 0.86 0.73 0.04 o
6 1 9 -1 0 1.81 1.49 0.06 o
6 1 9 -1 1 0.12 0.28 0.04 o
6 2 0 -1 -1 1.29 1.34 0.08 o
6 2 0 -1 0 5.46 5.39 0.08 o
6 2 0 -1 1 2.79 2.52 0.07 o
6 2 0 0 -1 130.09 128.08 0.22 o
6 2 0 0 1 0.44 0.54 0.07 o
6 2 0 1 -1 1.70 1.85 0.08 o
6 2 0 1 0 28.64 25.48 0.11 o
6 2 0 1 1 3.91 4.12 0.08 o
6 2 1 -1 -1 1.57 1.56 0.05 o
6 2 1 -1 0 0.74 0.83 0.05 o
6 2 1 -1 1 2.55 2.47 0.05 o
6 2 1 0 -1 2.68 2.71 0.05 o
6 2 1 0 1 125.15 125.55 0.13 o
6 2 1 1 -1 0.68 0.78 0.05 o
6 2 1 1 0 18.86 19.57 0.07 o
6 2 1 1 1 1.56 1.65 0.05 o
6 2 2 -1 -1 0.09 0.15 0.05 <
6 2 2 -1 0 1.50 1.99 0.05 o
6 2 2 -1 1 1.93 2.09 0.05 o
6 2 2 0 -1 9.00 9.01 0.06 o
6 2 2 0 1 35.92 36.21 0.08 o
6 2 2 1 -1 0.31 0.44 0.05 o
6 2 2 1 0 7.96 7.31 0.06 o
6 2 2 1 1 1.33 1.03 0.05 o
6 2 3 -1 -1 0.96 0.88 0.04 o
6 2 3 -1 0 17.68 18.17 0.06 o
6 2 3 -1 1 0.46 0.51 0.04 o
6 2 3 0 -1 20.71 22.47 0.07 o
6 2 3 0 0 158.30 180.64 0.14 o
6 2 3 0 1 23.02 23.08 0.07 o
6 2 3 1 -1 0.35 0.55 0.05 o
6 2 3 1 0 1.80 1.96 0.05 o
6 2 3 1 1 0.02 0.19 0.04 o
6 2 4 -1 -1 0.90 0.90 0.05 o
6 2 4 -1 0 6.49 6.40 0.05 o
6 2 4 -1 1 1.41 1.45 0.05 o
6 2 4 0 -1 53.68 53.99 0.09 o
6 2 4 0 1 1.56 1.66 0.05 o
6 2 4 1 -1 1.19 1.20 0.04 o
6 2 4 1 0 9.41 8.89 0.05 o
6 2 4 1 1 1.78 1.94 0.05 o
6 2 5 -1 -1 0.90 1.07 0.05 o
6 2 5 -1 0 12.23 11.94 0.06 o
6 2 5 -1 1 2.47 2.50 0.05 o
6 2 5 0 -1 17.63 17.53 0.06 o
6 2 5 0 1 112.11 113.69 0.13 o
6 2 5 1 -1 0.62 0.61 0.04 o
6 2 5 1 0 22.60 24.31 0.06 o
6 2 5 1 1 3.00 2.93 0.05 o
6 2 6 -1 -1 0.07 0.20 0.04 o
6 2 6 -1 0 3.53 3.91 0.05 o
6 2 6 -1 1 0.55 0.73 0.04 o
6 2 6 0 -1 0.31 0.38 0.05 o
6 2 6 0 1 2.95 3.05 0.05 o
6 2 6 1 -1 0.12 0.22 0.04 o
6 2 6 1 0 0.06 0.33 0.05 o
6 2 6 1 1 0.19 0.29 0.05 o
6 2 7 -1 -1 0.47 0.47 0.04 o
6 2 7 -1 0 11.28 11.54 0.05 o
6 2 7 -1 1 0.18 0.23 0.04 o
6 2 7 0 -1 11.01 11.14 0.06 o
6 2 7 0 0 25.95 30.17 0.07 o
6 2 7 0 1 12.11 12.82 0.06 o
6 2 7 1 -1 0.04 0.17 0.05 o
6 2 7 1 0 0.98 1.23 0.04 o
6 2 7 1 1 0.16 0.25 0.04 o
6 2 8 -1 -1 0.43 0.41 0.04 o
6 2 8 -1 0 5.88 5.48 0.05 o
6 2 8 -1 1 0.38 0.38 0.04 o
6 2 8 0 -1 6.09 5.77 0.05 o
6 2 8 0 1 7.86 7.01 0.05 o
6 2 8 1 -1 0.53 0.55 0.05 o
6 2 8 1 0 0.16 0.28 0.05 o
6 2 8 1 1 0.30 0.33 0.04 o
6 2 9 -1 1 0.63 0.51 0.12 o
6 3 0 -1 -1 0.43 0.47 0.07 o
6 3 0 -1 0 42.12 41.44 0.12 o
6 3 0 -1 1 0.11 0.15 0.06 <
6 3 0 0 -1 115.16 120.12 0.20 o
6 3 0 0 1 186.64 195.44 0.24 o
6 3 0 1 -1 1.32 1.14 0.07 o
6 3 0 1 0 41.70 43.87 0.12 o
6 3 0 1 1 0.10 0.19 0.06 o
6 3 1 -1 -1 0.09 0.27 0.05 o
6 3 1 -1 0 23.20 21.91 0.07 o
6 3 1 -1 1 0.60 0.58 0.05 o
6 3 1 0 -1 3.71 3.82 0.05 o
6 3 1 0 1 0.56 0.54 0.05 o
6 3 1 1 -1 0.17 0.28 0.05 o
6 3 1 1 0 8.94 8.62 0.05 o
6 3 1 1 1 1.38 1.13 0.05 o
6 3 2 -1 -1 0.32 0.46 0.05 o
6 3 2 -1 0 10.71 10.10 0.06 o
6 3 2 -1 1 0.33 0.41 0.04 o
6 3 2 0 -1 184.51 187.57 0.16 o
6 3 2 0 1 10.43 9.85 0.06 o
6 3 2 1 -1 0.91 0.64 0.05 o
6 3 2 1 0 124.56 128.41 0.13 o
6 3 2 1 1 0.33 0.39 0.05 o
6 3 3 -1 -1 0.06 0.18 0.05 o
6 3 3 -1 0 6.87 6.64 0.05 o
6 3 3 -1 1 0.88 0.87 0.04 o
6 3 3 0 -1 0.01 0.20 0.04 o
6 3 3 0 0 391.60 386.50 0.19 o
6 3 3 0 1 2.20 2.49 0.05 o
6 3 3 1 -1 1.10 1.04 0.04 o
6 3 3 1 0 2.63 2.93 0.04 o
6 3 3 1 1 2.48 2.30 0.04 o
6 3 4 -1 -1 0.37 0.42 0.04 o
6 3 4 -1 0 49.08 50.51 0.08 o
6 3 4 -1 1 0.01 0.14 0.04 o
6 3 4 0 -1 30.62 31.46 0.07 o
6 3 4 0 0 376.64 402.02 0.19 o
6 3 4 0 1 70.11 72.84 0.09 o
6 3 4 1 -1 0.82 0.79 0.04 o
6 3 4 1 0 18.95 19.90 0.06 o
6 3 4 1 1 0.05 0.18 0.04 o
6 3 5 -1 -1 0.06 0.16 0.04 o
6 3 5 -1 0 19.29 18.93 0.07 o
6 3 5 -1 1 0.10 0.21 0.04 o
6 3 5 0 -1 4.58 4.46 0.05 o
6 3 5 0 0 456.98 460.72 0.20 o
6 3 5 0 1 3.56 3.29 0.05 o
6 3 5 1 -1 0.01 0.21 0.04 o
6 3 5 1 0 25.24 26.32 0.06 o
6 3 5 1 1 0.24 0.35 0.04 o
6 3 6 -1 -1 0.27 0.36 0.05 o
6 3 6 -1 0 0.07 0.37 0.04 o
6 3 6 -1 1 0.01 0.13 0.04 o
6 3 6 0 -1 28.76 26.74 0.08 o
6 3 6 0 0 36.60 33.68 0.08 o
6 3 6 0 1 1.73 1.94 0.04 o
6 3 6 1 -1 0.54 0.56 0.04 o
6 3 6 1 0 47.17 48.51 0.10 o
6 3 6 1 1 0.13 0.27 0.04 o
6 3 7 -1 -1 0.07 0.20 0.04 o
6 3 7 -1 0 4.27 4.04 0.05 o
6 3 7 -1 1 0.76 0.94 0.04 o
6 3 7 0 -1 0.80 0.71 0.04 o
6 3 7 0 0 184.98 181.41 0.13 o
6 3 7 0 1 1.20 1.36 0.04 o
6 3 7 1 -1 0.68 0.67 0.05 o
6 3 7 1 0 3.66 3.63 0.05 o
6 3 7 1 1 2.09 1.67 0.05 o
6 3 8 -1 -1 0.21 0.28 0.04 o
6 3 8 -1 0 43.31 40.58 0.08 o
6 3 8 -1 1 0.18 0.21 0.04 o
6 3 8 0 -1 0.02 0.26 0.05 o
6 3 8 0 0 317.18 282.68 0.17 o
6 3 8 0 1 6.66 7.00 0.05 o
6 3 8 1 -1 0.31 0.37 0.05 o
6 3 8 1 0 3.53 3.00 0.05 o
6 3 8 1 1 0.02 0.20 0.05 o
6 4 0 -1 -1 1.68 1.25 0.07 o
6 4 0 -1 0 60.21 59.14 0.13 o
6 4 0 -1 1 2.02 1.85 0.06 o
6 4 0 0 -1 0.73 0.85 0.06 o
6 4 0 0 1 46.05 44.58 0.12 o
6 4 0 1 -1 0.86 0.88 0.07 o
6 4 0 1 0 13.30 13.22 0.08 o
6 4 0 1 1 2.17 2.24 0.06 o
6 4 1 -1 -1 0.00 0.17 0.05 o
6 4 1 -1 0 1.17 1.25 0.05 o
6 4 1 -1 1 1.30 1.29 0.05 o
6 4 1 0 -1 10.09 10.80 0.07 o
6 4 1 0 1 6.21 6.70 0.05 o
6 4 1 1 -1 0.00 0.20 0.05 o
6 4 1 1 0 19.89 21.82 0.07 o
6 4 1 1 1 0.40 0.46 0.05 o
6 4 2 -1 -1 3.76 4.14 0.05 o
6 4 2 -1 0 124.58 120.56 0.13 o
6 4 2 -1 1 4.51 4.35 0.05 o
6 4 2 0 -1 1.67 1.71 0.05 o
6 4 2 0 1 7.61 8.64 0.06 o
6 4 2 1 -1 0.77 0.89 0.04 o
6 4 2 1 0 0.15 0.37 0.04 o
6 4 2 1 1 0.83 0.82 0.05 o
6 4 3 -1 -1 0.34 0.63 0.04 o
6 4 3 -1 0 0.76 0.92 0.04 o
6 4 3 -1 1 2.11 2.19 0.05 o
6 4 3 0 -1 13.17 14.09 0.06 o
6 4 3 0 1 9.49 10.17 0.06 o
6 4 3 1 -1 0.37 0.57 0.04 o
6 4 3 1 0 4.39 4.81 0.05 o
6 4 3 1 1 0.20 0.36 0.05 o
6 4 4 -1 -1 0.46 0.40 0.04 o
6 4 4 -1 0 15.33 13.81 0.05 o
6 4 4 -1 1 0.49 0.60 0.04 o
6 4 4 0 -1 0.16 0.37 0.04 o
6 4 4 0 1 32.58 33.89 0.08 o
6 4 4 1 -1 0.90 0.93 0.04 o
6 4 4 1 0 1.57 1.73 0.04 o
6 4 4 1 1 1.23 1.27 0.05 o
6 4 5 -1 -1 0.07 0.22 0.04 o
6 4 5 -1 0 2.92 3.05 0.05 o
6 4 5 -1 1 0.38 0.44 0.04 o
6 4 5 0 -1 2.64 2.85 0.04 o
6 4 5 0 0 513.83 578.32 0.24 o
6 4 5 0 1 3.21 3.88 0.05 o
6 4 5 1 -1 0.25 0.23 0.04 o
6 4 5 1 0 18.33 20.22 0.06 o
6 4 5 1 1 0.28 0.25 0.05 o
6 4 6 -1 -1 0.77 0.89 0.05 o
6 4 6 -1 0 20.52 20.20 0.06 o
6 4 6 -1 1 0.74 0.87 0.04 o
6 4 6 0 -1 5.47 5.51 0.06 o
6 4 6 0 0 720.20 713.85 0.28 o
6 4 6 0 1 3.40 3.33 0.05 o
6 4 6 1 -1 0.79 0.86 0.04 o
6 4 6 1 0 6.95 7.43 0.06 o
6 4 6 1 1 0.74 0.63 0.05 o
6 4 7 -1 -1 0.20 0.27 0.04 o
6 4 7 -1 0 0.03 0.16 0.04 o
6 4 7 -1 1 1.12 1.08 0.04 o
6 4 7 0 -1 11.07 10.97 0.06 o
6 4 7 0 0 362.02 368.10 0.19 o
6 4 7 0 1 3.62 3.26 0.05 o
6 4 7 1 -1 0.50 0.57 0.05 o
6 4 7 1 0 4.75 4.75 0.05 o
6 4 7 1 1 0.12 0.31 0.04 o
6 4 8 -1 -1 0.00 0.15 0.05 <
6 4 8 -1 0 0.10 0.22 0.04 o
6 4 8 -1 1 0.00 0.15 0.04 o
6 4 8 0 -1 1.57 1.49 0.09 o
6 4 8 0 0 442.54 449.30 0.21 o
6 4 8 0 1 15.53 14.29 0.06 o
6 5 0 -1 -1 0.01 0.21 0.06 o
6 5 0 -1 0 0.00 0.35 0.06 o
6 5 0 -1 1 0.24 0.35 0.06 o
6 5 0 0 -1 2.99 3.73 0.07 o
6 5 0 0 0 240.42 285.36 0.24 o
6 5 0 0 1 0.31 0.47 0.06 o
6 5 0 1 -1 0.85 0.94 0.06 o
6 5 0 1 0 102.00 103.64 0.16 o
6 5 0 1 1 0.67 0.52 0.06 o
6 5 1 -1 -1 0.31 0.46 0.05 o
6 5 1 -1 0 2.72 2.54 0.05 o
6 5 1 -1 1 0.14 0.28 0.04 o
6 5 1 0 -1 10.49 11.66 0.06 o
6 5 1 0 0 1.04 1.69 0.05 o
6 5 1 0 1 17.61 18.02 0.06 o
6 5 1 1 -1 0.78 0.75 0.04 o
6 5 1 1 0 22.45 24.79 0.07 o
6 5 1 1 1 0.01 0.13 0.04 o
6 5 2 -1 -1 3.39 3.28 0.05 o
6 5 2 -1 0 58.85 63.60 0.10 o
6 5 2 -1 1 0.01 0.16 0.05 o
6 5 2 0 -1 0.78 1.07 0.05 o
6 5 2 0 0 513.12 535.33 0.25 o
6 5 2 0 1 1.58 1.87 0.05 o
6 5 2 1 -1 0.17 0.37 0.05 o
6 5 2 1 0 21.43 22.42 0.07 o
6 5 2 1 1 0.02 0.21 0.04 o
6 5 3 -1 -1 0.08 0.23 0.04 o
6 5 3 -1 0 11.58 11.93 0.06 o
6 5 3 -1 1 0.17 0.33 0.04 o
6 5 3 0 -1 21.08 23.75 0.06 o
6 5 3 0 0 0.93 1.25 0.06 o
6 5 3 0 1 0.53 0.63 0.04 o
6 5 3 1 -1 0.04 0.17 0.04 o
6 5 3 1 0 38.97 43.05 0.09 o
6 5 3 1 1 0.12 0.21 0.05 o
6 5 4 -1 -1 0.08 0.22 0.04 o
6 5 4 -1 0 1.15 1.32 0.04 o
6 5 4 -1 1 0.07 0.19 0.04 o
6 5 4 0 -1 0.75 0.82 0.04 o
6 5 4 0 0 31.39 28.26 0.08 o
6 5 4 0 1 5.84 6.74 0.05 o
6 5 4 1 -1 0.48 0.49 0.04 o
6 5 4 1 0 53.75 54.61 0.10 o
6 5 4 1 1 0.09 0.14 0.05 <
6 5 5 -1 -1 0.28 0.40 0.05 o
6 5 5 -1 0 0.12 0.28 0.04 o
6 5 5 -1 1 0.03 0.17 0.04 o
6 5 5 0 -1 2.02 2.28 0.04 o
6 5 5 0 0 1.22 1.77 0.06 o
6 5 5 0 1 27.76 29.60 0.07 o
6 5 5 1 -1 1.35 1.28 0.04 o
6 5 5 1 0 9.18 10.66 0.06 o
6 5 5 1 1 0.17 0.30 0.05 o
6 5 6 -1 -1 2.73 2.57 0.05 o
6 5 6 -1 0 53.95 55.42 0.09 o
6 5 6 -1 1 0.10 0.22 0.04 o
6 5 6 0 -1 14.18 14.91 0.07 o
6 5 6 0 0 73.59 80.70 0.10 o
6 5 6 0 1 13.40 13.65 0.06 o
6 5 6 1 -1 0.21 0.35 0.05 o
6 5 6 1 0 3.06 3.19 0.05 o
6 5 6 1 1 0.17 0.28 0.05 o
6 5 7 -1 -1 0.06 0.23 0.04 o
6 5 7 -1 0 5.43 4.82 0.05 o
6 5 7 -1 1 0.26 0.31 0.04 o
6 5 7 0 -1 13.20 13.79 0.06 o
6 5 7 0 0 4.68 6.41 0.07 o
6 5 7 0 1 0.03 0.19 0.04 o
6 5 7 1 -1 0.03 0.20 0.05 o
6 5 7 1 0 15.61 14.81 0.06 o
6 5 7 1 1 0.22 0.23 0.05 o
6 6 0 -1 1 0.30 0.37 0.06 o
6 6 0 1 1 1.44 1.47 0.06 o
6 6 1 -1 1 1.18 1.10 0.04 o
6 6 1 0 0 19.83 28.14 0.12 o
6 6 1 0 1 1.21 1.33 0.04 o
6 6 1 1 1 0.06 0.17 0.04 o
6 6 2 -1 1 0.07 0.19 0.04 o
6 6 2 0 1 0.81 1.07 0.05 o
6 6 2 1 1 0.25 0.38 0.05 o
6 6 3 -1 1 1.66 1.47 0.05 o
6 6 3 0 1 36.31 40.86 0.09 o
6 6 3 1 1 0.03 0.11 0.05 <
6 6 4 -1 1 0.23 0.37 0.05 o
6 6 4 0 1 0.10 0.14 0.05 <
6 6 4 1 1 1.01 1.06 0.05 o
6 6 5 -1 1 0.47 0.54 0.05 o
6 6 5 0 0 463.32 461.76 0.32 o
6 6 5 0 1 2.02 1.90 0.05 o
6 6 5 1 1 0.11 0.18 0.05 o
6 6 6 -1 1 0.04 0.12 0.05 <
6 6 6 0 0 427.31 451.20 0.30 o
6 6 6 0 1 6.64 6.50 0.06 o
6 6 6 1 1 0.24 0.31 0.05 o
6 6 7 -1 1 0.91 0.60 0.05 o
7 0 0 0 1 19.56 17.49 0.10 o
7 0 0 1 0 0.25 0.28 0.07 o
7 0 0 1 1 0.02 0.18 0.07 <
7 0 1 -1 1 0.58 0.64 0.07 o
7 0 1 0 1 1.15 1.48 0.05 o
7 0 1 1 -1 0.10 0.26 0.07 o
7 0 1 1 0 0.06 0.20 0.05 o
7 0 1 1 1 0.20 0.46 0.05 o
7 0 2 0 1 21.31 19.74 0.08 o
7 0 2 1 0 11.88 10.99 0.07 o
7 0 2 1 1 0.01 0.14 0.05 <
7 0 3 -1 1 2.90 3.02 0.07 o
7 0 3 0 1 18.21 18.33 0.09 o
7 0 3 1 -1 0.88 0.93 0.06 o
7 0 3 1 0 1.60 1.68 0.04 o
7 0 3 1 1 0.11 0.23 0.05 o
7 0 4 0 1 2.37 2.17 0.05 o
7 0 4 1 0 0.12 0.40 0.04 o
7 0 4 1 1 0.00 0.18 0.05 o
7 0 5 -1 1 0.00 0.12 0.06 <
7 0 5 0 0 38.67 32.80 0.17 o
7 0 5 0 1 12.59 12.87 0.07 o
7 0 5 1 -1 0.09 0.26 0.06 o
7 0 5 1 0 0.22 0.37 0.06 o
7 0 5 1 1 0.59 0.63 0.05 o
7 0 6 0 1 0.04 0.35 0.05 o
7 0 6 1 0 1.77 1.74 0.06 o
7 0 6 1 1 0.01 0.13 0.05 <
7 0 7 -1 1 1.32 1.40 0.06 o
7 0 7 0 1 8.44 7.92 0.05 o
7 0 7 1 -1 1.26 1.36 0.09 o
7 0 7 1 0 1.43 1.19 0.05 o
7 0 7 1 1 0.07 0.24 0.05 o
7 0 8 0 1 2.35 2.25 0.05 o
7 0 8 1 0 1.75 1.57 0.13 o
7 0 8 1 1 0.02 0.21 0.05 o
7 1 0 -1 -1 0.01 0.16 0.07 <
7 1 0 -1 0 26.11 27.40 0.11 o
7 1 0 -1 1 0.12 0.36 0.07 o
7 1 0 0 -1 3.18 3.33 0.08 o
7 1 0 0 0 77.73 67.53 0.16 o
7 1 0 0 1 3.50 3.37 0.08 o
7 1 0 1 -1 0.99 0.90 0.07 o
7 1 0 1 0 38.08 37.41 0.13 o
7 1 0 1 1 1.64 1.78 0.08 o
7 1 1 -1 -1 1.52 1.55 0.06 o
7 1 1 -1 0 45.82 42.08 0.09 o
7 1 1 -1 1 1.45 1.36 0.05 o
7 1 1 0 -1 1.71 1.64 0.05 o
7 1 1 0 0 155.61 173.89 0.16 o
7 1 1 0 1 6.84 6.84 0.06 o
7 1 1 1 -1 0.51 0.71 0.05 o
7 1 1 1 0 0.88 0.99 0.05 o
7 1 1 1 1 2.32 2.14 0.05 o
7 1 2 -1 -1 5.74 5.73 0.06 o
7 1 2 -1 0 91.58 92.53 0.12 o
7 1 2 -1 1 0.17 0.22 0.05 o
7 1 2 0 -1 41.63 41.07 0.09 o
7 1 2 0 0 164.15 176.96 0.16 o
7 1 2 0 1 143.02 144.40 0.14 o
7 1 2 1 -1 0.28 0.37 0.05 o
7 1 2 1 0 62.85 66.49 0.10 o
7 1 2 1 1 0.59 0.58 0.05 o
7 1 3 -1 -1 2.76 2.69 0.07 o
7 1 3 -1 0 63.98 58.60 0.10 o
7 1 3 -1 1 1.50 1.46 0.05 o
7 1 3 0 -1 0.06 0.36 0.05 o
7 1 3 0 0 334.43 334.70 0.20 o
7 1 3 0 1 0.54 0.68 0.05 o
7 1 3 1 -1 0.56 0.65 0.05 o
7 1 3 1 0 19.15 20.47 0.07 o
7 1 3 1 1 2.78 2.53 0.05 o
7 1 4 -1 -1 0.01 0.16 0.05 o
7 1 4 -1 0 7.83 8.32 0.06 o
7 1 4 -1 1 0.01 0.20 0.04 o
7 1 4 0 -1 0.23 0.39 0.05 o
7 1 4 0 0 122.69 134.18 0.13 o
7 1 4 0 1 1.80 2.21 0.05 o
7 1 4 1 -1 1.09 1.13 0.05 o
7 1 4 1 0 20.86 21.15 0.07 o
7 1 4 1 1 0.78 0.91 0.05 o
7 1 5 -1 -1 0.30 0.39 0.05 o
7 1 5 -1 0 14.49 14.42 0.06 o
7 1 5 -1 1 0.62 0.65 0.04 o
7 1 5 0 -1 1.61 1.56 0.05 o
7 1 5 0 0 616.70 697.78 0.29 o
7 1 5 0 1 6.54 6.54 0.05 o
7 1 5 1 -1 0.22 0.36 0.05 o
7 1 5 1 0 0.79 0.89 0.05 o
7 1 5 1 1 0.92 0.91 0.04 o
7 1 6 -1 -1 2.95 3.12 0.06 o
7 1 6 -1 0 77.84 81.72 0.11 o
7 1 6 -1 1 0.61 0.62 0.05 o
7 1 6 0 -1 39.00 39.49 0.08 o
7 1 6 0 0 283.96 267.78 0.17 o
7 1 6 0 1 21.75 22.81 0.08 o
7 1 6 1 -1 0.00 0.25 0.05 o
7 1 6 1 0 44.75 46.05 0.08 o
7 1 6 1 1 0.08 0.15 0.04 o
7 1 7 -1 -1 2.01 1.70 0.05 o
7 1 7 -1 0 33.13 32.28 0.08 o
7 1 7 -1 1 0.73 0.76 0.04 o
7 1 7 0 -1 1.15 1.41 0.06 o
7 1 7 0 0 123.08 118.31 0.12 o
7 1 7 0 1 2.25 2.53 0.05 o
7 1 7 1 -1 0.43 0.53 0.05 o
7 1 7 1 0 7.89 7.59 0.05 o
7 1 7 1 1 1.78 1.62 0.06 o
7 1 8 -1 -1 0.00 0.11 0.05 <
7 1 8 -1 0 0.04 0.25 0.05 o
7 1 8 -1 1 0.19 0.22 0.04 o
7 1 8 0 0 823.43 836.04 0.28 o
7 1 8 0 1 16.20 15.35 0.06 o
7 1 8 1 1 0.11 0.19 0.05 o
7 2 0 -1 -1 0.33 0.49 0.07 o
7 2 0 -1 0 5.87 7.16 0.09 o
7 2 0 -1 1 0.47 0.44 0.07 o
7 2 0 0 -1 30.75 32.98 0.12 o
7 2 0 0 1 3.62 3.27 0.08 o
7 2 0 1 -1 0.30 0.48 0.07 o
7 2 0 1 0 91.05 94.41 0.19 o
7 2 0 1 1 0.47 0.44 0.07 o
7 2 1 -1 -1 0.03 0.19 0.05 o
7 2 1 -1 0 3.15 3.51 0.05 o
7 2 1 -1 1 2.16 2.14 0.05 o
7 2 1 0 -1 0.10 0.29 0.05 o
7 2 1 0 1 7.59 8.52 0.06 o
7 2 1 1 -1 0.36 0.50 0.05 o
7 2 1 1 0 5.45 6.05 0.05 o
7 2 1 1 1 0.01 0.26 0.05 o
7 2 2 -1 -1 1.46 1.61 0.05 o
7 2 2 -1 0 2.81 3.35 0.05 o
7 2 2 -1 1 0.00 0.15 0.05 <
7 2 2 0 -1 6.81 6.42 0.05 o
7 2 2 0 0 114.44 107.58 0.12 o
7 2 2 0 1 28.30 27.61 0.07 o
7 2 2 1 -1 0.06 0.25 0.04 o
7 2 2 1 0 46.00 48.28 0.09 o
7 2 2 1 1 0.04 0.18 0.04 o
7 2 3 -1 -1 0.04 0.12 0.05 <
7 2 3 -1 0 6.47 6.74 0.05 o
7 2 3 -1 1 1.44 1.42 0.05 o
7 2 3 0 -1 8.95 9.18 0.05 o
7 2 3 0 1 0.00 0.16 0.04 o
7 2 3 1 -1 0.85 0.98 0.04 o
7 2 3 1 0 23.79 25.56 0.07 o
7 2 3 1 1 0.02 0.19 0.04 o
7 2 4 -1 -1 0.31 0.43 0.04 o
7 2 4 -1 0 3.52 3.92 0.05 o
7 2 4 -1 1 0.26 0.47 0.04 o
7 2 4 0 -1 0.76 1.03 0.05 o
7 2 4 0 0 753.90 791.57 1.03 o
7 2 4 0 1 1.00 1.45 0.04 o
7 2 4 1 -1 0.06 0.12 0.04 o
7 2 4 1 0 29.30 30.05 0.07 o
7 2 4 1 1 0.45 0.51 0.04 o
7 2 5 -1 -1 0.09 0.20 0.04 o
7 2 5 -1 0 0.43 0.65 0.04 o
7 2 5 -1 1 1.45 1.45 0.04 o
7 2 5 0 -1 4.39 4.38 0.05 o
7 2 5 0 0 290.78 314.64 0.18 o
7 2 5 0 1 12.59 13.19 0.05 o
7 2 5 1 -1 0.03 0.16 0.04 o
7 2 5 1 0 0.15 0.44 0.04 o
7 2 5 1 1 0.00 0.14 0.04 o
7 2 6 -1 -1 0.61 0.63 0.04 o
7 2 6 -1 0 1.59 1.48 0.04 o
7 2 6 -1 1 0.02 0.19 0.05 o
7 2 6 0 -1 10.06 10.48 0.05 o
7 2 6 0 0 696.34 719.14 0.30 o
7 2 6 0 1 0.11 0.36 0.04 o
7 2 6 1 -1 0.02 0.16 0.04 o
7 2 6 1 0 2.37 2.76 0.05 o
7 2 6 1 1 0.01 0.19 0.04 o
7 2 7 -1 -1 0.01 0.19 0.05 o
7 2 7 -1 0 4.53 4.61 0.05 o
7 2 7 -1 1 0.63 0.62 0.04 o
7 2 7 0 -1 4.10 3.89 0.05 o
7 2 7 0 0 619.22 659.20 0.25 o
7 2 7 0 1 0.01 0.17 0.05 o
7 2 7 1 -1 0.74 0.63 0.05 o
7 2 7 1 0 9.93 9.97 0.06 o
7 2 7 1 1 0.00 0.14 0.04 o
7 2 8 -1 -1 0.23 0.35 0.05 o
7 2 8 -1 0 1.83 1.55 0.05 o
7 2 8 -1 1 0.05 0.23 0.05 o
7 2 8 0 0 76.98 79.69 0.10 o
7 2 8 0 1 12.37 10.91 0.06 o
7 3 0 -1 -1 0.00 0.31 0.07 o
7 3 0 -1 0 47.30 49.45 0.13 o
7 3 0 -1 1 3.61 3.59 0.07 o
7 3 0 0 -1 0.09 0.37 0.08 o
7 3 0 0 1 43.74 43.59 0.12 o
7 3 0 1 -1 0.14 0.27 0.07 o
7 3 0 1 0 19.59 19.46 0.10 o
7 3 0 1 1 2.56 2.73 0.07 o
7 3 1 -1 -1 0.00 0.18 0.05 o
7 3 1 -1 0 0.04 0.26 0.05 o
7 3 1 -1 1 0.15 0.38 0.05 o
7 3 1 0 -1 20.82 21.63 0.07 o
7 3 1 0 0 0.24 1.33 0.06 o
7 3 1 0 1 0.00 0.24 0.05 o
7 3 1 1 -1 0.08 0.17 0.04 o
7 3 1 1 0 50.81 52.58 0.09 o
7 3 1 1 1 0.01 0.18 0.04 o
7 3 2 -1 -1 5.96 5.45 0.05 o
7 3 2 -1 0 9.70 10.40 0.06 o
7 3 2 -1 1 3.21 3.06 0.05 o
7 3 2 0 -1 0.04 0.20 0.04 o
7 3 2 0 1 32.53 33.41 0.07 o
7 3 2 1 -1 0.35 0.40 0.04 o
7 3 2 1 0 72.80 72.09 0.10 o
7 3 2 1 1 0.71 0.51 0.04 o
7 3 3 -1 -1 0.09 0.26 0.04 o
7 3 3 -1 0 5.85 6.56 0.05 o
7 3 3 -1 1 0.04 0.22 0.04 o
7 3 3 0 -1 42.91 46.28 0.08 o
7 3 3 0 1 0.43 0.62 0.04 o
7 3 3 1 -1 0.91 0.79 0.04 o
7 3 3 1 0 19.97 20.57 0.06 o
7 3 3 1 1 0.11 0.17 0.04 o
7 3 4 -1 -1 0.06 0.20 0.04 o
7 3 4 -1 0 20.65 21.96 0.06 o
7 3 4 -1 1 1.57 1.56 0.04 o
7 3 4 0 -1 0.56 0.53 0.04 o
7 3 4 0 1 17.04 16.60 0.06 o
7 3 4 1 -1 0.03 0.20 0.04 o
7 3 4 1 0 5.93 6.09 0.05 o
7 3 4 1 1 0.63 0.78 0.04 o
7 3 5 -1 -1 0.05 0.21 0.04 o
7 3 5 -1 0 2.52 2.44 0.04 o
7 3 5 -1 1 0.13 0.36 0.04 o
7 3 5 0 -1 6.85 7.12 0.05 o
7 3 5 0 0 185.35 163.66 0.12 o
7 3 5 0 1 0.06 0.33 0.04 o
7 3 5 1 -1 0.08 0.19 0.04 o
7 3 5 1 0 46.38 47.79 0.08 o
7 3 5 1 1 0.00 0.15 0.04 o
7 3 6 -1 -1 2.24 2.23 0.04 o
7 3 6 -1 0 14.94 15.26 0.06 o
7 3 6 -1 1 0.61 0.67 0.04 o
7 3 6 0 -1 0.39 0.47 0.04 o
7 3 6 0 0 145.87 145.32 0.12 o
7 3 6 0 1 5.84 5.88 0.05 o
7 3 6 1 -1 0.08 0.10 0.05 <
7 3 6 1 0 21.86 20.23 0.06 o
7 3 6 1 1 0.02 0.15 0.04 o
7 3 7 -1 -1 0.09 0.19 0.04 o
7 3 7 -1 0 3.78 3.85 0.06 o
7 3 7 -1 1 0.03 0.21 0.05 o
7 3 7 0 -1 14.09 13.72 0.06 o
7 3 7 0 0 294.44 296.73 0.17 o
7 3 7 0 1 0.02 0.21 0.05 o
7 3 7 1 -1 0.89 0.67 0.05 o
7 3 7 1 0 9.71 9.12 0.05 o
7 3 7 1 1 0.07 0.17 0.04 o
7 3 8 -1 0 3.19 2.84 0.05 o
7 3 8 -1 1 0.28 0.36 0.05 o
7 4 0 -1 -1 0.07 0.23 0.07 o
7 4 0 -1 0 14.48 15.26 0.09 o
7 4 0 -1 1 0.97 0.84 0.06 o
7 4 0 0 -1 0.12 0.29 0.07 o
7 4 0 0 0 2.41 3.19 0.08 o
7 4 0 0 1 14.00 14.17 0.08 o
7 4 0 1 -1 0.78 0.99 0.07 o
7 4 0 1 0 35.04 38.13 0.12 o
7 4 0 1 1 2.97 2.94 0.07 o
7 4 1 -1 -1 1.36 1.20 0.05 o
7 4 1 -1 0 11.13 11.91 0.06 o
7 4 1 -1 1 0.45 0.58 0.05 o
7 4 1 0 -1 3.80 4.37 0.05 o
7 4 1 0 0 130.20 145.12 0.12 o
7 4 1 0 1 1.50 1.92 0.05 o
7 4 1 1 -1 1.30 1.14 0.04 o
7 4 1 1 0 0.54 0.56 0.04 o
7 4 1 1 1 0.00 0.15 0.04 o
7 4 2 -1 -1 1.65 1.68 0.05 o
7 4 2 -1 0 5.55 6.30 0.05 o
7 4 2 -1 1 0.08 0.19 0.04 o
7 4 2 0 -1 4.97 5.41 0.05 o
7 4 2 0 0 241.64 216.91 0.15 o
7 4 2 0 1 0.29 0.24 0.04 o
7 4 2 1 -1 0.05 0.15 0.04 o
7 4 2 1 0 9.31 8.38 0.05 o
7 4 2 1 1 0.53 0.43 0.04 o
7 4 3 -1 -1 2.34 2.04 0.04 o
7 4 3 -1 0 1.03 1.10 0.04 o
7 4 3 -1 1 0.01 0.19 0.04 o
7 4 3 0 -1 2.53 2.70 0.04 o
7 4 3 0 0 350.72 379.09 0.19 o
7 4 3 0 1 4.63 4.96 0.05 o
7 4 3 1 -1 0.48 0.51 0.04 o
7 4 3 1 0 0.44 0.64 0.04 o
7 4 3 1 1 0.43 0.46 0.04 o
7 4 4 -1 -1 0.02 0.17 0.04 o
7 4 4 -1 0 3.71 3.95 0.05 o
7 4 4 -1 1 0.50 0.50 0.04 o
7 4 4 0 -1 0.00 0.25 0.04 o
7 4 4 0 0 1.76 1.28 0.05 o
7 4 4 0 1 12.67 13.30 0.06 o
7 4 4 1 -1 0.54 0.67 0.04 o
7 4 4 1 0 35.61 38.67 0.08 o
7 4 4 1 1 2.03 2.00 0.05 o
7 4 5 -1 -1 0.42 0.32 0.04 o
7 4 5 -1 0 24.16 25.21 0.06 o
7 4 5 -1 1 0.84 0.82 0.04 o
7 4 5 0 -1 1.59 1.75 0.04 o
7 4 5 0 0 573.98 634.47 0.25 o
7 4 5 0 1 5.72 6.05 0.05 o
7 4 5 1 -1 1.04 0.75 0.04 o
7 4 5 1 0 0.09 0.25 0.04 o
7 4 5 1 1 0.23 0.17 0.04 o
7 4 6 -1 -1 0.68 0.81 0.04 o
7 4 6 -1 0 0.05 0.24 0.04 o
7 4 6 -1 1 0.13 0.23 0.04 o
7 4 6 0 -1 1.57 1.72 0.05 o
7 4 6 0 0 67.17 61.94 0.09 o
7 4 6 0 1 0.78 0.54 0.05 o
7 4 6 1 -1 0.05 0.15 0.04 o
7 4 6 1 0 12.66 11.26 0.06 o
7 4 6 1 1 0.38 0.49 0.05 o
7 4 7 -1 -1 1.24 0.94 0.04 o
7 4 7 -1 0 0.73 0.63 0.06 o
7 4 7 -1 1 0.01 0.17 0.05 o
7 4 7 0 -1 5.63 5.55 0.05 o
7 4 7 0 0 121.47 118.12 0.11 o
7 4 7 0 1 0.47 0.44 0.05 o
7 4 7 1 1 0.39 0.25 0.05 o
7 5 0 -1 -1 0.00 0.19 0.06 o
7 5 0 -1 0 10.60 10.14 0.08 o
7 5 0 -1 1 0.61 0.69 0.06 o
7 5 0 0 -1 108.97 113.16 0.17 o
7 5 0 0 1 29.15 30.28 0.10 o
7 5 0 1 -1 3.54 3.72 0.07 o
7 5 0 1 0 38.01 39.44 0.11 o
7 5 0 1 1 0.24 0.42 0.06 o
7 5 1 -1 -1 0.08 0.16 0.05 o
7 5 1 -1 0 0.16 0.36 0.05 o
7 5 1 -1 1 1.12 1.23 0.04 o
7 5 1 0 -1 0.08 0.21 0.05 o
7 5 1 0 0 37.55 42.02 0.09 o
7 5 1 0 1 18.13 19.87 0.06 o
7 5 1 1 -1 0.14 0.30 0.06 o
7 5 1 1 0 20.38 22.56 0.07 o
7 5 1 1 1 0.25 0.40 0.05 o
7 5 2 -1 -1 1.54 1.66 0.04 o
7 5 2 -1 0 25.95 27.55 0.07 o
7 5 2 -1 1 0.54 0.66 0.05 o
7 5 2 0 -1 5.57 5.81 0.05 o
7 5 2 0 0 370.69 420.78 0.20 o
7 5 2 0 1 3.64 4.94 0.05 o
7 5 2 1 -1 1.73 1.60 0.04 o
7 5 2 1 0 15.63 15.66 0.06 o
7 5 2 1 1 0.33 0.42 0.05 o
7 5 3 -1 -1 0.01 0.15 0.04 o
7 5 3 -1 0 3.89 4.01 0.05 o
7 5 3 -1 1 0.53 0.68 0.04 o
7 5 3 0 -1 35.19 37.80 0.08 o
7 5 3 0 1 7.28 7.16 0.05 o
7 5 3 1 -1 0.08 0.16 0.04 o
7 5 3 1 0 1.51 1.35 0.04 o
7 5 3 1 1 0.16 0.18 0.04 o
7 5 4 -1 -1 0.16 0.36 0.04 o
7 5 4 -1 0 1.03 0.89 0.04 o
7 5 4 -1 1 0.07 0.25 0.04 o
7 5 4 0 -1 41.07 40.66 0.08 o
7 5 4 0 1 2.49 2.39 0.05 o
7 5 4 1 -1 1.72 1.62 0.05 o
7 5 4 1 0 9.46 10.02 0.05 o
7 5 4 1 1 0.14 0.31 0.05 o
7 5 5 -1 -1 0.34 0.40 0.04 o
7 5 5 -1 0 2.36 2.55 0.04 o
7 5 5 -1 1 1.15 1.23 0.04 o
7 5 5 0 -1 7.45 7.42 0.05 o
7 5 5 0 0 55.59 53.75 0.09 o
7 5 5 0 1 53.90 57.95 0.09 o
7 5 5 1 -1 0.10 0.23 0.04 o
7 5 5 1 0 47.70 50.12 0.09 o
7 5 5 1 1 0.15 0.28 0.05 o
7 5 6 -1 -1 0.17 0.28 0.05 o
7 5 6 -1 0 2.06 2.18 0.05 o
7 5 6 -1 1 0.00 0.11 0.05 <
7 5 6 0 -1 2.95 2.85 0.05 o
7 5 6 0 0 0.86 1.85 0.06 o
7 5 6 0 1 7.24 6.41 0.05 o
7 5 6 1 -1 0.33 0.31 0.05 o
7 5 6 1 0 0.00 0.12 0.05 <
7 5 6 1 1 0.26 0.26 0.05 o
7 5 7 -1 -1 0.19 0.23 0.05 o
7 5 7 -1 0 1.60 1.44 0.06 o
7 5 7 -1 1 0.09 0.22 0.05 o
7 6 0 -1 -1 4.75 4.76 0.07 o
7 6 0 -1 0 157.88 171.23 0.21 o
7 6 0 -1 1 0.50 0.64 0.06 o
7 6 0 0 -1 47.43 50.06 0.13 o
7 6 0 0 1 4.29 4.82 0.07 o
7 6 0 1 -1 5.38 5.16 0.07 o
7 6 0 1 0 47.68 52.28 0.13 o
7 6 0 1 1 0.00 0.15 0.06 <
7 6 1 -1 -1 0.34 0.41 0.05 o
7 6 1 -1 0 2.73 2.49 0.05 o
7 6 1 -1 1 0.13 0.21 0.04 o
7 6 1 0 -1 3.04 3.34 0.05 o
7 6 1 0 0 306.76 323.76 0.19 o
7 6 1 0 1 25.35 26.35 0.07 o
7 6 1 1 -1 0.01 0.19 0.05 o
7 6 1 1 0 10.01 11.72 0.06 o
7 6 1 1 1 0.32 0.39 0.05 o
7 6 2 -1 -1 1.07 1.21 0.06 o
7 6 2 -1 0 5.64 5.10 0.05 o
7 6 2 -1 1 0.04 0.18 0.05 o
7 6 2 0 -1 2.22 2.06 0.05 o
7 6 2 0 0 175.37 165.40 0.14 o
7 6 2 0 1 0.91 0.90 0.05 o
7 6 2 1 -1 0.01 0.19 0.05 o
7 6 2 1 0 41.01 40.21 0.09 o
7 6 2 1 1 0.12 0.23 0.05 o
7 6 3 -1 -1 0.08 0.20 0.04 o
7 6 3 -1 0 15.43 15.66 0.07 o
7 6 3 -1 1 0.29 0.32 0.05 o
7 6 3 0 -1 22.64 24.44 0.07 o
7 6 3 0 0 183.37 195.65 0.14 o
7 6 3 0 1 1.36 1.54 0.05 o
7 6 3 1 -1 0.34 0.40 0.05 o
7 6 3 1 0 32.35 36.20 0.08 o
7 6 3 1 1 0.15 0.21 0.05 o
7 6 4 -1 -1 2.41 2.41 0.05 o
7 6 4 -1 0 98.40 104.78 0.11 o
7 6 4 -1 1 0.31 0.42 0.05 o
7 6 4 0 -1 5.44 5.46 0.05 o
7 6 4 0 0 102.32 115.33 0.11 o
7 6 4 0 1 0.96 1.04 0.05 o
7 6 4 1 -1 3.38 3.14 0.05 o
7 6 4 1 0 53.52 56.39 0.09 o
7 6 4 1 1 0.09 0.23 0.06 o
7 6 5 -1 -1 0.32 0.45 0.04 o
7 6 5 -1 0 0.00 0.23 0.04 o
7 6 5 -1 1 0.02 0.15 0.05 <
7 6 5 0 -1 0.08 0.15 0.05 <
7 6 5 0 0 257.42 265.72 0.17 o
7 6 5 0 1 35.17 34.93 0.10 o
7 6 5 1 -1 0.31 0.33 0.05 o
7 6 5 1 0 1.34 1.67 0.05 o
7 6 5 1 1 0.21 0.31 0.05 o
7 6 6 -1 -1 0.11 0.20 0.05 o
7 6 6 -1 0 0.44 0.23 0.05 o
7 6 6 -1 1 0.04 0.27 0.05 o
7 6 6 0 -1 15.02 13.99 0.06 o
7 6 6 0 0 275.52 296.93 0.19 o
7 6 6 0 1 9.55 8.81 0.07 o
7 7 0 -1 1 3.76 3.54 0.07 o
7 7 0 0 0 93.34 111.46 0.24 o
7 7 0 0 1 7.89 8.15 0.08 o
7 7 0 1 1 0.00 0.21 0.07 <
7 7 1 -1 1 0.47 0.55 0.05 o
7 7 1 0 0 163.65 143.80 0.19 o
7 7 1 0 1 23.26 23.78 0.07 o
7 7 1 1 1 0.11 0.22 0.05 o
7 7 2 -1 1 1.60 1.99 0.05 o
7 7 2 0 1 23.33 23.70 0.07 o
7 7 2 1 1 2.42 2.12 0.05 o
7 7 3 -1 1 0.96 1.23 0.05 o
7 7 3 0 0 166.97 196.04 0.24 o
7 7 3 0 1 2.43 2.44 0.07 o
7 7 3 1 1 0.46 0.47 0.05 o
7 7 4 -1 1 2.70 2.35 0.05 o
7 7 4 0 0 302.02 341.85 0.32 o
7 7 4 0 1 6.89 6.91 0.06 o
7 7 4 1 1 0.12 0.23 0.06 o
7 7 5 -1 1 0.11 0.22 0.05 o
7 7 5 0 0 559.15 539.08 0.33 o
7 7 5 0 1 31.18 29.71 0.08 o
8 0 0 -1 1 0.02 0.16 0.10 <
8 0 0 0 1 39.29 40.35 0.13 o
8 0 0 1 -1 8.22 8.00 0.12 o
8 0 0 1 0 18.80 18.79 0.10 o
8 0 0 1 1 2.32 2.57 0.07 o
8 0 1 0 1 16.32 16.26 0.08 o
8 0 1 1 0 12.71 13.47 0.07 o
8 0 1 1 1 0.09 0.16 0.05 o
8 0 2 -1 1 5.72 5.41 0.07 o
8 0 2 0 1 1.97 1.89 0.04 o
8 0 2 1 -1 3.78 3.92 0.07 o
8 0 2 1 0 0.14 0.33 0.05 o
8 0 2 1 1 0.61 0.78 0.05 o
8 0 3 0 1 0.05 0.25 0.04 o
8 0 3 1 0 0.28 0.57 0.04 o
8 0 3 1 1 0.33 0.42 0.04 o
8 0 4 -1 1 0.17 0.35 0.06 o
8 0 4 0 1 5.59 5.34 0.05 o
8 0 4 1 -1 5.03 4.71 0.07 o
8 0 4 1 0 1.42 1.30 0.05 o
8 0 4 1 1 0.81 0.99 0.04 o
8 0 5 0 1 26.03 25.54 0.07 o
8 0 5 1 0 18.92 19.35 0.06 o
8 0 5 1 1 0.67 0.68 0.04 o
8 0 6 -1 1 4.88 4.86 0.09 o
8 0 6 0 0 118.02 108.66 0.15 o
8 0 6 0 1 24.19 24.23 0.09 o
8 0 6 1 -1 1.41 1.57 0.07 o
8 0 6 1 0 9.75 9.75 0.05 o
8 0 6 1 1 1.30 1.34 0.06 o
8 0 7 0 1 0.00 0.20 0.07 <
8 0 7 1 0 0.00 0.18 0.05 o
8 0 7 1 1 0.54 0.45 0.06 o
8 1 0 -1 -1 0.01 0.12 0.07 <
8 1 0 -1 0 97.72 102.70 0.18 o
8 1 0 -1 1 0.15 0.30 0.07 o
8 1 0 0 -1 18.89 19.84 0.10 o
8 1 0 0 0 5.49 4.86 0.09 o
8 1 0 0 1 77.67 78.30 0.17 o
8 1 0 1 -1 0.54 0.80 0.07 o
8 1 0 1 0 4.77 4.63 0.08 o
8 1 0 1 1 0.02 0.28 0.07 o
8 1 1 -1 -1 0.45 0.53 0.05 o
8 1 1 -1 0 0.01 0.17 0.05 o
8 1 1 -1 1 0.46 0.46 0.05 o
8 1 1 0 -1 31.21 34.20 0.08 o
8 1 1 0 0 162.68 165.18 0.15 o
8 1 1 0 1 0.25 0.44 0.05 o
8 1 1 1 -1 1.86 1.88 0.05 o
8 1 1 1 0 7.23 7.52 0.06 o
8 1 1 1 1 0.24 0.46 0.05 o
8 1 2 -1 -1 2.49 2.52 0.05 o
8 1 2 -1 0 20.50 21.73 0.07 o
8 1 2 -1 1 3.38 3.40 0.05 o
8 1 2 0 -1 116.12 125.44 0.15 o
8 1 2 0 0 5.00 6.78 0.06 o
8 1 2 0 1 17.03 17.87 0.07 o
8 1 2 1 -1 0.10 0.31 0.05 o
8 1 2 1 0 22.50 22.60 0.07 o
8 1 2 1 1 0.09 0.29 0.05 o
8 1 3 -1 -1 0.92 0.95 0.04 o
8 1 3 -1 0 16.39 16.59 0.08 o
8 1 3 -1 1 0.85 0.96 0.05 o
8 1 3 0 -1 0.13 0.28 0.04 o
8 1 3 0 0 392.00 430.18 0.21 o
8 1 3 0 1 8.26 8.43 0.06 o
8 1 3 1 -1 0.49 0.57 0.05 o
8 1 3 1 0 0.50 0.63 0.05 o
8 1 3 1 1 0.44 0.48 0.05 o
8 1 4 -1 -1 0.01 0.24 0.04 o
8 1 4 -1 0 47.84 47.55 0.12 o
8 1 4 -1 1 0.15 0.27 0.05 o
8 1 4 0 -1 2.15 1.97 0.05 o
8 1 4 0 0 0.56 1.58 0.08 o
8 1 4 0 1 45.10 45.51 0.09 o
8 1 4 1 -1 0.23 0.20 0.04 o
8 1 4 1 0 8.79 8.88 0.07 o
8 1 4 1 1 0.02 0.20 0.05 o
8 1 5 -1 -1 0.15 0.24 0.05 o
8 1 5 -1 0 4.86 4.55 0.06 o
8 1 5 -1 1 0.18 0.29 0.05 o
8 1 5 0 -1 57.20 58.84 0.09 o
8 1 5 0 0 649.13 673.04 0.26 o
8 1 5 0 1 0.37 0.44 0.05 o
8 1 5 1 -1 2.07 2.03 0.05 o
8 1 5 1 0 13.27 13.72 0.07 o
8 1 5 1 1 0.08 0.26 0.05 o
8 1 6 -1 -1 1.43 1.30 0.05 o
8 1 6 -1 0 2.17 2.18 0.05 o
8 1 6 -1 1 1.96 1.98 0.05 o
8 1 6 0 -1 27.11 23.80 0.06 o
8 1 6 0 0 2.13 1.76 0.06 o
8 1 6 0 1 4.61 4.67 0.05 o
8 1 6 1 -1 0.19 0.18 0.05 o
8 1 6 1 0 26.22 24.64 0.08 o
8 1 6 1 1 0.01 0.20 0.05 o
8 1 7 -1 -1 0.35 0.36 0.06 o
8 1 7 -1 0 7.31 7.19 0.06 o
8 1 7 -1 1 0.25 0.31 0.05 o
8 1 7 0 -1 0.08 0.22 0.06 o
8 1 7 0 0 107.29 105.85 0.12 o
8 1 7 0 1 1.75 1.43 0.05 o
8 1 7 1 0 0.39 0.41 0.05 o
8 1 7 1 1 0.28 0.18 0.05 o
8 2 0 -1 -1 0.83 0.94 0.07 o
8 2 0 -1 0 64.99 66.12 0.16 o
8 2 0 -1 1 0.15 0.20 0.07 <
8 2 0 0 -1 21.74 22.73 0.11 o
8 2 0 0 1 0.37 0.30 0.07 o
8 2 0 1 -1 0.09 0.12 0.08 <
8 2 0 1 0 0.00 0.21 0.08 <
8 2 0 1 1 4.05 4.58 0.09 o
8 2 1 -1 -1 0.01 0.22 0.05 o
8 2 1 -1 0 4.98 4.73 0.05 o
8 2 1 -1 1 0.00 0.13 0.04 o
8 2 1 0 -1 9.14 9.60 0.06 o
8 2 1 0 0 377.53 374.28 0.21 o
8 2 1 0 1 1.06 1.08 0.05 o
8 2 1 1 -1 0.00 0.06 0.05 <
8 2 1 1 0 0.19 0.42 0.05 o
8 2 1 1 1 0.57 0.53 0.05 o
8 2 2 -1 -1 0.14 0.15 0.05 <
8 2 2 -1 0 5.82 5.88 0.05 o
8 2 2 -1 1 1.00 1.10 0.05 o
8 2 2 0 -1 1.53 1.57 0.05 o
8 2 2 0 1 0.00 0.16 0.05 o
8 2 2 1 -1 0.01 0.20 0.05 o
8 2 2 1 0 4.28 4.09 0.05 o
8 2 2 1 1 0.30 0.39 0.04 o
8 2 3 -1 -1 0.51 0.68 0.05 o
8 2 3 -1 0 18.86 18.44 0.06 o
8 2 3 -1 1 0.28 0.28 0.05 o
8 2 3 0 -1 0.88 0.95 0.05 o
8 2 3 0 0 722.59 716.59 0.40 o
8 2 3 0 1 0.11 0.29 0.04 o
8 2 3 1 -1 0.03 0.15 0.05 <
8 2 3 1 0 11.63 12.39 0.06 o
8 2 3 1 1 0.22 0.26 0.04 o
8 2 4 -1 -1 0.83 1.07 0.05 o
8 2 4 -1 0 27.81 28.80 0.07 o
8 2 4 -1 1 0.17 0.23 0.05 o
8 2 4 0 -1 8.14 8.12 0.06 o
8 2 4 0 1 0.34 0.28 0.04 o
8 2 4 1 -1 0.00 0.18 0.05 o
8 2 4 1 0 1.37 1.15 0.05 o
8 2 4 1 1 2.18 2.08 0.05 o
8 2 5 -1 -1 0.07 0.12 0.05 <
8 2 5 -1 0 0.44 0.48 0.05 o
8 2 5 -1 1 0.08 0.14 0.04 o
8 2 5 0 -1 19.51 19.61 0.07 o
8 2 5 0 0 108.92 108.69 0.11 o
8 2 5 0 1 1.38 1.28 0.05 o
8 2 5 1 -1 0.01 0.16 0.05 o
8 2 5 1 0 1.05 1.08 0.05 o
8 2 5 1 1 0.63 0.66 0.04 o
8 2 6 -1 -1 0.22 0.27 0.05 o
8 2 6 -1 0 0.14 0.32 0.04 o
8 2 6 -1 1 0.37 0.35 0.04 o
8 2 6 0 -1 0.39 0.39 0.05 o
8 2 6 0 0 489.87 476.17 0.22 o
8 2 6 0 1 0.02 0.27 0.04 o
8 2 6 1 -1 0.20 0.25 0.05 o
8 2 6 1 0 10.33 9.55 0.06 o
8 2 6 1 1 0.01 0.21 0.05 o
8 2 7 -1 -1 0.34 0.37 0.05 o
8 2 7 -1 0 8.72 8.28 0.06 o
8 2 7 -1 1 0.13 0.19 0.04 o
8 2 7 0 0 407.99 382.41 0.20 o
8 2 7 0 1 0.24 0.39 0.05 o
8 2 7 1 1 0.04 0.16 0.06 <
8 3 0 -1 -1 0.18 0.23 0.08 <
8 3 0 -1 0 50.16 52.62 0.15 o
8 3 0 -1 1 2.13 2.32 0.07 o
8 3 0 0 -1 77.43 80.76 0.20 o
8 3 0 0 0 4.88 4.47 0.10 o
8 3 0 0 1 7.46 8.33 0.09 o
8 3 0 1 -1 0.25 0.19 0.10 <
8 3 0 1 0 61.44 68.97 0.18 o
8 3 1 -1 -1 0.12 0.15 0.05 <
8 3 1 -1 0 6.40 6.75 0.05 o
8 3 1 -1 1 0.78 0.99 0.05 o
8 3 1 0 -1 24.28 26.76 0.07 o
8 3 1 0 0 40.31 44.15 0.09 o
8 3 1 0 1 0.73 0.95 0.05 o
8 3 1 1 -1 0.45 0.63 0.05 o
8 3 1 1 0 0.06 0.26 0.05 o
8 3 1 1 1 0.17 0.24 0.04 o
8 3 2 -1 -1 0.02 0.22 0.04 o
8 3 2 -1 0 88.73 88.63 0.11 o
8 3 2 -1 1 3.61 3.52 0.05 o
8 3 2 0 -1 20.40 20.84 0.07 o
8 3 2 0 0 605.55 611.07 0.30 o
8 3 2 0 1 19.31 20.86 0.06 o
8 3 2 1 -1 0.04 0.24 0.04 o
8 3 2 1 0 5.09 5.30 0.05 o
8 3 2 1 1 2.41 2.54 0.05 o
8 3 3 -1 -1 0.21 0.29 0.04 o
8 3 3 -1 0 9.33 9.70 0.05 o
8 3 3 -1 1 1.53 1.63 0.04 o
8 3 3 0 -1 0.90 1.11 0.05 o
8 3 3 0 0 662.95 713.31 0.31 o
8 3 3 0 1 30.98 32.17 0.08 o
8 3 3 1 -1 0.02 0.20 0.05 o
8 3 3 1 0 10.77 12.07 0.06 o
8 3 3 1 1 0.71 0.74 0.04 o
8 3 4 -1 -1 0.03 0.22 0.04 o
8 3 4 -1 0 29.99 30.55 0.07 o
8 3 4 -1 1 0.78 0.95 0.04 o
8 3 4 0 -1 59.47 60.67 0.09 o
8 3 4 0 0 0.80 0.93 0.06 o
8 3 4 0 1 0.40 0.63 0.04 o
8 3 4 1 -1 0.06 0.15 0.05 <
8 3 4 1 0 78.24 83.80 0.10 o
8 3 4 1 1 0.01 0.22 0.04 o
8 3 5 -1 -1 0.04 0.19 0.04 o
8 3 5 -1 0 2.73 2.86 0.05 o
8 3 5 -1 1 0.24 0.45 0.04 o
8 3 5 0 -1 37.18 37.87 0.08 o
8 3 5 0 0 457.34 482.73 0.21 o
8 3 5 0 1 3.68 3.55 0.05 o
8 3 5 1 -1 1.23 1.13 0.05 o
8 3 5 1 0 3.84 3.23 0.05 o
8 3 5 1 1 0.02 0.23 0.04 o
8 3 6 -1 -1 0.03 0.16 0.05 o
8 3 6 -1 0 42.25 38.56 0.08 o
8 3 6 -1 1 0.91 0.91 0.05 o
8 3 6 0 -1 10.37 9.68 0.06 o
8 3 6 0 0 410.95 391.27 0.20 o
8 3 6 0 1 33.77 34.08 0.08 o
8 3 6 1 -1 0.01 0.27 0.05 o
8 3 6 1 0 1.40 1.12 0.05 o
8 3 6 1 1 0.78 0.83 0.05 o
8 3 7 -1 -1 0.12 0.20 0.05 o
8 3 7 -1 0 4.63 4.25 0.05 o
8 3 7 -1 1 0.76 0.55 0.05 o
8 3 7 0 1 15.52 13.40 0.06 o
8 4 0 -1 -1 5.21 5.36 0.09 o
8 4 0 -1 0 40.61 42.80 0.13 o
8 4 0 -1 1 0.98 1.16 0.07 o
8 4 0 0 -1 106.59 113.59 0.24 o
8 4 0 0 0 109.36 103.35 0.19 o
8 4 0 0 1 69.27 74.62 0.16 o
8 4 0 1 -1 4.98 4.36 0.10 o
8 4 0 1 0 10.73 10.82 0.10 o
8 4 0 1 1 0.03 0.23 0.07 o
8 4 1 -1 -1 0.05 0.28 0.05 o
8 4 1 -1 0 14.32 13.77 0.06 o
8 4 1 -1 1 0.04 0.19 0.04 o
8 4 1 0 -1 0.41 0.61 0.05 o
8 4 1 0 0 625.68 607.54 0.28 o
8 4 1 0 1 26.03 26.78 0.07 o
8 4 1 1 -1 0.07 0.25 0.05 o
8 4 1 1 0 20.34 23.32 0.07 o
8 4 1 1 1 0.97 0.92 0.05 o
8 4 2 -1 -1 1.01 1.10 0.04 o
8 4 2 -1 0 15.52 16.01 0.06 o
8 4 2 -1 1 0.13 0.25 0.04 o
8 4 2 0 -1 22.60 24.73 0.07 o
8 4 2 0 0 2.42 3.59 0.06 o
8 4 2 0 1 3.99 4.18 0.05 o
8 4 2 1 -1 0.04 0.19 0.04 o
8 4 2 1 0 0.10 0.48 0.04 o
8 4 2 1 1 1.94 2.10 0.05 o
8 4 3 -1 -1 0.07 0.23 0.05 o
8 4 3 -1 0 22.18 21.43 0.06 o
8 4 3 -1 1 0.03 0.29 0.04 o
8 4 3 0 -1 7.21 7.32 0.05 o
8 4 3 0 0 406.44 399.77 0.20 o
8 4 3 0 1 75.66 78.44 0.10 o
8 4 3 1 -1 0.43 0.47 0.04 o
8 4 3 1 0 12.03 13.52 0.06 o
8 4 3 1 1 0.02 0.11 0.04 <
8 4 4 -1 -1 3.51 3.47 0.05 o
8 4 4 -1 0 17.26 17.94 0.06 o
8 4 4 -1 1 0.35 0.45 0.04 o
8 4 4 0 -1 24.71 25.30 0.07 o
8 4 4 0 0 338.01 376.78 0.19 o
8 4 4 0 1 9.65 9.95 0.05 o
8 4 4 1 -1 3.91 3.44 0.05 o
8 4 4 1 0 12.17 12.04 0.06 o
8 4 4 1 1 0.10 0.16 0.04 o
8 4 5 -1 -1 0.01 0.18 0.04 o
8 4 5 -1 0 5.75 5.48 0.05 o
8 4 5 -1 1 0.03 0.09 0.04 <
8 4 5 0 -1 5.84 6.01 0.05 o
8 4 5 0 0 507.04 484.36 0.21 o
8 4 5 0 1 3.42 3.30 0.05 o
8 4 5 1 -1 0.00 0.21 0.05 o
8 4 5 1 0 16.80 17.75 0.06 o
8 4 5 1 1 2.15 1.74 0.05 o
8 4 6 -1 -1 0.77 0.77 0.05 o
8 4 6 -1 0 23.21 22.16 0.07 o
8 4 6 -1 1 0.00 0.17 0.04 o
8 4 6 0 -1 3.74 3.38 0.05 o
8 4 6 0 1 16.80 15.62 0.06 o
8 4 6 1 1 1.79 1.60 0.05 o
8 4 7 -1 1 0.03 0.17 0.06 <
8 5 0 -1 -1 0.09 0.12 0.08 <
8 5 0 -1 0 11.61 12.23 0.09 o
8 5 0 -1 1 1.49 1.41 0.06 o
8 5 0 0 -1 3.47 3.44 0.08 o
8 5 0 0 0 582.12 571.39 0.38 o
8 5 0 0 1 4.94 5.83 0.08 o
8 5 0 1 -1 3.19 2.97 0.08 o
8 5 0 1 0 20.88 22.27 0.11 o
8 5 0 1 1 0.90 0.80 0.07 o
8 5 1 -1 -1 0.00 0.13 0.05 <
8 5 1 -1 0 12.12 13.00 0.06 o
8 5 1 -1 1 2.43 2.39 0.06 o
8 5 1 0 -1 5.58 6.43 0.05 o
8 5 1 0 1 14.89 16.87 0.08 o
8 5 1 1 -1 0.01 0.15 0.05 <
8 5 1 1 0 1.00 0.91 0.05 o
8 5 1 1 1 1.42 1.39 0.06 o
8 5 2 -1 -1 0.67 0.62 0.05 o
8 5 2 -1 0 9.08 9.70 0.05 o
8 5 2 -1 1 1.67 1.77 0.05 o
8 5 2 0 -1 6.81 6.35 0.05 o
8 5 2 0 0 69.38 56.63 0.09 o
8 5 2 0 1 11.42 12.50 0.06 o
8 5 2 1 -1 0.19 0.33 0.04 o
8 5 2 1 0 58.61 61.69 0.09 o
8 5 2 1 1 0.20 0.24 0.05 o
8 5 3 -1 -1 0.02 0.16 0.04 o
8 5 3 -1 0 0.16 0.43 0.04 o
8 5 3 -1 1 0.72 0.54 0.04 o
8 5 3 0 -1 1.34 1.31 0.05 o
8 5 3 0 0 46.15 35.21 0.08 o
8 5 3 0 1 0.86 0.84 0.05 o
8 5 3 1 -1 0.16 0.28 0.05 o
8 5 3 1 0 0.07 0.33 0.04 o
8 5 3 1 1 1.00 0.94 0.05 o
8 5 4 -1 -1 0.22 0.18 0.04 o
8 5 4 -1 0 24.49 24.37 0.07 o
8 5 4 -1 1 0.51 0.48 0.04 o
8 5 4 0 -1 0.15 0.38 0.04 o
8 5 4 0 0 346.56 333.78 0.18 o
8 5 4 0 1 9.48 10.02 0.06 o
8 5 4 1 -1 1.67 1.57 0.05 o
8 5 4 1 0 9.39 9.03 0.06 o
8 5 4 1 1 0.47 0.55 0.05 o
8 5 5 -1 -1 0.00 0.19 0.05 o
8 5 5 -1 0 17.84 18.12 0.06 o
8 5 5 -1 1 2.43 2.30 0.05 o
8 5 5 0 -1 10.56 10.71 0.06 o
8 5 5 0 1 27.77 28.17 0.07 o
8 5 5 1 -1 0.12 0.23 0.06 o
8 5 5 1 0 1.03 0.80 0.05 o
8 5 5 1 1 1.00 0.87 0.05 o
8 5 6 -1 -1 0.09 0.27 0.05 o
8 5 6 -1 0 0.33 0.30 0.05 o
8 5 6 -1 1 0.29 0.36 0.05 o
8 6 0 -1 -1 1.13 1.28 0.07 o
8 6 0 -1 0 22.92 25.11 0.10 o
8 6 0 -1 1 0.74 0.61 0.07 o
8 6 0 0 -1 30.42 30.02 0.11 o
8 6 0 0 1 0.46 0.44 0.07 o
8 6 0 1 -1 1.98 1.59 0.09 o
8 6 0 1 0 4.03 3.48 0.08 o
8 6 0 1 1 0.17 0.37 0.07 o
8 6 1 -1 -1 1.21 1.04 0.05 o
8 6 1 -1 0 3.73 3.70 0.06 o
8 6 1 -1 1 0.92 1.08 0.05 o
8 6 1 0 -1 0.11 0.23 0.05 o
8 6 1 0 0 113.52 123.73 0.14 o
8 6 1 0 1 5.03 5.03 0.06 o
8 6 1 1 -1 0.01 0.19 0.05 o
8 6 1 1 0 19.11 20.20 0.08 o
8 6 1 1 1 0.00 0.16 0.05 o
8 6 2 -1 -1 0.43 0.52 0.04 o
8 6 2 -1 0 0.08 0.46 0.05 o
8 6 2 -1 1 0.46 0.62 0.06 o
8 6 2 0 -1 4.38 4.07 0.05 o
8 6 2 0 0 526.36 522.14 0.23 o
8 6 2 0 1 18.53 19.06 0.06 o
8 6 2 1 -1 0.14 0.23 0.05 o
8 6 2 1 0 1.49 1.94 0.05 o
8 6 2 1 1 2.42 2.42 0.05 o
8 6 3 -1 -1 0.33 0.41 0.05 o
8 6 3 -1 0 4.42 4.86 0.05 o
8 6 3 -1 1 1.92 2.17 0.05 o
8 6 3 0 -1 8.51 8.62 0.06 o
8 6 3 0 0 38.94 47.22 0.09 o
8 6 3 0 1 2.32 2.21 0.05 o
8 6 3 1 -1 0.00 0.18 0.05 o
8 6 3 1 0 2.39 2.82 0.05 o
8 6 3 1 1 0.02 0.05 0.05 <
8 6 4 -1 -1 1.15 1.27 0.05 o
8 6 4 -1 0 31.87 33.59 0.08 o
8 6 4 -1 1 0.79 0.70 0.05 o
8 6 4 0 -1 28.30 27.05 0.07 o
8 6 4 0 1 0.29 0.46 0.05 o
8 6 4 1 -1 1.46 1.26 0.06 o
8 6 4 1 0 10.01 9.26 0.06 o
8 6 4 1 1 0.09 0.17 0.05 o
8 6 5 -1 -1 1.33 1.03 0.05 o
8 6 5 -1 0 15.15 14.43 0.06 o
8 6 5 -1 1 0.30 0.39 0.05 o
8 6 5 0 1 5.31 4.91 0.06 o
8 7 0 -1 -1 1.36 1.44 0.07 o
8 7 0 -1 0 12.81 11.35 0.08 o
8 7 0 -1 1 0.04 0.22 0.06 o
8 7 0 0 -1 0.10 0.40 0.07 o
8 7 0 0 0 0.73 1.19 0.08 o
8 7 0 0 1 9.50 9.11 0.08 o
8 7 0 1 -1 0.22 0.35 0.08 o
8 7 0 1 0 62.50 63.12 0.15 o
8 7 0 1 1 0.12 0.22 0.07 o
8 7 1 -1 -1 1.23 1.13 0.05 o
8 7 1 -1 0 0.16 0.96 0.05 o
8 7 1 -1 1 0.00 0.19 0.05 o
8 7 1 0 -1 24.80 24.53 0.08 o
8 7 1 0 0 386.05 433.93 0.22 o
8 7 1 0 1 1.44 1.51 0.05 o
8 7 1 1 -1 0.31 0.27 0.06 o
8 7 1 1 0 4.13 4.50 0.06 o
8 7 1 1 1 0.05 0.17 0.05 o
8 7 2 -1 -1 2.27 2.10 0.05 o
8 7 2 -1 0 67.79 72.37 0.13 o
8 7 2 -1 1 0.02 0.12 0.05 <
8 7 2 0 -1 13.37 13.91 0.07 o
8 7 2 0 0 0.46 1.00 0.06 o
8 7 2 0 1 24.11 27.08 0.08 o
8 7 2 1 -1 1.75 1.97 0.05 o
8 7 2 1 0 27.10 27.45 0.08 o
8 7 2 1 1 0.76 0.68 0.06 o
8 7 3 -1 -1 0.48 0.50 0.05 o
8 7 3 -1 0 6.25 6.11 0.05 o
8 7 3 -1 1 0.00 0.14 0.06 <
8 7 3 0 -1 1.48 1.50 0.05 o
8 7 3 0 0 12.48 11.82 0.07 o
8 7 3 0 1 9.14 8.03 0.06 o
8 7 4 -1 -1 1.19 1.22 0.05 o
8 7 4 -1 0 17.33 15.64 0.07 o
8 7 4 -1 1 0.11 0.20 0.05 o
8 8 0 -1 1 0.59 0.73 0.07 o
8 8 0 0 1 37.12 34.61 0.12 o
8 8 1 -1 1 1.11 1.09 0.06 o
8 8 2 -1 1 0.53 0.48 0.06 o
9 0 0 0 1 3.33 3.56 0.08 o
9 0 0 1 0 87.51 95.03 0.19 o
9 0 0 1 1 2.68 2.66 0.08 o
9 0 1 -1 1 0.12 0.22 0.07 o
9 0 1 0 1 0.45 0.70 0.05 o
9 0 1 1 -1 0.52 0.42 0.07 o
9 0 1 1 0 17.56 18.89 0.08 o
9 0 1 1 1 0.76 0.64 0.05 o
9 0 2 0 1 6.61 8.32 0.05 o
9 0 2 1 0 4.14 4.52 0.05 o
9 0 2 1 1 0.03 0.22 0.05 o
9 0 3 -1 1 0.03 0.11 0.06 <
9 0 3 0 0 4.33 7.14 0.11 o
9 0 3 0 1 8.46 9.03 0.06 o
9 0 3 1 -1 0.08 0.15 0.06 <
9 0 3 1 0 1.32 1.43 0.05 o
9 0 3 1 1 0.41 0.50 0.05 o
9 0 4 0 1 0.72 1.00 0.05 o
9 0 4 1 0 92.64 94.13 0.11 o
9 0 4 1 1 1.93 1.80 0.05 o
9 0 5 -1 1 0.11 0.22 0.06 o
9 0 5 0 1 0.38 0.39 0.04 o
9 0 5 1 -1 0.68 0.38 0.07 o
9 0 5 1 0 36.35 34.44 0.08 o
9 0 5 1 1 0.84 0.67 0.05 o
9 0 6 0 1 9.46 9.83 0.06 o
9 0 6 1 0 0.16 0.23 0.15 <
9 0 6 1 1 0.01 0.18 0.05 o
9 0 7 -1 1 0.05 0.23 0.08 <
9 1 0 -1 -1 0.30 0.42 0.07 o
9 1 0 -1 0 5.77 5.62 0.08 o
9 1 0 -1 1 1.39 1.52 0.07 o
9 1 0 0 -1 18.71 19.74 0.11 o
9 1 0 0 0 303.52 311.54 0.31 o
9 1 0 0 1 20.19 21.79 0.11 o
9 1 0 1 -1 2.14 2.41 0.09 o
9 1 0 1 0 86.28 92.49 0.21 o
9 1 0 1 1 2.73 2.98 0.09 o
9 1 1 -1 -1 0.43 0.70 0.05 o
9 1 1 -1 0 13.43 14.39 0.07 o
9 1 1 -1 1 1.38 1.74 0.05 o
9 1 1 0 -1 0.49 0.64 0.05 o
9 1 1 0 0 633.58 636.66 0.33 o
9 1 1 0 1 44.81 48.18 0.09 o
9 1 1 1 -1 0.54 0.68 0.05 o
9 1 1 1 0 0.61 0.58 0.05 o
9 1 1 1 1 0.69 0.74 0.05 o
9 1 2 -1 -1 0.29 0.31 0.05 o
9 1 2 -1 0 10.79 10.21 0.07 o
9 1 2 -1 1 0.37 0.47 0.05 o
9 1 2 0 -1 6.30 6.90 0.06 o
9 1 2 0 0 118.10 123.55 0.14 o
9 1 2 0 1 46.91 49.20 0.10 o
9 1 2 1 -1 0.54 0.45 0.05 o
9 1 2 1 0 7.86 9.05 0.06 o
9 1 2 1 1 0.03 0.15 0.05 <
9 1 3 -1 -1 0.04 0.16 0.05 o
9 1 3 -1 0 0.03 0.26 0.05 o
9 1 3 -1 1 0.23 0.40 0.06 o
9 1 3 0 -1 4.16 3.78 0.05 o
9 1 3 0 0 24.02 21.48 0.07 o
9 1 3 0 1 8.32 8.68 0.07 o
9 1 3 1 -1 1.09 1.08 0.05 o
9 1 3 1 0 8.12 7.84 0.05 o
9 1 3 1 1 0.06 0.27 0.05 o
9 1 4 -1 -1 0.18 0.28 0.05 o
9 1 4 -1 0 15.84 15.30 0.06 o
9 1 4 -1 1 0.76 0.79 0.04 o
9 1 4 0 -1 34.18 35.13 0.08 o
9 1 4 0 0 918.34 933.06 0.94 o
9 1 4 0 1 13.06 13.77 0.06 o
9 1 4 1 -1 1.49 1.42 0.05 o
9 1 4 1 0 36.27 36.90 0.08 o
9 1 4 1 1 1.43 1.69 0.06 o
9 1 5 -1 -1 0.66 0.72 0.05 o
9 1 5 -1 0 22.74 22.46 0.07 o
9 1 5 -1 1 1.53 1.61 0.05 o
9 1 5 0 -1 0.01 0.17 0.05 o
9 1 5 0 0 913.45 942.07 0.45 o
9 1 5 0 1 53.75 49.65 0.11 o
9 1 5 1 -1 0.19 0.28 0.05 o
9 1 5 1 0 0.19 0.33 0.05 o
9 1 5 1 1 0.85 0.74 0.07 o
9 1 6 -1 -1 0.22 0.19 0.05 o
9 1 6 -1 0 0.01 0.11 0.04 <
9 1 6 -1 1 0.37 0.43 0.07 o
9 1 6 0 0 889.93 898.79 0.35 o
9 1 6 0 1 32.25 30.42 0.10 o
9 1 6 1 1 0.04 0.21 0.07 <
9 1 7 -1 1 0.21 0.01 0.07 <
9 2 0 -1 -1 6.33 6.29 0.10 o
9 2 0 -1 0 55.03 58.68 0.17 o
9 2 0 -1 1 0.04 0.23 0.08 <
9 2 0 0 -1 0.12 0.30 0.07 o
9 2 0 0 0 579.74 661.22 0.42 o
9 2 0 0 1 126.87 131.61 0.28 o
9 2 0 1 -1 0.67 1.18 0.07 o
9 2 0 1 0 0.25 0.37 0.07 o
9 2 0 1 1 0.50 0.72 0.07 o
9 2 1 -1 -1 0.84 1.09 0.05 o
9 2 1 -1 0 3.65 3.89 0.05 o
9 2 1 -1 1 0.08 0.17 0.05 o
9 2 1 0 -1 0.69 1.06 0.05 o
9 2 1 0 0 104.37 86.59 0.11 o
9 2 1 0 1 1.08 1.43 0.05 o
9 2 1 1 -1 0.00 0.13 0.05 <
9 2 1 1 0 9.38 10.05 0.06 o
9 2 1 1 1 2.44 2.47 0.05 o
9 2 2 -1 -1 0.04 0.14 0.05 <
9 2 2 -1 0 0.35 0.43 0.05 o
9 2 2 -1 1 0.28 0.32 0.05 o
9 2 2 0 -1 14.87 14.31 0.07 o
9 2 2 0 0 226.49 219.01 0.17 o
9 2 2 0 1 40.37 40.43 0.08 o
9 2 2 1 -1 0.55 0.53 0.05 o
9 2 2 1 0 16.61 16.73 0.07 o
9 2 2 1 1 1.61 1.72 0.05 o
9 2 3 -1 -1 0.29 0.40 0.06 o
9 2 3 -1 0 3.98 4.00 0.05 o
9 2 3 -1 1 0.00 0.20 0.05 o
9 2 3 0 -1 2.83 3.16 0.06 o
9 2 3 0 0 103.56 82.12 0.11 o
9 2 3 0 1 11.29 12.39 0.06 o
9 2 3 1 -1 0.29 0.44 0.05 o
9 2 3 1 0 12.83 13.82 0.07 o
9 2 3 1 1 1.91 1.81 0.05 o
9 2 4 -1 -1 5.33 5.39 0.05 o
9 2 4 -1 0 81.51 84.13 0.12 o
9 2 4 -1 1 0.10 0.24 0.05 o
9 2 4 0 -1 1.11 1.16 0.07 o
9 2 4 0 0 31.45 30.17 0.09 o
9 2 4 0 1 42.92 41.81 0.09 o
9 2 4 1 -1 0.29 0.35 0.06 o
9 2 4 1 0 0.07 0.21 0.05 o
9 2 4 1 1 0.03 0.21 0.05 o
9 2 5 -1 -1 0.94 1.04 0.05 o
9 2 5 -1 0 13.88 12.53 0.06 o
9 2 5 -1 1 0.13 0.20 0.05 o
9 2 5 0 -1 0.00 0.09 0.05 <
9 2 5 0 0 69.43 56.36 0.10 o
9 2 5 0 1 0.19 0.25 0.05 o
9 2 5 1 -1 0.12 0.26 0.05 o
9 2 5 1 0 2.92 2.55 0.06 o
9 2 5 1 1 1.85 1.53 0.05 o
9 2 6 -1 -1 0.00 0.07 0.05 <
9 2 6 -1 0 17.30 15.73 0.07 o
9 2 6 -1 1 0.05 0.17 0.05 o
9 2 6 0 0 89.37 101.34 0.14 o
9 2 6 0 1 0.25 0.28 0.05 o
9 3 0 -1 -1 0.76 1.28 0.07 o
9 3 0 -1 0 0.63 0.81 0.10 o
9 3 0 -1 1 1.22 1.31 0.09 o
9 3 0 0 -1 29.76 29.48 0.11 o
9 3 0 0 1 133.19 138.88 0.33 o
9 3 0 1 -1 0.01 0.18 0.07 <
9 3 0 1 0 108.79 110.79 0.18 o
9 3 0 1 1 2.00 1.89 0.07 o
9 3 1 -1 -1 0.52 0.40 0.05 o
9 3 1 -1 0 0.40 0.60 0.05 o
9 3 1 -1 1 0.06 0.23 0.05 o
9 3 1 0 -1 0.02 0.26 0.05 o
9 3 1 0 0 32.02 42.58 0.09 o
9 3 1 0 1 2.91 2.47 0.05 o
9 3 1 1 -1 0.00 0.19 0.05 o
9 3 1 1 0 0.26 0.48 0.05 o
9 3 1 1 1 0.14 0.29 0.05 o
9 3 2 -1 -1 0.19 0.45 0.05 o
9 3 2 -1 0 0.03 0.23 0.05 o
9 3 2 -1 1 1.10 1.00 0.05 o
9 3 2 0 -1 0.69 0.73 0.05 o
9 3 2 0 1 4.00 4.03 0.05 o
9 3 2 1 -1 1.87 1.95 0.05 o
9 3 2 1 0 19.29 19.54 0.07 o
9 3 2 1 1 0.06 0.14 0.05 <
9 3 3 -1 -1 0.22 0.33 0.05 o
9 3 3 -1 0 8.33 8.67 0.06 o
9 3 3 -1 1 0.26 0.36 0.04 o
9 3 3 0 -1 4.12 4.61 0.05 o
9 3 3 0 0 461.08 532.66 0.23 o
9 3 3 0 1 4.68 5.57 0.05 o
9 3 3 1 -1 0.89 0.74 0.05 o
9 3 3 1 0 7.62 7.08 0.06 o
9 3 3 1 1 0.06 0.27 0.05 o
9 3 4 -1 -1 0.59 0.54 0.05 o
9 3 4 -1 0 0.02 0.28 0.05 o
9 3 4 -1 1 1.00 0.95 0.05 o
9 3 4 0 -1 6.29 5.63 0.05 o
9 3 4 0 1 58.08 58.75 0.09 o
9 3 4 1 -1 0.11 0.18 0.05 o
9 3 4 1 0 42.48 42.78 0.09 o
9 3 4 1 1 1.19 1.10 0.05 o
9 3 5 -1 -1 0.36 0.29 0.05 o
9 3 5 -1 0 0.24 0.29 0.05 o
9 3 5 -1 1 0.02 0.20 0.04 o
9 3 5 0 -1 0.93 0.92 0.05 o
9 3 5 0 0 10.22 9.93 0.07 o
9 3 5 0 1 9.04 7.99 0.06 o
9 3 5 1 0 4.97 4.32 0.05 o
9 3 5 1 1 0.17 0.35 0.05 o
9 3 6 -1 0 1.80 1.57 0.05 o
9 3 6 -1 1 0.55 0.39 0.05 o
9 4 0 -1 -1 5.37 6.21 0.08 o
9 4 0 -1 0 9.73 7.96 0.12 o
9 4 0 -1 1 1.77 1.72 0.09 o
9 4 0 0 -1 0.81 0.68 0.07 o
9 4 0 0 0 44.51 39.84 0.11 o
9 4 0 0 1 1.46 1.85 0.10 o
9 4 0 1 -1 0.13 0.16 0.07 <
9 4 0 1 0 22.94 21.13 0.10 o
9 4 0 1 1 0.12 0.19 0.12 <
9 4 1 -1 -1 0.14 0.20 0.05 o
9 4 1 -1 0 7.30 7.97 0.06 o
9 4 1 -1 1 0.86 0.98 0.05 o
9 4 1 0 -1 14.83 15.11 0.07 o
9 4 1 0 0 379.21 383.32 0.21 o
9 4 1 0 1 9.63 9.60 0.06 o
9 4 1 1 -1 0.42 0.41 0.05 o
9 4 1 1 0 0.06 0.33 0.05 o
9 4 1 1 1 0.00 0.27 0.05 o
9 4 2 -1 -1 0.31 0.36 0.05 o
9 4 2 -1 0 10.51 11.84 0.06 o
9 4 2 -1 1 2.24 2.34 0.05 o
9 4 2 0 -1 2.96 2.89 0.05 o
9 4 2 0 0 31.63 46.13 0.09 o
9 4 2 0 1 0.61 0.85 0.05 o
9 4 2 1 -1 0.39 0.35 0.05 o
9 4 2 1 0 24.27 25.86 0.07 o
9 4 2 1 1 0.23 0.42 0.05 o
9 4 3 -1 -1 0.00 0.13 0.05 <
9 4 3 -1 0 4.15 4.31 0.05 o
9 4 3 -1 1 1.07 1.19 0.05 o
9 4 3 0 -1 6.52 6.16 0.06 o
9 4 3 0 0 170.23 172.20 0.13 o
9 4 3 0 1 4.43 4.49 0.05 o
9 4 3 1 -1 0.04 0.08 0.05 <
9 4 3 1 0 14.87 15.51 0.06 o
9 4 3 1 1 0.23 0.32 0.05 o
9 4 4 -1 -1 2.71 2.60 0.05 o
9 4 4 -1 0 11.06 10.10 0.06 o
9 4 4 -1 1 1.35 1.27 0.05 o
9 4 4 0 -1 0.69 0.91 0.05 o
9 4 4 0 0 36.58 38.12 0.08 o
9 4 4 0 1 0.15 0.32 0.05 o
9 4 4 1 -1 0.20 0.29 0.05 o
9 4 4 1 0 9.21 7.72 0.06 o
9 4 4 1 1 0.00 0.16 0.05 o
9 4 5 -1 -1 0.39 0.36 0.05 o
9 4 5 -1 0 6.78 7.18 0.05 o
9 4 5 -1 1 0.42 0.43 0.05 o
9 4 5 0 0 1040.91 990.40 0.56 o
9 4 5 0 1 28.92 27.37 0.07 o
9 5 0 -1 -1 1.09 1.20 0.07 o
9 5 0 -1 0 24.05 25.39 0.13 o
9 5 0 -1 1 0.61 0.59 0.08 o
9 5 0 0 -1 5.30 5.15 0.08 o
9 5 0 0 0 897.43 828.90 0.62 o
9 5 0 0 1 5.57 4.91 0.09 o
9 5 0 1 -1 0.47 0.51 0.07 o
9 5 0 1 0 1.02 0.82 0.06 o
9 5 0 1 1 0.49 0.57 0.09 o
9 5 1 -1 -1 0.63 0.55 0.05 o
9 5 1 -1 0 0.01 0.24 0.05 o
9 5 1 -1 1 0.12 0.28 0.05 o
9 5 1 0 -1 20.98 21.31 0.07 o
9 5 1 0 0 14.49 10.43 0.07 o
9 5 1 0 1 0.42 0.39 0.05 o
9 5 1 1 -1 0.20 0.31 0.05 o
9 5 1 1 0 7.52 7.93 0.06 o
9 5 1 1 1 0.03 0.18 0.05 o
9 5 2 -1 -1 0.01 0.19 0.05 o
9 5 2 -1 0 0.03 0.19 0.04 o
9 5 2 -1 1 0.40 0.47 0.04 o
9 5 2 0 -1 20.72 20.55 0.07 o
9 5 2 0 1 0.02 0.20 0.05 o
9 5 2 1 -1 1.94 1.80 0.05 o
9 5 2 1 0 2.31 2.23 0.05 o
9 5 2 1 1 0.48 0.54 0.05 o
9 5 3 -1 -1 0.47 0.36 0.05 o
9 5 3 -1 0 1.35 1.22 0.05 o
9 5 3 -1 1 0.03 0.23 0.05 o
9 5 3 0 -1 10.35 10.21 0.06 o
9 5 3 0 0 107.40 130.73 0.12 o
9 5 3 0 1 0.55 0.64 0.05 o
9 5 3 1 -1 0.51 0.44 0.05 o
9 5 3 1 0 0.49 0.65 0.05 o
9 5 3 1 1 0.57 0.67 0.05 o
9 5 4 -1 -1 0.65 0.64 0.05 o
9 5 4 -1 0 10.56 10.95 0.06 o
9 5 4 -1 1 0.65 0.62 0.05 o
9 5 4 0 -1 0.00 0.20 0.05 o
9 5 4 0 0 207.66 186.12 0.14 o
9 5 4 0 1 1.16 0.82 0.05 o
9 5 5 -1 0 0.36 0.42 0.05 o
9 5 5 -1 1 0.36 0.44 0.05 o
9 6 0 -1 -1 1.13 1.34 0.10 o
9 6 0 -1 0 25.74 25.94 0.12 o
9 6 0 -1 1 0.01 0.22 0.07 o
9 6 0 0 -1 1.97 2.19 0.13 o
9 6 0 0 0 51.77 76.89 0.20 o
9 6 0 0 1 7.21 8.55 0.09 o
9 6 0 1 -1 2.50 2.00 0.09 o
9 6 0 1 0 4.24 3.99 0.10 o
9 6 0 1 1 0.31 0.37 0.08 o
9 6 1 -1 -1 0.28 0.30 0.05 o
9 6 1 -1 0 14.84 14.78 0.06 o
9 6 1 -1 1 0.71 0.65 0.05 o
9 6 1 0 -1 0.00 0.21 0.05 o
9 6 1 0 0 78.22 79.86 0.11 o
9 6 1 0 1 5.41 5.19 0.06 o
9 6 1 1 -1 0.28 0.04 0.18 <
9 6 1 1 0 6.07 5.24 0.06 o
9 6 1 1 1 0.14 0.23 0.05 o
9 6 2 -1 -1 2.22 2.01 0.05 o
9 6 2 -1 0 50.84 49.23 0.09 o
9 6 2 -1 1 0.25 0.41 0.05 o
9 6 2 0 -1 16.20 16.03 0.07 o
9 6 2 0 0 235.27 221.65 0.17 o
9 6 2 0 1 2.64 2.62 0.05 o
9 6 3 -1 -1 0.17 0.26 0.05 o
9 6 3 -1 0 1.35 1.40 0.05 o
9 6 3 -1 1 0.17 0.19 0.05 o
9 6 3 0 0 220.69 216.93 0.15 o
9 6 3 0 1 1.74 1.44 0.05 o
9 6 4 -1 0 9.06 8.50 0.06 o
9 6 4 -1 1 0.04 0.20 0.05 o
9 7 0 -1 -1 0.11 0.25 0.08 o
9 7 0 -1 0 3.02 2.82 0.09 o
9 7 0 -1 1 0.19 0.40 0.07 o
9 7 1 -1 -1 0.27 0.43 0.05 o
9 7 1 -1 0 3.92 3.31 0.05 o
9 7 1 -1 1 0.19 0.30 0.06 o
9 7 2 -1 -1 1.35 1.56 0.05 o
9 7 2 -1 0 22.23 22.58 0.07 o
9 7 2 -1 1 0.12 0.24 0.05 o
10 0 0 -1 1 0.15 0.59 0.11 o
10 0 0 0 1 0.18 0.50 0.08 o
10 0 0 1 -1 6.36 6.20 0.17 o
10 0 0 1 0 13.86 14.88 0.11 o
10 0 0 1 1 2.04 2.08 0.09 o
10 0 1 0 1 5.44 6.10 0.07 o
10 0 1 1 0 0.11 0.32 0.05 o
10 0 1 1 1 0.45 0.41 0.06 o
10 0 2 -1 1 0.21 0.24 0.07 o
10 0 2 0 0 766.31 728.22 0.43 o
10 0 2 0 1 1.57 1.74 0.05 o
10 0 2 1 -1 2.36 2.35 0.08 o
10 0 2 1 0 0.01 0.21 0.05 o
10 0 2 1 1 0.22 0.29 0.05 o
10 0 3 0 1 0.03 0.22 0.05 o
10 0 3 1 0 3.96 4.17 0.05 o
10 0 3 1 1 0.03 0.11 0.05 <
10 0 4 -1 1 0.26 0.35 0.06 o
10 0 4 0 1 2.06 1.75 0.05 o
10 0 4 1 0 2.27 2.26 0.05 o
10 0 4 1 1 1.34 1.26 0.05 o
10 0 5 0 1 10.87 10.79 0.06 o
10 1 0 -1 -1 1.82 1.57 0.08 o
10 1 0 -1 0 22.78 23.44 0.12 o
10 1 0 -1 1 4.65 4.98 0.09 o
10 1 0 0 -1 67.17 62.78 0.19 o
10 1 0 0 0 170.14 180.95 0.33 o
10 1 0 0 1 4.17 4.26 0.08 o
10 1 0 1 0 84.45 81.43 0.17 o
10 1 0 1 1 2.28 2.14 0.08 o
10 1 1 -1 -1 0.01 0.18 0.05 o
10 1 1 -1 0 0.75 1.03 0.06 o
10 1 1 -1 1 0.01 0.40 0.05 o
10 1 1 0 -1 0.23 0.35 0.06 o
10 1 1 0 0 86.83 70.05 0.12 o
10 1 1 0 1 2.40 1.85 0.05 o
10 1 1 1 -1 0.41 0.43 0.06 o
10 1 1 1 0 2.35 1.77 0.06 o
10 1 1 1 1 0.01 0.21 0.05 o
10 1 2 -1 -1 0.67 0.87 0.05 o
10 1 2 -1 0 28.73 29.82 0.08 o
10 1 2 -1 1 0.24 0.33 0.04 o
10 1 2 0 -1 18.87 18.58 0.07 o
10 1 2 0 0 65.94 84.16 0.11 o
10 1 2 0 1 6.29 5.58 0.07 o
10 1 2 1 -1 0.46 0.33 0.05 o
10 1 2 1 0 57.44 56.41 0.10 o
10 1 2 1 1 2.48 2.29 0.06 o
10 1 3 -1 -1 0.01 0.25 0.05 o
10 1 3 -1 0 3.04 3.11 0.05 o
10 1 3 -1 1 0.03 0.19 0.05 o
10 1 3 0 -1 2.53 2.46 0.05 o
10 1 3 0 0 24.86 19.63 0.08 o
10 1 3 0 1 13.14 12.17 0.06 o
10 1 3 1 -1 0.04 0.21 0.05 o
10 1 3 1 0 4.48 4.87 0.06 o
10 1 3 1 1 0.41 0.52 0.05 o
10 1 4 -1 -1 0.92 0.70 0.05 o
10 1 4 -1 0 9.06 8.32 0.06 o
10 1 4 -1 1 4.56 4.59 0.05 o
10 1 4 0 -1 62.20 59.20 0.10 o
10 1 4 0 0 11.42 12.78 0.07 o
10 1 4 0 1 17.34 16.59 0.06 o
10 1 4 1 0 32.04 28.96 0.08 o
10 1 4 1 1 0.76 0.68 0.05 o
10 1 5 -1 0 0.01 0.20 0.05 o
10 1 5 -1 1 0.02 0.20 0.05 o
10 1 5 0 1 0.11 0.17 0.05 o
10 2 0 -1 -1 1.97 1.57 0.07 o
10 2 0 -1 0 4.17 4.05 0.08 o
10 2 0 -1 1 2.61 2.46 0.07 o
10 2 0 0 -1 14.27 15.15 0.10 o
10 2 0 0 0 863.86 789.87 0.65 o
10 2 0 0 1 4.25 4.96 0.08 o
10 2 0 1 -1 0.95 0.88 0.08 o
10 2 0 1 0 11.23 11.47 0.09 o
10 2 0 1 1 0.38 0.68 0.08 o
10 2 1 -1 -1 2.07 2.14 0.06 o
10 2 1 -1 0 64.11 67.21 0.11 o
10 2 1 -1 1 1.23 1.36 0.05 o
10 2 1 0 -1 0.16 0.28 0.05 o
10 2 1 0 0 24.41 27.72 0.09 o
10 2 1 0 1 2.99 3.09 0.06 o
10 2 1 1 -1 0.03 0.19 0.06 o
10 2 1 1 0 0.55 0.73 0.05 o
10 2 1 1 1 1.16 1.19 0.05 o
10 2 2 -1 -1 0.61 0.61 0.06 o
10 2 2 -1 0 14.77 14.89 0.07 o
10 2 2 -1 1 0.27 0.40 0.05 o
10 2 2 0 -1 24.58 24.58 0.09 o
10 2 2 0 0 1147.86 1024.18 1.14 o
10 2 2 0 1 4.30 4.45 0.06 o
10 2 2 1 -1 0.00 0.18 0.06 <
10 2 2 1 0 30.71 33.04 0.09 o
10 2 2 1 1 1.13 0.99 0.05 o
10 2 3 -1 -1 0.37 0.37 0.05 o
10 2 3 -1 0 14.30 14.66 0.08 o
10 2 3 -1 1 0.04 0.22 0.05 o
10 2 3 0 -1 34.84 34.22 0.08 o
10 2 3 0 0 1087.68 1055.26 1.04 o
10 2 3 0 1 22.77 21.90 0.08 o
10 2 3 1 -1 0.38 0.41 0.05 o
10 2 3 1 0 1.02 0.97 0.06 o
10 2 3 1 1 0.46 0.48 0.05 o
10 2 4 -1 -1 1.21 0.91 0.05 o
10 2 4 -1 0 8.23 7.28 0.05 o
10 2 4 -1 1 1.78 1.58 0.06 o
10 2 4 0 -1 4.40 4.08 0.06 o
10 2 4 0 0 675.18 636.61 0.27 o
10 2 4 0 1 13.20 13.22 0.07 o
10 2 4 1 1 0.42 0.30 0.05 o
10 2 5 -1 0 71.44 66.56 0.10 o
10 2 5 -1 1 1.78 1.42 0.07 o
10 2 5 0 1 24.19 24.08 0.20 o
10 3 0 -1 -1 0.41 0.51 0.08 o
10 3 0 -1 0 168.24 163.35 0.22 o
10 3 0 -1 1 11.13 10.79 0.09 o
10 3 0 0 -1 17.31 18.50 0.10 o
10 3 0 0 0 691.78 688.43 0.42 o
10 3 0 0 1 10.46 8.82 0.09 o
10 3 0 1 -1 0.26 0.29 0.08 o
10 3 0 1 0 17.95 15.98 0.10 o
10 3 0 1 1 0.05 0.20 0.07 <
10 3 1 -1 -1 0.08 0.23 0.05 o
10 3 1 -1 0 0.60 0.60 0.05 o
10 3 1 -1 1 0.25 0.38 0.05 o
10 3 1 0 -1 0.06 0.22 0.05 o
10 3 1 0 0 396.68 381.05 0.23 o
10 3 1 0 1 13.02 12.38 0.07 o
10 3 1 1 -1 2.16 1.78 0.06 o
10 3 1 1 0 7.51 7.27 0.07 o
10 3 1 1 1 0.00 0.12 0.06 <
10 3 2 -1 -1 3.79 3.43 0.06 o
10 3 2 -1 0 86.61 87.76 0.12 o
10 3 2 -1 1 1.17 1.42 0.05 o
10 3 2 0 -1 2.60 2.15 0.06 o
10 3 2 0 0 20.45 16.19 0.08 o
10 3 2 0 1 0.02 0.24 0.05 o
10 3 2 1 -1 1.39 1.21 0.06 o
10 3 2 1 0 23.87 21.91 0.08 o
10 3 2 1 1 0.35 0.33 0.05 o
10 3 3 -1 -1 0.45 0.45 0.05 o
10 3 3 -1 0 3.44 3.26 0.06 o
10 3 3 -1 1 1.18 1.17 0.05 o
10 3 3 0 -1 19.90 19.31 0.08 o
10 3 3 0 0 211.94 204.77 0.17 o
10 3 3 0 1 5.34 4.94 0.06 o
10 3 3 1 0 4.27 3.93 0.06 o
10 3 3 1 1 0.00 0.17 0.06 <
10 3 4 -1 -1 0.04 0.22 0.06 o
10 3 4 -1 0 79.38 73.86 0.11 o
10 3 4 -1 1 5.91 5.47 0.06 o
10 3 4 0 0 60.21 55.14 0.10 o
10 3 4 0 1 29.29 25.99 0.08 o
10 3 5 -1 1 0.00 0.22 0.05 o
10 4 0 -1 -1 0.00 0.20 0.07 <
10 4 0 -1 0 19.33 18.85 0.10 o
10 4 0 -1 1 0.20 0.32 0.07 o
10 4 0 0 -1 4.35 3.50 0.08 o
10 4 0 0 0 985.14 801.00 0.62 o
10 4 0 0 1 1.29 0.84 0.07 o
10 4 0 1 -1 1.33 1.04 0.08 o
10 4 0 1 0 65.43 60.92 0.15 o
10 4 0 1 1 0.90 1.12 0.07 o
10 4 1 -1 -1 0.31 0.36 0.06 o
10 4 1 -1 0 6.74 6.79 0.06 o
10 4 1 -1 1 0.15 0.26 0.05 o
10 4 1 0 -1 0.10 0.27 0.06 o
10 4 1 0 0 74.66 61.32 0.11 o
10 4 1 0 1 0.01 0.21 0.05 o
10 4 1 1 0 7.38 6.64 0.07 o
10 4 1 1 1 1.42 1.18 0.06 o
10 4 2 -1 -1 2.16 1.73 0.05 o
10 4 2 -1 0 12.90 12.86 0.06 o
10 4 2 -1 1 0.01 0.20 0.05 o
10 4 2 0 -1 29.22 28.22 0.08 o
10 4 2 0 0 50.47 46.15 0.09 o
10 4 2 0 1 7.51 7.55 0.06 o
10 4 2 1 1 0.04 0.19 0.05 o
10 4 3 -1 -1 0.29 0.33 0.05 o
10 4 3 -1 0 23.20 22.54 0.08 o
10 4 3 -1 1 0.75 0.69 0.05 o
10 4 3 0 0 8.93 6.22 0.07 o
10 4 3 0 1 1.06 1.20 0.05 o
10 4 4 -1 0 6.18 5.40 0.06 o
10 4 4 -1 1 0.43 0.36 0.05 o
10 5 0 -1 -1 1.44 1.24 0.07 o
10 5 0 -1 0 20.86 20.62 0.10 o
10 5 0 -1 1 0.00 0.14 0.06 <
10 5 0 0 -1 75.97 68.54 0.15 o
10 5 0 0 0 995.07 929.11 0.78 o
10 5 0 0 1 13.12 11.68 0.09 o
10 5 1 -1 -1 0.75 0.75 0.06 o
10 5 1 -1 0 0.01 0.25 0.06 o
10 5 1 -1 1 0.20 0.35 0.05 o
10 5 1 0 0 118.83 122.20 0.14 o
10 5 1 0 1 10.68 9.48 0.07 o
10 5 2 -1 -1 0.18 0.24 0.05 o
10 5 2 -1 0 3.40 2.50 0.05 o
10 5 2 -1 1 0.34 0.35 0.05 o
10 5 2 0 1 71.28 66.71 0.11 o
10 5 3 -1 0 1.52 1.20 0.05 o
10 5 3 -1 1 0.00 0.19 0.05 o
10 6 0 -1 0 31.92 32.15 0.12 o
10 6 0 -1 1 1.34 1.11 0.14 o
10 6 1 -1 0 0.03 0.22 0.05 o
10 6 1 -1 1 0.07 0.20 0.05 o
11 0 0 0 1 26.01 25.94 0.16 o
11 0 0 1 0 6.00 6.14 0.11 o
11 0 0 1 1 0.98 0.83 0.09 o
11 0 1 -1 1 0.01 0.20 0.08 <
11 0 1 0 0 50.24 41.95 0.15 o
11 0 1 0 1 3.08 3.35 0.06 o
11 0 1 1 0 1.36 0.91 0.12 o
11 0 1 1 1 1.16 1.12 0.06 o
11 0 2 0 1 10.52 9.97 0.06 o
11 0 2 1 1 1.11 0.98 0.06 o
11 0 3 -1 1 1.66 1.64 0.08 o
11 0 3 0 1 46.13 45.74 0.09 o
11 1 0 -1 -1 0.85 0.53 0.08 o
11 1 0 -1 0 10.12 11.36 0.11 o
11 1 0 -1 1 3.16 3.00 0.08 o
11 1 0 0 -1 23.42 23.17 0.14 o
11 1 0 0 0 836.53 816.53 0.48 o
11 1 0 0 1 83.14 79.68 0.18 o
11 1 0 1 1 0.02 0.26 0.09 <
11 1 1 -1 -1 0.54 0.59 0.06 o
11 1 1 -1 0 0.41 0.44 0.06 o
11 1 1 -1 1 0.07 0.20 0.06 o
11 1 1 0 0 92.01 73.96 0.12 o
11 1 1 0 1 4.10 4.21 0.07 o
11 1 1 1 1 0.93 0.92 0.06 o
11 1 2 -1 -1 0.36 0.31 0.06 o
11 1 2 -1 0 1.51 1.07 0.06 o
11 1 2 -1 1 1.41 1.21 0.05 o
11 1 2 0 0 306.17 300.02 0.21 o
11 1 2 0 1 6.03 6.12 0.06 o
11 1 2 1 1 0.63 0.62 0.06 o
11 1 3 -1 0 0.07 0.21 0.05 o
11 1 3 -1 1 0.00 0.20 0.05 o
11 1 3 0 1 4.20 3.31 0.06 o
11 1 4 -1 1 1.16 1.13 0.05 o
11 2 0 -1 -1 0.05 0.19 0.09 <
11 2 0 -1 0 1.46 1.35 0.08 o
11 2 0 -1 1 0.00 0.40 0.07 o
11 2 0 0 1 7.86 6.56 0.09 o
11 2 0 1 1 0.45 0.59 0.08 o
11 2 1 -1 -1 0.00 0.26 0.07 o
11 2 1 -1 0 1.15 1.17 0.06 o
11 2 1 -1 1 0.02 0.16 0.06 <
11 2 1 0 0 5.31 8.36 0.09 o
11 2 1 0 1 8.55 8.55 0.07 o
11 2 1 1 1 0.74 0.28 0.17 <
11 2 2 -1 -1 3.10 2.91 0.06 o
11 2 2 -1 0 8.58 6.86 0.07 o
11 2 2 -1 1 1.98 1.73 0.06 o
11 2 2 0 1 46.14 44.57 0.10 o
11 2 3 -1 0 1.43 1.19 0.06 o
11 2 3 -1 1 0.05 0.18 0.05 o
11 3 0 -1 -1 0.17 0.27 0.09 o
11 3 0 -1 0 1.05 1.34 0.07 o
11 3 0 -1 1 1.45 1.43 0.08 o
11 3 0 0 1 13.30 12.42 0.10 o
11 3 1 -1 -1 0.00 0.16 0.06 <
11 3 1 -1 0 5.45 5.31 0.07 o
11 3 1 -1 1 0.34 0.35 0.06 o
11 3 1 0 1 5.62 4.87 0.08 o
11 3 2 -1 0 0.53 0.50 0.06 o
11 3 2 -1 1 0.49 0.50 0.06 o
11 3 3 -1 1 0.02 0.22 0.06 o
11 4 0 -1 0 0.09 0.38 0.08 o
11 4 0 -1 1 0.44 0.49 0.07 o
11 4 1 -1 1 0.00 0.16 0.06 <
11 4 2 -1 1 1.64 0.92 0.12 o
