#------------------------------------------------------------------------------
#$Date: 2016-08-05 09:31:05 +0300 (Fri, 05 Aug 2016) $
#$Revision: 185006 $
#$URL: file:///home/coder/svn-repositories/cod/cif/2/10/76/2107630.cif $
#------------------------------------------------------------------------------
#
# This file is available in the Crystallography Open Database (COD),
# http://www.crystallography.net/. The original data for this entry
# were provided by IUCr Journals, http://journals.iucr.org/.
#
# The file may be used within the scientific community so long as
# proper attribution is given to the journal article from which the
# data were obtained.
#
data_2107630
loop_
_publ_author_name
'Mohamed, Sharmarke'
'Karothu, Durga Prasad'
'Naumov, Pan\<ce'
_publ_section_title
;
 Using crystal structure prediction to rationalize the hydration
 propensities of substituted adamantane hydrochloride salts
;
_journal_coeditor_code           GP5081
_journal_issue                   4
_journal_name_full               'Acta Crystallographica Section B'
_journal_page_first              551
_journal_page_last               561
_journal_paper_doi               10.1107/S2052520616006326
_journal_volume                  72
_journal_year                    2016
_chemical_formula_sum            'C11 H19 N'
_chemical_formula_weight         165.27
_space_group_crystal_system      monoclinic
_space_group_IT_number           11
_space_group_name_Hall           '-P 2yb'
_space_group_name_H-M_alt        'P 1 21/m 1'
_symmetry_space_group_name_Hall  '-P 2yb'
_symmetry_space_group_name_H-M   'P 1 21/m 1'
_atom_sites_solution_hydrogens   mixed
_audit_creation_method           SHELXL-2014/7
_cell_angle_alpha                90
_cell_angle_beta                 96.509(3)
_cell_angle_gamma                90
_cell_formula_units_Z            2
_cell_length_a                   8.2451(8)
_cell_length_b                   6.5202(6)
_cell_length_c                   8.8214(8)
_cell_measurement_reflns_used    13304
_cell_measurement_temperature    100(2)
_cell_measurement_theta_max      26.0
_cell_measurement_theta_min      2.3
_cell_volume                     471.18(8)
_computing_structure_refinement  'SHELXL-2014/7 (Sheldrick, 2014)'
_diffrn_ambient_temperature      100(2)
_diffrn_measured_fraction_theta_full 0.994
_diffrn_measured_fraction_theta_max 0.993
_diffrn_measurement_device_type  'Bruker APEX-II CCD'
_diffrn_measurement_method       '\f and \w scans'
_diffrn_radiation_type           MoK\a
_diffrn_radiation_wavelength     0.71073
_diffrn_reflns_av_R_equivalents  0.0387
_diffrn_reflns_av_unetI/netI     0.0156
_diffrn_reflns_Laue_measured_fraction_full 0.994
_diffrn_reflns_Laue_measured_fraction_max 0.993
_diffrn_reflns_limit_h_max       10
_diffrn_reflns_limit_h_min       -10
_diffrn_reflns_limit_k_max       8
_diffrn_reflns_limit_k_min       -8
_diffrn_reflns_limit_l_max       10
_diffrn_reflns_limit_l_min       -10
_diffrn_reflns_number            13304
_diffrn_reflns_point_group_measured_fraction_full 0.994
_diffrn_reflns_point_group_measured_fraction_max 0.993
_diffrn_reflns_theta_full        25.242
_diffrn_reflns_theta_max         26.000
_diffrn_reflns_theta_min         2.324
_exptl_absorpt_coefficient_mu    0.067
_exptl_absorpt_correction_T_max  0.746
_exptl_absorpt_correction_T_min  0.627
_exptl_absorpt_correction_type   multi-scan
_exptl_absorpt_process_details   sadabs
_exptl_crystal_colour            COLORLESS
_exptl_crystal_density_diffrn    1.165
_exptl_crystal_description       BLOCK
_exptl_crystal_F_000             184
_exptl_crystal_size_max          0.300
_exptl_crystal_size_mid          0.200
_exptl_crystal_size_min          0.200
_refine_diff_density_max         0.272
_refine_diff_density_min         -0.220
_refine_diff_density_rms         0.048
_refine_ls_extinction_method     none
_refine_ls_goodness_of_fit_ref   1.039
_refine_ls_hydrogen_treatment    mixed
_refine_ls_matrix_type           full
_refine_ls_number_parameters     68
_refine_ls_number_reflns         1000
_refine_ls_number_restraints     0
_refine_ls_restrained_S_all      1.039
_refine_ls_R_factor_all          0.0810
_refine_ls_R_factor_gt           0.0758
_refine_ls_shift/su_max          0.000
_refine_ls_shift/su_mean         0.000
_refine_ls_structure_factor_coef Fsqd
_refine_ls_weighting_details
'w=1/[\s^2^(Fo^2^)+(0.0290P)^2^+0.7802P] where P=(Fo^2^+2Fc^2^)/3'
_refine_ls_weighting_scheme      calc
_refine_ls_wR_factor_gt          0.1456
_refine_ls_wR_factor_ref         0.1478
_reflns_Friedel_coverage         0.000
_reflns_number_gt                913
_reflns_number_total             1000
_reflns_threshold_expression     'I > 2\s(I)'
_cod_data_source_file            gp5081sup1.cif
_cod_data_source_block           3
_cod_depositor_comments
'Adding full bibliography for 2107630--2107631.cif.'
_cod_database_code               2107630
_cod_database_fobs_code          2107630
_shelx_space_group_comment
;
The symmetry employed for this shelxl refinement is uniquely defined
by the following loop, which should always be used as a source of
symmetry information in preference to the above space-group names.
They are only intended as comments.
;
_shelx_estimated_absorpt_t_min   0.980
_shelx_estimated_absorpt_t_max   0.987
_shelx_res_file
;

    shelx.res created by SHELXL-2014/7


TITL 3
CELL 0.71073 8.2451 6.5202 8.8214 90 96.509 90
ZERR 2 0.0008 0.0006 0.0008 0 0.003 0
LATT 1
SYMM -X,0.5+Y,-Z
SFAC C H N
UNIT 22 38 2

L.S. 15
PLAN  10
TEMP -172.17
SIZE 0.2 0.2 0.3
CONF
ACTA
fmap 2
OMIT 0 52
OMIT -4 2 1
OMIT 4 2 1
OMIT 0 6 6
OMIT -4 1 5
OMIT 6 6 2
OMIT -8 0 5
OMIT 2 7 1
REM <olex2.extras>
REM <HklSrc "%.\\mo_4_New_Sha_0m.hkl">
REM </olex2.extras>

WGHT    0.028952    0.780184
FVAR       0.54635
C1    1    0.816951    0.750000    0.637276    10.50000    0.01454    0.02374 =
         0.01417    0.00000    0.00210    0.00000
C2    1    0.709642    0.560087    0.638357    11.00000    0.03530    0.01410 =
         0.04097   -0.00410    0.00578    0.00011
C3    1    0.616863    0.560871    0.779346    11.00000    0.03547    0.04088 =
         0.04753    0.01926    0.00971   -0.01484
C4    1    0.738775    0.561814    0.922900    11.00000    0.04276    0.11541 =
         0.04367    0.05249    0.01322    0.01073
C5    1    0.845230    0.750000    0.923679    10.50000    0.01935    0.13419 =
         0.01152    0.00000    0.00061    0.00000
C6    1    0.937927    0.750000    0.782625    10.50000    0.01410    0.07424 =
         0.01772    0.00000    0.00086    0.00000
C7    1    0.509365    0.750000    0.776411    10.50000    0.01534    0.07254 =
         0.02768    0.00000    0.00748    0.00000
C8    1    0.824423    0.750000    0.355787    10.50000    0.03136    0.07661 =
         0.01397    0.00000    0.00536    0.00000
N1    3    0.916124    0.750000    0.508105    10.50000    0.01808    0.05468 =
         0.01574    0.00000    0.00372    0.00000
H1    2    0.978443    0.872500    0.515433    10.50000   -1.20000

AFIX  23
H2A   2    0.778280    0.435437    0.639033    11.00000   -1.20000
H2B   2    0.630913    0.557456    0.544892    11.00000   -1.20000
AFIX   0

AFIX  13
H3    2    0.547235    0.435227    0.778715    11.00000   -1.20000
AFIX   0

AFIX  23
H4A   2    0.679565    0.561615    1.014461    11.00000   -1.20000
H4B   2    0.807411    0.436996    0.925609    11.00000   -1.20000
AFIX   0


AFIX  13
H5    2    0.925147    0.750001    1.017838    10.50000   -1.20000
AFIX   0

AFIX  23
H6A   2    1.008518    0.627034    0.784035    10.50000   -1.20000
H6B   2    1.008518    0.872966    0.784035    10.50000   -1.20000
AFIX   0





AFIX  23
H7A   2    0.447136    0.750002    0.866022    10.50000   -1.20000
H7B   2    0.430597    0.749999    0.682951    10.50000   -1.20000
AFIX   0

PART -1
AFIX 137
H8A   2    0.741629    0.858425    0.349798    10.50000   -1.50000
H8B   2    0.770986    0.616771    0.336628    10.50000   -1.50000
H8C   2    0.899318    0.774804    0.279057    10.50000   -1.50000
AFIX   0
PART 0

HKLF 4



REM  3
REM R1 =  0.0758 for     913 Fo > 4sig(Fo)  and  0.0810 for all    1000 data
REM     68 parameters refined using      0 restraints

END

WGHT      0.0374      0.5305

REM Highest difference peak  0.272,  deepest hole -0.220,  1-sigma level  0.048
Q1    1   0.8808  0.7500  0.7040  10.50000  0.05    0.27
Q2    1   0.7045  0.5146  0.8633  11.00000  0.05    0.20
Q3    1   0.7688  0.8465  0.6374  11.00000  0.05    0.20
Q4    1   0.9239  0.8606  1.0050  11.00000  0.05    0.18
Q5    1   0.8621  0.7500  0.5774  10.50000  0.05    0.18
Q6    1   0.6664  0.5626  0.7139  11.00000  0.05    0.17
Q7    1   0.9919  0.9917  0.7662  11.00000  0.05    0.17
Q8    1   0.7141  0.7500  0.3336  10.50000  0.05    0.16
Q9    1   0.8882  0.7802  0.8534  11.00000  0.05    0.16
Q10   1   0.6757  0.6370  1.0479  11.00000  0.05    0.16
;
_shelx_res_checksum              95428
_shelx_hkl_file
;
   1   0   0    2.02    0.11
  -1   0   0    1.79    0.11
  -1   0   0    1.82    0.11
  -1   0   0    1.78    0.11
  -1   0   0    1.81    0.11
  -1   0   0    1.65    0.11
   1   0   0    1.75    0.10
   1   0   0    1.82    0.11
   1   0   0    1.65    0.12
   1   0   0    1.79    0.11
  -2   0   0  179.30    6.96
  -2   0   0  171.12    6.87
   2   0   0  178.10    6.91
   2   0   0  182.67    6.99
   2   0   0  195.89    6.92
   2   0   0  182.07    6.92
   2   0   0  171.80    6.97
  -2   0   0  180.56    6.88
  -2   0   0  173.83    6.89
  -2   0   0  174.55    6.90
   3   0   0    2.52    0.19
   3   0   0    3.00    0.19
   3   0   0    2.72    0.19
   3   0   0    2.80    0.17
  -3   0   0    2.64    0.22
  -3   0   0    2.50    0.22
   3   0   0    2.60    0.20
  -3   0   0    2.54    0.21
  -3   0   0    2.73    0.21
  -3   0   0    2.79    0.19
   4   0   0    4.99    0.30
   4   0   0    3.94    0.31
   4   0   0    4.93    0.29
   4   0   0    5.13    0.37
   4   0   0    4.37    0.27
  -4   0   0    4.78    0.34
  -4   0   0    4.05    0.34
  -4   0   0    4.72    0.29
  -4   0   0    4.10    0.32
  -4   0   0    4.82    0.32
  -5   0   0    7.33    0.45
  -5   0   0    7.47    0.46
   5   0   0    7.11    0.41
   5   0   0    7.35    0.39
   5   0   0    6.97    0.38
  -5   0   0    6.78    0.42
   5   0   0    7.24    0.37
  -5   0   0    6.88    0.38
  -5   0   0    6.78    0.41
   6   0   0    0.94    0.17
  -6   0   0    1.06    0.28
   6   0   0    1.02    0.22
  -6   0   0    0.85    0.25
  -6   0   0    1.18    0.22
   6   0   0    0.95    0.19
  -6   0   0    0.83    0.22
   6   0   0    0.87    0.21
  -6   0   0    1.16    0.28
  -7   0   0    0.69    0.30
  -7   0   0    0.92    0.33
   7   0   0    0.57    0.21
  -7   0   0    0.72    0.32
   7   0   0    0.70    0.20
   7   0   0    0.74    0.23
  -7   0   0    0.69    0.25
   7   0   0    0.71    0.25
  -7   0   0    0.64    0.24
  -8   0   0    0.83    0.36
  -8   0   0    0.29    0.28
   8   0   0    0.95    0.30
  -8   0   0    0.62    0.35
   8   0   0    0.73    0.22
   8   0   0    0.71    0.27
   9   0   0   55.53    2.45
   9   0   0   58.66    2.50
  -9   0   0   59.67    2.51
  -9   0   0   59.70    2.53
  -9   0   0   63.07    2.61
 -10   0   0    2.42    0.55
 -10   0   0    4.11    0.61
  10   0   0    3.46    0.50
  11   0   0    3.49    0.49
 -11   0   0    3.82    0.70
   0  -1   0   -0.07    0.07
   0   1   0   -0.16    0.08
   0   1   0   -0.09    0.07
   0   1   0   -0.08    0.08
   0   1   0   -0.06    0.07
   0   1   0   -0.07    0.07
   0   1   0   -0.01    0.08
   0   1   0   -0.10    0.07
   0   1   0   -0.04    0.06
   0   1   0   -0.12    0.06
   1  -1   0  875.48   34.92
   1  -1   0  896.87   35.02
   1  -1   0  894.22   36.09
  -1  -1   0  883.39   35.00
  -1  -1   0  893.68   35.66
  -1  -1   0  901.71   37.11
  -1  -1   0  874.90   36.42
   1  -1   0  914.99   35.67
   1   1   0  873.68   36.08
   1   1   0  863.62   36.01
  -1   1   0 1000.00   37.75
   1   1   0  949.98   37.12
   1   1   0  939.11   35.10
  -1   1   0  928.85   35.09
  -1   1   0  897.42   37.48
  -1   1   0  989.25   37.38
   1   1   0  916.38   37.71
  -1   1   0  900.16   36.84
  -1   1   0  906.42   37.84
  -1   1   0  917.64   35.98
   1   1   0  983.43   35.50
  -2  -1   0  219.32    8.50
  -2  -1   0  220.24    8.44
   2  -1   0  221.60    8.46
   2  -1   0  229.41    8.40
  -2  -1   0  217.83    8.48
   2  -1   0  207.65    8.46
  -2  -1   0  235.09    8.37
   2  -1   0  227.08    8.51
  -2  -1   0  208.31    8.46
  -2   1   0  227.56    8.52
  -2   1   0  204.97    8.57
  -2   1   0  231.74    8.54
   2   1   0  223.85    8.43
  -2   1   0  218.15    8.43
   2   1   0  212.85    8.53
   2   1   0  221.89    8.56
  -2   1   0  218.96    8.54
  -2   1   0  211.50    8.49
   2   1   0  207.36    8.48
   2   1   0  225.50    8.46
   2   1   0  209.46    8.48
  -3  -1   0   28.67    1.20
   3  -1   0   30.38    1.15
  -3  -1   0   30.17    1.16
  -3  -1   0   30.35    1.21
  -3  -1   0   28.24    1.21
   3  -1   0   31.96    1.19
   3  -1   0   28.35    1.19
  -3  -1   0   29.18    1.19
   3  -1   0   30.84    1.19
  -3   1   0   30.10    1.16
   3   1   0   28.10    1.22
  -3   1   0   27.83    1.22
  -3   1   0   28.45    1.20
   3   1   0   27.99    1.21
   3   1   0   30.90    1.20
  -3   1   0   28.01    1.21
   3   1   0   30.11    1.20
  -3   1   0   30.15    1.24
  -3   1   0   31.51    1.21
   3   1   0   31.60    1.17
   4  -1   0    3.33    0.26
  -4  -1   0    2.96    0.30
   4  -1   0    3.51    0.20
   4  -1   0    3.11    0.26
  -4  -1   0    3.49    0.22
   4  -1   0    3.63    0.26
  -4  -1   0    3.84    0.32
  -4  -1   0    3.24    0.27
  -4  -1   0    2.73    0.26
  -4   1   0    4.00    0.23
  -4   1   0    2.88    0.30
   4   1   0    3.94    0.23
   4   1   0    3.30    0.26
  -4   1   0    3.11    0.28
  -4   1   0    3.00    0.33
  -4   1   0    3.01    0.31
   4   1   0    3.58    0.27
   4   1   0    2.89    0.28
   4   1   0    3.27    0.30
   5  -1   0    0.04    0.09
   5  -1   0    0.09    0.13
   5  -1   0    0.04    0.14
  -5  -1   0   -0.01    0.18
  -5  -1   0   -0.05    0.18
   5  -1   0   -0.06    0.14
  -5  -1   0   -0.02    0.12
  -5  -1   0    0.07    0.17
  -5  -1   0    0.14    0.21
   5   1   0   -0.01    0.15
  -5   1   0    0.05    0.20
  -5   1   0   -0.04    0.18
   5   1   0    0.01    0.11
  -5   1   0    0.00    0.13
   5   1   0    0.01    0.15
  -5   1   0    0.15    0.22
   5   1   0    0.06    0.15
  -5   1   0   -0.02    0.17
   6  -1   0    0.99    0.16
   6  -1   0    1.11    0.21
  -6  -1   0    1.00    0.24
   6  -1   0    1.30    0.22
  -6  -1   0    1.01    0.29
   6  -1   0    1.10    0.21
  -6  -1   0    1.07    0.18
  -6  -1   0    1.39    0.27
  -6  -1   0    1.25    0.26
  -6   1   0    1.10    0.28
  -6   1   0    1.30    0.21
  -6   1   0    1.17    0.29
  -6   1   0    1.28    0.28
   6   1   0    1.02    0.24
   6   1   0    1.12    0.22
  -6   1   0    1.37    0.32
   6   1   0    1.15    0.18
   6   1   0    0.94    0.23
  -7  -1   0    4.05    0.40
   7  -1   0    4.25    0.35
  -7  -1   0    5.05    0.48
   7  -1   0    4.42    0.37
  -7  -1   0    4.30    0.44
   7  -1   0    4.54    0.39
  -7  -1   0    4.27    0.47
   7   1   0    3.95    0.41
  -7   1   0    3.95    0.46
  -7   1   0    4.62    0.54
  -7   1   0    3.81    0.37
   7   1   0    4.24    0.31
  -7   1   0    3.90    0.43
   7   1   0    3.98    0.42
  -7   1   0    4.07    0.43
   7   1   0    4.06    0.38
  -8  -1   0    2.47    0.39
   8  -1   0    1.99    0.34
  -8  -1   0    2.66    0.48
  -8  -1   0    2.58    0.40
   8  -1   0    2.21    0.32
   8  -1   0    2.50    0.39
  -8   1   0    1.96    0.40
   8   1   0    2.28    0.39
  -8   1   0    2.36    0.42
   8   1   0    1.98    0.35
  -8   1   0    2.30    0.41
   9  -1   0    3.07    0.38
  -9  -1   0    2.99    0.53
  -9  -1   0    2.94    0.45
   9  -1   0    4.44    0.46
   9  -1   0    3.21    0.40
   9   1   0    3.11    0.42
  -9   1   0    3.48    0.51
   9   1   0    3.52    0.46
 -10  -1   0   24.28    1.22
  10  -1   0   23.83    1.17
  10  -1   0   23.36    1.16
 -10  -1   0   24.08    1.26
  10   1   0   23.29    1.23
 -10   1   0   24.66    1.27
  10   1   0   22.03    1.16
 -10   1   0   24.15    1.27
  11  -1   0    1.06    0.38
 -11  -1   0    1.50    0.54
  11   1   0    1.70    0.41
 -11   1   0    2.01    0.52
   0  -2   0   26.52    1.12
   0  -2   0   28.11    1.12
   0   2   0   27.53    1.13
   0   2   0   27.86    1.13
   0   2   0   26.28    1.12
   0   2   0   27.92    1.13
   0   2   0   28.29    1.12
   0   2   0   27.93    1.12
   0   2   0   27.05    1.11
   0   2   0   27.53    1.11
   0   2   0   28.97    1.13
   1  -2   0  295.94   11.35
  -1  -2   0  306.50   11.37
   1  -2   0  279.49   11.34
   1  -2   0  289.46   13.21
  -1  -2   0  282.07   11.38
  -1  -2   0  294.63   11.38
   1  -2   0  283.44   11.25
  -1  -2   0  303.07   11.40
  -1  -2   0  266.83   11.31
  -1   2   0  275.26   11.39
  -1   2   0  305.75   11.40
   1   2   0  292.58   11.43
   1   2   0  283.19   11.31
   1   2   0  307.27   11.38
   1   2   0  281.74   11.26
   1   2   0  307.39   11.43
   1   2   0  288.70   11.38
  -1   2   0  302.70   11.42
  -1   2   0  281.09   11.36
  -1   2   0  300.93   11.39
  -1   2   0  305.31   11.31
   1   2   0  315.72   11.38
  -1   2   0  303.78   11.40
   1   2   0  310.84   11.34
  -1   2   0  273.02   11.49
  -1   2   0  291.87   11.41
   1   2   0  296.54   11.31
  -2  -2   0  173.34    6.89
   2  -2   0  174.17    6.88
  -2  -2   0  181.15    7.00
  -2  -2   0  182.04    6.89
   2  -2   0  180.67    6.92
  -2  -2   0  182.94    6.88
   2  -2   0  181.66    6.88
  -2  -2   0  179.92    6.95
   2  -2   0  178.20    6.90
   2  -2   0  185.89    6.96
  -2   2   0  173.11    6.89
   2   2   0  175.90    6.95
   2   2   0  183.16    6.92
  -2   2   0  173.86    6.92
  -2   2   0  167.75    6.90
   2   2   0  182.84    6.97
  -2   2   0  180.39    6.95
   2   2   0  183.92    6.91
  -2   2   0  182.97    6.92
  -2   2   0  189.38    6.90
   2   2   0  177.73    6.92
   2   2   0  176.50    6.90
   3  -2   0  289.90   10.99
   3  -2   0  272.36   10.99
  -3  -2   0  292.34   11.11
   3  -2   0  297.67   10.95
  -3  -2   0  269.77   10.92
  -3  -2   0  285.06   10.98
  -3  -2   0  294.33   11.04
   3  -2   0  301.70   11.13
   3   2   0  282.18   10.99
   3   2   0  272.07   11.05
   3   2   0  284.04   11.11
  -3   2   0  301.09   10.96
   3   2   0  312.20   11.09
   3   2   0  289.63   11.09
  -3   2   0  286.20   10.96
   3   2   0  278.59   11.05
  -3   2   0  273.99   11.09
  -3   2   0  280.42   11.08
  -3   2   0  263.72   11.09
  -3   2   0  277.05   11.00
   4  -2   0   11.51    0.51
  -4  -2   0   10.51    0.56
   4  -2   0   11.97    0.44
  -4  -2   0   10.87    0.53
  -4  -2   0   10.78    0.52
  -4  -2   0   11.44    0.57
   4  -2   0   10.39    0.53
   4  -2   0   11.57    0.53
   4   2   0   11.13    0.48
  -4   2   0   10.45    0.59
  -4   2   0   10.45    0.60
  -4   2   0   11.31    0.56
  -4   2   0   10.09    0.53
   4   2   0   10.44    0.56
   4   2   0   10.90    0.60
   4   2   0   10.99    0.54
  -4   2   0   11.16    0.46
  -4   2   0   10.75    0.58
  -5  -2   0    0.38    0.21
  -5  -2   0    0.43    0.18
   5  -2   0    0.43    0.16
  -5  -2   0    0.40    0.19
   5  -2   0    0.47    0.17
   5  -2   0    0.46    0.17
  -5  -2   0    0.52    0.24
   5   2   0    0.37    0.13
  -5   2   0    0.45    0.11
   5   2   0    0.40    0.20
  -5   2   0    0.40    0.19
  -5   2   0    0.33    0.22
   5   2   0    0.40    0.22
  -5   2   0    0.51    0.24
   5   2   0    0.37    0.18
  -5   2   0    0.20    0.22
  -6  -2   0   12.82    0.67
   6  -2   0   13.98    0.63
  -6  -2   0   12.44    0.69
   6  -2   0   12.19    0.63
  -6  -2   0   12.84    0.65
   6  -2   0   14.09    0.64
  -6  -2   0   13.23    0.71
  -6   2   0   11.69    0.72
   6   2   0   11.88    0.67
   6   2   0   11.58    0.68
  -6   2   0   12.11    0.65
  -6   2   0   12.30    0.70
  -6   2   0   12.35    0.74
   6   2   0   12.76    0.58
   6   2   0   12.72    0.65
  -7  -2   0   17.35    0.91
   7  -2   0   16.52    0.82
  -7  -2   0   17.69    0.85
   7  -2   0   18.18    0.83
  -7  -2   0   17.45    0.88
   7  -2   0   17.82    0.82
  -7  -2   0   17.94    0.87
   7   2   0   15.83    0.87
  -7   2   0   16.47    0.86
  -7   2   0   17.00    0.91
   7   2   0   16.24    0.90
  -7   2   0   16.65    0.94
   7   2   0   16.44    0.84
  -7   2   0   16.04    0.92
   8  -2   0   17.02    0.83
  -8  -2   0   17.09    0.87
   8  -2   0   15.93    0.81
  -8  -2   0   17.88    0.89
  -8  -2   0   16.19    0.92
   8  -2   0   17.98    0.84
  -8  -2   0   15.97    0.88
  -8   2   0   16.21    0.90
  -8   2   0   17.81    1.01
   8   2   0   14.78    0.91
  -8   2   0   15.58    0.93
  -8   2   0   15.32    0.97
   8   2   0   15.46    0.84
   8   2   0   15.10    0.91
  -9  -2   0    3.07    0.58
   9  -2   0    2.95    0.39
  -9  -2   0    2.83    0.48
   9  -2   0    2.50    0.36
  -9   2   0    3.47    0.56
  -9   2   0    2.34    0.46
  -9   2   0    2.66    0.47
   9   2   0    2.53    0.40
   9   2   0    3.03    0.52
  10  -2   0   -0.12    0.29
 -10  -2   0   -0.77    0.44
 -10  -2   0   -0.31    0.47
  10  -2   0   -0.05    0.26
 -10   2   0    0.33    0.37
 -10   2   0    0.76    0.45
  10   2   0    0.71    0.35
  10   2   0    0.80    0.39
 -11  -2   0   -0.26    0.52
  11   2   0    0.59    0.37
 -11   2   0    1.45    0.56
 -11   2   0    0.76    0.46
  11   2   0    0.83    0.38
   0  -3   0   -0.30    0.16
   0  -3   0   -0.33    0.16
   0   3   0   -0.33    0.18
   0   3   0   -0.16    0.14
   0   3   0   -0.22    0.16
   0   3   0   -0.27    0.17
   0   3   0   -0.16    0.15
   0   3   0   -0.18    0.18
   0   3   0   -0.32    0.16
   0   3   0   -0.07    0.18
   0   3   0   -0.21    0.17
   1  -3   0    9.93    0.54
   1  -3   0   10.43    0.55
  -1  -3   0   11.92    0.55
  -1  -3   0   11.26    0.54
  -1  -3   0   11.43    0.53
  -1  -3   0   10.11    0.58
   1  -3   0   10.16    0.54
   1  -3   0   10.91    0.58
  -1  -3   0   11.15    0.55
   1   3   0   10.91    0.57
  -1   3   0   11.97    0.54
  -1   3   0   12.11    0.57
  -1   3   0   12.96    0.56
   1   3   0   13.12    0.55
  -1   3   0   12.02    0.56
  -1   3   0   11.24    0.55
  -1   3   0   11.09    0.57
  -1   3   0   12.81    0.57
   1   3   0   11.78    0.60
   1   3   0   11.57    0.54
   1   3   0   12.72    0.60
   1   3   0   11.25    0.56
   1   3   0   13.32    0.57
  -1   3   0   11.09    0.55
   1   3   0   11.63    0.53
  -1   3   0   10.57    0.59
  -2  -3   0  337.96   14.03
   2  -3   0  361.72   14.04
   2  -3   0  361.51   14.12
  -2  -3   0  371.84   14.20
  -2  -3   0  360.41   14.23
  -2  -3   0  376.56   15.29
  -2  -3   0  363.39   14.08
  -2  -3   0  364.38   14.10
   2  -3   0  374.27   14.21
   2   3   0  349.92   14.21
  -2   3   0  351.48   14.23
   2   3   0  379.14   14.20
  -2   3   0  349.54   14.02
   2   3   0  350.33   14.19
   2   3   0  318.45   14.06
  -2   3   0  391.75   14.18
  -2   3   0  374.91   14.14
  -2   3   0  362.44   14.29
   2   3   0  361.96   14.12
  -2   3   0  402.31   14.23
   2   3   0  402.40   16.08
  -2   3   0  362.18   14.23
   2   3   0  382.95   14.21
   3  -3   0   45.31    1.77
   3  -3   0   43.78    1.80
  -3  -3   0   44.74    1.76
  -3  -3   0   46.47    1.78
   3  -3   0   46.87    1.73
  -3  -3   0   44.10    1.81
   3  -3   0   45.97    1.79
  -3   3   0   41.72    1.81
  -3   3   0   44.73    1.74
  -3   3   0   43.02    1.79
  -3   3   0   43.67    1.84
   3   3   0   43.35    1.80
   3   3   0   43.22    1.75
   3   3   0   43.41    1.83
  -3   3   0   43.55    1.86
  -3   3   0   47.13    1.83
   3   3   0   42.06    1.77
   3   3   0   46.34    1.87
   4  -3   0   24.01    0.87
   4  -3   0   21.26    0.97
   4  -3   0   23.32    0.94
  -4  -3   0   22.79    0.95
  -4  -3   0   21.15    1.00
   4  -3   0   22.89    0.96
  -4  -3   0   22.77    1.00
  -4  -3   0   22.91    0.94
   4   3   0   22.08    0.95
  -4   3   0   20.83    1.00
  -4   3   0   20.68    0.96
   4   3   0   21.71    0.97
  -4   3   0   21.74    1.03
  -4   3   0   22.30    1.00
  -4   3   0   22.11    0.89
  -4   3   0   21.17    1.04
   4   3   0   22.41    1.04
   4   3   0   20.97    1.00
   4   3   0   21.38    0.91
   5  -3   0    2.59    0.29
  -5  -3   0    2.78    0.37
  -5  -3   0    2.00    0.34
  -5  -3   0    2.88    0.28
  -5  -3   0    2.87    0.31
   5  -3   0    2.03    0.29
   5  -3   0    2.70    0.29
   5   3   0    2.59    0.31
  -5   3   0    1.94    0.38
  -5   3   0    2.86    0.44
  -5   3   0    2.26    0.27
  -5   3   0    2.36    0.33
   5   3   0    2.44    0.20
   5   3   0    2.07    0.32
   5   3   0    2.20    0.35
  -5   3   0    2.24    0.37
  -6  -3   0    4.19    0.38
   6  -3   0    3.79    0.36
   6  -3   0    4.03    0.34
  -6  -3   0    3.11    0.42
   6  -3   0    3.42    0.36
  -6  -3   0    3.98    0.37
  -6  -3   0    3.65    0.46
   6   3   0    3.24    0.34
   6   3   0    3.00    0.42
  -6   3   0    3.74    0.49
   6   3   0    2.95    0.39
  -6   3   0    2.70    0.47
  -6   3   0    3.18    0.34
  -6   3   0    3.26    0.43
  -7  -3   0   23.84    1.05
   7  -3   0   25.05    1.03
   7  -3   0   22.02    1.05
  -7  -3   0   23.06    1.05
  -7  -3   0   22.37    1.10
   7  -3   0   23.74    1.05
  -7  -3   0   23.07    1.14
  -7   3   0   21.87    1.19
   7   3   0   21.16    1.06
  -7   3   0   21.86    1.14
  -7   3   0   21.57    1.06
  -7   3   0   23.00    1.18
   7   3   0   20.97    1.11
   7   3   0   22.73    1.17
   8  -3   0    5.92    0.51
  -8  -3   0    5.64    0.56
   8  -3   0    5.83    0.48
  -8  -3   0    5.92    0.63
  -8   3   0    5.83    0.62
   8   3   0    6.04    0.58
  -8   3   0    6.21    0.54
  -8   3   0    6.67    0.73
   8   3   0    5.67    0.49
   8   3   0    5.94    0.56
   9  -3   0    2.03    0.39
  -9  -3   0    2.19    0.48
   9  -3   0    2.17    0.38
  -9  -3   0    2.42    0.58
   9   3   0    2.21    0.47
   9   3   0    2.16    0.39
  -9   3   0    2.66    0.44
  -9   3   0    2.20    0.51
   9   3   0    2.53    0.50
  -9   3   0    2.74    0.55
  10  -3   0    3.26    0.48
  10  -3   0    3.32    0.50
 -10  -3   0    4.63    0.76
 -10  -3   0    3.10    0.57
  10   3   0    4.44    0.65
 -10   3   0    3.17    0.66
  10   3   0    4.11    0.54
 -10   3   0    5.08    0.61
 -10   3   0    4.74    0.70
 -11  -3   0    4.69    0.78
  11  -3   0    4.83    0.58
  11  -3   0    4.45    0.58
 -11   3   0    6.76    0.68
  11   3   0    6.33    0.64
  11   3   0    6.56    0.75
   0  -4   0  113.01    4.63
   0  -4   0  111.52    4.63
   0  -4   0  114.81    4.64
   0  -4   0  108.00    4.64
   0   4   0  127.04    4.69
   0   4   0  122.08    4.66
   0   4   0  124.07    4.65
   0   4   0  126.25    4.67
   0   4   0  119.19    4.64
   0   4   0  122.30    4.66
   0   4   0  120.29    4.67
   0   4   0  119.69    4.64
   0   4   0  121.40    4.65
  -1  -4   0   10.56    0.52
   1  -4   0    9.27    0.52
  -1  -4   0    9.76    0.52
  -1  -4   0   10.71    0.51
   1  -4   0    9.49    0.52
   1  -4   0    9.41    0.51
  -1  -4   0   10.41    0.53
   1  -4   0   10.58    0.55
  -1  -4   0    9.24    0.53
   1   4   0    9.98    0.52
   1   4   0   10.88    0.55
  -1   4   0   10.32    0.53
  -1   4   0    9.89    0.54
  -1   4   0   10.43    0.54
  -1   4   0   10.30    0.59
   1   4   0   10.41    0.58
   1   4   0   10.90    0.52
  -1   4   0   10.54    0.52
  -1   4   0   11.10    0.55
  -1   4   0    9.98    0.52
  -1   4   0   10.76    0.56
  -1   4   0   10.57    0.54
   1   4   0   10.27    0.56
   1   4   0   10.33    0.58
   1   4   0    9.81    0.51
   1   4   0   10.15    0.52
  -2  -4   0    0.92    0.19
   2  -4   0    0.71    0.17
  -2  -4   0    1.22    0.22
  -2  -4   0    1.17    0.26
  -2  -4   0    1.30    0.21
  -2  -4   0    1.39    0.28
   2  -4   0    0.77    0.18
   2  -4   0    1.03    0.21
  -2   4   0    0.93    0.25
   2   4   0    0.82    0.22
  -2   4   0    1.51    0.26
  -2   4   0    1.16    0.23
  -2   4   0    1.47    0.22
   2   4   0    0.93    0.19
   2   4   0    1.36    0.19
   2   4   0    0.83    0.19
  -2   4   0    0.77    0.21
   2   4   0    0.90    0.27
   2   4   0    1.27    0.27
  -2   4   0    0.88    0.22
  -2   4   0    1.20    0.24
  -2   4   0    1.26    0.20
  -3  -4   0   20.11    0.92
   3  -4   0   20.56    0.90
  -3  -4   0   20.17    0.86
  -3  -4   0   19.92    0.88
  -3  -4   0   18.88    0.93
   3  -4   0   20.87    0.89
   3  -4   0   20.92    0.85
  -3  -4   0   19.49    0.82
   3  -4   0   19.59    0.91
  -3  -4   0   20.17    0.88
  -3   4   0   21.12    0.85
   3   4   0   19.87    0.88
   3   4   0   18.60    0.89
  -3   4   0   19.22    0.95
   3   4   0   22.09    0.98
   3   4   0   18.95    0.85
   3   4   0   19.05    0.94
  -3   4   0   19.06    0.93
  -3   4   0   21.61    0.95
  -3   4   0   18.94    0.97
  -3   4   0   19.19    0.89
   3   4   0   20.31    0.98
  -4  -4   0    2.75    0.39
   4  -4   0    1.93    0.36
   4  -4   0    2.76    0.31
  -4  -4   0    1.92    0.32
  -4  -4   0    2.52    0.41
   4  -4   0    2.81    0.34
  -4  -4   0    2.38    0.30
   4   4   0    3.05    0.23
  -4   4   0    2.18    0.35
  -4   4   0    3.26    0.37
  -4   4   0    2.75    0.30
  -4   4   0    2.15    0.41
  -4   4   0    2.63    0.39
   4   4   0    2.24    0.34
   4   4   0    2.46    0.38
   4   4   0    2.63    0.32
  -5  -4   0    2.25    0.40
  -5  -4   0    2.72    0.48
   5  -4   0    2.40    0.34
  -5  -4   0    2.39    0.33
  -5  -4   0    2.28    0.31
   5  -4   0    2.48    0.35
   5  -4   0    2.79    0.37
  -5   4   0    2.70    0.43
   5   4   0    2.46    0.32
  -5   4   0    3.12    0.40
  -5   4   0    2.12    0.38
  -5   4   0    2.33    0.44
   5   4   0    2.09    0.42
  -5   4   0    2.40    0.33
   5   4   0    2.16    0.37
  -6  -4   0    3.72    0.49
   6  -4   0    3.17    0.40
   6  -4   0    3.48    0.38
  -6  -4   0    4.11    0.58
   6  -4   0    3.70    0.39
  -6   4   0    3.73    0.53
  -6   4   0    4.77    0.57
   6   4   0    3.19    0.49
  -6   4   0    3.15    0.45
   6   4   0    3.07    0.37
   6   4   0    3.43    0.49
  -6   4   0    3.35    0.40
  -6   4   0    3.35    0.57
   7  -4   0    4.80    0.40
   7  -4   0    3.87    0.43
  -7  -4   0    4.25    0.55
  -7  -4   0    3.61    0.57
   7  -4   0    4.28    0.44
   7   4   0    4.06    0.43
  -7   4   0    3.31    0.62
  -7   4   0    4.23    0.56
  -7   4   0    4.42    0.42
   7   4   0    3.32    0.53
   7   4   0    3.87    0.50
   8  -4   0    3.14    0.49
  -8  -4   0    3.62    0.61
  -8  -4   0    3.30    0.63
   8  -4   0    3.31    0.43
   8   4   0    3.31    0.43
  -8   4   0    4.21    0.46
   8   4   0    3.64    0.58
   8   4   0    3.23    0.58
  -8   4   0    2.81    0.57
  -8   4   0    3.91    0.61
   9  -4   0    9.53    0.70
  -9  -4   0   10.25    0.85
   9  -4   0    8.36    0.68
  -9  -4   0   10.57    0.74
  -9  -4   0    8.06    0.81
  -9   4   0    7.80    0.86
   9   4   0    8.55    0.84
  -9   4   0    9.84    0.72
   9   4   0    8.37    0.74
   9   4   0    7.79    0.63
  10  -4   0    0.06    0.38
 -10  -4   0   -0.21    0.57
 -10  -4   0    0.50    0.57
  10   4   0    0.72    0.34
 -10   4   0    1.79    0.60
  10   4   0    0.96    0.47
 -10   4   0    1.11    0.61
   0  -5   0   -0.25    0.22
   0  -5   0    0.08    0.21
   0  -5   0   -0.12    0.21
   0  -5   0    0.16    0.22
   0   5   0   -0.16    0.23
   0   5   0   -0.13    0.23
   0   5   0   -0.13    0.22
   0   5   0   -0.03    0.20
   0   5   0   -0.12    0.26
   0   5   0   -0.01    0.20
   0   5   0    0.01    0.22
   0   5   0    0.10    0.22
   0   5   0   -0.06    0.25
  -1  -5   0   87.18    3.48
   1  -5   0   83.14    3.46
   1  -5   0   85.78    3.50
   1  -5   0   81.32    3.48
   1  -5   0   86.78    3.49
  -1  -5   0   79.74    3.48
  -1  -5   0   78.35    3.50
  -1  -5   0   89.31    3.45
  -1  -5   0   85.78    3.46
   1   5   0   93.65    3.52
  -1   5   0   85.90    3.54
  -1   5   0   88.27    3.49
  -1   5   0   88.74    3.52
  -1   5   0   91.37    3.49
   1   5   0   91.24    3.47
  -1   5   0   93.92    3.51
   1   5   0   92.47    3.57
   1   5   0   88.74    3.53
  -1   5   0   98.00    3.54
   1   5   0   84.53    3.52
  -1   5   0   95.67    3.53
   1   5   0   84.71    3.49
   1   5   0   86.77    3.47
  -1   5   0   91.33    3.51
   1   5   0   88.06    3.49
  -1   5   0   84.73    3.49
  -2  -5   0    0.34    0.21
   2  -5   0    0.34    0.25
  -2  -5   0    0.40    0.28
  -2  -5   0    0.45    0.20
   2  -5   0    0.34    0.22
   2  -5   0    0.40    0.20
  -2  -5   0    0.47    0.28
   2   5   0    0.37    0.20
  -2   5   0    0.54    0.28
   2   5   0    0.56    0.31
   2   5   0    0.84    0.21
  -2   5   0    0.23    0.23
  -2   5   0    0.32    0.23
   2   5   0    0.54    0.22
  -2   5   0    0.35    0.28
  -2   5   0   -0.01    0.24
  -2   5   0    0.48    0.24
   2   5   0    0.73    0.28
  -2   5   0    0.45    0.22
   2   5   0    0.66    0.31
  -2   5   0    0.58    0.28
  -2   5   0    0.56    0.22
   3  -5   0    1.00    0.28
  -3  -5   0    0.47    0.22
   3  -5   0    0.35    0.27
  -3  -5   0    0.80    0.35
   3  -5   0    0.74    0.25
  -3  -5   0    0.81    0.29
   3  -5   0    0.65    0.20
   3   5   0    0.92    0.27
   3   5   0    0.70    0.38
   3   5   0    0.66    0.34
  -3   5   0    0.78    0.28
   3   5   0    0.69    0.31
  -3   5   0    0.93    0.32
  -3   5   0    0.54    0.34
  -3   5   0    0.73    0.24
  -3   5   0    0.40    0.27
  -3   5   0    0.67    0.27
   3   5   0    0.70    0.20
   4  -5   0    3.93    0.39
   4  -5   0    4.00    0.43
  -4  -5   0    3.74    0.48
   4  -5   0    3.43    0.41
  -4  -5   0    3.74    0.47
   4   5   0    3.93    0.38
  -4   5   0    4.36    0.47
   4   5   0    3.77    0.44
  -4   5   0    3.97    0.46
  -4   5   0    3.06    0.55
  -4   5   0    3.95    0.39
   4   5   0    3.56    0.49
  -4   5   0    3.97    0.46
   5  -5   0   -0.25    0.26
   5  -5   0    0.33    0.27
  -5  -5   0    0.29    0.35
   5  -5   0    0.36    0.28
  -5  -5   0    0.35    0.35
  -5   5   0    0.61    0.31
   5   5   0    0.07    0.32
   5   5   0    0.19    0.37
  -5   5   0    0.33    0.33
  -5   5   0    0.25    0.31
  -5   5   0    0.40    0.24
  -5   5   0   -0.08    0.38
   5   5   0    0.12    0.25
   6  -5   0   -0.08    0.29
   6  -5   0   -0.34    0.26
  -6  -5   0   -0.14    0.40
  -6  -5   0   -0.04    0.41
   6  -5   0    0.05    0.28
  -6   5   0    0.16    0.36
   6   5   0    0.00    0.32
  -6   5   0    0.09    0.42
   6   5   0    0.06    0.24
   6   5   0   -0.14    0.35
  -6   5   0    0.32    0.24
  -6   5   0    0.26    0.34
   7  -5   0    0.44    0.32
  -7  -5   0    0.28    0.48
  -7  -5   0    0.34    0.54
   7  -5   0    1.02    0.36
   7   5   0    0.66    0.39
  -7   5   0    0.98    0.31
   7   5   0    0.26    0.41
  -7   5   0    0.45    0.50
  -7   5   0    0.97    0.44
   7   5   0    0.85    0.29
  -8  -5   0    3.29    0.64
   8  -5   0    2.50    0.47
   8  -5   0    3.27    0.50
  -8  -5   0    3.82    0.67
  -8   5   0    4.28    0.90
  -8   5   0    5.24    0.71
   8   5   0    3.24    0.64
   8   5   0    3.51    0.46
   8   5   0    3.61    0.58
  -9  -5   0    2.96    0.70
   9  -5   0    2.30    0.50
   9  -5   0    2.87    0.53
   9   5   0    2.29    0.64
   9   5   0    2.83    0.57
   9   5   0    3.43    0.53
  -9   5   0    4.62    0.76
  -9   5   0    2.67    0.70
   0  -6   0   53.48    2.42
   0  -6   0   55.72    2.41
   0  -6   0   56.48    2.41
   0  -6   0   54.44    2.44
   0  -6   0   54.45    2.41
   0  -6   0   55.28    2.38
   0   6   0   65.91    2.48
   0   6   0   61.86    2.45
   0   6   0   58.98    2.42
   0   6   0   62.27    2.44
   0   6   0   61.16    2.47
   0   6   0   62.15    2.45
   0   6   0   63.96    2.50
  -1  -6   0   -0.12    0.27
  -1  -6   0    0.24    0.29
  -1  -6   0    0.39    0.22
   1  -6   0    0.54    0.28
   1  -6   0    0.54    0.27
   1  -6   0    0.14    0.23
  -1  -6   0    0.19    0.22
  -1  -6   0    0.11    0.26
   1  -6   0    0.13    0.25
   1  -6   0    0.50    0.25
   1  -6   0    0.21    0.27
   1   6   0    0.01    0.23
   1   6   0    0.02    0.32
  -1   6   0   -0.02    0.28
  -1   6   0    0.27    0.27
   1   6   0    0.65    0.29
   1   6   0   -0.25    0.29
  -1   6   0    0.06    0.26
  -1   6   0    0.01    0.26
  -1   6   0    0.18    0.30
  -1   6   0    0.01    0.27
   1   6   0   -0.06    0.23
  -1   6   0    0.07    0.28
   1   6   0    0.34    0.34
  -1   6   0    0.17    0.31
   1   6   0    0.04    0.24
  -1   6   0    0.06    0.31
   1   6   0   -0.20    0.29
   2  -6   0    1.68    0.35
   2  -6   0    2.68    0.43
  -2  -6   0    2.04    0.39
  -2  -6   0    2.26    0.41
   2  -6   0    1.93    0.34
   2  -6   0    2.02    0.35
   2  -6   0    2.20    0.46
   2  -6   0    2.19    0.40
  -2  -6   0    2.07    0.38
  -2   6   0    1.80    0.38
  -2   6   0    1.72    0.36
  -2   6   0    1.87    0.38
  -2   6   0    2.14    0.40
   2   6   0    1.91    0.43
   2   6   0    1.72    0.33
   2   6   0    2.20    0.41
   2   6   0    2.20    0.44
  -2   6   0    2.21    0.37
   2   6   0    2.07    0.32
  -2   6   0    1.66    0.43
   3  -6   0    0.18    0.27
   3  -6   0    0.25    0.29
  -3  -6   0    0.12    0.35
  -3  -6   0    0.11    0.35
  -3  -6   0    0.13    0.34
   3  -6   0    0.23    0.28
   3   6   0    0.19    0.23
   3   6   0    0.08    0.38
  -3   6   0    0.36    0.31
  -3   6   0    0.20    0.33
  -3   6   0   -0.05    0.29
   3   6   0    0.31    0.32
  -3   6   0    0.24    0.31
  -3   6   0   -0.26    0.41
  -3   6   0    0.47    0.25
  -4  -6   0    0.43    0.37
  -4  -6   0    0.61    0.41
   4  -6   0    0.19    0.30
   4  -6   0    0.26    0.31
  -4  -6   0    0.16    0.33
   4  -6   0    0.10    0.29
   4   6   0    0.49    0.26
  -4   6   0   -0.02    0.35
  -4   6   0    0.44    0.42
  -4   6   0    0.81    0.35
   4   6   0   -0.18    0.35
  -4   6   0    0.18    0.43
   4   6   0    0.54    0.34
  -4   6   0    0.55    0.37
   5  -6   0    0.28    0.37
  -5  -6   0   -0.11    0.39
  -5  -6   0    0.66    0.37
  -5  -6   0    0.14    0.44
   5  -6   0    0.01    0.30
   5   6   0    0.12    0.40
   5   6   0   -0.11    0.34
  -5   6   0    0.44    0.41
  -5   6   0    0.11    0.49
  -5   6   0    0.16    0.43
   5   6   0    0.14    0.28
  -6  -6   0   -0.03    0.49
  -6  -6   0   -0.47    0.51
   6  -6   0   -0.44    0.36
   6  -6   0    0.18    0.36
  -6  -6   0    0.90    0.45
   6   6   0    0.33    0.27
  -6   6   0   -0.03    0.54
  -6   6   0   -0.25    0.41
  -6   6   0    0.39    0.45
   6   6   0   -0.14    0.47
   6   6   0    0.53    0.43
   7  -6   0   -0.42    0.34
   7  -6   0    0.11    0.40
  -7  -6   0   -0.34    0.53
  -7  -6   0    1.44    0.45
  -7  -6   0   -0.02    0.64
   7   6   0    0.77    0.31
   7   6   0    0.44    0.47
   7   6   0   -0.14    0.46
  -7   6   0    0.39    0.62
  -7   6   0    0.58    0.51
  -8  -6   0    3.36    0.74
   8  -6   0    2.78    0.55
  -8  -6   0    2.94    0.71
   8   6   0    1.63    0.59
   8   6   0    3.26    0.64
  -8   6   0    4.63    0.89
   8   6   0    3.46    0.54
   0  -7   0   -0.14    0.28
   0  -7   0    0.35    0.31
   0  -7   0    0.01    0.27
   0  -7   0    0.05    0.43
   0   7   0   -0.35    0.32
   0   7   0   -0.28    0.29
   0   7   0   -0.07    0.31
   0   7   0   -0.12    0.34
   0   7   0   -0.05    0.31
   0   7   0   -0.35    0.35
   1  -7   0    0.70    0.28
  -1  -7   0    0.81    0.37
   1  -7   0    0.65    0.29
  -1  -7   0    0.32    0.35
  -1  -7   0    0.28    0.31
   1  -7   0    0.78    0.32
  -1   7   0    0.39    0.37
   1   7   0    0.38    0.41
  -1   7   0    0.19    0.34
  -1   7   0    0.31    0.36
  -1   7   0    0.16    0.31
  -1   7   0    0.43    0.36
   1   7   0    0.03    0.40
   1   7   0    0.73    0.41
   1   7   0    0.25    0.29
  -1   7   0    0.65    0.29
   1   7   0    0.46    0.30
  -2  -7   0    7.51    0.64
  -2  -7   0    6.51    0.61
   2  -7   0    8.42    0.63
  -2  -7   0    7.07    0.63
   2  -7   0    7.16    0.56
   2  -7   0    9.39    0.62
   2  -7   0    6.79    0.54
  -2   7   0    7.91    0.63
  -2   7   0    8.00    0.64
  -2   7   0    7.68    0.64
   2   7   0    7.71    0.62
  -2   7   0    7.66    0.64
   2   7   0    8.12    0.73
  -2   7   0    7.83    0.75
   2   7   0    8.30    0.68
   3  -7   0    1.02    0.35
   3  -7   0    1.13    0.38
  -3  -7   0    0.30    0.40
  -3  -7   0    1.14    0.51
   3  -7   0    0.66    0.36
  -3  -7   0    1.83    0.45
  -3   7   0    1.20    0.55
   3   7   0    1.09    0.35
  -3   7   0    1.05    0.39
   3   7   0    1.21    0.48
   3   7   0    1.21    0.49
  -3   7   0    0.89    0.42
  -3   7   0    1.27    0.38
  -4  -7   0    3.68    0.59
   4  -7   0    2.94    0.46
   4  -7   0    2.72    0.46
  -4  -7   0    3.18    0.57
   4   7   0    3.34    0.58
   4   7   0    2.77    0.65
  -4   7   0    3.00    0.55
   4   7   0    2.81    0.43
  -4   7   0    2.80    0.55
  -4   7   0    4.17    0.76
   5  -7   0    0.13    0.38
  -5  -7   0    1.07    0.49
  -5  -7   0   -0.23    0.45
   5  -7   0   -0.43    0.35
  -5  -7   0   -0.11    0.52
  -5   7   0   -0.02    0.63
  -5   7   0    0.56    0.48
   5   7   0   -0.43    0.51
  -5   7   0   -0.20    0.44
   5   7   0    0.33    0.29
   5   7   0    0.11    0.42
  -6  -7   0    1.84    0.51
   6  -7   0    0.49    0.41
   6  -7   0    1.63    0.53
  -6  -7   0    0.69    0.62
  -6   7   0    1.77    0.57
   6   7   0    1.30    0.40
   6   7   0    0.66    0.55
  -6   7   0    0.41    0.51
  -6   7   0    1.47    0.75
   6   7   0    1.09    0.54
   7  -7   0    1.28    0.51
  -7  -7   0    1.30    0.69
  -7   7   0    1.62    0.79
   7   7   0    1.71    0.69
   7   7   0    1.50    0.43
   7   7   0    1.87    0.61
  -7   7   0    2.20    0.63
   0  -8   0    4.22    0.45
   0  -8   0    3.77    0.44
   0   8   0    3.52    0.52
   0   8   0    4.33    0.57
   0   8   0    3.68    0.66
   0   8   0    3.70    0.70
   1  -8   0    4.30    0.57
   1  -8   0    3.75    0.52
  -1  -8   0    3.37    0.57
  -1  -8   0    4.33    0.60
   1  -8   0    3.50    0.42
  -1   8   0    2.13    0.52
  -1   8   0    2.29    0.51
   1   8   0    3.99    0.69
   1   8   0    2.75    0.48
  -1   8   0    3.30    0.53
  -1   8   0    3.73    0.74
   1   8   0    3.34    0.62
   2  -8   0    1.90    0.45
   2  -8   0    2.38    0.42
   2  -8   0    2.74    0.47
  -2  -8   0    2.34    0.56
  -2   8   0    2.00    0.58
  -2   8   0    1.46    0.50
   2   8   0    1.83    0.44
  -2   8   0    2.16    0.52
   2   8   0    1.69    0.57
   2   8   0    2.00    0.57
  -3  -8   0    8.37    0.80
  -3  -8   0    8.58    0.73
   3  -8   0    7.03    0.61
   3  -8   0    6.82    0.66
   3   8   0    6.71    0.81
  -3   8   0    7.92    0.89
   3   8   0    7.27    0.82
   3   8   0    6.46    0.66
  -3   8   0    6.53    0.71
   4  -8   0    0.70    0.41
  -4  -8   0    0.16    0.56
   4  -8   0   -0.11    0.41
  -4   8   0   -0.10    0.63
  -4   8   0    0.71    0.49
   4   8   0    0.51    0.38
  -4   8   0    0.21    0.49
   4   8   0    0.22    0.50
   4   8   0    0.02    0.59
   5  -8   0    2.40    0.53
  -5  -8   0    3.43    0.60
   5  -8   0    1.43    0.50
  -5  -8   0    2.67    0.77
   5   8   0    1.47    0.47
   5   8   0    1.96    0.60
   5   8   0    0.97    0.62
  -5   8   0    2.56    0.62
  -5   8   0    0.80    0.56
  -5   8   0    2.37    0.81
   6  -8   0    1.74    0.58
  -6   8   0    2.20    0.66
   0  -9   0    1.33    0.36
   1  -9   0    1.52    0.48
  -1  -9   0    1.38    0.52
   1  -9   0    1.11    0.41
  -1   9   0   -0.26    0.45
   1   9   0   -0.87    0.57
   1   9   0   -0.10    0.53
   2  -9   0    1.06    0.46
  -2  -9   0    1.63    0.61
  -2  -9   0    1.70    0.55
   2  -9   0    1.71    0.43
  -2   9   0    0.61    0.51
   2   9   0    0.68    0.59
   2   9   0    0.20    0.58
   3  -9   0    0.91    0.42
  -3  -9   0    1.44    0.55
  -3   9   0    0.25    0.53
  11   0  -1    3.28    0.49
 -11   0   1    4.01    0.66
  10   0  -1   41.52    1.84
 -10   0   1   42.19    1.91
 -10   0   1   42.17    1.90
  10   0  -1   41.30    1.88
   9   0  -1    0.02    0.25
  -9   0   1    0.22    0.38
  -9   0   1    0.73    0.38
   9   0  -1    0.58    0.31
   8   0  -1   38.46    1.57
   8   0  -1   38.87    1.63
  -8   0   1   39.78    1.68
  -8   0   1   37.92    1.71
  -8   0   1   37.27    1.68
   8   0  -1   37.02    1.65
  -7   0   1    0.50    0.24
   7   0  -1    0.38    0.20
  -7   0   1    0.38    0.22
   7   0  -1    0.34    0.21
  -7   0   1    0.46    0.33
   7   0  -1    0.34    0.22
  -7   0   1    0.66    0.29
  -7   0   1    0.33    0.27
   7   0  -1    0.57    0.18
  -6   0   1    0.16    0.18
   6   0  -1    0.19    0.17
   6   0  -1    0.31    0.19
  -6   0   1    0.17    0.24
   6   0  -1    0.25    0.14
   6   0  -1    0.27    0.16
  -6   0   1    0.29    0.19
  -6   0   1    0.42    0.23
  -6   0   1    0.24    0.21
  -5   0   1   11.70    0.55
   5   0  -1   11.64    0.58
   5   0  -1   12.66    0.56
  -5   0   1   12.20    0.61
  -5   0   1   11.91    0.59
  -5   0   1   11.50    0.59
   5   0  -1   12.20    0.58
   5   0  -1   12.21    0.53
  -5   0   1   12.28    0.63
   4   0  -1   41.02    1.64
   4   0  -1   45.10    1.67
  -4   0   1   41.50    1.66
   4   0  -1   43.24    1.68
   4   0  -1   41.37    1.68
  -4   0   1   41.22    1.69
  -4   0   1   42.50    1.69
  -4   0   1   39.82    1.70
  -4   0   1   41.08    1.69
  -3   0   1    3.35    0.19
  -3   0   1    2.73    0.21
  -3   0   1    2.72    0.20
  -3   0   1    3.16    0.22
   3   0  -1    2.86    0.20
  -3   0   1    3.00    0.26
   3   0  -1    2.84    0.20
   3   0  -1    2.70    0.17
   3   0  -1    3.19    0.19
  -3   0   1    2.95    0.24
   3   0  -1    2.95    0.20
  -2   0   1  112.21    4.44
   2   0  -1  120.83    4.48
   2   0  -1  118.11    4.44
  -2   0   1  116.07    4.40
  -2   0   1  114.85    4.43
   2   0  -1  107.90    4.43
   2   0  -1  115.25    4.48
  -2   0   1  109.78    4.41
  -2   0   1  115.66    4.40
   2   0  -1  120.72    4.47
  -2   0   1  110.76    4.40
   1   0  -1  415.14   15.43
  -1   0   1  388.44   15.47
   1   0  -1  407.68   15.45
  -1   0   1  397.63   15.44
   1   0  -1  422.05   15.44
   1   0  -1  402.91   15.38
  -1   0   1  393.27   15.45
  -1   0   1  384.82   15.41
  -1   0   1  406.06   15.39
   0   0   1    3.93    0.18
   0   0  -1    3.86    0.18
   0   0   1    4.04    0.18
   0   0   1    4.05    0.17
   0   0  -1    3.80    0.18
   0   0  -1    3.97    0.18
   0   0   1    3.95    0.18
   0   0  -1    4.01    0.18
   0   0  -1    4.26    0.18
   0   0   1    3.90    0.18
   0   0  -1    3.72    0.17
  -1   0  -1  918.91   36.59
   1   0   1  909.90   37.45
  -1   0  -1  887.37   37.15
   1   0   1  936.42   37.19
  -1   0  -1  967.13   37.79
  -1   0  -1  908.25   36.92
   1   0   1  946.65   36.59
   1   0   1  924.23   37.30
   1   0   1  950.55   36.96
  -1   0  -1  962.58   37.49
  -2   0  -1   46.70    1.89
  -2   0  -1   44.88    1.86
   2   0   1   47.68    1.88
  -2   0  -1   48.12    1.89
   2   0   1   45.83    1.88
   2   0   1   48.43    1.87
   2   0   1   47.75    1.87
   2   0   1   50.69    1.88
  -2   0  -1   47.96    1.88
  -2   0  -1   47.83    1.88
  -2   0  -1   51.91    1.89
   2   0   1   51.40    1.88
  -3   0  -1    6.69    0.34
  -3   0  -1    7.77    0.40
  -3   0  -1    6.96    0.40
   3   0   1    8.87    0.38
   3   0   1    7.95    0.36
   3   0   1    7.64    0.35
   3   0   1    7.28    0.37
  -3   0  -1    7.99    0.37
   3   0   1    7.52    0.37
  -3   0  -1    7.24    0.39
  -3   0  -1    7.61    0.38
   4   0   1    1.77    0.19
   4   0   1    1.20    0.21
   4   0   1    1.57    0.22
  -4   0  -1    1.73    0.27
  -4   0  -1    1.86    0.25
  -4   0  -1    1.84    0.21
  -4   0  -1    2.01    0.27
  -4   0  -1    1.66    0.22
   4   0   1    1.50    0.23
   4   0   1    1.79    0.19
  -5   0  -1    1.12    0.20
  -5   0  -1    1.18    0.20
   5   0   1    1.02    0.18
  -5   0  -1    1.73    0.27
  -5   0  -1    1.09    0.21
  -5   0  -1    1.01    0.16
  -5   0  -1    1.70    0.28
   5   0   1    1.26    0.22
   5   0   1    1.33    0.18
   5   0   1    1.21    0.21
   6   0   1    1.04    0.19
  -6   0  -1    1.19    0.30
   6   0   1    1.20    0.23
  -6   0  -1    1.29    0.29
  -6   0  -1    1.23    0.19
   6   0   1    1.13    0.23
  -6   0  -1    1.29    0.25
  -6   0  -1    1.24    0.23
  -6   0  -1    1.08    0.27
   6   0   1    1.32    0.22
  -7   0  -1    5.11    0.51
   7   0   1    4.56    0.38
  -7   0  -1    5.08    0.52
   7   0   1    4.63    0.34
  -7   0  -1    4.70    0.40
  -7   0  -1    4.19    0.43
   7   0   1    4.77    0.40
  -7   0  -1    3.72    0.39
   7   0   1    4.27    0.41
   8   0   1    2.77    0.37
  -8   0  -1    2.57    0.47
   8   0   1    2.37    0.33
  -8   0  -1    3.02    0.44
  -8   0  -1    2.17    0.39
   8   0   1    3.25    0.41
   9   0   1    0.16    0.28
  -9   0  -1    0.08    0.39
  -9   0  -1    0.69    0.38
   9   0   1    0.69    0.30
 -10   0  -1    0.23    0.43
  10   0   1    1.03    0.33
  10   0   1    0.33    0.31
 -10   0  -1    1.25    0.45
  11   0   1    6.32    0.65
 -11   0  -1    7.69    0.81
 -11  -1   1    0.37    0.48
 -11   1   1    1.37    0.46
 -11   1   1    0.44    0.43
  10  -1  -1    0.73    0.31
 -10  -1   1    1.18    0.52
 -10   1   1    1.59    0.44
  10   1  -1    0.71    0.31
 -10   1   1    1.45    0.47
  10   1  -1    1.23    0.35
   9  -1  -1   43.27    1.89
  -9  -1   1   48.22    2.01
  -9  -1   1   48.06    1.98
  -9  -1   1   44.83    1.97
   9  -1  -1   43.14    1.85
   9  -1  -1   45.97    1.93
  -9   1   1   45.15    1.95
   9   1  -1   41.88    1.95
  -9   1   1   44.91    1.99
   9   1  -1   41.75    1.90
  -8  -1   1    2.40    0.47
   8  -1  -1    2.56    0.34
  -8  -1   1    1.97    0.37
   8  -1  -1    2.57    0.31
  -8  -1   1    2.97    0.47
   8  -1  -1    2.87    0.36
  -8   1   1    2.46    0.42
   8   1  -1    2.88    0.43
   8   1  -1    2.36    0.38
  -8   1   1    2.46    0.46
  -8   1   1    2.20    0.46
   8   1  -1    2.73    0.35
  -7  -1   1    0.97    0.31
   7  -1  -1    0.70    0.21
  -7  -1   1    1.13    0.32
   7  -1  -1    0.68    0.23
  -7  -1   1    0.86    0.36
  -7  -1   1    0.84    0.28
   7  -1  -1    0.84    0.23
  -7   1   1    0.72    0.29
   7   1  -1    0.76    0.25
   7   1  -1    0.76    0.24
  -7   1   1    0.68    0.31
  -7   1   1    0.74    0.33
   7   1  -1    0.51    0.17
  -7   1   1    1.07    0.32
   7   1  -1    0.93    0.26
   6  -1  -1    1.56    0.23
  -6  -1   1    1.59    0.33
   6  -1  -1    1.85    0.21
   6  -1  -1    1.82    0.27
  -6  -1   1    1.64    0.28
  -6  -1   1    1.58    0.24
  -6  -1   1    1.79    0.30
   6  -1  -1    1.86    0.25
  -6  -1   1    1.56    0.28
   6   1  -1    1.67    0.18
   6   1  -1    1.76    0.28
  -6   1   1    1.70    0.29
  -6   1   1    1.81    0.29
   6   1  -1    1.79    0.25
  -6   1   1    1.86    0.34
  -6   1   1    1.50    0.19
  -6   1   1    1.70    0.31
   6   1  -1    1.43    0.25
   5  -1  -1    2.84    0.26
   5  -1  -1    2.80    0.22
  -5  -1   1    2.62    0.26
  -5  -1   1    2.60    0.27
   5  -1  -1    3.00    0.21
  -5  -1   1    2.75    0.23
  -5  -1   1    2.84    0.31
   5  -1  -1    2.91    0.24
  -5  -1   1    2.85    0.29
   5   1  -1    3.03    0.26
   5   1  -1    2.69    0.26
   5   1  -1    2.93    0.27
  -5   1   1    2.87    0.25
   5   1  -1    2.87    0.19
  -5   1   1    2.34    0.29
  -5   1   1    2.70    0.32
  -5   1   1    2.66    0.27
  -5   1   1    2.86    0.20
  -5   1   1    2.63    0.30
  -4  -1   1    8.52    0.48
   4  -1  -1    8.12    0.41
  -4  -1   1    7.13    0.42
   4  -1  -1    7.61    0.37
  -4  -1   1    7.45    0.44
  -4  -1   1    7.60    0.42
   4  -1  -1    8.32    0.40
  -4  -1   1    7.56    0.38
   4  -1  -1    7.24    0.40
  -4   1   1    6.96    0.47
   4   1  -1    7.17    0.44
  -4   1   1    8.66    0.41
  -4   1   1    7.03    0.44
  -4   1   1    7.49    0.41
  -4   1   1    8.12    0.35
   4   1  -1    8.47    0.35
   4   1  -1    8.12    0.41
  -4   1   1    7.50    0.49
   4   1  -1    7.62    0.43
   4   1  -1    8.42    0.43
  -3  -1   1    7.10    0.35
   3  -1  -1    7.75    0.34
  -3  -1   1    6.81    0.39
   3  -1  -1    8.37    0.38
  -3  -1   1    8.09    0.42
  -3  -1   1    7.62    0.40
  -3  -1   1    7.95    0.40
   3  -1  -1    7.69    0.37
   3  -1  -1    6.72    0.36
   3   1  -1    7.49    0.39
   3   1  -1    8.12    0.32
   3   1  -1    7.17    0.40
  -3   1   1    7.52    0.31
   3   1  -1    8.26    0.37
  -3   1   1    7.49    0.36
   3   1  -1    6.79    0.38
   3   1  -1    7.38    0.39
  -3   1   1    7.48    0.38
  -3   1   1    7.09    0.39
  -3   1   1    7.09    0.41
  -3   1   1    7.09    0.42
   2  -1  -1  117.23    4.65
  -2  -1   1  124.29    4.65
   2  -1  -1  126.85    4.70
   2  -1  -1  123.22    4.68
  -2  -1   1  117.49    4.66
  -2  -1   1  122.79    4.71
   2  -1  -1  116.10    4.64
  -2  -1   1  124.79    4.66
   2   1  -1  122.73    4.66
   2   1  -1  128.51    4.72
  -2   1   1  119.38    4.65
   2   1  -1  122.69    4.65
   2   1  -1  121.76    4.67
  -2   1   1  115.79    4.67
  -2   1   1  117.35    4.66
  -2   1   1  120.15    4.65
   2   1  -1  116.52    4.66
  -2   1   1  117.24    4.66
   2   1  -1  124.24    4.63
  -1  -1   1    0.67    0.15
   1  -1  -1    0.51    0.11
  -1  -1   1    0.68    0.06
   1  -1  -1    0.63    0.12
  -1   1   1    0.54    0.08
   1   1  -1    0.83    0.15
  -1   1   1    0.73    0.13
   1   1  -1    0.54    0.13
   1   1  -1    0.72    0.11
  -1   1   1    0.67    0.13
  -1   1   1    0.53    0.14
   1   1  -1    0.80    0.06
   1   1  -1    0.79    0.14
   1   1  -1    0.78    0.09
  -1   1   1    0.61    0.11
  -1   1   1    0.69    0.11
   0  -1   1  454.90   17.75
   0  -1   1  428.16   18.38
   0  -1  -1  459.35   18.09
   0  -1   1  477.50   17.71
   0  -1  -1  471.65   17.61
   0  -1   1  477.08   17.66
   0  -1  -1  434.85   17.66
   0  -1  -1  441.73   17.67
   0  -1  -1  432.28   18.05
   0  -1   1  465.51   17.59
   0   1  -1  444.53   17.69
   0   1  -1  484.74   17.60
   0   1   1  474.26   17.67
   0   1   1  427.48   18.16
   0   1  -1  462.70   18.23
   0   1  -1  449.50   17.70
   0   1   1  445.84   17.67
   0   1   1  485.70   17.69
   0   1  -1  459.45   17.76
   0   1   1  453.29   18.11
   0   1  -1  475.26   17.76
   0   1  -1  459.66   17.69
   0   1  -1  486.41   17.72
   0   1   1  468.65   17.69
  -1  -1  -1   45.08    1.80
   1  -1   1   45.26    1.78
   1  -1   1   46.24    1.81
   1  -1   1   47.71    1.78
  -1  -1  -1   43.08    1.77
  -1  -1  -1   44.61    1.77
  -1  -1  -1   46.42    1.79
   1  -1   1   46.72    1.79
  -1   1  -1   47.70    1.82
  -1   1  -1   46.60    1.81
  -1   1  -1   46.62    1.77
   1   1   1   46.27    1.80
  -1   1  -1   45.19    1.82
  -1   1  -1   45.54    1.79
   1   1   1   46.69    1.78
   1   1   1   46.74    1.79
   1   1   1   47.20    1.81
   1   1   1   47.20    1.81
   1   1   1   46.84    1.78
  -1   1  -1   44.71    1.80
   2  -1   1    2.07    0.12
   2  -1   1    1.61    0.18
  -2  -1  -1    1.81    0.17
  -2  -1  -1    1.88    0.13
   2  -1   1    1.96    0.15
  -2  -1  -1    1.70    0.14
  -2  -1  -1    1.59    0.16
  -2  -1  -1    1.92    0.19
   2  -1   1    1.77    0.16
   2   1   1    1.93    0.12
  -2   1  -1    1.65    0.20
  -2   1  -1    1.87    0.19
  -2   1  -1    1.68    0.20
   2   1   1    1.84    0.14
  -2   1  -1    1.90    0.15
   2   1   1    1.72    0.18
   2   1   1    1.73    0.17
   2   1   1    1.65    0.17
   2   1   1    2.06    0.16
  -2   1  -1    1.71    0.18
  -3  -1  -1    4.69    0.30
  -3  -1  -1    4.28    0.26
   3  -1   1    4.77    0.28
  -3  -1  -1    4.21    0.27
   3  -1   1    4.97    0.26
   3  -1   1    5.44    0.28
  -3  -1  -1    5.16    0.32
   3  -1   1    4.34    0.33
  -3   1  -1    4.80    0.33
  -3   1  -1    5.31    0.28
  -3   1  -1    4.56    0.32
   3   1   1    4.47    0.30
  -3   1  -1    4.38    0.31
  -3   1  -1    4.37    0.36
   3   1   1    4.80    0.30
   3   1   1    4.77    0.31
   3   1   1    4.75    0.23
   3   1   1    4.77    0.28
  -4  -1  -1    0.70    0.15
  -4  -1  -1    0.79    0.18
   4  -1   1    0.90    0.18
  -4  -1  -1    0.78    0.19
  -4  -1  -1    1.18    0.21
   4  -1   1    0.99    0.17
  -4  -1  -1    1.01    0.24
   4  -1   1    0.78    0.15
  -4   1  -1    0.85    0.22
  -4   1  -1    0.64    0.08
   4   1   1    0.82    0.19
   4   1   1    0.77    0.19
   4   1   1    0.95    0.14
  -4   1  -1    1.02    0.22
   4   1   1    0.62    0.18
  -4   1  -1    0.87    0.24
   4   1   1    1.18    0.19
  -4   1  -1    0.69    0.25
  -5  -1  -1    4.04    0.26
  -5  -1  -1    4.66    0.34
   5  -1   1    4.83    0.31
   5  -1   1    4.59    0.29
  -5  -1  -1    4.39    0.31
   5  -1   1    4.44    0.29
  -5  -1  -1    4.21    0.31
  -5  -1  -1    4.48    0.36
  -5   1  -1    3.96    0.21
   5   1   1    3.92    0.32
  -5   1  -1    4.27    0.28
  -5   1  -1    4.06    0.35
  -5   1  -1    4.27    0.37
   5   1   1    4.37    0.32
  -5   1  -1    4.36    0.34
   5   1   1    4.03    0.32
  -5   1  -1    3.89    0.36
   5   1   1    4.00    0.26
   5   1   1    4.52    0.29
  -6  -1  -1    0.31    0.25
  -6  -1  -1    0.29    0.15
   6  -1   1    0.37    0.19
  -6  -1  -1    0.44    0.22
   6  -1   1    0.55    0.18
  -6  -1  -1    0.34    0.17
   6  -1   1    0.35    0.18
  -6  -1  -1    0.39    0.28
  -6  -1  -1    0.68    0.24
   6   1   1    0.38    0.19
  -6   1  -1    0.37    0.20
   6   1   1    0.24    0.19
   6   1   1    0.31    0.18
  -6   1  -1    0.20    0.22
  -6   1  -1    0.58    0.25
  -6   1  -1    0.38    0.28
   6   1   1    0.34    0.20
   6   1   1    0.35    0.21
  -6   1  -1    0.69    0.27
  -7  -1  -1    6.74    0.51
  -7  -1  -1    6.57    0.44
  -7  -1  -1    7.37    0.54
  -7  -1  -1    7.00    0.55
  -7  -1  -1    6.45    0.51
   7  -1   1    6.61    0.45
   7  -1   1    7.17    0.46
   7  -1   1    7.41    0.46
  -7   1  -1    6.14    0.53
   7   1   1    6.49    0.51
  -7   1  -1    7.46    0.62
  -7   1  -1    6.47    0.42
  -7   1  -1    6.45    0.52
   7   1   1    5.90    0.47
   7   1   1    6.82    0.43
  -7   1  -1    6.49    0.56
   7   1   1    6.60    0.48
   8  -1   1    2.22    0.32
   8  -1   1    2.50    0.35
  -8  -1  -1    3.17    0.46
  -8  -1  -1    2.55    0.48
  -8  -1  -1    1.99    0.37
   8   1   1    2.40    0.38
  -8   1  -1    2.19    0.40
   8   1   1    2.07    0.32
  -8   1  -1    2.88    0.46
  -8   1  -1    2.56    0.46
   8   1   1    3.07    0.43
   9  -1   1    0.60    0.26
  -9  -1  -1    0.58    0.34
  -9  -1  -1   -0.15    0.37
  -9   1  -1   -0.01    0.35
   9   1   1    0.23    0.32
  -9   1  -1    0.41    0.40
   9   1   1    0.08    0.29
  10  -1   1    2.66    0.43
  10  -1   1    3.32    0.45
 -10  -1  -1    3.61    0.68
  10   1   1    3.05    0.47
  10   1   1    4.02    0.49
 -10   1  -1    4.27    0.59
 -10   1  -1    3.29    0.57
 -11  -1  -1    2.04    0.61
  11  -1   1    1.19    0.39
  11   1   1    1.95    0.44
 -11   1  -1    2.06    0.53
 -11  -2   1   11.93    0.96
  11  -2  -1   11.71    0.79
  11   2  -1   13.25    0.93
  11   2  -1   11.98    0.83
 -11   2   1   15.49    1.06
 -11   2   1   14.18    0.93
  10  -2  -1    1.23    0.33
  10  -2  -1    1.09    0.34
 -10  -2   1    1.37    0.54
  10   2  -1    1.95    0.42
 -10   2   1    1.96    0.46
  10   2  -1    1.55    0.37
   9  -2  -1    0.54    0.25
  -9  -2   1    0.26    0.35
  -9  -2   1    0.87    0.32
   9  -2  -1    0.13    0.25
   9  -2  -1    0.02    0.25
  -9  -2   1    0.25    0.47
   9   2  -1    0.74    0.35
   9   2  -1    0.25    0.29
  -9   2   1    0.88    0.44
  -9   2   1    0.34    0.36
  -9   2   1    0.50    0.33
   9   2  -1    0.48    0.37
   8  -2  -1    2.35    0.36
   8  -2  -1    1.62    0.28
  -8  -2   1    2.78    0.45
  -8  -2   1    2.09    0.41
   8  -2  -1    1.76    0.31
  -8  -2   1    1.77    0.43
   8   2  -1    1.74    0.31
  -8   2   1    1.74    0.35
   8   2  -1    2.02    0.39
  -8   2   1    1.74    0.41
  -8   2   1    1.91    0.45
   8   2  -1    1.99    0.39
  -7  -2   1   27.56    1.22
  -7  -2   1   27.43    1.26
   7  -2  -1   25.75    1.16
   7  -2  -1   27.58    1.17
   7  -2  -1   28.04    1.18
  -7  -2   1   25.21    1.20
  -7  -2   1   26.65    1.20
  -7   2   1   26.51    1.25
  -7   2   1   25.48    1.19
   7   2  -1   26.73    1.17
  -7   2   1   26.52    1.27
   7   2  -1   24.85    1.23
  -7   2   1   25.40    1.29
   7   2  -1   25.17    1.25
  -6  -2   1    8.58    0.54
   6  -2  -1   10.15    0.52
   6  -2  -1    9.12    0.51
  -6  -2   1    9.57    0.56
  -6  -2   1    9.21    0.54
   6  -2  -1    9.82    0.50
  -6  -2   1    8.92    0.58
   6   2  -1    8.91    0.52
  -6   2   1    8.84    0.61
  -6   2   1    8.65    0.53
  -6   2   1    9.18    0.56
  -6   2   1    8.94    0.60
   6   2  -1    8.49    0.55
   6   2  -1    8.54    0.58
  -6   2   1    8.67    0.57
   5  -2  -1    0.13    0.08
  -5  -2   1    0.13    0.19
   5  -2  -1   -0.03    0.15
   5  -2  -1   -0.07    0.15
  -5  -2   1    0.13    0.09
  -5  -2   1    0.05    0.20
   5  -2  -1    0.12    0.16
  -5  -2   1    0.09    0.23
  -5  -2   1   -0.23    0.19
  -5   2   1    0.21    0.07
   5   2  -1   -0.01    0.18
   5   2  -1   -0.05    0.17
  -5   2   1    0.06    0.18
  -5   2   1   -0.05    0.19
  -5   2   1    0.07    0.16
  -5   2   1   -0.06    0.21
   5   2  -1    0.06    0.16
   5   2  -1   -0.03    0.09
  -5   2   1    0.08    0.21
   4  -2  -1    1.63    0.22
   4  -2  -1    1.39    0.21
   4  -2  -1    1.39    0.14
  -4  -2   1    1.48    0.29
  -4  -2   1    1.29    0.22
  -4  -2   1    1.33    0.27
   4  -2  -1    1.49    0.24
  -4  -2   1    1.49    0.13
  -4  -2   1    1.91    0.29
   4   2  -1    1.60    0.29
  -4   2   1    1.47    0.27
  -4   2   1    1.19    0.24
   4   2  -1    1.34    0.12
   4   2  -1    1.60    0.26
   4   2  -1    1.21    0.23
  -4   2   1    1.04    0.21
  -4   2   1    1.39    0.23
  -4   2   1    1.38    0.25
   4   2  -1    1.47    0.22
  -3  -2   1   26.37    1.19
  -3  -2   1   29.97    1.16
  -3  -2   1   30.99    1.18
   3  -2  -1   30.33    1.12
  -3  -2   1   29.14    1.10
   3  -2  -1   29.86    1.15
   3  -2  -1   27.69    1.15
  -3  -2   1   28.83    1.19
   3   2  -1   29.15    1.14
   3   2  -1   26.34    1.17
   3   2  -1   26.70    1.20
  -3   2   1   25.34    1.17
  -3   2   1   27.60    1.14
  -3   2   1   25.61    1.18
  -3   2   1   26.53    1.21
   3   2  -1   27.52    1.09
  -3   2   1   27.94    1.18
   3   2  -1   27.92    1.20
  -2  -2   1  182.18    6.80
  -2  -2   1  177.98    6.78
   2  -2  -1  180.12    6.86
   2  -2  -1  175.41    6.79
   2  -2  -1  177.31    6.79
   2  -2  -1  176.14    6.80
   2  -2  -1  178.28    6.79
  -2  -2   1  179.33    6.80
  -2  -2   1  178.32    6.81
  -2   2   1  192.28    6.81
  -2   2   1  172.41    6.80
  -2   2   1  167.26    6.80
   2   2  -1  176.21    6.82
  -2   2   1  169.04    6.83
   2   2  -1  183.57    6.83
   2   2  -1  170.72    6.81
   2   2  -1  173.83    6.83
   2   2  -1  171.46    6.81
   2   2  -1  180.93    6.80
  -2   2   1  186.28    6.82
  -2   2   1  169.72    6.89
  -1  -2   1  202.79    7.91
  -1  -2   1  206.93    7.84
  -1  -2   1  206.57    7.78
  -1  -2   1  191.35    7.84
   1  -2  -1  195.38    7.82
   1  -2  -1  201.15    7.83
  -1  -2   1  199.08    7.89
   1  -2  -1  198.07    7.81
   1  -2  -1  205.72    7.85
  -1   2   1  200.43    9.12
   1   2  -1  200.65    7.86
   1   2  -1  196.13    7.77
   1   2  -1  197.26    7.83
   1   2  -1  217.66    7.88
   1   2  -1  212.96    7.89
  -1   2   1  192.24    9.42
   1   2  -1  213.36    7.92
  -1   2   1  196.33    7.80
   1   2  -1  198.33    7.81
  -1   2   1  206.98    7.87
   1   2  -1  214.10    7.87
  -1   2   1  203.97    7.80
  -1   2   1  203.49    7.83
   1   2  -1  204.59    7.83
  -1   2   1  202.71    7.86
   0  -2   1   49.12    1.93
   0  -2   1   45.50    1.90
   0  -2  -1   47.07    1.91
   0  -2  -1   45.84    1.93
   0  -2   1   48.16    1.94
   0  -2  -1   48.47    1.90
   0  -2  -1   49.25    1.90
   0  -2   1   47.66    1.94
   0   2  -1   49.75    1.94
   0   2   1   55.38    1.95
   0   2   1   50.79    1.95
   0   2   1   51.41    1.94
   0   2  -1   51.84    1.91
   0   2   1   46.05    1.93
   0   2   1   47.05    1.92
   0   2  -1   46.89    1.93
   0   2  -1   52.74    1.92
   0   2   1   52.55    1.91
   0   2  -1   47.62    1.95
   0   2  -1   50.14    1.94
   0   2   1   48.43    1.90
   0   2  -1   48.09    1.92
   0   2  -1   48.41    1.93
   0   2   1   47.18    1.91
   0   2  -1   50.54    1.94
  -1  -2  -1   25.85    1.02
   1  -2   1   25.40    1.03
  -1  -2  -1   25.90    1.04
  -1  -2  -1   25.26    1.06
   1  -2   1   26.93    1.10
  -1  -2  -1   24.85    1.08
   1  -2   1   26.01    1.05
   1  -2   1   25.93    1.04
   1   2   1   25.50    1.07
  -1   2  -1   25.20    1.07
  -1   2  -1   25.62    1.08
  -1   2  -1   27.31    1.04
  -1   2  -1   27.06    1.10
  -1   2  -1   28.02    1.05
   1   2   1   27.12    1.09
   1   2   1   27.80    1.10
  -1   2  -1   25.31    1.05
  -1   2  -1   25.37    1.09
   1   2   1   25.27    1.04
  -1   2  -1   26.00    1.05
   1   2   1   25.08    1.05
  -1   2  -1   26.73    1.06
   2  -2   1   83.51    3.12
   2  -2   1   81.81    3.10
   2  -2   1   79.19    3.13
  -2  -2  -1   80.42    3.09
  -2  -2  -1   81.51    3.08
  -2  -2  -1   74.25    3.15
  -2  -2  -1   81.36    3.13
   2  -2   1   80.65    3.17
  -2  -2  -1   78.80    3.14
  -2   2  -1   82.83    3.18
   2   2   1   82.37    3.17
   2   2   1   81.72    3.09
   2   2   1   79.83    3.16
  -2   2  -1   80.02    3.11
  -2   2  -1   77.46    3.14
   2   2   1   80.06    3.12
   2   2   1   82.20    3.14
   2   2   1   80.16    3.10
  -2   2  -1   78.80    3.16
  -2   2  -1   85.93    3.09
  -2   2  -1   80.16    3.14
  -2   2  -1   77.99    3.17
   3  -2   1    1.13    0.20
  -3  -2  -1    1.19    0.24
  -3  -2  -1    0.87    0.17
   3  -2   1    1.35    0.20
  -3  -2  -1    0.95    0.16
  -3  -2  -1    1.12    0.23
  -3   2  -1    0.90    0.25
  -3   2  -1    1.14    0.22
   3   2   1    1.01    0.23
  -3   2  -1    1.00    0.26
  -3   2  -1    0.97    0.15
  -3   2  -1    1.60    0.25
   3   2   1    1.09    0.17
  -3   2  -1    0.93    0.21
   3   2   1    0.91    0.20
   3   2   1    1.14    0.22
   3   2   1    1.43    0.18
   4  -2   1    3.44    0.23
  -4  -2  -1    3.32    0.31
   4  -2   1    3.46    0.26
  -4  -2  -1    3.25    0.24
  -4  -2  -1    3.18    0.30
  -4  -2  -1    3.36    0.25
   4  -2   1    3.40    0.27
   4   2   1    3.66    0.34
  -4   2  -1    3.52    0.35
  -4   2  -1    3.33    0.31
   4   2   1    3.72    0.33
  -4   2  -1    3.18    0.21
   4   2   1    2.90    0.25
  -4   2  -1    3.09    0.28
   4   2   1    3.49    0.24
   4   2   1    3.49    0.29
  -4   2  -1    3.58    0.35
  -5  -2  -1    3.70    0.29
  -5  -2  -1    3.56    0.36
   5  -2   1    3.53    0.29
   5  -2   1    3.95    0.26
  -5  -2  -1    3.46    0.35
  -5  -2  -1    3.82    0.30
   5  -2   1    3.87    0.32
   5   2   1    3.21    0.33
  -5   2  -1    3.24    0.32
  -5   2  -1    3.07    0.40
  -5   2  -1    3.19    0.37
  -5   2  -1    3.55    0.43
   5   2   1    3.41    0.26
  -5   2  -1    3.49    0.23
   5   2   1    3.17    0.32
   5   2   1    3.37    0.31
  -6  -2  -1    1.88    0.32
   6  -2   1    1.91    0.28
  -6  -2  -1    1.77    0.28
   6  -2   1    1.81    0.28
  -6  -2  -1    2.42    0.40
   6  -2   1    2.25    0.25
   6   2   1    1.81    0.31
   6   2   1    1.70    0.24
  -6   2  -1    1.59    0.32
  -6   2  -1    1.93    0.37
   6   2   1    1.39    0.30
  -6   2  -1    1.73    0.22
  -6   2  -1    1.75    0.38
   6   2   1    1.85    0.31
  -6   2  -1    1.79    0.33
   7  -2   1    0.65    0.25
   7  -2   1    0.96    0.22
  -7  -2  -1    0.62    0.26
   7  -2   1    0.31    0.23
  -7  -2  -1    0.84    0.27
  -7  -2  -1    0.86    0.35
  -7  -2  -1    0.81    0.37
   7   2   1    0.91    0.31
  -7   2  -1    0.84    0.32
   7   2   1    0.64    0.23
  -7   2  -1    0.49    0.31
  -7   2  -1    1.26    0.37
   7   2   1    0.47    0.29
  -7   2  -1    0.52    0.33
   7   2   1    0.79    0.27
   8  -2   1    6.28    0.49
  -8  -2  -1    7.86    0.54
  -8  -2  -1    6.43    0.54
   8  -2   1    6.46    0.50
  -8  -2  -1    6.12    0.61
  -8  -2  -1    6.76    0.50
   8  -2   1    8.03    0.50
  -8   2  -1    6.10    0.60
   8   2   1    6.09    0.55
  -8   2  -1    6.58    0.57
  -8   2  -1    6.91    0.67
   8   2   1    6.34    0.51
   8   2   1    5.91    0.55
  -8   2  -1    7.81    0.72
  -9  -2  -1   -0.17    0.47
  -9  -2  -1   -0.51    0.39
   9  -2   1   -0.20    0.26
   9  -2   1   -0.10    0.25
   9   2   1    0.37    0.35
   9   2   1   -0.04    0.29
  -9   2  -1    0.51    0.40
  -9   2  -1   -0.06    0.33
  -9   2  -1    0.05    0.38
  10  -2   1    0.06    0.31
 -10  -2  -1    0.19    0.47
  10  -2   1   -0.17    0.30
  10   2   1    0.36    0.32
  10   2   1    0.78    0.40
 -10   2  -1    0.54    0.41
 -10   2  -1    0.86    0.49
  11  -2   1    0.64    0.36
  11  -2   1    0.51    0.41
 -11  -2  -1    0.97    0.55
  11   2   1    1.06    0.38
  11   2   1    1.68    0.44
 -11   2  -1    1.63    0.51
  11  -3  -1    1.82    0.44
 -11  -3   1    2.10    0.65
  11   3  -1    2.86    0.52
  11   3  -1    3.31    0.60
 -11   3   1    3.89    0.64
  10  -3  -1    4.67    0.48
 -10  -3   1    4.57    0.67
  10  -3  -1    4.68    0.51
 -10  -3   1    4.38    0.73
  10   3  -1    4.67    0.49
 -10   3   1    6.10    0.60
 -10   3   1    5.42    0.72
  10   3  -1    6.12    0.63
  -9  -3   1    0.76    0.50
   9  -3  -1    1.00    0.33
  -9  -3   1    1.25    0.47
  -9  -3   1    1.98    0.46
   9  -3  -1    0.77    0.32
   9   3  -1    1.06    0.31
  -9   3   1    1.07    0.51
  -9   3   1    1.21    0.34
   9   3  -1    1.20    0.39
   9   3  -1    0.88    0.42
  -9   3   1    1.31    0.47
   8  -3  -1   10.39    0.59
  -8  -3   1    9.21    0.68
  -8  -3   1   10.75    0.65
  -8  -3   1   11.46    0.67
  -8  -3   1    8.86    0.74
   8  -3  -1    9.51    0.60
   8  -3  -1    9.67    0.60
  -8   3   1    9.58    0.74
  -8   3   1    9.93    0.80
   8   3  -1    8.57    0.59
   8   3  -1    9.52    0.74
  -8   3   1    8.96    0.61
   8   3  -1    9.29    0.72
  -7  -3   1   19.92    1.03
   7  -3  -1   18.79    0.93
  -7  -3   1   19.80    0.93
   7  -3  -1   19.80    0.90
  -7  -3   1   18.63    0.97
   7  -3  -1   19.39    0.90
  -7  -3   1   19.36    0.93
  -7   3   1   17.81    1.05
  -7   3   1   18.89    1.02
   7   3  -1   17.58    0.97
  -7   3   1   18.46    1.00
  -7   3   1   17.06    0.89
   7   3  -1   17.50    0.90
   7   3  -1   17.69    0.99
  -6  -3   1   15.11    0.82
   6  -3  -1   16.84    0.77
   6  -3  -1   15.04    0.78
  -6  -3   1   16.26    0.77
  -6  -3   1   15.41    0.84
  -6  -3   1   15.61    0.78
   6  -3  -1   15.69    0.76
  -6   3   1   14.75    0.92
  -6   3   1   15.63    0.80
   6   3  -1   14.98    0.87
  -6   3   1   16.24    0.87
   6   3  -1   14.95    0.82
  -6   3   1   14.42    0.74
  -6   3   1   15.44    0.84
   6   3  -1   14.45    0.74
  -5  -3   1    0.11    0.29
  -5  -3   1    0.09    0.21
  -5  -3   1   -0.04    0.23
   5  -3  -1   -0.01    0.20
  -5  -3   1   -0.13    0.25
   5  -3  -1    0.06    0.18
   5  -3  -1    0.09    0.22
  -5   3   1    0.08    0.16
  -5   3   1    0.01    0.22
   5   3  -1   -0.30    0.26
  -5   3   1   -0.18    0.30
   5   3  -1   -0.11    0.22
   5   3  -1    0.10    0.21
   5   3  -1    0.06    0.16
  -5   3   1    0.08    0.23
  -5   3   1    0.10    0.24
   4  -3  -1    3.36    0.29
   4  -3  -1    3.41    0.31
  -4  -3   1    3.87    0.19
  -4  -3   1    3.76    0.41
  -4  -3   1    3.07    0.34
  -4  -3   1    3.22    0.29
   4  -3  -1    3.00    0.23
   4  -3  -1    3.03    0.29
  -4  -3   1    3.24    0.36
  -4   3   1    3.49    0.34
   4   3  -1    3.82    0.33
  -4   3   1    3.61    0.36
  -4   3   1    4.15    0.34
   4   3  -1    4.10    0.20
   4   3  -1    4.33    0.37
   4   3  -1    4.04    0.37
  -4   3   1    3.56    0.27
  -4   3   1    3.67    0.39
   4   3  -1    3.95    0.28
  -3  -3   1   60.62    2.43
   3  -3  -1   61.45    2.40
  -3  -3   1   57.81    2.43
   3  -3  -1   59.38    2.39
  -3  -3   1   59.54    2.38
   3  -3  -1   61.53    2.32
  -3  -3   1   62.67    2.41
   3  -3  -1   60.69    2.36
  -3  -3   1   61.80    2.33
   3   3  -1   59.09    2.39
   3   3  -1   58.50    2.46
   3   3  -1   57.50    2.43
   3   3  -1   66.33    2.46
  -3   3   1   56.28    2.41
   3   3  -1   66.79    2.47
   3   3  -1   62.34    2.34
  -3   3   1   64.10    2.44
  -3   3   1   57.38    2.46
  -3   3   1   57.42    2.43
  -3   3   1   57.60    2.38
   2  -3  -1  112.45    4.33
  -2  -3   1  115.47    4.29
  -2  -3   1  112.07    4.33
   2  -3  -1  113.40    4.28
  -2  -3   1  110.25    4.31
  -2  -3   1  112.43    4.34
  -2  -3   1  105.86    4.35
   2  -3  -1  109.96    4.33
   2  -3  -1  113.59    4.31
  -2  -3   1  107.65    4.35
   2   3  -1  107.62    4.35
  -2   3   1  115.92    4.35
  -2   3   1  109.43    4.35
   2   3  -1  117.14    4.37
  -2   3   1  114.25    4.28
  -2   3   1  109.51    4.35
   2   3  -1  114.26    4.37
  -2   3   1  107.81    4.30
   2   3  -1  115.28    4.29
  -2   3   1  106.92    4.33
   2   3  -1  111.83    4.32
   2   3  -1  112.56    4.38
  -2   3   1  108.78    4.38
   1  -3  -1   53.60    2.19
  -1  -3   1   55.08    2.20
   1  -3  -1   52.16    2.20
  -1  -3   1   54.41    2.21
   1  -3  -1   55.06    2.19
  -1  -3   1   53.91    2.19
  -1  -3   1   53.50    2.21
   1  -3  -1   52.73    2.16
  -1  -3   1   55.47    2.18
   1   3  -1   56.02    2.18
   1   3  -1   58.53    2.20
  -1   3   1   52.31    2.18
  -1   3   1   58.68    2.18
  -1   3   1   60.11    2.22
   1   3  -1   53.25    2.21
  -1   3   1   59.50    2.22
  -1   3   1   52.01    2.19
  -1   3   1   57.30    2.17
   1   3  -1   55.89    2.22
  -1   3   1   54.07    2.21
   1   3  -1   58.79    2.23
   1   3  -1   58.44    2.20
  -1   3   1   52.15    2.22
   1   3  -1   52.92    2.23
   1   3  -1   57.00    2.17
   0  -3  -1    9.11    0.45
   0  -3  -1    7.97    0.45
   0  -3   1    8.54    0.49
   0  -3  -1    8.72    0.48
   0  -3   1    8.75    0.51
   0  -3  -1    9.27    0.45
   0  -3  -1    8.78    0.46
   0   3  -1    9.26    0.48
   0   3   1    9.65    0.49
   0   3  -1    9.27    0.47
   0   3  -1    9.50    0.50
   0   3   1    9.89    0.48
   0   3   1    8.65    0.47
   0   3   1    9.86    0.51
   0   3   1   10.06    0.46
   0   3  -1    9.80    0.45
   0   3  -1    9.38    0.49
   0   3   1    9.05    0.43
   0   3  -1    9.60    0.52
   0   3   1    9.07    0.45
   0   3  -1    9.11    0.48
   0   3  -1    9.54    0.50
   0   3  -1    9.48    0.46
   0   3   1    9.58    0.51
   0   3   1    9.06    0.47
  -1  -3  -1    0.27    0.13
  -1  -3  -1   -0.15    0.19
   1  -3   1   -0.09    0.23
   1  -3   1   -0.01    0.14
  -1  -3  -1    0.17    0.21
   1  -3   1    0.12    0.17
   1   3   1    0.11    0.15
  -1   3  -1    0.22    0.21
   1   3   1    0.18    0.17
  -1   3  -1    0.39    0.16
   1   3   1    0.22    0.18
   1   3   1    0.16    0.21
  -1   3  -1    0.28    0.19
  -1   3  -1    0.49    0.16
   1   3   1    0.45    0.12
  -1   3  -1    0.50    0.23
  -1   3  -1    0.22    0.16
   1   3   1    0.19    0.20
  -1   3  -1    0.21    0.17
  -1   3  -1    0.39    0.17
  -1   3  -1    0.40    0.18
   2  -3   1    8.38    0.44
  -2  -3  -1    8.98    0.54
  -2  -3  -1   10.35    0.44
   2  -3   1    9.11    0.49
  -2  -3  -1    9.50    0.49
   2  -3   1    9.69    0.47
  -2  -3  -1    8.07    0.50
  -2  -3  -1   10.05    0.44
  -2  -3  -1    9.59    0.42
   2  -3   1    9.39    0.46
   2   3   1    9.34    0.50
  -2   3  -1    8.77    0.50
  -2   3  -1    9.81    0.46
  -2   3  -1    9.71    0.56
   2   3   1    9.92    0.44
  -2   3  -1    9.43    0.54
   2   3   1   10.65    0.58
   2   3   1   10.47    0.44
  -2   3  -1   11.21    0.52
   2   3   1    9.83    0.53
   2   3   1    9.35    0.47
  -2   3  -1    9.24    0.52
  -3  -3  -1   76.34    2.87
   3  -3   1   76.42    2.88
   3  -3   1   75.53    2.93
  -3  -3  -1   77.31    2.86
   3  -3   1   76.48    2.91
  -3  -3  -1   70.83    2.93
  -3  -3  -1   65.43    2.94
   3  -3   1   77.18    2.84
   3   3   1   74.85    2.97
   3   3   1   74.64    2.87
  -3   3  -1   74.08    2.96
   3   3   1   72.18    2.98
   3   3   1   72.41    2.93
  -3   3  -1   72.28    2.88
  -3   3  -1   83.03    2.96
   3   3   1   70.72    2.89
  -3   3  -1   72.89    2.98
  -3   3  -1   73.27    2.99
  -3   3  -1   69.11    2.92
   4  -3   1   12.32    0.52
  -4  -3  -1   11.75    0.50
   4  -3   1   11.65    0.55
  -4  -3  -1    9.82    0.59
  -4  -3  -1   11.37    0.58
  -4  -3  -1   10.97    0.59
  -4  -3  -1   11.51    0.51
   4  -3   1   10.54    0.56
   4   3   1   10.78    0.51
  -4   3  -1   11.10    0.59
  -4   3  -1   10.83    0.50
   4   3   1   10.81    0.60
  -4   3  -1   10.84    0.65
   4   3   1   10.67    0.51
   4   3   1   11.03    0.57
  -4   3  -1   10.69    0.60
   4   3   1   10.07    0.62
  -4   3  -1   10.72    0.57
  -4   3  -1   10.23    0.62
  -5  -3  -1    5.71    0.45
  -5  -3  -1    5.16    0.44
  -5  -3  -1    5.81    0.35
   5  -3   1    5.89    0.41
   5  -3   1    5.18    0.39
   5  -3   1    5.84    0.34
  -5  -3  -1    5.76    0.35
   5   3   1    5.27    0.33
   5   3   1    4.67    0.43
  -5   3  -1    5.23    0.40
   5   3   1    5.16    0.47
  -5   3  -1    5.94    0.50
  -5   3  -1    5.13    0.45
  -5   3  -1    5.46    0.31
  -5   3  -1    4.76    0.49
   5   3   1    5.39    0.40
  -6  -3  -1    0.15    0.30
  -6  -3  -1    0.45    0.20
  -6  -3  -1    0.17    0.32
   6  -3   1    0.21    0.25
   6  -3   1    0.35    0.18
   6  -3   1    0.31    0.23
  -6  -3  -1    0.65    0.21
  -6  -3  -1   -0.03    0.27
   6   3   1    0.09    0.23
   6   3   1    0.14    0.17
   6   3   1    0.13    0.31
  -6   3  -1   -0.10    0.27
  -6   3  -1    0.17    0.24
   6   3   1    0.16    0.25
  -6   3  -1    0.35    0.31
  -6   3  -1   -0.19    0.34
  -7  -3  -1    3.30    0.52
   7  -3   1    3.07    0.37
   7  -3   1    3.94    0.35
   7  -3   1    3.34    0.37
  -7  -3  -1    3.50    0.45
  -7  -3  -1    3.28    0.51
  -7   3  -1    2.88    0.48
  -7   3  -1    3.65    0.52
  -7   3  -1    2.70    0.53
   7   3   1    2.65    0.47
  -7   3  -1    3.08    0.41
   7   3   1    2.60    0.39
   7   3   1    2.85    0.51
   8  -3   1    0.08    0.27
  -8  -3  -1   -0.18    0.36
  -8  -3  -1   -0.15    0.46
  -8  -3  -1    0.75    0.32
   8  -3   1   -0.18    0.25
  -8   3  -1    0.00    0.32
  -8   3  -1    0.29    0.43
   8   3   1    0.04    0.34
   8   3   1    0.31    0.34
  -8   3  -1    0.42    0.38
   8   3   1    0.11    0.27
   9  -3   1    0.97    0.33
  -9  -3  -1    0.46    0.51
  -9  -3  -1    0.62    0.49
   9  -3   1    1.05    0.36
  -9   3  -1    0.90    0.48
  -9   3  -1    1.05    0.47
  -9   3  -1    1.80    0.45
   9   3   1    1.62    0.45
   9   3   1    0.81    0.54
   9   3   1    0.93    0.34
  10  -3   1    0.12    0.33
 -10  -3  -1   -0.06    0.52
 -10   3  -1    1.09    0.42
  10   3   1    1.03    0.45
  10   3   1    0.64    0.33
 -10   3  -1    1.12    0.52
 -10   3  -1    0.04    0.49
 -10  -4   1    6.65    0.82
 -10  -4   1    7.15    0.74
  10  -4  -1    7.26    0.61
  10  -4  -1    6.46    0.61
  10   4  -1    8.23    0.75
  10   4  -1    7.22    0.84
  10   4  -1    7.13    0.63
  -9  -4   1    0.39    0.46
  -9  -4   1   -0.17    0.52
   9  -4  -1    0.46    0.35
   9  -4  -1   -0.37    0.33
   9   4  -1    0.76    0.45
   9   4  -1    0.48    0.28
  -9   4   1    1.39    0.56
   9   4  -1    0.75    0.43
  -9   4   1    1.14    0.50
  -8  -4   1    1.22    0.48
   8  -4  -1    1.99    0.38
   8  -4  -1    1.01    0.34
  -8  -4   1    1.10    0.53
   8  -4  -1    1.19    0.34
  -8   4   1    1.89    0.38
  -8   4   1    1.70    0.47
   8   4  -1    1.38    0.40
  -8   4   1    1.18    0.49
   8   4  -1    1.38    0.46
   8   4  -1    1.31    0.32
  -7  -4   1    5.46    0.49
   7  -4  -1    4.60    0.45
   7  -4  -1    4.87    0.46
  -7  -4   1    4.72    0.56
   7  -4  -1    4.33    0.46
  -7  -4   1    5.52    0.67
  -7   4   1    4.66    0.52
   7   4  -1    4.77    0.52
   7   4  -1    5.41    0.63
  -7   4   1    4.84    0.66
   7   4  -1    4.69    0.45
  -7   4   1    4.94    0.57
  -7   4   1    4.73    0.44
  -6  -4   1    1.49    0.41
  -6  -4   1    1.82    0.34
   6  -4  -1    2.05    0.35
   6  -4  -1    1.93    0.33
  -6  -4   1    1.92    0.36
  -6  -4   1    1.95    0.43
   6  -4  -1    1.75    0.32
  -6   4   1    1.82    0.32
  -6   4   1    1.91    0.38
  -6   4   1    2.21    0.40
   6   4  -1    1.59    0.29
   6   4  -1    1.52    0.39
  -6   4   1    2.84    0.46
   6   4  -1    1.69    0.35
  -6   4   1    1.96    0.49
   5  -4  -1    0.10    0.22
  -5  -4   1    0.14    0.37
   5  -4  -1   -0.03    0.28
  -5  -4   1    0.02    0.24
  -5  -4   1   -0.20    0.34
  -5  -4   1   -0.39    0.26
   5  -4  -1   -0.07    0.25
  -5   4   1    0.05    0.24
   5   4  -1   -0.15    0.23
  -5   4   1    0.07    0.19
  -5   4   1    0.01    0.30
  -5   4   1    0.35    0.30
   5   4  -1   -0.01    0.18
  -5   4   1   -0.31    0.32
   5   4  -1    0.15    0.28
   5   4  -1   -0.09    0.36
  -4  -4   1    4.46    0.37
   4  -4  -1    4.89    0.37
   4  -4  -1    4.84    0.39
   4  -4  -1    3.47    0.38
  -4  -4   1    4.62    0.45
  -4  -4   1    3.75    0.42
  -4  -4   1    3.77    0.42
   4  -4  -1    4.34    0.30
   4   4  -1    4.28    0.32
  -4   4   1    4.27    0.32
  -4   4   1    4.37    0.42
  -4   4   1    3.73    0.38
   4   4  -1    3.92    0.42
   4   4  -1    3.99    0.43
  -4   4   1    4.12    0.40
   4   4  -1    3.65    0.43
  -4   4   1    3.77    0.46
  -3  -4   1    2.38    0.32
   3  -4  -1    2.63    0.19
   3  -4  -1    2.49    0.25
   3  -4  -1    2.33    0.28
   3  -4  -1    2.42    0.31
  -3  -4   1    2.29    0.29
  -3  -4   1    2.85    0.35
  -3  -4   1    2.13    0.34
  -3  -4   1    2.42    0.20
   3   4  -1    2.47    0.20
  -3   4   1    2.51    0.33
   3   4  -1    2.90    0.25
  -3   4   1    2.64    0.31
   3   4  -1    2.61    0.34
   3   4  -1    2.61    0.35
  -3   4   1    2.61    0.35
  -3   4   1    2.24    0.36
  -3   4   1    2.62    0.20
  -3   4   1    2.56    0.25
  -3   4   1    2.71    0.32
   3   4  -1    2.23    0.34
   2  -4  -1    4.35    0.31
   2  -4  -1    4.47    0.35
  -2  -4   1    4.06    0.33
  -2  -4   1    3.92    0.37
   2  -4  -1    4.22    0.27
  -2  -4   1    4.42    0.29
  -2  -4   1    4.31    0.36
  -2  -4   1    4.72    0.40
   2  -4  -1    4.16    0.33
  -2   4   1    4.81    0.36
   2   4  -1    5.34    0.44
  -2   4   1    4.19    0.34
   2   4  -1    4.54    0.38
   2   4  -1    4.43    0.28
  -2   4   1    4.77    0.29
   2   4  -1    4.65    0.38
   2   4  -1    4.62    0.42
  -2   4   1    4.53    0.37
  -2   4   1    4.47    0.37
  -2   4   1    4.21    0.29
   2   4  -1    4.19    0.30
  -2   4   1    4.33    0.39
   2   4  -1    4.61    0.31
   1  -4  -1   -0.12    0.17
  -1  -4   1    0.04    0.18
  -1  -4   1    0.09    0.17
  -1  -4   1    0.09    0.19
  -1  -4   1    0.12    0.18
   1  -4  -1    0.33    0.17
   1  -4  -1    0.00    0.15
   1   4  -1    0.48    0.22
  -1   4   1   -0.01    0.21
  -1   4   1    0.13    0.14
  -1   4   1    0.39    0.21
  -1   4   1    0.29    0.17
   1   4  -1    0.34    0.19
  -1   4   1   -0.09    0.18
   1   4  -1    0.16    0.20
  -1   4   1   -0.08    0.18
  -1   4   1   -0.07    0.17
   1   4  -1    0.48    0.23
  -1   4   1    0.15    0.15
  -1   4   1    0.00    0.18
   1   4  -1    0.23    0.16
   1   4  -1    0.32    0.19
   1   4  -1    0.04    0.14
   1   4  -1    0.18    0.17
   0  -4  -1   10.45    0.49
   0  -4   1    8.89    0.54
   0  -4  -1   11.37    0.50
   0  -4  -1    9.35    0.52
   0  -4  -1    9.67    0.50
   0  -4  -1    9.10    0.49
   0   4  -1    9.38    0.52
   0   4   1   10.02    0.48
   0   4   1   10.17    0.50
   0   4  -1    9.30    0.54
   0   4   1    9.22    0.52
   0   4   1    9.19    0.55
   0   4   1    9.73    0.52
   0   4  -1    9.57    0.53
   0   4   1    9.42    0.51
   0   4  -1    9.54    0.53
   0   4  -1   10.19    0.57
   0   4  -1    9.56    0.54
   0   4   1    9.89    0.55
   0   4   1    9.56    0.50
   0   4   1   10.08    0.55
   0   4  -1    9.88    0.51
   0   4  -1    9.85    0.51
   0   4  -1    9.85    0.51
   1  -4   1   19.80    0.87
  -1  -4  -1   20.38    0.84
  -1  -4  -1   19.80    0.89
   1  -4   1   19.00    0.86
  -1  -4  -1   20.76    0.87
  -1  -4  -1   20.09    0.85
  -1  -4  -1   18.88    0.91
   1  -4   1   18.53    0.90
   1  -4   1   18.67    0.86
  -1  -4  -1   20.97    0.85
  -1   4  -1   20.93    0.89
  -1   4  -1   19.89    0.93
  -1   4  -1   20.14    0.93
   1   4   1   20.56    0.84
  -1   4  -1   19.29    0.90
  -1   4  -1   20.69    0.89
   1   4   1   19.18    0.88
   1   4   1   20.05    0.93
  -1   4  -1   19.33    0.90
   1   4   1   19.78    0.94
   1   4   1   19.23    0.90
  -1   4  -1   20.16    0.90
  -1   4  -1   19.12    0.88
   1   4   1   19.03    0.87
  -1   4  -1   20.57    0.89
  -2  -4  -1    0.65    0.22
  -2  -4  -1    0.30    0.21
   2  -4   1    0.55    0.18
  -2  -4  -1    0.89    0.17
  -2  -4  -1    0.43    0.22
   2  -4   1    0.62    0.15
   2  -4   1    0.56    0.20
   2  -4   1    0.56    0.17
   2   4   1    0.69    0.25
  -2   4  -1    0.69    0.23
  -2   4  -1    0.77    0.18
   2   4   1    0.55    0.20
  -2   4  -1    0.55    0.22
  -2   4  -1    0.94    0.23
  -2   4  -1    0.68    0.20
   2   4   1    0.71    0.17
  -2   4  -1    0.74    0.25
  -2   4  -1    0.62    0.19
   2   4   1    0.75    0.16
   2   4   1    0.92    0.27
  -2   4  -1    0.96    0.19
  -3  -4  -1    0.27    0.22
   3  -4   1    0.55    0.13
   3  -4   1    0.45    0.18
  -3  -4  -1    0.09    0.16
  -3  -4  -1    0.41    0.23
   3  -4   1    0.55    0.19
  -3  -4  -1    0.28    0.15
  -3  -4  -1    0.66    0.14
   3  -4   1    0.33    0.21
  -3  -4  -1    0.48    0.25
   3   4   1    0.44    0.23
  -3   4  -1    0.45    0.24
   3   4   1    0.45    0.26
  -3   4  -1    0.35    0.23
  -3   4  -1    0.31    0.16
  -3   4  -1    0.20    0.25
   3   4   1    0.28    0.20
   3   4   1    0.41    0.16
  -3   4  -1    0.42    0.21
  -3   4  -1    0.57    0.24
  -4  -4  -1    0.12    0.28
  -4  -4  -1    0.03    0.27
   4  -4   1   -0.06    0.22
  -4  -4  -1    0.01    0.25
  -4  -4  -1    0.09    0.16
   4  -4   1   -0.01    0.20
  -4  -4  -1    0.13    0.25
   4  -4   1   -0.09    0.18
  -4   4  -1    0.11    0.19
  -4   4  -1    0.26    0.26
   4   4   1    0.15    0.20
  -4   4  -1    0.28    0.15
   4   4   1    0.16    0.16
   4   4   1   -0.04    0.28
   4   4   1    0.08    0.24
  -4   4  -1   -0.03    0.24
  -4   4  -1   -0.07    0.28
  -4   4  -1    0.08    0.25
   5  -4   1    0.63    0.22
   5  -4   1    0.68    0.25
  -5  -4  -1    1.01    0.33
  -5  -4  -1    0.96    0.34
   5  -4   1    0.78    0.30
  -5  -4  -1    0.44    0.29
   5   4   1    1.01    0.20
   5   4   1    0.72    0.25
  -5   4  -1    0.75    0.33
  -5   4  -1    0.72    0.32
   5   4   1    0.70    0.31
  -5   4  -1    0.83    0.28
  -5   4  -1    0.48    0.36
   5   4   1    0.58    0.33
   6  -4   1    0.01    0.31
  -6  -4  -1   -0.16    0.38
  -6  -4  -1    0.05    0.38
   6  -4   1   -0.03    0.25
   6  -4   1    0.15    0.26
  -6  -4  -1   -0.10    0.28
  -6   4  -1    0.47    0.32
   6   4   1   -0.17    0.32
  -6   4  -1   -0.35    0.35
  -6   4  -1   -0.09    0.31
  -6   4  -1   -0.04    0.24
   6   4   1    0.06    0.25
   6   4   1   -0.08    0.31
   7  -4   1   -0.13    0.28
   7  -4   1   -0.07    0.30
  -7  -4  -1   -0.36    0.43
  -7  -4  -1    0.00    0.39
  -7  -4  -1    0.63    0.36
   7   4   1    0.30    0.32
  -7   4  -1    0.24    0.36
  -7   4  -1   -0.19    0.39
   7   4   1    0.19    0.27
  -7   4  -1    0.48    0.31
   7   4   1    0.25    0.39
   8  -4   1    2.47    0.43
  -8  -4  -1    2.94    0.48
  -8  -4  -1    2.77    0.55
   8  -4   1    2.90    0.43
  -8  -4  -1    2.56    0.61
  -8   4  -1    3.30    0.53
   8   4   1    1.92    0.48
   8   4   1    2.44    0.42
  -8   4  -1    3.01    0.57
   8   4   1    2.69    0.52
  -8   4  -1    2.71    0.62
  -9  -4  -1   -0.22    0.48
   9  -4   1    0.03    0.37
  -9  -4  -1   -0.24    0.53
   9  -4   1    0.05    0.33
  -9   4  -1    0.87    0.36
   9   4   1    0.39    0.31
  -9   4  -1    0.44    0.50
   9   4   1    0.70    0.44
  -9   4  -1    1.13    0.56
   9   4   1    0.23    0.47
 -10  -4  -1    0.21    0.63
  10  -4   1    0.18    0.36
  10  -4   1    0.15    0.37
 -10   4  -1    0.41    0.54
  10   4   1    1.45    0.47
 -10   4  -1    1.79    0.60
  10   4   1    0.95    0.35
  -9  -5   1   19.86    1.26
   9  -5  -1   21.34    1.14
  -9  -5   1   23.60    1.31
   9  -5  -1   19.64    1.14
   9   5  -1   21.40    1.28
   9   5  -1   18.32    1.08
  -9   5   1   21.63    1.38
  -9   5   1   24.60    1.38
   9   5  -1   21.48    1.30
  -8  -5   1   -0.40    0.53
   8  -5  -1   -0.21    0.33
   8  -5  -1    0.41    0.36
  -8  -5   1    0.27    0.59
   8   5  -1    0.83    0.28
   8   5  -1    0.58    0.44
  -8   5   1    0.50    0.58
  -8   5   1    1.04    0.49
   8   5  -1    0.29    0.48
   7  -5  -1    0.57    0.33
  -7  -5   1    0.23    0.49
   7  -5  -1    0.46    0.34
   7  -5  -1    0.16    0.31
  -7  -5   1    0.61    0.48
  -7   5   1    0.75    0.42
  -7   5   1    0.33    0.42
  -7   5   1    0.80    0.51
   7   5  -1    0.57    0.25
   7   5  -1    0.64    0.42
   7   5  -1    0.51    0.37
   6  -5  -1    0.53    0.32
  -6  -5   1    0.62    0.49
   6  -5  -1    0.44    0.30
  -6  -5   1    0.83    0.43
   6  -5  -1    0.09    0.31
  -6   5   1    0.73    0.36
  -6   5   1    0.87    0.35
   6   5  -1    0.55    0.24
   6   5  -1    0.38    0.37
   6   5  -1    0.67    0.34
  -6   5   1    0.42    0.44
  -6   5   1    0.54    0.38
   5  -5  -1    1.69    0.36
  -5  -5   1    1.15    0.33
   5  -5  -1    1.48    0.35
  -5  -5   1    1.90    0.50
   5  -5  -1    1.78    0.35
  -5  -5   1    1.81    0.44
  -5   5   1    1.71    0.40
   5   5  -1    1.44    0.28
  -5   5   1    2.01    0.42
   5   5  -1    1.45    0.46
  -5   5   1    1.53    0.49
  -5   5   1    1.41    0.36
   5   5  -1    1.47    0.37
   5   5  -1    1.30    0.39
  -4  -5   1    1.04    0.29
  -4  -5   1    1.20    0.37
   4  -5  -1    1.14    0.33
   4  -5  -1    1.37    0.31
  -4  -5   1    1.06    0.37
   4  -5  -1    1.61    0.31
  -4  -5   1    0.68    0.30
  -4   5   1    0.86    0.34
   4   5  -1    1.44    0.41
   4   5  -1    1.12    0.32
   4   5  -1    1.22    0.25
  -4   5   1    1.16    0.30
  -4   5   1    0.94    0.43
  -4   5   1    1.32    0.34
   4   5  -1    1.22    0.36
  -4   5   1    1.40    0.25
  -3  -5   1    5.25    0.48
   3  -5  -1    5.08    0.46
  -3  -5   1    4.46    0.44
  -3  -5   1    4.64    0.53
   3  -5  -1    5.21    0.38
   3  -5  -1    5.00    0.45
  -3  -5   1    4.94    0.41
   3   5  -1    4.74    0.50
   3   5  -1    4.63    0.45
  -3   5   1    5.11    0.47
   3   5  -1    4.91    0.37
  -3   5   1    4.57    0.37
  -3   5   1    5.20    0.48
  -3   5   1    5.20    0.49
   3   5  -1    5.14    0.51
  -3   5   1    4.63    0.45
  -3   5   1    4.56    0.54
  -2  -5   1    0.37    0.19
   2  -5  -1    0.24    0.23
   2  -5  -1    0.84    0.24
  -2  -5   1    0.59    0.32
  -2  -5   1    0.13    0.24
   2  -5  -1    0.17    0.21
  -2  -5   1    0.31    0.22
   2  -5  -1    0.47    0.18
  -2  -5   1    0.53    0.28
   2   5  -1    0.70    0.19
   2   5  -1    0.46    0.32
   2   5  -1    0.54    0.21
   2   5  -1    0.63    0.32
  -2   5   1    0.45    0.21
  -2   5   1    0.30    0.22
  -2   5   1    0.48    0.20
  -2   5   1    0.36    0.29
   2   5  -1    0.44    0.30
   2   5  -1    0.16    0.20
  -2   5   1    0.75    0.27
  -2   5   1    0.39    0.25
  -2   5   1    0.40    0.24
   2   5  -1    0.10    0.23
   1  -5  -1    0.54    0.21
  -1   5   1    0.71    0.28
  -1   5   1    0.78    0.27
  -1   5   1    0.57    0.25
  -1   5   1    0.65    0.27
   0  -5   1   60.22    2.68
   0  -5   1   62.02    2.69
   0  -5   1   61.63    2.68
   0  -5  -1   63.76    2.68
   0  -5  -1   65.69    2.66
   0  -5  -1   58.92    2.69
   0  -5   1   65.41    2.71
   0  -5  -1   63.49    2.72
   0  -5  -1   64.64    2.66
   0   5   1   73.31    2.70
   0   5   1   72.10    2.77
   0   5   1   69.16    2.69
   0   5   1   69.14    2.72
   0   5   1   68.18    2.67
   0   5  -1   68.14    2.71
   0   5  -1   67.59    2.71
   0   5  -1   69.93    2.73
   0   5   1   67.56    2.73
   0   5   1   70.29    2.75
   0   5  -1   71.35    2.70
   0   5  -1   71.64    2.70
   0   5  -1   66.82    2.72
   0   5   1   65.30    2.70
   0   5  -1   69.67    2.74
   0   5  -1   66.51    2.72
   0   5  -1   67.78    2.74
  -1  -5  -1   24.37    1.02
  -1  -5  -1   23.88    1.05
   1  -5   1   21.70    1.01
   1  -5   1   23.89    1.02
  -1  -5  -1   23.50    0.97
  -1  -5  -1   22.01    0.98
  -1  -5  -1   22.44    1.09
   1  -5   1   20.81    1.06
   1  -5   1   23.65    1.02
   1  -5   1   22.33    1.02
  -1   5  -1   22.47    1.08
  -1   5  -1   21.94    1.03
  -1   5  -1   22.95    1.10
   1   5   1   22.86    1.13
   1   5   1   22.25    1.05
  -1   5  -1   22.90    1.04
   1   5   1   23.06    1.03
   1   5   1   22.85    1.09
  -1   5  -1   23.08    1.05
   1   5   1   23.49    0.99
   1   5   1   21.87    1.02
  -1   5  -1   22.39    1.06
  -1   5  -1   22.07    1.05
  -1   5  -1   21.91    1.05
  -1   5  -1   23.00    1.06
   2  -5   1    9.08    0.50
   2  -5   1    7.55    0.51
   2  -5   1    7.52    0.46
  -2  -5  -1    7.98    0.52
  -2  -5  -1    7.79    0.45
  -2  -5  -1    7.15    0.54
   2  -5   1    7.33    0.54
  -2  -5  -1    7.74    0.47
   2  -5   1    7.64    0.47
  -2  -5  -1    8.26    0.53
  -2   5  -1    7.70    0.59
  -2   5  -1    7.26    0.54
   2   5   1    7.23    0.55
  -2   5  -1    7.88    0.49
   2   5   1    7.49    0.50
  -2   5  -1    8.37    0.57
  -2   5  -1    7.39    0.56
   2   5   1    8.51    0.60
   2   5   1    7.09    0.47
  -2   5  -1    7.48    0.47
  -2   5  -1    7.43    0.50
  -2   5  -1    7.99    0.51
  -2   5  -1    7.85    0.52
   2   5   1    8.25    0.55
  -3  -5  -1    3.05    0.47
   3  -5   1    3.36    0.37
  -3  -5  -1    3.96    0.44
   3  -5   1    3.78    0.36
  -3  -5  -1    3.92    0.45
   3  -5   1    4.19    0.36
   3   5   1    3.09    0.37
  -3   5  -1    3.79    0.45
  -3   5  -1    3.40    0.42
  -3   5  -1    3.30    0.32
   3   5   1    3.16    0.52
   3   5   1    3.47    0.33
  -3   5  -1    3.02    0.49
   3   5   1    3.52    0.47
  -3   5  -1    3.91    0.40
  -3   5  -1    3.30    0.43
   4  -5   1    1.52    0.31
  -4  -5  -1    1.53    0.39
   4  -5   1    1.29    0.32
   4  -5   1    1.51    0.29
  -4  -5  -1    1.47    0.37
  -4  -5  -1    1.24    0.33
   4   5   1    1.53    0.38
  -4   5  -1    1.17    0.41
   4   5   1    1.57    0.27
  -4   5  -1    1.52    0.30
   4   5   1    1.10    0.39
  -4   5  -1    1.29    0.37
  -4   5  -1    1.37    0.36
  -4   5  -1    1.66    0.37
   4   5   1    1.43    0.30
   5  -5   1    0.88    0.32
  -5  -5  -1    0.65    0.39
  -5  -5  -1    0.82    0.40
  -5  -5  -1    0.64    0.35
   5  -5   1    0.85    0.35
   5   5   1    0.73    0.39
  -5   5  -1    0.54    0.40
   5   5   1    0.66    0.36
   5   5   1    0.84    0.28
  -5   5  -1    1.04    0.38
  -5   5  -1    0.89    0.34
  -5   5  -1    0.97    0.31
  -5   5  -1    0.72    0.40
  -6  -5  -1    0.77    0.43
  -6  -5  -1    0.98    0.43
  -6  -5  -1    0.96    0.46
   6  -5   1    0.84    0.34
   6  -5   1    0.86    0.35
   6   5   1    0.78    0.30
   6   5   1    0.86    0.37
  -6   5  -1    1.23    0.35
  -6   5  -1    0.54    0.47
  -6   5  -1    1.06    0.41
   6   5   1    0.44    0.44
  -7  -5  -1    2.64    0.59
  -7  -5  -1    2.58    0.57
   7  -5   1    2.72    0.47
   7  -5   1    2.37    0.41
  -7  -5  -1    3.26    0.53
   7   5   1    2.85    0.57
  -7   5  -1    2.95    0.65
  -7   5  -1    3.93    0.53
   7   5   1    2.75    0.48
  -7   5  -1    3.22    0.59
   7   5   1    2.74    0.52
  -8  -5  -1    2.86    0.69
  -8  -5  -1    1.17    0.58
   8  -5   1    0.84    0.37
   8  -5   1    1.72    0.48
  -8   5  -1    1.37    0.62
   8   5   1    1.78    0.42
   8   5   1    1.30    0.52
   8   5   1    1.92    0.52
  -8   5  -1    1.99    0.57
  -9  -5  -1   -0.33    0.56
   9  -5   1    0.49    0.42
  -9  -5  -1   -0.76    0.64
  -9   5  -1    0.52    0.59
  -9   5  -1    1.35    0.60
   9   5   1    0.14    0.55
   9   5   1    0.94    0.36
   9   5   1    0.89    0.48
   9  -6  -1    0.48    0.44
   9   6  -1    1.06    0.55
  -9   6   1    2.02    0.76
   9   6  -1    0.98    0.58
  -8  -6   1    7.29    0.86
   8  -6  -1    7.21    0.70
  -8  -6   1    8.75    0.84
  -8  -6   1    9.19    0.72
   8   6  -1    7.51    0.84
   8   6  -1    7.73    0.78
   8   6  -1    6.79    0.63
  -8   6   1    9.74    1.02
  -7  -6   1   -0.63    0.52
  -7  -6   1    0.09    0.55
   7  -6  -1   -0.45    0.34
   7  -6  -1    0.44    0.40
   7   6  -1   -0.14    0.50
  -7   6   1    0.67    0.45
   7   6  -1    0.39    0.46
   7   6  -1    0.48    0.30
  -7   6   1   -0.21    0.46
  -7   6   1   -0.06    0.58
   6  -6  -1    0.30    0.36
  -6  -6   1    0.08    0.54
  -6  -6   1   -0.44    0.47
   6  -6  -1   -0.51    0.31
   6   6  -1   -0.10    0.41
   6   6  -1   -0.05    0.40
  -6   6   1   -0.04    0.54
  -6   6   1    0.04    0.43
  -6   6   1   -0.06    0.42
   6   6  -1    0.48    0.28
   5  -6  -1    1.17    0.37
  -5  -6   1    1.28    0.48
   5  -6  -1    0.86    0.39
  -5  -6   1    1.41    0.48
   5  -6  -1    1.21    0.37
  -5   6   1    0.86    0.43
  -5   6   1    1.41    0.41
   5   6  -1    0.83    0.43
  -5   6   1    1.53    0.39
  -5   6   1    1.49    0.56
   5   6  -1    1.50    0.42
   5   6  -1    1.24    0.31
   4  -6  -1    0.28    0.34
   4  -6  -1    0.35    0.31
  -4  -6   1    0.34    0.40
  -4  -6   1    0.27    0.39
   4  -6  -1    0.32    0.29
  -4   6   1    0.73    0.29
  -4   6   1    0.07    0.36
   4   6  -1    0.35    0.23
   4   6  -1    0.33    0.32
  -4   6   1    0.49    0.31
   4   6  -1   -0.05    0.35
   4   6  -1    0.39    0.43
  -4   6   1    0.55    0.51
   3  -6  -1    0.54    0.31
   3  -6  -1    0.69    0.32
  -3  -6   1    0.40    0.37
  -3  -6   1    0.44    0.38
  -3  -6   1    0.38    0.31
  -3   6   1    0.62    0.30
   3   6  -1    0.44    0.25
   3   6  -1    0.30    0.34
   3   6  -1    0.13    0.38
  -3   6   1    0.28    0.34
  -3   6   1    0.47    0.41
  -3   6   1    0.24    0.35
  -3   6   1    0.45    0.27
   3   6  -1    0.24    0.35
  -2  -6   1    0.00    0.23
   2  -6  -1    0.56    0.30
  -2  -6   1    0.47    0.24
  -2  -6   1    0.15    0.32
   2  -6  -1    0.39    0.29
  -2  -6   1    0.40    0.33
   2  -6  -1    0.25    0.25
  -2   6   1    0.70    0.27
  -2   6   1    0.38    0.31
   2   6  -1    0.31    0.25
   2   6  -1    0.40    0.33
  -2   6   1    0.62    0.35
   2   6  -1    0.60    0.33
   2   6  -1    0.45    0.35
  -2   6   1    0.41    0.38
  -2   6   1    0.19    0.22
   1  -6  -1    4.49    0.41
   1  -6  -1    3.67    0.45
  -1  -6   1    3.86    0.42
  -1  -6   1    4.10    0.44
   1  -6  -1    2.99    0.37
   1  -6  -1    2.91    0.36
  -1  -6   1    3.85    0.42
  -1  -6   1    3.30    0.43
   1  -6  -1    3.64    0.48
   1   6  -1    3.61    0.38
  -1   6   1    3.38    0.48
   1   6  -1    3.86    0.48
  -1   6   1    3.76    0.48
  -1   6   1    3.95    0.48
   1   6  -1    3.67    0.49
   1   6  -1    3.11    0.46
   1   6  -1    3.77    0.45
  -1   6   1    3.82    0.40
  -1   6   1    3.46    0.44
   1   6  -1    3.67    0.42
  -1   6   1    3.60    0.41
   1   6  -1    4.72    0.55
   1   6  -1    4.59    0.40
   0  -6  -1    7.15    0.55
   0  -6  -1    7.68    0.57
   0  -6   1    8.16    0.57
   0  -6   1    7.30    0.54
   0  -6  -1    8.49    0.54
   0  -6   1    7.39    0.54
   0  -6   1    7.14    0.48
   0  -6  -1    7.33    0.54
   0  -6   1    7.97    0.58
   0  -6   1    8.00    0.54
   0  -6  -1    8.02    0.50
   0  -6   1    7.60    0.52
   0   6   1    7.20    0.57
   0   6   1    7.91    0.64
   0   6   1    6.34    0.60
   0   6  -1    7.13    0.60
   0   6  -1    6.92    0.53
   0   6   1    7.05    0.55
   0   6  -1    7.24    0.58
   0   6   1    6.69    0.54
   0   6  -1    6.63    0.53
   0   6  -1    7.94    0.61
   0   6   1    7.15    0.56
   0   6   1    6.80    0.59
   0   6  -1    6.79    0.61
   0   6  -1    6.88    0.53
   0   6  -1    7.51    0.56
   1  -6   1   16.97    0.86
  -1  -6  -1   18.43    0.96
   1  -6   1   15.16    0.84
   1  -6   1   17.51    0.91
   1  -6   1   18.32    0.87
   1  -6   1   15.97    0.85
   1  -6   1   15.44    0.85
  -1  -6  -1   18.10    0.90
  -1  -6  -1   17.25    0.85
   1   6   1   16.08    0.87
  -1   6  -1   17.42    0.92
  -1   6  -1   16.81    0.89
  -1   6  -1   18.25    0.99
   1   6   1   19.61    1.03
  -1   6  -1   19.37    0.92
   1   6   1   19.77    1.00
  -1   6  -1   16.49    0.90
  -1   6  -1   17.17    0.89
  -1   6  -1   17.32    0.91
  -1   6  -1   16.74    0.93
   1   6   1   15.71    0.86
  -1   6  -1   17.29    0.92
   1   6   1   15.94    0.88
   2  -6   1    4.80    0.43
  -2  -6  -1    3.90    0.49
  -2  -6  -1    4.73    0.49
   2  -6   1    4.26    0.42
   2  -6   1    4.85    0.51
   2  -6   1    4.81    0.39
   2  -6   1    4.59    0.41
  -2  -6  -1    4.34    0.46
  -2   6  -1    4.04    0.47
   2   6   1    4.29    0.44
  -2   6  -1    4.16    0.43
  -2   6  -1    4.15    0.44
  -2   6  -1    4.61    0.53
  -2   6  -1    4.04    0.58
   2   6   1    4.53    0.62
   2   6   1    4.26    0.57
  -2   6  -1    4.47    0.48
  -2   6  -1    4.43    0.48
   2   6   1    4.13    0.42
  -2   6  -1    4.94    0.63
   3  -6   1    0.29    0.31
  -3  -6  -1    0.34    0.40
  -3  -6  -1    0.28    0.37
   3  -6   1    0.07    0.25
   3  -6   1   -0.18    0.25
  -3  -6  -1   -0.08    0.31
  -3   6  -1   -0.36    0.37
   3   6   1    0.14    0.26
   3   6   1    0.20    0.23
  -3   6  -1    0.10    0.37
  -3   6  -1    0.65    0.35
  -3   6  -1    0.61    0.32
   3   6   1    0.23    0.41
   3   6   1    0.19    0.33
  -3   6  -1    0.26    0.27
  -4  -6  -1    0.21    0.37
  -4  -6  -1    0.15    0.36
  -4  -6  -1   -0.11    0.39
   4  -6   1    0.27    0.30
   4  -6   1    0.11    0.29
  -4   6  -1   -0.08    0.35
  -4   6  -1    0.10    0.29
  -4   6  -1    0.15    0.44
   4   6   1    0.17    0.37
   4   6   1    0.37    0.28
  -4   6  -1    0.10    0.34
   4   6   1    0.04    0.38
  -4   6  -1    0.29    0.28
  -5  -6  -1    0.87    0.42
   5  -6   1    0.82    0.36
   5  -6   1    0.21    0.31
  -5  -6  -1    0.31    0.39
  -5  -6  -1    0.40    0.47
   5   6   1    0.66    0.38
  -5   6  -1    0.72    0.43
  -5   6  -1    1.06    0.34
  -5   6  -1    0.12    0.40
   5   6   1    0.52    0.31
  -5   6  -1    0.46    0.51
   5   6   1    0.32    0.43
  -6  -6  -1    0.87    0.55
   6  -6   1    0.29    0.35
  -6  -6  -1    0.45    0.51
  -6  -6  -1    1.43    0.49
   6  -6   1    0.90    0.40
  -6   6  -1    1.92    0.56
   6   6   1    1.03    0.33
   6   6   1    0.82    0.50
  -6   6  -1    0.68    0.64
   6   6   1    1.21    0.43
  -7  -6  -1    0.48    0.58
  -7  -6  -1    0.27    0.58
   7  -6   1   -0.26    0.36
   7  -6   1    0.71    0.43
   7   6   1    0.24    0.48
  -7   6  -1    0.64    0.63
  -7   6  -1    1.25    0.54
   7   6   1    0.53    0.33
   7   6   1    0.90    0.45
  -8  -6  -1    0.12    0.59
   8  -6   1    0.15    0.41
  -8  -6  -1    1.13    0.67
   8  -6   1    0.92    0.48
   8   6   1    1.14    0.38
   8   6   1    0.41    0.61
  -8   6  -1    1.64    0.64
  -8   6  -1    1.44    0.79
   8   6   1    1.10    0.50
  -7  -7   1    1.53    0.49
  -7  -7   1    0.57    0.65
   7  -7  -1    0.80    0.47
   7  -7  -1   -0.47    0.45
   7   7  -1    0.62    0.54
   7   7  -1    0.20    0.53
  -7   7   1    0.96    0.53
  -7   7   1    1.78    0.84
  -7   7   1    0.33    0.53
   6  -7  -1    1.32    0.45
  -6  -7   1    1.31    0.69
  -6  -7   1    2.11    0.67
   6  -7  -1    2.74    0.56
  -6   7   1    2.40    0.85
  -6   7   1    2.42    0.58
   6   7  -1    1.53    0.64
   6   7  -1    1.88    0.53
  -6   7   1    1.68    0.62
  -5  -7   1    0.88    0.40
  -5  -7   1   -0.40    0.48
   5  -7  -1    0.17    0.37
   5  -7  -1   -0.18    0.36
  -5  -7   1    0.28    0.58
  -5   7   1   -0.06    0.45
   5   7  -1   -0.12    0.39
   5   7  -1   -0.05    0.46
  -5   7   1    0.10    0.63
  -5   7   1    0.35    0.45
   5   7  -1    0.19    0.27
   4  -7  -1    0.78    0.43
   4  -7  -1    1.10    0.39
  -4  -7   1    1.70    0.59
   4  -7  -1    0.99    0.40
  -4  -7   1    0.93    0.47
  -4   7   1    0.59    0.44
   4   7  -1    0.66    0.30
  -4   7   1    1.20    0.41
  -4   7   1    1.92    0.69
   4   7  -1    0.69    0.46
   4   7  -1    1.30    0.48
  -3  -7   1    1.14    0.44
   3  -7  -1    2.54    0.46
   3  -7  -1    1.36    0.37
   3  -7  -1    1.39    0.42
  -3   7   1    1.87    0.50
   3   7  -1    1.54    0.57
   3   7  -1    1.62    0.44
  -3   7   1    1.00    0.42
   3   7  -1    1.09    0.31
   3   7  -1    1.81    0.55
  -2  -7   1    7.30    0.65
   2  -7  -1    7.62    0.61
   2  -7  -1    7.78    0.62
  -2  -7   1    7.88    0.66
   2  -7  -1    7.17    0.56
  -2  -7   1    7.89    0.70
  -2   7   1    6.59    0.62
  -2   7   1    7.09    0.73
   2   7  -1    7.18    0.57
   2   7  -1    7.44    0.69
  -2   7   1    6.35    0.61
   2   7  -1    7.08    0.76
   2   7  -1    7.15    0.75
   1  -7  -1    2.09    0.37
  -1  -7   1    1.39    0.39
   1  -7  -1    2.16    0.44
  -1  -7   1    1.78    0.31
  -1  -7   1    2.73    0.48
  -1  -7   1    1.67    0.37
  -1  -7   1    1.85    0.41
   1  -7  -1    2.34    0.44
  -1   7   1    1.69    0.45
   1   7  -1    1.41    0.34
   1   7  -1    2.03    0.45
  -1   7   1    1.66    0.42
   1   7  -1    1.83    0.43
   1   7  -1    1.40    0.43
  -1   7   1    1.51    0.40
   1   7  -1    1.66    0.46
  -1   7   1    1.70    0.44
   0  -7   1    0.93    0.34
   0  -7   1    1.19    0.31
   0  -7   1    1.14    0.31
   0  -7   1    0.88    0.28
   0  -7   1    1.00    0.27
   0  -7  -1    1.01    0.35
   0  -7  -1    1.69    0.43
   0  -7  -1    0.99    0.34
   0  -7   1    1.07    0.36
   0  -7   1    0.76    0.34
   0   7   1    0.64    0.37
   0   7  -1    0.43    0.33
   0   7   1    0.58    0.37
   0   7  -1    0.57    0.34
   0   7  -1    0.46    0.29
   0   7  -1    0.49    0.34
   0   7  -1    0.32    0.36
   0   7  -1    0.37    0.37
   0   7   1    0.71    0.39
   0   7   1    0.46    0.31
   0   7  -1    0.68    0.32
   0   7  -1    0.82    0.34
   0   7   1    0.24    0.42
   1  -7   1    0.39    0.26
  -1  -7  -1    0.52    0.39
   1  -7   1    0.53    0.29
   1  -7   1    0.49    0.28
  -1  -7  -1    0.11    0.35
   1  -7   1    0.36    0.29
   1  -7   1    0.95    0.33
   1  -7   1    0.70    0.31
   1  -7   1    0.36    0.26
   1  -7   1    0.38    0.35
  -1  -7  -1    0.88    0.33
  -1   7  -1    0.11    0.31
  -1   7  -1    0.18    0.31
  -1   7  -1    0.20    0.34
  -1   7  -1   -0.05    0.34
  -1   7  -1   -0.11    0.28
   1   7   1    0.39    0.31
  -1   7  -1    0.23    0.32
   1   7   1   -0.09    0.43
   1   7   1    0.15    0.31
   1   7   1    0.14    0.38
  -1   7  -1   -0.21    0.33
  -1   7  -1    0.07    0.33
  -1   7  -1    0.01    0.38
  -2  -7  -1    1.82    0.47
  -2  -7  -1    1.46    0.43
   2  -7   1    1.18    0.33
   2  -7   1    1.24    0.32
  -2   7  -1    1.24    0.40
  -2   7  -1    0.55    0.36
  -2   7  -1    0.94    0.37
  -2   7  -1    0.62    0.33
   2   7   1    1.41    0.47
   2   7   1    0.52    0.43
  -2   7  -1    0.83    0.38
   2   7   1    0.80    0.31
   2   7   1    0.79    0.33
  -2   7  -1    0.67    0.42
   3  -7   1    6.64    0.56
  -3  -7  -1    6.95    0.66
  -3  -7  -1    7.79    0.67
   3  -7   1    7.30    0.60
   3   7   1    7.72    0.76
  -3   7  -1    7.79    0.80
   3   7   1    6.88    0.62
   3   7   1    7.28    0.75
  -3   7  -1    6.81    0.66
  -3   7  -1    6.91    0.64
  -4  -7  -1    2.34    0.53
  -4  -7  -1    2.13    0.56
   4  -7   1    2.06    0.47
   4  -7   1    1.70    0.43
  -4  -7  -1    1.43    0.54
  -4   7  -1    2.32    0.66
   4   7   1    1.43    0.54
  -4   7  -1    2.43    0.54
   4   7   1    1.81    0.51
  -4   7  -1    1.65    0.55
   4   7   1    1.58    0.39
   5  -7   1    1.53    0.45
   5  -7   1    3.03    0.54
  -5  -7  -1    2.81    0.56
  -5  -7  -1    2.55    0.64
  -5  -7  -1    1.70    0.50
   5   7   1    1.44    0.51
  -5   7  -1    2.31    0.57
  -5   7  -1    2.06    0.60
  -5   7  -1    1.76    0.70
   5   7   1    1.04    0.56
   5   7   1    1.64    0.40
  -6  -7  -1    1.02    0.53
   6  -7   1   -0.10    0.44
   6  -7   1    0.77    0.46
  -6  -7  -1    0.31    0.69
   6   7   1   -0.04    0.53
  -6   7  -1    1.02    0.72
   6   7   1    0.71    0.53
   6   7   1    0.80    0.37
  -6   7  -1    1.03    0.61
   7  -7   1    3.04    0.60
   7  -7   1    1.22    0.49
  -7  -7  -1    3.73    0.87
  -7  -7  -1    1.28    0.69
  -7   7  -1    2.59    0.85
   7   7   1    1.96    0.63
   7   7   1    1.97    0.46
  -7   7  -1    2.70    0.74
   7   7   1    1.35    0.69
   6  -8  -1    1.62    0.55
   6  -8  -1   -0.39    0.43
  -6   8   1    1.60    0.60
   6   8  -1   -0.51    0.61
   6   8  -1    0.61    0.52
  -6   8   1   -0.07    0.55
  -6   8   1    0.44    0.79
  -5  -8   1    2.87    0.70
   5  -8  -1    4.17    0.57
   5  -8  -1    2.49    0.52
  -5  -8   1    4.37    0.81
   5   8  -1    2.19    0.66
   5   8  -1    4.09    0.77
  -5   8   1    4.29    0.90
  -5   8   1    2.51    0.63
  -4  -8   1   -0.34    0.53
   4  -8  -1   -0.07    0.43
   4  -8  -1    0.66    0.39
  -4  -8   1    0.82    0.64
  -4   8   1    0.23    0.49
   4   8  -1   -0.15    0.56
   4   8  -1    0.68    0.55
  -4   8   1    1.26    0.80
   3  -8  -1    3.52    0.58
  -3  -8   1    3.22    0.65
  -3  -8   1    3.96    0.63
   3  -8  -1    3.12    0.55
   3   8  -1    3.06    0.60
   3   8  -1    3.42    0.68
  -3   8   1    5.09    0.91
  -3   8   1    2.23    0.58
   2  -8  -1    1.06    0.35
  -2  -8   1    1.11    0.70
   2  -8  -1    1.45    0.44
  -2   8   1    0.77    0.48
   2   8  -1    1.32    0.55
   2   8  -1    2.24    0.51
  -2   8   1    1.46    0.48
   2   8  -1    1.49    0.56
   1  -8  -1    8.28    0.67
  -1  -8   1    8.65    0.70
  -1  -8   1    7.64    0.65
   1  -8  -1    8.26    0.64
  -1  -8   1    7.27    0.54
   1  -8  -1    8.28    0.72
  -1   8   1    5.28    0.70
   1   8  -1    6.27    0.78
  -1   8   1    7.17    0.66
  -1   8   1    6.19    0.80
   1   8  -1    7.40    0.83
   1   8  -1    6.39    0.73
   1   8  -1    6.30    0.70
   0  -8   1    0.77    0.41
   0  -8  -1    0.28    0.38
   0  -8   1    1.16    0.33
   0  -8   1    0.75    0.36
   0  -8  -1    0.98    0.34
   0  -8  -1    1.71    0.51
   0   8   1    0.22    0.35
   0   8   1    0.15    0.41
   0   8  -1   -0.01    0.43
   1  -8   1    0.89    0.33
   1   8   1    1.49    0.51
   1   8   1    0.90    0.43
   1   8   1    1.10    0.52
  -1   8  -1    1.37    0.44
  -1   8  -1    1.64    0.50
  -1   8  -1    0.55    0.37
  -2  -8  -1   10.65    0.73
   2  -8   1   10.49    0.80
  -2  -8  -1    9.78    0.82
  -2  -8  -1    9.37    0.79
   2  -8   1    8.84    0.63
   2  -8   1    7.96    0.62
  -2   8  -1    8.49    0.72
  -2   8  -1    8.28    0.76
   2   8   1    7.71    0.92
   2   8   1    8.68    0.70
  -2   8  -1    8.33    0.94
  -2   8  -1    6.86    0.69
   2   8   1    8.59    0.86
   3  -8   1    3.75    0.54
  -3  -8  -1    4.26    0.61
  -3  -8  -1    4.22    0.71
   3  -8   1    2.71    0.46
  -3   8  -1    3.39    0.79
   3   8   1    3.13    0.63
   3   8   1    2.62    0.52
   3   8   1    2.25    0.65
  -3   8  -1    2.65    0.61
  -3   8  -1    3.63    0.62
   4  -8   1    8.54    0.74
   4  -8   1    7.31    0.64
  -4  -8  -1    9.25    0.88
  -4  -8  -1    9.36    0.87
  -4   8  -1    7.55    0.96
   4   8   1    5.94    0.97
  -4   8  -1    7.27    0.84
  -4   8  -1    8.56    0.80
   4   8   1    7.66    0.73
   4   8   1    7.84    0.88
   5  -8   1    3.97    0.64
  -5  -8  -1    3.35    0.73
   5  -8   1    1.42    0.48
  -5  -8  -1    2.57    0.72
  -5   8  -1    2.81    0.84
   5   8   1    2.70    0.71
   5   8   1    2.24    0.48
  -5   8  -1    3.00    0.68
   5   8   1    1.88    0.69
   3  -9  -1   -0.01    0.41
   3  -9  -1    1.03    0.45
   2  -9  -1    1.48    0.40
   2  -9  -1    1.94    0.50
   2  -9  -1    1.16    0.46
  -2  -9   1    1.41    0.59
   2   9  -1    0.37    0.56
  -2   9   1    0.44    0.49
   1  -9  -1    3.04    0.54
   1  -9  -1    3.25    0.55
   1  -9  -1    2.41    0.43
  -1  -9   1    3.32    0.60
   0  -9  -1    1.05    0.51
   0   9   1   -0.68    0.49
   0   9   1   -0.14    0.42
  -1  -9  -1    0.47    0.53
   1   9   1   -0.32    0.39
   1   9   1   -0.67    0.53
  -2  -9  -1    2.76    0.65
   2  -9   1    4.41    0.55
  10   0  -2    3.44    0.42
 -10   0   2    3.41    0.56
  -9   0   2   42.04    1.79
  -9   0   2   40.98    1.79
   9   0  -2   36.63    1.68
   9   0  -2   38.36    1.74
  -8   0   2    0.20    0.32
   8   0  -2    0.34    0.27
  -8   0   2    0.77    0.35
  -8   0   2   -0.17    0.32
  -8   0   2    0.19    0.34
   8   0  -2    0.15    0.21
   7   0  -2    0.18    0.15
   7   0  -2    0.16    0.21
   7   0  -2    0.31    0.20
  -7   0   2    0.41    0.29
  -7   0   2    0.02    0.21
  -7   0   2    0.24    0.25
  -7   0   2    0.18    0.27
   7   0  -2    0.09    0.20
  -7   0   2    0.18    0.29
  -6   0   2    0.52    0.25
  -6   0   2    0.58    0.18
   6   0  -2    0.57    0.14
   6   0  -2    0.45    0.17
   6   0  -2    0.40    0.17
  -6   0   2    0.44    0.22
   6   0  -2    0.42    0.19
  -6   0   2    0.41    0.27
  -6   0   2    0.35    0.24
  -5   0   2   13.44    0.65
   5   0  -2   13.13    0.63
  -5   0   2   13.13    0.67
  -5   0   2   13.33    0.60
  -5   0   2   13.21    0.64
   5   0  -2   12.96    0.58
   5   0  -2   14.17    0.65
   5   0  -2   14.02    0.61
  -5   0   2   12.59    0.65
  -4   0   2   20.02    0.86
   4   0  -2   17.45    0.81
  -4   0   2   20.49    0.89
  -4   0   2   18.91    0.80
   4   0  -2   21.57    0.82
  -4   0   2   18.88    0.82
   4   0  -2   18.73    0.84
  -4   0   2   18.27    0.86
   4   0  -2   18.16    0.79
  -4   0   2   19.95    0.85
   4   0  -2   20.24    0.84
   3   0  -2    6.77    0.32
   3   0  -2    6.08    0.34
  -3   0   2    6.90    0.41
   3   0  -2    6.76    0.35
  -3   0   2    6.63    0.36
  -3   0   2    5.91    0.36
  -3   0   2    6.89    0.38
   3   0  -2    6.43    0.33
  -3   0   2    6.23    0.32
  -2   0   2   35.23    1.45
  -2   0   2   36.19    1.43
  -2   0   2   36.53    1.46
   2   0  -2   36.67    1.42
   2   0  -2   37.21    1.44
   2   0  -2   37.49    1.44
   2   0  -2   36.73    1.45
  -2   0   2   37.14    1.45
  -2   0   2   35.44    1.44
   2   0  -2   36.67    1.46
  -1   0   2  347.53   13.44
   1   0  -2  362.21   13.42
  -1   0   2  362.01   13.35
   1   0  -2  362.42   13.47
  -1   0   2  357.20   13.51
   1   0  -2  369.07   13.49
   1   0  -2  343.57   13.46
   1   0  -2  321.30   13.32
  -1   0   2  335.56   13.44
  -1   0   2  318.76   13.76
   1   0  -2  335.46   13.40
  -1   0   2  347.24   13.51
   0   0  -2   61.48    2.38
   0   0   2   63.99    2.38
   0   0  -2   60.52    2.39
   0   0  -2   61.85    2.39
   0   0   2   61.13    2.38
   0   0  -2   60.91    2.38
   0   0   2   59.39    2.38
   0   0   2   63.37    2.39
   0   0   2   63.67    2.37
   0   0  -2   60.37    2.38
   1   0   2   64.81    2.40
   1   0   2   62.89    2.41
   1   0   2   62.92    2.39
  -1   0  -2   60.27    2.40
  -1   0  -2   62.33    2.40
   1   0   2   60.74    2.38
  -1   0  -2   61.61    2.39
  -1   0  -2   59.64    2.40
  -1   0  -2   61.70    2.40
   1   0   2   61.31    2.40
   1   0   2   59.90    2.40
  -2   0  -2  213.50    8.23
  -2   0  -2  203.64    8.14
  -2   0  -2  213.36    8.27
  -2   0  -2  216.53    8.12
   2   0   2  207.17    8.24
   2   0   2  213.96    8.24
   2   0   2  219.57    8.22
  -2   0  -2  213.47    8.27
   2   0   2  214.22    8.20
   2   0   2  203.66    8.20
   3   0   2   12.91    0.60
   3   0   2   12.50    0.61
  -3   0  -2   14.74    0.62
  -3   0  -2   12.76    0.61
  -3   0  -2   13.13    0.58
  -3   0  -2   12.51    0.63
  -3   0  -2   12.63    0.63
   3   0   2   12.87    0.59
   3   0   2   14.84    0.61
  -3   0  -2   14.93    0.62
   3   0   2   14.48    0.60
  -4   0  -2   18.74    0.84
   4   0   2   19.88    0.83
  -4   0  -2   19.68    0.84
  -4   0  -2   17.99    0.79
   4   0   2   19.93    0.88
   4   0   2   19.74    0.82
   4   0   2   18.76    0.82
  -4   0  -2   18.73    0.83
  -4   0  -2   18.49    0.86
   4   0   2   18.45    0.83
  -4   0  -2   19.03    0.87
  -5   0  -2   11.27    0.55
  -5   0  -2   10.30    0.56
   5   0   2   10.97    0.53
  -5   0  -2    9.70    0.53
   5   0   2   11.10    0.54
  -5   0  -2   10.80    0.57
   5   0   2   10.26    0.54
   5   0   2   10.56    0.53
  -5   0  -2    9.81    0.48
  -5   0  -2   10.40    0.58
   6   0   2   15.57    0.70
   6   0   2   15.70    0.73
  -6   0  -2   15.75    0.72
   6   0   2   14.11    0.71
  -6   0  -2   15.02    0.77
  -6   0  -2   13.88    0.72
  -6   0  -2   14.80    0.77
  -6   0  -2   14.16    0.73
   6   0   2   13.77    0.72
  -6   0  -2   13.72    0.65
   7   0   2   16.76    0.81
  -7   0  -2   17.07    0.91
   7   0   2   15.29    0.79
  -7   0  -2   15.41    0.86
  -7   0  -2   15.56    0.85
  -7   0  -2   16.79    0.80
  -7   0  -2   15.20    0.80
   7   0   2   16.27    0.81
   7   0   2   16.52    0.77
   8   0   2    2.87    0.39
  -8   0  -2    3.11    0.51
  -8   0  -2    3.32    0.45
   8   0   2    3.36    0.41
   8   0   2    4.39    0.43
  -8   0  -2    3.88    0.51
  -9   0  -2    0.61    0.37
   9   0   2    0.60    0.28
   9   0   2   -0.04    0.28
  -9   0  -2    0.01    0.40
  10   0   2    0.21    0.32
 -10   0  -2    0.90    0.41
 -10   0  -2    0.37    0.49
  11   0   2    9.78    0.78
 -11   0  -2   11.11    0.88
 -11  -1   2    0.17    0.47
 -11   1   2    0.15    0.45
 -11   1   2    1.18    0.47
 -10  -1   2    7.75    0.65
  10  -1  -2    6.19    0.52
 -10  -1   2    6.16    0.68
  10  -1  -2    8.58    0.65
 -10   1   2    6.51    0.67
 -10   1   2    7.86    0.70
  10   1  -2    7.07    0.65
  10   1  -2    6.23    0.53
  -9  -1   2    0.80    0.42
   9  -1  -2    1.35    0.34
  -9  -1   2    1.36    0.38
   9  -1  -2    0.92    0.28
  -9   1   2    1.28    0.40
  -9   1   2    1.09    0.41
   9   1  -2    1.32    0.37
   9   1  -2    0.80    0.30
  -9   1   2    1.64    0.41
  -8  -1   2    4.29    0.47
   8  -1  -2    4.28    0.44
  -8  -1   2    3.74    0.41
  -8  -1   2    4.59    0.57
   8  -1  -2    3.82    0.37
  -8  -1   2    4.85    0.49
   8  -1  -2    3.85    0.34
   8   1  -2    3.91    0.37
   8   1  -2    4.13    0.47
  -8   1   2    3.61    0.54
  -8   1   2    3.89    0.54
   8   1  -2    4.06    0.44
  -8   1   2    4.49    0.50
   7  -1  -2    2.35    0.27
  -7  -1   2    2.47    0.42
   7  -1  -2    2.42    0.30
  -7  -1   2    2.39    0.37
   7  -1  -2    2.43    0.32
  -7  -1   2    2.82    0.45
   7  -1  -2    2.79    0.32
  -7  -1   2    2.79    0.44
   7   1  -2    2.04    0.36
  -7   1   2    2.65    0.41
   7   1  -2    2.47    0.33
  -7   1   2    2.53    0.41
  -7   1   2    2.57    0.41
  -7   1   2    2.93    0.48
   7   1  -2    2.04    0.34
  -6  -1   2    6.13    0.49
  -6  -1   2    6.22    0.40
  -6  -1   2    6.08    0.49
   6  -1  -2    6.32    0.38
   6  -1  -2    6.07    0.36
   6  -1  -2    6.57    0.39
  -6  -1   2    6.17    0.47
   6  -1  -2    6.52    0.42
  -6  -1   2    5.98    0.42
  -6   1   2    6.11    0.45
  -6   1   2    6.51    0.48
   6   1  -2    5.70    0.42
   6   1  -2    5.52    0.41
  -6   1   2    6.28    0.35
   6   1  -2    6.60    0.38
  -6   1   2    6.33    0.50
  -6   1   2    5.93    0.38
  -6   1   2    6.69    0.45
   6   1  -2    6.47    0.31
  -5  -1   2    0.40    0.21
  -5  -1   2    0.46    0.23
   5  -1  -2    0.32    0.13
  -5  -1   2    0.37    0.20
   5  -1  -2    0.33    0.18
  -5  -1   2    0.22    0.20
   5  -1  -2    0.31    0.16
  -5  -1   2    0.38    0.16
   5  -1  -2    0.41    0.15
   5   1  -2    0.41    0.09
  -5   1   2    0.23    0.11
   5   1  -2    0.36    0.17
  -5   1   2    0.39    0.22
   5   1  -2    0.45    0.14
   5   1  -2    0.38    0.18
   5   1  -2    0.22    0.19
  -5   1   2    0.23    0.17
  -5   1   2    0.29    0.22
  -5   1   2    0.41    0.19
  -5   1   2    0.32    0.20
   4  -1  -2    5.33    0.30
  -4  -1   2    5.76    0.38
  -4  -1   2    5.83    0.39
  -4  -1   2    5.05    0.33
  -4  -1   2    5.82    0.37
  -4  -1   2    4.78    0.34
   4  -1  -2    5.75    0.32
   4  -1  -2    5.97    0.34
  -4   1   2    5.07    0.38
  -4   1   2    4.92    0.36
  -4   1   2    4.52    0.38
  -4   1   2    5.18    0.33
   4   1  -2    5.72    0.31
   4   1  -2    5.23    0.34
   4   1  -2    4.78    0.36
  -4   1   2    5.49    0.34
   4   1  -2    5.67    0.24
  -4   1   2    5.34    0.26
   4   1  -2    5.18    0.34
   3  -1  -2   14.19    0.60
  -3  -1   2   16.07    0.71
   3  -1  -2   14.66    0.65
  -3  -1   2   16.56    0.69
  -3  -1   2   14.65    0.69
   3  -1  -2   15.10    0.69
   3  -1  -2   16.53    0.67
  -3  -1   2   14.90    0.66
   3  -1  -2   15.63    0.65
  -3   1   2   14.18    0.69
   3   1  -2   15.55    0.70
   3   1  -2   14.29    0.69
  -3   1   2   13.71    0.70
   3   1  -2   14.77    0.67
  -3   1   2   15.22    0.64
   3   1  -2   15.63    0.63
   3   1  -2   15.29    0.58
  -3   1   2   14.60    0.66
   3   1  -2   13.99    0.68
  -3   1   2   14.40    0.67
   2  -1  -2    8.61    0.39
  -2  -1   2    8.98    0.44
   2  -1  -2    8.43    0.40
   2  -1  -2    8.40    0.35
  -2  -1   2    8.84    0.41
   2  -1  -2    8.33    0.41
  -2  -1   2    8.23    0.42
   2  -1  -2    7.71    0.38
  -2  -1   2    8.30    0.39
  -2  -1   2    8.66    0.33
  -2   1   2    7.99    0.40
   2   1  -2    9.31    0.43
  -2   1   2    7.55    0.42
   2   1  -2    8.46    0.35
  -2   1   2    8.26    0.40
   2   1  -2    8.35    0.41
   2   1  -2    8.39    0.41
  -2   1   2    9.21    0.40
  -2   1   2    7.96    0.36
   2   1  -2    8.17    0.39
  -2   1   2    8.06    0.39
  -1  -1   2    0.14    0.13
  -1  -1   2    0.14    0.10
   1  -1  -2    0.09    0.11
   1  -1  -2    0.20    0.08
  -1  -1   2    0.11    0.06
   1  -1  -2    0.07    0.10
  -1  -1   2    0.09    0.12
   1  -1  -2    0.21    0.10
   1   1  -2   -0.04    0.10
   1   1  -2    0.01    0.11
  -1   1   2    0.08    0.09
  -1   1   2    0.01    0.10
   1   1  -2    0.04    0.04
  -1   1   2    0.31    0.14
  -1   1   2    0.08    0.04
  -1   1   2    0.05    0.10
  -1   1   2    0.09    0.11
   1   1  -2    0.03    0.08
   1   1  -2   -0.03    0.14
   0  -1   2   69.45    2.55
   0  -1   2   66.55    2.58
   0  -1  -2   67.70    2.58
   0  -1  -2   64.74    2.57
   0  -1   2   69.69    2.54
   0  -1   2   65.59    2.59
   0  -1   2   64.63    2.58
   0  -1  -2   65.78    2.56
   0  -1  -2   60.85    2.57
   0  -1  -2   67.19    2.80
   0   1  -2   65.48    2.56
   0   1  -2   69.09    2.59
   0   1  -2   65.84    2.57
   0   1   2   65.17    2.58
   0   1   2   65.97    2.59
   0   1   2   67.33    2.58
   0   1  -2   64.14    2.58
   0   1   2   66.54    2.56
   0   1  -2   66.84    2.59
   0   1  -2   68.67    2.59
   0   1   2   66.59    2.58
   0   1   2   67.08    2.58
   1  -1   2   14.15    0.63
   1  -1   2   14.76    0.59
   1  -1   2   14.49    0.63
  -1  -1  -2   13.99    0.55
  -1  -1  -2   13.48    0.61
   1  -1   2   15.02    0.57
   1  -1   2   14.09    0.62
  -1  -1  -2   14.28    0.58
  -1  -1  -2   13.99    0.60
   1   1   2   14.06    0.55
   1   1   2   13.79    0.60
  -1   1  -2   13.64    0.60
   1   1   2   13.89    0.56
  -1   1  -2   14.64    0.62
   1   1   2   14.25    0.61
  -1   1  -2   14.62    0.58
  -1   1  -2   13.15    0.61
   1   1   2   14.37    0.60
   1   1   2   14.26    0.59
  -1   1  -2   13.87    0.63
   1   1   2   13.61    0.56
  -2  -1  -2   35.02    1.38
  -2  -1  -2   34.47    1.39
  -2  -1  -2   32.70    1.38
   2  -1   2   33.33    1.40
  -2  -1  -2   35.61    1.35
  -2  -1  -2   34.92    1.35
   2  -1   2   34.89    1.33
   2  -1   2   37.81    1.36
   2  -1   2   35.65    1.38
  -2   1  -2   32.86    1.41
   2   1   2   32.27    1.34
   2   1   2   34.61    1.39
  -2   1  -2   34.25    1.40
  -2   1  -2   34.05    1.40
  -2   1  -2   33.91    1.37
   2   1   2   34.21    1.39
  -2   1  -2   32.79    1.41
   2   1   2   34.63    1.38
  -2   1  -2   35.97    1.34
   2   1   2   34.74    1.36
   3  -1   2   13.09    0.56
   3  -1   2   13.28    0.64
  -3  -1  -2   12.60    0.59
  -3  -1  -2   13.80    0.63
   3  -1   2   14.76    0.60
   3  -1   2   13.66    0.61
  -3  -1  -2   12.24    0.61
   3  -1   2   11.69    0.66
  -3  -1  -2   13.66    0.62
  -3  -1  -2   12.95    0.58
  -3   1  -2   14.13    0.67
   3   1   2   12.46    0.57
   3   1   2   14.13    0.57
  -3   1  -2   12.19    0.65
   3   1   2   13.73    0.63
   3   1   2   14.94    0.61
  -3   1  -2   12.86    0.64
   3   1   2   12.84    0.62
   3   1   2   13.99    0.63
  -3   1  -2   12.61    0.63
  -3   1  -2   14.36    0.54
  -3   1  -2   13.87    0.61
  -4  -1  -2    2.22    0.25
   4  -1   2    2.53    0.23
  -4  -1  -2    2.52    0.24
  -4  -1  -2    2.09    0.24
   4  -1   2    2.40    0.23
   4  -1   2    2.53    0.20
  -4  -1  -2    2.38    0.26
   4  -1   2    1.93    0.28
  -4  -1  -2    2.24    0.28
  -4   1  -2    2.46    0.27
   4   1   2    2.56    0.23
  -4   1  -2    2.53    0.28
  -4   1  -2    2.32    0.29
   4   1   2    2.31    0.26
   4   1   2    2.28    0.19
   4   1   2    2.49    0.26
  -4   1  -2    1.97    0.14
   4   1   2    2.57    0.26
  -4   1  -2    2.27    0.28
  -4   1  -2    2.57    0.24
   5  -1   2    0.14    0.13
  -5  -1  -2    0.34    0.21
  -5  -1  -2    0.01    0.16
  -5  -1  -2    0.11    0.17
  -5  -1  -2    0.34    0.23
   5  -1   2    0.01    0.16
   5  -1   2    0.26    0.17
   5  -1   2    0.25    0.22
  -5  -1  -2    0.40    0.16
   5   1   2    0.03    0.12
  -5   1  -2    0.20    0.21
   5   1   2    0.27    0.18
   5   1   2    0.12    0.17
  -5   1  -2    0.09    0.18
   5   1   2   -0.03    0.17
  -5   1  -2    0.16    0.21
   5   1   2    0.02    0.18
  -5   1  -2    0.13    0.17
  -5   1  -2    0.01    0.18
  -6  -1  -2    2.60    0.33
  -6  -1  -2    2.62    0.38
   6  -1   2    2.57    0.30
  -6  -1  -2    2.29    0.37
   6  -1   2    2.16    0.38
  -6  -1  -2    2.08    0.29
   6  -1   2    2.64    0.29
  -6  -1  -2    3.03    0.35
   6  -1   2    2.45    0.32
  -6   1  -2    2.43    0.39
   6   1   2    2.20    0.34
  -6   1  -2    2.51    0.31
  -6   1  -2    3.11    0.47
  -6   1  -2    2.27    0.37
   6   1   2    2.47    0.31
  -6   1  -2    2.43    0.38
   6   1   2    2.25    0.32
   6   1   2    2.29    0.32
   7  -1   2    3.98    0.37
   7  -1   2    3.63    0.45
  -7  -1  -2    2.91    0.40
   7  -1   2    2.88    0.33
  -7  -1  -2    2.97    0.36
  -7  -1  -2    4.09    0.44
  -7  -1  -2    3.35    0.41
  -7  -1  -2    3.79    0.47
   7  -1   2    2.98    0.35
   7   1   2    3.10    0.38
   7   1   2    3.36    0.36
  -7   1  -2    2.98    0.38
   7   1   2    3.63    0.42
  -7   1  -2    2.35    0.42
  -7   1  -2    4.31    0.49
  -7   1  -2    3.38    0.46
   7   1   2    2.42    0.37
   8  -1   2    1.80    0.32
   8  -1   2    1.90    0.34
  -8  -1  -2    2.09    0.46
  -8  -1  -2    1.78    0.40
   8  -1   2    3.33    0.56
   8  -1   2    2.82    0.43
  -8  -1  -2    2.55    0.43
  -8   1  -2    2.15    0.47
   8   1   2    2.16    0.42
   8   1   2    2.10    0.36
   8   1   2    2.28    0.35
  -8   1  -2    2.38    0.42
  -8   1  -2    1.90    0.39
   9  -1   2    2.16    0.40
   9  -1   2    1.94    0.36
  -9  -1  -2    2.20    0.45
  -9  -1  -2    3.37    0.54
  -9  -1  -2    3.33    0.65
   9   1   2    1.91    0.37
   9   1   2    2.27    0.40
   9   1   2    3.19    0.48
  -9   1  -2    2.81    0.51
  -9   1  -2    3.10    0.53
  10  -1   2    0.85    0.35
  10  -1   2    0.27    0.34
 -10  -1  -2    0.88    0.49
  10   1   2    1.35    0.39
  10   1   2    1.46    0.46
 -10   1  -2    1.67    0.49
 -10   1  -2    1.16    0.47
 -11  -1  -2    4.10    0.70
  11  -1   2    3.34    0.52
 -11   1  -2    5.44    0.77
  11   1   2    3.71    0.54
 -11   1  -2    4.98    0.67
 -11  -2   2    1.12    0.58
  11  -2  -2    1.68    0.39
  11   2  -2    2.92    0.53
  11   2  -2    2.26    0.42
 -11   2   2    2.20    0.49
  10  -2  -2    0.03    0.28
 -10  -2   2    1.31    0.43
 -10  -2   2   -0.45    0.47
  10  -2  -2    0.78    0.33
 -10   2   2    0.61    0.40
  10   2  -2    1.09    0.40
  10   2  -2    0.72    0.32
 -10   2   2    1.23    0.47
  -9  -2   2    1.09    0.36
   9  -2  -2    1.03    0.31
   9  -2  -2    0.50    0.28
  -9  -2   2    0.45    0.45
   9  -2  -2    0.84    0.27
  -9  -2   2    0.91    0.34
   9   2  -2    0.90    0.35
  -9   2   2    1.80    0.47
   9   2  -2    0.95    0.30
   9   2  -2    1.26    0.35
  -9   2   2    0.90    0.35
  -9   2   2    1.14    0.46
   8  -2  -2    6.42    0.50
   8  -2  -2    5.80    0.45
  -8  -2   2    5.53    0.50
  -8  -2   2    7.31    0.58
  -8  -2   2    5.57    0.58
   8  -2  -2    5.53    0.44
  -8  -2   2    6.33    0.57
  -8   2   2    5.59    0.62
   8   2  -2    5.85    0.52
  -8   2   2    6.65    0.58
  -8   2   2    5.50    0.47
  -8   2   2    6.38    0.59
   8   2  -2    5.66    0.46
   8   2  -2    5.56    0.52
  -7  -2   2    7.54    0.57
  -7  -2   2    6.73    0.52
  -7  -2   2    8.02    0.58
   7  -2  -2    7.43    0.47
   7  -2  -2    7.08    0.47
   7  -2  -2    7.66    0.48
  -7  -2   2    6.95    0.58
   7   2  -2    6.31    0.53
  -7   2   2    6.31    0.61
   7   2  -2    6.87    0.52
  -7   2   2    6.63    0.56
  -7   2   2    7.11    0.47
   7   2  -2    6.89    0.45
  -7   2   2    7.58    0.59
  -7   2   2    7.11    0.52
   6  -2  -2   20.21    0.82
  -6  -2   2   18.79    0.92
   6  -2  -2   19.52    0.86
  -6  -2   2   18.72    0.92
   6  -2  -2   18.50    0.86
  -6  -2   2   18.84    0.91
  -6  -2   2   18.66    0.89
   6  -2  -2   20.53    0.88
  -6   2   2   18.43    0.92
   6   2  -2   18.28    0.84
   6   2  -2   17.71    0.92
   6   2  -2   17.79    0.94
  -6   2   2   17.90    0.89
  -6   2   2   18.48    0.94
  -6   2   2   18.60    0.96
   6   2  -2   18.01    0.90
  -6   2   2   18.71    0.86
   5  -2  -2    0.47    0.12
  -5  -2   2    0.45    0.13
   5  -2  -2    0.18    0.18
  -5  -2   2   -0.04    0.22
  -5  -2   2    0.30    0.25
  -5  -2   2    0.26    0.23
   5  -2  -2    0.19    0.16
   5  -2  -2    0.20    0.19
  -5  -2   2    0.16    0.25
  -5   2   2    0.29    0.17
  -5   2   2    0.17    0.21
  -5   2   2    0.17    0.20
   5   2  -2    0.21    0.19
   5   2  -2    0.12    0.14
   5   2  -2    0.15    0.20
   5   2  -2    0.24    0.22
  -5   2   2    0.31    0.22
  -5   2   2    0.09    0.23
  -4  -2   2   27.35    1.19
   4  -2  -2   29.68    1.12
  -4  -2   2   26.21    1.19
  -4  -2   2   28.30    1.19
  -4  -2   2   28.54    1.11
  -4  -2   2   28.35    1.17
   4  -2  -2   28.06    1.15
   4  -2  -2   29.19    1.16
   4   2  -2   26.55    1.20
   4   2  -2   28.93    1.21
  -4   2   2   26.35    1.12
   4   2  -2   27.40    1.13
   4   2  -2   26.89    1.17
  -4   2   2   27.30    1.17
  -4   2   2   26.12    1.19
  -4   2   2   25.63    1.21
  -4   2   2   26.44    1.17
  -3  -2   2   12.55    0.63
   3  -2  -2   13.41    0.56
  -3  -2   2   13.60    0.62
   3  -2  -2   11.85    0.57
  -3  -2   2   14.04    0.65
   3  -2  -2   13.22    0.59
  -3  -2   2   12.86    0.55
   3   2  -2   11.07    0.62
  -3   2   2   11.65    0.61
   3   2  -2   12.57    0.55
  -3   2   2   11.31    0.64
  -3   2   2   11.61    0.59
   3   2  -2   11.76    0.60
  -3   2   2   12.18    0.60
  -3   2   2   11.94    0.54
   3   2  -2   12.80    0.64
  -2  -2   2    3.17    0.23
   2  -2  -2    2.01    0.23
  -2  -2   2    2.95    0.13
  -2  -2   2    2.30    0.29
   2  -2  -2    2.63    0.25
  -2  -2   2    3.14    0.27
   2  -2  -2    3.00    0.15
   2  -2  -2    2.97    0.25
   2   2  -2    2.07    0.27
   2   2  -2    2.37    0.23
   2   2  -2    2.56    0.27
  -2   2   2    2.19    0.30
  -2   2   2    2.29    0.23
  -2   2   2    2.40    0.16
  -2   2   2    3.20    0.26
   2   2  -2    2.64    0.19
   2   2  -2    2.73    0.28
  -2   2   2    2.13    0.27
  -2   2   2    2.57    0.26
   2   2  -2    2.90    0.29
   1  -2  -2   15.20    0.68
  -1  -2   2   15.82    0.68
   1  -2  -2   16.30    0.64
  -1  -2   2   15.83    0.69
  -1  -2   2   15.61    0.71
   1  -2  -2   15.69    0.66
   1  -2  -2   16.20    0.68
  -1  -2   2   16.10    0.71
  -1  -2   2   16.09    0.63
  -1   2   2   14.57    0.66
   1   2  -2   15.15    0.70
  -1   2   2   15.08    0.69
   1   2  -2   16.51    0.72
  -1   2   2   14.94    0.66
  -1   2   2   16.35    0.70
  -1   2   2   17.90    0.61
   1   2  -2   16.12    0.64
   1   2  -2   14.53    0.70
   1   2  -2   16.49    0.71
   1   2  -2   15.37    0.67
  -1   2   2   16.00    0.70
  -1   2   2   14.88    0.70
   0  -2   2    0.55    0.16
   0  -2  -2    0.36    0.15
   0  -2  -2    0.47    0.09
   0  -2   2    0.61    0.10
   0  -2  -2    0.70    0.14
   0  -2  -2    0.65    0.15
   0  -2   2    0.45    0.18
   0  -2   2    0.65    0.19
   0  -2   2    0.60    0.10
   0  -2   2    0.60    0.18
   0  -2  -2    0.61    0.09
   0   2  -2    0.77    0.18
   0   2   2    0.66    0.16
   0   2  -2    0.64    0.16
   0   2  -2    0.71    0.11
   0   2  -2    0.61    0.10
   0   2  -2    0.64    0.15
   0   2  -2    0.61    0.10
   0   2   2    0.73    0.18
   0   2   2    0.58    0.15
   0   2  -2    0.59    0.14
   0   2   2    0.55    0.11
   0   2   2    0.47    0.15
   0   2  -2    0.69    0.19
   0   2   2    0.50    0.10
   0   2  -2    0.68    0.17
   1  -2   2    1.81    0.14
   1  -2   2    1.71    0.17
   1  -2   2    1.37    0.25
  -1  -2  -2    1.86    0.16
  -1  -2  -2    1.37    0.21
  -1  -2  -2    1.95    0.19
   1  -2   2    1.24    0.24
   1  -2   2    1.39    0.13
  -1   2  -2    1.68    0.13
  -1   2  -2    1.57    0.24
  -1   2  -2    1.55    0.21
  -1   2  -2    1.16    0.17
  -1   2  -2    1.34    0.17
  -1   2  -2    1.43    0.24
  -1   2  -2    1.39    0.22
   1   2   2    1.62    0.21
   1   2   2    1.33    0.21
   1   2   2    1.42    0.22
   1   2   2    1.25    0.19
  -2  -2  -2    4.63    0.18
   2  -2   2    4.25    0.29
  -2  -2  -2    4.78    0.31
   2  -2   2    4.99    0.22
  -2  -2  -2    4.97    0.30
  -2  -2  -2    3.46    0.34
   2  -2   2    4.76    0.25
   2  -2   2    3.61    0.37
  -2   2  -2    3.56    0.27
   2   2   2    4.11    0.31
  -2   2  -2    3.88    0.31
  -2   2  -2    4.45    0.36
  -2   2  -2    4.01    0.23
   2   2   2    4.30    0.33
   2   2   2    3.99    0.25
   2   2   2    4.41    0.34
  -2   2  -2    4.13    0.34
   2   2   2    3.94    0.28
  -2   2  -2    3.94    0.36
  -3  -2  -2    4.32    0.32
   3  -2   2    4.59    0.27
  -3  -2  -2    4.07    0.22
  -3  -2  -2    4.50    0.33
  -3  -2  -2    3.24    0.30
   3  -2   2    3.13    0.36
  -3  -2  -2    3.88    0.23
   3  -2   2    3.95    0.29
   3  -2   2    4.72    0.22
   3   2   2    4.23    0.22
  -3   2  -2    4.13    0.36
  -3   2  -2    3.79    0.31
   3   2   2    3.56    0.33
   3   2   2    3.72    0.32
  -3   2  -2    3.54    0.33
   3   2   2    4.22    0.23
   3   2   2    3.86    0.31
  -3   2  -2    3.90    0.37
   3   2   2    4.13    0.28
  -3   2  -2    3.86    0.26
   4  -2   2   77.09    2.70
   4  -2   2   72.25    2.76
  -4  -2  -2   67.79    2.75
  -4  -2  -2   64.96    2.77
  -4  -2  -2   71.60    2.71
  -4  -2  -2   68.60    2.76
   4  -2   2   67.03    2.80
   4  -2   2   73.90    2.74
  -4  -2  -2   69.75    2.71
  -4   2  -2   68.13    2.72
   4   2   2   69.89    2.71
  -4   2  -2   66.89    2.81
   4   2   2   70.42    2.68
   4   2   2   70.07    2.77
   4   2   2   70.45    2.74
   4   2   2   67.37    2.79
   4   2   2   65.86    2.78
  -4   2  -2   70.45    2.82
  -4   2  -2   69.62    2.80
   5  -2   2    5.76    0.48
   5  -2   2    6.45    0.39
  -5  -2  -2    6.94    0.39
  -5  -2  -2    6.86    0.46
   5  -2   2    7.07    0.35
   5  -2   2    6.32    0.42
  -5  -2  -2    6.77    0.38
  -5  -2  -2    6.44    0.44
  -5  -2  -2    5.83    0.44
  -5   2  -2    6.25    0.36
  -5   2  -2    5.88    0.45
  -5   2  -2    6.37    0.47
   5   2   2    5.69    0.46
  -5   2  -2    6.08    0.49
   5   2   2    6.45    0.39
   5   2   2    5.27    0.36
  -5   2  -2    5.96    0.47
   5   2   2    5.78    0.42
   5   2   2    6.29    0.42
  -6  -2  -2    1.21    0.32
  -6  -2  -2    0.81    0.24
   6  -2   2    0.91    0.23
   6  -2   2    1.09    0.32
   6  -2   2    1.12    0.27
  -6  -2  -2    0.98    0.32
   6   2   2    0.85    0.26
  -6   2  -2    0.79    0.29
  -6   2  -2    1.15    0.30
   6   2   2    0.72    0.23
  -6   2  -2    1.05    0.31
   6   2   2    1.21    0.28
  -6   2  -2    0.89    0.20
   6   2   2    0.76    0.28
  -7  -2  -2    1.11    0.38
   7  -2   2    0.87    0.30
   7  -2   2    0.76    0.34
  -7  -2  -2    0.80    0.35
  -7  -2  -2    0.85    0.29
  -7  -2  -2    1.24    0.31
   7  -2   2    0.89    0.27
   7   2   2    0.96    0.29
  -7   2  -2    0.28    0.32
  -7   2  -2    1.62    0.41
   7   2   2    0.74    0.28
   7   2   2    0.48    0.30
  -7   2  -2    0.83    0.36
  -7   2  -2    1.07    0.37
   7   2   2    0.98    0.24
   8  -2   2    1.05    0.40
  -8  -2  -2    0.40    0.36
  -8  -2  -2    0.75    0.41
   8  -2   2    0.51    0.28
   8  -2   2    0.48    0.27
   8   2   2    0.59    0.33
  -8   2  -2    0.91    0.40
  -8   2  -2    0.44    0.38
   8   2   2    0.13    0.26
   8   2   2    0.27    0.43
  -8   2  -2    1.28    0.43
   8   2   2    0.53    0.30
  -8   2  -2    0.57    0.40
  -9  -2  -2    0.25    0.41
   9  -2   2    0.50    0.30
  -9  -2  -2    0.99    0.52
   9  -2   2    1.47    0.39
   9  -2   2    0.80    0.32
  -9   2  -2    0.46    0.36
  -9   2  -2    0.91    0.43
   9   2   2    0.99    0.38
  -9   2  -2    1.30    0.42
   9   2   2    0.69    0.33
 -10  -2  -2    0.18    0.53
  10  -2   2    0.14    0.36
 -10   2  -2    0.92    0.47
  10   2   2    0.53    0.38
 -10   2  -2    0.85    0.46
  10   2   2    0.79    0.38
  11  -2   2    2.41    0.47
 -11  -2  -2    2.87    0.68
  11  -2   2    1.68    0.46
  11   2   2    2.95    0.52
 -11   2  -2    4.13    0.70
  11  -3  -2    2.52    0.46
 -11  -3   2    2.35    0.74
  11   3  -2    3.44    0.46
  11   3  -2    3.80    0.61
 -11   3   2    4.48    0.76
 -10  -3   2   -0.32    0.56
  10  -3  -2   -0.12    0.29
 -10  -3   2    1.55    0.49
  10  -3  -2    1.00    0.33
 -10  -3   2    0.10    0.46
  10  -3  -2    0.37    0.31
  10   3  -2    1.03    0.74
 -10   3   2    1.70    0.57
  10   3  -2    0.44    0.27
 -10   3   2    0.55    0.46
  10   3  -2    1.05    0.40
   9  -3  -2    0.35    0.28
   9  -3  -2   -0.31    0.26
   9  -3  -2    0.23    0.28
  -9  -3   2    0.20    0.39
  -9  -3   2    0.70    0.35
  -9  -3   2   -0.36    0.52
  -9   3   2    0.54    0.32
  -9   3   2    0.74    0.44
   9   3  -2    0.33    0.35
  -9   3   2    0.55    0.47
   9   3  -2    0.49    0.34
   9   3  -2    0.56    0.28
   8  -3  -2    2.70    0.41
  -8  -3   2    2.28    0.52
  -8  -3   2    3.23    0.48
  -8  -3   2    2.57    0.47
   8  -3  -2    2.19    0.38
  -8  -3   2    4.05    0.49
   8  -3  -2    3.11    0.41
  -8   3   2    2.50    0.38
   8   3  -2    3.00    0.38
   8   3  -2    3.01    0.54
  -8   3   2    3.66    0.61
  -8   3   2    3.40    0.54
   8   3  -2    2.89    0.46
  -7  -3   2   20.94    1.06
   7  -3  -2   21.21    0.97
  -7  -3   2   20.89    1.00
  -7  -3   2   20.22    1.05
  -7  -3   2   20.45    1.01
   7  -3  -2   21.07    0.96
   7  -3  -2   20.13    0.98
  -7   3   2   20.54    1.07
   7   3  -2   19.94    1.05
  -7   3   2   19.56    1.12
  -7   3   2   19.13    0.94
   7   3  -2   20.01    1.08
   7   3  -2   18.42    0.93
  -7   3   2   19.64    1.04
  -7   3   2   19.96    1.02
  -6  -3   2    1.30    0.32
  -6  -3   2    1.33    0.30
   6  -3  -2    1.37    0.27
   6  -3  -2    1.06    0.27
  -6  -3   2    1.35    0.37
  -6  -3   2    0.71    0.37
   6  -3  -2    1.53    0.30
   6   3  -2    1.22    0.30
   6   3  -2    0.88    0.30
  -6   3   2    1.01    0.41
   6   3  -2    0.65    0.38
  -6   3   2    1.53    0.36
   6   3  -2    1.12    0.22
  -6   3   2    1.25    0.35
  -6   3   2    0.61    0.33
  -6   3   2    1.35    0.27
  -5  -3   2    1.99    0.40
  -5  -3   2    2.25    0.33
  -5  -3   2    1.73    0.38
   5  -3  -2    1.74    0.29
   5  -3  -2    2.09    0.30
   5  -3  -2    1.87    0.28
   5  -3  -2    2.14    0.21
  -5  -3   2    1.85    0.34
  -5   3   2    2.00    0.34
  -5   3   2    2.10    0.35
  -5   3   2    1.82    0.25
   5   3  -2    1.84    0.25
   5   3  -2    1.53    0.37
   5   3  -2    1.53    0.33
  -5   3   2    1.59    0.37
   5   3  -2    1.59    0.30
  -5   3   2    1.07    0.29
   4  -3  -2    1.05    0.21
  -4  -3   2    1.09    0.29
   4  -3  -2    0.83    0.17
  -4  -3   2    0.79    0.26
   4  -3  -2    0.98    0.22
  -4  -3   2    0.95    0.28
  -4  -3   2    0.81    0.24
  -4  -3   2    0.74    0.14
   4   3  -2    0.86    0.27
  -4   3   2    1.29    0.26
  -4   3   2    0.99    0.23
   4   3  -2    1.07    0.23
  -4   3   2    0.96    0.25
   4   3  -2    0.94    0.17
  -4   3   2    0.94    0.29
   4   3  -2    0.94    0.25
  -4   3   2    0.62    0.15
  -3  -3   2   17.36    0.80
   3  -3  -2   15.93    0.72
  -3  -3   2   15.94    0.69
  -3  -3   2   18.15    0.80
  -3  -3   2   16.14    0.76
   3  -3  -2   15.97    0.75
   3  -3  -2   16.46    0.75
  -3  -3   2   16.53    0.64
  -3   3   2   15.53    0.76
   3   3  -2   15.48    0.76
   3   3  -2   18.09    0.65
   3   3  -2   16.99    0.80
  -3   3   2   15.18    0.69
   3   3  -2   15.47    0.71
  -3   3   2   15.67    0.78
  -3   3   2   15.54    0.77
  -3   3   2   15.29    0.81
  -3   3   2   19.11    0.79
   3   3  -2   16.17    0.81
  -2  -3   2    3.02    0.29
   2  -3  -2    3.04    0.27
  -2  -3   2    3.41    0.19
  -2  -3   2    3.07    0.24
  -2  -3   2    2.64    0.33
   2  -3  -2    2.97    0.18
   2  -3  -2    3.03    0.27
   2  -3  -2    3.06    0.28
   2  -3  -2    3.39    0.27
  -2  -3   2    3.23    0.31
   2   3  -2    2.96    0.28
   2   3  -2    3.22    0.33
  -2   3   2    2.35    0.32
  -2   3   2    3.03    0.20
   2   3  -2    3.64    0.20
  -2   3   2    2.84    0.30
  -2   3   2    3.01    0.28
  -2   3   2    2.71    0.25
  -2   3   2    3.63    0.30
   2   3  -2    3.14    0.22
   2   3  -2    3.06    0.31
   2   3  -2    3.00    0.31
   1  -3  -2    1.26    0.15
   1  -3  -2    1.50    0.18
  -1  -3   2    1.20    0.28
  -1  -3   2    1.50    0.17
   1  -3  -2    1.24    0.20
  -1  -3   2    1.59    0.31
   1  -3  -2    1.45    0.23
  -1  -3   2    1.74    0.24
   1  -3  -2    1.80    0.26
  -1  -3   2    1.81    0.27
   1   3  -2    1.27    0.18
   1   3  -2    1.61    0.25
  -1   3   2    1.60    0.26
  -1   3   2    1.43    0.18
   1   3  -2    1.58    0.28
  -1   3   2    1.38    0.27
  -1   3   2    1.76    0.27
   1   3  -2    1.31    0.18
   1   3  -2    1.35    0.24
  -1   3   2    1.72    0.15
   1   3  -2    1.37    0.27
   1   3  -2    1.26    0.20
  -1   3   2    1.41    0.21
  -1   3   2    1.42    0.24
   0  -3  -2    8.17    0.40
   0  -3  -2    7.87    0.45
   0  -3   2    7.39    0.44
   0  -3   2    7.32    0.37
   0  -3   2    7.75    0.47
   0  -3   2    7.52    0.39
   0  -3  -2    6.45    0.44
   0  -3  -2    8.33    0.36
   0  -3  -2    7.68    0.37
   0   3   2    7.61    0.38
   0   3  -2    8.50    0.48
   0   3  -2    7.69    0.48
   0   3  -2    7.80    0.45
   0   3  -2    8.37    0.41
   0   3  -2    7.99    0.41
   0   3   2    8.11    0.46
   0   3  -2    7.43    0.47
   0   3  -2    8.35    0.38
   0   3  -2    7.30    0.43
   0   3   2    7.17    0.43
   0   3   2    7.18    0.42
   0   3   2    7.83    0.36
   0   3   2    7.98    0.45
   0   3  -2    7.66    0.44
   1  -3   2    2.14    0.20
  -1  -3  -2    2.74    0.16
  -1  -3  -2    3.03    0.23
   1  -3   2    2.59    0.23
  -1  -3  -2    2.88    0.17
   1  -3   2    2.36    0.32
  -1  -3  -2    2.45    0.29
  -1  -3  -2    2.67    0.16
  -1  -3  -2    2.89    0.25
   1  -3   2    2.87    0.22
   1  -3   2    1.99    0.31
  -1   3  -2    2.99    0.35
   1   3   2    2.36    0.27
  -1   3  -2    2.63    0.28
   1   3   2    2.44    0.31
  -1   3  -2    3.36    0.26
  -1   3  -2    2.20    0.25
  -1   3  -2    3.15    0.22
  -1   3  -2    2.91    0.30
   1   3   2    2.57    0.30
   1   3   2    2.56    0.25
   1   3   2    2.60    0.25
  -1   3  -2    2.78    0.25
  -1   3  -2    2.94    0.33
   2  -3   2    1.56    0.31
   2  -3   2    2.12    0.19
  -2  -3  -2    2.27    0.23
  -2  -3  -2    2.10    0.10
  -2  -3  -2    2.32    0.26
  -2  -3  -2    2.15    0.11
   2  -3   2    1.99    0.18
  -2  -3  -2    1.72    0.27
   2  -3   2    2.01    0.23
   2   3   2    1.92    0.25
   2   3   2    1.94    0.22
  -2   3  -2    1.77    0.27
   2   3   2    1.65    0.30
  -2   3  -2    1.97    0.31
   2   3   2    1.56    0.27
  -2   3  -2    1.90    0.25
   2   3   2    2.08    0.19
  -2   3  -2    1.94    0.30
  -2   3  -2    1.82    0.19
  -2   3  -2    1.92    0.22
  -3  -3  -2   19.93    0.96
  -3  -3  -2   21.58    0.83
  -3  -3  -2   21.30    0.83
   3  -3   2   21.07    0.93
   3  -3   2   22.26    0.86
  -3  -3  -2   20.68    0.94
   3  -3   2   20.91    0.99
  -3  -3  -2   21.38    0.92
   3  -3   2   21.81    0.90
  -3   3  -2   20.70    0.90
  -3   3  -2   20.09    0.94
  -3   3  -2   21.42    1.00
  -3   3  -2   21.18    1.00
   3   3   2   20.32    0.94
   3   3   2   20.90    0.99
  -3   3  -2   21.87    0.85
   3   3   2   20.94    0.84
   3   3   2   20.82    0.97
  -3   3  -2   21.03    0.97
   3   3   2   20.19    0.90
   3   3   2   20.96    0.85
   4  -3   2    0.16    0.19
   4  -3   2    0.30    0.17
   4  -3   2    0.42    0.13
  -4  -3  -2    0.51    0.25
  -4  -3  -2    0.18    0.21
  -4  -3  -2    0.39    0.24
  -4   3  -2    0.38    0.28
   4   3   2    0.14    0.14
   4   3   2    0.39    0.21
   4   3   2    0.19    0.24
  -4   3  -2    0.21    0.25
  -4   3  -2    0.39    0.21
  -4   3  -2    0.29    0.14
  -4   3  -2    0.02    0.25
   4   3   2    0.44    0.16
   4   3   2    0.25    0.22
  -5  -3  -2   42.29    1.83
   5  -3   2   42.35    1.81
  -5  -3  -2   42.84    1.82
  -5  -3  -2   45.38    1.80
  -5  -3  -2   39.98    1.84
   5  -3   2   45.42    1.79
   5  -3   2   47.17    1.74
   5   3   2   40.04    1.82
   5   3   2   41.31    1.86
  -5   3  -2   42.36    1.76
   5   3   2   40.38    1.77
  -5   3  -2   48.10    1.90
  -5   3  -2   43.02    1.84
   5   3   2   41.40    1.87
  -5   3  -2   48.57    1.94
  -5   3  -2   45.86    1.92
   6  -3   2    5.89    0.45
   6  -3   2    6.11    0.43
  -6  -3  -2    5.29    0.53
  -6  -3  -2    6.07    0.51
  -6  -3  -2    5.75    0.57
   6  -3   2    5.56    0.57
  -6   3  -2    5.14    0.57
   6   3   2    5.64    0.46
   6   3   2    5.66    0.50
   6   3   2    5.51    0.40
  -6   3  -2    5.54    0.48
  -6   3  -2    6.34    0.58
   6   3   2    5.21    0.56
  -6   3  -2    5.16    0.53
   7  -3   2    0.03    0.24
  -7  -3  -2    0.48    0.32
   7  -3   2    0.25    0.27
   7  -3   2    0.50    0.37
  -7  -3  -2    0.03    0.38
  -7  -3  -2    0.05    0.35
  -7   3  -2    0.00    0.31
   7   3   2    0.02    0.33
   7   3   2    0.30    0.31
   7   3   2   -0.04    0.27
   7   3   2    0.23    0.24
  -7   3  -2    0.22    0.30
  -7   3  -2    0.52    0.37
  -7   3  -2   -0.10    0.35
   8  -3   2    0.96    0.36
  -8  -3  -2    0.81    0.45
  -8  -3  -2    1.26    0.36
  -8  -3  -2    0.57    0.42
   8  -3   2    0.91    0.34
   8  -3   2    1.59    0.45
   8   3   2    1.14    0.41
  -8   3  -2    1.30    0.42
  -8   3  -2    1.15    0.47
   8   3   2    1.09    0.37
   8   3   2    1.09    0.34
  -8   3  -2    0.72    0.43
  -9  -3  -2    3.88    0.63
  -9  -3  -2    3.64    0.59
   9  -3   2    2.66    0.45
   9  -3   2    3.15    0.45
   9  -3   2    4.90    0.70
  -9   3  -2    3.93    0.63
  -9   3  -2    4.41    0.64
  -9   3  -2    3.67    0.64
   9   3   2    3.57    0.53
   9   3   2    3.01    0.48
  10  -3   2   -0.47    0.35
 -10  -3  -2   -0.89    0.48
  10   3   2    0.51    0.36
 -10   3  -2   -0.10    0.73
  10   3   2    0.74    0.42
 -10   3  -2    0.69    0.41
 -10   3  -2    1.30    0.57
 -10  -4   2    1.20    0.52
  10  -4  -2    0.71    0.34
 -10  -4   2    1.35    0.58
  10  -4  -2    0.30    0.36
 -10   4   2    1.39    0.59
  10   4  -2    0.95    0.44
 -10   4   2    1.64    0.58
  10   4  -2    0.94    0.30
  -9  -4   2    6.46    0.76
   9  -4  -2    6.27    0.59
  -9  -4   2    5.42    0.74
   9  -4  -2    4.81    0.54
   9  -4  -2    7.03    0.56
  -9   4   2    7.16    0.75
   9   4  -2    6.06    0.65
  -9   4   2    6.46    0.91
   9   4  -2    6.29    0.76
   9   4  -2    5.46    0.49
  -8  -4   2    0.75    0.35
   8  -4  -2    0.30    0.30
   8  -4  -2    0.14    0.30
  -8  -4   2    0.16    0.49
   8  -4  -2    0.59    0.31
  -8  -4   2    0.53    0.50
  -8   4   2    0.30    0.39
  -8   4   2    0.92    0.47
   8   4  -2    0.73    0.37
   8   4  -2    0.50    0.40
  -8   4   2    0.95    0.51
   8   4  -2    0.86    0.28
  -7  -4   2    1.66    0.38
  -7  -4   2    1.59    0.37
  -7  -4   2    1.97    0.47
   7  -4  -2    1.40    0.35
   7  -4  -2    1.67    0.35
  -7  -4   2    1.38    0.52
   7  -4  -2    1.72    0.34
  -7   4   2    1.69    0.50
  -7   4   2    2.05    0.44
  -7   4   2    1.58    0.41
   7   4  -2    1.91    0.45
   7   4  -2    1.83    0.33
   7   4  -2    1.70    0.39
   6  -4  -2    5.59    0.48
  -6  -4   2    5.97    0.68
  -6  -4   2    5.76    0.54
  -6  -4   2    5.87    0.51
   6  -4  -2    6.05    0.47
   6  -4  -2    6.15    0.51
  -6  -4   2    5.54    0.61
  -6   4   2    5.59    0.57
   6   4  -2    5.45    0.56
  -6   4   2    6.31    0.55
  -6   4   2    6.10    0.60
  -6   4   2    5.94    0.66
   6   4  -2    5.93    0.43
   6   4  -2    5.47    0.51
  -6   4   2    6.13    0.56
   6   4  -2    5.90    0.65
  -5  -4   2   -0.42    0.31
  -5  -4   2   -0.52    0.30
   5  -4  -2   -0.15    0.24
   5  -4  -2   -0.11    0.23
  -5  -4   2   -0.09    0.25
   5  -4  -2   -0.04    0.26
  -5  -4   2    0.12    0.36
   5   4  -2   -0.07    0.30
   5   4  -2   -0.33    0.31
  -5   4   2    0.27    0.26
   5   4  -2   -0.01    0.18
  -5   4   2   -0.23    0.26
  -5   4   2   -0.02    0.25
  -5   4   2   -0.13    0.32
  -5   4   2    0.08    0.17
   5   4  -2    0.03    0.25
   4  -4  -2    1.55    0.27
  -4  -4   2    1.74    0.37
   4  -4  -2    1.39    0.23
  -4  -4   2    1.18    0.35
  -4  -4   2    1.05    0.30
   4  -4  -2    1.62    0.29
  -4  -4   2    1.48    0.28
  -4   4   2    1.33    0.31
   4   4  -2    1.45    0.35
  -4   4   2    1.31    0.32
   4   4  -2    1.43    0.29
  -4   4   2    1.27    0.22
   4   4  -2    1.08    0.34
  -4   4   2    1.23    0.27
  -4   4   2    0.97    0.37
   4   4  -2    1.30    0.22
  -3  -4   2    1.37    0.29
   3  -4  -2    1.39    0.25
  -3  -4   2    1.34    0.27
  -3  -4   2    1.02    0.34
  -3  -4   2    1.09    0.21
   3  -4  -2    1.62    0.28
   3  -4  -2    1.41    0.25
  -3  -4   2    1.48    0.32
  -3   4   2    1.44    0.28
  -3   4   2    1.29    0.19
   3   4  -2    1.51    0.34
   3   4  -2    1.43    0.30
   3   4  -2    1.33    0.27
  -3   4   2    1.59    0.28
  -3   4   2    1.52    0.31
   3   4  -2    1.32    0.22
  -3   4   2    1.35    0.25
  -3   4   2    1.22    0.31
   3   4  -2    1.65    0.21
  -2  -4   2    0.07    0.19
   2  -4  -2    0.09    0.16
  -2  -4   2    0.08    0.15
   2  -4  -2   -0.06    0.12
  -2  -4   2    0.02    0.23
   2  -4  -2    0.00    0.18
   2  -4  -2    0.17    0.18
  -2  -4   2    0.25    0.19
  -2  -4   2    0.22    0.11
   2   4  -2    0.02    0.12
   2   4  -2   -0.01    0.18
  -2   4   2    0.11    0.12
   2   4  -2    0.07    0.13
  -2   4   2   -0.02    0.19
  -2   4   2    0.09    0.22
  -2   4   2    0.42    0.22
  -2   4   2    0.27    0.17
   2   4  -2    0.04    0.24
   2   4  -2    0.23    0.26
  -2   4   2    0.26    0.15
   2   4  -2    0.03    0.19
  -1  -4   2    5.21    0.38
   1  -4  -2    5.06    0.32
  -1  -4   2    5.31    0.36
   1  -4  -2    5.04    0.37
  -1  -4   2    5.02    0.44
  -1  -4   2    5.45    0.32
   1  -4  -2    5.20    0.38
   1  -4  -2    5.71    0.30
  -1  -4   2    5.25    0.39
   1  -4  -2    5.56    0.34
   1   4  -2    5.26    0.40
   1   4  -2    5.27    0.37
   1   4  -2    6.02    0.45
  -1   4   2    5.33    0.35
  -1   4   2    5.34    0.33
  -1   4   2    6.30    0.32
  -1   4   2    5.19    0.40
   1   4  -2    5.92    0.34
   1   4  -2    6.00    0.43
  -1   4   2    5.30    0.39
   1   4  -2    5.94    0.38
  -1   4   2    5.89    0.41
  -1   4   2    6.00    0.42
   1   4  -2    5.85    0.34
   1   4  -2    5.84    0.39
   0  -4   2    1.89    0.27
   0  -4   2    1.33    0.27
   0  -4   2    1.62    0.19
   0  -4  -2    1.65    0.20
   0  -4  -2    1.54    0.30
   0  -4  -2    1.35    0.26
   0  -4   2    1.77    0.25
   0  -4   2    1.66    0.19
   0  -4  -2    1.32    0.22
   0  -4  -2    1.73    0.21
   0   4  -2    1.69    0.27
   0   4   2    1.62    0.24
   0   4   2    1.78    0.21
   0   4   2    1.62    0.19
   0   4   2    1.53    0.27
   0   4   2    1.55    0.27
   0   4   2    1.87    0.30
   0   4  -2    1.55    0.27
   0   4  -2    1.52    0.27
   0   4  -2    1.71    0.27
   0   4  -2    1.84    0.24
   0   4  -2    1.91    0.23
   0   4  -2    1.83    0.25
   0   4  -2    1.79    0.21
   0   4  -2    1.61    0.30
   1  -4   2    4.84    0.44
   1  -4   2    5.26    0.32
  -1  -4  -2    5.52    0.33
   1  -4   2    5.28    0.33
  -1  -4  -2    5.24    0.29
   1  -4   2    4.94    0.40
   1  -4   2    5.24    0.32
  -1  -4  -2    4.98    0.35
  -1  -4  -2    5.10    0.40
  -1  -4  -2    5.73    0.28
  -1  -4  -2    5.86    0.28
  -1   4  -2    5.31    0.36
   1   4   2    5.14    0.35
  -1   4  -2    5.17    0.41
  -1   4  -2    5.11    0.45
   1   4   2    4.88    0.41
   1   4   2    4.69    0.35
  -1   4  -2    5.04    0.36
   1   4   2    5.33    0.28
   1   4   2    5.14    0.38
  -1   4  -2    5.04    0.38
  -1   4  -2    5.34    0.42
  -1   4  -2    4.83    0.34
  -1   4  -2    5.32    0.32
   1   4   2    5.04    0.43
  -1   4  -2    5.11    0.34
  -2  -4  -2    1.01    0.26
  -2  -4  -2    0.71    0.20
   2  -4   2    1.06    0.20
  -2  -4  -2    0.73    0.13
   2  -4   2    1.00    0.27
   2  -4   2    1.10    0.22
   2  -4   2    1.05    0.17
   2  -4   2    1.07    0.29
  -2  -4  -2    0.96    0.24
  -2  -4  -2    0.85    0.16
  -2   4  -2    0.99    0.27
   2   4   2    0.88    0.26
   2   4   2    1.11    0.21
  -2   4  -2    0.90    0.20
   2   4   2    0.92    0.19
  -2   4  -2    1.19    0.25
   2   4   2    1.02    0.24
  -2   4  -2    1.07    0.19
  -2   4  -2    0.97    0.26
  -2   4  -2    1.13    0.26
   2   4   2    1.03    0.29
  -2   4  -2    0.87    0.27
  -3  -4  -2    0.13    0.21
   3  -4   2   -0.11    0.15
  -3  -4  -2    0.06    0.24
   3  -4   2    0.05    0.20
  -3  -4  -2    0.20    0.26
   3  -4   2    0.17    0.20
   3  -4   2    0.44    0.16
   3  -4   2   -0.06    0.28
  -3   4  -2    0.05    0.24
  -3   4  -2    0.12    0.21
  -3   4  -2   -0.07    0.16
  -3   4  -2    0.24    0.25
  -3   4  -2    0.14    0.26
   3   4   2    0.08    0.23
   3   4   2    0.04    0.18
   3   4   2   -0.09    0.20
   3   4   2    0.33    0.30
   4  -4   2    8.76    0.45
  -4  -4  -2    9.14    0.61
  -4  -4  -2    8.87    0.57
   4  -4   2    8.73    0.53
   4  -4   2    9.06    0.52
  -4  -4  -2    7.62    0.58
  -4   4  -2    8.68    0.60
  -4   4  -2    8.72    0.55
  -4   4  -2    8.92    0.65
   4   4   2    8.19    0.54
  -4   4  -2    8.93    0.63
   4   4   2    7.99    0.57
  -4   4  -2    8.27    0.47
   4   4   2    8.21    0.49
   4   4   2    9.41    0.63
  -5  -4  -2    0.85    0.35
  -5  -4  -2    0.52    0.33
   5  -4   2    0.25    0.23
   5  -4   2    0.41    0.27
  -5  -4  -2    1.22    0.37
  -5   4  -2    0.43    0.36
   5   4   2    0.54    0.31
   5   4   2    0.73    0.36
  -5   4  -2    0.72    0.33
   5   4   2   -0.04    0.24
  -5   4  -2    0.99    0.33
  -5   4  -2    0.46    0.29
   5   4   2    0.30    0.20
  -6  -4  -2    0.31    0.37
  -6  -4  -2    0.39    0.34
   6  -4   2    0.45    0.39
   6  -4   2    0.58    0.29
   6  -4   2    0.44    0.32
  -6  -4  -2    0.39    0.36
   6   4   2    0.15    0.27
   6   4   2    0.40    0.26
  -6   4  -2   -0.19    0.36
   6   4   2    0.12    0.31
  -6   4  -2    0.51    0.32
  -6   4  -2    0.19    0.32
  -6   4  -2    0.70    0.38
   6   4   2    0.24    0.34
   7  -4   2    1.41    0.36
   7  -4   2    1.47    0.33
  -7  -4  -2    2.20    0.48
  -7  -4  -2    1.49    0.50
  -7  -4  -2    1.08    0.45
   7   4   2    1.55    0.47
  -7   4  -2    1.54    0.48
   7   4   2    1.18    0.39
   7   4   2    1.19    0.34
  -7   4  -2    2.42    0.46
  -7   4  -2    1.38    0.44
  -8  -4  -2    0.78    0.51
  -8  -4  -2    1.05    0.52
   8  -4   2    0.85    0.37
   8  -4   2    1.03    0.33
   8  -4   2    1.76    0.51
  -8   4  -2    1.97    0.56
  -8   4  -2    1.66    0.42
   8   4   2    1.19    0.49
   8   4   2    0.95    0.37
  -8   4  -2    1.15    0.51
   8   4   2    1.44    0.47
   9  -4   2    0.95    0.50
  -9  -4  -2    1.20    0.51
   9  -4   2    0.02    0.39
   9  -4   2   -0.28    0.35
  -9  -4  -2   -0.47    0.49
  -9  -4  -2   -0.34    0.50
   9   4   2    0.38    0.33
   9   4   2    0.81    0.46
   9   4   2   -0.29    0.44
  -9   4  -2    1.28    0.46
  -9   4  -2    1.04    0.57
  -9   4  -2   -0.25    0.53
 -10  -4  -2   -1.04    0.59
  10  -4   2   -0.38    0.35
  10  -4   2   -0.52    0.36
 -10   4  -2    0.36    0.54
  10   4   2    0.37    0.35
 -10   4  -2   -0.49    0.51
  10   4   2    0.54    0.44
  -9  -5   2    2.21    0.72
   9  -5  -2    2.19    0.48
   9  -5  -2    1.20    0.43
   9   5  -2    2.11    0.62
   9   5  -2    2.18    0.57
  -9   5   2    3.80    0.71
   8  -5  -2    7.45    0.63
  -8  -5   2    8.02    0.76
  -8  -5   2    7.79    0.81
   8  -5  -2    8.33    0.63
   8  -5  -2    7.02    0.61
   8   5  -2    6.82    0.76
  -8   5   2    8.91    0.78
   8   5  -2    8.86    0.78
  -8   5   2    9.20    0.92
  -8   5   2    6.44    0.71
   8   5  -2    6.99    0.56
   7  -5  -2    2.50    0.41
   7  -5  -2    2.18    0.39
  -7  -5   2    2.93    0.58
   7  -5  -2    2.39    0.43
  -7  -5   2    2.08    0.63
  -7   5   2    3.08    0.70
  -7   5   2    2.82    0.51
   7   5  -2    2.46    0.55
   7   5  -2    2.64    0.37
   7   5  -2    2.75    0.49
  -7   5   2    2.04    0.49
  -6  -5   2    1.26    0.46
   6  -5  -2    1.08    0.34
  -6  -5   2    0.48    0.34
   6  -5  -2    1.20    0.35
   6  -5  -2    0.72    0.34
  -6  -5   2    0.91    0.54
  -6   5   2    1.36    0.51
   6   5  -2    1.01    0.24
  -6   5   2    1.58    0.42
   6   5  -2    1.37    0.41
  -6   5   2    1.23    0.34
  -6   5   2    1.43    0.39
   6   5  -2    1.05    0.40
   6   5  -2    1.33    0.48
  -5  -5   2   -0.18    0.30
   5  -5  -2    0.10    0.27
   5  -5  -2   -0.10    0.33
  -5  -5   2    0.46    0.38
  -5  -5   2    0.27    0.41
   5  -5  -2    0.02    0.28
  -5   5   2    0.21    0.39
   5   5  -2    0.13    0.32
  -5   5   2    0.50    0.28
  -5   5   2    0.42    0.28
   5   5  -2    0.16    0.19
   5   5  -2    0.24    0.29
   5   5  -2    0.19    0.39
  -5   5   2   -0.12    0.32
  -4  -5   2    3.37    0.52
   4  -5  -2    2.51    0.40
  -4  -5   2    2.18    0.40
   4  -5  -2    2.29    0.37
  -4  -5   2    2.20    0.42
  -4  -5   2    2.64    0.46
   4   5  -2    2.52    0.40
   4   5  -2    2.70    0.46
  -4   5   2    2.54    0.43
   4   5  -2    2.50    0.47
   4   5  -2    2.37    0.30
  -4   5   2    2.34    0.41
  -4   5   2    2.68    0.49
  -4   5   2    2.81    0.42
  -3  -5   2   -0.06    0.28
  -3  -5   2   -0.14    0.31
  -3  -5   2    0.11    0.31
   3  -5  -2    0.29    0.23
   3  -5  -2    0.41    0.27
   3  -5  -2    0.30    0.25
  -3  -5   2   -0.02    0.23
   3   5  -2    0.17    0.18
  -3   5   2    0.00    0.32
  -3   5   2    0.19    0.28
  -3   5   2    0.17    0.23
   3   5  -2    0.15    0.29
  -3   5   2    0.42    0.25
   3   5  -2    0.45    0.28
   3   5  -2    0.22    0.31
  -3   5   2   -0.06    0.28
  -2  -5   2    0.13    0.25
  -2  -5   2    0.25    0.16
  -2  -5   2   -0.02    0.20
   2  -5  -2    0.09    0.22
  -2  -5   2    0.25    0.26
   2  -5  -2    0.31    0.23
  -2  -5   2    0.27    0.29
   2  -5  -2   -0.09    0.17
   2  -5  -2    0.08    0.24
  -2   5   2    0.15    0.26
   2   5  -2    0.23    0.18
  -2   5   2    0.09    0.20
  -2   5   2    0.19    0.21
   2   5  -2    0.47    0.32
   2   5  -2    0.33    0.25
  -2   5   2    0.16    0.32
  -2   5   2    0.01    0.26
   2   5  -2    0.00    0.29
   2   5  -2    0.10    0.17
   2   5  -2    0.26    0.29
   1  -5  -2    2.05    0.36
   1  -5  -2    2.36    0.28
   1  -5  -2    1.87    0.26
   1  -5  -2    1.95    0.33
  -1  -5   2    1.83    0.37
  -1  -5   2    2.03    0.33
  -1  -5   2    1.97    0.34
  -1  -5   2    1.98    0.33
  -1  -5   2    2.15    0.24
   1   5  -2    2.09    0.37
   1   5  -2    1.98    0.38
   1   5  -2    1.81    0.34
   1   5  -2    1.65    0.34
  -1   5   2    1.86    0.33
   1   5  -2    2.01    0.38
   1   5  -2    2.23    0.28
  -1   5   2    1.96    0.27
  -1   5   2    1.78    0.36
  -1   5   2    2.16    0.30
   1   5  -2    2.04    0.27
  -1   5   2    2.18    0.44
  -1   5   2    2.16    0.35
   1   5  -2    2.30    0.38
   0  -5  -2    2.77    0.28
   0  -5   2    2.26    0.28
   0  -5   2    2.04    0.27
   0  -5   2    2.56    0.40
   0  -5  -2    2.60    0.35
   0  -5   2    2.06    0.34
   0  -5  -2    3.28    0.42
   0  -5  -2    2.89    0.29
   0   5  -2    2.79    0.41
   0   5   2    2.28    0.35
   0   5   2    2.41    0.28
   0   5   2    2.07    0.33
   0   5  -2    1.90    0.34
   0   5  -2    1.81    0.30
   0   5  -2    1.61    0.32
   0   5   2    2.11    0.38
   0   5  -2    1.91    0.28
   0   5  -2    2.45    0.39
   0   5   2    2.26    0.25
   0   5  -2    2.32    0.33
   0   5  -2    2.32    0.37
   0   5   2    2.33    0.34
  -1  -5  -2    1.83    0.35
  -1  -5  -2    1.40    0.29
   1  -5   2    1.44    0.32
   1  -5   2    1.23    0.30
  -1  -5  -2    1.25    0.31
   1  -5   2    1.66    0.30
   1  -5   2    1.31    0.24
  -1  -5  -2    1.48    0.25
   1   5   2    1.19    0.33
   1   5   2    1.18    0.35
   1   5   2    1.27    0.30
  -1   5  -2    1.26    0.29
  -1   5  -2    1.11    0.24
  -1   5  -2    1.13    0.27
  -1   5  -2    1.45    0.32
  -1   5  -2    1.23    0.31
  -1   5  -2    1.17    0.31
  -1   5  -2    1.28    0.28
   1   5   2    1.57    0.27
  -1   5  -2    1.34    0.32
   1   5   2    1.27    0.29
  -1   5  -2    1.50    0.29
   2  -5   2   21.17    1.09
   2  -5   2   23.88    1.00
  -2  -5  -2   24.47    1.02
  -2  -5  -2   24.43    1.07
   2  -5   2   24.61    1.02
  -2  -5  -2   21.75    1.10
   2  -5   2   22.32    1.03
   2  -5   2   21.37    1.12
  -2   5  -2   23.12    1.11
  -2   5  -2   23.18    1.07
  -2   5  -2   22.91    1.13
  -2   5  -2   21.12    1.07
   2   5   2   22.48    1.08
   2   5   2   22.01    1.11
   2   5   2   22.54    1.04
   2   5   2   23.77    1.16
  -2   5  -2   22.05    1.03
  -2   5  -2   21.38    1.03
  -2   5  -2   23.14    1.16
  -3  -5  -2    4.14    0.45
  -3  -5  -2    4.20    0.52
  -3  -5  -2    3.50    0.41
   3  -5   2    3.81    0.36
   3  -5   2    3.71    0.50
   3  -5   2    3.60    0.34
   3  -5   2    3.34    0.38
   3  -5   2    4.92    0.53
  -3   5  -2    3.75    0.53
   3   5   2    3.51    0.41
  -3   5  -2    4.19    0.45
   3   5   2    3.56    0.37
  -3   5  -2    3.75    0.42
  -3   5  -2    3.61    0.35
   3   5   2    3.77    0.50
  -3   5  -2    4.47    0.53
  -3   5  -2    3.99    0.52
  -4  -5  -2    1.16    0.38
  -4  -5  -2    1.25    0.38
   4  -5   2    1.22    0.34
   4  -5   2    0.92    0.28
   4  -5   2    1.21    0.43
  -4  -5  -2    1.22    0.35
  -4   5  -2    1.07    0.39
   4   5   2    1.08    0.25
  -4   5  -2    1.09    0.38
   4   5   2    1.19    0.40
   4   5   2    1.45    0.40
  -4   5  -2    0.84    0.40
  -4   5  -2    0.92    0.31
   4   5   2    0.98    0.31
   5  -5   2    4.74    0.47
  -5  -5  -2    4.53    0.54
  -5  -5  -2    4.43    0.61
   5  -5   2    3.86    0.59
  -5  -5  -2    4.71    0.54
   5  -5   2    4.65    0.43
   5   5   2    3.37    0.62
  -5   5  -2    4.23    0.65
  -5   5  -2    5.00    0.61
  -5   5  -2    4.22    0.64
  -5   5  -2    4.41    0.49
   5   5   2    3.85    0.56
   5   5   2    4.09    0.47
  -6  -5  -2    3.50    0.57
   6  -5   2    4.88    0.64
  -6  -5  -2    3.00    0.58
   6  -5   2    3.58    0.44
  -6  -5  -2    4.08    0.55
   6  -5   2    3.78    0.48
   6   5   2    3.46    0.59
   6   5   2    3.60    0.53
  -6   5  -2    4.12    0.69
  -6   5  -2    3.86    0.61
  -6   5  -2    4.63    0.57
   6   5   2    3.68    0.47
  -7  -5  -2    4.00    0.63
   7  -5   2    2.57    0.44
   7  -5   2    3.35    0.50
  -7  -5  -2    3.42    0.59
  -7   5  -2    3.12    0.66
   7   5   2    3.21    0.48
   7   5   2    3.09    0.55
   7   5   2    4.41    0.73
  -8  -5  -2    1.06    0.63
   8  -5   2    0.79    0.42
  -8  -5  -2    0.94    0.60
   8  -5   2    1.12    0.44
   8   5   2    1.45    0.40
  -8   5  -2    2.62    0.67
  -8   5  -2    1.32    0.63
   8   5   2    1.38    0.58
   8   5   2    1.30    0.48
   9  -5   2   -0.33    0.39
  -9  -5  -2   -0.78    0.58
  -9  -5  -2    1.20    0.59
   9  -5   2   -0.28    0.41
  -9   5  -2   -0.33    0.65
   9   5   2    0.77    0.40
   9   5   2   -0.61    0.56
  -9   5  -2    1.07    0.67
   9   5   2    0.45    0.44
   8  -6  -2    0.78    0.44
   8  -6  -2    2.03    0.50
  -8  -6   2    0.82    0.74
  -8  -6   2    1.84    0.66
   8   6  -2    1.54    0.61
   8   6  -2    1.34    0.51
  -8   6   2    1.25    0.58
  -8   6   2    2.32    0.59
  -8   6   2    2.96    0.83
  -7  -6   2    1.62    0.65
   7  -6  -2    1.40    0.44
  -7  -6   2    2.75    0.66
   7  -6  -2    2.81    0.51
   7  -6  -2    2.14    0.45
   7   6  -2    1.72    0.59
  -7   6   2    1.40    0.54
  -7   6   2    2.90    0.75
   7   6  -2    2.80    0.58
  -7   6   2    3.83    0.70
  -6  -6   2   -0.29    0.50
  -6  -6   2    0.43    0.51
   6  -6  -2    0.29    0.35
   6  -6  -2    0.18    0.34
  -6   6   2    0.78    0.39
  -6   6   2    0.00    0.41
   6   6  -2   -0.03    0.41
  -6   6   2    0.66    0.63
   6   6  -2    0.19    0.46
   6   6  -2   -0.48    0.49
   5  -6  -2    1.43    0.41
   5  -6  -2    0.57    0.39
  -5  -6   2    1.62    0.55
  -5  -6   2    1.24    0.51
   5  -6  -2    0.95    0.36
  -5   6   2    1.36    0.40
   5   6  -2    0.75    0.41
  -5   6   2    1.54    0.61
   5   6  -2    1.33    0.41
   5   6  -2    0.82    0.54
  -5   6   2    0.90    0.47
   4  -6  -2    0.33    0.30
  -4  -6   2    0.31    0.41
  -4  -6   2   -0.25    0.30
   4  -6  -2    0.21    0.38
  -4  -6   2    0.36    0.43
   4   6  -2    0.24    0.38
  -4   6   2    0.23    0.37
   4   6  -2    0.38    0.32
  -4   6   2    0.60    0.32
   4   6  -2    0.14    0.41
   4   6  -2    0.38    0.23
  -4   6   2    0.89    0.31
  -4   6   2    0.52    0.51
  -4   6   2   -0.04    0.35
  -3  -6   2    4.27    0.54
   3  -6  -2    5.15    0.45
  -3  -6   2    3.51    0.51
   3  -6  -2    5.59    0.52
  -3  -6   2    5.79    0.63
  -3  -6   2    4.85    0.49
   3  -6  -2    4.85    0.46
   3   6  -2    4.05    0.57
   3   6  -2    4.30    0.39
  -3   6   2    4.85    0.65
   3   6  -2    4.69    0.61
  -3   6   2    5.24    0.48
  -3   6   2    5.21    0.48
  -3   6   2    4.25    0.52
   3   6  -2    4.77    0.49
  -3   6   2    4.06    0.50
   2  -6  -2    0.67    0.28
  -2  -6   2    0.39    0.27
   2  -6  -2    0.55    0.28
   2  -6  -2    0.66    0.33
  -2  -6   2    0.33    0.30
  -2  -6   2    0.54    0.39
  -2  -6   2    0.23    0.38
  -2   6   2    0.63    0.26
  -2   6   2    0.46    0.24
   2   6  -2    0.64    0.24
   2   6  -2    0.37    0.33
  -2   6   2    0.44    0.32
  -2   6   2    0.81    0.34
   2   6  -2    0.61    0.32
   2   6  -2    0.89    0.42
   2   6  -2    0.70    0.41
  -2   6   2    0.79    0.39
  -1  -6   2    0.46    0.31
  -1  -6   2    0.55    0.32
   1  -6  -2    0.79    0.32
  -1  -6   2    0.50    0.21
   1  -6  -2    1.16    0.33
   1  -6  -2    0.53    0.25
  -1   6   2    0.70    0.34
  -1   6   2    0.39    0.32
   1   6  -2    0.22    0.32
   1   6  -2    0.26    0.31
   1   6  -2    0.32    0.31
  -1   6   2    0.15    0.32
   1   6  -2    0.71    0.29
  -1   6   2    0.71    0.39
   1   6  -2    0.18    0.29
   1   6  -2    0.02    0.23
   1   6  -2   -0.02    0.27
   1   6  -2    0.27    0.23
   0  -6   2    1.50    0.36
   0  -6   2    1.47    0.28
   0  -6   2    1.45    0.34
   0  -6   2    1.50    0.28
   0  -6  -2    1.52    0.33
   0  -6   2    1.87    0.37
   0  -6  -2    1.47    0.37
   0  -6  -2    1.75    0.39
   0  -6   2    1.73    0.37
   0   6  -2    1.57    0.36
   0   6  -2    1.85    0.34
   0   6  -2    1.69    0.31
   0   6  -2    1.51    0.37
   0   6  -2    1.76    0.39
   0   6   2    1.38    0.40
   0   6  -2    1.61    0.38
   0   6   2    1.36    0.33
   0   6   2    1.43    0.39
   0   6  -2    1.41    0.34
   0   6   2    1.96    0.38
   0   6  -2    1.44    0.33
   1  -6   2   12.27    0.77
  -1  -6  -2   11.49    0.75
   1  -6   2   11.98    0.78
   1  -6   2   13.05    0.67
  -1  -6  -2   11.82    0.75
   1  -6   2   12.27    0.68
  -1  -6  -2   13.60    0.74
   1  -6   2   12.28    0.66
  -1   6  -2   12.35    0.80
  -1   6  -2   11.93    0.71
  -1   6  -2   12.21    0.74
  -1   6  -2   12.61    0.79
  -1   6  -2   11.77    0.73
  -1   6  -2   11.75    0.74
  -1   6  -2   12.64    0.73
   1   6   2   11.98    0.70
  -1   6  -2   12.20    0.69
   1   6   2   12.34    0.82
   1   6   2   11.14    0.72
  -1   6  -2   12.28    0.83
   1   6   2   13.15    0.83
   2  -6   2    0.55    0.25
   2  -6   2    0.65    0.31
   2  -6   2    0.76    0.36
   2  -6   2    0.45    0.27
  -2  -6  -2    0.53    0.36
  -2  -6  -2    0.61    0.36
   2  -6   2    0.86    0.31
  -2   6  -2    0.61    0.33
   2   6   2    0.46    0.29
   2   6   2    0.25    0.38
  -2   6  -2    0.63    0.29
  -2   6  -2    0.55    0.29
   2   6   2    1.17    0.37
  -2   6  -2    0.50    0.32
   2   6   2    0.60    0.28
  -2   6  -2    0.98    0.42
  -2   6  -2    0.92    0.33
   3  -6   2    3.48    0.39
  -3  -6  -2    3.58    0.57
   3  -6   2    2.66    0.53
  -3  -6  -2    2.94    0.46
  -3  -6  -2    3.31    0.52
   3  -6   2    3.45    0.41
  -3   6  -2    4.16    0.57
   3   6   2    3.54    0.58
   3   6   2    3.19    0.49
   3   6   2    3.82    0.58
  -3   6  -2    3.58    0.51
  -3   6  -2    3.12    0.61
  -3   6  -2    3.49    0.55
   3   6   2    3.42    0.40
  -3   6  -2    3.57    0.49
   4  -6   2    1.22    0.36
   4  -6   2    1.46    0.47
  -4  -6  -2    1.05    0.38
   4  -6   2    1.16    0.35
  -4  -6  -2    1.57    0.46
  -4  -6  -2    1.60    0.46
   4   6   2    1.46    0.36
   4   6   2    1.13    0.46
  -4   6  -2    1.34    0.51
   4   6   2    1.20    0.41
  -4   6  -2    1.58    0.45
  -4   6  -2    1.46    0.38
  -5  -6  -2    1.01    0.49
  -5  -6  -2    0.65    0.42
   5  -6   2    0.61    0.37
   5  -6   2    0.80    0.38
  -5  -6  -2    1.70    0.49
  -5   6  -2    1.16    0.55
   5   6   2    1.11    0.49
  -5   6  -2    1.47    0.48
   5   6   2    1.35    0.43
   5   6   2    0.95    0.34
  -5   6  -2    1.16    0.40
   6  -6   2    5.16    0.57
  -6  -6  -2    5.76    0.65
   6  -6   2    3.95    0.51
  -6  -6  -2    5.20    0.68
  -6  -6  -2    4.34    0.68
   6   6   2    4.65    0.54
  -6   6  -2    5.87    0.61
   6   6   2    5.18    0.70
  -6   6  -2    5.67    0.97
   6   6   2    4.44    0.72
  -6   6  -2    5.97    0.73
  -7  -6  -2    1.26    0.59
   7  -6   2    2.75    0.57
  -7  -6  -2    2.58    0.75
   7  -6   2    1.28    0.46
  -7   6  -2    2.16    0.74
   7   6   2    1.90    0.66
   7   6   2    2.06    0.46
   7   6   2    1.89    0.52
  -7   6  -2    2.64    0.65
  -8  -6  -2   -0.45    0.73
   8  -6   2    0.42    0.48
  -8  -6  -2    1.91    0.67
   8  -6   2   -0.50    0.38
   8   6   2   -0.45    0.61
   8   6   2    0.87    0.53
  -8   6  -2    0.78    0.61
   8   6   2    0.40    0.38
  -8   6  -2   -0.43    0.65
  -7  -7   2    2.31    0.76
  -7  -7   2    4.04    0.79
   7  -7  -2    2.41    0.53
   7  -7  -2    4.14    0.66
   7   7  -2    3.44    0.65
   7   7  -2    2.81    0.71
  -7   7   2    5.14    1.01
  -7   7   2    4.68    0.71
  -7   7   2    3.01    0.72
  -6  -7   2    1.93    0.72
  -6  -7   2    2.51    0.67
   6  -7  -2    1.22    0.46
   6  -7  -2    2.60    0.51
   6  -7  -2    0.20    0.51
   6   7  -2    1.70    0.51
  -6   7   2    3.29    0.88
   6   7  -2    1.57    0.62
  -6   7   2    1.06    0.54
   5  -7  -2    2.31    0.56
  -5  -7   2    3.80    0.64
   5  -7  -2    2.94    0.50
  -5  -7   2    2.75    0.64
   5  -7  -2    2.42    0.48
   5   7  -2    2.78    0.59
  -5   7   2    1.92    0.54
  -5   7   2    3.58    0.63
   5   7  -2    1.82    0.65
   5   7  -2    1.88    0.57
  -4  -7   2    0.68    0.51
   4  -7  -2   -0.37    0.44
   4  -7  -2    0.37    0.36
  -4  -7   2    0.21    0.47
   4  -7  -2    0.16    0.32
   4   7  -2    0.51    0.45
  -4   7   2   -0.02    0.42
   4   7  -2    0.19    0.41
   4   7  -2   -0.06    0.48
  -4   7   2    1.04    0.61
  -4   7   2    0.44    0.34
   3  -7  -2    1.53    0.41
   3  -7  -2    2.10    0.52
  -3  -7   2    1.50    0.46
  -3  -7   2    1.88    0.49
   3   7  -2    1.33    0.44
   3   7  -2    1.27    0.46
  -3   7   2    1.69    0.54
  -3   7   2    0.53    0.44
   3   7  -2    0.88    0.45
  -3   7   2    0.99    0.44
   2  -7  -2    0.80    0.33
  -2  -7   2    0.31    0.42
  -2  -7   2    0.59    0.44
   2  -7  -2    0.85    0.45
   2  -7  -2    0.69    0.34
  -2  -7   2    0.56    0.30
   2   7  -2    0.46    0.34
   2   7  -2    0.65    0.46
   2   7  -2    0.72    0.40
  -2   7   2    0.52    0.37
  -2   7   2    0.68    0.43
  -2   7   2    0.36    0.38
   1  -7  -2    3.37    0.50
  -1  -7   2    3.34    0.48
  -1  -7   2    3.44    0.39
   1  -7  -2    3.22    0.48
  -1  -7   2    2.72    0.47
   1  -7  -2    3.10    0.43
  -1  -7   2    3.15    0.49
  -1  -7   2    3.13    0.54
  -1   7   2    2.05    0.50
   1   7  -2    2.42    0.44
   1   7  -2    2.56    0.48
  -1   7   2    2.96    0.60
  -1   7   2    2.54    0.45
   1   7  -2    2.28    0.44
   1   7  -2    1.96    0.48
   1   7  -2    2.79    0.54
  -1   7   2    2.68    0.49
   0  -7   2    0.37    0.30
   0  -7   2   -0.07    0.22
   0  -7   2    0.39    0.39
   0  -7   2    0.14    0.24
   0  -7  -2   -0.13    0.28
   0  -7   2    0.35    0.33
   0  -7  -2    0.38    0.36
   0  -7   2    0.58    0.27
   0  -7   2    0.26    0.32
   0  -7   2    0.03    0.25
   0  -7  -2    0.07    0.38
   0   7  -2   -0.14    0.37
   0   7  -2   -0.22    0.31
   0   7  -2   -0.22    0.30
   0   7   2   -0.01    0.30
   0   7  -2   -0.14    0.28
   0   7  -2   -0.15    0.29
   0   7  -2    0.07    0.36
   0   7   2    0.10    0.33
   0   7  -2   -0.51    0.33
   0   7  -2   -0.05    0.29
   0   7   2   -0.18    0.37
   1  -7   2    0.26    0.28
   1  -7   2    0.00    0.25
   1  -7   2    0.41    0.29
   1  -7   2    0.89    0.33
   1  -7   2    0.21    0.34
  -1  -7  -2    1.15    0.37
  -1  -7  -2    0.31    0.35
  -1  -7  -2    0.62    0.44
   1   7   2    0.51    0.34
  -1   7  -2    0.17    0.37
  -1   7  -2   -0.06    0.30
  -1   7  -2    0.08    0.32
  -1   7  -2    0.17    0.31
  -1   7  -2   -0.06    0.34
   1   7   2    0.37    0.40
   1   7   2    0.21    0.33
  -1   7  -2    0.18    0.33
  -2  -7  -2    1.27    0.45
   2  -7   2    0.74    0.30
   2  -7   2    1.33    0.46
   2  -7   2    0.79    0.31
  -2  -7  -2    0.96    0.44
  -2   7  -2    0.49    0.37
  -2   7  -2    0.73    0.41
   2   7   2    0.76    0.48
  -2   7  -2    0.48    0.36
  -2   7  -2    0.44    0.47
   2   7   2    0.48    0.34
   2   7   2    0.06    0.49
   2   7   2    0.72    0.32
   3  -7   2    3.47    0.47
  -3  -7  -2    5.02    0.58
   3  -7   2    4.25    0.62
   3  -7   2    4.03    0.52
  -3  -7  -2    5.30    0.68
  -3   7  -2    3.68    0.60
  -3   7  -2    3.88    0.61
  -3   7  -2    3.48    0.71
  -3   7  -2    3.61    0.57
   3   7   2    3.66    0.67
   3   7   2    3.00    0.67
   3   7   2    3.13    0.49
   4  -7   2    3.29    0.63
  -4  -7  -2    3.54    0.68
  -4  -7  -2    3.40    0.58
   4  -7   2    3.38    0.53
   4  -7   2    2.70    0.44
   4   7   2    2.61    0.48
  -4   7  -2    2.75    0.70
  -4   7  -2    3.69    0.67
   4   7   2    2.55    0.56
  -4   7  -2    3.53    0.59
   4   7   2    2.00    0.61
  -5  -7  -2    3.83    0.69
   5  -7   2    2.50    0.51
   5  -7   2    1.23    0.41
  -5  -7  -2    2.21    0.68
  -5   7  -2    2.37    0.80
   5   7   2    2.07    0.45
   5   7   2    2.10    0.69
   5   7   2    2.02    0.56
  -5   7  -2    3.11    0.69
  -5   7  -2    2.58    0.77
   6  -7   2    1.32    0.48
  -6  -7  -2    2.31    0.67
   6  -7   2    0.52    0.45
  -6   7  -2    2.13    0.76
   6   7   2    1.84    0.54
   6   7   2    1.02    0.40
   6   7   2    0.70    0.64
  -7  -7  -2   -0.78    0.65
  -7  -7  -2    1.55    0.63
   7  -7   2    1.27    0.56
  -7   7  -2    0.73    0.59
   7   7   2    0.46    0.57
  -7   7  -2   -0.63    0.80
   7   7   2   -0.60    0.57
   7   7   2    0.26    0.39
   5  -8  -2    1.84    0.54
  -5  -8   2    1.64    0.67
  -5   8   2    2.91    0.69
   5   8  -2    2.15    0.58
   5   8  -2    1.79    0.69
   4  -8  -2    6.01    0.76
   4  -8  -2    5.38    0.60
   4  -8  -2    5.36    0.58
   4   8  -2    4.68    0.92
   4   8  -2    4.67    0.85
   4   8  -2    6.18    0.77
  -4   8   2    3.98    0.68
   3  -8  -2    1.10    0.40
  -3  -8   2    2.05    0.65
   3  -8  -2    0.65    0.53
  -3  -8   2    0.96    0.53
   3   8  -2    0.61    0.48
  -3   8   2    1.44    0.71
   3   8  -2    0.35    0.49
   3   8  -2    0.46    0.59
  -3   8   2    0.14    0.44
  -3   8   2    0.83    0.54
   2  -8  -2    2.63    0.46
  -2  -8   2    2.93    0.57
   2  -8  -2    3.26    0.59
  -2  -8   2    4.27    0.67
   2   8  -2    2.33    0.62
   2   8  -2    2.33    0.62
   2   8  -2    3.12    0.61
  -2   8   2    4.31    0.81
  -2   8   2    2.50    0.56
  -1  -8   2    1.08    0.46
   1  -8  -2    1.46    0.46
   1  -8  -2    1.17    0.34
  -1  -8   2    1.81    0.48
   1   8  -2    0.66    0.43
  -1   8   2    0.75    0.45
   1   8  -2    0.59    0.42
  -1   8   2   -0.28    0.54
  -1   8   2    0.27    0.42
   1   8  -2    0.62    0.43
   1   8  -2   -0.18    0.46
   0  -8  -2    2.95    0.52
   0  -8   2    3.12    0.62
   0  -8  -2    2.73    0.57
   0  -8   2    2.67    0.53
   0  -8   2    3.56    0.53
   0  -8   2    2.99    0.59
   0   8  -2    1.85    0.52
   0   8   2    1.58    0.48
   0   8   2    1.55    0.48
   1  -8   2    3.41    0.53
   1  -8   2    3.09    0.44
  -1  -8  -2    3.28    0.64
   1   8   2    2.01    0.61
  -1   8  -2    2.68    0.56
  -1   8  -2    1.95    0.76
   1   8   2    2.02    0.52
  -1   8  -2    1.85    0.50
   1   8   2    2.88    0.50
  -2  -8  -2    3.55    0.66
  -2  -8  -2    3.57    0.62
   2  -8   2    2.71    0.43
   2   8   2    2.11    0.49
   2   8   2    1.93    0.57
  -2   8  -2    2.17    0.55
  -2   8  -2    1.53    0.49
  -2   8  -2    2.00    0.65
  -3  -8  -2    7.56    0.79
   3  -8   2    8.58    0.77
  -3  -8  -2    7.01    0.81
   3  -8   2    7.65    0.67
   3   8   2    5.82    0.65
  -3   8  -2    6.12    0.87
   3   8   2    6.27    0.84
  -3   8  -2    6.98    0.82
  -4  -8  -2   10.40    0.92
   4  -8   2    8.33    0.71
  -4  -8  -2    9.40    0.84
   4   8   2    9.58    0.96
  -4   8  -2   10.55    0.90
   4   8   2    7.95    0.74
   4   8   2    8.83    0.98
  -4   8  -2   11.99    1.18
   5  -8   2    3.88    0.59
  -5  -8  -2    5.51    0.84
   5   8   2    2.90    0.71
   5   8   2    3.56    0.66
  -5   8  -2    4.33    0.77
  -2  -9   2    1.17    0.54
   2  -9  -2    0.87    0.41
   2  -9  -2    0.81    0.59
   2  -9  -2    1.17    0.37
  -2   9   2    0.30    0.50
  -2   9   2   -0.24    0.46
   1  -9  -2    1.93    0.62
   1  -9  -2    1.38    0.38
  -1  -9   2    0.93    0.72
  -1   9   2    0.09    0.48
   0  -9  -2    0.91    0.54
   0   9   2   -0.32    0.43
   0   9   2    0.42    0.44
  -1  -9  -2    1.05    0.58
   1   9   2    0.19    0.55
   2  -9   2    1.45    0.53
  -2  -9  -2    0.58    0.53
  -2   9  -2   -0.02    0.78
   2   9   2    0.03    0.47
   2   9   2   -0.49    0.52
  11   0  -3    0.85    0.37
  11   0  -3    0.02    0.27
 -11   0   3   -0.78    0.47
 -10   0   3    1.20    0.43
  10   0  -3    1.07    0.35
 -10   0   3    0.29    0.42
  -9   0   3    0.70    0.37
  -9   0   3   -0.03    0.36
   9   0  -3    0.23    0.25
   9   0  -3    0.69    0.30
  -8   0   3   -0.10    0.36
   8   0  -3    0.38    0.26
  -8   0   3    0.56    0.37
  -8   0   3    0.45    0.30
   8   0  -3    0.26    0.21
  -8   0   3    1.07    0.37
   8   0  -3    0.55    0.24
  -7   0   3   25.79    1.22
  -7   0   3   27.20    1.29
   7   0  -3   25.94    1.20
   7   0  -3   26.21    1.21
  -7   0   3   27.41    1.21
  -7   0   3   26.30    1.25
  -7   0   3   26.66    1.24
   7   0  -3   27.93    1.16
  -6   0   3    0.67    0.26
  -6   0   3    0.79    0.26
  -6   0   3    0.58    0.28
  -6   0   3    0.58    0.27
   6   0  -3    0.57    0.17
  -6   0   3    0.70    0.20
   6   0  -3    0.63    0.22
   6   0  -3    0.46    0.20
   6   0  -3    0.88    0.14
   5   0  -3    5.98    0.33
   5   0  -3    5.72    0.34
  -5   0   3    5.93    0.40
   5   0  -3    5.62    0.35
  -5   0   3    5.57    0.35
  -5   0   3    5.63    0.41
  -5   0   3    5.63    0.32
   5   0  -3    5.54    0.30
   5   0  -3    5.71    0.36
  -5   0   3    5.90    0.43
  -5   0   3    5.78    0.40
  -4   0   3   30.00    1.26
   4   0  -3   31.52    1.23
   4   0  -3   30.99    1.26
  -4   0   3   31.58    1.31
  -4   0   3   29.83    1.23
   4   0  -3   31.70    1.27
   4   0  -3   30.79    1.28
  -4   0   3   30.49    1.29
  -4   0   3   29.04    1.28
   3   0  -3  344.40   13.10
  -3   0   3  330.67   13.09
   3   0  -3  353.41   13.28
  -3   0   3  335.95   13.12
  -3   0   3  332.12   13.19
  -3   0   3  330.78   13.07
   3   0  -3  343.73   13.20
  -3   0   3  341.68   13.20
   3   0  -3  335.38   13.26
   2   0  -3  167.83    6.63
  -2   0   3  166.55    6.55
   2   0  -3  176.68    6.74
   2   0  -3  173.22    6.69
  -2   0   3  173.25    6.57
  -2   0   3  174.82    6.59
   2   0  -3  169.12    7.32
   2   0  -3  172.43    6.58
  -2   0   3  161.33    6.56
   2   0  -3  169.76    6.69
  -2   0   3  178.21    6.59
   1   0  -3  154.02    5.89
   1   0  -3  156.70    5.93
  -1   0   3  148.28    5.78
  -1   0   3  152.81    5.80
  -1   0   3  146.33    5.79
  -1   0   3  152.57    5.80
   1   0  -3  158.31    5.88
   1   0  -3  144.11    5.79
   1   0  -3  146.29    5.86
  -1   0   3  148.06    5.83
   0   0  -3   15.79    0.65
   0   0  -3   15.58    0.68
   0   0   3   16.76    0.66
   0   0  -3   16.07    0.68
   0   0  -3   16.32    0.69
   0   0   3   16.14    0.68
   0   0   3   15.76    0.67
   0   0   3   16.18    0.70
   0   0   3   16.98    0.68
   0   0  -3   16.17    0.69
   1   0   3  121.94    4.64
  -1   0  -3  121.76    4.65
  -1   0  -3  120.40    4.65
  -1   0  -3  115.18    4.67
   1   0   3  121.47    4.63
   1   0   3  125.82    4.68
  -1   0  -3  113.00    4.67
   1   0   3  119.39    4.65
  -1   0  -3  119.60    4.65
   1   0   3  124.18    4.66
   1   0   3  119.54    4.65
   1   0   3  126.58    4.65
  -2   0  -3  584.69   22.62
  -2   0  -3  572.89   22.50
   2   0   3  569.32   22.45
  -2   0  -3  585.91   22.46
  -2   0  -3  593.35   22.54
   2   0   3  562.70   22.42
   2   0   3  558.99   22.34
  -2   0  -3  581.77   22.58
   2   0   3  589.81   22.40
   2   0   3  595.99   22.56
   2   0   3  605.90   22.46
  -3   0  -3   72.37    2.83
  -3   0  -3   69.41    2.82
   3   0   3   72.57    2.81
   3   0   3   76.34    2.81
   3   0   3   67.91    2.78
   3   0   3   69.00    2.81
  -3   0  -3   73.10    2.82
  -3   0  -3   72.37    2.79
  -3   0  -3   71.57    2.81
   4   0   3   16.73    0.74
  -4   0  -3   16.08    0.75
  -4   0  -3   14.89    0.75
   4   0   3   16.43    0.71
   4   0   3   17.24    0.74
  -4   0  -3   16.24    0.76
   4   0   3   16.79    0.73
  -4   0  -3   14.97    0.69
  -4   0  -3   15.79    0.74
  -5   0  -3    1.48    0.28
   5   0   3    1.46    0.25
   5   0   3    1.35    0.24
   5   0   3    1.41    0.25
  -5   0  -3    1.61    0.31
   5   0   3    1.49    0.26
  -5   0  -3    1.74    0.30
  -5   0  -3    1.31    0.23
  -5   0  -3    1.40    0.21
   6   0   3   62.55    2.62
   6   0   3   70.23    2.64
   6   0   3   64.63    2.63
  -6   0  -3   66.25    2.63
   6   0   3   65.46    2.64
  -6   0  -3   66.73    2.69
  -6   0  -3   64.27    2.68
  -6   0  -3   63.77    2.65
  -7   0  -3   20.19    1.02
   7   0   3   19.85    0.97
  -7   0  -3   21.10    1.06
   7   0   3   20.66    0.96
  -7   0  -3   21.29    1.01
   7   0   3   20.70    0.99
  -7   0  -3   20.74    1.06
  -8   0  -3   18.55    1.01
   8   0   3   18.27    0.92
  -8   0  -3   17.58    0.95
   8   0   3   18.14    0.94
  -8   0  -3   18.75    0.99
  -8   0  -3   19.46    1.02
  -9   0  -3    1.04    0.38
   9   0   3   -0.02    0.31
  -9   0  -3   -0.51    0.38
  -9   0  -3    0.89    0.44
   9   0   3    0.77    0.32
 -10   0  -3    0.25    0.46
  10   0   3    0.13    0.33
  11   0   3    4.37    0.62
 -11   0  -3    5.68    0.80
  11  -1  -3    4.01    0.56
 -11  -1   3    4.02    0.61
  11   1  -3    3.65    0.59
 -11   1   3    4.02    0.74
 -10  -1   3    1.96    0.46
 -10  -1   3    1.01    0.49
  10  -1  -3    0.95    0.32
 -10   1   3    2.00    0.49
 -10   1   3    1.33    0.48
  10   1  -3    1.23    0.31
  -9  -1   3    1.74    0.41
   9  -1  -3    0.96    0.30
   9  -1  -3    1.64    0.36
  -9  -1   3    0.95    0.43
   9   1  -3    1.90    0.51
   9   1  -3    1.70    0.38
   9   1  -3    1.19    0.30
  -9   1   3    1.21    0.39
  -9   1   3    1.37    0.41
  -9   1   3    1.85    0.43
  -8  -1   3   10.35    0.70
  -8  -1   3    9.55    0.62
  -8  -1   3   10.24    0.68
   8  -1  -3   10.93    0.62
   8  -1  -3   10.47    0.63
   8  -1  -3   10.72    0.59
  -8  -1   3   11.41    0.74
   8   1  -3   10.66    0.68
  -8   1   3   12.14    0.78
  -8   1   3   10.43    0.75
   8   1  -3   10.33    0.58
  -8   1   3   10.15    0.65
  -8   1   3   11.08    0.73
   8   1  -3    9.99    0.69
  -7  -1   3    0.77    0.26
  -7  -1   3    0.38    0.30
  -7  -1   3    0.37    0.28
   7  -1  -3    0.51    0.21
   7  -1  -3    0.68    0.21
   7  -1  -3    0.61    0.24
  -7  -1   3    0.45    0.33
  -7  -1   3    0.51    0.31
   7  -1  -3    0.64    0.19
  -7   1   3    0.42    0.30
  -7   1   3    0.53    0.30
   7   1  -3    0.41    0.20
   7   1  -3    0.27    0.27
  -7   1   3    0.47    0.31
  -7   1   3    0.82    0.33
   7   1  -3    0.44    0.26
  -7   1   3    0.47    0.25
  -6  -1   3    0.81    0.30
   6  -1  -3    0.96    0.20
  -6  -1   3    0.58    0.28
  -6  -1   3    0.83    0.26
  -6  -1   3    0.74    0.24
   6  -1  -3    1.04    0.20
  -6  -1   3    0.57    0.30
   6  -1  -3    0.97    0.22
   6  -1  -3    0.78    0.24
  -6   1   3    1.37    0.34
  -6   1   3    0.81    0.28
  -6   1   3    1.06    0.27
   6   1  -3    0.94    0.24
   6   1  -3    0.86    0.25
  -6   1   3    0.82    0.31
   6   1  -3    1.11    0.21
  -6   1   3    1.12    0.23
   6   1  -3    0.86    0.26
  -5  -1   3   14.92    0.71
  -5  -1   3   14.61    0.73
  -5  -1   3   15.63    0.74
  -5  -1   3   15.34    0.78
   5  -1  -3   15.33    0.68
  -5  -1   3   14.85    0.72
   5  -1  -3   16.49    0.72
   5  -1  -3   15.08    0.69
  -5   1   3   15.23    0.74
  -5   1   3   14.35    0.75
  -5   1   3   15.02    0.75
   5   1  -3   14.00    0.73
  -5   1   3   14.82    0.63
   5   1  -3   14.91    0.72
  -5   1   3   15.15    0.69
   5   1  -3   15.09    0.61
   5   1  -3   15.08    0.72
   5   1  -3   15.92    0.66
  -5   1   3   14.24    0.69
   4  -1  -3   23.47    0.95
  -4  -1   3   24.45    1.05
  -4  -1   3   23.16    1.00
   4  -1  -3   24.99    1.00
   4  -1  -3   23.75    0.98
  -4  -1   3   23.37    1.03
  -4  -1   3   24.47    1.03
   4  -1  -3   24.12    0.99
   4   1  -3   23.01    1.01
   4   1  -3   23.90    1.03
   4   1  -3   22.65    0.92
  -4   1   3   23.72    0.99
   4   1  -3   24.30    0.96
  -4   1   3   23.05    1.02
  -4   1   3   21.83    1.04
  -4   1   3   22.96    0.98
  -4   1   3   23.13    1.03
   4   1  -3   22.05    1.02
  -3  -1   3   64.87    2.53
  -3  -1   3   64.07    2.45
   3  -1  -3   66.04    2.51
  -3  -1   3   69.07    2.55
  -3  -1   3   61.64    2.53
   3  -1  -3   61.57    2.49
   3  -1  -3   66.22    2.51
   3  -1  -3   65.64    2.48
  -3  -1   3   65.19    2.52
  -3   1   3   62.40    2.52
  -3   1   3   63.14    2.48
  -3   1   3   60.36    2.54
  -3   1   3   62.40    2.53
  -3   1   3   62.10    2.51
   3   1  -3   60.51    2.53
   3   1  -3   65.29    2.52
   3   1  -3   61.49    2.53
   3   1  -3   67.15    2.47
   2  -1  -3  113.03    4.22
  -2  -1   3  108.24    4.25
  -2  -1   3  112.28    4.23
   2  -1  -3  114.93    4.23
   2  -1  -3  109.57    4.24
  -2  -1   3  108.63    4.23
   2  -1  -3  101.75    4.20
  -2  -1   3  104.75    4.24
   2  -1  -3  110.87    4.22
  -2  -1   3  110.72    4.22
  -2   1   3  106.00    4.18
   2   1  -3  109.63    4.21
   2   1  -3  108.45    4.25
  -2   1   3  106.43    4.22
  -2   1   3  104.12    4.25
   2   1  -3  111.31    4.25
  -2   1   3  112.10    4.22
  -2   1   3  108.85    4.22
   2   1  -3  109.97    4.24
   2   1  -3  115.39    4.18
  -2   1   3  107.82    4.23
  -1  -1   3    9.35    0.44
   1  -1  -3    8.24    0.41
  -1  -1   3   10.29    0.46
   1  -1  -3    8.84    0.40
   1  -1  -3    9.05    0.43
   1  -1  -3    8.72    0.42
  -1  -1   3    9.52    0.39
   1  -1  -3    8.34    0.37
   1   1  -3    8.10    0.42
  -1   1   3    8.30    0.41
  -1   1   3    8.71    0.45
   1   1  -3    8.43    0.44
   1   1  -3    8.12    0.42
  -1   1   3    8.77    0.40
   1   1  -3    9.54    0.47
  -1   1   3    9.01    0.42
   1   1  -3    8.77    0.39
  -1   1   3    8.34    0.42
  -1   1   3    8.40    0.37
   0  -1  -3   -0.03    0.08
   0  -1   3   -0.25    0.14
   0  -1  -3   -0.05    0.10
   0  -1  -3    0.17    0.13
   0  -1   3    0.09    0.13
   0  -1  -3    0.00    0.09
   0  -1   3    0.01    0.08
   0  -1   3    0.07    0.05
   0  -1  -3    0.19    0.14
   0  -1   3   -0.02    0.15
   0  -1   3    0.22    0.11
   0   1  -3   -0.11    0.10
   0   1   3    0.09    0.10
   0   1   3    0.03    0.16
   0   1   3    0.05    0.09
   0   1   3   -0.07    0.13
   0   1   3    0.10    0.12
   0   1  -3    0.01    0.14
   0   1  -3   -0.03    0.15
   0   1  -3    0.04    0.13
   0   1  -3   -0.15    0.12
   0   1   3   -0.13    0.12
   0   1  -3   -0.02    0.06
   1  -1   3   88.10    3.12
  -1  -1  -3   82.20    3.16
  -1  -1  -3   81.47    3.14
   1  -1   3   86.22    3.14
   1  -1   3   80.40    3.18
  -1  -1  -3   83.70    3.15
  -1  -1  -3   72.78    3.14
  -1   1  -3   77.65    3.17
  -1   1  -3   81.85    3.19
  -1   1  -3   77.96    3.15
   1   1   3   79.40    3.12
   1   1   3   81.16    3.15
   1   1   3   80.21    3.15
   1   1   3   78.66    3.11
  -1   1  -3   82.83    3.18
   1   1   3   79.70    3.16
   1   1   3   81.39    3.16
   1   1   3   83.43    3.13
  -1   1  -3   82.78    3.14
  -2  -1  -3   57.93    2.24
  -2  -1  -3   56.50    2.27
   2  -1   3   60.07    2.27
  -2  -1  -3   57.68    2.27
   2  -1   3   57.10    2.31
   2  -1   3   56.13    2.29
  -2  -1  -3   59.05    2.28
  -2  -1  -3   56.75    2.24
   2  -1   3   59.48    2.31
   2  -1   3   62.33    2.25
  -2   1  -3   58.34    2.30
   2   1   3   54.07    2.23
   2   1   3   58.41    2.26
  -2   1  -3   53.94    2.27
  -2   1  -3   59.91    2.24
   2   1   3   58.91    2.24
   2   1   3   59.69    2.28
   2   1   3   56.41    2.28
  -2   1  -3   54.37    2.29
  -2   1  -3   55.79    2.31
   3  -1   3  111.25    4.23
  -3  -1  -3  114.33    4.30
   3  -1   3  114.37    4.29
   3  -1   3  117.27    4.27
  -3  -1  -3  113.19    4.27
  -3  -1  -3  110.86    4.29
   3  -1   3  106.86    4.31
  -3  -1  -3  113.38    4.26
  -3  -1  -3  107.21    4.29
  -3   1  -3  116.47    4.33
   3   1   3  109.76    4.30
  -3   1  -3  108.15    4.32
  -3   1  -3  106.17    4.28
   3   1   3  111.09    4.26
   3   1   3  104.27    4.25
   3   1   3  113.74    4.29
  -3   1  -3  107.33    4.31
   3   1   3  105.60    4.29
  -3   1  -3  112.42    4.26
  -3   1  -3  105.99    4.33
   4  -1   3   42.19    1.83
   4  -1   3   47.21    1.81
   4  -1   3   47.52    1.80
  -4  -1  -3   45.17    1.80
  -4  -1  -3   45.25    1.82
  -4  -1  -3   45.11    1.83
   4  -1   3   45.68    1.76
  -4  -1  -3   43.01    1.80
  -4  -1  -3   45.69    1.79
  -4   1  -3   44.06    1.86
   4   1   3   42.58    1.81
  -4   1  -3   44.38    1.80
   4   1   3   45.94    1.82
  -4   1  -3   41.75    1.84
   4   1   3   44.45    1.78
  -4   1  -3   43.86    1.84
  -4   1  -3   43.92    1.84
  -4   1  -3   43.91    1.74
   4   1   3   46.73    1.81
   5  -1   3    8.12    0.48
  -5  -1  -3    8.43    0.49
  -5  -1  -3    8.00    0.48
  -5  -1  -3    8.10    0.50
   5  -1   3    7.31    0.49
   5  -1   3    7.30    0.44
   5  -1   3    7.94    0.41
  -5  -1  -3    7.04    0.44
  -5  -1  -3    7.82    0.45
   5   1   3    7.62    0.41
   5   1   3    7.49    0.47
  -5   1  -3    7.69    0.52
  -5   1  -3    8.35    0.56
  -5   1  -3    7.33    0.49
   5   1   3    7.88    0.45
  -5   1  -3    8.26    0.53
  -5   1  -3    7.72    0.46
   5   1   3    7.74    0.48
  -6  -1  -3    0.79    0.31
  -6  -1  -3    0.79    0.32
  -6  -1  -3    0.83    0.25
  -6  -1  -3    0.65    0.21
   6  -1   3    0.79    0.27
   6  -1   3    0.74    0.28
   6  -1   3    0.69    0.25
  -6   1  -3    0.71    0.27
   6   1   3    0.23    0.22
   6   1   3    0.45    0.25
  -6   1  -3    0.83    0.30
  -6   1  -3    0.46    0.30
   6   1   3    0.59    0.24
  -6   1  -3    0.60    0.26
  -6   1  -3    0.47    0.27
   7  -1   3   36.97    1.57
  -7  -1  -3   38.62    1.63
  -7  -1  -3   37.06    1.59
  -7  -1  -3   37.90    1.66
  -7  -1  -3   37.65    1.60
   7  -1   3   36.13    1.61
   7  -1   3   37.26    1.58
  -7   1  -3   37.25    1.57
   7   1   3   34.89    1.60
  -7   1  -3   35.97    1.68
  -7   1  -3   38.03    1.66
   7   1   3   35.64    1.60
   7   1   3   38.50    1.57
  -7   1  -3   35.80    1.65
  -7   1  -3   33.87    1.62
   8  -1   3    5.04    0.46
   8  -1   3    4.74    0.44
  -8  -1  -3    5.30    0.63
  -8  -1  -3    4.29    0.58
  -8   1  -3    6.31    0.63
  -8   1  -3    3.91    0.52
   8   1   3    4.63    0.47
  -8   1  -3    5.41    0.63
   8   1   3    5.38    0.50
  -8   1  -3    4.75    0.46
   8   1   3    5.27    0.53
  -8   1  -3    5.57    0.61
   9  -1   3    0.75    0.31
   9  -1   3    0.26    0.30
  -9  -1  -3    0.96    0.46
   9   1   3    0.60    0.33
  -9   1  -3    0.83    0.44
   9   1   3    0.09    0.33
  -9   1  -3    1.35    0.42
  10  -1   3    0.66    0.35
 -10  -1  -3    0.80    0.50
 -10   1  -3    1.30    0.49
 -10   1  -3    1.21    0.43
  10   1   3    1.02    0.38
 -11  -2   3    0.04    0.55
  11  -2  -3    0.77    0.37
 -11   2   3    2.45    0.63
  11   2  -3    1.15    0.33
  11   2  -3    1.54    0.45
 -10  -2   3   -0.70    0.46
  10  -2  -3    0.85    0.33
 -10  -2   3    0.87    0.42
  10  -2  -3   -0.18    0.29
 -10   2   3    0.94    0.51
 -10   2   3    0.65    0.51
  10   2  -3    0.18    0.25
  10   2  -3    0.69    0.39
 -10   2   3    0.14    0.33
   9  -2  -3    0.45    0.29
  -9  -2   3    0.38    0.35
  -9  -2   3   -0.13    0.37
   9  -2  -3   -0.31    0.23
  -9  -2   3   -0.55    0.40
   9  -2  -3   -0.03    0.30
  -9   2   3   -0.09    0.30
   9   2  -3    0.30    0.30
  -9   2   3    0.23    0.40
  -9   2   3    0.54    0.40
   9   2  -3    0.19    0.24
   9   2  -3    0.08    0.32
   8  -2  -3    0.92    0.28
  -8  -2   3    0.69    0.35
   8  -2  -3    0.78    0.23
  -8  -2   3    1.52    0.39
  -8  -2   3    0.94    0.38
   8  -2  -3    0.59    0.26
  -8  -2   3    0.47    0.40
   8   2  -3    1.36    0.37
  -8   2   3    0.70    0.27
  -8   2   3    0.70    0.36
   8   2  -3    0.86    0.24
  -8   2   3    1.31    0.47
  -8   2   3    0.67    0.29
   8   2  -3    1.07    0.32
   7  -2  -3    0.21    0.19
  -7  -2   3    0.35    0.30
  -7  -2   3    0.39    0.33
   7  -2  -3    0.22    0.23
  -7  -2   3    0.40    0.31
   7  -2  -3    0.31    0.22
  -7  -2   3    0.18    0.35
  -7   2   3    0.27    0.31
   7   2  -3    0.30    0.29
   7   2  -3    0.20    0.21
  -7   2   3    0.21    0.25
  -7   2   3    0.08    0.26
   7   2  -3    0.17    0.28
  -7   2   3    0.41    0.30
  -7   2   3    0.42    0.35
   7   2  -3    0.20    0.30
  -6  -2   3   42.28    1.67
   6  -2  -3   40.94    1.61
  -6  -2   3   40.44    1.72
   6  -2  -3   38.32    1.63
  -6  -2   3   38.63    1.70
  -6  -2   3   40.54    1.69
  -6  -2   3   38.55    1.68
   6  -2  -3   41.48    1.64
   6  -2  -3   42.45    1.66
   6   2  -3   39.01    1.61
  -6   2   3   38.55    1.62
  -6   2   3   38.34    1.71
   6   2  -3   37.47    1.71
  -6   2   3   37.81    1.65
   6   2  -3   38.24    1.68
   6   2  -3   37.59    1.70
  -6   2   3   37.92    1.73
  -6   2   3   39.22    1.69
   5  -2  -3    4.13    0.33
   5  -2  -3    4.01    0.28
  -5  -2   3    4.03    0.31
   5  -2  -3    3.40    0.30
  -5  -2   3    3.20    0.35
  -5  -2   3    3.90    0.39
  -5  -2   3    3.88    0.42
  -5  -2   3    3.44    0.45
  -5   2   3    3.82    0.30
   5   2  -3    3.54    0.26
  -5   2   3    3.14    0.32
  -5   2   3    3.82    0.37
   5   2  -3    3.35    0.32
  -5   2   3    3.57    0.35
   5   2  -3    3.00    0.34
  -5   2   3    3.71    0.41
   5   2  -3    3.54    0.38
  -4  -2   3   71.28    2.69
  -4  -2   3   69.17    2.73
  -4  -2   3   67.19    2.75
   4  -2  -3   71.47    2.69
   4  -2  -3   71.90    2.71
   4  -2  -3   67.99    2.70
  -4  -2   3   69.58    2.75
   4   2  -3   69.15    2.76
  -4   2   3   66.59    2.74
  -4   2   3   65.94    2.66
  -4   2   3   68.34    2.77
   4   2  -3   65.89    2.75
   4   2  -3   67.22    2.73
   4   2  -3   68.26    2.67
  -4   2   3   65.04    2.72
  -4   2   3   69.57    2.73
   3  -2  -3    0.90    0.22
  -3  -2   3    0.71    0.25
  -3  -2   3    1.10    0.22
   3  -2  -3    0.81    0.17
  -3  -2   3    0.78    0.25
  -3  -2   3    1.01    0.24
   3  -2  -3    0.71    0.16
   3  -2  -3    0.74    0.09
   3   2  -3    0.52    0.20
  -3   2   3    0.80    0.23
  -3   2   3    0.78    0.12
  -3   2   3    0.46    0.20
  -3   2   3    0.90    0.20
  -3   2   3    0.59    0.18
   3   2  -3    0.69    0.12
  -3   2   3    0.34    0.23
   3   2  -3    0.49    0.17
   3   2  -3    0.73    0.22
   2  -2  -3   10.56    0.51
   2  -2  -3   10.83    0.52
   2  -2  -3    9.28    0.49
  -2  -2   3   11.50    0.51
  -2  -2   3    9.52    0.55
  -2  -2   3   11.12    0.57
  -2  -2   3   10.23    0.54
   2  -2  -3   10.68    0.44
   2  -2  -3   11.29    0.51
  -2   2   3    9.74    0.52
  -2   2   3    9.50    0.49
  -2   2   3    9.99    0.41
   2   2  -3   10.84    0.56
  -2   2   3    9.42    0.50
   2   2  -3    9.33    0.52
  -2   2   3   10.11    0.51
   2   2  -3   10.26    0.43
   2   2  -3    9.71    0.49
   2   2  -3    9.53    0.53
  -2   2   3    9.02    0.55
  -1  -2   3   16.56    0.72
   1  -2  -3   16.24    0.68
   1  -2  -3   14.92    0.70
  -1  -2   3   16.77    0.64
   1  -2  -3   16.93    0.71
   1  -2  -3   16.91    0.66
  -1  -2   3   16.50    0.75
  -1  -2   3   15.72    0.73
  -1   2   3   15.29    0.72
  -1   2   3   15.34    0.71
  -1   2   3   14.92    0.66
   1   2  -3   16.28    0.62
   1   2  -3   16.52    0.76
   1   2  -3   14.96    0.72
   1   2  -3   15.26    0.67
  -1   2   3   14.09    0.74
   1   2  -3   14.44    0.71
  -1   2   3   14.26    0.67
   0  -2  -3    6.89    0.42
   0  -2   3    6.91    0.46
   0  -2  -3    8.61    0.36
   0  -2   3    8.16    0.46
   0  -2   3    8.41    0.33
   0  -2  -3    7.89    0.33
   0  -2   3    8.57    0.38
   0  -2  -3    8.62    0.44
   0  -2   3    8.47    0.51
   0  -2  -3    9.00    0.41
   0   2   3    8.71    0.45
   0   2   3    7.07    0.35
   0   2  -3    7.78    0.47
   0   2  -3    7.20    0.42
   0   2  -3    7.00    0.42
   0   2   3    7.00    0.43
   0   2   3    8.18    0.44
   0   2  -3    8.86    0.46
   0   2   3    7.15    0.43
   0   2  -3    7.77    0.36
   0   2   3    7.51    0.34
   1  -2   3   -0.21    0.22
  -1  -2  -3    0.49    0.19
  -1  -2  -3    0.20    0.19
   1  -2   3    0.41    0.11
  -1  -2  -3    0.36    0.14
   1  -2   3    0.20    0.20
   1  -2   3    0.37    0.15
  -1   2  -3   -0.02    0.20
  -1   2  -3    0.23    0.06
   1   2   3    0.04    0.17
   1   2   3    0.13    0.20
  -1   2  -3   -0.14    0.18
   1   2   3   -0.04    0.20
  -1   2  -3    0.12    0.21
   1   2   3   -0.04    0.18
   2  -2   3   10.39    0.49
  -2  -2  -3   10.62    0.49
   2  -2   3    9.73    0.55
   2  -2   3   11.49    0.46
   2  -2   3    8.97    0.55
  -2  -2  -3   10.43    0.51
  -2  -2  -3    9.87    0.54
   2   2   3    9.66    0.52
  -2   2  -3    9.84    0.45
   2   2   3    9.86    0.48
   2   2   3    9.45    0.51
  -2   2  -3    9.25    0.53
  -2   2  -3    9.70    0.56
  -2   2  -3    9.47    0.54
  -2   2  -3   10.60    0.56
   2   2   3    9.95    0.51
  -2   2  -3    9.32    0.48
   3  -2   3   72.22    2.95
  -3  -2  -3   78.21    2.84
   3  -2   3   77.79    2.83
  -3  -2  -3   73.46    2.90
  -3  -2  -3   77.17    2.84
   3  -2   3   76.04    2.91
   3  -2   3   80.44    2.88
  -3  -2  -3   74.30    2.92
  -3  -2  -3   71.08    2.93
  -3   2  -3   69.32    2.94
   3   2   3   72.43    2.93
  -3   2  -3   74.95    2.85
   3   2   3   71.86    2.94
  -3   2  -3   71.70    2.95
  -3   2  -3   71.95    2.97
   3   2   3   73.24    2.83
   3   2   3   73.62    2.91
   3   2   3   73.20    2.87
  -3   2  -3   73.55    2.97
  -3   2  -3   69.42    2.90
  -4  -2  -3    2.40    0.28
  -4  -2  -3    2.39    0.20
   4  -2   3    1.96    0.26
  -4  -2  -3    2.44    0.21
   4  -2   3    2.02    0.34
  -4  -2  -3    2.59    0.31
   4  -2   3    2.30    0.23
  -4  -2  -3    1.84    0.30
   4  -2   3    2.59    0.17
   4   2   3    1.76    0.19
  -4   2  -3    2.35    0.38
  -4   2  -3    2.07    0.29
  -4   2  -3    2.07    0.22
  -4   2  -3    2.15    0.34
   4   2   3    2.34    0.29
  -4   2  -3    2.02    0.35
   4   2   3    1.85    0.21
   4   2   3    2.24    0.25
   4   2   3    2.11    0.28
   5  -2   3  160.82    6.01
  -5  -2  -3  167.13    6.04
   5  -2   3  160.10    5.99
   5  -2   3  159.89    6.07
  -5  -2  -3  152.40    6.03
  -5  -2  -3  162.83    5.97
  -5  -2  -3  155.82    5.98
  -5  -2  -3  161.12    6.03
  -5   2  -3  146.26    6.08
  -5   2  -3  153.48    6.05
   5   2   3  147.63    6.03
   5   2   3  148.75    6.04
  -5   2  -3  148.31    5.98
   5   2   3  150.52    5.99
  -5   2  -3  154.06    6.08
  -5   2  -3  145.39    6.06
  -6  -2  -3    3.59    0.43
  -6  -2  -3    3.90    0.48
  -6  -2  -3    2.77    0.38
   6  -2   3    3.55    0.51
   6  -2   3    2.77    0.35
   6  -2   3    3.16    0.34
  -6   2  -3    2.75    0.32
   6   2   3    2.81    0.38
  -6   2  -3    3.26    0.43
  -6   2  -3    3.13    0.45
   6   2   3    3.09    0.37
  -6   2  -3    3.55    0.44
  -6   2  -3    4.28    0.49
   6   2   3    3.79    0.44
   7  -2   3    1.92    0.35
  -7  -2  -3    2.33    0.47
   7  -2   3    2.44    0.44
  -7  -2  -3    1.90    0.37
   7  -2   3    1.91    0.32
  -7  -2  -3    2.18    0.43
  -7   2  -3    2.84    0.49
  -7   2  -3    1.76    0.43
  -7   2  -3    2.31    0.42
   7   2   3    1.90    0.38
   7   2   3    2.19    0.34
   7   2   3    1.96    0.36
  -7   2  -3    2.20    0.33
  -7   2  -3    2.14    0.42
  -8  -2  -3   -0.36    0.42
   8  -2   3    0.66    0.37
   8  -2   3    0.36    0.28
  -8  -2  -3    0.56    0.41
   8  -2   3    0.27    0.29
  -8   2  -3    0.46    0.37
   8   2   3    0.61    0.33
   8   2   3   -0.01    0.28
  -8   2  -3    0.61    0.37
  -8   2  -3    0.13    0.38
   8   2   3    0.55    0.34
  -9  -2  -3    0.23    0.45
   9  -2   3    0.02    0.30
   9  -2   3   -0.18    0.29
   9   2   3    0.72    0.36
   9   2   3    0.27    0.31
  -9   2  -3    0.45    0.41
  -9   2  -3   -0.29    0.46
  -9   2  -3    0.76    0.42
  10  -2   3    0.31    0.36
  10  -2   3    0.66    0.37
 -10  -2  -3    0.94    0.59
  10   2   3    1.11    0.40
 -10   2  -3    1.96    0.55
 -11  -3   3    2.13    0.68
  11   3  -3    1.00    0.44
 -11   3   3    1.58    0.58
  10  -3  -3    0.88    0.34
 -10  -3   3    0.82    0.42
  10   3  -3    0.65    0.42
 -10   3   3    0.88    0.50
  10   3  -3    0.48    0.25
  10   3  -3    0.55    0.39
 -10   3   3    0.84    0.59
   9  -3  -3   -0.24    0.27
  -9  -3   3    0.31    0.43
   9  -3  -3    0.29    0.28
  -9  -3   3    0.37    0.38
   9  -3  -3    0.31    0.28
   9   3  -3    0.45    0.38
   9   3  -3    0.38    0.34
  -9   3   3    0.81    0.44
   9   3  -3    0.26    0.24
  -9   3   3    0.27    0.52
  -8  -3   3    0.94    0.39
   8  -3  -3    0.56    0.28
  -8  -3   3    0.65    0.49
  -8  -3   3    1.12    0.40
   8  -3  -3    1.06    0.31
   8  -3  -3    1.00    0.30
  -8  -3   3    1.22    0.45
   8   3  -3    0.86    0.25
   8   3  -3    1.16    0.40
  -8   3   3    0.75    0.38
   8   3  -3    1.18    0.35
  -8   3   3    1.34    0.55
  -8   3   3    1.21    0.41
   7  -3  -3    1.47    0.31
  -7  -3   3    1.13    0.42
   7  -3  -3    1.36    0.29
  -7  -3   3    1.24    0.42
  -7  -3   3    1.02    0.35
  -7  -3   3    1.01    0.35
   7  -3  -3    1.18    0.29
   7   3  -3    1.15    0.41
   7   3  -3    1.25    0.36
  -7   3   3    1.15    0.44
  -7   3   3    1.20    0.37
  -7   3   3    2.04    0.42
  -7   3   3    1.53    0.33
  -7   3   3    1.02    0.34
   7   3  -3    1.44    0.26
   7   3  -3    1.21    0.33
   6  -3  -3    8.01    0.51
   6  -3  -3    7.01    0.49
  -6  -3   3    7.27    0.54
  -6  -3   3    7.03    0.57
  -6  -3   3    7.89    0.62
   6  -3  -3    7.44    0.49
  -6  -3   3    6.95    0.57
   6   3  -3    6.33    0.57
  -6   3   3    7.83    0.44
  -6   3   3    7.27    0.55
   6   3  -3    6.66    0.56
   6   3  -3    7.21    0.53
  -6   3   3    7.97    0.57
   6   3  -3    7.21    0.43
  -6   3   3    6.70    0.56
  -6   3   3    7.43    0.66
   5  -3  -3  123.47    4.44
  -5  -3   3  119.04    4.50
  -5  -3   3  119.85    4.53
   5  -3  -3  118.38    4.48
   5  -3  -3  115.87    4.48
  -5  -3   3  112.22    4.52
  -5  -3   3  116.86    4.53
   5   3  -3  118.48    4.56
   5   3  -3  110.72    4.44
  -5   3   3  113.65    4.51
  -5   3   3  110.79    4.57
   5   3  -3  106.30    4.54
  -5   3   3  111.72    4.50
  -5   3   3  110.53    4.52
  -5   3   3  110.28    4.42
   5   3  -3  107.90    4.51
  -4  -3   3    1.14    0.32
   4  -3  -3    1.49    0.24
  -4  -3   3    1.45    0.24
  -4  -3   3    0.90    0.29
   4  -3  -3    1.11    0.23
  -4  -3   3    1.21    0.28
   4   3  -3    1.02    0.23
  -4   3   3    1.53    0.28
  -4   3   3    0.79    0.26
   4   3  -3    0.72    0.28
  -4   3   3    1.32    0.17
  -4   3   3    1.39    0.34
   4   3  -3    1.28    0.19
  -4   3   3    1.46    0.26
  -3  -3   3    2.65    0.35
   3  -3  -3    2.84    0.29
   3  -3  -3    2.39    0.26
   3  -3  -3    2.71    0.28
  -3  -3   3    2.55    0.34
  -3  -3   3    2.75    0.27
  -3  -3   3    3.06    0.33
  -3   3   3    2.69    0.29
   3   3  -3    3.06    0.36
  -3   3   3    2.50    0.27
   3   3  -3    2.34    0.31
  -3   3   3    2.52    0.30
   3   3  -3    2.59    0.20
  -3   3   3    2.65    0.17
   3   3  -3    2.72    0.29
  -3   3   3    2.43    0.34
   3   3  -3    2.59    0.31
  -3   3   3    2.84    0.30
   2  -3  -3    0.49    0.17
   2  -3  -3    0.54    0.13
  -2  -3   3    0.55    0.21
  -2  -3   3    0.48    0.09
   2  -3  -3    0.58    0.17
   2  -3  -3    0.51    0.21
  -2  -3   3    0.54    0.22
  -2  -3   3    0.54    0.18
   2  -3  -3    0.66    0.20
  -2  -3   3    0.42    0.26
   2   3  -3    0.52    0.20
  -2   3   3    0.38    0.22
   2   3  -3    0.63    0.21
  -2   3   3    0.56    0.17
   2   3  -3    0.58    0.24
  -2   3   3    0.56    0.20
   2   3  -3    0.68    0.11
  -2   3   3    0.46    0.21
  -2   3   3    0.46    0.15
   2   3  -3    0.44    0.15
  -1  -3   3    3.71    0.35
   1  -3  -3    3.59    0.30
  -1  -3   3    3.68    0.31
  -1  -3   3    3.35    0.33
  -1  -3   3    3.98    0.23
   1  -3  -3    3.84    0.33
   1  -3  -3    3.88    0.26
   1  -3  -3    3.87    0.25
   1   3  -3    3.63    0.34
   1   3  -3    4.08    0.34
  -1   3   3    2.89    0.34
   1   3  -3    3.52    0.30
  -1   3   3    3.78    0.32
   1   3  -3    3.45    0.30
  -1   3   3    3.39    0.31
  -1   3   3    3.66    0.24
   1   3  -3    3.43    0.27
  -1   3   3    3.50    0.25
  -1   3   3    4.01    0.34
   1   3  -3    4.02    0.21
   0  -3   3    6.66    0.34
   0  -3  -3    6.59    0.42
   0  -3  -3    6.45    0.31
   0  -3   3    6.34    0.40
   0  -3  -3    5.82    0.39
   0  -3  -3    6.46    0.35
   0  -3  -3    6.38    0.28
   0  -3   3    6.58    0.30
   0  -3   3    6.31    0.47
   0  -3   3    5.95    0.42
   0   3   3    5.63    0.38
   0   3   3    6.08    0.30
   0   3  -3    5.85    0.38
   0   3   3    6.81    0.43
   0   3  -3    6.67    0.43
   0   3   3    6.01    0.39
   0   3  -3    5.71    0.37
   0   3   3    6.25    0.40
   0   3  -3    6.38    0.42
   0   3   3    6.05    0.29
   0   3  -3    6.43    0.34
  -1  -3  -3   -0.01    0.12
   1  -3   3   -0.16    0.19
   1  -3   3    0.02    0.10
  -1  -3  -3    0.04    0.20
   1  -3   3   -0.07    0.23
  -1  -3  -3    0.07    0.18
   1  -3   3   -0.03    0.15
  -1   3  -3   -0.19    0.21
   1   3   3   -0.10    0.21
   1   3   3    0.00    0.17
  -1   3  -3   -0.01    0.15
  -1   3  -3   -0.03    0.23
  -1   3  -3   -0.01    0.20
   1   3   3   -0.17    0.16
  -1   3  -3    0.03    0.13
  -1   3  -3   -0.05    0.10
  -1   3  -3   -0.20    0.16
   1   3   3   -0.09    0.14
   2  -3   3    1.04    0.13
   2  -3   3    1.18    0.27
  -2  -3  -3    1.31    0.26
   2  -3   3    1.30    0.21
   2  -3   3    1.50    0.18
  -2  -3  -3    1.38    0.24
  -2  -3  -3    1.10    0.20
   2  -3   3    1.34    0.28
  -2   3  -3    1.34    0.27
   2   3   3    1.36    0.22
  -2   3  -3    1.58    0.29
   2   3   3    1.40    0.26
  -2   3  -3    1.43    0.30
   2   3   3    1.20    0.19
  -2   3  -3    1.27    0.25
  -2   3  -3    1.22    0.17
  -2   3  -3    1.20    0.20
   2   3   3    1.41    0.24
   3  -3   3    0.58    0.17
  -3  -3  -3    0.65    0.21
  -3  -3  -3    0.72    0.24
  -3  -3  -3    0.48    0.23
   3  -3   3    0.76    0.26
   3  -3   3    0.68    0.20
   3  -3   3    0.61    0.11
  -3   3  -3    0.90    0.29
   3   3   3    0.76    0.16
  -3   3  -3    0.87    0.26
   3   3   3    0.56    0.22
  -3   3  -3    0.71    0.27
   3   3   3    0.64    0.23
  -3   3  -3    0.59    0.22
  -3   3  -3    0.74    0.14
   3   3   3    0.53    0.19
  -3   3  -3    0.61    0.18
   4  -3   3  187.51    7.04
   4  -3   3  181.95    7.10
  -4  -3  -3  187.83    7.05
  -4  -3  -3  183.06    7.02
   4  -3   3  195.78    7.01
  -4  -3  -3  175.93    7.07
  -4   3  -3  187.26    7.13
   4   3   3  174.56    7.02
   4   3   3  179.18    7.09
  -4   3  -3  178.88    7.02
  -4   3  -3  176.97    7.12
   4   3   3  178.23    7.06
   4   3   3  185.34    7.11
  -4   3  -3  179.04    7.10
  -4   3  -3  173.28    7.07
  -5  -3  -3    0.65    0.31
   5  -3   3    0.03    0.21
   5  -3   3    0.42    0.34
  -5  -3  -3    0.72    0.32
   5  -3   3    0.19    0.24
  -5  -3  -3    0.14    0.26
   5   3   3    0.38    0.26
  -5   3  -3    0.59    0.31
  -5   3  -3    0.18    0.26
   5   3   3    0.34    0.26
  -5   3  -3    0.24    0.20
  -5   3  -3    0.72    0.34
   5   3   3    0.03    0.23
  -5   3  -3    0.37    0.30
   5   3   3    0.27    0.29
   6  -3   3   22.04    0.95
   6  -3   3   20.92    1.09
  -6  -3  -3   20.05    1.03
  -6  -3  -3   20.62    1.03
  -6  -3  -3   20.86    1.02
   6  -3   3   21.35    0.98
  -6   3  -3   19.60    1.05
  -6   3  -3   20.61    1.12
   6   3   3   19.80    1.07
   6   3   3   19.91    1.05
  -6   3  -3   19.14    0.91
  -6   3  -3   20.22    1.10
  -6   3  -3   20.44    1.10
   6   3   3   19.84    0.94
   6   3   3   19.38    1.00
   7  -3   3    3.24    0.41
   7  -3   3    3.37    0.54
  -7  -3  -3    3.31    0.47
  -7  -3  -3    3.05    0.51
   7  -3   3    3.25    0.38
  -7  -3  -3    3.16    0.50
  -7   3  -3    2.61    0.54
   7   3   3    2.97    0.34
  -7   3  -3    3.78    0.76
   7   3   3    2.09    0.45
   7   3   3    2.70    0.43
   7   3   3    3.05    0.51
  -7   3  -3    3.41    0.50
  -7   3  -3    3.51    0.60
   8  -3   3    1.53    0.38
  -8  -3  -3    1.69    0.54
  -8  -3  -3    2.07    0.40
   8  -3   3    2.14    0.51
  -8  -3  -3    2.33    0.51
   8  -3   3    2.03    0.39
  -8   3  -3    2.49    0.48
   8   3   3    2.30    0.48
  -8   3  -3    1.89    0.49
  -8   3  -3    1.58    0.47
   8   3   3    2.16    0.44
   9  -3   3    2.01    0.49
   9  -3   3    1.34    0.38
  -9  -3  -3    1.48    0.58
   9  -3   3    0.90    0.39
  -9   3  -3    1.02    0.48
  -9   3  -3    2.31    0.57
   9   3   3    2.08    0.49
   9   3   3    1.74    0.41
 -10  -3  -3   -0.39    0.54
  10  -3   3   -0.04    0.34
 -10   3  -3    1.19    0.46
  10   3   3    0.30    0.41
  10   3   3    0.49    0.41
 -10   3  -3    0.83    0.50
  10  -4  -3    1.32    0.36
  10  -4  -3    0.77    0.37
  10  -4  -3    0.16    0.34
 -10  -4   3    0.58    0.59
 -10  -4   3   -0.30    0.57
 -10   4   3    1.50    0.58
  10   4  -3    0.69    0.44
 -10   4   3    0.98    0.57
  10   4  -3    0.52    0.50
   9  -4  -3    2.06    0.40
  -9  -4   3    0.62    0.61
   9  -4  -3    1.93    0.38
   9  -4  -3    1.36    0.38
  -9  -4   3    2.80    0.54
  -9  -4   3    2.17    0.60
  -9   4   3    1.33    0.48
   9   4  -3    2.25    0.52
   9   4  -3    1.60    0.48
  -9   4   3    1.78    0.62
  -8  -4   3    0.39    0.44
   8  -4  -3    0.07    0.28
   8  -4  -3    0.52    0.30
   8  -4  -3   -0.03    0.32
  -8  -4   3   -0.12    0.47
  -8  -4   3    0.39    0.39
  -8   4   3    0.77    0.42
   8   4  -3    0.64    0.42
  -8   4   3    0.25    0.39
   8   4  -3    0.73    0.37
  -8   4   3    0.52    0.53
  -7  -4   3    3.41    0.60
   7  -4  -3    4.07    0.44
  -7  -4   3    3.82    0.54
  -7  -4   3    4.43    0.62
   7  -4  -3    3.96    0.48
  -7  -4   3    2.80    0.55
   7  -4  -3    3.69    0.48
   7   4  -3    3.82    0.59
   7   4  -3    3.54    0.35
   7   4  -3    4.57    0.67
   7   4  -3    3.82    0.50
  -7   4   3    3.33    0.49
  -7   4   3    4.22    0.54
  -7   4   3    3.53    0.67
  -6  -4   3    2.82    0.55
   6  -4  -3    4.10    0.43
   6  -4  -3    4.44    0.49
   6  -4  -3    4.16    0.43
  -6  -4   3    4.48    0.59
  -6  -4   3    4.29    0.59
  -6  -4   3    4.31    0.54
  -6   4   3    3.66    0.48
   6   4  -3    3.63    0.61
  -6   4   3    5.21    0.48
   6   4  -3    4.40    0.35
  -6   4   3    4.41    0.49
  -6   4   3    4.52    0.63
   6   4  -3    4.02    0.47
   6   4  -3    4.07    0.51
   5  -4  -3    9.03    0.59
  -5  -4   3    7.37    0.64
  -5  -4   3    9.11    0.63
  -5  -4   3    8.59    0.67
  -5  -4   3    6.86    0.60
   5  -4  -3    8.03    0.53
   5  -4  -3    9.02    0.48
  -5   4   3    8.33    0.57
  -5   4   3    7.90    0.70
   5   4  -3    7.78    0.61
   5   4  -3    7.69    0.46
  -5   4   3    8.00    0.56
   5   4  -3    7.68    0.56
  -5   4   3    7.30    0.62
   4  -4  -3    6.36    0.48
  -4  -4   3    6.22    0.58
   4  -4  -3    6.40    0.45
  -4  -4   3    6.48    0.57
  -4  -4   3    6.52    0.54
   4  -4  -3    6.86    0.46
  -4  -4   3    5.37    0.51
   4   4  -3    6.00    0.52
   4   4  -3    6.81    0.54
  -4   4   3    6.29    0.49
  -4   4   3    7.13    0.50
  -4   4   3    6.58    0.51
  -4   4   3    5.92    0.48
   4   4  -3    6.08    0.38
  -4   4   3    5.99    0.58
   4   4  -3    6.16    0.47
   3  -4  -3    9.45    0.51
  -3  -4   3    9.10    0.57
   3  -4  -3    8.33    0.51
   3  -4  -3    8.87    0.53
  -3  -4   3    8.83    0.46
  -3  -4   3    8.76    0.60
  -3  -4   3    8.70    0.59
   3   4  -3    8.94    0.62
  -3   4   3    8.19    0.54
   3   4  -3    8.10    0.57
  -3   4   3    7.91    0.54
  -3   4   3    8.69    0.52
  -3   4   3    8.09    0.50
  -3   4   3    8.24    0.60
   3   4  -3    7.71    0.56
   3   4  -3    7.72    0.52
   3   4  -3    8.14    0.43
  -2  -4   3    2.74    0.37
   2  -4  -3    2.82    0.32
  -2  -4   3    3.16    0.21
  -2  -4   3    2.84    0.29
  -2  -4   3    2.98    0.41
  -2  -4   3    2.88    0.39
   2  -4  -3    2.68    0.22
   2  -4  -3    2.97    0.33
   2  -4  -3    2.62    0.30
  -2   4   3    3.00    0.26
   2   4  -3    3.12    0.23
   2   4  -3    2.82    0.37
  -2   4   3    2.91    0.38
  -2   4   3    2.99    0.34
   2   4  -3    3.06    0.39
  -2   4   3    2.97    0.29
  -2   4   3    2.52    0.33
   2   4  -3    2.92    0.31
   2   4  -3    2.84    0.34
   1  -4  -3    0.19    0.21
  -1  -4   3    0.46    0.21
  -1  -4   3    0.27    0.23
  -1  -4   3    0.36    0.22
   1  -4  -3    0.16    0.15
   1  -4  -3    0.47    0.14
   1  -4  -3    0.28    0.22
  -1  -4   3    0.23    0.14
  -1   4   3    0.38    0.15
   1   4  -3    0.21    0.22
  -1   4   3    0.26    0.21
  -1   4   3    0.33    0.13
   1   4  -3    0.18    0.23
  -1   4   3    0.50    0.25
   1   4  -3    0.33    0.17
   1   4  -3    0.35    0.13
   1   4  -3    0.56    0.25
  -1   4   3    0.32    0.22
  -1   4   3    0.23    0.21
   1   4  -3    0.32    0.21
   0  -4  -3    0.23    0.18
   0  -4  -3    0.03    0.12
   0  -4  -3    0.09    0.20
   0  -4   3    0.27    0.13
   0  -4   3    0.31    0.26
   0  -4   3    0.14    0.23
   0  -4  -3    0.09    0.21
   0  -4   3    0.05    0.22
   0  -4   3    0.04    0.15
   0  -4  -3    0.34    0.11
   0   4   3    0.13    0.22
   0   4  -3    0.22    0.21
   0   4  -3    0.05    0.19
   0   4  -3    0.19    0.14
   0   4  -3    0.22    0.19
   0   4   3    0.16    0.21
   0   4  -3    0.33    0.22
   0   4  -3    0.22    0.16
   0   4   3    0.30    0.12
   0   4  -3    0.13    0.24
   0   4   3    0.24    0.11
   0   4   3    0.08    0.23
   0   4   3    0.05    0.17
  -1  -4  -3    1.32    0.25
  -1  -4  -3    0.94    0.11
  -1  -4  -3    0.85    0.11
   1  -4   3    1.11    0.27
  -1  -4  -3    1.09    0.27
   1  -4   3    1.12    0.21
   1  -4   3    1.17    0.29
   1  -4   3    1.13    0.18
  -1  -4  -3    1.13    0.18
   1   4   3    0.88    0.25
  -1   4  -3    1.30    0.22
  -1   4  -3    0.76    0.21
  -1   4  -3    1.09    0.27
  -1   4  -3    1.11    0.29
   1   4   3    1.06    0.30
  -1   4  -3    1.13    0.28
  -1   4  -3    1.02    0.20
   1   4   3    1.04    0.24
  -1   4  -3    1.03    0.26
   1   4   3    1.27    0.22
  -2  -4  -3    9.97    0.50
   2  -4   3    9.88    0.53
   2  -4   3   10.51    0.49
   2  -4   3   10.40    0.46
   2  -4   3    9.41    0.61
   2  -4   3    9.59    0.62
  -2  -4  -3    9.74    0.59
  -2  -4  -3    9.92    0.57
  -2   4  -3   10.35    0.64
   2   4   3    9.06    0.53
  -2   4  -3    8.90    0.57
   2   4   3    9.88    0.61
   2   4   3    9.32    0.58
  -2   4  -3    9.25    0.54
  -2   4  -3    9.54    0.60
  -2   4  -3    9.06    0.50
   2   4   3    9.80    0.50
  -2   4  -3   10.36    0.63
  -3  -4  -3    2.39    0.32
  -3  -4  -3    2.72    0.36
   3  -4   3    2.32    0.41
  -3  -4  -3    1.75    0.34
   3  -4   3    1.67    0.27
   3  -4   3    2.09    0.42
   3  -4   3    1.83    0.30
  -3   4  -3    2.07    0.35
   3   4   3    1.97    0.40
  -3   4  -3    1.91    0.40
  -3   4  -3    1.86    0.35
   3   4   3    1.47    0.27
   3   4   3    1.34    0.32
  -3   4  -3    1.40    0.27
  -3   4  -3    2.28    0.42
   3   4   3    1.54    0.31
  -4  -4  -3    0.38    0.31
   4  -4   3    0.59    0.25
   4  -4   3    0.03    0.32
   4  -4   3    0.59    0.27
  -4  -4  -3    0.15    0.29
  -4  -4  -3    0.49    0.29
  -4   4  -3    0.49    0.28
  -4   4  -3    0.67    0.32
  -4   4  -3    0.37    0.31
   4   4   3    0.41    0.33
  -4   4  -3    0.42    0.21
   4   4   3    0.42    0.29
  -4   4  -3    0.62    0.38
   4   4   3    0.43    0.22
   4   4   3    0.50    0.27
  -5  -4  -3   21.66    1.14
  -5  -4  -3   24.54    1.14
   5  -4   3   23.34    1.20
  -5  -4  -3   24.98    1.11
   5  -4   3   24.87    1.05
   5  -4   3   23.82    1.09
   5   4   3   21.46    1.11
   5   4   3   21.60    1.05
  -5   4  -3   23.28    1.15
  -5   4  -3   23.33    1.23
   5   4   3   23.87    1.22
  -5   4  -3   22.91    1.20
  -5   4  -3   23.16    1.18
   5   4   3   22.68    1.17
  -5   4  -3   21.70    1.04
   6  -4   3   13.79    0.69
  -6  -4  -3   13.36    0.80
  -6  -4  -3   12.38    0.79
  -6  -4  -3   13.49    0.81
   6  -4   3   13.02    0.76
   6  -4   3   12.29    0.91
   6   4   3   11.91    0.74
  -6   4  -3   12.23    0.84
  -6   4  -3   13.34    1.18
   6   4   3   11.82    0.65
   6   4   3   11.11    0.81
   6   4   3   11.22    0.81
  -6   4  -3   12.00    0.79
  -6   4  -3   11.62    0.94
  -7  -4  -3    2.98    0.59
  -7  -4  -3    3.07    0.55
   7  -4   3    2.98    0.50
   7  -4   3    2.37    0.39
   7  -4   3    3.46    0.62
  -7  -4  -3    3.23    0.56
   7   4   3    2.98    0.57
  -7   4  -3    3.37    0.60
  -7   4  -3    3.23    0.59
   7   4   3    2.40    0.53
  -7   4  -3    3.38    0.60
   7   4   3    2.91    0.46
   8  -4   3    3.59    0.58
  -8  -4  -3    4.75    0.71
  -8  -4  -3    4.63    0.62
  -8  -4  -3    4.29    0.69
   8  -4   3    3.35    0.46
   8  -4   3    5.18    0.69
   8   4   3    3.15    0.51
  -8   4  -3    3.40    0.71
   8   4   3    4.05    0.58
  -8   4  -3    4.63    0.69
  -8   4  -3    5.22    0.69
   9  -4   3   -0.63    0.38
   9  -4   3    0.86    0.50
   9  -4   3   -0.35    0.32
  -9  -4  -3   -0.14    0.53
  -9   4  -3    0.59    0.51
   9   4   3    0.21    0.35
  -9   4  -3    0.97    0.44
  -9   4  -3   -0.77    0.52
   9   4   3    0.34    0.39
  -9  -5   3    4.36    0.79
   9  -5  -3    3.63    0.54
   9  -5  -3    3.22    0.52
  -9   5   3    2.04    0.59
   9   5  -3    3.09    0.61
   9   5  -3    4.04    0.76
  -9   5   3    5.16    0.73
  -9   5   3    4.58    0.86
  -8  -5   3   13.26    0.99
   8  -5  -3   14.44    0.85
  -8  -5   3   13.12    0.93
   8  -5  -3   13.18    0.82
   8  -5  -3   14.32    0.88
  -8   5   3   13.92    1.11
  -8   5   3   12.72    0.95
   8   5  -3   12.22    0.90
  -8   5   3   14.48    1.00
   8   5  -3   12.11    1.00
  -7  -5   3   -0.10    0.33
  -7  -5   3    0.18    0.52
  -7  -5   3    0.80    0.50
   7  -5  -3    0.15    0.32
   7  -5  -3    0.51    0.31
  -7   5   3    0.77    0.43
  -7   5   3    1.23    0.57
   7   5  -3    0.29    0.48
   7   5  -3    0.56    0.37
  -7   5   3    0.77    0.39
   7   5  -3    0.67    0.42
  -6  -5   3    3.48    0.63
   6  -5  -3    3.93    0.51
   6  -5  -3    4.12    0.45
   6  -5  -3    3.23    0.47
  -6  -5   3    2.83    0.56
  -6  -5   3    3.87    0.58
  -6  -5   3    2.47    0.54
  -6   5   3    3.85    0.70
  -6   5   3    4.40    0.58
   6   5  -3    3.51    0.61
  -6   5   3    4.77    0.53
  -6   5   3    3.67    0.52
   6   5  -3    3.90    0.55
   6   5  -3    3.67    0.55
  -5  -5   3    0.31    0.39
  -5  -5   3    0.30    0.49
   5  -5  -3    0.09    0.33
  -5  -5   3   -0.09    0.31
   5  -5  -3    0.41    0.30
   5   5  -3    0.38    0.39
  -5   5   3    0.37    0.36
   5   5  -3    0.69    0.39
   5   5  -3    0.33    0.29
  -5   5   3    0.45    0.27
  -5   5   3    0.31    0.47
  -4  -5   3    8.84    0.65
  -4  -5   3    7.90    0.68
   4  -5  -3    9.55    0.60
  -4  -5   3    8.59    0.69
  -4  -5   3    8.47    0.65
   4  -5  -3    9.16    0.62
   4  -5  -3    8.87    0.56
  -4   5   3    8.71    0.64
   4   5  -3    9.18    0.70
  -4   5   3    9.71    0.65
  -4   5   3    8.61    0.75
  -4   5   3    8.98    0.59
  -4   5   3    8.77    0.61
   4   5  -3    8.93    0.63
   4   5  -3    8.55    0.67
   3  -5  -3   14.88    0.78
  -3  -5   3   15.54    0.82
  -3  -5   3   14.38    0.85
   3  -5  -3   14.79    0.82
  -3  -5   3   15.14    0.85
   3  -5  -3   16.83    0.78
  -3  -5   3   14.31    0.78
   3   5  -3   13.40    0.84
  -3   5   3   14.05    0.75
  -3   5   3   15.62    0.83
   3   5  -3   14.30    0.80
   3   5  -3   15.29    0.76
   3   5  -3   14.18    0.85
   3   5  -3   15.42    0.93
  -3   5   3   14.16    0.82
  -3   5   3   15.18    0.91
  -3   5   3   14.32    0.77
  -2  -5   3   11.41    0.69
  -2  -5   3   12.07    0.72
  -2  -5   3   11.68    0.75
   2  -5  -3   11.74    0.69
  -2  -5   3   12.21    0.66
   2  -5  -3   12.84    0.70
   2   5  -3   11.54    0.73
  -2   5   3   11.92    0.77
  -2   5   3   13.37    0.73
  -2   5   3   11.33    0.62
   2   5  -3   12.88    0.61
   2   5  -3   11.61    0.73
  -2   5   3   12.08    0.65
   2   5  -3   12.93    0.69
   2   5  -3   13.74    0.79
  -2   5   3   11.94    0.71
  -1  -5   3    1.08    0.20
  -1  -5   3    0.82    0.32
   1  -5  -3    1.20    0.24
  -1  -5   3    1.05    0.37
  -1  -5   3    0.90    0.28
   1  -5  -3    0.83    0.29
  -1  -5   3    1.14    0.33
   1  -5  -3    1.01    0.29
   1   5  -3    0.54    0.19
   1   5  -3    0.88    0.33
   1   5  -3    0.82    0.28
  -1   5   3    0.32    0.28
  -1   5   3    0.97    0.21
  -1   5   3    0.86    0.22
  -1   5   3    0.85    0.29
   1   5  -3    0.92    0.24
  -1   5   3    1.21    0.32
  -1   5   3    0.79    0.33
   1   5  -3    0.77    0.36
   1   5  -3    0.92    0.30
   0  -5  -3    0.01    0.28
   0  -5   3    0.14    0.17
   0  -5   3   -0.01    0.18
   0  -5  -3   -0.11    0.22
   0  -5   3    0.10    0.27
   0  -5   3    0.01    0.28
   0  -5  -3   -0.36    0.25
   0  -5   3   -0.30    0.26
   0   5   3   -0.08    0.24
   0   5  -3    0.01    0.29
   0   5   3    0.22    0.23
   0   5  -3    0.02    0.23
   0   5  -3   -0.07    0.25
   0   5   3   -0.24    0.25
   0   5  -3    0.09    0.27
   0   5  -3   -0.01    0.18
   0   5   3    0.03    0.29
   0   5  -3    0.13    0.24
   0   5  -3   -0.01    0.20
   1  -5   3   13.19    0.67
  -1  -5  -3   12.41    0.74
   1  -5   3   12.29    0.76
   1  -5   3   14.14    0.82
  -1  -5  -3   13.54    0.70
   1  -5   3   14.11    0.66
   1  -5   3   14.08    0.65
  -1  -5  -3   13.76    0.77
  -1   5  -3   13.55    0.80
  -1   5  -3   11.91    0.72
  -1   5  -3   14.03    0.68
   1   5   3   13.86    0.80
  -1   5  -3   15.09    0.85
  -1   5  -3   13.32    0.72
   1   5   3   13.71    0.73
  -1   5  -3   15.38    0.82
   1   5   3   12.99    0.75
  -1   5  -3   14.71    0.84
   1   5   3   12.82    0.74
   2  -5   3    9.38    0.67
   2  -5   3   10.04    0.68
  -2  -5  -3    9.47    0.55
  -2  -5  -3    9.69    0.61
  -2  -5  -3    9.43    0.65
   2  -5   3   10.65    0.54
   2  -5   3   10.04    0.57
   2   5   3    9.96    0.68
  -2   5  -3   10.72    0.69
   2   5   3    9.39    0.63
  -2   5  -3   11.58    0.78
  -2   5  -3    9.75    0.60
   2   5   3    9.75    0.59
  -2   5  -3    9.55    0.67
  -2   5  -3   10.18    0.70
   3  -5   3   14.98    0.73
   3  -5   3   14.73    0.76
  -3  -5  -3   15.17    0.75
   3  -5   3   16.44    0.92
  -3  -5  -3   13.88    0.84
  -3  -5  -3   15.40    0.84
   3  -5   3   13.44    0.86
   3   5   3   13.73    0.80
   3   5   3   13.41    0.75
  -3   5  -3   13.87    0.83
  -3   5  -3   14.64    0.92
  -3   5  -3   13.19    0.74
   3   5   3   15.84    0.91
  -3   5  -3   15.11    0.87
   3   5   3   14.93    0.88
  -3   5  -3   14.97    0.91
   4  -5   3    1.07    0.36
  -4  -5  -3    1.21    0.41
   4  -5   3    0.41    0.27
  -4  -5  -3    0.59    0.31
  -4  -5  -3    1.05    0.42
   4  -5   3    0.58    0.29
   4  -5   3    0.93    0.41
   4   5   3    1.20    0.44
   4   5   3    0.85    0.34
  -4   5  -3    1.10    0.42
   4   5   3    0.82    0.35
  -4   5  -3    0.48    0.26
  -4   5  -3    1.01    0.38
   4   5   3    0.57    0.26
  -4   5  -3    1.05    0.37
  -4   5  -3    1.08    0.36
  -5  -5  -3    4.58    0.53
   5  -5   3    5.27    0.47
  -5  -5  -3    4.74    0.56
   5  -5   3    5.25    0.50
  -5  -5  -3    4.80    0.57
   5  -5   3    5.09    0.64
   5   5   3    4.66    0.50
   5   5   3    4.97    0.43
   5   5   3    3.82    0.59
   5   5   3    4.25    0.60
  -5   5  -3    5.33    0.62
  -5   5  -3    4.86    0.68
  -5   5  -3    4.81    0.61
   6  -5   3    2.63    0.47
   6  -5   3    3.06    0.44
  -6  -5  -3    3.50    0.54
  -6  -5  -3    2.68    0.51
  -6  -5  -3    3.20    0.58
  -6   5  -3    4.36    0.63
  -6   5  -3    3.96    0.65
   6   5   3    2.81    0.46
   6   5   3    2.88    0.56
   6   5   3    3.02    0.53
  -6   5  -3    3.58    0.62
  -7  -5  -3   17.07    1.09
   7  -5   3   16.91    0.92
   7  -5   3   17.85    1.10
  -7  -5  -3   16.12    0.97
   7  -5   3   16.49    0.95
  -7  -5  -3   17.58    1.06
   7   5   3   14.48    0.99
   7   5   3   14.91    0.94
   7   5   3   15.63    1.14
  -7   5  -3   16.20    1.15
  -7   5  -3   16.43    1.09
  -7   5  -3   16.65    1.01
  -8  -5  -3    0.26    0.55
  -8  -5  -3    0.02    0.64
   8  -5   3    0.53    0.40
   8  -5   3    0.68    0.44
  -8  -5  -3    1.75    0.56
   8   5   3    0.87    0.45
   8   5   3    1.18    0.40
  -8   5  -3    0.42    0.57
  -8   5  -3    2.12    0.68
  -9  -5  -3    1.10    0.55
   9  -5   3    1.35    0.60
   9   5   3    0.45    0.45
  -9   5  -3    1.33    0.69
   9   5   3    1.21    0.45
  -8  -6   3    2.50    0.69
   8  -6  -3    0.91    0.48
   8  -6  -3    3.86    0.61
   8   6  -3    2.56    0.60
   8   6  -3    1.88    0.62
  -8   6   3    2.07    0.63
   7  -6  -3    6.70    0.63
   7  -6  -3    7.20    0.64
  -7  -6   3    6.47    0.80
  -7  -6   3    7.42    0.77
   7  -6  -3    5.10    0.67
   7   6  -3    6.30    0.86
   7   6  -3    6.81    0.70
  -7   6   3    8.13    0.95
  -7   6   3    6.24    0.72
   7   6  -3    7.14    0.84
  -7   6   3    8.40    0.79
   6  -6  -3    2.53    0.45
   6  -6  -3    0.95    0.50
  -6  -6   3    1.99    0.63
  -6  -6   3    2.92    0.62
   6  -6  -3    1.92    0.43
   6   6  -3    1.62    0.49
   6   6  -3    1.92    0.60
  -6   6   3    1.47    0.50
   6   6  -3    3.01    0.53
  -5  -6   3    0.11    0.48
  -5  -6   3   -0.49    0.32
  -5  -6   3    0.61    0.48
   5  -6  -3   -0.49    0.37
   5  -6  -3    0.15    0.32
   5   6  -3   -0.08    0.35
   5   6  -3    0.25    0.42
  -5   6   3    0.43    0.28
  -5   6   3   -0.29    0.42
  -5   6   3    0.74    0.53
  -5   6   3    0.36    0.30
   5   6  -3    0.10    0.45
  -4  -6   3    2.51    0.50
  -4  -6   3    4.65    0.67
  -4  -6   3    3.18    0.53
   4  -6  -3    2.85    0.50
  -4  -6   3    3.24    0.46
   4  -6  -3    3.62    0.46
   4   6  -3    3.97    0.60
   4   6  -3    3.60    0.52
   4   6  -3    3.19    0.54
  -4   6   3    3.58    0.67
  -4   6   3    3.64    0.42
  -4   6   3    2.81    0.51
  -4   6   3    2.95    0.51
  -4   6   3    4.57    0.51
   3  -6  -3    6.37    0.58
  -3  -6   3    6.04    0.62
  -3  -6   3    6.31    0.64
   3  -6  -3    5.89    0.52
  -3  -6   3    6.68    0.58
   3  -6  -3    5.99    0.54
  -3  -6   3    5.49    0.60
   3   6  -3    6.62    0.57
  -3   6   3    6.02    0.59
   3   6  -3    7.04    0.63
  -3   6   3    6.10    0.58
  -3   6   3    7.11    0.72
   3   6  -3    6.68    0.70
  -3   6   3    6.50    0.52
   2  -6  -3    8.81    0.63
  -2  -6   3    8.35    0.65
   2  -6  -3    7.93    0.57
  -2  -6   3    7.97    0.58
   2  -6  -3    9.64    0.63
  -2  -6   3    8.54    0.60
  -2  -6   3    7.92    0.66
  -2   6   3    7.83    0.63
   2   6  -3    8.16    0.65
  -2   6   3    7.99    0.63
   2   6  -3    7.91    0.56
  -2   6   3    8.94    0.79
   2   6  -3    7.85    0.66
   2   6  -3    7.39    0.70
   1  -6  -3    1.69    0.39
  -1  -6   3    1.90    0.37
   1  -6  -3    2.12    0.40
  -1  -6   3    1.96    0.39
  -1  -6   3    1.93    0.45
  -1  -6   3    2.10    0.42
  -1   6   3    2.05    0.45
  -1   6   3    2.08    0.40
   1   6  -3    1.92    0.42
   1   6  -3    1.74    0.43
   1   6  -3    1.56    0.39
  -1   6   3    1.64    0.39
  -1   6   3    1.98    0.45
   1   6  -3    1.77    0.33
   1   6  -3    1.39    0.36
   0  -6   3    1.98    0.37
   0  -6   3    2.27    0.41
   0  -6   3    1.78    0.30
   0  -6   3    2.28    0.47
   0  -6  -3    2.55    0.40
   0  -6  -3    2.94    0.50
   0  -6   3    1.92    0.44
   0  -6  -3    2.14    0.41
   0   6  -3    1.99    0.42
   0   6  -3    1.84    0.35
   0   6   3    2.42    0.48
   0   6  -3    1.84    0.42
   0   6   3    1.61    0.38
   0   6  -3    2.19    0.43
   0   6   3    1.46    0.43
   0   6   3    2.07    0.38
   0   6  -3    1.80    0.40
   0   6  -3    1.75    0.37
   1  -6   3    0.83    0.35
   1  -6   3    0.89    0.35
  -1  -6  -3    0.56    0.32
  -1  -6  -3    0.76    0.37
  -1  -6  -3    0.77    0.34
   1  -6   3    0.89    0.39
   1  -6   3    0.67    0.24
   1  -6   3    0.64    0.27
  -1   6  -3    0.66    0.29
  -1   6  -3    0.73    0.38
   1   6   3    0.82    0.33
  -1   6  -3    0.85    0.39
   1   6   3    0.50    0.33
  -1   6  -3    0.57    0.36
  -1   6  -3    0.76    0.32
   1   6   3    0.62    0.39
   2  -6   3   15.79    0.93
   2  -6   3   15.14    0.81
  -2  -6  -3   16.45    0.88
   2  -6   3   16.03    0.77
   2  -6   3   13.26    0.89
  -2  -6  -3   14.21    0.89
   2   6   3   15.37    0.92
   2   6   3   14.12    0.86
  -2   6  -3   15.78    0.92
  -2   6  -3   16.20    0.99
  -2   6  -3   14.80    0.89
  -2   6  -3   14.61    0.81
   2   6   3   13.98    0.80
  -2   6  -3   16.57    0.97
   3  -6   3    1.08    0.46
   3  -6   3    1.01    0.30
   3  -6   3    0.83    0.32
  -3  -6  -3    1.34    0.41
  -3  -6  -3    1.42    0.45
  -3   6  -3    1.62    0.48
  -3   6  -3    1.19    0.38
  -3   6  -3    1.60    0.50
  -3   6  -3    1.83    0.63
  -3   6  -3    1.38    0.44
   3   6   3    1.05    0.31
   3   6   3    1.00    0.35
   3   6   3    1.71    0.44
  -4  -6  -3    1.10    0.46
   4  -6   3    1.51    0.50
  -4  -6  -3    1.35    0.47
   4  -6   3    0.86    0.33
   4  -6   3    1.45    0.41
   4   6   3    1.33    0.30
  -4   6  -3    1.26    0.38
   4   6   3    0.74    0.47
  -4   6  -3    1.76    0.49
  -4   6  -3    1.27    0.52
   4   6   3    1.05    0.37
   4   6   3    1.30    0.43
   5  -6   3   -0.09    0.33
  -5  -6  -3    0.67    0.49
   5  -6   3    1.82    0.56
   5  -6   3    0.25    0.35
  -5  -6  -3    1.51    0.49
   5   6   3    0.62    0.34
  -5   6  -3    1.13    0.41
  -5   6  -3    0.73    0.46
   5   6   3    0.73    0.45
   5   6   3   -0.19    0.46
  -5   6  -3    0.58    0.55
   6  -6   3    4.76    0.53
  -6  -6  -3    5.76    0.81
   6  -6   3    5.45    0.61
   6  -6   3    7.98    0.81
  -6  -6  -3    6.74    0.70
  -6   6  -3    7.22    0.80
  -6   6  -3    7.61    0.78
  -6   6  -3    6.20    0.89
   6   6   3    5.86    0.70
   6   6   3    5.58    0.79
   6   6   3    5.75    0.67
   7  -6   3    0.61    0.40
  -7  -6  -3    1.38    0.67
  -7  -6  -3    2.55    0.63
   7  -6   3    1.41    0.50
  -7   6  -3    1.50    0.69
   7   6   3    1.31    0.52
  -7   6  -3    2.39    0.65
   7   6   3    1.84    0.46
  -8  -6  -3    1.81    0.57
  -8  -6  -3   -0.04    0.89
   8  -6   3    0.59    0.50
  -8  -6  -3   -0.05    0.64
  -8   6  -3    0.86    0.78
   8   6   3    1.43    0.45
   8   6   3    0.83    0.54
  -8   6  -3    1.78    0.73
   7  -7  -3    2.60    0.54
  -7  -7   3    3.20    0.80
   7   7  -3    3.81    0.73
   7   7  -3    4.15    0.83
  -7   7   3    5.05    0.94
  -7   7   3    2.85    0.67
   6  -7  -3    0.96    0.48
  -6  -7   3    1.29    0.64
   6  -7  -3    1.51    0.46
  -6  -7   3    0.23    0.70
  -6   7   3    2.91    0.86
   6   7  -3    1.57    0.53
   6   7  -3    0.45    0.64
   6   7  -3    1.20    0.54
  -6   7   3    1.82    0.50
  -6   7   3    0.76    0.54
  -5  -7   3    9.92    0.90
  -5  -7   3    8.04    0.77
   5  -7  -3    7.40    0.71
   5  -7  -3    6.42    0.62
   5  -7  -3    7.42    0.79
   5   7  -3    8.16    0.78
   5   7  -3    7.75    0.86
   5   7  -3    7.31    0.79
  -5   7   3    7.37    0.76
  -4  -7   3    2.02    0.61
   4  -7  -3    1.45    0.40
   4  -7  -3    1.20    0.54
  -4  -7   3    1.99    0.57
   4   7  -3    0.96    0.48
  -4   7   3    0.70    0.47
   4   7  -3    0.57    0.50
   4   7  -3    1.26    0.46
  -4   7   3    1.14    0.49
  -3  -7   3    0.29    0.37
  -3  -7   3    1.22    0.53
  -3  -7   3    1.33    0.52
   3  -7  -3    0.65    0.35
   3  -7  -3    0.30    0.43
   3   7  -3    0.34    0.50
  -3   7   3    1.23    0.55
  -3   7   3    0.14    0.40
  -3   7   3    0.24    0.41
   3   7  -3    0.82    0.40
   3   7  -3    0.79    0.43
   2  -7  -3    1.66    0.51
  -2  -7   3    0.19    0.35
  -2  -7   3    0.66    0.36
   2  -7  -3    1.09    0.34
   2  -7  -3    0.77    0.38
  -2  -7   3    1.22    0.46
  -2  -7   3    1.48    0.45
   2   7  -3    1.08    0.36
   2   7  -3    0.76    0.44
   2   7  -3    0.92    0.45
  -2   7   3    0.63    0.40
  -2   7   3    0.90    0.42
   2   7  -3    0.77    0.45
  -2   7   3    1.16    0.50
  -1  -7   3    0.40    0.50
  -1  -7   3    0.06    0.28
  -1  -7   3    0.08    0.35
   1  -7  -3    0.98    0.47
  -1  -7   3    0.66    0.36
  -1  -7   3    0.57    0.43
   1  -7  -3    0.45    0.40
  -1   7   3    0.24    0.42
  -1   7   3   -0.25    0.42
   1   7  -3    0.31    0.45
   1   7  -3   -0.14    0.37
   1   7  -3   -0.21    0.34
   1   7  -3   -0.10    0.37
  -1   7   3    0.12    0.34
   1   7  -3    0.02    0.36
  -1   7   3    0.02    0.38
   0  -7   3    0.79    0.44
   0  -7   3    0.44    0.40
   0  -7  -3    0.02    0.41
   0  -7   3    0.38    0.35
   0  -7  -3    0.59    0.43
   0   7  -3    0.01    0.33
   0   7   3    0.12    0.35
   0   7   3   -0.16    0.45
   0   7  -3   -0.07    0.41
   0   7  -3   -0.19    0.36
   0   7   3    0.13    0.32
   0   7  -3   -0.20    0.37
   0   7  -3   -0.05    0.33
   1  -7   3    0.40    0.41
   1  -7   3    1.01    0.40
   1  -7   3    0.09    0.27
  -1  -7  -3    0.89    0.39
  -1  -7  -3   -0.17    0.33
  -1  -7  -3    0.18    0.40
  -1   7  -3   -0.02    0.39
  -1   7  -3    0.14    0.39
   1   7   3    0.03    0.41
   1   7   3    0.26    0.32
  -1   7  -3    0.34    0.35
  -1   7  -3    0.30    0.37
   1   7   3   -0.08    0.39
   2  -7   3    0.78    0.33
  -2  -7  -3    0.85    0.40
  -2  -7  -3    1.53    0.41
  -2  -7  -3    0.88    0.52
   2  -7   3    0.64    0.49
   2   7   3    0.53    0.37
  -2   7  -3    0.87    0.46
   2   7   3    0.67    0.32
   2   7   3    0.32    0.48
  -2   7  -3    0.63    0.41
  -2   7  -3    0.22    0.50
  -3  -7  -3    0.12    0.46
   3  -7   3    0.27    0.33
  -3  -7  -3   -0.11    0.47
   3  -7   3    0.57    0.49
   3   7   3    0.74    0.33
  -3   7  -3    0.13    0.51
  -3   7  -3    0.32    0.45
  -3   7  -3    0.37    0.37
   3   7   3    0.18    0.39
   3   7   3    0.21    0.44
  -4  -7  -3    7.60    0.81
   4  -7   3   10.29    0.92
  -4  -7  -3    8.88    0.85
   4  -7   3    8.38    0.70
  -4   7  -3    8.33    0.82
  -4   7  -3    8.15    0.79
   4   7   3    7.31    0.68
  -4   7  -3    8.21    1.03
   4   7   3    8.09    0.84
   5  -7   3    0.77    0.43
  -5  -7  -3    1.86    0.67
  -5  -7  -3    1.37    0.57
   5   7   3    0.90    0.41
  -5   7  -3    1.42    0.58
  -5   7  -3    0.95    0.66
   5   7   3    0.84    0.56
  -5   7  -3    0.72    0.41
   6  -7   3    2.23    0.54
  -6  -7  -3    3.30    0.67
  -6  -7  -3    1.43    0.69
   6   7   3    3.24    0.56
  -6   7  -3    4.06    0.63
   6   7   3    2.12    0.59
  -6   7  -3    2.16    0.75
  -6   7  -3    3.99    0.78
   5  -8  -3    5.14    0.80
   5  -8  -3    4.77    0.63
  -5  -8   3    4.54    0.77
   5  -8  -3    6.51    0.62
   5   8  -3    4.43    0.78
  -5   8   3    7.26    0.99
  -5   8   3    4.25    0.74
   5   8  -3    5.30    0.70
   5   8  -3    5.21    1.00
   4  -8  -3    4.47    0.70
   4  -8  -3    5.67    0.62
  -4  -8   3    5.03    0.75
   4   8  -3    7.65    0.97
   4   8  -3    6.23    0.75
  -4   8   3    6.11    0.74
  -4   8   3    4.74    0.73
   4   8  -3    6.99    0.88
   3  -8  -3    2.72    0.65
   3  -8  -3    3.36    0.59
   3   8  -3    3.12    0.57
   2  -8  -3    0.71    0.57
  -2  -8   3    1.32    0.57
  -2  -8   3    1.24    0.57
   2  -8  -3    1.23    0.39
  -2   8   3    1.70    0.63
  -2   8   3    0.55    0.45
  -2   8   3    0.04    0.43
   2   8  -3    0.55    0.50
   2   8  -3    0.19    0.52
  -1  -8   3    0.96    0.50
  -1  -8   3    0.25    0.38
   1  -8  -3    0.77    0.32
  -1  -8   3    0.49    0.47
   1  -8  -3    0.06    0.46
   1  -8  -3    0.78    0.50
   1   8  -3   -0.53    0.47
   1   8  -3    0.07    0.39
  -1   8   3   -0.01    0.39
  -1   8   3   -0.53    0.40
   1   8  -3   -0.43    0.44
   0  -8  -3    1.66    0.53
   0  -8  -3    0.78    0.52
   0  -8   3    1.19    0.44
   0   8  -3    0.52    0.44
   0   8   3    0.94    0.45
   0   8   3    0.25    0.52
   0   8   3    0.47    0.43
   0   8  -3    0.42    0.45
   0   8  -3   -0.28    0.44
   1  -8   3    0.71    0.42
  -1  -8  -3    0.29    0.52
   1   8   3   -0.06    0.50
   1   8   3    0.03    0.39
  -1   8  -3   -0.58    0.48
  -1   8  -3   -0.13    0.45
  -1   8  -3   -0.14    0.43
   1   8   3    0.38    0.41
  -2  -8  -3    1.53    0.56
   2  -8   3    1.23    0.40
   2  -8   3    1.29    0.49
  -2  -8  -3    1.36    0.52
  -2   8  -3    1.01    0.51
   2   8   3    1.04    0.55
  -2   8  -3    0.82    0.51
  -2   8  -3    0.99    0.56
   2   8   3    1.86    0.55
   2   8   3    1.04    0.50
  -3  -8  -3    7.38    0.80
  -3  -8  -3    7.64    0.77
   3  -8   3    8.25    0.80
   3  -8   3    6.64    0.65
   3   8   3    5.55    0.75
  -3   8  -3    8.08    0.90
  -3   8  -3    7.26    0.91
  -3   8  -3    7.44    0.83
   3   8   3    6.72    0.88
  -4  -8  -3    1.03    0.60
  -4  -8  -3    0.83    0.64
   4  -8   3    0.50    0.43
   4   8   3    0.71    0.43
  -4   8  -3    0.54    0.56
   4   8   3    0.80    0.62
  -4   8  -3    0.57    0.65
  -5   8  -3    6.73    0.89
  -1  -9   3    1.01    0.56
   1  -9  -3    1.48    0.61
  -1  -9   3    0.12    0.91
   1   9  -3   -0.25    0.55
  -1   9   3    0.08    0.46
  -1   9   3   -0.48    0.46
   0  -9  -3    0.11    0.56
   0   9   3    0.11    0.48
  11   0  -4    7.35    0.60
  11   0  -4    8.44    0.68
 -11   0   4    6.66    0.71
  10   0  -4    1.41    0.31
 -10   0   4    0.97    0.46
   9   0  -4    2.29    0.34
   9   0  -4    2.87    0.43
  -9   0   4    2.89    0.49
  -9   0   4    2.28    0.46
  -8   0   4   28.23    1.37
   8   0  -4   28.64    1.22
  -8   0   4   28.80    1.34
  -8   0   4   27.54    1.29
   8   0  -4   28.23    1.31
   8   0  -4   26.79    1.29
  -8   0   4   27.18    1.32
  -7   0   4   46.11    1.99
   7   0  -4   46.97    1.86
   7   0  -4   46.17    1.93
  -7   0   4   45.06    1.96
   7   0  -4   42.61    1.92
  -7   0   4   45.77    1.95
  -7   0   4   46.70    1.93
  -6   0   4   64.46    2.57
   6   0  -4   59.93    2.53
  -6   0   4   63.98    2.64
  -6   0   4   65.73    2.63
   6   0  -4   67.13    2.62
   6   0  -4   69.12    2.56
  -6   0   4   67.31    2.61
  -6   0   4   63.29    2.54
   6   0  -4   60.85    2.58
   6   0  -4   62.90    2.62
  -6   0   4   66.65    2.66
  -5   0   4    1.88    0.34
   5   0  -4    1.73    0.24
  -5   0   4    1.75    0.34
  -5   0   4    1.56    0.20
   5   0  -4    1.87    0.20
   5   0  -4    1.64    0.24
  -5   0   4    1.77    0.32
   5   0  -4    1.92    0.25
  -5   0   4    1.81    0.31
  -4   0   4   38.87    1.64
   4   0  -4   39.88    1.56
   4   0  -4   40.37    1.60
  -4   0   4   37.83    1.63
  -4   0   4   39.07    1.60
   4   0  -4   37.66    1.61
   4   0  -4   40.10    1.60
  -4   0   4   38.84    1.62
  -4   0   4   39.61    1.57
  -3   0   4   43.51    1.83
   3   0  -4   46.42    1.83
   3   0  -4   44.76    1.83
  -3   0   4   48.95    1.89
  -3   0   4   47.47    1.86
  -3   0   4   45.52    1.81
   3   0  -4   45.62    1.79
   3   0  -4   44.52    1.85
  -3   0   4   45.19    1.87
  -2   0   4  520.90   20.17
   2   0  -4  519.16   20.27
  -2   0   4  517.71   20.21
   2   0  -4  555.84   20.26
  -2   0   4  534.41   20.24
  -2   0   4  509.49   20.09
   2   0  -4  490.34   20.27
   2   0  -4  556.43   20.42
  -2   0   4  506.33   20.06
   2   0  -4  511.26   20.06
  -1   0   4   11.97    0.56
   1   0  -4   11.92    0.56
  -1   0   4   12.72    0.61
  -1   0   4   11.46    0.50
   1   0  -4   10.89    0.56
   1   0  -4   12.31    0.53
   1   0  -4   11.89    0.59
  -1   0   4   12.14    0.58
  -1   0   4   11.34    0.54
   1   0  -4   11.62    0.55
   0   0   4    0.16    0.18
   0   0   4    0.65    0.22
   0   0  -4    0.28    0.12
   0   0  -4    0.36    0.18
   0   0  -4   -0.08    0.17
   0   0   4    0.04    0.18
   0   0  -4   -0.26    0.16
   0   0   4   -0.15    0.15
   1   0   4   21.19    0.93
   1   0   4   22.32    0.94
  -1   0  -4   22.46    0.94
  -1   0  -4   21.28    0.93
   1   0   4   21.42    0.92
   1   0   4   22.86    0.93
  -1   0  -4   20.56    0.87
  -1   0  -4   22.29    0.92
   1   0   4   22.22    0.94
   1   0   4   21.16    0.90
  -1   0  -4   21.98    0.92
  -1   0  -4   20.82    0.93
  -2   0  -4  173.90    6.74
  -2   0  -4  162.04    6.68
  -2   0  -4  170.77    6.71
  -2   0  -4  175.61    6.73
  -2   0  -4  166.73    6.73
   2   0   4  183.09    6.74
   2   0   4  176.64    6.73
  -2   0  -4  175.90    6.72
   2   0   4  182.28    6.73
   2   0   4  177.63    6.69
   2   0   4  177.05    6.71
   3   0   4  182.54    7.03
   3   0   4  202.53    7.08
   3   0   4  187.72    7.07
   3   0   4  181.85    7.08
   3   0   4  178.88    7.08
   3   0   4  180.51    7.07
  -3   0  -4  181.05    7.07
  -3   0  -4  182.02    7.13
  -3   0  -4  183.26    7.09
  -3   0  -4  176.48    7.08
  -3   0  -4  181.87    7.07
  -4   0  -4   11.07    0.56
   4   0   4   10.22    0.55
   4   0   4   10.86    0.55
  -4   0  -4   10.26    0.58
  -4   0  -4   10.90    0.59
   4   0   4   10.79    0.51
  -4   0  -4   10.22    0.51
   4   0   4   10.09    0.54
  -4   0  -4   10.28    0.58
  -5   0  -4    3.34    0.39
  -5   0  -4    3.34    0.39
  -5   0  -4    3.15    0.29
   5   0   4    2.78    0.29
   5   0   4    2.57    0.32
   5   0   4    3.10    0.34
  -5   0  -4    3.82    0.37
   5   0   4    3.26    0.38
  -5   0  -4    3.14    0.36
   6   0   4    0.04    0.22
  -6   0  -4    0.20    0.26
   6   0   4   -0.06    0.23
  -6   0  -4    0.13    0.30
  -6   0  -4    0.35    0.27
   6   0   4    0.13    0.23
  -6   0  -4   -0.07    0.32
   6   0   4   -0.05    0.24
  -7   0  -4   27.22    1.28
   7   0   4   26.60    1.20
  -7   0  -4   26.11    1.21
  -7   0  -4   26.74    1.25
   7   0   4   25.46    1.21
  -7   0  -4   26.15    1.28
  -8   0  -4    0.62    0.44
   8   0   4    0.50    0.33
  -8   0  -4    0.59    0.33
   8   0   4   -0.19    0.28
  -8   0  -4   -0.14    0.33
  -9   0  -4    0.71    0.46
   9   0   4   -0.33    0.31
   9   0   4    0.29    0.32
  -9   0  -4   -0.29    0.36
  10   0   4    0.35    0.38
 -10   0  -4    0.83    0.52
 -11  -1   4    3.80    0.62
  11  -1  -4    3.64    0.57
  11   1  -4    3.12    0.53
 -11   1   4    4.05    0.66
 -10  -1   4    0.07    0.46
  10  -1  -4    1.78    0.38
  10  -1  -4    0.99    0.32
 -10  -1   4    1.77    0.45
 -10   1   4    2.04    0.50
 -10   1   4    1.08    0.41
  10   1  -4    1.19    0.32
  -9  -1   4    1.08    0.43
   9  -1  -4    0.18    0.25
   9  -1  -4    0.59    0.29
  -9  -1   4   -0.12    0.39
   9   1  -4    0.56    0.30
  -9   1   4    0.69    0.43
  -9   1   4    0.07    0.37
   9   1  -4    0.53    0.30
  -9   1   4    0.89    0.43
   9   1  -4    0.17    0.24
  -8  -1   4   12.81    0.79
   8  -1  -4   12.69    0.72
  -8  -1   4   12.88    0.82
  -8  -1   4   13.44    0.83
   8  -1  -4   13.02    0.67
   8   1  -4   12.23    0.65
  -8   1   4   12.26    0.71
  -8   1   4   12.72    0.79
   8   1  -4   12.62    0.77
  -8   1   4   13.41    0.88
   8   1  -4   11.99    0.76
   7  -1  -4   46.17    1.93
  -7  -1   4   45.17    1.92
   7  -1  -4   48.53    1.90
  -7  -1   4   48.17    2.02
  -7  -1   4   46.69    1.95
   7  -1  -4   42.51    1.87
   7  -1  -4   49.83    1.96
  -7  -1   4   46.56    1.97
  -7  -1   4   48.04    1.98
   7   1  -4   47.61    1.88
   7   1  -4   41.93    1.93
   7   1  -4   42.65    1.96
  -7   1   4   47.27    1.92
  -7   1   4   46.05    2.01
  -7   1   4   47.21    1.98
  -7   1   4   46.16    2.00
   7   1  -4   46.32    1.96
  -7   1   4   44.19    1.90
   6  -1  -4    0.20    0.22
  -6  -1   4    0.74    0.26
  -6  -1   4    0.48    0.30
   6  -1  -4    0.50    0.19
   6  -1  -4    0.33    0.19
  -6  -1   4    0.95    0.32
  -6  -1   4    1.01    0.29
   6  -1  -4    0.79    0.19
  -6  -1   4    0.42    0.31
   6   1  -4    0.27    0.16
  -6   1   4    0.77    0.32
  -6   1   4    0.53    0.24
   6   1  -4    0.29    0.21
  -6   1   4    0.75    0.22
   6   1  -4    0.54    0.24
   6   1  -4    0.71    0.24
  -6   1   4    0.62    0.28
   5  -1  -4   15.94    0.73
  -5  -1   4   15.90    0.77
  -5  -1   4   16.37    0.81
  -5  -1   4   14.95    0.76
  -5  -1   4   15.36    0.75
   5  -1  -4   15.18    0.69
   5  -1  -4   15.16    0.72
   5  -1  -4   14.57    0.66
   5   1  -4   14.53    0.75
  -5   1   4   14.23    0.71
  -5   1   4   15.99    0.80
  -5   1   4   15.49    0.76
   5   1  -4   15.82    0.67
  -5   1   4   15.79    0.71
   5   1  -4   14.22    0.76
  -5   1   4   14.67    0.78
   5   1  -4   14.88    0.73
   4  -1  -4   43.30    1.73
  -4  -1   4   45.44    1.80
   4  -1  -4   44.30    1.73
  -4  -1   4   41.53    1.75
   4  -1  -4   41.52    1.70
  -4  -1   4   42.85    1.75
   4  -1  -4   43.84    1.69
  -4  -1   4   44.10    1.77
  -4  -1   4   40.63    1.65
   4   1  -4   44.45    1.68
   4   1  -4   43.37    1.73
  -4   1   4   41.78    1.76
  -4   1   4   41.17    1.72
   4   1  -4   40.68    1.76
  -4   1   4   41.97    1.74
  -4   1   4   41.20    1.78
  -4   1   4   42.31    1.70
   4   1  -4   41.72    1.75
  -3  -1   4  126.82    4.72
   3  -1  -4  125.62    4.75
  -3  -1   4  119.31    4.80
   3  -1  -4  127.02    4.78
   3  -1  -4  118.09    4.75
  -3  -1   4  131.03    4.82
  -3  -1   4  121.20    4.79
  -3  -1   4  123.46    4.79
   3  -1  -4  126.79    4.78
  -3   1   4  120.28    4.78
  -3   1   4  124.11    4.78
  -3   1   4  124.52    4.80
   3   1  -4  119.16    4.80
   3   1  -4  127.83    4.72
   3   1  -4  122.83    4.77
  -3   1   4  120.72    4.74
   3   1  -4  120.24    4.80
  -3   1   4  119.57    4.81
   2  -1  -4   36.10    1.47
  -2  -1   4   36.96    1.45
   2  -1  -4   38.31    1.50
  -2  -1   4   37.44    1.52
  -2  -1   4   37.94    1.52
   2  -1  -4   34.05    1.46
  -2  -1   4   34.98    1.52
   2  -1  -4   37.60    1.49
   2  -1  -4   38.91    1.51
  -2  -1   4   38.24    1.54
   2   1  -4   36.00    1.47
   2   1  -4   36.09    1.51
  -2   1   4   35.98    1.45
   2   1  -4   37.89    1.42
  -2   1   4   37.39    1.51
   2   1  -4   35.96    1.51
  -2   1   4   36.97    1.50
  -2   1   4   35.67    1.53
  -2   1   4   37.86    1.49
   2   1  -4   34.86    1.52
  -2   1   4   37.33    1.48
   1  -1  -4   14.76    0.65
  -1  -1   4   13.53    0.65
   1  -1  -4   14.64    0.64
  -1  -1   4   14.34    0.66
   1  -1  -4   13.53    0.62
   1  -1  -4   13.99    0.59
  -1  -1   4   14.91    0.61
  -1  -1   4   14.15    0.68
   1  -1  -4   13.05    0.61
   1   1  -4   12.58    0.63
  -1   1   4   13.82    0.68
   1   1  -4   13.13    0.59
  -1   1   4   14.44    0.62
  -1   1   4   12.93    0.62
  -1   1   4   14.53    0.64
  -1   1   4   12.65    0.63
   1   1  -4   12.89    0.63
   1   1  -4   13.87    0.66
   0  -1  -4    8.79    0.46
   0  -1  -4   10.64    0.50
   0  -1   4    9.50    0.39
   0  -1  -4   10.08    0.47
   0  -1   4    8.45    0.49
   0  -1   4   10.12    0.51
   0  -1  -4    9.08    0.46
   0  -1   4   10.36    0.45
   0  -1   4   10.35    0.57
   0  -1   4    9.18    0.52
   0  -1  -4    9.41    0.44
   0   1  -4    8.86    0.50
   0   1   4    8.86    0.47
   0   1   4    8.53    0.49
   0   1   4    9.95    0.45
   0   1  -4    9.31    0.40
   0   1   4   10.09    0.52
   0   1   4    9.71    0.44
   0   1  -4    9.83    0.58
   0   1  -4    9.18    0.49
   0   1  -4    8.99    0.46
   0   1  -4    8.16    0.49
  -1  -1  -4   11.35    0.54
  -1  -1  -4   10.72    0.53
  -1  -1  -4   10.32    0.50
  -1  -1  -4    9.81    0.50
   1  -1   4   10.76    0.55
  -1  -1  -4   11.77    0.50
   1  -1   4   10.12    0.55
   1  -1   4   11.52    0.51
   1  -1   4   10.85    0.47
   1  -1   4   11.06    0.59
   1   1   4   11.59    0.51
  -1   1  -4    9.28    0.54
  -1   1  -4   10.46    0.43
   1   1   4   11.16    0.49
   1   1   4   10.95    0.55
  -1   1  -4   10.18    0.50
   1   1   4   10.18    0.54
   1   1   4   10.92    0.48
  -1   1  -4   10.21    0.56
   1   1   4   11.54    0.52
  -1   1  -4   11.24    0.56
   1   1   4   10.14    0.53
   2  -1   4   45.96    1.90
  -2  -1  -4   47.46    1.88
   2  -1   4   49.42    1.87
  -2  -1  -4   47.46    1.88
   2  -1   4   47.98    1.84
  -2  -1  -4   45.57    1.86
   2  -1   4   47.47    1.92
  -2  -1  -4   45.84    1.83
  -2   1  -4   48.05    1.90
  -2   1  -4   46.00    1.91
   2   1   4   46.05    1.84
  -2   1  -4   47.78    1.84
  -2   1  -4   44.19    1.87
   2   1   4   46.20    1.84
  -2   1  -4   47.08    1.92
   2   1   4   46.42    1.88
   2   1   4   45.39    1.87
   2   1   4   47.10    1.83
   2   1   4   45.21    1.88
   2   1   4   46.97    1.87
  -3  -1  -4   39.82    1.58
  -3  -1  -4   40.80    1.63
   3  -1   4   37.85    1.53
  -3  -1  -4   39.01    1.62
   3  -1   4   42.06    1.59
  -3  -1  -4   39.10    1.61
   3  -1   4   38.65    1.64
   3  -1   4   38.40    1.66
  -3  -1  -4   39.39    1.59
   3  -1   4   41.43    1.61
  -3   1  -4   39.47    1.66
  -3   1  -4   39.99    1.65
  -3   1  -4   40.45    1.57
   3   1   4   37.26    1.57
   3   1   4   38.94    1.61
   3   1   4   40.65    1.59
   3   1   4   39.78    1.60
  -3   1  -4   39.29    1.65
  -3   1  -4   39.38    1.62
   3   1   4   38.35    1.62
   3   1   4   40.26    1.62
   4  -1   4   31.50    1.28
  -4  -1  -4   33.13    1.33
   4  -1   4   32.77    1.34
  -4  -1  -4   33.65    1.38
  -4  -1  -4   32.04    1.35
  -4  -1  -4   31.63    1.37
   4  -1   4   34.60    1.36
   4  -1   4   31.21    1.38
  -4  -1  -4   32.56    1.34
  -4   1  -4   31.38    1.35
   4   1   4   33.57    1.36
  -4   1  -4   30.17    1.38
   4   1   4   31.78    1.36
   4   1   4   32.26    1.33
   4   1   4   31.28    1.36
  -4   1  -4   32.17    1.42
  -4   1  -4   32.00    1.29
  -4   1  -4   31.88    1.40
   5  -1   4   22.24    1.06
  -5  -1  -4   22.74    1.02
  -5  -1  -4   22.62    1.06
   5  -1   4   23.35    1.02
   5  -1   4   25.60    1.05
  -5  -1  -4   23.90    1.02
  -5  -1  -4   22.99    1.03
  -5  -1  -4   23.53    1.06
   5   1   4   22.08    1.04
   5   1   4   24.39    1.06
   5   1   4   22.23    1.04
   5   1   4   22.37    0.99
  -5   1  -4   22.70    1.09
  -5   1  -4   22.72    1.12
  -5   1  -4   22.18    1.08
  -5   1  -4   22.80    1.03
  -6  -1  -4    1.89    0.39
  -6  -1  -4    1.54    0.37
  -6  -1  -4    2.21    0.41
   6  -1   4    1.47    0.29
   6  -1   4    1.45    0.31
  -6  -1  -4    1.59    0.29
  -6  -1  -4    1.86    0.34
   6  -1   4    1.95    0.35
  -6   1  -4    1.51    0.34
  -6   1  -4    2.20    0.40
   6   1   4    1.50    0.32
  -6   1  -4    1.64    0.38
   6   1   4    1.80    0.31
   6   1   4    1.70    0.32
  -6   1  -4    1.99    0.35
   7  -1   4   -0.02    0.27
  -7  -1  -4   -0.08    0.36
   7  -1   4    0.26    0.26
   7  -1   4    0.41    0.30
  -7  -1  -4    0.50    0.40
  -7   1  -4    0.09    0.29
   7   1   4    0.18    0.28
   7   1   4    0.27    0.26
  -7   1  -4    0.35    0.39
  -7   1  -4   -0.02    0.29
  -7   1  -4    0.49    0.29
   7   1   4   -0.26    0.26
   8  -1   4    4.59    0.47
  -8  -1  -4    4.80    0.58
   8  -1   4    4.25    0.46
  -8  -1  -4    3.86    0.54
  -8   1  -4    5.82    0.61
  -8   1  -4    6.17    0.62
   8   1   4    5.47    0.51
  -8   1  -4    4.21    0.48
   8   1   4    4.58    0.50
  -8   1  -4    5.29    0.66
   9  -1   4    0.69    0.37
   9  -1   4    0.28    0.37
  -9  -1  -4    1.53    0.50
   9   1   4    1.09    0.40
   9   1   4    0.34    0.37
  -9   1  -4    1.23    0.47
  -9   1  -4    1.30    0.44
 -10  -1  -4    1.32    0.54
  10  -1   4    0.06    0.40
  10  -1   4    1.21    0.40
 -10   1  -4    1.72    0.55
  10   1   4    0.33    0.59
  10   1   4    0.87    0.40
 -11  -2   4    4.33    0.68
  11  -2  -4    4.04    0.57
 -11   2   4    2.40    0.66
  11   2  -4    2.72    0.54
 -10  -2   4    3.92    0.58
  10  -2  -4    3.60    0.52
  10   2  -4    3.51    0.54
 -10   2   4    3.96    0.80
 -10   2   4    4.69    0.75
  -9  -2   4    1.02    0.43
  -9  -2   4   -0.17    0.48
   9  -2  -4    0.70    0.30
   9  -2  -4    0.06    0.25
   9   2  -4    0.88    0.37
  -9   2   4    0.80    0.47
   9   2  -4    0.56    0.25
  -9   2   4    0.81    0.41
   9   2  -4    0.79    0.37
  -8  -2   4    1.24    0.36
   8  -2  -4    1.06    0.26
   8  -2  -4    1.18    0.33
  -8  -2   4    0.55    0.42
  -8  -2   4    0.93    0.37
   8  -2  -4    0.74    0.28
  -8   2   4    0.70    0.32
   8   2  -4    0.83    0.32
  -8   2   4    0.65    0.43
  -8   2   4    1.68    0.52
   8   2  -4    0.73    0.36
   8   2  -4    0.91    0.25
  -8   2   4    0.84    0.37
   8   2  -4    1.07    0.36
  -7  -2   4    0.54    0.33
  -7  -2   4    1.06    0.40
   7  -2  -4    1.14    0.26
  -7  -2   4    0.88    0.39
  -7  -2   4    1.12    0.35
   7  -2  -4    0.87    0.28
   7  -2  -4    0.99    0.27
   7   2  -4    0.81    0.21
  -7   2   4    1.22    0.29
   7   2  -4    0.96    0.33
   7   2  -4    0.99    0.32
  -7   2   4    0.87    0.30
  -7   2   4    1.58    0.42
   7   2  -4    1.04    0.36
  -7   2   4    1.06    0.34
  -7   2   4    1.39    0.34
  -6  -2   4   10.92    0.66
   6  -2  -4   11.27    0.58
   6  -2  -4   10.77    0.57
  -6  -2   4   10.25    0.69
  -6  -2   4    9.48    0.65
   6  -2  -4   11.71    0.61
  -6  -2   4   10.82    0.59
  -6  -2   4   10.22    0.69
   6   2  -4   10.52    0.62
   6   2  -4   10.53    0.53
   6   2  -4    9.88    0.66
  -6   2   4   11.62    0.68
  -6   2   4    9.37    0.61
  -6   2   4   10.67    0.65
  -6   2   4   10.97    0.57
  -6   2   4    9.81    0.75
   6   2  -4    9.64    0.67
  -5  -2   4  216.04    8.28
   5  -2  -4  222.06    8.23
   5  -2  -4  226.99    8.25
  -5  -2   4  221.13    8.24
  -5  -2   4  219.15    8.27
  -5  -2   4  213.38    8.29
   5  -2  -4  211.92    8.22
   5   2  -4  209.19    8.18
  -5   2   4  214.98    8.28
   5   2  -4  208.65    8.26
  -5   2   4  209.66    8.26
   5   2  -4  200.49    8.29
  -5   2   4  212.36    8.19
  -5   2   4  215.58    8.26
  -5   2   4  206.50    8.31
   5   2  -4  207.46    8.29
   4  -2  -4    4.80    0.34
   4  -2  -4    4.53    0.24
  -4  -2   4    4.97    0.45
   4  -2  -4    4.43    0.31
  -4  -2   4    4.33    0.48
  -4  -2   4    4.48    0.41
  -4  -2   4    4.83    0.37
   4  -2  -4    5.10    0.39
   4   2  -4    4.31    0.37
   4   2  -4    4.30    0.33
  -4   2   4    3.79    0.34
  -4   2   4    4.44    0.37
  -4   2   4    4.43    0.27
  -4   2   4    4.84    0.40
  -4   2   4    4.23    0.41
   4   2  -4    4.56    0.26
   4   2  -4    4.46    0.40
  -3  -2   4   41.40    1.53
   3  -2  -4   38.93    1.62
   3  -2  -4   41.21    1.63
  -3  -2   4   40.91    1.64
  -3  -2   4   42.30    1.69
  -3  -2   4   40.47    1.66
  -3  -2   4   38.45    1.67
   3  -2  -4   41.08    1.64
   3  -2  -4   42.80    1.57
   3   2  -4   40.80    1.56
   3   2  -4   38.24    1.67
  -3   2   4   38.11    1.68
  -3   2   4   39.29    1.65
   3   2  -4   38.65    1.66
   3   2  -4   39.95    1.69
   3   2  -4   39.17    1.63
  -3   2   4   38.92    1.62
  -3   2   4   40.76    1.64
  -3   2   4   38.68    1.64
  -3   2   4   38.72    1.55
   2  -2  -4    1.17    0.22
   2  -2  -4    1.06    0.17
  -2  -2   4    0.93    0.26
  -2  -2   4    1.03    0.27
   2  -2  -4    1.39    0.24
  -2  -2   4    1.20    0.24
  -2  -2   4    0.97    0.25
   2  -2  -4    0.92    0.21
  -2  -2   4    1.10    0.15
   2  -2  -4    0.80    0.16
  -2   2   4    0.94    0.19
  -2   2   4    0.92    0.18
   2   2  -4    0.73    0.19
   2   2  -4    1.08    0.24
   2   2  -4    0.72    0.16
   2   2  -4    0.96    0.23
  -2   2   4    0.74    0.21
  -2   2   4    0.81    0.24
  -2   2   4    0.81    0.18
  -1  -2   4    0.15    0.13
   1  -2  -4    0.24    0.16
  -1  -2   4    0.21    0.19
  -1  -2   4   -0.01    0.20
   1  -2  -4    0.15    0.18
   1  -2  -4    0.32    0.20
  -1  -2   4    0.05    0.22
   1  -2  -4    0.09    0.14
  -1   2   4   -0.20    0.19
  -1   2   4   -0.14    0.16
   1   2  -4   -0.08    0.14
  -1   2   4   -0.06    0.13
  -1   2   4   -0.06    0.18
   1   2  -4   -0.08    0.11
   1   2  -4   -0.16    0.17
  -1   2   4   -0.11    0.12
   1   2  -4   -0.20    0.19
   0  -2   4   11.03    0.56
   0  -2   4   11.99    0.42
   0  -2  -4   11.11    0.45
   0  -2   4    9.60    0.56
   0  -2  -4   11.03    0.51
   0  -2  -4    9.87    0.52
   0  -2  -4   11.02    0.55
   0  -2  -4   10.59    0.47
   0  -2   4   11.71    0.49
   0  -2   4   10.90    0.60
   0   2   4    9.69    0.56
   0   2  -4    9.55    0.53
   0   2  -4   10.61    0.46
   0   2  -4   10.28    0.56
   0   2  -4   10.05    0.52
   0   2  -4   10.82    0.56
   0   2   4   10.43    0.45
   0   2   4    9.85    0.54
   0   2   4   10.81    0.55
   0   2   4   10.20    0.55
   0   2   4    9.95    0.46
   1  -2   4   17.51    0.84
  -1  -2  -4   17.00    0.76
  -1  -2  -4   17.11    0.78
   1  -2   4   17.37    0.80
   1  -2   4   16.20    0.82
  -1  -2  -4   17.30    0.71
   1  -2   4   19.04    0.69
  -1  -2  -4   15.08    0.76
   1  -2   4   18.04    0.74
   1   2   4   16.60    0.77
   1   2   4   17.03    0.79
  -1   2  -4   17.44    0.82
  -1   2  -4   15.89    0.80
  -1   2  -4   16.74    0.74
   1   2   4   16.64    0.78
   1   2   4   17.10    0.67
   1   2   4   17.71    0.68
   1   2   4   16.59    0.67
  -1   2  -4   17.88    0.85
   1   2   4   16.29    0.77
  -1   2  -4   15.79    0.76
  -2  -2  -4   14.70    0.65
   2  -2   4   13.82    0.73
  -2  -2  -4   15.04    0.69
  -2  -2  -4   14.91    0.70
   2  -2   4   14.35    0.72
   2  -2   4   16.35    0.63
   2  -2   4   15.14    0.66
  -2   2  -4   14.77    0.76
   2   2   4   14.27    0.69
   2   2   4   13.76    0.68
   2   2   4   14.20    0.66
  -2   2  -4   13.43    0.67
  -2   2  -4   14.37    0.72
  -2   2  -4   13.76    0.71
   2   2   4   14.14    0.56
  -2   2  -4   14.68    0.64
   2   2   4   13.90    0.69
   3  -2   4    3.91    0.41
  -3  -2  -4    4.02    0.35
  -3  -2  -4    3.48    0.19
  -3  -2  -4    3.68    0.29
   3  -2   4    3.78    0.31
  -3  -2  -4    3.80    0.35
   3  -2   4    4.36    0.42
   3  -2   4    3.98    0.26
  -3   2  -4    3.84    0.39
  -3   2  -4    4.05    0.23
  -3   2  -4    4.00    0.42
  -3   2  -4    3.57    0.31
  -3   2  -4    3.69    0.34
   3   2   4    3.76    0.33
   3   2   4    3.39    0.32
   3   2   4    3.81    0.35
   3   2   4    3.45    0.29
   3   2   4    3.44    0.19
   3   2   4    4.44    0.25
   3   2   4    3.76    0.21
  -4  -2  -4   61.18    2.47
  -4  -2  -4   61.51    2.41
   4  -2   4   64.02    2.47
  -4  -2  -4   60.47    2.48
   4  -2   4   67.28    2.45
   4  -2   4   61.43    2.53
  -4  -2  -4   63.51    2.49
  -4   2  -4   58.79    2.46
  -4   2  -4   60.55    2.53
   4   2   4   61.89    2.48
   4   2   4   60.72    2.50
  -4   2  -4   59.37    2.55
  -4   2  -4   59.94    2.52
  -4   2  -4   57.24    2.53
   4   2   4   59.71    2.49
   4   2   4   60.92    2.43
   4   2   4   66.19    2.46
   5  -2   4   12.53    0.76
  -5  -2  -4   13.68    0.72
  -5  -2  -4   12.95    0.71
  -5  -2  -4   14.53    0.74
   5  -2   4   14.60    0.70
   5  -2   4   13.72    0.66
  -5   2  -4   11.71    0.76
   5   2   4   12.06    0.72
  -5   2  -4   12.88    0.66
   5   2   4   12.58    0.71
   5   2   4   13.41    0.69
  -5   2  -4   13.38    0.81
  -5   2  -4   13.07    0.78
  -5   2  -4   12.93    0.77
  -6  -2  -4   23.56    1.12
   6  -2   4   23.71    1.18
  -6  -2  -4   25.47    1.17
   6  -2   4   26.44    1.13
   6  -2   4   25.57    1.10
  -6  -2  -4   24.69    1.18
  -6   2  -4   24.33    1.19
  -6   2  -4   24.83    1.25
   6   2   4   24.09    1.11
  -6   2  -4   23.18    1.08
   6   2   4   23.40    1.15
  -6   2  -4   24.43    1.22
   6   2   4   23.83    1.15
  -6   2  -4   24.08    1.21
   7  -2   4    1.09    0.30
  -7  -2  -4    1.14    0.31
   7  -2   4    0.86    0.32
  -7  -2  -4    1.36    0.41
  -7  -2  -4    0.61    0.41
   7  -2   4    1.47    0.41
  -7   2  -4    1.53    0.43
   7   2   4    1.08    0.34
   7   2   4    1.11    0.35
  -7   2  -4    1.11    0.43
  -7   2  -4    1.46    0.31
   7   2   4    0.87    0.33
  -7   2  -4    1.22    0.40
  -7   2  -4    1.50    0.41
   8  -2   4   -0.12    0.28
   8  -2   4    0.47    0.39
  -8  -2  -4   -0.44    0.42
  -8  -2  -4    0.25    0.41
   8  -2   4   -0.08    0.31
   8   2   4    0.80    0.34
  -8   2  -4    0.90    0.46
   8   2   4    0.39    0.31
   8   2   4    0.00    0.31
  -8   2  -4    0.35    0.38
  -9  -2  -4    0.32    0.47
   9  -2   4    0.55    0.33
   9  -2   4   -0.17    0.34
  -9   2  -4    1.08    0.45
   9   2   4    0.98    0.37
   9   2   4    0.40    0.36
  -9   2  -4    1.77    0.55
  10  -2   4    0.17    0.33
 -10  -2  -4    0.26    0.56
 -10   2  -4    0.96    0.52
 -10   2  -4    1.17    0.52
  10   2   4    0.71    0.40
  10  -3  -4    0.88    0.35
 -10  -3   4    0.82    0.42
  10   3  -4    0.59    0.45
 -10   3   4    1.01    0.52
 -10   3   4    0.79    0.55
  10   3  -4    1.04    0.45
  -9  -3   4    1.93    0.45
  -9  -3   4    2.39    0.52
   9  -3  -4    2.52    0.47
  -9  -3   4    1.43    0.55
   9  -3  -4    2.10    0.39
   9  -3  -4    1.85    0.36
   9   3  -4    2.42    0.47
  -9   3   4    2.74    0.66
   9   3  -4    1.95    0.48
  -9   3   4    3.03    0.60
  -9   3   4    1.24    0.41
   8  -3  -4    4.17    0.45
  -8  -3   4    3.85    0.60
   8  -3  -4    4.37    0.44
   8  -3  -4    3.53    0.42
  -8  -3   4    4.16    0.53
  -8  -3   4    3.95    0.53
  -8   3   4    4.40    0.57
   8   3  -4    3.50    0.55
   8   3  -4    4.28    0.54
   8   3  -4    4.38    0.51
  -8   3   4    3.61    0.51
  -8   3   4    5.17    0.72
  -7  -3   4    2.44    0.49
   7  -3  -4    2.06    0.38
  -7  -3   4    2.53    0.43
   7  -3  -4    2.12    0.35
   7  -3  -4    2.50    0.39
  -7  -3   4    2.30    0.49
  -7  -3   4    2.62    0.49
   7   3  -4    2.58    0.42
  -7   3   4    2.01    0.41
   7   3  -4    2.67    0.46
  -7   3   4    3.21    0.48
   7   3  -4    2.06    0.48
  -7   3   4    2.77    0.55
  -6  -3   4   35.48    1.58
   6  -3  -4   37.06    1.47
  -6  -3   4   35.47    1.59
   6  -3  -4   36.91    1.53
  -6  -3   4   34.78    1.55
  -6  -3   4   33.26    1.55
   6  -3  -4   36.12    1.50
   6   3  -4   33.52    1.54
  -6   3   4   35.03    1.64
   6   3  -4   33.00    1.58
  -6   3   4   33.39    1.55
   6   3  -4   36.00    1.60
  -6   3   4   33.54    1.54
  -6   3   4   35.46    1.56
   6   3  -4   32.53    1.45
  -5  -3   4    1.31    0.39
   5  -3  -4    1.41    0.28
   5  -3  -4    1.34    0.27
  -5  -3   4    1.41    0.27
  -5  -3   4    1.60    0.41
   5  -3  -4    1.48    0.31
  -5  -3   4    0.88    0.42
   5   3  -4    1.34    0.38
   5   3  -4    1.23    0.28
  -5   3   4    1.22    0.37
  -5   3   4    1.18    0.34
  -5   3   4    1.43    0.29
   5   3  -4    1.41    0.32
  -5   3   4    1.74    0.33
   5   3  -4    1.29    0.21
  -4  -3   4  184.58    7.15
  -4  -3   4  184.22    7.18
   4  -3  -4  181.73    7.12
   4  -3  -4  194.74    7.12
  -4  -3   4  191.74    7.11
   4  -3  -4  190.92    7.14
  -4  -3   4  188.46    7.18
  -4   3   4  176.14    7.16
   4   3  -4  183.37    7.06
  -4   3   4  178.00    7.20
   4   3  -4  181.46    7.19
   4   3  -4  183.96    7.19
  -4   3   4  185.24    7.15
  -4   3   4  179.04    7.14
  -4   3   4  177.85    7.13
   4   3  -4  183.78    7.15
   3  -3  -4    0.33    0.22
  -3  -3   4    0.22    0.30
   3  -3  -4    0.16    0.19
  -3  -3   4    0.38    0.28
  -3  -3   4    0.30    0.21
   3  -3  -4    0.15    0.17
  -3  -3   4    0.30    0.28
  -3   3   4    0.29    0.23
   3   3  -4    0.28    0.10
   3   3  -4    0.21    0.25
   3   3  -4    0.25    0.25
  -3   3   4    0.16    0.20
  -3   3   4    0.06    0.23
   3   3  -4    0.16    0.16
  -3   3   4    0.23    0.18
   3   3  -4    0.23    0.20
  -3   3   4    0.43    0.19
  -2  -3   4    0.67    0.28
  -2  -3   4    0.95    0.26
   2  -3  -4    0.70    0.22
  -2  -3   4    0.91    0.20
  -2  -3   4    0.81    0.12
  -2  -3   4    0.90    0.27
   2  -3  -4    0.95    0.16
   2  -3  -4    0.78    0.22
  -2   3   4    0.75    0.24
  -2   3   4    0.83    0.24
  -2   3   4    0.87    0.16
   2   3  -4    0.69    0.17
  -2   3   4    0.89    0.24
   2   3  -4    0.56    0.22
   2   3  -4    0.83    0.27
   2   3  -4    0.87    0.24
  -2   3   4    1.03    0.21
   2   3  -4    0.73    0.10
   1  -3  -4    1.37    0.24
   1  -3  -4    1.18    0.21
  -1  -3   4    1.26    0.26
  -1  -3   4    1.52    0.28
  -1  -3   4    1.50    0.29
   1  -3  -4    1.44    0.27
  -1  -3   4    1.33    0.10
  -1  -3   4    1.35    0.16
   1  -3  -4    1.29    0.19
  -1   3   4    1.32    0.16
   1   3  -4    1.15    0.22
   1   3  -4    1.57    0.28
  -1   3   4    1.37    0.17
  -1   3   4    1.21    0.24
   1   3  -4    1.43    0.27
  -1   3   4    1.25    0.24
   1   3  -4    1.27    0.17
   1   3  -4    1.26    0.23
  -1   3   4    1.36    0.27
   0  -3   4    4.20    0.38
   0  -3   4    4.52    0.22
   0  -3  -4    4.90    0.20
   0  -3   4    4.39    0.40
   0  -3  -4    4.42    0.36
   0  -3  -4    4.08    0.34
   0  -3  -4    4.05    0.24
   0  -3   4    4.69    0.28
   0  -3  -4    4.41    0.31
   0  -3   4    4.41    0.39
   0   3   4    4.27    0.36
   0   3   4    4.52    0.22
   0   3  -4    4.20    0.37
   0   3  -4    4.55    0.26
   0   3   4    4.12    0.34
   0   3   4    4.00    0.35
   0   3  -4    4.36    0.33
   0   3  -4    4.25    0.33
   0   3  -4    4.39    0.37
   0   3   4    4.36    0.23
   0   3   4    4.74    0.37
   1  -3   4    1.38    0.29
  -1  -3  -4    1.38    0.23
   1  -3   4    1.50    0.28
   1  -3   4    1.48    0.15
  -1  -3  -4    1.54    0.17
   1  -3   4    1.23    0.29
  -1  -3  -4    1.50    0.27
   1  -3   4    1.38    0.22
  -1  -3  -4    1.28    0.23
   1   3   4    1.31    0.26
   1   3   4    1.25    0.23
  -1   3  -4    1.09    0.13
  -1   3  -4    1.29    0.21
  -1   3  -4    1.25    0.23
  -1   3  -4    1.13    0.29
   1   3   4    1.39    0.25
  -1   3  -4    1.35    0.27
  -1   3  -4    1.53    0.29
   1   3   4    1.45    0.25
   2  -3   4    0.53    0.26
  -2  -3  -4    0.52    0.25
  -2  -3  -4    0.54    0.25
   2  -3   4    0.49    0.19
   2  -3   4    0.32    0.25
   2  -3   4    0.61    0.15
  -2  -3  -4    0.56    0.17
  -2   3  -4    0.57    0.15
   2   3   4    0.44    0.21
  -2   3  -4    0.46    0.23
   2   3   4    0.50    0.25
   2   3   4    0.64    0.17
  -2   3  -4    0.58    0.27
   2   3   4    0.53    0.21
  -2   3  -4    0.46    0.25
  -2   3  -4    0.46    0.19
   3  -3   4    0.18    0.17
   3  -3   4    0.35    0.28
  -3  -3  -4    0.05    0.22
  -3  -3  -4    0.43    0.26
   3  -3   4    0.53    0.29
  -3  -3  -4    0.29    0.20
   3  -3   4    0.36    0.21
  -3   3  -4   -0.16    0.25
   3   3   4    0.08    0.22
  -3   3  -4    0.08    0.27
  -3   3  -4    0.27    0.25
   3   3   4   -0.01    0.23
   3   3   4    0.09    0.15
  -3   3  -4    0.18    0.20
  -3   3  -4    0.38    0.29
   3   3   4   -0.02    0.21
   4  -3   4    7.77    0.43
  -4  -3  -4    6.60    0.54
  -4  -3  -4    6.91    0.48
   4  -3   4    6.62    0.57
   4  -3   4    7.71    0.60
  -4  -3  -4    7.18    0.52
   4  -3   4    6.92    0.46
  -4   3  -4    6.92    0.58
   4   3   4    6.38    0.49
   4   3   4    6.02    0.49
  -4   3  -4    6.66    0.54
  -4   3  -4    6.38    0.51
  -4   3  -4    6.85    0.56
   4   3   4    6.99    0.55
  -4   3  -4    6.11    0.45
  -5  -3  -4   69.49    2.80
  -5  -3  -4   72.33    2.83
   5  -3   4   75.18    2.76
  -5  -3  -4   66.35    2.82
   5  -3   4   74.99    2.81
   5  -3   4   69.13    2.88
   5   3   4   66.40    2.79
  -5   3  -4   65.11    2.77
  -5   3  -4   67.64    2.86
  -5   3  -4   68.95    2.87
  -5   3  -4   67.60    2.90
  -5   3  -4   68.29    2.90
   5   3   4   64.86    2.82
   5   3   4   69.62    2.86
   6  -3   4    2.44    0.34
  -6  -3  -4    2.49    0.48
   6  -3   4    2.63    0.52
  -6  -3  -4    2.62    0.45
  -6  -3  -4    2.57    0.44
   6  -3   4    2.52    0.39
  -6   3  -4    3.39    0.56
   6   3   4    2.48    0.47
  -6   3  -4    2.73    0.48
  -6   3  -4    2.42    0.49
  -6   3  -4    2.87    0.47
   6   3   4    2.81    0.42
   6   3   4    2.64    0.36
  -6   3  -4    2.84    0.33
  -7  -3  -4    0.26    0.41
  -7  -3  -4    0.03    0.42
   7  -3   4    0.39    0.43
  -7  -3  -4    0.12    0.31
   7  -3   4   -0.23    0.25
   7  -3   4   -0.19    0.33
  -7   3  -4    0.66    0.42
   7   3   4    0.27    0.29
  -7   3  -4    0.54    0.46
   7   3   4    0.40    0.31
   7   3   4    0.30    0.36
  -7   3  -4    0.39    0.41
  -8  -3  -4    1.10    0.51
   8  -3   4    0.54    0.36
   8  -3   4    0.77    0.33
  -8  -3  -4    0.22    0.49
   8  -3   4    1.24    0.45
   8   3   4    1.07    0.41
   8   3   4    1.18    0.34
  -8   3  -4    0.80    0.45
  -8   3  -4    1.60    0.47
  -8   3  -4    0.68    0.50
   8   3   4    0.98    0.37
   9  -3   4    0.87    0.50
   9  -3   4    0.07    0.32
  -9  -3  -4    0.07    0.48
   9   3   4    0.50    0.38
  -9   3  -4    0.92    0.49
   9   3   4    0.48    0.41
  -9   3  -4    0.91    0.45
  10   3   4    0.87    0.42
 -10   3  -4    1.02    0.57
  10  -4  -4    1.62    0.42
 -10  -4   4    1.86    0.49
 -10  -4   4    0.86    0.60
 -10   4   4    1.97    0.59
 -10   4   4    1.46    0.66
  10   4  -4    1.11    0.53
  10   4  -4    1.25    0.46
  -9  -4   4    0.81    0.53
   9  -4  -4    0.75    0.35
  -9  -4   4   -0.51    0.58
   9  -4  -4    0.07    0.31
   9  -4  -4   -0.30    0.30
  -9  -4   4    0.29    0.43
  -9   4   4    1.04    0.48
   9   4  -4    0.78    0.46
  -9   4   4    1.08    0.65
  -9   4   4   -0.41    0.45
   9   4  -4    1.08    0.43
   8  -4  -4    4.21    0.48
   8  -4  -4    4.55    0.47
  -8  -4   4    4.67    0.69
  -8  -4   4    4.91    0.62
   8  -4  -4    4.67    0.50
  -8  -4   4    4.52    0.58
  -8   4   4    4.94    0.62
   8   4  -4    5.56    0.69
   8   4  -4    3.95    0.67
   8   4  -4    5.39    0.59
  -7  -4   4    9.43    0.79
   7  -4  -4    9.29    0.62
  -7  -4   4    8.19    0.79
  -7  -4   4   10.56    0.77
   7  -4  -4    9.56    0.63
  -7  -4   4    9.73    0.74
   7  -4  -4    9.83    0.68
   7   4  -4    9.68    0.79
  -7   4   4    9.93    0.72
   7   4  -4    9.05    0.77
   7   4  -4    9.91    0.70
  -7   4   4   10.46    0.89
  -7   4   4    8.86    0.69
   6  -4  -4    5.17    0.50
   6  -4  -4    4.89    0.46
  -6  -4   4    5.54    0.57
  -6  -4   4    5.70    0.64
  -6  -4   4    5.03    0.63
   6   4  -4    5.13    0.51
  -6   4   4    7.02    0.79
   6   4  -4    4.94    0.61
  -6   4   4    4.84    0.57
   6   4  -4    4.87    0.60
  -6   4   4    6.11    0.53
  -6   4   4    5.08    0.52
  -5  -4   4   24.28    1.20
   5  -4  -4   23.08    1.09
   5  -4  -4   22.69    1.01
  -5  -4   4   22.22    1.10
  -5  -4   4   21.04    1.12
  -5  -4   4   21.03    1.10
   5  -4  -4   21.83    1.04
  -5   4   4   21.05    1.06
  -5   4   4   21.49    1.06
  -5   4   4   22.94    1.20
  -5   4   4   23.10    1.11
   5   4  -4   21.72    1.14
   5   4  -4   20.84    1.07
   5   4  -4   23.41    1.16
   4  -4  -4    4.55    0.48
  -4  -4   4    4.44    0.54
   4  -4  -4    3.67    0.39
  -4  -4   4    3.82    0.37
  -4  -4   4    3.44    0.58
   4  -4  -4    4.44    0.41
  -4  -4   4    4.47    0.53
  -4   4   4    3.93    0.44
   4   4  -4    3.60    0.46
  -4   4   4    4.35    0.41
  -4   4   4    3.97    0.40
   4   4  -4    3.87    0.38
  -4   4   4    3.45    0.44
   4   4  -4    3.61    0.48
  -4   4   4    3.80    0.53
   3  -4  -4    2.04    0.36
  -3  -4   4    1.68    0.39
   3  -4  -4    2.24    0.37
   3  -4  -4    1.73    0.31
  -3  -4   4    2.33    0.36
  -3  -4   4    1.99    0.42
  -3  -4   4    2.02    0.36
  -3   4   4    1.64    0.37
   3   4  -4    1.93    0.37
   3   4  -4    1.57    0.35
  -3   4   4    1.50    0.32
  -3   4   4    2.03    0.29
   3   4  -4    1.54    0.38
  -3   4   4    2.00    0.36
   3   4  -4    2.05    0.32
  -3   4   4    2.31    0.31
  -2  -4   4   15.66    0.81
  -2  -4   4   13.96    0.81
  -2  -4   4   15.58    0.73
   2  -4  -4   15.35    0.76
   2  -4  -4   15.77    0.66
  -2  -4   4   14.22    0.77
   2  -4  -4   15.93    0.77
   2   4  -4   13.96    0.79
   2   4  -4   14.46    0.72
   2   4  -4   13.91    0.77
   2   4  -4   15.00    0.82
  -2   4   4   13.69    0.76
  -2   4   4   14.30    0.70
  -2   4   4   14.42    0.68
  -2   4   4   15.38    0.80
  -2   4   4   13.90    0.80
   1  -4  -4   -0.07    0.22
  -1  -4   4   -0.12    0.25
  -1  -4   4   -0.16    0.25
   1  -4  -4    0.00    0.18
  -1  -4   4   -0.03    0.21
  -1  -4   4    0.01    0.14
   1  -4  -4   -0.16    0.21
  -1  -4   4    0.16    0.18
  -1   4   4   -0.06    0.23
   1   4  -4   -0.06    0.16
  -1   4   4    0.22    0.13
   1   4  -4    0.02    0.21
   1   4  -4    0.05    0.25
  -1   4   4   -0.12    0.23
   1   4  -4    0.00    0.19
   1   4  -4    0.15    0.25
  -1   4   4   -0.09    0.25
  -1   4   4    0.18    0.14
  -1   4   4   -0.07    0.21
   0  -4   4   -0.02    0.12
   0  -4  -4    0.09    0.23
   0  -4   4    0.11    0.17
   0  -4   4   -0.11    0.26
   0  -4  -4    0.10    0.18
   0  -4   4    0.15    0.23
   0  -4   4   -0.05    0.26
   0  -4  -4    0.23    0.24
   0   4  -4    0.04    0.24
   0   4  -4   -0.04    0.24
   0   4   4   -0.04    0.24
   0   4   4    0.01    0.26
   0   4  -4    0.13    0.20
   0   4  -4    0.06    0.15
   0   4   4    0.08    0.24
   0   4  -4    0.12    0.20
   0   4   4    0.18    0.22
   1  -4   4    0.23    0.29
   1  -4   4    0.23    0.28
   1  -4   4    0.32    0.19
  -1  -4  -4    0.37    0.25
   1  -4   4    0.04    0.14
  -1  -4  -4    0.14    0.23
   1  -4   4   -0.01    0.29
  -1  -4  -4    0.28    0.26
  -1   4  -4    0.04    0.28
  -1   4  -4    0.26    0.19
  -1   4  -4    0.16    0.27
  -1   4  -4   -0.03    0.25
   1   4   4   -0.18    0.23
  -1   4  -4    0.14    0.21
   1   4   4    0.25    0.20
   1   4   4    0.03    0.27
   1   4   4    0.23    0.23
  -2  -4  -4   22.13    0.88
   2  -4   4   19.62    1.03
   2  -4   4   23.05    0.88
  -2  -4  -4   21.22    1.00
   2  -4   4   21.45    0.92
  -2  -4  -4   21.98    0.97
   2  -4   4   20.02    1.02
   2   4   4   19.33    0.97
  -2   4  -4   19.62    1.05
  -2   4  -4   20.65    1.05
  -2   4  -4   18.27    0.99
   2   4   4   20.03    0.91
   2   4   4   19.03    1.02
  -2   4  -4   19.94    1.02
  -2   4  -4   18.85    0.90
   2   4   4   19.14    0.98
  -2   4  -4   18.95    0.95
  -3  -4  -4    6.57    0.50
   3  -4   4    6.56    0.39
  -3  -4  -4    6.16    0.52
   3  -4   4    6.19    0.44
   3  -4   4    7.25    0.63
  -3  -4  -4    6.02    0.41
   3  -4   4    6.54    0.57
  -3   4  -4    6.94    0.60
  -3   4  -4    6.07    0.56
   3   4   4    5.56    0.52
  -3   4  -4    5.92    0.55
  -3   4  -4    5.77    0.51
   3   4   4    5.37    0.48
  -3   4  -4    5.68    0.45
   3   4   4    5.36    0.49
  -4  -4  -4    1.64    0.38
   4  -4   4    1.27    0.24
   4  -4   4    1.53    0.39
   4  -4   4    2.41    0.47
  -4  -4  -4    1.68    0.38
   4  -4   4    1.37    0.31
  -4  -4  -4    1.32    0.31
   4   4   4    1.52    0.34
  -4   4  -4    1.85    0.40
   4   4   4    1.73    0.38
  -4   4  -4    1.92    0.40
  -4   4  -4    1.94    0.43
   4   4   4    1.09    0.29
  -4   4  -4    1.33    0.28
  -4   4  -4    1.22    0.36
  -5  -4  -4    2.95    0.51
  -5  -4  -4    2.40    0.39
   5  -4   4    1.89    0.36
   5  -4   4    3.29    0.52
   5  -4   4    1.67    0.30
  -5  -4  -4    1.86    0.41
   5  -4   4    2.06    0.48
  -5   4  -4    2.42    0.32
  -5   4  -4    2.71    0.54
   5   4   4    2.07    0.38
  -5   4  -4    2.58    0.45
  -5   4  -4    2.45    0.49
  -5   4  -4    1.97    0.48
   5   4   4    1.91    0.43
   5   4   4    1.85    0.34
  -6  -4  -4    2.92    0.56
  -6  -4  -4    2.87    0.54
  -6  -4  -4    2.74    0.51
   6  -4   4    2.11    0.39
   6  -4   4    3.29    0.47
   6  -4   4    2.88    0.59
   6   4   4    2.65    0.49
   6   4   4    2.05    0.41
  -6   4  -4    3.27    0.53
  -6   4  -4    2.65    0.51
   6   4   4    2.94    0.40
  -6   4  -4    2.24    0.53
  -7  -4  -4    6.02    0.60
   7  -4   4    6.35    0.52
  -7  -4  -4    6.13    0.62
   7  -4   4    8.21    0.84
   7  -4   4    5.75    0.58
  -7  -4  -4    5.49    0.66
  -7   4  -4    6.75    0.72
   7   4   4    6.64    0.69
  -7   4  -4    7.35    0.70
   7   4   4    6.69    0.53
   7   4   4    5.91    0.59
  -7   4  -4    7.45    0.88
  -8  -4  -4   -0.21    0.53
  -8  -4  -4    0.82    0.44
  -8  -4  -4    0.77    0.51
   8  -4   4    0.10    0.39
   8  -4   4    1.31    0.53
   8  -4   4    0.05    0.32
  -8   4  -4    1.43    0.53
   8   4   4    1.12    0.40
  -8   4  -4    0.17    0.52
  -8   4  -4    1.65    0.52
   8   4   4    0.71    0.45
  -9  -4  -4    0.65    0.56
   9  -4   4    1.39    0.55
   9  -4   4    0.30    0.39
   9   4   4    0.89    0.44
  -9   4  -4    0.67    0.54
  -9   4  -4    0.08    0.60
   9   4   4    0.97    0.48
  -9  -5   4    0.63    0.57
   9  -5  -4    0.96    0.40
   9  -5  -4    0.11    0.38
   9   5  -4    0.94    0.50
  -9   5   4    1.50    0.53
  -9   5   4   -0.18    0.52
   9   5  -4    0.65    0.53
  -9   5   4    1.41    0.77
   8  -5  -4    2.59    0.51
  -8  -5   4    2.79    0.69
   8  -5  -4    3.45    0.48
   8  -5  -4    2.83    0.50
  -8  -5   4    4.37    0.75
  -8  -5   4    2.98    0.56
   8   5  -4    3.49    0.66
   8   5  -4    3.60    0.76
   8   5  -4    3.14    0.60
  -8   5   4    2.78    0.58
  -8   5   4    4.14    0.84
   7  -5  -4   19.42    1.03
  -7  -5   4   19.04    1.07
   7  -5  -4   20.69    1.07
  -7  -5   4   20.69    1.19
  -7  -5   4   19.45    1.13
   7  -5  -4   19.57    1.07
  -7   5   4   20.47    1.11
  -7   5   4   19.96    1.28
   7   5  -4   17.58    1.14
  -7   5   4   19.83    1.11
   7   5  -4   19.42    1.20
   7   5  -4   19.64    1.13
   6  -5  -4    6.08    0.55
   6  -5  -4    5.83    0.58
  -6  -5   4    4.99    0.63
  -6  -5   4    7.83    0.74
  -6  -5   4    6.10    0.72
  -6   5   4    6.51    0.59
   6   5  -4    6.57    0.59
  -6   5   4    6.83    0.80
   6   5  -4    6.26    0.78
  -6   5   4    7.71    0.64
  -6   5   4    6.08    0.62
   6   5  -4    6.53    0.72
  -5  -5   4    2.02    0.53
  -5  -5   4    1.43    0.46
  -5  -5   4    1.85    0.47
   5  -5  -4    1.60    0.41
   5  -5  -4    1.64    0.35
   5   5  -4    1.99    0.49
  -5   5   4    1.46    0.42
  -5   5   4    2.56    0.44
   5   5  -4    1.73    0.42
  -5   5   4    2.43    0.55
   5   5  -4    1.70    0.36
   4  -5  -4    0.68    0.32
   4  -5  -4    0.85    0.39
  -4  -5   4    0.30    0.37
   4  -5  -4    1.00    0.31
  -4  -5   4    0.89    0.38
  -4   5   4    1.08    0.28
   4   5  -4    1.05    0.37
  -4   5   4    0.88    0.35
   4   5  -4    1.18    0.30
  -4   5   4    1.70    0.34
   4   5  -4    1.14    0.40
  -4   5   4    1.00    0.38
  -4   5   4    1.10    0.44
   3  -5  -4   25.66    1.20
  -3  -5   4   25.40    1.21
  -3  -5   4   25.80    1.16
  -3  -5   4   24.72    1.26
   3  -5  -4   26.46    1.23
   3  -5  -4   26.94    1.18
  -3  -5   4   25.46    1.26
  -3   5   4   23.47    1.13
  -3   5   4   24.88    1.17
  -3   5   4   26.56    1.24
  -3   5   4   24.43    1.22
  -3   5   4   26.06    1.31
   3   5  -4   24.55    1.19
   3   5  -4   24.82    1.25
   3   5  -4   25.21    1.26
   3   5  -4   28.52    1.34
  -2  -5   4    3.59    0.54
   2  -5  -4    4.10    0.49
   2  -5  -4    3.28    0.39
   2  -5  -4    3.47    0.43
  -2  -5   4    3.91    0.53
  -2  -5   4    3.90    0.43
  -2  -5   4    3.58    0.59
  -2   5   4    4.34    0.61
   2   5  -4    3.52    0.38
  -2   5   4    3.78    0.45
   2   5  -4    3.88    0.53
  -2   5   4    4.30    0.47
   2   5  -4    4.16    0.48
   2   5  -4    3.81    0.51
  -1  -5   4   11.00    0.54
   1  -5  -4   11.41    0.67
  -1  -5   4   10.14    0.71
   1  -5  -4   12.32    0.59
   1  -5  -4    9.99    0.65
  -1  -5   4   10.18    0.68
  -1  -5   4   10.24    0.69
  -1  -5   4   11.09    0.69
   1   5  -4   10.04    0.70
  -1   5   4   12.18    0.76
  -1   5   4    9.92    0.66
   1   5  -4    9.93    0.58
   1   5  -4   10.79    0.72
  -1   5   4    9.89    0.67
   1   5  -4   10.37    0.69
   1   5  -4   10.57    0.70
  -1   5   4   10.71    0.71
   0  -5   4    0.48    0.33
   0  -5  -4    0.24    0.25
   0  -5  -4   -0.15    0.27
   0  -5   4    0.35    0.20
   0  -5   4    0.24    0.32
   0  -5   4    0.40    0.31
   0  -5  -4   -0.07    0.28
   0   5   4    0.03    0.32
   0   5   4    0.18    0.30
   0   5  -4    0.18    0.25
   0   5  -4    0.05    0.29
   0   5   4   -0.04    0.27
   0   5  -4    0.28    0.30
   0   5  -4   -0.03    0.25
   0   5   4    0.24    0.25
  -1  -5  -4    5.32    0.46
  -1  -5  -4    5.34    0.50
   1  -5   4    4.92    0.53
  -1  -5  -4    4.75    0.48
   1  -5   4    4.46    0.51
   1  -5   4    6.09    0.60
   1  -5   4    5.71    0.42
  -1   5  -4    4.66    0.52
   1   5   4    4.62    0.45
  -1   5  -4    4.36    0.44
  -1   5  -4    4.76    0.43
   1   5   4    4.56    0.48
   1   5   4    4.41    0.52
  -1   5  -4    4.89    0.54
   1   5   4    5.85    0.51
   2  -5   4    9.18    0.63
  -2  -5  -4    9.59    0.66
  -2  -5  -4    9.44    0.64
   2  -5   4    9.26    0.68
   2  -5   4   10.51    0.75
   2  -5   4    9.03    0.55
  -2  -5  -4    7.77    0.60
  -2   5  -4    9.50    0.71
  -2   5  -4    9.31    0.70
   2   5   4    9.44    0.68
  -2   5  -4    9.50    0.70
   2   5   4    8.25    0.58
   2   5   4    8.90    0.63
  -2   5  -4    8.82    0.61
  -2   5  -4   10.03    0.74
   3  -5   4   19.20    1.07
  -3  -5  -4   20.37    0.99
   3  -5   4   18.05    1.05
  -3  -5  -4   19.93    1.04
   3  -5   4   20.73    0.95
   3  -5   4   22.08    0.91
  -3   5  -4   18.77    0.95
  -3   5  -4   20.88    1.14
  -3   5  -4   18.92    1.04
   3   5   4   18.07    1.00
   3   5   4   18.92    1.05
  -3   5  -4   18.64    1.07
  -3   5  -4   19.60    1.07
   3   5   4   18.42    0.96
  -4  -5  -4    5.12    0.55
   4  -5   4    5.10    0.43
   4  -5   4    4.68    0.47
  -4  -5  -4    5.47    0.57
   4  -5   4    5.46    0.64
  -4   5  -4    4.92    0.69
  -4   5  -4    5.25    0.65
  -4   5  -4    4.56    0.89
   4   5   4    4.77    0.56
   4   5   4    4.39    0.50
  -4   5  -4    5.40    0.63
   4   5   4    5.01    0.49
  -4   5  -4    5.60    0.48
  -5  -5  -4    0.68    0.45
  -5  -5  -4    0.52    0.44
   5  -5   4    0.26    0.32
   5  -5   4   -0.14    0.27
  -5  -5  -4    0.29    0.38
   5  -5   4    0.60    0.47
  -5   5  -4    0.89    0.43
   5   5   4    0.20    0.32
   5   5   4    0.17    0.35
  -5   5  -4    0.34    0.36
  -5   5  -4    0.18    0.46
   5   5   4    0.52    0.28
  -6  -5  -4    3.39    0.60
   6  -5   4    4.79    0.71
  -6  -5  -4    4.31    0.66
  -6  -5  -4    3.53    0.50
   6  -5   4    3.41    0.50
   6  -5   4    3.34    0.47
  -6   5  -4    4.62    0.75
  -6   5  -4    5.29    0.71
   6   5   4    5.02    0.49
  -6   5  -4    3.51    0.75
   6   5   4    3.96    0.64
   6   5   4    4.16    0.53
   7  -5   4    0.09    0.40
  -7  -5  -4    0.71    0.46
  -7  -5  -4    0.04    0.60
  -7  -5  -4    0.63    0.47
   7  -5   4    1.31    0.58
   7   5   4    0.64    0.43
  -7   5  -4    0.01    0.55
   7   5   4    0.91    0.39
  -7   5  -4    0.88    0.52
  -7   5  -4    1.07    0.47
   8  -5   4    4.70    0.54
  -8  -5  -4    4.73    0.80
  -8  -5  -4    5.25    0.73
   8  -5   4    4.19    0.61
  -8  -5  -4    5.10    0.74
   8  -5   4    6.17    0.81
  -8   5  -4    4.19    0.80
   8   5   4    5.16    0.74
  -8   5  -4    5.33    0.78
   8   5   4    5.85    0.69
   8  -6  -4    2.39    0.48
   8  -6  -4    1.56    0.46
  -8  -6   4    0.45    0.75
  -8  -6   4    2.68    0.77
   8  -6  -4    0.87    0.46
  -8   6   4    3.24    0.83
   8   6  -4    1.98    0.58
   8   6  -4    2.10    0.53
  -8   6   4    1.72    0.58
  -7  -6   4    2.14    0.62
   7  -6  -4    1.69    0.42
   7  -6  -4    0.69    0.45
  -7  -6   4    0.78    0.66
   7   6  -4    1.36    0.63
  -7   6   4    3.31    0.65
   7   6  -4    1.80    0.58
   7   6  -4    1.80    0.51
  -7   6   4    2.73    0.76
  -7   6   4    1.22    0.53
   6  -6  -4    7.96    0.80
  -6  -6   4    9.38    0.87
  -6  -6   4    9.88    0.82
  -6  -6   4    7.46    0.75
   6  -6  -4    9.89    0.76
  -6   6   4   10.61    0.73
   6   6  -4   10.05    0.80
   6   6  -4    8.80    0.88
   6   6  -4    9.90    0.90
  -6   6   4    9.41    0.78
  -5  -6   4    0.49    0.53
  -5  -6   4    0.75    0.49
   5  -6  -4    0.21    0.34
  -5  -6   4   -0.17    0.39
   5  -6  -4   -0.07    0.41
  -5   6   4    0.68    0.29
  -5   6   4    1.39    0.59
   5   6  -4    0.40    0.44
  -5   6   4    0.47    0.41
   5   6  -4    0.91    0.36
   5   6  -4    0.31    0.47
   4  -6  -4    0.20    0.31
  -4  -6   4   -0.17    0.41
  -4  -6   4    0.25    0.52
   4  -6  -4   -0.25    0.42
  -4  -6   4    0.50    0.42
  -4   6   4    0.01    0.36
   4   6  -4    0.50    0.39
   4   6  -4    0.47    0.43
  -4   6   4    0.70    0.55
   4   6  -4    0.32    0.29
  -4   6   4    0.26    0.38
   3  -6  -4    2.24    0.44
  -3  -6   4    2.57    0.49
   3  -6  -4    2.64    0.41
  -3  -6   4    1.90    0.43
   3  -6  -4    2.99    0.49
  -3  -6   4    2.60    0.55
  -3   6   4    2.70    0.49
   3   6  -4    2.75    0.56
   3   6  -4    3.07    0.54
   3   6  -4    2.58    0.43
   3   6  -4    2.62    0.52
  -3   6   4    2.55    0.48
  -2  -6   4   12.13    0.82
   2  -6  -4   10.97    0.70
  -2  -6   4   11.25    0.75
   2  -6  -4   13.25    0.79
   2  -6  -4   13.42    0.82
  -2  -6   4   12.04    0.73
  -2  -6   4   12.46    0.83
   2   6  -4   11.30    0.72
  -2   6   4   11.79    0.83
   2   6  -4   11.64    0.79
   2   6  -4   12.15    0.86
  -2   6   4   11.36    0.76
  -2   6   4   13.10    0.86
   2   6  -4   11.82    0.86
  -1  -6   4   -0.16    0.34
   1  -6  -4    0.43    0.38
   1  -6  -4    0.41    0.36
  -1  -6   4    0.53    0.40
  -1  -6   4    0.23    0.32
  -1  -6   4    0.40    0.36
  -1   6   4    0.10    0.34
  -1   6   4    0.58    0.39
  -1   6   4    0.26    0.33
   1   6  -4    0.17    0.33
   1   6  -4   -0.01    0.32
  -1   6   4    0.14    0.39
   1   6  -4    0.04    0.38
   1   6  -4   -0.10    0.35
   0  -6   4    1.35    0.42
   0  -6  -4    0.78    0.31
   0  -6   4    0.72    0.25
   0  -6  -4    1.57    0.43
   0  -6   4    0.32    0.33
   0  -6   4    0.83    0.40
   0  -6  -4    1.05    0.37
   0   6  -4    0.48    0.37
   0   6   4    0.46    0.35
   0   6  -4    0.74    0.32
   0   6   4    0.60    0.41
   0   6  -4    0.74    0.39
   0   6   4    1.00    0.36
   0   6  -4    0.49    0.33
   0   6   4    0.82    0.34
  -1  -6  -4    0.92    0.34
   1  -6   4    1.38    0.42
  -1  -6  -4    0.68    0.36
   1  -6   4    1.56    0.45
   1  -6   4    0.42    0.27
  -1  -6  -4    0.49    0.38
   1  -6   4    0.86    0.35
   1   6   4    0.49    0.35
  -1   6  -4    0.99    0.39
  -1   6  -4    0.58    0.36
   1   6   4    0.53    0.31
   1   6   4    0.02    0.38
  -1   6  -4    0.81    0.35
  -2  -6  -4    5.02    0.53
   2  -6   4    5.64    0.58
   2  -6   4    5.07    0.44
   2  -6   4    6.56    0.70
  -2  -6  -4    5.08    0.65
  -2  -6  -4    4.97    0.52
   2   6   4    5.14    0.50
   2   6   4    5.25    0.54
   2   6   4    4.74    0.61
  -2   6  -4    5.47    0.77
  -2   6  -4    5.01    0.60
  -2   6  -4    4.56    0.62
  -2   6  -4    5.27    0.54
  -3  -6  -4    5.02    0.56
   3  -6   4    5.16    0.66
  -3  -6  -4    5.27    0.61
   3  -6   4    5.32    0.49
   3   6   4    5.24    0.62
  -3   6  -4    5.67    0.52
   3   6   4    5.46    0.49
  -3   6  -4    5.57    0.62
  -3   6  -4    5.47    0.67
   3   6   4    5.31    0.56
  -3   6  -4    5.37    0.73
  -4  -6  -4    0.15    0.43
   4  -6   4    1.03    0.55
  -4  -6  -4   -0.07    0.48
   4  -6   4    0.13    0.33
   4   6   4    0.53    0.30
   4   6   4    0.12    0.44
  -4   6  -4    0.35    0.49
  -4   6  -4    0.33    0.39
   4   6   4    0.33    0.35
  -4   6  -4   -0.08    0.54
   5  -6   4    0.87    0.40
  -5  -6  -4    0.80    0.55
  -5  -6  -4    1.76    0.54
   5  -6   4    1.86    0.61
   5   6   4    1.67    0.52
   5   6   4    0.73    0.50
  -5   6  -4    1.83    0.56
   5   6   4    1.18    0.41
  -5   6  -4    0.62    0.60
  -5   6  -4    1.35    0.61
  -6  -6  -4    3.61    0.62
   6  -6   4    1.97    0.48
  -6   6  -4    3.28    0.68
   6   6   4    2.09    0.48
  -6   6  -4    2.66    0.73
   6   6   4    2.33    0.55
   7  -6   4    2.59    0.59
  -7  -6  -4    1.85    0.77
   7  -6   4    4.76    0.89
  -7  -6  -4    3.19    0.64
   7   6   4    3.38    0.57
   7   6   4    2.63    0.60
  -7   6  -4    3.30    0.73
  -7   6  -4    4.36    0.70
  -7   6  -4    2.40    0.85
  -7  -7   4    1.56    0.68
   7  -7  -4    1.28    0.44
  -7  -7   4   -0.55    0.66
   7  -7  -4   -0.12    0.42
   7   7  -4    0.90    0.55
  -7   7   4    1.60    0.78
   7   7  -4    1.27    0.53
  -7   7   4    0.38    0.55
   7   7  -4    0.28    0.67
   6  -7  -4    4.09    0.59
  -6  -7   4    4.48    0.91
   6  -7  -4    4.03    0.72
  -6  -7   4    6.38    0.75
   6   7  -4    5.01    0.84
   6   7  -4    4.93    0.74
  -6   7   4    3.96    0.69
   6   7  -4    6.47    0.75
   5  -7  -4    2.32    0.48
   5  -7  -4    1.35    0.62
  -5  -7   4    2.82    0.75
   5   7  -4    2.28    0.52
   5   7  -4    3.29    0.74
   5   7  -4    2.75    0.64
  -5   7   4    2.54    0.61
  -4  -7   4    5.73    0.82
  -4  -7   4    5.98    0.69
   4  -7  -4    6.45    0.60
   4  -7  -4    5.83    0.67
  -4  -7   4    5.19    0.71
   4   7  -4    6.62    0.72
  -4   7   4    5.63    0.69
   4   7  -4    6.75    0.67
   4   7  -4    6.36    0.78
  -4   7   4    6.20    0.75
  -3  -7   4    1.71    0.55
   3  -7  -4    0.33    0.45
  -3  -7   4    0.64    0.55
   3  -7  -4   -0.52    0.45
   3  -7  -4    0.78    0.35
  -3  -7   4    0.54    0.44
   3   7  -4    0.32    0.51
   3   7  -4    0.81    0.36
   3   7  -4    0.50    0.42
  -3   7   4    0.52    0.47
  -3   7   4    1.39    0.56
  -3   7   4    0.17    0.42
   2  -7  -4    0.60    0.31
  -2  -7   4    0.97    0.54
   2  -7  -4    0.10    0.42
  -2  -7   4    0.06    0.42
   2  -7  -4   -0.19    0.36
   2   7  -4    0.12    0.41
  -2   7   4   -0.19    0.41
   2   7  -4   -0.30    0.47
   2   7  -4   -0.01    0.41
  -2   7   4    0.38    0.51
  -2   7   4   -0.25    0.39
  -1  -7   4    0.24    0.37
   1  -7  -4   -0.03    0.43
  -1  -7   4    0.52    0.43
  -1  -7   4    1.19    0.55
   1  -7  -4    0.39    0.43
   1   7  -4   -0.07    0.37
   1   7  -4   -0.31    0.43
   1   7  -4   -0.13    0.37
  -1   7   4    0.43    0.45
  -1   7   4    0.08    0.39
  -1   7   4    0.05    0.35
   0  -7   4    0.37    0.41
   0  -7  -4    1.17    0.45
   0  -7   4    1.56    0.52
   0  -7  -4    0.28    0.43
   0   7  -4    0.29    0.46
   0   7   4    0.01    0.46
   0   7   4    0.34    0.39
   0   7  -4    0.42    0.40
   0   7  -4    0.23    0.41
   0   7   4    0.39    0.37
   0   7  -4    0.53    0.46
  -1  -7  -4    0.78    0.42
   1  -7   4    0.07    0.41
  -1  -7  -4   -0.35    0.36
   1  -7   4    0.27    0.41
  -1  -7  -4   -0.45    0.41
  -1   7  -4   -0.13    0.39
   1   7   4    0.29    0.38
   1   7   4    0.37    0.37
   1   7   4   -0.46    0.42
  -1   7  -4    0.07    0.32
  -1   7  -4   -0.05    0.43
   2  -7   4    0.05    0.49
  -2  -7  -4    0.94    0.40
  -2  -7  -4    0.14    0.46
   2  -7   4    0.08    0.32
  -2  -7  -4   -0.37    0.37
   2   7   4   -0.14    0.44
  -2   7  -4    0.09    0.38
   2   7   4    0.43    0.39
  -2   7  -4   -0.17    0.51
  -2   7  -4    0.28    0.35
   2   7   4    0.37    0.36
  -2   7  -4    0.01    0.48
   3  -7   4    0.52    0.40
  -3  -7  -4    0.62    0.51
  -3  -7  -4    1.43    0.39
   3  -7   4    1.10    0.52
  -3  -7  -4    0.18    0.44
  -3   7  -4    1.12    0.50
  -3   7  -4    0.08    0.52
   3   7   4    0.03    0.46
  -3   7  -4    0.07    0.52
   3   7   4    0.52    0.40
   3   7   4    1.13    0.38
  -4  -7  -4    5.57    0.70
   4  -7   4    6.77    0.78
  -4  -7  -4    5.83    0.76
   4  -7   4    5.44    0.62
   4   7   4    3.46    0.69
  -4   7  -4    4.58    0.77
  -4   7  -4    5.45    0.76
   4   7   4    4.63    0.62
  -4   7  -4    4.54    0.87
  -5  -7  -4    6.18    0.76
  -5  -7  -4    8.08    0.86
   5  -7   4    5.48    0.63
   5   7   4    5.73    0.67
   5   7   4    6.64    0.79
  -5   7  -4    7.38    1.00
  -5   7  -4    7.52    0.88
  -5   7  -4    8.12    0.85
  -6  -7  -4    1.26    0.73
  -6  -7  -4    2.79    0.71
   6  -7   4    3.32    0.80
   6  -7   4    2.46    0.58
   6   7   4    2.30    0.52
  -6   7  -4    2.44    0.70
  -6   7  -4    1.56    0.80
   6   7   4    1.87    0.65
   5  -8  -4    6.75    0.91
  -5  -8   4    7.95    0.85
  -5  -8   4    6.89    0.88
   5  -8  -4    6.94    0.72
   5   8  -4    8.15    0.97
  -5   8   4    8.05    0.92
   5   8  -4    7.98    0.83
   5   8  -4    8.97    0.99
  -4  -8   4    1.05    0.70
   4  -8  -4    1.56    0.45
  -4  -8   4    2.26    0.66
   4  -8  -4    0.26    0.62
  -4   8   4    1.11    0.55
   4   8  -4    0.70    0.61
  -4   8   4    0.14    0.54
   4   8  -4    0.88    0.58
   3  -8  -4    4.96    0.63
  -3  -8   4    6.12    0.83
   3  -8  -4    4.91    0.79
  -3  -8   4    6.07    0.79
  -3   8   4    4.21    0.68
  -3   8   4    3.80    0.71
   3   8  -4    5.15    0.81
   3   8  -4    4.36    0.86
  -2  -8   4    1.79    0.50
  -2  -8   4    1.74    0.61
   2  -8  -4    1.86    0.42
   2  -8  -4    0.43    0.54
   2  -8  -4    1.76    0.62
  -2   8   4    2.66    0.77
   2   8  -4    0.42    0.53
  -2   8   4    1.62    0.50
   2   8  -4    1.51    0.61
  -2   8   4    0.91    0.52
   2   8  -4    1.42    0.50
   1  -8  -4    0.45    0.49
   1  -8  -4    0.45    0.31
  -1  -8   4    1.31    0.46
  -1  -8   4    0.53    0.53
  -1  -8   4    0.19    0.51
   1  -8  -4   -0.05    0.51
   1   8  -4    0.14    0.50
   1   8  -4    0.28    0.43
  -1   8   4   -0.70    0.42
   1   8  -4   -0.12    0.46
  -1   8   4    0.44    0.43
   0  -8   4    1.66    0.56
   0  -8  -4    1.60    0.54
   0  -8  -4    0.21    0.49
   0   8  -4   -0.66    0.47
   0   8   4    0.66    0.43
   0   8   4    0.48    0.44
   0   8   4   -0.51    0.52
   0   8  -4    0.20    0.53
   0   8  -4    0.18    0.44
  -1  -8  -4   -0.20    0.49
  -1  -8  -4    1.20    0.50
   1  -8   4    0.62    0.53
  -1   8  -4   -0.04    0.45
   1   8   4    0.35    0.39
  -1   8  -4   -0.54    0.45
   1   8   4    0.13    0.44
   1   8   4   -0.45    0.56
   2  -8   4    0.82    0.58
  -2  -8  -4    1.40    0.51
  -2  -8  -4   -0.39    0.56
  -2   8  -4    0.12    0.45
   2   8   4   -0.11    0.44
   2   8   4    0.98    0.40
  -3  -8  -4    3.30    0.66
   3  -8   4    1.67    0.44
  -3   8  -4    2.25    0.61
  -3   8  -4    1.78    0.72
   3   8   4    2.19    0.53
   3   8   4    1.60    0.65
   4  -8   4    2.69    0.53
  -4  -8  -4    2.16    0.64
  -4  -8  -4    4.17    0.82
  -4   8  -4    4.57    0.79
  -4   8  -4    3.86    0.90
   4   8   4    3.20    0.76
   4   8   4    3.92    0.64
  -4   8  -4    3.71    0.73
  11   0  -5    6.63    0.70
  11   0  -5    8.20    0.68
  10   0  -5    1.21    0.39
 -10   0   5    0.65    0.42
   9   0  -5    0.38    0.29
  -9   0   5   -0.55    0.40
   9   0  -5   -0.08    0.21
  -9   0   5    0.44    0.39
  -8   0   5    0.94    0.36
  -8   0   5    1.68    0.42
   8   0  -5    1.29    0.26
   8   0  -5    1.46    0.32
   7   0  -5   15.24    0.72
  -7   0   5   14.61    0.79
  -7   0   5   15.18    0.88
   7   0  -5   14.35    0.81
  -7   0   5   15.04    0.90
   7   0  -5   15.13    0.79
  -7   0   5   15.00    0.88
   6   0  -5   27.58    1.21
  -6   0   5   28.27    1.28
   6   0  -5   28.24    1.14
  -6   0   5   26.34    1.26
  -6   0   5   27.68    1.22
   6   0  -5   25.66    1.18
   6   0  -5   25.62    1.22
  -6   0   5   27.70    1.25
  -5   0   5    6.86    0.39
  -5   0   5    7.12    0.54
   5   0  -5    6.58    0.43
   5   0  -5    6.87    0.37
   5   0  -5    6.84    0.43
  -5   0   5    7.15    0.51
  -5   0   5    7.36    0.48
  -5   0   5    7.27    0.51
   5   0  -5    6.49    0.46
  -4   0   5   11.43    0.63
  -4   0   5   11.28    0.59
  -4   0   5   11.75    0.65
  -4   0   5   10.81    0.63
   4   0  -5   11.48    0.51
   4   0  -5   11.09    0.59
   4   0  -5   11.98    0.58
  -4   0   5   12.14    0.55
   4   0  -5   11.24    0.56
  -3   0   5   59.21    2.34
  -3   0   5   56.14    2.31
   3   0  -5   59.37    2.34
  -3   0   5   57.63    2.30
   3   0  -5   59.77    2.31
   3   0  -5   56.33    2.31
  -3   0   5   58.84    2.36
   3   0  -5   58.39    2.26
  -3   0   5   57.12    2.36
   2   0  -5   24.03    1.01
  -2   0   5   24.96    1.06
   2   0  -5   26.10    1.05
  -2   0   5   26.21    1.13
  -2   0   5   26.42    1.11
   2   0  -5   25.93    1.09
   2   0  -5   23.76    1.07
  -2   0   5   24.70    1.07
  -2   0   5   25.91    1.09
  -2   0   5   26.93    1.03
   2   0  -5   24.44    1.07
   1   0  -5    4.03    0.26
   1   0  -5    3.56    0.30
  -1   0   5    4.59    0.34
   1   0  -5    3.75    0.30
   1   0  -5    4.11    0.31
   0   0   5    5.01    0.38
   0   0   5    4.36    0.32
   0   0  -5    4.49    0.26
   0   0  -5    3.96    0.33
   0   0  -5    4.37    0.38
   0   0   5    4.67    0.39
   0   0   5    4.55    0.34
   0   0   5    4.42    0.26
   0   0  -5    4.29    0.32
   0   0   5    4.18    0.30
   0   0  -5    4.41    0.32
  -1   0  -5   75.02    2.99
   1   0   5   78.08    2.98
  -1   0  -5   77.58    2.97
  -1   0  -5   72.45    2.99
   1   0   5   75.49    3.00
  -1   0  -5   73.22    2.92
  -1   0  -5   78.47    2.99
   1   0   5   73.41    2.97
   1   0   5   76.43    3.00
   1   0   5   77.37    2.95
  -1   0  -5   75.57    2.97
   1   0   5   74.73    2.98
   2   0   5    4.53    0.35
  -2   0  -5    4.25    0.33
  -2   0  -5    4.33    0.24
  -2   0  -5    4.59    0.34
  -2   0  -5    4.68    0.33
  -2   0  -5    4.25    0.31
   2   0   5    4.56    0.36
   2   0   5    4.63    0.33
   2   0   5    4.99    0.35
   2   0   5    4.52    0.31
  -3   0  -5    5.18    0.39
   3   0   5    5.16    0.37
  -3   0  -5    4.67    0.34
   3   0   5    5.34    0.30
  -3   0  -5    5.12    0.27
  -3   0  -5    4.74    0.37
  -3   0  -5    5.09    0.35
   3   0   5    4.71    0.35
  -3   0  -5    5.40    0.38
   3   0   5    5.46    0.39
   3   0   5    4.84    0.38
  -4   0  -5    5.05    0.35
   4   0   5    4.31    0.40
   4   0   5    4.10    0.38
  -4   0  -5    4.15    0.36
  -4   0  -5    4.12    0.38
  -4   0  -5    4.71    0.40
  -4   0  -5    4.32    0.39
   4   0   5    3.99    0.29
   4   0   5    4.15    0.39
   4   0   5    4.77    0.38
  -5   0  -5    2.13    0.33
  -5   0  -5    2.26    0.36
  -5   0  -5    2.04    0.36
  -5   0  -5    1.43    0.29
   5   0   5    2.73    0.36
   5   0   5    2.09    0.35
  -5   0  -5    2.06    0.38
   5   0   5    1.95    0.31
   5   0   5    1.87    0.32
  -6   0  -5    0.21    0.25
   6   0   5   -0.08    0.30
  -6   0  -5    0.05    0.32
  -6   0  -5   -0.15    0.31
   6   0   5    0.07    0.25
  -6   0  -5    0.02    0.23
   6   0   5   -0.23    0.25
   7   0   5    0.02    0.30
   7   0   5    0.41    0.29
  -7   0  -5    0.75    0.39
  -7   0  -5    0.21    0.35
   8   0   5    0.90    0.36
   8   0   5    0.15    0.36
  -8   0  -5   -0.15    0.40
  -8   0  -5    1.18    0.45
  -9   0  -5   11.90    0.85
   9   0   5   12.39    0.80
  -9   0  -5   14.28    0.94
   9   0   5   10.67    0.80
  10   0   5    3.45    0.55
 -10   0  -5    5.09    0.73
  11  -1  -5    7.06    0.70
 -11  -1   5    6.38    0.73
  11   1  -5    6.60    0.71
 -11   1   5    7.78    0.86
 -10  -1   5    0.79    0.43
 -10  -1   5   -0.74    0.48
  10  -1  -5   -0.12    0.23
  10  -1  -5    0.86    0.35
 -10   1   5    1.00    0.47
  10   1  -5    0.82    0.39
  -9  -1   5    3.18    0.54
  -9  -1   5    4.15    0.65
   9  -1  -5    3.90    0.46
  -9   1   5    4.54    0.65
   9   1  -5    4.48    0.55
  -9   1   5    4.46    0.62
   9   1  -5    4.03    0.53
  -8  -1   5    0.90    0.40
   8  -1  -5    1.06    0.26
   8  -1  -5    1.42    0.32
  -8  -1   5    0.96    0.44
   8   1  -5    1.21    0.33
   8   1  -5    1.27    0.25
  -8   1   5    1.03    0.35
  -8   1   5    1.60    0.42
  -8   1   5    1.59    0.47
   8   1  -5    2.00    0.39
  -7  -1   5    8.67    0.64
   7  -1  -5    9.20    0.58
   7  -1  -5    8.85    0.52
  -7  -1   5    8.53    0.58
  -7  -1   5    9.72    0.64
  -7  -1   5    9.17    0.66
  -7  -1   5    8.54    0.67
   7  -1  -5    9.47    0.60
   7   1  -5    8.69    0.58
  -7   1   5    8.65    0.57
  -7   1   5    9.81    0.66
  -7   1   5    9.13    0.65
  -7   1   5   10.24    0.76
   7   1  -5    8.38    0.58
   7   1  -5    8.79    0.49
   7   1  -5    8.22    0.60
   6  -1  -5    3.05    0.36
  -6  -1   5    2.90    0.43
  -6  -1   5    3.28    0.48
  -6  -1   5    2.86    0.45
   6  -1  -5    2.62    0.30
  -6  -1   5    2.36    0.48
   6  -1  -5    2.69    0.34
  -6   1   5    2.69    0.46
  -6   1   5    2.41    0.31
  -6   1   5    3.27    0.36
   6   1  -5    2.74    0.37
   6   1  -5    2.81    0.34
   6   1  -5    2.86    0.37
  -6   1   5    3.32    0.44
   6   1  -5    2.79    0.25
  -6   1   5    2.80    0.42
   5  -1  -5    1.41    0.24
   5  -1  -5    1.64    0.32
   5  -1  -5    1.80    0.23
   5  -1  -5    1.32    0.26
  -5  -1   5    2.25    0.41
  -5  -1   5    2.20    0.35
  -5  -1   5    1.15    0.37
  -5   1   5    1.58    0.28
  -5   1   5    2.33    0.30
   5   1  -5    1.41    0.27
  -5   1   5    1.87    0.38
  -5   1   5    2.05    0.37
  -5   1   5    1.93    0.35
   5   1  -5    2.22    0.33
   5   1  -5    1.56    0.30
   5   1  -5    1.52    0.18
   4  -1  -5    4.01    0.32
  -4  -1   5    4.10    0.45
  -4  -1   5    4.47    0.42
   4  -1  -5    4.70    0.29
   4  -1  -5    3.73    0.26
   4  -1  -5    4.22    0.35
  -4  -1   5    4.19    0.41
  -4  -1   5    4.63    0.42
  -4   1   5    4.34    0.42
  -4   1   5    4.20    0.41
   4   1  -5    4.10    0.36
  -4   1   5    4.12    0.31
  -4   1   5    4.54    0.34
   4   1  -5    4.07    0.35
   4   1  -5    3.75    0.32
   4   1  -5    3.89    0.23
  -4   1   5    4.36    0.37
  -3  -1   5    5.94    0.31
  -3  -1   5    6.00    0.49
   3  -1  -5    5.68    0.33
  -3  -1   5    5.73    0.43
   3  -1  -5    5.96    0.36
   3  -1  -5    5.43    0.31
  -3  -1   5    5.57    0.42
  -3  -1   5    5.57    0.42
   3  -1  -5    5.93    0.38
  -3   1   5    5.63    0.38
  -3   1   5    6.19    0.43
   3   1  -5    5.69    0.26
   3   1  -5    5.17    0.36
   3   1  -5    5.84    0.34
   3   1  -5    5.39    0.38
  -3   1   5    5.34    0.43
  -3   1   5    5.37    0.37
  -3   1   5    5.47    0.32
   3   1  -5    5.65    0.41
   2  -1  -5   30.58    1.26
   2  -1  -5   30.12    1.25
   2  -1  -5   28.71    1.22
  -2  -1   5   30.15    1.29
  -2  -1   5   31.01    1.31
  -2  -1   5   31.01    1.23
  -2  -1   5   29.95    1.29
   2  -1  -5   28.04    1.23
  -2  -1   5   31.48    1.31
   2  -1  -5   32.14    1.28
  -2   1   5   31.04    1.28
  -2   1   5   31.95    1.26
  -2   1   5   29.54    1.22
  -2   1   5   31.32    1.32
  -2   1   5   29.39    1.27
   2   1  -5   28.83    1.28
   2   1  -5   31.09    1.24
   2   1  -5   30.91    1.17
  -2   1   5   30.10    1.24
   2   1  -5   29.76    1.30
   2   1  -5   30.31    1.29
  -1  -1   5    3.37    0.26
   1  -1  -5    3.09    0.28
   1  -1  -5    2.69    0.26
  -1  -1   5    3.38    0.31
   1  -1  -5    3.16    0.23
  -1  -1   5    3.35    0.34
   1  -1  -5    2.86    0.26
   1  -1  -5    3.38    0.33
  -1  -1   5    3.29    0.33
  -1   1   5    2.83    0.25
  -1   1   5    2.95    0.31
  -1   1   5    3.19    0.28
   1   1  -5    2.95    0.31
   1   1  -5    2.62    0.26
   1   1  -5    2.69    0.26
   1   1  -5    2.87    0.20
  -1   1   5    3.17    0.34
  -1   1   5    3.08    0.30
   1   1  -5    2.82    0.13
   0  -1  -5   36.59    1.52
   0  -1  -5   38.01    1.50
   0  -1   5   38.63    1.51
   0  -1   5   37.30    1.55
   0  -1   5   37.93    1.56
   0  -1  -5   37.39    1.51
   0  -1  -5   35.71    1.50
   0  -1   5   38.82    1.45
   0  -1   5   35.71    1.53
   0  -1  -5   38.18    1.53
   0   1   5   37.64    1.51
   0   1  -5   36.42    1.55
   0   1   5   37.92    1.50
   0   1   5   37.23    1.55
   0   1  -5   35.21    1.53
   0   1   5   36.35    1.53
   0   1  -5   37.44    1.45
   0   1  -5   36.26    1.52
   0   1   5   37.20    1.49
  -1  -1  -5    1.47    0.19
   1  -1   5    1.78    0.17
   1  -1   5    1.81    0.32
   1  -1   5    1.83    0.29
   1  -1   5    1.85    0.23
  -1  -1  -5    2.07    0.30
  -1  -1  -5    1.62    0.24
  -1  -1  -5    2.03    0.22
   1  -1   5    1.40    0.26
   1   1   5    1.56    0.22
  -1   1  -5    1.55    0.20
   1   1   5    1.82    0.22
  -1   1  -5    1.57    0.23
   1   1   5    1.40    0.23
  -1   1  -5    1.70    0.26
  -1   1  -5    1.41    0.23
   1   1   5    1.49    0.19
   1   1   5    1.64    0.28
  -1   1  -5    1.74    0.11
   1   1   5    1.75    0.26
  -2  -1  -5    3.04    0.27
  -2  -1  -5    3.15    0.32
   2  -1   5    3.05    0.28
   2  -1   5    2.67    0.35
   2  -1   5    2.79    0.32
  -2  -1  -5    2.71    0.24
  -2  -1  -5    3.26    0.30
   2  -1   5    2.70    0.31
   2  -1   5    3.10    0.24
  -2   1  -5    2.18    0.33
   2   1   5    2.96    0.30
  -2   1  -5    3.00    0.24
   2   1   5    2.73    0.24
   2   1   5    2.90    0.23
  -2   1  -5    2.86    0.30
  -2   1  -5    2.60    0.29
   2   1   5    3.00    0.30
   2   1   5    3.13    0.24
   2   1   5    2.43    0.25
  -2   1  -5    2.53    0.31
   2   1   5    2.64    0.26
  -3  -1  -5    3.66    0.36
  -3  -1  -5    3.47    0.34
   3  -1   5    3.64    0.33
   3  -1   5    3.66    0.28
  -3  -1  -5    3.20    0.25
   3  -1   5    3.57    0.40
  -3  -1  -5    3.54    0.31
   3  -1   5    3.42    0.35
   3   1   5    3.90    0.28
   3   1   5    3.61    0.29
  -3   1  -5    3.41    0.34
  -3   1  -5    3.25    0.38
  -3   1  -5    3.61    0.31
  -3   1  -5    3.82    0.27
   3   1   5    2.94    0.28
   3   1   5    3.71    0.34
   3   1   5    3.39    0.34
   3   1   5    3.25    0.31
  -3   1  -5    3.24    0.32
   4  -1   5    0.88    0.22
  -4  -1  -5    1.05    0.26
  -4  -1  -5    1.06    0.22
  -4  -1  -5    1.08    0.33
  -4  -1  -5    1.04    0.20
   4  -1   5    1.08    0.28
  -4  -1  -5    0.71    0.30
   4  -1   5    1.06    0.33
   4  -1   5    1.04    0.31
  -4   1  -5    1.24    0.27
   4   1   5    1.47    0.27
   4   1   5    1.05    0.24
  -4   1  -5    1.14    0.30
  -4   1  -5    1.00    0.19
  -4   1  -5    0.84    0.29
   4   1   5    0.95    0.25
   4   1   5    1.31    0.26
  -4   1  -5    1.32    0.30
   4   1   5    1.05    0.29
  -5  -1  -5   -0.10    0.31
   5  -1   5    0.16    0.29
   5  -1   5    0.14    0.29
  -5  -1  -5    0.09    0.24
  -5  -1  -5    0.14    0.28
   5  -1   5    0.14    0.26
   5  -1   5   -0.05    0.24
   5   1   5   -0.23    0.22
  -5   1  -5   -0.13    0.26
   5   1   5    0.08    0.22
  -5   1  -5    0.31    0.28
   5   1   5   -0.05    0.26
   5   1   5    0.07    0.27
  -5   1  -5    0.05    0.28
  -5   1  -5    0.25    0.29
  -6  -1  -5    2.57    0.45
   6  -1   5    2.38    0.44
   6  -1   5    2.82    0.41
   6  -1   5    2.55    0.35
  -6  -1  -5    3.01    0.51
  -6   1  -5    2.40    0.46
  -6   1  -5    2.28    0.36
  -6   1  -5    2.35    0.45
   6   1   5    2.23    0.39
  -6   1  -5    2.41    0.45
   6   1   5    2.33    0.39
  -7  -1  -5    0.98    0.39
  -7  -1  -5    0.11    0.43
   7  -1   5    0.39    0.31
   7  -1   5    0.55    0.31
   7  -1   5    0.50    0.28
   7   1   5    0.23    0.31
  -7   1  -5    0.58    0.33
   7   1   5    0.67    0.31
  -7   1  -5    0.90    0.35
  -7   1  -5    0.53    0.33
  -7   1  -5    1.04    0.40
   8  -1   5    2.46    0.43
   8  -1   5    1.62    0.40
  -8  -1  -5    1.54    0.47
  -8   1  -5    2.36    0.44
   8   1   5    1.94    0.44
   8   1   5    2.37    0.44
  -8   1  -5    3.31    0.57
  -8   1  -5    2.36    0.47
   9  -1   5    1.85    0.43
  -9  -1  -5    1.61    0.58
   9  -1   5    2.94    0.53
   9   1   5    3.56    0.51
   9   1   5    2.08    0.46
  10  -1   5    3.78    0.60
 -10  -1  -5    4.37    0.73
 -10   1  -5    4.82    0.73
  10   1   5    3.95    0.63
 -10  -2   5    1.60    0.49
  10  -2  -5    1.51    0.37
 -10  -2   5    0.21    0.57
  10   2  -5    1.69    0.44
 -10   2   5    2.19    0.68
  10   2  -5    1.47    0.45
 -10   2   5    1.97    0.58
   9  -2  -5    2.77    0.43
  -9  -2   5    1.55    0.52
  -9  -2   5    2.41    0.52
   9   2  -5    2.95    0.55
  -9   2   5    2.86    0.63
  -9   2   5    2.90    0.56
   9   2  -5    2.75    0.48
   8  -2  -5    0.57    0.31
  -8  -2   5    0.55    0.36
   8  -2  -5    0.13    0.25
  -8  -2   5    0.52    0.38
  -8  -2   5    0.04    0.42
   8   2  -5    0.57    0.33
  -8   2   5    0.82    0.38
   8   2  -5    0.41    0.34
  -8   2   5    0.60    0.46
   8   2  -5    0.17    0.32
  -7  -2   5    1.37    0.36
   7  -2  -5    1.71    0.30
  -7  -2   5    1.36    0.41
  -7  -2   5    1.60    0.47
  -7  -2   5    1.09    0.41
   7  -2  -5    1.71    0.31
   7  -2  -5    1.38    0.32
  -7   2   5    1.94    0.39
   7   2  -5    1.73    0.34
  -7   2   5    1.31    0.32
   7   2  -5    1.55    0.35
   7   2  -5    1.76    0.37
  -7   2   5    2.24    0.52
  -6  -2   5    5.11    0.65
  -6  -2   5    6.26    0.58
   6  -2  -5    5.79    0.42
  -6  -2   5    6.75    0.50
   6  -2  -5    6.05    0.47
   6  -2  -5    6.45    0.45
  -6  -2   5    5.97    0.63
  -6   2   5    6.75    0.53
  -6   2   5    6.66    0.49
  -6   2   5    6.24    0.61
   6   2  -5    6.64    0.55
   6   2  -5    5.68    0.51
   6   2  -5    5.73    0.47
  -6   2   5    6.35    0.52
   5  -2  -5    1.07    0.27
   5  -2  -5    1.09    0.24
  -5  -2   5    1.09    0.30
  -5  -2   5    1.29    0.36
   5  -2  -5    1.03    0.25
   5   2  -5    1.08    0.29
  -5   2   5    1.05    0.34
   5   2  -5    0.95    0.30
   5   2  -5    0.92    0.24
  -5   2   5    1.09    0.31
  -5   2   5    1.79    0.34
  -4  -2   5   67.40    2.59
  -4  -2   5   65.93    2.60
  -4  -2   5   68.16    2.62
  -4  -2   5   61.89    2.55
   4  -2  -5   64.30    2.54
   4  -2  -5   62.43    2.53
   4  -2  -5   62.50    2.51
  -4   2   5   62.97    2.56
  -4   2   5   63.35    2.62
  -4   2   5   63.48    2.54
   4   2  -5   57.95    2.52
   4   2  -5   59.48    2.58
  -4   2   5   65.33    2.56
   4   2  -5   58.20    2.57
   3  -2  -5    3.09    0.27
  -3  -2   5    3.56    0.40
  -3  -2   5    3.73    0.36
  -3  -2   5    3.41    0.42
   3  -2  -5    3.94    0.33
   3  -2  -5    3.91    0.24
  -3  -2   5    3.18    0.42
  -3  -2   5    3.89    0.20
   3  -2  -5    3.87    0.36
   3   2  -5    2.84    0.32
  -3   2   5    3.16    0.32
  -3   2   5    3.77    0.30
   3   2  -5    3.13    0.39
   3   2  -5    3.17    0.26
  -3   2   5    3.33    0.38
  -3   2   5    3.17    0.30
   3   2  -5    3.26    0.33
  -3   2   5    3.60    0.31
  -2  -2   5    5.30    0.39
  -2  -2   5    4.71    0.41
  -2  -2   5    5.79    0.30
   2  -2  -5    5.63    0.41
  -2  -2   5    5.26    0.47
  -2  -2   5    5.36    0.42
   2  -2  -5    5.54    0.31
   2  -2  -5    5.36    0.36
   2  -2  -5    4.76    0.31
   2   2  -5    5.21    0.40
  -2   2   5    4.98    0.34
  -2   2   5    4.73    0.37
  -2   2   5    5.17    0.35
   2   2  -5    4.96    0.37
  -2   2   5    5.14    0.32
  -2   2   5    4.55    0.25
   2   2  -5    5.38    0.31
  -2   2   5    4.78    0.41
   2   2  -5    4.78    0.36
  -1  -2   5    2.27    0.33
   1  -2  -5    2.13    0.24
   1  -2  -5    1.77    0.24
  -1  -2   5    2.19    0.30
   1  -2  -5    2.11    0.23
   1  -2  -5    2.19    0.13
  -1  -2   5    2.08    0.30
   1  -2  -5    2.24    0.30
  -1  -2   5    2.42    0.22
  -1   2   5    2.42    0.13
   1   2  -5    2.27    0.19
  -1   2   5    2.11    0.22
  -1   2   5    2.00    0.31
   1   2  -5    2.13    0.32
   1   2  -5    2.04    0.25
  -1   2   5    2.02    0.28
   1   2  -5    1.81    0.24
  -1   2   5    1.99    0.22
  -1   2   5    2.25    0.25
   0  -2  -5    1.11    0.23
   0  -2  -5    1.07    0.24
   0  -2   5    1.02    0.27
   0  -2  -5    0.99    0.18
   0  -2  -5    1.15    0.14
   0  -2   5    1.06    0.25
   0  -2  -5    0.88    0.19
   0  -2   5    0.80    0.18
   0  -2   5    1.04    0.29
   0   2   5    1.02    0.15
   0   2  -5    1.08    0.12
   0   2   5    0.84    0.24
   0   2   5    0.96    0.22
   0   2   5    0.82    0.17
   0   2  -5    0.94    0.19
   0   2   5    0.96    0.23
   0   2  -5    0.90    0.21
   0   2  -5    0.96    0.25
   0   2  -5    1.07    0.26
   1  -2   5    4.09    0.37
  -1  -2  -5    4.44    0.34
  -1  -2  -5    4.73    0.27
  -1  -2  -5    3.83    0.32
   1  -2   5    4.68    0.23
   1  -2   5    4.70    0.32
   1  -2   5    4.04    0.37
   1  -2   5    4.12    0.43
  -1  -2  -5    4.23    0.35
  -1   2  -5    3.84    0.35
   1   2   5    4.02    0.35
  -1   2  -5    4.13    0.29
   1   2   5    3.84    0.32
   1   2   5    3.85    0.35
   1   2   5    4.00    0.23
   1   2   5    3.83    0.24
   1   2   5    4.22    0.37
  -1   2  -5    3.88    0.32
  -1   2  -5    4.04    0.39
   1   2   5    4.29    0.25
  -2  -2  -5    8.50    0.44
   2  -2   5    8.57    0.45
   2  -2   5    8.12    0.52
   2  -2   5    8.91    0.40
  -2  -2  -5    7.52    0.46
   2  -2   5    8.38    0.54
  -2  -2  -5    8.15    0.51
  -2  -2  -5    8.49    0.52
   2   2   5    7.77    0.49
  -2   2  -5    7.71    0.47
   2   2   5    8.35    0.37
  -2   2  -5    7.62    0.54
   2   2   5    7.91    0.49
   2   2   5    7.94    0.48
  -2   2  -5    8.05    0.52
   2   2   5    8.02    0.50
  -2   2  -5    8.27    0.42
   2   2   5    7.53    0.36
  -2   2  -5    7.39    0.52
   3  -2   5    1.45    0.35
  -3  -2  -5    1.67    0.33
   3  -2   5    1.48    0.27
   3  -2   5    1.03    0.31
   3  -2   5    1.38    0.22
  -3  -2  -5    1.41    0.27
  -3  -2  -5    1.33    0.30
   3   2   5    1.33    0.27
   3   2   5    1.52    0.26
  -3   2  -5    1.49    0.31
  -3   2  -5    1.30    0.33
  -3   2  -5    1.31    0.25
  -3   2  -5    1.45    0.19
   3   2   5    1.27    0.28
   3   2   5    1.35    0.29
  -3   2  -5    1.49    0.35
   4  -2   5    7.39    0.43
  -4  -2  -5    6.94    0.46
  -4  -2  -5    6.80    0.47
  -4  -2  -5    7.64    0.58
   4  -2   5    6.21    0.53
   4  -2   5    6.68    0.54
   4  -2   5    7.82    0.48
   4   2   5    6.68    0.46
  -4   2  -5    6.41    0.44
  -4   2  -5    5.96    0.53
  -4   2  -5    6.51    0.52
  -4   2  -5    6.11    0.51
   4   2   5    7.06    0.49
   4   2   5    5.88    0.48
   4   2   5    6.12    0.47
   5  -2   5    1.39    0.36
   5  -2   5    0.89    0.30
  -5  -2  -5    1.00    0.30
  -5  -2  -5    0.98    0.31
  -5  -2  -5    1.21    0.42
   5  -2   5    1.08    0.38
   5  -2   5    1.12    0.26
   5   2   5    0.67    0.29
   5   2   5    0.80    0.30
  -5   2  -5    1.03    0.29
   5   2   5    0.88    0.29
  -5   2  -5    0.76    0.34
  -5   2  -5    1.10    0.36
  -5   2  -5    1.13    0.35
  -6  -2  -5    9.34    0.63
   6  -2   5    8.44    0.58
  -6  -2  -5    8.01    0.65
   6  -2   5    8.91    0.57
  -6  -2  -5    8.47    0.58
   6  -2   5    8.78    0.66
   6   2   5    8.28    0.60
   6   2   5    8.35    0.61
  -6   2  -5    8.22    0.67
   6   2   5    8.05    0.60
  -6   2  -5    8.46    0.56
  -6   2  -5    8.82    0.69
  -6   2  -5    8.82    0.69
  -7  -2  -5    3.75    0.65
   7  -2   5    5.16    0.57
  -7  -2  -5    5.16    0.56
   7  -2   5    5.40    0.50
   7  -2   5    4.35    0.48
  -7   2  -5    4.99    0.62
  -7   2  -5    4.56    0.57
  -7   2  -5    5.26    0.46
   7   2   5    4.48    0.50
  -7   2  -5    5.50    0.61
   7   2   5    4.75    0.48
   8  -2   5    2.20    0.40
   8  -2   5    1.97    0.43
   8  -2   5    2.58    0.49
  -8  -2  -5    2.78    0.53
  -8  -2  -5    1.51    0.59
  -8   2  -5    3.35    0.64
   8   2   5    2.52    0.46
   8   2   5    1.85    0.40
  -8   2  -5    3.67    0.61
   9  -2   5    1.28    0.40
   9  -2   5    0.60    0.41
  -9  -2  -5    2.12    0.54
  -9   2  -5    2.10    0.55
   9   2   5    1.86    0.45
   9   2   5    1.28    0.42
  10  -3  -5    0.68    0.36
  10  -3  -5   -0.45    0.31
 -10  -3   5    0.65    0.44
 -10  -3   5   -0.92    0.53
  10   3  -5    0.37    0.44
  10   3  -5    0.37    0.40
 -10   3   5    0.36    0.63
 -10   3   5    0.93    0.56
  -9  -3   5    2.62    0.66
  -9  -3   5    3.19    0.56
  -9  -3   5    3.51    0.61
   9  -3  -5    2.27    0.40
   9  -3  -5    3.45    0.46
   9   3  -5    3.37    0.54
  -9   3   5    4.06    0.76
  -9   3   5    4.83    0.72
   9   3  -5    3.32    0.64
   8  -3  -5    0.53    0.29
  -8  -3   5    0.47    0.40
   8  -3  -5    1.22    0.35
  -8  -3   5    0.37    0.53
  -8  -3   5    1.10    0.45
   8  -3  -5    1.42    0.32
   8   3  -5    1.13    0.47
   8   3  -5    1.21    0.37
   8   3  -5    1.09    0.40
  -8   3   5    1.64    0.44
  -8   3   5    1.64    0.58
  -8   3   5    0.74    0.39
   7  -3  -5    2.31    0.39
   7  -3  -5    1.94    0.33
  -7  -3   5    1.93    0.51
  -7  -3   5    2.15    0.46
  -7  -3   5    1.69    0.44
  -7   3   5    3.00    0.53
  -7   3   5    2.30    0.55
   7   3  -5    2.12    0.41
   7   3  -5    1.72    0.43
  -7   3   5    1.80    0.41
   7   3  -5    2.36    0.47
   6  -3  -5    2.57    0.41
   6  -3  -5    3.30    0.35
  -6  -3   5    3.19    0.54
  -6  -3   5    2.30    0.53
  -6  -3   5    3.03    0.51
   6  -3  -5    2.76    0.35
   6   3  -5    2.66    0.53
   6   3  -5    2.42    0.43
  -6   3   5    2.69    0.57
   6   3  -5    2.71    0.45
  -6   3   5    3.58    0.42
  -6   3   5    2.60    0.43
  -6   3   5    2.72    0.46
  -5  -3   5   44.90    1.88
  -5  -3   5   46.68    1.95
  -5  -3   5   46.96    1.99
   5  -3  -5   45.54    1.87
   5  -3  -5   42.98    1.86
  -5  -3   5   44.25    1.99
   5  -3  -5   45.72    1.89
  -5   3   5   45.59    1.92
   5   3  -5   43.86    1.96
  -5   3   5   44.60    1.90
   5   3  -5   43.97    1.95
   5   3  -5   40.32    1.89
  -5   3   5   45.03    1.92
  -5   3   5   47.75    2.01
   4  -3  -5    4.35    0.41
  -4  -3   5    3.95    0.51
   4  -3  -5    4.01    0.36
  -4  -3   5    4.30    0.49
  -4  -3   5    4.08    0.43
  -4  -3   5    3.91    0.53
   4  -3  -5    3.90    0.40
  -4   3   5    4.58    0.42
  -4   3   5    3.66    0.49
   4   3  -5    3.66    0.45
   4   3  -5    4.34    0.39
  -4   3   5    4.03    0.40
   4   3  -5    3.94    0.42
  -4   3   5    4.53    0.41
  -4   3   5    3.94    0.46
   3  -3  -5    5.80    0.46
   3  -3  -5    5.29    0.42
  -3  -3   5    5.24    0.42
  -3  -3   5    5.78    0.54
  -3  -3   5    5.37    0.56
   3  -3  -5    4.81    0.38
  -3  -3   5    4.77    0.51
   3   3  -5    6.52    0.51
   3   3  -5    5.42    0.38
   3   3  -5    4.55    0.43
   3   3  -5    5.43    0.44
  -3   3   5    5.48    0.40
  -3   3   5    4.59    0.43
  -3   3   5    5.19    0.37
  -3   3   5    4.40    0.48
  -3   3   5    5.24    0.42
  -2  -3   5    0.43    0.29
  -2  -3   5    0.29    0.26
   2  -3  -5    0.39    0.27
  -2  -3   5    0.28    0.14
  -2  -3   5    0.46    0.24
   2  -3  -5    0.45    0.17
  -2  -3   5   -0.08    0.28
   2  -3  -5    0.34    0.22
   2   3  -5    0.40    0.16
  -2   3   5    0.39    0.16
  -2   3   5    0.51    0.16
   2   3  -5    0.24    0.25
  -2   3   5   -0.09    0.22
  -2   3   5    0.19    0.21
   2   3  -5    0.18    0.20
   2   3  -5    0.24    0.22
  -2   3   5    0.14    0.24
  -1  -3   5    5.41    0.48
  -1  -3   5    6.25    0.33
  -1  -3   5    5.58    0.44
   1  -3  -5    5.56    0.36
   1  -3  -5    5.29    0.42
   1  -3  -5    5.88    0.43
   1  -3  -5    4.88    0.34
  -1  -3   5    6.19    0.47
  -1   3   5    5.81    0.32
  -1   3   5    5.51    0.31
   1   3  -5    5.47    0.33
   1   3  -5    5.48    0.42
  -1   3   5    5.62    0.41
  -1   3   5    5.34    0.43
  -1   3   5    5.52    0.42
   1   3  -5    5.41    0.45
   1   3  -5    4.92    0.40
   0  -3  -5    3.19    0.35
   0  -3  -5    2.80    0.24
   0  -3   5    3.18    0.37
   0  -3   5    2.94    0.40
   0  -3   5    3.18    0.27
   0  -3   5    2.57    0.37
   0  -3  -5    3.23    0.32
   0  -3  -5    3.02    0.31
   0   3  -5    2.88    0.36
   0   3   5    3.18    0.20
   0   3   5    2.91    0.35
   0   3   5    2.82    0.34
   0   3  -5    3.18    0.37
   0   3   5    3.08    0.32
   0   3  -5    2.90    0.31
   0   3  -5    2.83    0.31
   0   3   5    2.73    0.33
   0   3  -5    3.19    0.21
  -1  -3  -5    0.07    0.19
   1  -3   5    0.15    0.18
   1  -3   5    0.28    0.14
  -1  -3  -5    0.33    0.24
   1  -3   5   -0.17    0.25
   1  -3   5    0.13    0.28
   1  -3   5    0.17    0.31
  -1  -3  -5    0.06    0.22
   1   3   5    0.02    0.20
   1   3   5   -0.01    0.22
   1   3   5   -0.04    0.22
   1   3   5    0.21    0.20
  -1   3  -5    0.20    0.16
  -1   3  -5   -0.10    0.23
  -1   3  -5    0.04    0.19
  -1   3  -5   -0.02    0.24
  -2  -3  -5    4.25    0.30
   2  -3   5    3.99    0.45
   2  -3   5    4.40    0.26
  -2  -3  -5    3.92    0.39
   2  -3   5    3.40    0.46
  -2  -3  -5    3.41    0.35
   2  -3   5    4.11    0.33
  -2  -3  -5    3.81    0.40
  -2   3  -5    3.44    0.34
   2   3   5    3.62    0.38
  -2   3  -5    2.90    0.45
  -2   3  -5    2.94    0.39
  -2   3  -5    2.92    0.43
   2   3   5    4.01    0.34
   2   3   5    3.56    0.38
   2   3   5    3.20    0.39
  -2   3  -5    3.90    0.30
   3  -3   5    7.63    0.61
  -3  -3  -5    7.74    0.54
  -3  -3  -5    8.00    0.55
   3  -3   5    7.73    0.49
   3  -3   5    7.82    0.61
  -3  -3  -5    8.37    0.47
   3  -3   5    8.98    0.44
  -3   3  -5    7.15    0.61
   3   3   5    7.66    0.58
  -3   3  -5    7.49    0.49
   3   3   5    7.63    0.52
  -3   3  -5    7.50    0.59
  -3   3  -5    7.29    0.55
   3   3   5    7.57    0.53
   3   3   5    7.47    0.45
  -4  -3  -5    0.12    0.28
   4  -3   5    0.43    0.21
   4  -3   5    0.33    0.34
   4  -3   5    0.35    0.32
   4  -3   5    0.45    0.30
  -4  -3  -5    0.45    0.35
  -4  -3  -5    0.62    0.28
   4   3   5    0.43    0.28
   4   3   5    0.40    0.27
  -4   3  -5    0.39    0.26
  -4   3  -5    0.28    0.30
   4   3   5   -0.02    0.30
  -4   3  -5    0.07    0.31
  -4   3  -5    0.05    0.31
  -5  -3  -5    3.07    0.42
  -5  -3  -5    2.79    0.49
  -5  -3  -5    3.51    0.45
   5  -3   5    2.98    0.54
   5  -3   5    3.06    0.32
   5  -3   5    3.01    0.41
  -5   3  -5    3.50    0.54
  -5   3  -5    3.01    0.35
   5   3   5    3.01    0.40
  -5   3  -5    2.83    0.49
  -5   3  -5    2.83    0.55
   5   3   5    2.65    0.42
   5   3   5    3.07    0.47
   6  -3   5    2.74    0.55
  -6  -3  -5    2.89    0.46
   6  -3   5    3.24    0.40
  -6  -3  -5    2.81    0.43
  -6  -3  -5    3.56    0.55
   6  -3   5    2.52    0.43
   6   3   5    2.84    0.47
   6   3   5    2.99    0.45
  -6   3  -5    3.88    0.56
   6   3   5    2.58    0.40
  -6   3  -5    2.71    0.52
  -6   3  -5    3.40    0.38
  -6   3  -5    2.43    0.68
   7  -3   5    5.19    0.47
  -7  -3  -5    4.46    0.72
   7  -3   5    5.62    0.67
   7  -3   5    4.72    0.54
  -7  -3  -5    6.23    0.66
  -7  -3  -5    5.71    0.57
   7   3   5    5.25    0.49
  -7   3  -5    5.86    0.65
   7   3   5    5.11    0.55
   7   3   5    5.79    0.60
   8  -3   5    1.59    0.55
   8  -3   5    1.61    0.41
  -8  -3  -5    2.25    0.57
   8  -3   5    0.96    0.43
  -8   3  -5    1.74    0.51
   8   3   5    2.01    0.39
   8   3   5    1.67    0.43
  -8   3  -5    2.28    0.56
   9  -3   5   -0.03    0.33
   9  -3   5    0.58    0.53
  -9  -3  -5    0.45    0.54
  -9   3  -5    1.22    0.51
   9   3   5    0.54    0.39
  -9   3  -5    0.87    0.48
  10  -4  -5    0.76    0.36
 -10  -4   5    1.26    0.52
  10   4  -5    1.06    0.49
 -10   4   5    2.00    0.61
 -10   4   5    1.34    0.73
  10   4  -5    0.94    0.54
  -9  -4   5   -0.64    0.52
   9  -4  -5   -0.02    0.33
   9  -4  -5    0.68    0.30
  -9  -4   5    0.33    0.47
   9  -4  -5   -0.39    0.30
  -9  -4   5    0.37    0.48
   9   4  -5    0.64    0.45
   9   4  -5    0.39    0.43
  -9   4   5    1.19    0.73
   9   4  -5   -0.72    0.46
  -9   4   5   -0.21    0.40
  -9   4   5    0.81    0.47
   8  -4  -5    0.56    0.39
   8  -4  -5    1.66    0.37
  -8  -4   5    0.69    0.55
  -8  -4   5    0.70    0.49
   8  -4  -5    0.67    0.33
  -8  -4   5    1.47    0.51
  -8   4   5    2.20    0.67
  -8   4   5    0.69    0.46
   8   4  -5    1.35    0.42
   8   4  -5    0.87    0.49
   8   4  -5    1.39    0.50
  -8   4   5    2.03    0.49
  -7  -4   5    0.88    0.45
  -7  -4   5    1.23    0.54
   7  -4  -5    0.96    0.41
   7  -4  -5    1.27    0.34
  -7  -4   5    1.98    0.50
   7   4  -5    2.06    0.51
  -7   4   5    1.68    0.41
   7   4  -5    1.73    0.40
  -7   4   5    1.80    0.46
   7   4  -5    1.31    0.48
  -7   4   5    2.17    0.62
  -6  -4   5    5.92    0.64
  -6  -4   5    6.30    0.59
   6  -4  -5    5.67    0.49
   6  -4  -5    6.23    0.55
  -6  -4   5    6.76    0.76
   6   4  -5    5.41    0.65
  -6   4   5    4.72    0.54
   6   4  -5    6.22    0.54
  -6   4   5    6.70    0.55
   6   4  -5    5.20    0.63
  -6   4   5    6.80    0.51
   5  -4  -5    0.06    0.25
  -5  -4   5   -0.08    0.42
   5  -4  -5   -0.03    0.31
  -5  -4   5    0.02    0.37
   5  -4  -5    0.02    0.25
   5   4  -5   -0.22    0.33
  -5   4   5    0.13    0.39
  -5   4   5    0.25    0.26
   5   4  -5    0.42    0.28
  -5   4   5    0.06    0.33
   5   4  -5    0.05    0.29
  -4  -4   5    3.57    0.52
   4  -4  -5    3.35    0.44
   4  -4  -5    3.53    0.43
  -4  -4   5    3.77    0.55
  -4  -4   5    2.86    0.55
  -4  -4   5    2.90    0.41
   4  -4  -5    3.73    0.44
  -4   4   5    3.54    0.49
   4   4  -5    3.43    0.40
   4   4  -5    3.29    0.49
  -4   4   5    3.46    0.48
   4   4  -5    3.38    0.47
  -4   4   5    3.52    0.56
  -4   4   5    3.40    0.37
  -4   4   5    3.04    0.37
   3  -4  -5    2.91    0.45
   3  -4  -5    2.47    0.43
  -3  -4   5    2.39    0.47
  -3  -4   5    2.48    0.47
  -3  -4   5    2.82    0.53
  -3  -4   5    2.29    0.41
   3  -4  -5    2.29    0.34
  -3   4   5    2.61    0.40
   3   4  -5    2.20    0.43
  -3   4   5    2.91    0.32
  -3   4   5    2.46    0.30
   3   4  -5    2.09    0.40
   3   4  -5    2.46    0.33
  -3   4   5    2.46    0.41
   3   4  -5    2.53    0.48
  -3   4   5    2.94    0.45
   2  -4  -5    1.68    0.35
  -2  -4   5    1.23    0.36
   2  -4  -5    1.21    0.32
  -2  -4   5    1.22    0.40
   2  -4  -5    1.13    0.30
  -2  -4   5    1.44    0.33
  -2  -4   5    1.51    0.36
   2   4  -5    1.51    0.33
  -2   4   5    1.74    0.25
   2   4  -5    1.43    0.36
  -2   4   5    1.37    0.34
   2   4  -5    1.34    0.24
  -2   4   5    1.23    0.32
  -2   4   5    1.49    0.34
  -2   4   5    1.37    0.22
   2   4  -5    1.23    0.31
  -1  -4   5    0.85    0.32
   1  -4  -5    0.84    0.28
   1  -4  -5    1.10    0.32
  -1  -4   5    0.92    0.19
   1  -4  -5    0.79    0.25
  -1  -4   5    0.58    0.31
  -1  -4   5    0.85    0.34
   1   4  -5    0.87    0.29
   1   4  -5    0.83    0.32
   1   4  -5    0.89    0.19
   1   4  -5    0.77    0.28
  -1   4   5    0.56    0.29
  -1   4   5    0.75    0.28
  -1   4   5    0.66    0.29
   0  -4  -5    0.48    0.32
   0  -4  -5    0.27    0.26
   0  -4   5    0.41    0.20
   0  -4   5    0.05    0.33
   0  -4   5    0.43    0.28
   0  -4  -5    0.05    0.25
   0  -4   5    0.21    0.35
   0   4   5    0.04    0.26
   0   4   5    0.18    0.29
   0   4  -5    0.17    0.32
   0   4  -5    0.21    0.28
   0   4   5    0.22    0.29
   0   4  -5    0.31    0.23
   0   4  -5    0.12    0.25
   0   4   5    0.28    0.26
  -1  -4  -5    0.65    0.30
   1  -4   5    0.31    0.33
   1  -4   5    0.44    0.24
  -1  -4  -5    0.34    0.26
   1  -4   5    0.03    0.32
  -1  -4  -5    0.37    0.26
   1  -4   5    0.33    0.31
   1   4   5    0.21    0.28
  -1   4  -5    0.41    0.21
   1   4   5    0.54    0.28
  -1   4  -5    0.14    0.30
  -1   4  -5    0.26    0.28
   1   4   5    0.55    0.24
   1   4   5    0.28    0.29
  -1   4  -5    0.50    0.26
   2  -4   5    0.20    0.33
  -2  -4  -5    0.00    0.25
   2  -4   5    0.16    0.33
  -2  -4  -5    0.16    0.29
  -2  -4  -5    0.29    0.30
   2  -4   5    0.40    0.34
   2  -4   5    0.19    0.23
  -2   4  -5    0.17    0.30
   2   4   5   -0.02    0.26
   2   4   5    0.24    0.21
  -2   4  -5    0.29    0.24
  -2   4  -5    0.33    0.22
   2   4   5   -0.09    0.29
  -2   4  -5    0.05    0.31
   2   4   5    0.02    0.27
  -2   4  -5    0.25    0.32
  -3  -4  -5   10.87    0.69
  -3  -4  -5   11.28    0.67
   3  -4   5    9.36    0.72
   3  -4   5   10.85    0.61
   3  -4   5   11.19    0.76
  -3   4  -5    9.57    0.74
  -3   4  -5   10.08    0.71
   3   4   5    9.50    0.65
  -3   4  -5    9.98    0.62
   3   4   5   10.38    0.66
  -3   4  -5   10.12    0.73
   3   4   5   10.02    0.72
  -4  -4  -5    0.26    0.37
  -4  -4  -5    0.47    0.34
   4  -4   5    0.54    0.40
   4  -4   5    0.24    0.23
  -4  -4  -5    0.42    0.32
   4  -4   5    0.40    0.32
  -4   4  -5    0.68    0.40
   4   4   5    0.22    0.28
  -4   4  -5    0.65    0.41
   4   4   5    0.56    0.32
  -4   4  -5    0.62    0.35
  -4   4  -5    0.50    0.25
   4   4   5    0.95    0.38
   5  -4   5    2.00    0.55
   5  -4   5    1.76    0.29
  -5  -4  -5    1.95    0.48
   5  -4   5    2.13    0.39
  -5  -4  -5    2.35    0.39
  -5  -4  -5    2.39    0.48
  -5   4  -5    2.51    0.51
   5   4   5    1.96    0.39
  -5   4  -5    1.56    0.46
  -5   4  -5    2.40    0.37
   5   4   5    1.53    0.37
   5   4   5    1.52    0.43
   6  -4   5    2.92    0.46
  -6  -4  -5    2.71    0.56
  -6  -4  -5    3.05    0.62
   6  -4   5    3.38    0.60
   6  -4   5    2.55    0.36
  -6  -4  -5    2.93    0.51
  -6   4  -5    3.52    0.61
   6   4   5    2.93    0.53
   6   4   5    3.52    0.46
  -6   4  -5    3.93    0.68
   6   4   5    2.81    0.47
  -6   4  -5    2.04    0.58
  -7  -4  -5    1.62    0.50
   7  -4   5    1.45    0.37
   7  -4   5    2.55    0.64
  -7  -4  -5    2.40    0.51
   7  -4   5    1.53    0.44
  -7  -4  -5    0.77    0.62
   7   4   5    1.71    0.43
  -7   4  -5    2.31    0.58
   7   4   5    1.86    0.48
   7   4   5    2.83    0.45
   8  -4   5    0.36    0.52
   8  -4   5   -0.17    0.34
   8  -4   5   -0.21    0.41
  -8  -4  -5    0.39    0.48
   8   4   5    0.62    0.42
   8   4   5    0.56    0.45
  -8   4  -5    0.92    0.50
  -8   4  -5    1.53    0.53
  -9  -5   5    1.06    0.65
   9  -5  -5    0.83    0.39
  -9  -5   5    0.06    0.49
   9   5  -5    0.49    0.47
   9   5  -5    1.19    0.52
  -9   5   5   -0.03    0.54
  -9   5   5    1.55    0.73
   8  -5  -5    0.98    0.43
  -8  -5   5    1.78    0.59
   8  -5  -5    2.73    0.50
  -8  -5   5    1.24    0.63
   8   5  -5    1.84    0.54
  -8   5   5    2.50    0.59
   8   5  -5    1.74    0.61
   8   5  -5    1.92    0.49
   7  -5  -5    7.96    0.68
  -7  -5   5    8.55    0.76
   7  -5  -5    7.19    0.66
  -7  -5   5    6.53    0.82
  -7  -5   5    8.71    0.86
   7   5  -5    7.90    0.74
  -7   5   5    8.02    0.72
   7   5  -5    7.46    0.82
   7   5  -5    9.26    0.85
  -7   5   5   10.66    0.97
  -6  -5   5    3.42    0.57
   6  -5  -5    2.42    0.49
   6  -5  -5    2.43    0.45
  -6  -5   5    3.32    0.67
  -6  -5   5    2.24    0.54
  -6   5   5    3.27    0.48
  -6   5   5    2.98    0.52
   6   5  -5    2.97    0.48
   6   5  -5    3.38    0.63
   6   5  -5    3.21    0.57
  -6   5   5    4.42    0.76
   5  -5  -5    5.16    0.50
  -5  -5   5    4.19    0.63
   5  -5  -5    4.82    0.56
   5  -5  -5    4.72    0.51
  -5  -5   5    5.17    0.78
  -5   5   5    6.07    0.50
  -5   5   5    6.14    0.75
   5   5  -5    5.07    0.66
   5   5  -5    4.90    0.50
  -5   5   5    5.72    0.51
   5   5  -5    4.38    0.62
  -5   5   5    4.49    0.56
  -4  -5   5    1.24    0.46
   4  -5  -5    2.03    0.37
  -4  -5   5    1.54    0.46
   4  -5  -5    2.09    0.43
  -4  -5   5    2.26    0.54
   4  -5  -5    1.30    0.38
  -4   5   5    2.39    0.36
  -4   5   5    2.66    0.55
   4   5  -5    2.15    0.48
  -4   5   5    1.77    0.43
  -4   5   5    2.13    0.43
   4   5  -5    2.52    0.50
   4   5  -5    2.15    0.40
   3  -5  -5    1.13    0.35
  -3  -5   5    1.15    0.34
  -3  -5   5    0.98    0.44
   3  -5  -5    1.50    0.33
   3  -5  -5    2.27    0.44
  -3  -5   5    2.74    0.55
  -3  -5   5    1.74    0.45
   3   5  -5    1.89    0.47
   3   5  -5    1.65    0.42
  -3   5   5    1.58    0.40
   3   5  -5    2.24    0.35
  -2  -5   5   17.65    1.01
  -2  -5   5   18.70    0.92
  -2  -5   5   18.37    1.00
   2  -5  -5   19.97    0.99
   2  -5  -5   18.91    0.95
   2  -5  -5   16.75    0.89
  -2  -5   5   18.59    1.04
   2   5  -5   17.35    0.97
   2   5  -5   17.79    0.99
  -2   5   5   18.32    1.02
  -2   5   5   18.10    0.97
  -2   5   5   17.43    0.96
   2   5  -5   17.77    0.88
   2   5  -5   17.30    1.02
   1  -5  -5    2.00    0.39
  -1  -5   5    2.22    0.43
   1  -5  -5    2.28    0.35
  -1  -5   5    2.09    0.46
   1  -5  -5    2.27    0.44
  -1  -5   5    2.43    0.46
  -1   5   5    3.00    0.47
   1   5  -5    1.94    0.39
  -1   5   5    1.68    0.38
   1   5  -5    2.28    0.44
   1   5  -5    1.48    0.41
  -1   5   5    1.89    0.39
   0  -5   5    0.44    0.34
   0  -5  -5    0.55    0.32
   0  -5   5    0.20    0.36
   0  -5   5    0.08    0.33
   0  -5  -5   -0.04    0.28
   0  -5   5    0.34    0.22
   0  -5  -5    0.24    0.34
   0   5  -5    0.39    0.32
   0   5   5    0.27    0.26
   0   5   5    0.25    0.32
   0   5  -5    0.31    0.34
   0   5   5    0.25    0.30
   0   5  -5    0.24    0.32
   0   5   5    0.31    0.35
   0   5  -5    0.31    0.26
   1  -5   5    0.59    0.26
  -1  -5  -5    0.42    0.32
   1  -5   5    0.29    0.37
  -1  -5  -5    0.20    0.28
   1  -5   5    0.37    0.40
  -1  -5  -5    0.35    0.39
   1  -5   5    0.26    0.37
  -1   5  -5    0.54    0.25
   1   5   5    0.04    0.35
  -1   5  -5    0.06    0.34
   1   5   5    0.91    0.28
   1   5   5    0.65    0.31
  -1   5  -5    0.49    0.33
   1   5   5    0.11    0.32
  -1   5  -5    0.56    0.35
  -2  -5  -5    1.89    0.39
   2  -5   5    1.64    0.34
   2  -5   5    1.59    0.43
  -2  -5  -5    1.78    0.45
   2  -5   5    1.03    0.40
  -2  -5  -5    1.47    0.36
   2  -5   5    1.40    0.44
  -2   5  -5    1.49    0.35
  -2   5  -5    1.13    0.41
  -2   5  -5    1.69    0.42
  -2   5  -5    1.36    0.43
   2   5   5    1.65    0.36
   2   5   5    1.09    0.41
   2   5   5    1.47    0.38
  -3  -5  -5    0.83    0.39
  -3  -5  -5    0.43    0.41
  -3  -5  -5    0.62    0.31
   3  -5   5    0.53    0.40
   3  -5   5   -0.08    0.27
  -3   5  -5    0.30    0.28
   3   5   5    0.46    0.36
   3   5   5    0.14    0.36
  -3   5  -5    0.06    0.38
   3   5   5    0.55    0.33
  -3   5  -5    0.40    0.38
  -4  -5  -5    3.74    0.54
   4  -5   5    3.91    0.51
   4  -5   5    4.65    0.66
  -4  -5  -5    3.71    0.54
   4   5   5    4.23    0.50
  -4   5  -5    4.91    0.50
  -4   5  -5    4.17    0.67
  -4   5  -5    3.91    0.62
  -4   5  -5    3.85    0.71
   4   5   5    4.09    0.56
   4   5   5    3.42    0.61
  -5  -5  -5   -0.06    0.39
   5  -5   5   -0.49    0.35
   5  -5   5    0.06    0.51
   5   5   5    0.10    0.34
  -5   5  -5   -0.42    0.50
  -5   5  -5    0.41    0.45
   5   5   5    0.66    0.31
   5   5   5   -0.15    0.40
  -5   5  -5    0.46    0.43
  -6  -5  -5    0.60    0.48
   6  -5   5    0.88    0.57
  -6   5  -5   -0.18    0.56
   6   5   5    0.76    0.46
  -6   5  -5    0.92    0.55
  -6   5  -5    1.04    0.49
   6   5   5    0.38    0.37
  -7  -5  -5    0.25    0.45
   7  -5   5    0.55    0.60
   7  -5   5   -0.34    0.41
  -7   5  -5    1.55    0.59
   7   5   5    0.24    0.47
   7   5   5    0.83    0.41
  -7   5  -5    0.80    0.58
  -7   5  -5   -0.68    0.60
   8  -5   5    4.77    0.94
   8  -5   5    4.20    0.68
  -8  -5  -5    3.86    0.73
   8   5   5    3.97    0.73
  -8   5  -5    4.30    0.78
   8   5   5    4.24    0.61
  -8  -6   5    0.88    0.61
   8  -6  -5    0.56    0.37
  -8  -6   5   -0.66    0.63
   8   6  -5   -0.31    0.60
   8   6  -5    0.56    0.43
  -8   6   5    1.36    0.45
   8   6  -5    0.31    0.54
  -8   6   5   -0.13    0.50
  -8   6   5    1.62    0.84
  -7  -6   5   -0.32    0.65
  -7  -6   5    1.25    0.61
   7   6  -5    0.80    0.61
  -7   6   5    2.60    0.83
   7   6  -5    1.23    0.53
   7   6  -5    1.33    0.47
  -7   6   5    1.20    0.58
  -6  -6   5    1.07    0.55
  -6  -6   5    3.50    0.64
   6  -6  -5    2.01    0.49
  -6  -6   5    2.18    0.69
  -6   6   5    2.26    0.57
   6   6  -5    3.21    0.64
  -6   6   5    2.02    0.62
   6   6  -5    2.66    0.65
  -5  -6   5    3.09    0.68
   5  -6  -5    2.62    0.48
  -5  -6   5    1.98    0.57
   5  -6  -5    2.70    0.59
  -5   6   5    3.51    0.65
  -5   6   5    4.77    0.78
   5   6  -5    3.10    0.61
   5   6  -5    3.05    0.47
  -4  -6   5    0.21    0.50
   4  -6  -5    0.00    0.40
   4  -6  -5    0.22    0.33
  -4  -6   5   -0.38    0.46
  -4   6   5    1.21    0.52
   4   6  -5    0.49    0.40
  -4   6   5   -0.16    0.39
  -4   6   5    0.18    0.41
   4   6  -5    0.01    0.48
   4   6  -5    0.34    0.27
   3  -6  -5    2.75    0.50
   3  -6  -5    2.56    0.43
  -3  -6   5    2.94    0.64
  -3  -6   5    2.49    0.53
   3  -6  -5    1.59    0.47
  -3   6   5    2.10    0.50
   3   6  -5    2.27    0.60
  -3   6   5    1.85    0.51
   3   6  -5    2.25    0.54
   3   6  -5    2.50    0.50
  -3   6   5    3.99    0.74
   3   6  -5    2.82    0.55
   2  -6  -5    0.60    0.39
  -2  -6   5    0.86    0.44
  -2  -6   5    0.85    0.49
   2  -6  -5    0.27    0.43
   2  -6  -5    0.71    0.29
  -2  -6   5    0.42    0.33
  -2   6   5    0.32    0.38
   2   6  -5    0.37    0.43
   2   6  -5    0.28    0.39
  -2   6   5    1.23    0.50
  -2   6   5    0.16    0.37
   2   6  -5    0.43    0.34
  -1  -6   5    5.15    0.60
  -1  -6   5    5.35    0.61
  -1  -6   5    5.12    0.61
   1  -6  -5    4.89    0.57
   1  -6  -5    5.21    0.57
  -1   6   5    4.07    0.53
  -1   6   5    4.38    0.54
   1   6  -5    4.51    0.59
  -1   6   5    6.00    0.62
   1   6  -5    4.39    0.58
   1   6  -5    4.65    0.63
   0  -6  -5    4.38    0.54
   0  -6  -5    5.17    0.57
   0  -6   5    5.51    0.67
   0  -6  -5    5.22    0.66
   0  -6   5    4.73    0.61
   0   6  -5    5.26    0.63
   0   6  -5    4.05    0.63
   0   6  -5    5.05    0.68
   0   6   5    4.36    0.62
   0   6   5    4.37    0.54
   0   6   5    6.05    0.62
   0   6  -5    4.63    0.53
   0   6   5    4.79    0.53
  -1  -6  -5    1.44    0.42
  -1  -6  -5    0.54    0.42
  -1  -6  -5    1.05    0.39
   1  -6   5    1.57    0.47
   1  -6   5    0.59    0.28
  -1   6  -5    1.14    0.36
   1   6   5    1.12    0.48
   1   6   5    0.88    0.35
   1   6   5    0.66    0.37
  -1   6  -5    1.13    0.44
  -1   6  -5    1.00    0.44
   2  -6   5    1.19    0.32
  -2  -6  -5    1.25    0.42
  -2  -6  -5    1.16    0.46
   2  -6   5    2.27    0.54
   2  -6   5    1.38    0.50
  -2  -6  -5    1.80    0.47
  -2   6  -5    1.35    0.46
   2   6   5    1.96    0.42
  -2   6  -5    1.43    0.37
   2   6   5    1.15    0.39
   2   6   5    0.54    0.48
  -2   6  -5    0.86    0.51
  -3  -6  -5    0.83    0.47
  -3  -6  -5    1.07    0.37
  -3  -6  -5    0.60    0.48
   3  -6   5    0.98    0.38
   3  -6   5    0.85    0.50
   3  -6   5    1.78    0.44
   3   6   5    0.68    0.44
  -3   6  -5    0.67    0.48
   3   6   5    1.14    0.34
   3   6   5    0.89    0.39
  -3   6  -5    0.60    0.46
  -3   6  -5    1.05    0.36
  -4  -6  -5   -0.53    0.45
   4  -6   5   -0.22    0.33
  -4  -6  -5   -0.01    0.45
   4  -6   5    0.50    0.52
  -4   6  -5   -0.11    0.54
  -4   6  -5    0.01    0.40
   4   6   5   -0.01    0.34
  -4   6  -5    0.27    0.50
   4   6   5    0.69    0.34
   4   6   5   -0.05    0.46
   5  -6   5   -0.15    0.37
  -5  -6  -5    0.13    0.48
   5  -6   5    0.55    0.61
   5   6   5    0.47    0.39
  -5   6  -5    0.57    0.54
  -5   6  -5    1.22    0.56
   5   6   5    0.31    0.49
  -5   6  -5   -0.54    0.60
   5   6   5    1.01    0.34
   6  -6   5    0.75    0.65
  -6  -6  -5    0.34    0.56
  -6  -6  -5   -0.91    0.55
   6  -6   5   -0.36    0.44
  -6   6  -5    1.73    0.62
   6   6   5    0.49    0.48
   6   6   5    0.48    0.42
  -6   6  -5    0.17    0.55
  -6   6  -5   -0.82    0.65
   7  -6   5    2.62    0.77
  -7  -6  -5    2.22    0.61
   7  -6   5    1.59    0.53
  -7  -6  -5    0.57    0.69
  -7   6  -5    2.35    0.70
   7   6   5    1.86    0.57
   7   6   5    2.40    0.54
  -7   6  -5    0.52    0.77
   6  -7  -5    1.36    0.50
   6  -7  -5    0.10    0.55
  -6  -7   5    1.68    0.71
   6   7  -5    1.46    0.55
  -5  -7   5    3.88    0.77
  -5  -7   5    5.64    0.72
   5  -7  -5    4.09    0.57
   5  -7  -5    3.22    0.68
   5   7  -5    5.06    0.73
  -5   7   5    4.87    0.77
   5   7  -5    4.24    0.79
   5   7  -5    4.53    0.65
  -4  -7   5    5.47    0.79
  -4  -7   5    6.89    0.78
   4  -7  -5    6.48    0.72
   4  -7  -5    6.97    0.62
   4   7  -5    6.19    0.73
   4   7  -5    7.45    0.91
  -4   7   5    4.81    0.70
  -4   7   5    5.43    0.69
  -3  -7   5    1.86    0.53
  -3  -7   5    1.80    0.61
   3  -7  -5    2.10    0.55
   3  -7  -5    1.54    0.42
  -3   7   5    0.79    0.46
  -3   7   5    1.38    0.49
   3   7  -5    1.39    0.57
   3   7  -5    1.76    0.56
   3   7  -5    2.13    0.56
   2  -7  -5    0.75    0.35
  -2  -7   5    0.29    0.49
   2  -7  -5    0.05    0.43
  -2  -7   5    0.73    0.54
   2  -7  -5   -0.41    0.43
   2   7  -5    0.18    0.47
  -2   7   5    0.92    0.56
   2   7  -5    0.48    0.40
  -2   7   5    0.23    0.41
  -2   7   5   -0.42    0.37
   2   7  -5    0.40    0.52
  -1  -7   5    0.26    0.41
  -1  -7   5    0.79    0.49
   1  -7  -5    0.43    0.50
  -1  -7   5    1.61    0.60
   1  -7  -5   -0.15    0.44
   1   7  -5    0.35    0.39
   1   7  -5    0.31    0.51
  -1   7   5    0.14    0.43
   1   7  -5    0.25    0.47
  -1   7   5   -0.08    0.38
  -1   7   5    0.81    0.49
   0  -7  -5   -0.08    0.52
   0  -7   5    0.14    0.48
   0  -7  -5    0.55    0.43
   0  -7   5    0.82    0.50
   0   7   5   -0.25    0.38
   0   7   5    0.26    0.38
   0   7   5   -0.40    0.48
   0   7  -5    0.89    0.42
   0   7  -5   -0.30    0.43
   0   7  -5    0.39    0.49
  -1  -7  -5    0.88    0.47
  -1  -7  -5    0.05    0.52
   1  -7   5    1.57    0.53
   1  -7   5    0.03    0.46
  -1   7  -5    0.48    0.45
   1   7   5   -0.64    0.47
   1   7   5    0.91    0.42
  -1   7  -5   -0.04    0.45
  -1   7  -5    0.98    0.44
   1   7   5    0.34    0.42
  -2  -7  -5    0.71    0.45
   2  -7   5   -0.17    0.32
  -2  -7  -5   -0.73    0.44
  -2  -7  -5   -0.54    0.46
   2  -7   5   -0.18    0.47
   2   7   5   -0.63    0.46
  -2   7  -5    0.32    0.43
  -2   7  -5    0.62    0.41
  -2   7  -5   -0.26    0.53
   2   7   5    0.17    0.41
   2   7   5    0.46    0.39
   3  -7   5    0.28    0.35
  -3  -7  -5    0.51    0.58
  -3  -7  -5   -0.33    0.51
   3  -7   5    0.55    0.56
   3   7   5    0.78    0.39
   3   7   5    0.54    0.43
  -3   7  -5    0.22    0.52
  -3   7  -5    0.28    0.50
   3   7   5    0.80    0.57
  -4  -7  -5   -0.08    0.53
   4  -7   5    0.69    0.64
  -4   7  -5    1.19    0.53
   4   7   5    1.04    0.38
  -4   7  -5    0.18    0.62
   4   7   5    0.79    0.49
   4   7   5    0.18    0.56
   5  -7   5    3.52    0.58
  -5  -7  -5    5.03    0.79
  -5  -7  -5    4.94    0.83
  -5   7  -5    4.31    0.79
   5   7   5    4.30    0.65
  -5   7  -5    5.64    0.75
   5   7   5    3.03    0.67
   4  -8  -5    5.39    0.76
  -4  -8   5    6.21    0.84
   4  -8  -5    4.36    0.61
  -4   8   5    4.32    0.73
   4   8  -5    5.76    0.97
   4   8  -5    6.55    0.80
  -4   8   5    4.16    0.74
  -3  -8   5    5.46    0.72
   3  -8  -5    5.64    0.85
   3  -8  -5    6.15    0.62
  -3  -8   5    6.64    0.90
   3   8  -5    6.16    0.83
   3   8  -5    5.24    0.90
  -3   8   5    4.00    0.74
  -3   8   5    5.61    0.73
   2  -8  -5    1.03    0.37
   2  -8  -5    0.89    0.55
  -2  -8   5    0.97    0.60
  -2  -8   5    0.03    0.53
  -2   8   5    0.05    0.54
   2   8  -5    0.58    0.56
  -2   8   5    0.94    0.54
   2   8  -5   -0.39    0.56
   2   8  -5    0.74    0.50
   1  -8  -5    2.35    0.43
  -1  -8   5    2.07    0.65
  -1  -8   5    2.88    0.72
   1  -8  -5    2.17    0.66
  -1   8   5    1.68    0.52
   1   8  -5    1.27    0.59
   1   8  -5    0.77    0.58
  -1   8   5    0.81    0.51
   0  -8  -5    2.60    0.64
   0  -8  -5    1.71    0.59
   0  -8   5    1.77    0.89
   0  -8   5    2.52    0.63
   0   8  -5    1.52    0.57
   0   8  -5    1.13    0.56
   0   8   5    1.70    0.51
   0   8   5    0.60    0.54
   1  -8   5    0.29    0.50
  -1  -8  -5   -0.11    0.54
  -1   8  -5    0.58    0.56
   1   8   5   -0.59    0.62
  -1   8  -5    0.45    0.48
  -1   8  -5   -0.48    0.57
   1   8   5    0.22    0.47
   1   8   5    0.78    0.43
   2  -8   5    2.16    0.62
  -2  -8  -5    2.00    0.70
  -2   8  -5    0.58    0.58
   2   8   5    1.07    0.52
   2   8   5    1.67    0.47
  -2   8  -5    1.57    0.61
   2   8   5    0.43    0.60
  -3  -8  -5   -0.06    0.67
   3  -8   5    0.98    0.62
   3   8   5    1.11    0.64
   3   8   5   -0.42    0.55
   3   8   5    0.34    0.51
  -3   8  -5    0.79    0.56
  -3   8  -5    0.22    0.58
  10   0  -6    1.52    0.42
 -10   0   6    0.87    0.49
  -9   0   6    2.31    0.47
   9   0  -6    3.13    0.46
  -9   0   6    2.82    0.54
   8   0  -6    4.66    0.51
  -8   0   6    4.41    0.58
   8   0  -6    5.29    0.52
  -8   0   6    5.17    0.58
  -8   0   6    3.56    0.53
   7   0  -6    1.02    0.29
  -7   0   6    0.70    0.37
  -7   0   6    0.85    0.35
  -7   0   6    1.28    0.42
  -7   0   6    1.02    0.53
   7   0  -6    0.86    0.29
   7   0  -6    0.57    0.20
  -6   0   6   -0.02    0.31
   6   0  -6   -0.04    0.21
   6   0  -6   -0.15    0.15
   6   0  -6    0.08    0.22
  -6   0   6    0.11    0.35
  -6   0   6   -0.12    0.32
   6   0  -6    0.11    0.34
  -6   0   6    0.15    0.35
   5   0  -6    0.86    0.25
   5   0  -6    0.52    0.23
   5   0  -6    0.66    0.25
  -5   0   6    0.93    0.29
   5   0  -6    0.66    0.17
  -5   0   6    0.56    0.38
  -5   0   6    0.69    0.36
  -5   0   6    1.10    0.33
  -5   0   6    1.00    0.22
   4   0  -6    1.37    0.26
  -4   0   6    1.79    0.37
  -4   0   6    1.17    0.35
  -4   0   6    1.20    0.38
  -4   0   6    1.36    0.25
   4   0  -6    1.32    0.26
  -4   0   6    1.17    0.28
   4   0  -6    1.53    0.25
   4   0  -6    1.38    0.18
  -3   0   6    0.91    0.30
   3   0  -6    1.28    0.23
  -3   0   6    1.25    0.24
  -3   0   6    0.97    0.29
   3   0  -6    1.01    0.23
  -3   0   6    1.33    0.22
   3   0  -6    0.91    0.15
  -3   0   6    1.14    0.29
   3   0  -6    0.87    0.22
   3   0  -6    1.23    0.22
  -2   0   6    6.33    0.42
   2   0  -6    5.79    0.40
   2   0  -6    6.62    0.37
   2   0  -6    6.34    0.41
  -2   0   6    6.17    0.49
  -2   0   6    6.08    0.33
  -2   0   6    6.11    0.39
   2   0  -6    6.12    0.39
  -2   0   6    6.55    0.49
  -2   0   6    6.73    0.46
   2   0  -6    5.93    0.30
  -1   0   6   98.09    3.82
  -1   0   6   91.37    3.76
   1   0  -6  100.03    3.83
   1   0  -6  101.01    3.78
  -1   0   6   99.10    3.84
   1   0  -6   99.02    3.83
  -1   0   6   96.89    3.82
   1   0  -6   92.23    3.82
  -1   0   6   99.33    3.87
   0   0   6    1.54    0.19
   0   0   6    1.48    0.27
   0   0  -6    1.33    0.26
   0   0   6    1.29    0.24
   0   0  -6    1.31    0.19
   0   0   6    1.44    0.31
   0   0   6    1.53    0.25
   0   0  -6    1.32    0.24
   0   0  -6    1.70    0.29
  -1   0  -6   10.71    0.57
   1   0   6   10.47    0.56
   1   0   6   10.34    0.60
  -1   0  -6   10.38    0.56
   1   0   6   10.44    0.52
   1   0   6   10.94    0.57
  -1   0  -6   11.15    0.48
   1   0   6   10.24    0.55
   2   0   6    6.14    0.42
   2   0   6    5.24    0.39
  -2   0  -6    5.50    0.40
   2   0   6    5.95    0.41
   2   0   6    5.82    0.45
  -2   0  -6    5.70    0.38
  -2   0  -6    5.40    0.30
   2   0   6    5.84    0.37
  -2   0  -6    5.35    0.40
  -2   0  -6    5.48    0.38
  -3   0  -6   -0.01    0.21
   3   0   6   -0.33    0.22
  -3   0  -6   -0.13    0.25
  -3   0  -6    0.03    0.19
  -3   0  -6   -0.24    0.22
   3   0   6    0.01    0.25
   3   0   6   -0.01    0.23
   3   0   6   -0.03    0.18
   3   0   6    0.08    0.28
   4   0   6    2.88    0.33
  -4   0  -6    3.05    0.39
  -4   0  -6    2.85    0.34
   4   0   6    3.41    0.40
   4   0   6    3.31    0.39
  -4   0  -6    3.12    0.39
  -4   0  -6    3.08    0.39
  -4   0  -6    3.09    0.36
   4   0   6    2.91    0.43
   5   0   6    4.81    0.49
  -5   0  -6    4.01    0.45
   5   0   6    4.31    0.40
  -5   0  -6    4.67    0.47
  -5   0  -6    4.06    0.40
  -5   0  -6    4.67    0.49
   5   0   6    3.96    0.47
   6   0   6    0.29    0.32
  -6   0  -6    0.52    0.34
  -6   0  -6    0.55    0.36
   6   0   6    0.54    0.28
   6   0   6    0.24    0.30
   7   0   6    2.49    0.43
  -7   0  -6    2.05    0.44
   7   0   6    2.17    0.45
  -7   0  -6    3.04    0.53
   8   0   6   14.00    0.87
  -8   0  -6   16.23    0.99
  -8   0  -6   14.13    0.92
   8   0   6   14.73    0.90
  -9   0  -6    2.32    0.53
   9   0   6    3.39    0.51
   9   0   6    1.49    0.46
  10  -1  -6    3.14    0.48
 -10  -1   6    3.20    0.63
  10   1  -6    3.60    0.59
 -10   1   6    3.34    0.64
  -9  -1   6    0.14    0.42
   9  -1  -6    0.25    0.30
  -9   1   6    1.14    0.51
   9   1  -6    0.78    0.37
   9   1  -6    0.58    0.36
  -9   1   6    0.42    0.42
  -8  -1   6    2.99    0.54
   8  -1  -6    3.97    0.45
  -8  -1   6    3.36    0.55
   8  -1  -6    2.54    0.34
   8  -1  -6    2.76    0.41
  -8   1   6    3.44    0.54
   8   1  -6    2.81    0.45
   8   1  -6    3.39    0.49
   7  -1  -6    2.65    0.40
  -7  -1   6    1.93    0.46
  -7  -1   6    2.02    0.45
   7  -1  -6    1.56    0.27
   7  -1  -6    2.15    0.36
   7   1  -6    2.73    0.47
  -7   1   6    3.68    0.64
   7   1  -6    2.06    0.41
   7   1  -6    2.37    0.39
  -7   1   6    2.43    0.46
  -7   1   6    2.39    0.43
   6  -1  -6    0.53    0.23
   6  -1  -6    0.32    0.20
  -6  -1   6    0.60    0.34
  -6  -1   6    0.13    0.38
  -6  -1   6    0.30    0.37
  -6  -1   6    0.50    0.37
   6  -1  -6    0.44    0.25
   6   1  -6    0.75    0.30
  -6   1   6    0.26    0.31
  -6   1   6    0.83    0.36
   6   1  -6    0.51    0.26
  -6   1   6    0.48    0.35
   6   1  -6    0.64    0.27
  -6   1   6    0.32    0.24
  -5  -1   6    0.92    0.32
   5  -1  -6    0.87    0.20
  -5  -1   6    0.82    0.34
   5  -1  -6    1.09    0.29
  -5  -1   6    1.06    0.37
   5  -1  -6    0.99    0.27
  -5  -1   6    0.50    0.38
   5   1  -6    0.98    0.29
  -5   1   6    0.60    0.33
  -5   1   6    0.78    0.31
  -5   1   6    0.97    0.26
  -5   1   6    1.01    0.31
   5   1  -6    1.01    0.26
  -5   1   6    0.82    0.25
   5   1  -6    1.06    0.30
   4  -1  -6    0.51    0.16
   4  -1  -6    0.73    0.22
  -4  -1   6    0.08    0.33
  -4  -1   6    0.53    0.32
  -4  -1   6    0.41    0.30
   4  -1  -6    0.73    0.20
   4  -1  -6    0.53    0.22
  -4  -1   6    0.71    0.32
  -4   1   6    0.35    0.20
  -4   1   6    0.39    0.27
  -4   1   6    0.44    0.28
   4   1  -6    0.48    0.23
  -4   1   6    0.31    0.29
   4   1  -6    0.58    0.21
   4   1  -6    0.61    0.23
  -4   1   6    0.38    0.23
  -3  -1   6    0.73    0.26
   3  -1  -6    1.03    0.23
  -3  -1   6    1.10    0.20
  -3  -1   6    0.50    0.31
  -3  -1   6    0.86    0.30
   3  -1  -6    1.08    0.24
  -3  -1   6    1.02    0.30
   3  -1  -6    1.16    0.20
   3  -1  -6    0.79    0.16
   3   1  -6    0.45    0.23
  -3   1   6    0.42    0.25
  -3   1   6    0.77    0.20
  -3   1   6    0.56    0.19
  -3   1   6    0.65    0.22
  -3   1   6    0.63    0.32
   3   1  -6    0.68    0.22
   3   1  -6    0.82    0.25
   3   1  -6    0.70    0.18
  -3   1   6    0.60    0.24
  -2  -1   6    2.90    0.42
   2  -1  -6    2.75    0.24
   2  -1  -6    2.78    0.22
   2  -1  -6    2.98    0.27
  -2  -1   6    2.96    0.36
  -2  -1   6    2.87    0.27
   2  -1  -6    2.82    0.27
  -2  -1   6    3.18    0.39
  -2  -1   6    2.84    0.36
   2  -1  -6    2.99    0.35
  -2   1   6    2.46    0.32
   2   1  -6    2.57    0.29
  -2   1   6    2.85    0.25
  -2   1   6    2.64    0.37
  -2   1   6    2.83    0.27
   2   1  -6    2.65    0.23
  -2   1   6    2.43    0.34
   2   1  -6    2.70    0.29
   2   1  -6    2.55    0.31
  -2   1   6    2.40    0.36
   1  -1  -6    2.74    0.25
   1  -1  -6    2.72    0.26
  -1  -1   6    2.39    0.33
   1  -1  -6    2.53    0.24
  -1  -1   6    3.12    0.28
  -1  -1   6    2.55    0.35
   1  -1  -6    2.74    0.32
  -1  -1   6    2.97    0.38
   1   1  -6    2.78    0.21
   1   1  -6    2.59    0.27
  -1   1   6    2.32    0.30
  -1   1   6    2.32    0.25
   1   1  -6    2.24    0.32
  -1   1   6    2.59    0.36
  -1   1   6    2.61    0.30
  -1   1   6    2.40    0.32
   1   1  -6    2.53    0.31
   0  -1   6   38.70    1.58
   0  -1   6   36.29    1.55
   0  -1   6   37.99    1.52
   0  -1  -6   37.06    1.54
   0  -1  -6   38.52    1.52
   0  -1  -6   37.60    1.55
   0  -1  -6   35.14    1.50
   0  -1   6   36.52    1.58
   0  -1   6   36.28    1.45
   0   1  -6   35.71    1.55
   0   1   6   36.54    1.50
   0   1   6   37.75    1.52
   0   1  -6   36.41    1.53
   0   1   6   36.13    1.52
   0   1   6   37.83    1.58
   0   1   6   37.19    1.55
   0   1  -6   36.15    1.57
   0   1  -6   38.01    1.46
   1  -1   6    0.26    0.26
   1  -1   6    0.11    0.24
  -1  -1  -6    0.41    0.22
   1  -1   6    0.38    0.26
  -1  -1  -6    0.16    0.15
  -1  -1  -6    0.51    0.19
   1  -1   6    0.34    0.13
  -1  -1  -6    0.32    0.22
   1  -1   6    0.34    0.21
   1   1   6    0.26    0.19
  -1   1  -6    0.33    0.22
   1   1   6    0.17    0.23
   1   1   6    0.41    0.26
   1   1   6    0.17    0.17
  -1   1  -6    0.14    0.18
   1   1   6    0.36    0.18
  -1   1  -6    0.24    0.23
  -1   1  -6    0.19    0.21
   1   1   6    0.20    0.18
   2  -1   6    4.51    0.37
  -2  -1  -6    4.50    0.38
   2  -1   6    4.10    0.40
   2  -1   6    4.73    0.31
  -2  -1  -6    4.26    0.42
  -2  -1  -6    4.55    0.35
  -2  -1  -6    3.90    0.29
   2  -1   6    4.14    0.39
   2  -1   6    4.38    0.43
  -2   1  -6    4.21    0.39
   2   1   6    4.36    0.39
  -2   1  -6    4.21    0.36
  -2   1  -6    3.95    0.36
   2   1   6    4.12    0.33
   2   1   6    4.33    0.44
  -2   1  -6    4.40    0.33
   2   1   6    4.32    0.31
   2   1   6    4.43    0.34
   2   1   6    4.39    0.36
   3  -1   6   -0.05    0.26
  -3  -1  -6    0.10    0.16
   3  -1   6   -0.07    0.25
  -3  -1  -6    0.12    0.26
  -3  -1  -6    0.04    0.16
   3  -1   6    0.26    0.20
  -3  -1  -6    0.22    0.28
   3  -1   6    0.14    0.25
  -3  -1  -6    0.20    0.25
   3  -1   6   -0.23    0.26
   3   1   6    0.10    0.27
   3   1   6    0.01    0.18
  -3   1  -6    0.24    0.18
   3   1   6    0.22    0.24
   3   1   6    0.01    0.23
   3   1   6    0.16    0.19
  -3   1  -6    0.13    0.23
   3   1   6    0.23    0.29
  -3   1  -6    0.24    0.23
  -3   1  -6    0.14    0.25
  -3   1  -6    0.04    0.27
  -4  -1  -6    6.49    0.51
  -4  -1  -6    6.35    0.50
   4  -1   6    6.12    0.52
   4  -1   6    6.09    0.53
  -4  -1  -6    6.34    0.48
   4  -1   6    7.15    0.49
   4  -1   6    6.83    0.44
   4   1   6    5.65    0.43
  -4   1  -6    5.47    0.49
   4   1   6    6.50    0.49
  -4   1  -6    5.66    0.52
   4   1   6    6.00    0.46
  -4   1  -6    5.72    0.51
  -4   1  -6    6.48    0.51
   4   1   6    6.27    0.46
  -4   1  -6    6.34    0.47
  -5  -1  -6    0.00    0.33
   5  -1   6   -0.02    0.22
   5  -1   6   -0.13    0.28
  -5  -1  -6    0.05    0.33
   5  -1   6    0.01    0.28
  -5  -1  -6   -0.34    0.27
   5   1   6   -0.34    0.26
  -5   1  -6    0.00    0.27
  -5   1  -6    0.18    0.27
  -5   1  -6    0.18    0.27
   5   1   6   -0.29    0.28
   5   1   6   -0.06    0.25
  -5   1  -6   -0.01    0.32
   6  -1   6    1.10    0.37
   6  -1   6    0.94    0.34
  -6  -1  -6    1.85    0.44
   6  -1   6    1.35    0.32
  -6  -1  -6    0.66    0.39
  -6   1  -6    1.35    0.35
  -6   1  -6    1.37    0.36
   6   1   6    1.03    0.34
  -6   1  -6    1.30    0.35
   6   1   6    1.03    0.35
  -6   1  -6    1.66    0.42
   7  -1   6    0.63    0.37
   7  -1   6    1.08    0.39
   7  -1   6    1.25    0.36
  -7  -1  -6    0.78    0.48
  -7  -1  -6    1.49    0.44
   7   1   6    0.77    0.36
  -7   1  -6    2.03    0.48
  -7   1  -6    1.61    0.39
  -7   1  -6    1.46    0.37
   7   1   6    1.45    0.36
   8  -1   6    2.16    0.47
   8  -1   6    3.21    0.46
  -8  -1  -6    3.85    0.61
  -8  -1  -6    2.21    0.53
   8   1   6    3.49    0.56
  -8   1  -6    4.20    0.64
  -8   1  -6    3.00    0.50
   8   1   6    2.40    0.50
   9  -1   6   20.32    1.09
  -9  -1  -6   17.67    1.13
   9  -1   6   17.42    1.04
  -9   1  -6   18.44    1.36
   9   1   6   17.09    1.03
   9   1   6   18.88    1.11
  -9   1  -6   21.77    1.22
 -10  -2   6    0.95    0.52
  10  -2  -6    1.17    0.40
 -10   2   6    1.34    0.51
 -10   2   6    2.24    0.73
  10   2  -6    1.34    0.46
  10   2  -6    0.79    0.40
   9  -2  -6    0.74    0.35
  -9  -2   6    0.07    0.42
  -9   2   6    0.68    0.43
  -9   2   6    1.02    0.58
   9   2  -6    0.53    0.36
   9   2  -6    0.82    0.36
  -8  -2   6    2.11    0.53
   8  -2  -6    1.52    0.30
  -8  -2   6    1.27    0.52
   8  -2  -6    1.84    0.37
   8   2  -6    1.78    0.42
  -8   2   6    2.50    0.50
  -8   2   6    3.09    0.66
   8   2  -6    2.33    0.44
   8   2  -6    1.14    0.44
   7  -2  -6    0.63    0.30
  -7  -2   6    0.31    0.42
  -7  -2   6    0.31    0.44
  -7  -2   6    1.55    0.39
   7  -2  -6    0.47    0.23
   7   2  -6    0.85    0.30
  -7   2   6    1.25    0.47
   7   2  -6    0.80    0.37
  -7   2   6    1.00    0.36
   7   2  -6    0.85    0.33
  -7   2   6    0.78    0.31
  -6  -2   6    4.98    0.59
   6  -2  -6    5.12    0.46
  -6  -2   6    4.48    0.63
   6  -2  -6    4.94    0.38
  -6  -2   6    4.50    0.55
   6  -2  -6    5.51    0.45
  -6  -2   6    5.37    0.51
  -6   2   6    4.74    0.49
  -6   2   6    5.58    0.49
  -6   2   6    4.88    0.47
   6   2  -6    4.79    0.54
   6   2  -6    4.54    0.50
  -6   2   6    4.92    0.62
   6   2  -6    4.48    0.43
   5  -2  -6    7.20    0.46
   5  -2  -6    8.15    0.53
  -5  -2   6    6.55    0.66
   5  -2  -6    8.04    0.55
  -5  -2   6    6.81    0.60
  -5  -2   6    7.68    0.63
  -5  -2   6    7.76    0.60
  -5   2   6    7.88    0.57
   5   2  -6    6.97    0.55
   5   2  -6    7.44    0.49
   5   2  -6    6.66    0.58
  -5   2   6    7.73    0.57
  -5   2   6    7.18    0.63
  -5   2   6    6.99    0.53
  -4  -2   6    4.15    0.54
  -4  -2   6    4.52    0.51
   4  -2  -6    4.76    0.43
  -4  -2   6    4.15    0.48
  -4  -2   6    4.64    0.50
   4  -2  -6    4.40    0.35
   4  -2  -6    4.75    0.40
   4   2  -6    4.39    0.34
  -4   2   6    3.67    0.49
  -4   2   6    4.20    0.40
   4   2  -6    4.07    0.42
  -4   2   6    4.43    0.40
  -4   2   6    4.30    0.39
   4   2  -6    3.83    0.41
  -3  -2   6    2.41    0.42
   3  -2  -6    2.26    0.31
   3  -2  -6    2.22    0.23
  -3  -2   6    1.80    0.39
   3  -2  -6    2.02    0.33
  -3  -2   6    1.83    0.38
   3  -2  -6    1.79    0.26
  -3  -2   6    2.14    0.38
  -3   2   6    1.87    0.29
   3   2  -6    1.83    0.34
  -3   2   6    2.16    0.36
  -3   2   6    1.65    0.32
  -3   2   6    1.84    0.32
   3   2  -6    1.70    0.34
   3   2  -6    1.98    0.25
   3   2  -6    1.59    0.31
  -3   2   6    1.90    0.33
  -2  -2   6    2.42    0.43
  -2  -2   6    2.72    0.25
   2  -2  -6    2.69    0.35
  -2  -2   6    2.22    0.46
   2  -2  -6    2.28    0.30
  -2  -2   6    2.57    0.44
   2  -2  -6    2.73    0.26
  -2  -2   6    3.01    0.42
  -2   2   6    2.29    0.33
   2   2  -6    2.15    0.37
   2   2  -6    2.24    0.24
  -2   2   6    2.24    0.30
   2   2  -6    1.93    0.30
  -2   2   6    1.82    0.38
  -2   2   6    2.34    0.28
   2   2  -6    2.18    0.31
  -2   2   6    2.07    0.28
  -1  -2   6    0.21    0.27
   1  -2  -6    0.37    0.25
   1  -2  -6    0.37    0.20
  -1  -2   6    0.15    0.18
  -1  -2   6    0.20    0.25
   1  -2  -6    0.16    0.18
  -1  -2   6    0.10    0.27
   1   2  -6    0.03    0.22
  -1   2   6   -0.04    0.16
   1   2  -6    0.05    0.25
  -1   2   6   -0.02    0.25
   1   2  -6    0.19    0.12
  -1   2   6   -0.03    0.18
  -1   2   6   -0.08    0.27
   1   2  -6    0.02    0.17
  -1   2   6    0.13    0.19
   0  -2  -6   10.79    0.58
   0  -2  -6   11.87    0.66
   0  -2  -6   11.48    0.55
   0  -2  -6   11.75    0.58
   0  -2  -6   11.97    0.52
   0  -2   6   11.59    0.65
   0  -2   6   11.21    0.67
   0  -2   6   12.16    0.57
   0  -2   6   10.74    0.63
   0   2   6   11.29    0.54
   0   2  -6   10.87    0.58
   0   2  -6   10.59    0.64
   0   2  -6   10.66    0.64
   0   2   6   11.31    0.64
   0   2   6   11.62    0.53
   0   2  -6   10.83    0.61
   0   2   6   11.19    0.64
  -1  -2  -6    5.90    0.40
   1  -2   6    6.71    0.51
  -1  -2  -6    7.65    0.53
   1  -2   6    7.26    0.45
   1  -2   6    6.32    0.50
   1  -2   6    6.72    0.52
  -1  -2  -6    7.15    0.48
  -1  -2  -6    7.38    0.39
   1   2   6    6.77    0.45
   1   2   6    7.04    0.45
  -1   2  -6    6.48    0.49
  -1   2  -6    6.21    0.45
  -1   2  -6    6.99    0.49
   1   2   6    6.83    0.48
   1   2   6    6.35    0.37
  -1   2  -6    6.59    0.42
   1   2   6    6.64    0.47
   2  -2   6   14.35    0.68
   2  -2   6   15.21    0.63
  -2  -2  -6   14.93    0.67
  -2  -2  -6   14.99    0.73
   2  -2   6   12.59    0.75
  -2  -2  -6   12.87    0.67
   2  -2   6   13.32    0.75
  -2  -2  -6   14.28    0.73
   2  -2   6   12.84    0.77
   2   2   6   12.44    0.70
   2   2   6   13.34    0.72
  -2   2  -6   13.66    0.65
  -2   2  -6   12.77    0.74
   2   2   6   13.99    0.73
  -2   2  -6   13.14    0.70
   2   2   6   13.21    0.70
  -2   2  -6   12.41    0.74
  -3  -2  -6    0.48    0.24
   3  -2   6    0.20    0.26
   3  -2   6    0.37    0.18
  -3  -2  -6    0.64    0.36
  -3  -2  -6    0.20    0.20
  -3  -2  -6    0.38    0.27
   3  -2   6    0.22    0.29
   3  -2   6    0.30    0.30
   3   2   6    0.47    0.28
  -3   2  -6    0.23    0.28
  -3   2  -6    0.35    0.28
  -3   2  -6    0.21    0.24
  -3   2  -6    0.43    0.16
   3   2   6    0.27    0.23
  -3   2  -6    0.21    0.28
   3   2   6    0.09    0.27
   3   2   6    0.32    0.24
  -4  -2  -6    0.32    0.29
   4  -2   6    0.63    0.34
  -4  -2  -6    1.10    0.38
   4  -2   6    0.40    0.33
   4  -2   6    0.95    0.24
   4  -2   6    1.05    0.38
  -4  -2  -6    0.82    0.30
  -4   2  -6    0.85    0.37
   4   2   6    0.51    0.28
   4   2   6    0.93    0.30
  -4   2  -6    0.72    0.29
  -4   2  -6    0.66    0.34
   4   2   6    0.85    0.29
  -4   2  -6    0.88    0.37
   4   2   6    0.58    0.31
   5  -2   6    0.04    0.32
  -5  -2  -6   -0.43    0.29
   5  -2   6    0.64    0.31
   5  -2   6   -0.15    0.28
  -5  -2  -6    0.16    0.31
   5  -2   6   -0.18    0.20
  -5  -2  -6   -0.38    0.36
  -5   2  -6    0.00    0.24
  -5   2  -6    0.29    0.35
  -5   2  -6    0.01    0.30
   5   2   6   -0.07    0.26
   5   2   6   -0.01    0.28
   5   2   6   -0.02    0.27
  -5   2  -6    0.18    0.29
  -6  -2  -6    7.58    0.62
   6  -2   6    8.20    0.60
   6  -2   6    8.69    0.74
   6  -2   6    7.97    0.54
  -6  -2  -6    7.10    0.72
   6  -2   6    9.43    0.65
  -6  -2  -6    9.31    0.69
  -6   2  -6    8.20    0.67
  -6   2  -6    9.11    0.77
  -6   2  -6    8.32    0.57
   6   2   6    8.07    0.60
  -6   2  -6    8.01    0.68
   6   2   6    8.62    0.62
   7  -2   6    6.92    0.65
   7  -2   6    7.39    0.60
  -7  -2  -6    6.56    0.69
   7  -2   6    8.11    0.75
  -7  -2  -6    9.46    0.76
   7   2   6    7.51    0.62
   7   2   6    6.35    0.63
  -7   2  -6    8.31    0.60
  -7   2  -6    7.88    0.73
  -7   2  -6    9.24    0.83
   8  -2   6    0.64    0.36
  -8  -2  -6   -0.55    0.47
   8  -2   6    0.11    0.38
   8  -2   6    0.16    0.38
   8   2   6    0.18    0.38
  -8   2  -6    0.83    0.31
  -8   2  -6    0.77    0.41
   8   2   6    0.67    0.40
  -9  -2  -6    1.28    0.56
   9  -2   6    0.75    0.40
   9   2   6    0.39    0.38
   9   2   6    0.84    0.41
 -10  -3   6    1.11    0.53
  10  -3  -6    1.21    0.42
  10   3  -6    1.11    0.43
 -10   3   6    2.06    0.78
  10   3  -6    0.91    0.50
 -10   3   6    1.37    0.54
   9  -3  -6    2.52    0.46
  -9  -3   6    1.36    0.60
  -9  -3   6    1.87    0.52
  -9   3   6    3.86    0.63
   9   3  -6    2.80    0.52
   9   3  -6    2.77    0.58
   8  -3  -6    0.20    0.27
   8  -3  -6    0.47    0.33
   8  -3  -6    0.66    0.30
  -8  -3   6    0.09    0.44
  -8  -3   6    0.28    0.51
  -8  -3   6    0.96    0.42
   8   3  -6    0.73    0.35
  -8   3   6    1.07    0.42
  -8   3   6    0.17    0.34
   8   3  -6    0.91    0.44
  -8   3   6    1.32    0.60
   8   3  -6    0.41    0.40
   7  -3  -6    1.06    0.29
  -7  -3   6    1.00    0.47
  -7  -3   6    1.03    0.49
   7  -3  -6    1.10    0.36
   7   3  -6    1.22    0.40
   7   3  -6    1.32    0.35
   7   3  -6    0.75    0.43
  -7   3   6    1.74    0.56
  -7   3   6    0.81    0.35
  -7   3   6    1.97    0.43
   6  -3  -6    0.10    0.25
  -6  -3   6    0.44    0.44
  -6  -3   6   -0.10    0.45
   6  -3  -6    0.79    0.26
   6  -3  -6    0.08    0.33
  -6   3   6    0.90    0.46
   6   3  -6    0.77    0.41
  -6   3   6    0.57    0.36
   6   3  -6    0.51    0.30
   6   3  -6    0.70    0.35
  -6   3   6    0.83    0.32
  -5  -3   6    0.63    0.42
  -5  -3   6    0.65    0.43
   5  -3  -6    0.73    0.26
   5  -3  -6    0.47    0.33
  -5  -3   6    0.40    0.31
   5  -3  -6    0.60    0.24
   5   3  -6    0.71    0.25
  -5   3   6    0.89    0.36
   5   3  -6    0.93    0.35
  -5   3   6    0.81    0.40
   5   3  -6    0.64    0.35
  -5   3   6    0.95    0.31
   4  -3  -6    2.72    0.37
  -4  -3   6    2.90    0.49
   4  -3  -6    2.56    0.36
  -4  -3   6    2.77    0.48
  -4  -3   6    3.07    0.52
   4  -3  -6    2.98    0.40
  -4  -3   6    2.10    0.47
  -4   3   6    2.42    0.50
  -4   3   6    2.65    0.41
   4   3  -6    2.58    0.48
   4   3  -6    2.78    0.44
   4   3  -6    2.84    0.35
  -4   3   6    3.04    0.37
   4   3  -6    3.09    0.42
  -4   3   6    2.43    0.33
   3  -3  -6   14.89    0.76
   3  -3  -6   16.06    0.82
  -3  -3   6   15.23    0.88
   3  -3  -6   16.07    0.79
  -3  -3   6   16.54    0.85
  -3  -3   6   15.91    0.90
  -3  -3   6   16.19    0.87
   3   3  -6   14.83    0.74
   3   3  -6   13.46    0.81
  -3   3   6   15.39    0.76
   3   3  -6   14.61    0.82
   3   3  -6   14.87    0.86
  -3   3   6   13.93    0.85
  -3   3   6   15.19    0.73
  -3   3   6   15.09    0.80
  -3   3   6   14.64    0.83
   2  -3  -6    5.43    0.35
  -2  -3   6    5.51    0.50
   2  -3  -6    4.98    0.45
  -2  -3   6    4.82    0.52
  -2  -3   6    5.27    0.52
   2  -3  -6    4.87    0.42
  -2  -3   6    4.08    0.51
  -2   3   6    4.62    0.45
   2   3  -6    4.38    0.44
  -2   3   6    4.91    0.42
   2   3  -6    4.07    0.45
   2   3  -6    4.61    0.35
  -2   3   6    4.69    0.34
  -2   3   6    4.46    0.47
  -2   3   6    4.93    0.36
   2   3  -6    4.46    0.48
  -1  -3   6    0.07    0.28
   1  -3  -6    0.10    0.22
   1  -3  -6    0.24    0.23
  -1  -3   6    0.01    0.19
   1  -3  -6    0.77    0.32
  -1  -3   6   -0.01    0.27
  -1  -3   6    0.25    0.35
   1   3  -6   -0.01    0.23
  -1   3   6   -0.21    0.24
   1   3  -6   -0.20    0.19
   1   3  -6    0.03    0.27
  -1   3   6   -0.09    0.28
  -1   3   6    0.18    0.16
  -1   3   6   -0.11    0.22
   0  -3  -6    5.30    0.47
   0  -3   6    4.71    0.53
   0  -3  -6    5.06    0.44
   0  -3  -6    5.32    0.43
   0  -3   6    5.17    0.50
   0  -3   6    5.60    0.37
   0  -3   6    5.04    0.57
   0   3   6    4.74    0.44
   0   3  -6    4.66    0.47
   0   3  -6    5.34    0.53
   0   3   6    5.07    0.43
   0   3  -6    4.48    0.42
   0   3   6    5.21    0.46
   0   3  -6    4.85    0.41
  -1  -3  -6   12.64    0.70
   1  -3   6   12.70    0.78
   1  -3   6   12.57    0.75
  -1  -3  -6   13.84    0.76
  -1  -3  -6   13.10    0.68
   1  -3   6   13.24    0.76
   1  -3   6   13.62    0.66
  -1   3  -6   12.49    0.66
   1   3   6   12.01    0.71
   1   3   6   12.90    0.71
  -1   3  -6   12.13    0.74
   1   3   6   12.32    0.70
  -1   3  -6   12.96    0.75
   1   3   6   12.67    0.74
  -1   3  -6   12.07    0.72
   2  -3   6   16.98    0.77
  -2  -3  -6   17.21    0.82
  -2  -3  -6   16.10    0.84
   2  -3   6   15.56    0.93
   2  -3   6   15.44    0.90
   2  -3   6   16.82    0.89
  -2  -3  -6   14.74    0.80
   2   3   6   14.70    0.81
  -2   3  -6   14.39    0.86
  -2   3  -6   15.53    0.83
   2   3   6   15.57    0.79
   2   3   6   14.04    0.83
  -2   3  -6   15.15    0.88
  -2   3  -6   15.36    0.74
   2   3   6   15.58    0.83
  -3  -3  -6    7.93    0.61
  -3  -3  -6    8.87    0.55
   3  -3   6    7.33    0.64
  -3  -3  -6    7.85    0.58
  -3  -3  -6    6.89    0.52
   3  -3   6    7.73    0.64
   3  -3   6    7.53    0.51
  -3   3  -6    7.61    0.61
   3   3   6    7.64    0.55
   3   3   6    7.23    0.54
   3   3   6    6.91    0.58
  -3   3  -6    7.00    0.52
  -3   3  -6    6.97    0.61
   3   3   6    7.69    0.52
  -3   3  -6    7.34    0.63
   4  -3   6    0.90    0.41
  -4  -3  -6    1.03    0.30
   4  -3   6    1.07    0.37
  -4  -3  -6    0.59    0.36
   4  -3   6    0.79    0.32
  -4  -3  -6    0.45    0.39
  -4   3  -6    0.77    0.36
  -4   3  -6    0.79    0.28
   4   3   6    0.82    0.32
  -4   3  -6    1.05    0.37
   4   3   6    1.09    0.33
  -4   3  -6    0.99    0.41
   4   3   6    1.03    0.33
  -5  -3  -6    0.83    0.34
  -5  -3  -6    0.94    0.33
   5  -3   6    0.59    0.32
   5  -3   6    1.00    0.41
  -5  -3  -6    0.49    0.43
   5  -3   6    0.45    0.34
  -5   3  -6    0.65    0.38
  -5   3  -6    1.40    0.44
   5   3   6    0.64    0.33
   5   3   6    0.70    0.32
  -5   3  -6    1.14    0.33
   5   3   6    0.92    0.36
  -5   3  -6    1.03    0.41
  -6  -3  -6    8.63    0.68
   6  -3   6    8.34    0.76
  -6  -3  -6    8.23    0.80
   6  -3   6    9.24    0.59
   6  -3   6    9.06    0.70
  -6  -3  -6    9.68    0.65
  -6   3  -6   10.05    0.85
   6   3   6    8.40    0.66
  -6   3  -6    9.63    0.64
   6   3   6    7.92    0.68
  -6   3  -6    8.77    0.75
   6   3   6    8.79    0.67
   7  -3   6    8.21    0.59
   7  -3   6    9.23    0.80
  -7  -3  -6    8.53    0.69
   7  -3   6    7.45    0.71
  -7   3  -6    9.97    0.66
   7   3   6    7.94    0.68
  -7   3  -6    9.07    0.84
  -7   3  -6    9.59    0.83
   7   3   6    7.74    0.64
   8  -3   6    4.23    0.54
   8  -3   6    4.54    0.77
   8  -3   6    3.90    0.61
  -8  -3  -6    2.79    0.68
  -8  -3  -6    5.88    0.71
   8   3   6    5.01    0.64
   8   3   6    4.13    0.52
  -8   3  -6    5.08    0.70
  -9  -4   6    0.91    0.55
   9  -4  -6   -0.29    0.34
   9  -4  -6    0.00    0.35
  -9  -4   6    0.04    0.48
  -9  -4   6   -0.93    0.62
   9   4  -6   -0.49    0.54
  -9   4   6    1.71    0.74
   9   4  -6    0.92    0.51
  -9   4   6    1.52    0.56
   9   4  -6    1.05    0.42
   8  -4  -6    4.78    0.52
  -8  -4   6    7.39    0.76
  -8  -4   6    5.76    0.86
  -8  -4   6    5.31    0.70
   8  -4  -6    5.52    0.58
   8  -4  -6    6.48    0.56
   8   4  -6    6.01    0.77
   8   4  -6    4.45    0.80
  -8   4   6    4.35    0.66
  -8   4   6    6.92    0.89
   8   4  -6    6.11    0.63
  -8   4   6    6.84    0.68
  -7  -4   6    3.01    0.59
  -7  -4   6    3.52    0.67
   7  -4  -6    3.31    0.49
   7  -4  -6    2.99    0.57
   7   4  -6    3.82    0.72
   7   4  -6    3.73    0.60
  -7   4   6    4.57    0.55
   7   4  -6    4.38    0.57
  -7   4   6    3.43    0.54
   6  -4  -6    0.43    0.26
  -6  -4   6   -0.73    0.49
   6  -4  -6    0.20    0.28
  -6  -4   6    0.20    0.49
   6  -4  -6   -0.20    0.37
  -6   4   6    0.79    0.51
   6   4  -6    0.22    0.36
  -6   4   6    0.58    0.29
  -6   4   6    0.01    0.40
  -6   4   6    0.72    0.25
   6   4  -6    0.17    0.44
   6   4  -6    0.47    0.31
   5  -4  -6    0.25    0.26
   5  -4  -6    0.18    0.37
  -5  -4   6   -0.25    0.42
  -5  -4   6    0.33    0.45
   5  -4  -6    0.32    0.29
  -5   4   6    0.62    0.35
   5   4  -6    0.59    0.28
   5   4  -6    0.38    0.41
  -5   4   6    0.79    0.44
   5   4  -6    0.48    0.37
  -5   4   6    0.83    0.28
   4  -4  -6    0.91    0.35
  -4  -4   6    0.34    0.35
  -4  -4   6    0.40    0.41
  -4  -4   6    1.08    0.50
   4  -4  -6    0.65    0.35
   4  -4  -6    0.76    0.28
   4   4  -6    0.96    0.43
   4   4  -6    0.86    0.39
  -4   4   6    0.56    0.41
   4   4  -6    0.89    0.34
  -4   4   6    0.77    0.35
  -4   4   6    0.93    0.37
  -4   4   6    1.06    0.25
   4   4  -6    0.99    0.28
  -3  -4   6   -0.06    0.37
  -3  -4   6    0.32    0.40
   3  -4  -6    0.45    0.27
  -3  -4   6    0.33    0.38
   3  -4  -6    0.32    0.31
   3  -4  -6    0.32    0.31
  -3  -4   6    0.10    0.35
   3   4  -6    0.46    0.33
  -3   4   6    0.09    0.29
  -3   4   6    0.31    0.23
  -3   4   6    0.21    0.34
  -3   4   6    0.10    0.34
   3   4  -6    0.31    0.21
   3   4  -6    0.19    0.35
   3   4  -6    0.30    0.32
   2  -4  -6    0.56    0.34
  -2  -4   6    0.93    0.38
  -2  -4   6    0.66    0.36
   2  -4  -6    0.88    0.34
  -2  -4   6    0.67    0.37
  -2  -4   6    0.68    0.42
  -2   4   6    1.31    0.40
   2   4  -6    0.66    0.32
  -2   4   6    0.84    0.34
  -2   4   6    0.69    0.32
   2   4  -6    0.71    0.35
   2   4  -6    0.76    0.37
   2   4  -6    0.58    0.33
   1  -4  -6    3.15    0.52
  -1  -4   6    3.24    0.55
  -1  -4   6    2.57    0.46
   1  -4  -6    2.36    0.39
  -1  -4   6    3.14    0.57
   1  -4  -6    2.92    0.38
  -1   4   6    2.91    0.50
  -1   4   6    2.47    0.41
  -1   4   6    2.52    0.45
   1   4  -6    2.71    0.43
   1   4  -6    2.36    0.47
   1   4  -6    2.56    0.42
   0  -4   6   -0.05    0.35
   0  -4   6    0.21    0.32
   0  -4   6   -0.03    0.34
   0  -4  -6    0.20    0.27
   0  -4  -6    0.37    0.37
   0  -4  -6   -0.08    0.25
   0  -4   6    0.06    0.22
   0   4  -6    0.07    0.31
   0   4   6    0.03    0.30
   0   4  -6    0.14    0.32
   0   4   6    0.26    0.29
   0   4   6    0.37    0.28
   0   4  -6    0.07    0.32
   0   4  -6    0.23    0.25
   1  -4   6    3.29    0.52
   1  -4   6    3.93    0.61
  -1  -4  -6    4.10    0.49
  -1  -4  -6    3.94    0.48
   1  -4   6    3.88    0.54
  -1  -4  -6    4.47    0.50
   1   4   6    3.35    0.44
  -1   4  -6    3.65    0.38
   1   4   6    3.87    0.44
  -1   4  -6    3.59    0.51
   1   4   6    3.65    0.45
  -1   4  -6    3.59    0.50
   1   4   6    3.14    0.52
  -1   4  -6    3.41    0.51
   2  -4   6    3.08    0.56
  -2  -4  -6    2.68    0.44
   2  -4   6    2.61    0.40
  -2  -4  -6    2.46    0.40
   2  -4   6    2.49    0.48
   2  -4   6    2.93    0.52
  -2  -4  -6    3.17    0.48
   2   4   6    3.28    0.38
   2   4   6    3.11    0.43
  -2   4  -6    2.79    0.53
  -2   4  -6    3.17    0.45
  -2   4  -6    3.20    0.50
   2   4   6    2.10    0.42
   2   4   6    3.09    0.43
  -3  -4  -6    3.37    0.55
  -3  -4  -6    2.51    0.44
  -3  -4  -6    3.33    0.50
   3  -4   6    3.21    0.59
   3  -4   6    2.35    0.39
   3  -4   6    3.22    0.51
   3  -4   6    3.08    0.52
  -3   4  -6    2.71    0.49
   3   4   6    2.81    0.44
  -3   4  -6    3.06    0.54
   3   4   6    3.02    0.44
   3   4   6    2.49    0.48
  -3   4  -6    3.61    0.50
  -3   4  -6    2.82    0.52
  -4  -4  -6   -0.12    0.39
   4  -4   6   -0.20    0.30
  -4  -4  -6   -0.63    0.43
   4  -4   6   -0.08    0.41
   4   4   6    0.21    0.32
   4   4   6    0.43    0.32
  -4   4  -6    0.34    0.37
  -4   4  -6    0.52    0.31
  -4   4  -6   -0.14    0.37
   4   4   6   -0.25    0.36
   5  -4   6    0.03    0.34
   5  -4   6    0.46    0.47
  -5  -4  -6    0.08    0.37
  -5  -4  -6    0.10    0.45
  -5   4  -6    0.65    0.43
  -5   4  -6    0.44    0.42
   5   4   6    0.81    0.36
   5   4   6    0.53    0.40
   5   4   6    0.88    0.39
  -6  -4  -6    0.77    0.54
   6  -4   6    1.31    0.44
   6  -4   6    2.64    0.66
  -6  -4  -6    2.24    0.51
   6   4   6    2.08    0.49
  -6   4  -6    2.04    0.54
  -6   4  -6    3.83    0.74
   6   4   6    2.14    0.44
   6   4   6    3.19    0.50
  -7  -4  -6    4.35    0.76
   7  -4   6    3.89    0.59
  -7  -4  -6    4.75    0.67
   7  -4   6    6.78    0.89
  -7   4  -6    4.83    0.72
   7   4   6    4.85    0.67
   7   4   6    5.09    0.60
  -7   4  -6    6.70    0.76
   7   4   6    5.76    0.53
   8  -4   6    1.77    0.62
  -8   4  -6    1.19    0.60
   8   4   6    2.79    0.80
   8   4   6    1.96    0.52
  -8  -5   6    0.10    0.61
  -8  -5   6    2.03    0.65
   8  -5  -6    1.54    0.39
  -8   5   6    2.33    0.75
  -8   5   6    0.32    0.53
   8   5  -6    1.05    0.46
   8   5  -6    1.09    0.50
   8   5  -6    0.39    0.62
  -7  -5   6    3.16    0.64
  -7  -5   6    1.42    0.66
   7  -5  -6    1.17    0.53
   7  -5  -6    2.05    0.44
   7   5  -6    2.82    0.52
  -7   5   6    3.33    0.77
   7   5  -6    2.25    0.63
   7   5  -6    2.03    0.56
  -7   5   6    2.14    0.58
  -7   5   6    3.38    0.60
   6  -5  -6    1.92    0.53
  -6  -5   6    2.42    0.65
   6  -5  -6    2.63    0.44
  -6  -5   6    1.40    0.57
  -6   5   6    3.47    0.52
   6   5  -6    2.35    0.58
  -6   5   6    4.15    0.77
   6   5  -6    2.57    0.63
  -6   5   6    2.15    0.55
   6   5  -6    2.42    0.46
   5  -5  -6    0.01    0.30
  -5  -5   6   -0.18    0.50
   5  -5  -6   -0.56    0.31
   5  -5  -6   -0.25    0.43
  -5   5   6    0.31    0.44
  -5   5   6    0.72    0.52
   5   5  -6    0.24    0.43
   5   5  -6    0.35    0.27
   5   5  -6    0.10    0.38
   4  -5  -6    0.38    0.43
   4  -5  -6    1.02    0.36
   4  -5  -6    0.10    0.37
  -4  -5   6    0.03    0.45
  -4  -5   6    1.21    0.53
   4   5  -6    0.68    0.47
   4   5  -6    0.35    0.46
   4   5  -6    0.99    0.40
  -4   5   6    1.07    0.48
   4   5  -6    0.95    0.29
  -4   5   6    0.90    0.43
  -4   5   6    0.07    0.40
  -3  -5   6    1.12    0.39
   3  -5  -6    1.24    0.43
  -3  -5   6    1.16    0.45
   3  -5  -6    1.54    0.40
  -3  -5   6    1.27    0.51
   3  -5  -6    1.54    0.33
  -3   5   6    0.82    0.38
   3   5  -6    1.33    0.44
  -3   5   6    1.97    0.48
   3   5  -6    1.21    0.47
  -3   5   6    1.38    0.44
   3   5  -6    1.32    0.39
   2  -5  -6    7.02    0.53
  -2  -5   6    8.17    0.70
  -2  -5   6    7.75    0.61
  -2  -5   6    7.27    0.77
   2  -5  -6    8.00    0.62
  -2  -5   6    7.85    0.67
   2  -5  -6    8.20    0.69
  -2   5   6    6.96    0.61
  -2   5   6    9.71    0.78
   2   5  -6    7.03    0.68
   2   5  -6    7.22    0.65
  -2   5   6    7.04    0.62
   2   5  -6    8.24    0.68
  -1  -5   6    2.77    0.51
   1  -5  -6    3.76    0.54
   1  -5  -6    2.75    0.46
  -1  -5   6    2.59    0.52
  -1  -5   6    2.98    0.54
   1   5  -6    3.38    0.53
  -1   5   6    2.79    0.47
   1   5  -6    2.81    0.49
  -1   5   6    3.56    0.52
   1   5  -6    2.78    0.54
  -1   5   6    2.64    0.47
   0  -5   6   17.16    0.98
   0  -5  -6   16.60    0.92
   0  -5   6   16.29    0.96
   0  -5  -6   17.09    0.87
   0  -5  -6   17.65    0.96
   0  -5   6   16.87    1.07
   0   5   6   16.04    0.92
   0   5   6   15.73    0.93
   0   5  -6   17.75    1.02
   0   5   6   16.38    0.98
   0   5  -6   16.69    0.99
   0   5   6   16.69    0.91
   0   5  -6   17.33    1.00
   0   5  -6   16.27    0.91
   1  -5   6    1.34    0.45
   1  -5   6    0.62    0.43
   1  -5   6    0.49    0.28
  -1  -5  -6    0.81    0.37
   1   5   6    0.91    0.36
  -1   5  -6    0.97    0.37
  -1   5  -6    1.07    0.44
  -1   5  -6    1.03    0.44
   1   5   6    1.02    0.35
  -2  -5  -6    0.85    0.41
   2  -5   6    0.54    0.45
   2  -5   6    0.93    0.44
  -2  -5  -6    0.28    0.37
   2  -5   6    0.78    0.32
  -2  -5  -6    0.70    0.46
  -2   5  -6    0.86    0.41
   2   5   6    0.69    0.37
   2   5   6    0.07    0.41
   2   5   6    1.03    0.36
  -2   5  -6    0.69    0.44
  -2   5  -6    1.24    0.43
  -3  -5  -6    1.17    0.38
   3  -5   6    0.86    0.48
  -3  -5  -6    0.04    0.41
   3  -5   6   -0.03    0.34
  -3  -5  -6    0.40    0.41
   3  -5   6    0.67    0.42
  -3   5  -6    0.95    0.40
  -3   5  -6    0.35    0.44
   3   5   6    0.54    0.33
  -3   5  -6    0.19    0.42
   3   5   6    0.38    0.34
   3   5   6    0.62    0.44
  -4  -5  -6    1.23    0.32
   4  -5   6    0.92    0.53
  -4  -5  -6   -0.40    0.45
   4  -5   6    0.05    0.33
  -4  -5  -6    0.40    0.48
   4   5   6    0.78    0.34
  -4   5  -6    0.57    0.46
  -4   5  -6    0.92    0.47
   4   5   6    0.67    0.37
  -4   5  -6    1.33    0.37
   4   5   6    0.32    0.41
   5  -5   6    0.25    0.56
  -5  -5  -6    0.06    0.44
   5  -5   6   -0.25    0.40
  -5   5  -6    0.81    0.50
   5   5   6    0.14    0.41
   5   5   6    0.68    0.43
  -5   5  -6    0.14    0.53
   5   5   6    0.92    0.38
  -5   5  -6    1.24    0.43
   6  -5   6   -0.57    0.39
   6  -5   6    0.40    0.66
  -6  -5  -6   -0.48    0.43
  -6   5  -6    1.55    0.61
  -6   5  -6   -0.15    0.49
   6   5   6    0.94    0.36
   6   5   6    0.09    0.45
   6   5   6    0.64    0.40
   7  -5   6    0.67    0.63
   7  -5   6   -0.19    0.44
  -7  -5  -6    0.35    0.48
   7   5   6    0.85    0.44
   7   5   6    0.31    0.47
  -7   5  -6    1.24    0.58
  -7   5  -6    1.67    0.60
  -7  -6   6   -0.42    0.65
  -7  -6   6    0.93    0.60
   7  -6  -6   -0.18    0.38
   7   6  -6    0.43    0.49
   7   6  -6    0.63    0.39
   7   6  -6   -0.23    0.55
  -7   6   6    1.51    0.73
  -7   6   6    0.17    0.48
   6  -6  -6   -0.26    0.37
  -6  -6   6    1.48    0.63
  -6  -6   6   -0.14    0.63
   6   6  -6    0.64    0.63
   6   6  -6    0.74    0.48
  -6   6   6    2.14    0.77
   6   6  -6    0.79    0.39
  -6   6   6    0.14    0.47
   5  -6  -6    0.29    0.36
  -5  -6   6   -0.01    0.61
   5  -6  -6   -0.57    0.44
   5   6  -6    0.37    0.44
  -5   6   6    0.77    0.60
   5   6  -6    0.76    0.61
   5   6  -6    0.61    0.34
  -5   6   6    0.40    0.51
   4  -6  -6    0.44    0.38
   4  -6  -6   -0.09    0.43
  -4  -6   6    0.57    0.57
  -4  -6   6   -0.34    0.53
  -4   6   6    1.27    0.58
  -4   6   6   -0.07    0.40
   4   6  -6    0.21    0.41
   4   6  -6    0.73    0.56
  -4   6   6    0.57    0.44
   3  -6  -6    0.92    0.34
  -3  -6   6    0.47    0.54
   3  -6  -6   -0.34    0.38
   3  -6  -6    0.43    0.47
  -3  -6   6    0.29    0.47
   3   6  -6    0.79    0.54
   3   6  -6    1.05    0.47
  -3   6   6    0.08    0.41
   3   6  -6   -0.03    0.51
  -3   6   6    1.44    0.55
  -3   6   6    0.24    0.45
  -2  -6   6    3.75    0.60
  -2  -6   6    3.10    0.53
  -2  -6   6    4.33    0.73
   2  -6  -6    3.42    0.60
   2  -6  -6    3.34    0.61
   2  -6  -6    3.61    0.43
   2   6  -6    3.20    0.65
   2   6  -6    3.65    0.60
   2   6  -6    4.03    0.63
  -2   6   6    2.84    0.53
  -2   6   6    4.34    0.65
  -2   6   6    2.55    0.52
   1  -6  -6   17.48    1.06
  -1  -6   6   16.80    1.01
  -1  -6   6   16.21    0.96
   1  -6  -6   15.56    0.96
  -1  -6   6   18.15    1.06
  -1   6   6   17.59    1.01
   1   6  -6   15.72    1.04
  -1   6   6   15.28    0.96
   1   6  -6   16.36    1.01
   1   6  -6   16.36    0.99
  -1   6   6   14.47    0.95
   0  -6  -6    3.84    0.61
   0  -6   6    4.50    0.62
   0  -6   6    3.60    0.62
   0   6   6    5.20    0.73
   0   6   6    2.45    0.49
   0   6  -6    2.64    0.56
   0   6   6    3.57    0.53
   0   6  -6    4.75    0.73
   0   6  -6    3.27    0.52
   0   6  -6    5.10    0.66
   1  -6   6    5.27    0.67
  -1  -6  -6    4.86    0.64
  -1  -6  -6    3.72    0.58
  -1  -6  -6    5.45    0.61
   1  -6   6    6.50    0.79
   1   6   6    5.82    0.63
  -1   6  -6    6.14    0.67
  -1   6  -6    4.61    0.71
   1   6   6    4.63    0.58
  -1   6  -6    5.67    0.68
   1   6   6    3.86    0.66
   2  -6   6    0.08    0.31
   2  -6   6    0.19    0.56
   2  -6   6    1.55    0.52
  -2  -6  -6    0.42    0.48
  -2  -6  -6    0.99    0.44
  -2   6  -6    0.36    0.38
  -2   6  -6    0.29    0.44
   2   6   6    0.62    0.37
   2   6   6   -0.05    0.44
  -2   6  -6   -0.11    0.48
   2   6   6   -0.11    0.37
   3  -6   6    0.13    0.33
   3  -6   6    1.74    0.51
  -3  -6  -6    0.27    0.49
  -3  -6  -6    1.72    0.46
   3  -6   6    0.56    0.57
   3   6   6    0.79    0.37
  -3   6  -6    0.70    0.48
   3   6   6   -0.01    0.48
  -3   6  -6    1.25    0.44
  -3   6  -6    0.01    0.50
   3   6   6    0.42    0.40
   4  -6   6    1.07    0.64
   4  -6   6    0.10    0.42
  -4  -6  -6    0.78    0.52
   4   6   6    0.24    0.51
   4   6   6    1.08    0.41
  -4   6  -6    0.77    0.54
  -4   6  -6    0.55    0.56
   4   6   6    0.92    0.42
   5  -6   6   -0.09    0.71
  -5  -6  -6   -0.02    0.56
   5   6   6   -0.03    0.51
   5   6   6    0.86    0.35
  -5   6  -6    0.28    0.57
   5   6   6    0.41    0.41
  -5   6  -6    0.82    0.54
   6  -6   6    0.64    0.78
  -6  -6  -6    0.17    0.59
   6   6   6    0.08    0.50
   6   6   6    0.65    0.43
  -6   6  -6   -0.14    0.55
  -6   6  -6    1.77    0.64
  -6   7   6    1.01    0.58
  -5  -7   6    3.12    0.80
   5  -7  -6    2.62    0.52
   5  -7  -6    2.12    0.69
   5   7  -6    2.79    0.74
  -5   7   6    2.34    0.65
   5   7  -6    3.48    0.70
   4  -7  -6    1.31    0.57
  -4  -7   6    0.69    0.57
   4  -7  -6    1.69    0.44
  -4  -7   6    2.36    0.68
   4   7  -6    2.20    0.71
   4   7  -6    1.90    0.61
  -4   7   6    0.53    0.52
  -4   7   6    1.38    0.58
   3  -7  -6    3.73    0.69
   3  -7  -6    4.36    0.67
  -3  -7   6    5.45    0.77
   3  -7  -6    4.78    0.54
  -3  -7   6    5.66    0.86
   3   7  -6    5.06    0.75
   3   7  -6    5.45    0.76
  -3   7   6    3.48    0.64
  -3   7   6    5.48    0.75
   3   7  -6    3.92    0.74
   2  -7  -6    0.05    0.46
   2  -7  -6    0.74    0.32
  -2  -7   6    0.78    0.56
  -2  -7   6    1.45    0.68
   2   7  -6    0.22    0.56
   2   7  -6    1.02    0.48
  -2   7   6    0.07    0.49
  -2   7   6    0.29    0.49
   2   7  -6    0.74    0.58
  -1  -7   6    1.37    0.61
   1  -7  -6    0.09    0.53
  -1  -7   6    0.40    0.42
   1  -7  -6    1.18    0.53
  -1  -7   6    2.33    0.61
  -1   7   6    0.60    0.45
  -1   7   6    0.78    0.45
   1   7  -6    1.25    0.46
   1   7  -6    1.11    0.50
   1   7  -6    0.69    0.50
   0  -7   6    1.66    0.57
   0  -7   6    0.54    0.48
   0  -7  -6    0.90    0.50
   0  -7  -6   -0.10    0.58
   0   7  -6    1.01    0.51
   0   7   6    0.75    0.42
   0   7   6    0.54    0.46
   0   7  -6    0.04    0.51
   0   7  -6    0.96    0.46
  -1  -7  -6    1.94    0.65
  -1  -7  -6    3.20    0.57
   1  -7   6    2.93    0.67
  -1   7  -6    2.15    0.54
   1   7   6    1.34    0.49
  -1   7  -6    2.08    0.59
  -1   7  -6    1.35    0.66
   1   7   6    0.92    0.58
   1   7   6    2.11    0.49
  -2  -7  -6    0.27    0.55
  -2  -7  -6    1.07    0.53
   2  -7   6    0.50    0.56
   2  -7   6    1.31    0.56
   2   7   6   -0.23    0.56
  -2   7  -6    0.83    0.49
  -2   7  -6    1.14    0.48
  -2   7  -6    0.49    0.55
   2   7   6    0.69    0.50
   2   7   6    0.88    0.40
  -3  -7  -6    0.64    0.59
   3  -7   6    0.67    0.69
  -3   7  -6    0.85    0.52
   3   7   6    0.63    0.38
  -3   7  -6    0.28    0.59
   3   7   6    0.56    0.44
   3   7   6    0.21    0.54
   4  -7   6    1.61    0.79
  -4  -7  -6    0.35    0.58
  -4   7  -6    0.47    0.62
  -4   7  -6    1.52    0.63
   4   7   6    0.76    0.47
   4   7   6    1.21    0.43
   4   7   6    0.17    0.56
  -2  -8   6    5.34    0.82
   2  -8  -6    5.24    0.56
   2  -8  -6    4.34    0.77
  -2  -8   6    5.48    0.79
   2   8  -6    5.19    0.83
   2   8  -6    3.20    0.75
  -2   8   6    3.30    0.68
  -2   8   6    3.88    0.68
   2   8  -6    4.83    0.86
   1  -8  -6    2.36    0.43
  -1  -8   6    1.69    0.63
   1  -8  -6    1.69    0.56
   1   8  -6    0.47    0.62
  -1   8   6    1.37    0.56
   1   8  -6    1.12    0.60
  -1   8   6    0.40    0.53
   0  -8   6    0.19    0.69
   0  -8   6    2.01    0.69
   0  -8  -6   -0.90    0.57
   0  -8  -6    1.32    0.62
   0   8   6    0.47    0.56
   0   8  -6    0.10    0.56
   0   8   6    0.79    0.52
   0   8  -6    0.42    0.55
   1  -8   6    4.21    0.84
  -1  -8  -6    4.06    0.77
  -1  -8  -6    5.34    0.76
   1   8   6    4.74    0.70
   1   8   6    2.94    0.68
  -1   8  -6    2.75    0.78
  -1   8  -6    3.36    0.71
  -1   8  -6    4.58    0.69
 -10   0   7    1.25    0.52
  10   0  -7    0.97    0.37
  -9   0   7   32.87    1.60
   9   0  -7   32.49    1.55
   9   0  -7   31.16    1.56
  -8   0   7    1.49    0.47
   8   0  -7    0.45    0.30
   8   0  -7    1.03    0.36
  -8   0   7    0.48    0.42
   7   0  -7    0.50    0.27
   7   0  -7    0.88    0.34
  -7   0   7    0.96    0.41
  -7   0   7    0.53    0.39
   6   0  -7    0.17    0.24
  -6   0   7   -0.04    0.32
  -6   0   7    0.12    0.39
   6   0  -7    0.41    0.26
  -6   0   7   -0.24    0.35
  -6   0   7    0.10    0.36
  -5   0   7    0.09    0.39
   5   0  -7    0.57    0.25
   5   0  -7    0.68    0.27
  -5   0   7    0.18    0.30
   5   0  -7    0.28    0.25
  -5   0   7    0.39    0.35
  -5   0   7    0.41    0.36
  -4   0   7    0.37    0.33
   4   0  -7    0.46    0.24
   4   0  -7    0.23    0.26
  -4   0   7   -0.24    0.33
  -4   0   7    0.08    0.33
  -4   0   7    0.27    0.21
  -4   0   7    0.22    0.26
   4   0  -7    0.15    0.19
   3   0  -7    9.54    0.57
  -3   0   7    9.87    0.67
  -3   0   7    9.82    0.57
   3   0  -7    9.87    0.58
  -3   0   7    9.71    0.69
   3   0  -7    8.90    0.55
   3   0  -7   10.15    0.52
  -3   0   7   10.30    0.56
  -3   0   7   10.65    0.66
  -2   0   7   19.33    0.94
   2   0  -7   19.62    0.94
  -2   0   7   19.37    0.91
  -2   0   7   20.98    0.93
  -2   0   7   19.08    0.96
   2   0  -7   19.72    0.87
  -2   0   7   20.48    1.02
   2   0  -7   19.02    0.92
   2   0  -7   20.12    0.92
  -1   0   7   20.98    0.96
  -1   0   7   20.09    0.88
   1   0  -7   19.36    0.95
  -1   0   7   19.78    0.97
   1   0  -7   21.20    0.89
  -1   0   7   22.11    1.05
   1   0  -7   21.01    0.97
   1   0  -7   20.90    0.96
  -1   0   7   20.42    1.00
   0   0   7  326.76   12.43
   0   0   7  325.40   12.42
   0   0   7  313.25   12.40
   0   0  -7  305.15   12.52
   0   0  -7  329.43   12.44
   0   0   7  330.48   12.46
   0   0  -7  321.93   12.38
   0   0   7  329.92   12.37
   0   0  -7  327.86   12.51
  -1   0  -7    0.11    0.26
   1   0   7   -0.01    0.25
  -1   0  -7    0.03    0.22
   1   0   7    0.36    0.36
   1   0   7   -0.05    0.28
   1   0   7   -0.11    0.24
  -1   0  -7    0.08    0.23
   1   0   7    0.21    0.19
  -1   0  -7    0.40    0.26
   2   0   7    6.28    0.45
  -2   0  -7    6.43    0.51
  -2   0  -7    6.35    0.47
   2   0   7    6.49    0.43
   2   0   7    6.47    0.47
   2   0   7    6.36    0.47
  -2   0  -7    5.80    0.46
   2   0   7    6.42    0.54
  -3   0  -7    1.93    0.36
  -3   0  -7    1.83    0.35
   3   0   7    1.82    0.39
   3   0   7    2.26    0.40
   3   0   7    1.97    0.38
   3   0   7    2.00    0.32
  -3   0  -7    1.72    0.29
  -3   0  -7    2.45    0.41
   3   0   7    1.80    0.32
   4   0   7    1.93    0.38
  -4   0  -7    1.56    0.31
   4   0   7    1.48    0.36
  -4   0  -7    2.12    0.40
  -4   0  -7    1.65    0.33
   4   0   7    2.50    0.56
   4   0   7    1.85    0.32
  -4   0  -7    1.71    0.37
   5   0   7   -0.01    0.32
   5   0   7   -0.26    0.28
   5   0   7    0.53    0.26
  -5   0  -7    0.14    0.32
  -5   0  -7    0.69    0.35
  -6   0  -7    0.88    0.43
   6   0   7   -0.22    0.34
   6   0   7    0.56    0.32
  -6   0  -7    0.41    0.39
  -7   0  -7    2.14    0.50
  -7   0  -7    3.51    0.57
   7   0   7    2.36    0.43
   7   0   7    1.45    0.44
   8   0   7    6.23    0.58
  -8   0  -7    5.15    0.59
   8   0   7    4.44    0.59
 -10  -1   7   20.69    1.21
  10  -1  -7   20.01    1.13
  10   1  -7   20.67    1.38
  10   1  -7   18.27    1.11
 -10   1   7   19.76    1.20
  -9  -1   7    1.06    0.49
   9  -1  -7    1.46    0.41
   9   1  -7    2.49    0.48
  -9   1   7    1.80    0.55
  -8  -1   7    1.52    0.50
  -8  -1   7    1.98    0.54
   8  -1  -7    2.43    0.41
   8   1  -7    2.97    0.49
   8   1  -7    2.60    0.43
  -8   1   7    2.39    0.50
   7  -1  -7    4.66    0.45
  -7  -1   7    3.95    0.60
   7  -1  -7    5.15    0.51
  -7  -1   7    4.82    0.56
  -7  -1   7    3.95    0.56
  -7   1   7    4.17    0.55
  -7   1   7    4.97    0.73
   7   1  -7    4.66    0.56
   7   1  -7    4.32    0.45
  -6  -1   7    0.70    0.35
  -6  -1   7   -0.05    0.38
   6  -1  -7    0.76    0.27
   6  -1  -7    0.27    0.20
  -6  -1   7   -0.28    0.41
  -6  -1   7    0.16    0.35
   6  -1  -7    0.26    0.26
   6   1  -7    0.73    0.31
   6   1  -7    0.60    0.25
  -6   1   7    0.69    0.34
  -6   1   7    0.94    0.41
  -6   1   7    0.36    0.34
   6   1  -7    0.79    0.33
   5  -1  -7    0.12    0.23
  -5  -1   7   -0.35    0.37
  -5  -1   7   -0.66    0.37
  -5  -1   7   -0.14    0.32
   5  -1  -7   -0.04    0.17
  -5  -1   7    0.12    0.35
   5  -1  -7    0.08    0.23
   5   1  -7    0.01    0.25
  -5   1   7    0.00    0.33
  -5   1   7    0.26    0.25
   5   1  -7    0.15    0.24
  -5   1   7    0.07    0.31
   5   1  -7    0.18    0.21
  -5   1   7    0.10    0.31
   4  -1  -7    2.30    0.24
  -4  -1   7    2.24    0.43
  -4  -1   7    2.56    0.43
   4  -1  -7    2.85    0.30
   4  -1  -7    2.32    0.36
  -4  -1   7    2.03    0.45
  -4  -1   7    2.21    0.39
   4  -1  -7    2.48    0.35
  -4   1   7    2.59    0.36
   4   1  -7    2.29    0.37
   4   1  -7    2.49    0.30
   4   1  -7    2.58    0.35
  -4   1   7    2.50    0.42
  -4   1   7    2.67    0.44
  -4   1   7    2.41    0.40
   3  -1  -7    8.24    0.48
   3  -1  -7    8.53    0.50
   3  -1  -7    7.50    0.42
  -3  -1   7    7.82    0.55
  -3  -1   7    8.13    0.62
   3  -1  -7    8.63    0.56
  -3  -1   7    8.38    0.46
  -3  -1   7    8.51    0.59
  -3  -1   7    7.62    0.65
  -3   1   7    7.93    0.53
  -3   1   7    8.51    0.63
   3   1  -7    7.29    0.51
  -3   1   7    7.86    0.55
  -3   1   7    6.95    0.45
  -3   1   7    8.48    0.54
   3   1  -7    7.25    0.51
   3   1  -7    7.84    0.53
   3   1  -7    8.61    0.46
  -2  -1   7   25.14    1.15
  -2  -1   7   25.01    1.18
  -2  -1   7   25.84    1.16
   2  -1  -7   24.70    1.09
  -2  -1   7   25.18    1.07
   2  -1  -7   22.73    1.02
   2  -1  -7   23.26    1.05
   2  -1  -7   25.73    1.12
   2  -1  -7   24.53    1.07
  -2  -1   7   25.09    1.19
  -2   1   7   24.92    1.13
  -2   1   7   24.03    1.05
   2   1  -7   24.16    1.03
  -2   1   7   23.64    1.10
   2   1  -7   22.71    1.12
   2   1  -7   24.43    1.13
   2   1  -7   24.28    1.14
  -2   1   7   25.13    1.09
  -1  -1   7   83.91    3.20
  -1  -1   7   86.07    3.29
   1  -1  -7   82.19    3.19
   1  -1  -7   78.59    3.21
  -1  -1   7   82.19    3.25
   1  -1  -7   80.65    3.19
  -1  -1   7   84.15    3.28
   1  -1  -7   84.16    3.25
  -1   1   7   76.71    3.23
   1   1  -7   76.01    3.24
  -1   1   7   83.60    3.23
  -1   1   7   80.78    3.28
   1   1  -7   80.08    3.15
   1   1  -7   78.47    3.23
  -1   1   7   77.03    3.19
   1   1  -7   79.61    3.26
  -1   1   7   81.80    3.20
   0  -1   7    0.93    0.31
   0  -1  -7    1.15    0.30
   0  -1  -7    1.06    0.22
   0  -1   7    1.51    0.37
   0  -1  -7    1.45    0.26
   0  -1   7    1.13    0.27
   0  -1   7    1.12    0.30
   0  -1  -7    1.24    0.29
   0   1   7    1.24    0.24
   0   1   7    1.26    0.27
   0   1  -7    1.12    0.28
   0   1  -7    1.00    0.26
   0   1  -7    1.19    0.31
   0   1   7    0.96    0.27
   0   1   7    1.42    0.37
   0   1   7    1.23    0.30
  -1  -1  -7   54.45    2.25
   1  -1   7   56.79    2.30
   1  -1   7   57.29    2.35
   1  -1   7   54.08    2.31
  -1  -1  -7   58.69    2.32
  -1  -1  -7   59.31    2.30
  -1  -1  -7   56.45    2.31
   1  -1   7   56.19    2.34
  -1   1  -7   56.14    2.29
   1   1   7   55.43    2.32
  -1   1  -7   56.25    2.32
   1   1   7   56.87    2.28
   1   1   7   57.67    2.35
   1   1   7   53.95    2.25
   1   1   7   56.90    2.29
  -1   1  -7   57.21    2.35
   2  -1   7   18.43    0.96
   2  -1   7   18.29    0.92
  -2  -1  -7   19.09    0.92
  -2  -1  -7   19.85    0.91
   2  -1   7   19.30    0.91
  -2  -1  -7   17.56    0.83
   2  -1   7   19.37    0.97
  -2  -1  -7   19.88    0.92
  -2   1  -7   18.93    0.88
  -2   1  -7   18.56    0.96
  -2   1  -7   17.60    0.93
   2   1   7   18.77    0.93
   2   1   7   18.91    0.89
  -2   1  -7   19.14    0.93
   2   1   7   19.90    0.98
   3  -1   7    0.61    0.33
   3  -1   7    0.65    0.22
  -3  -1  -7    0.54    0.34
   3  -1   7    0.55    0.33
   3  -1   7    0.48    0.32
  -3  -1  -7    0.89    0.30
   3  -1   7    0.51    0.31
  -3  -1  -7    0.98    0.34
   3   1   7    0.46    0.30
  -3   1  -7    0.43    0.26
  -3   1  -7    0.74    0.29
  -3   1  -7    0.77    0.33
  -3   1  -7    0.64    0.23
   3   1   7    0.50    0.32
   3   1   7    0.60    0.27
  -4  -1  -7    0.07    0.31
   4  -1   7    0.65    0.32
   4  -1   7    0.64    0.25
   4  -1   7    0.29    0.30
   4  -1   7    0.25    0.32
   4  -1   7    0.69    0.32
  -4  -1  -7    0.32    0.33
  -4  -1  -7    0.55    0.29
  -4   1  -7    0.67    0.35
  -4   1  -7    0.41    0.29
   4   1   7   -0.20    0.31
   4   1   7    0.31    0.28
   4   1   7    0.34    0.32
  -4   1  -7    0.44    0.29
   5  -1   7    0.99    0.50
   5  -1   7    0.01    0.32
  -5  -1  -7    0.67    0.33
   5  -1   7   -0.06    0.32
   5  -1   7    0.44    0.26
  -5  -1  -7    0.19    0.39
  -5   1  -7    0.17    0.29
   5   1   7    0.03    0.32
   5   1   7    0.58    0.31
  -5   1  -7    0.52    0.31
  -5   1  -7    0.37    0.31
   5   1   7   -0.29    0.31
  -5   1  -7    0.83    0.42
   6  -1   7    4.91    0.48
  -6  -1  -7    3.70    0.60
   6  -1   7    3.96    0.51
  -6  -1  -7    5.14    0.63
  -6   1  -7    5.33    0.55
  -6   1  -7    5.79    0.63
   6   1   7    4.45    0.56
  -6   1  -7    3.86    0.55
   6   1   7    4.76    0.48
   7  -1   7    3.14    0.53
  -7  -1  -7    5.69    0.64
  -7  -1  -7    4.62    0.66
   7  -1   7    3.93    0.82
   7  -1   7    5.05    0.53
  -7   1  -7    4.96    0.57
  -7   1  -7    5.83    0.68
   7   1   7    4.25    0.52
   7   1   7    3.55    0.53
   8  -1   7    0.08    0.46
  -8  -1  -7    0.33    0.47
   8  -1   7    1.37    0.39
   8   1   7    0.56    0.46
   8   1   7    1.13    0.43
  -8   1  -7    1.42    0.44
 -10  -2   7    1.38    0.58
  10  -2  -7    1.28    0.40
  10   2  -7    1.18    0.42
 -10   2   7    1.56    0.52
  10   2  -7    1.40    0.49
  -9  -2   7    3.47    0.65
   9  -2  -7    3.53    0.50
   9   2  -7    3.86    0.59
  -9   2   7    5.56    0.74
   9   2  -7    3.92    0.61
   8  -2  -7   11.44    0.68
  -8  -2   7   11.19    0.85
   8  -2  -7   12.14    0.76
  -8  -2   7   12.25    0.95
   8   2  -7   12.08    0.78
   8   2  -7   11.56    0.84
  -8   2   7   14.28    1.01
  -8   2   7   12.38    0.84
  -7  -2   7    1.78    0.50
  -7  -2   7    1.99    0.53
   7  -2  -7    1.80    0.31
   7  -2  -7    2.04    0.38
  -7   2   7    2.99    0.50
   7   2  -7    2.68    0.48
   7   2  -7    2.63    0.46
   7   2  -7    2.14    0.43
  -6  -2   7    8.91    0.71
   6  -2  -7    9.82    0.66
  -6  -2   7   10.70    0.73
   6  -2  -7    9.33    0.56
  -6  -2   7    9.46    0.77
   6  -2  -7   10.60    0.63
  -6   2   7   10.47    0.70
   6   2  -7    8.94    0.69
  -6   2   7    8.85    0.61
  -6   2   7   10.50    0.71
   6   2  -7    9.80    0.64
   6   2  -7    9.59    0.73
  -6   2   7    9.78    0.81
   5  -2  -7    0.59    0.23
  -5  -2   7    0.18    0.40
  -5  -2   7   -0.48    0.46
  -5  -2   7    0.68    0.35
   5  -2  -7    0.84    0.29
  -5  -2   7    0.31    0.43
   5  -2  -7    0.36    0.29
  -5   2   7    0.62    0.30
  -5   2   7    0.65    0.39
   5   2  -7    0.60    0.34
  -5   2   7    0.97    0.30
   5   2  -7    0.60    0.24
   5   2  -7    0.65    0.33
  -5   2   7    0.54    0.32
   4  -2  -7    8.35    0.49
   4  -2  -7    8.51    0.55
  -4  -2   7    8.54    0.63
   4  -2  -7    8.76    0.60
  -4  -2   7    7.40    0.69
  -4  -2   7    8.04    0.64
  -4  -2   7    8.73    0.67
  -4   2   7    8.43    0.60
   4   2  -7    8.14    0.60
   4   2  -7    8.32    0.50
  -4   2   7    8.04    0.67
   4   2  -7    8.41    0.60
   4   2  -7    7.91    0.61
  -4   2   7    8.42    0.57
  -4   2   7    8.20    0.57
   3  -2  -7   33.08    1.45
   3  -2  -7   35.94    1.46
  -3  -2   7   36.97    1.63
  -3  -2   7   35.86    1.59
  -3  -2   7   35.06    1.59
   3  -2  -7   36.00    1.50
   3  -2  -7   37.57    1.55
  -3  -2   7   35.71    1.57
  -3   2   7   33.88    1.49
   3   2  -7   33.65    1.46
  -3   2   7   34.24    1.54
   3   2  -7   32.38    1.54
  -3   2   7   34.58    1.59
   3   2  -7   34.64    1.56
  -3   2   7   35.17    1.51
   3   2  -7   32.21    1.56
  -3   2   7   35.99    1.48
  -2  -2   7   16.85    0.88
  -2  -2   7   14.60    0.85
  -2  -2   7   17.09    0.73
  -2  -2   7   15.88    0.85
   2  -2  -7   14.22    0.73
   2  -2  -7   16.38    0.75
   2  -2  -7   16.24    0.78
   2  -2  -7   17.46    0.84
  -2  -2   7   16.41    0.89
   2   2  -7   15.00    0.81
  -2   2   7   15.05    0.78
  -2   2   7   16.01    0.79
   2   2  -7   14.46    0.86
  -2   2   7   16.19    0.76
  -2   2   7   15.66    0.88
   2   2  -7   14.04    0.81
  -2   2   7   15.41    0.82
   2   2  -7   15.52    0.71
  -1  -2   7   15.77    0.85
  -1  -2   7   15.31    0.85
   1  -2  -7   15.21    0.75
  -1  -2   7   16.48    0.73
   1  -2  -7   14.96    0.75
  -1  -2   7   16.21    0.83
   1  -2  -7   16.38    0.83
   1   2  -7   13.62    0.78
   1   2  -7   15.04    0.83
  -1   2   7   14.80    0.84
  -1   2   7   15.16    0.72
  -1   2   7   14.06    0.79
  -1   2   7   14.53    0.73
   1   2  -7   13.99    0.77
   0  -2   7   16.00    0.90
   0  -2   7   15.81    0.86
   0  -2  -7   17.76    0.83
   0  -2  -7   17.00    0.86
   0  -2   7   17.53    0.90
   0  -2   7   17.39    0.80
   0  -2  -7   15.30    0.78
   0   2  -7   16.25    0.84
   0   2   7   16.56    0.88
   0   2   7   16.51    0.83
   0   2  -7   15.82    0.87
   0   2   7   16.51    0.85
   0   2  -7   16.36    0.82
  -1  -2  -7   33.23    1.43
  -1  -2  -7   31.34    1.37
   1  -2   7   32.99    1.46
   1  -2   7   32.63    1.44
   1  -2   7   33.69    1.38
  -1  -2  -7   32.71    1.40
   1  -2   7   31.77    1.46
   1   2   7   31.95    1.43
  -1   2  -7   30.06    1.45
  -1   2  -7   30.43    1.44
  -1   2  -7   31.88    1.38
  -1   2  -7   31.83    1.43
   1   2   7   31.53    1.43
   1   2   7   31.94    1.40
  -2  -2  -7    2.63    0.32
   2  -2   7    2.79    0.50
  -2  -2  -7    2.49    0.43
   2  -2   7    2.76    0.46
  -2  -2  -7    2.76    0.39
   2  -2   7    2.85    0.46
   2  -2   7    2.92    0.42
  -2  -2  -7    3.18    0.35
   2   2   7    2.75    0.40
   2   2   7    2.72    0.41
  -2   2  -7    2.87    0.45
  -2   2  -7    3.05    0.43
  -2   2  -7    2.87    0.39
  -2   2  -7    2.97    0.31
   2   2   7    3.16    0.42
   2   2   7    2.68    0.38
  -3  -2  -7   28.33    1.30
  -3  -2  -7   31.37    1.37
   3  -2   7   30.76    1.43
   3  -2   7   32.52    1.35
   3  -2   7   29.36    1.39
  -3  -2  -7   32.54    1.34
   3  -2   7   29.87    1.44
  -3  -2  -7   31.44    1.39
   3   2   7   29.25    1.37
  -3   2  -7   28.99    1.43
   3   2   7   30.10    1.38
   3   2   7   30.40    1.37
  -3   2  -7   29.67    1.42
   3   2   7   28.42    1.33
  -3   2  -7   30.01    1.38
  -4  -2  -7    0.04    0.34
   4  -2   7    0.75    0.34
   4  -2   7    0.43    0.32
  -4  -2  -7    0.38    0.27
   4  -2   7    0.04    0.31
  -4  -2  -7   -0.44    0.33
   4  -2   7    0.04    0.36
   4   2   7    0.47    0.29
   4   2   7   -0.25    0.30
  -4   2  -7    0.05    0.30
   4   2   7    0.01    0.33
  -4   2  -7    0.50    0.28
  -4   2  -7    0.14    0.36
  -4   2  -7    0.10    0.31
  -5  -2  -7    0.87    0.43
   5  -2   7    0.67    0.37
   5  -2   7    2.47    0.49
  -5  -2  -7    1.87    0.39
   5  -2   7    1.16    0.42
  -5   2  -7    1.27    0.42
   5   2   7    1.61    0.40
  -5   2  -7    1.56    0.43
  -5   2  -7    1.89    0.39
  -5   2  -7    1.91    0.49
   5   2   7    1.25    0.37
  -6  -2  -7    4.54    0.53
  -6  -2  -7    3.32    0.57
   6  -2   7    3.36    0.66
   6  -2   7    2.99    0.50
  -6   2  -7    4.38    0.47
   6   2   7    3.75    0.55
  -6   2  -7    3.63    0.62
  -6   2  -7    5.09    0.66
   6   2   7    4.02    0.49
  -7  -2  -7   10.26    0.84
   7  -2   7   11.14    0.84
  -7  -2  -7   13.53    0.90
   7  -2   7   11.01    0.91
  -7   2  -7   12.84    0.80
  -7   2  -7   10.97    0.88
   7   2   7   11.15    0.78
  -7   2  -7   13.76    0.97
   7   2   7   11.93    0.84
   8  -2   7    4.86    0.62
   8   2   7    6.43    0.62
   8   2   7    6.72    0.65
   9  -3  -7    0.81    0.33
   9  -3  -7    1.86    0.42
  -9  -3   7    1.52    0.55
  -9   3   7    3.08    0.77
   8  -3  -7    3.41    0.43
  -8  -3   7    3.47    0.68
   8  -3  -7    4.38    0.53
  -8  -3   7    3.30    0.65
  -8   3   7    5.55    0.62
   8   3  -7    3.54    0.70
   8   3  -7    4.90    0.69
   8   3  -7    4.70    0.54
   7  -3  -7   19.57    1.04
  -7  -3   7   17.61    1.10
   7  -3  -7   18.09    0.94
  -7  -3   7   18.94    1.17
   7  -3  -7   21.47    0.99
  -7   3   7   19.41    1.04
  -7   3   7   17.18    1.02
   7   3  -7   17.38    1.08
  -7   3   7   20.23    1.23
   7   3  -7   18.01    1.02
   7   3  -7   17.79    1.08
   6  -3  -7    0.13    0.33
  -6  -3   7   -0.03    0.47
   6  -3  -7    0.37    0.25
  -6  -3   7    0.40    0.48
   6  -3  -7    1.00    0.30
  -6   3   7    0.65    0.39
  -6   3   7    1.41    0.52
   6   3  -7    0.87    0.44
  -6   3   7    1.04    0.36
   6   3  -7    0.65    0.35
   6   3  -7    0.82    0.31
   5  -3  -7    2.79    0.44
  -5  -3   7    2.90    0.55
  -5  -3   7    2.98    0.52
   5  -3  -7    3.09    0.36
  -5  -3   7    3.05    0.57
   5  -3  -7    3.44    0.46
   5   3  -7    3.60    0.55
  -5   3   7    3.73    0.46
  -5   3   7    3.52    0.45
   5   3  -7    3.75    0.41
   5   3  -7    3.73    0.52
  -5   3   7    3.96    0.63
   4  -3  -7    8.62    0.55
  -4  -3   7    8.85    0.71
   4  -3  -7    8.87    0.63
  -4  -3   7    8.11    0.68
   4  -3  -7    8.57    0.59
  -4  -3   7    6.54    0.78
  -4  -3   7    8.22    0.70
   4   3  -7    7.49    0.68
  -4   3   7    8.96    0.72
  -4   3   7    8.10    0.61
  -4   3   7    7.96    0.61
   4   3  -7    7.97    0.64
  -4   3   7    8.83    0.56
   4   3  -7    9.09    0.68
  -4   3   7    9.62    0.57
   4   3  -7    8.31    0.53
   3  -3  -7   23.08    1.06
  -3  -3   7   21.64    1.17
  -3  -3   7   23.42    1.15
  -3  -3   7   22.00    1.15
   3  -3  -7   22.35    1.03
   3  -3  -7   23.31    1.11
  -3  -3   7   22.13    1.11
   3   3  -7   21.56    1.00
   3   3  -7   21.57    1.11
   3   3  -7   22.25    1.17
  -3   3   7   22.00    1.02
  -3   3   7   22.30    1.01
  -3   3   7   21.75    1.09
   3   3  -7   20.89    1.10
  -3   3   7   22.24    1.16
  -3   3   7   22.63    1.08
   2  -3  -7   51.85    1.95
   2  -3  -7   47.78    1.99
  -2  -3   7   50.30    2.05
  -2  -3   7   47.37    2.05
  -2  -3   7   47.50    2.08
  -2  -3   7   45.70    2.06
   2  -3  -7   50.85    2.03
  -2   3   7   49.47    2.02
   2   3  -7   45.24    2.03
   2   3  -7   43.16    2.06
  -2   3   7   46.56    2.03
  -2   3   7   47.12    2.06
   2   3  -7   44.21    2.03
   1  -3  -7    0.05    0.24
  -1  -3   7   -0.17    0.23
   1  -3  -7    0.49    0.36
  -1  -3   7    0.10    0.38
  -1  -3   7    0.04    0.34
   1  -3  -7    0.32    0.25
  -1  -3   7   -0.02    0.39
   1   3  -7    0.04    0.27
   1   3  -7    0.17    0.26
   1   3  -7    0.18    0.31
  -1   3   7    0.12    0.29
  -1   3   7    0.24    0.29
  -1   3   7   -0.22    0.25
   0  -3   7    0.02    0.34
   0  -3   7   -0.23    0.25
   0  -3  -7    0.03    0.32
   0  -3  -7   -0.06    0.25
   0  -3   7   -0.18    0.35
   0  -3  -7    0.01    0.25
   0  -3   7   -0.38    0.33
   0   3  -7    0.05    0.23
   0   3  -7   -0.01    0.27
   0   3   7    0.02    0.29
   0   3   7   -0.06    0.27
   0   3   7   -0.21    0.25
   0   3  -7    0.01    0.30
  -1  -3  -7    0.22    0.33
   1  -3   7    0.09    0.35
   1  -3   7    0.08    0.35
  -1  -3  -7    0.34    0.27
  -1  -3  -7    0.28    0.30
   1  -3   7    0.02    0.28
   1  -3   7    0.14    0.34
  -1   3  -7    0.18    0.28
  -1   3  -7   -0.03    0.34
   1   3   7    0.12    0.30
  -1   3  -7    0.43    0.21
   1   3   7    0.05    0.27
   1   3   7    0.27    0.29
  -1   3  -7    0.14    0.33
   2  -3   7   43.13    1.89
  -2  -3  -7   44.16    1.88
  -2  -3  -7   42.87    1.83
   2  -3   7   43.38    1.92
   2  -3   7   45.37    1.81
   2  -3   7   45.34    1.91
  -2  -3  -7   41.83    1.81
   2   3   7   41.33    1.82
   2   3   7   43.11    1.86
  -2   3  -7   40.28    1.89
  -2   3  -7   42.33    1.87
  -2   3  -7   40.16    1.78
  -2   3  -7   42.62    1.90
   2   3   7   41.44    1.86
   2   3   7   41.62    1.84
  -3  -3  -7    4.13    0.51
  -3  -3  -7    4.54    0.53
   3  -3   7    5.02    0.57
   3  -3   7    4.09    0.45
   3  -3   7    5.27    0.63
  -3  -3  -7    4.71    0.44
   3  -3   7    4.74    0.60
   3   3   7    4.62    0.48
  -3   3  -7    3.97    0.56
   3   3   7    3.75    0.49
  -3   3  -7    5.31    0.54
   3   3   7    4.23    0.53
  -3   3  -7    4.81    0.58
   3   3   7    4.62    0.49
   4  -3   7    2.27    0.42
  -4  -3  -7    2.27    0.45
   4  -3   7    3.38    0.50
   4  -3   7    2.88    0.53
   4  -3   7    2.66    0.54
  -4  -3  -7    3.46    0.38
  -4  -3  -7    2.30    0.49
   4   3   7    2.61    0.45
   4   3   7    2.40    0.43
  -4   3  -7    2.78    0.50
   4   3   7    2.01    0.40
  -4   3  -7    3.55    0.50
  -4   3  -7    2.71    0.52
  -4   3  -7    3.31    0.56
  -5  -3  -7    0.29    0.42
   5  -3   7    0.56    0.36
   5  -3   7    0.65    0.44
  -5  -3  -7    0.11    0.45
   5   3   7    0.67    0.51
  -5   3  -7    1.58    0.55
   5   3   7    1.28    0.40
  -5   3  -7    1.20    0.43
   5   3   7    0.97    0.36
  -6  -3  -7    4.45    0.60
   6  -3   7    4.54    0.69
   6  -3   7    4.04    0.55
  -6  -3  -7    3.33    0.65
   6   3   7    5.09    0.54
  -6   3  -7    4.39    0.65
   6   3   7    5.08    0.55
  -7  -3  -7    6.09    0.86
   7  -3   7    8.03    0.81
   7  -3   7    7.17    0.68
  -7   3  -7    9.95    0.69
   7   3   7    8.71    0.76
  -7   3  -7    8.85    0.87
   7   3   7    8.18    0.67
   8  -3   7    0.37    0.57
  -8   3  -7    0.72    0.49
   8   3   7    1.28    0.43
   8   3   7    1.21    0.43
   9  -4  -7    2.12    0.48
   9  -4  -7    0.83    0.40
  -9  -4   7    1.74    0.59
   9   4  -7    3.38    0.66
   9   4  -7    1.68    0.67
   8  -4  -7    0.59    0.44
   8  -4  -7    0.54    0.37
  -8  -4   7    0.32    0.58
  -8  -4   7    0.51    0.67
   8   4  -7    0.98    0.59
  -8   4   7    1.09    0.50
   8   4  -7    1.91    0.58
  -7  -4   7    5.46    0.77
  -7  -4   7    4.99    0.75
   7  -4  -7    5.09    0.51
   7  -4  -7    4.94    0.60
  -7   4   7    4.55    0.59
   7   4  -7    4.97    0.77
   7   4  -7    5.74    0.75
   7   4  -7    5.77    0.56
  -6  -4   7    3.71    0.69
  -6  -4   7    3.11    0.64
   6  -4  -7    4.65    0.48
   6  -4  -7    3.34    0.45
   6  -4  -7    2.83    0.53
   6   4  -7    4.25    0.66
  -6   4   7    4.99    0.54
   6   4  -7    4.20    0.47
  -6   4   7    3.61    0.61
   6   4  -7    3.49    0.70
  -6   4   7    5.29    0.78
  -5  -4   7   -0.60    0.46
  -5  -4   7    0.19    0.53
   5  -4  -7   -0.58    0.37
   5  -4  -7   -0.09    0.31
   5  -4  -7    0.00    0.26
   5   4  -7    0.50    0.27
   5   4  -7    0.27    0.39
  -5   4   7    0.57    0.26
  -5   4   7    0.24    0.36
  -5   4   7    0.76    0.48
   5   4  -7    0.19    0.38
   4  -4  -7    2.02    0.35
   4  -4  -7    1.26    0.39
  -4  -4   7    2.30    0.54
  -4  -4   7    0.96    0.44
  -4  -4   7    1.07    0.53
   4  -4  -7    1.21    0.43
   4   4  -7    2.28    0.34
   4   4  -7    2.50    0.53
  -4   4   7    1.42    0.39
   4   4  -7    1.56    0.48
  -4   4   7    2.32    0.52
   4   4  -7    1.59    0.40
  -4   4   7    1.85    0.42
   3  -4  -7   12.85    0.80
   3  -4  -7   12.92    0.82
  -3  -4   7   13.20    0.86
   3  -4  -7   12.25    0.70
  -3  -4   7   13.04    0.86
  -3  -4   7   12.75    0.85
   3   4  -7   12.83    0.84
   3   4  -7   11.93    0.86
  -3   4   7   12.28    0.76
  -3   4   7   12.97    0.87
  -3   4   7   12.43    0.79
   3   4  -7   12.19    0.86
  -2  -4   7    0.46    0.40
  -2  -4   7   -0.16    0.36
   2  -4  -7    0.18    0.35
   2  -4  -7    0.29    0.34
  -2  -4   7    0.05    0.39
  -2  -4   7    0.99    0.44
   2   4  -7    0.60    0.35
  -2   4   7    0.55    0.36
   2   4  -7    0.63    0.34
   2   4  -7    0.28    0.37
  -2   4   7    0.45    0.34
  -2   4   7    0.91    0.40
   1  -4  -7   15.17    0.84
  -1  -4   7   14.48    0.88
  -1  -4   7   14.81    0.89
   1  -4  -7   15.38    0.90
  -1  -4   7   14.23    0.91
   1  -4  -7   16.39    0.77
   1   4  -7   14.37    0.85
   1   4  -7   13.62    0.90
   1   4  -7   14.30    0.90
  -1   4   7   12.78    0.82
  -1   4   7   15.12    0.90
  -1   4   7   14.45    0.85
   0  -4   7   23.81    1.04
   0  -4  -7   23.49    1.08
   0  -4  -7   23.54    1.16
   0  -4   7   22.51    1.17
   0  -4  -7   22.34    1.11
   0  -4   7   21.87    1.20
   0  -4   7   23.01    1.19
   0   4   7   22.60    1.14
   0   4   7   22.64    1.14
   0   4  -7   22.16    1.23
   0   4  -7   22.17    1.19
   0   4   7   22.12    1.13
   0   4  -7   24.91    1.23
   0   4  -7   22.21    1.11
   1  -4   7    1.31    0.44
  -1  -4  -7    0.53    0.35
  -1  -4  -7    0.97    0.40
  -1  -4  -7    1.04    0.33
   1  -4   7    1.06    0.43
   1  -4   7    1.38    0.47
   1  -4   7    0.69    0.31
   1   4   7    0.92    0.38
  -1   4  -7    1.32    0.43
  -1   4  -7    1.91    0.35
  -1   4  -7    1.28    0.38
   1   4   7    0.95    0.37
   1   4   7    0.71    0.37
  -1   4  -7    1.31    0.42
  -2  -4  -7    1.07    0.44
   2  -4   7    1.02    0.46
  -2  -4  -7    2.08    0.40
   2  -4   7    1.15    0.33
  -2  -4  -7    1.15    0.44
   2  -4   7    1.28    0.48
  -2   4  -7    0.68    0.43
   2   4   7    1.47    0.38
  -2   4  -7    1.38    0.47
   2   4   7    1.14    0.44
  -2   4  -7    1.55    0.41
   2   4   7    1.52    0.42
   2   4   7    1.71    0.51
   3  -4   7    3.29    0.44
  -3  -4  -7    4.04    0.55
   3  -4   7    4.48    0.60
  -3  -4  -7    4.48    0.51
   3  -4   7    3.88    0.66
  -3  -4  -7    4.52    0.61
  -3   4  -7    3.03    0.61
   3   4   7    2.89    0.57
   3   4   7    3.37    0.48
  -3   4  -7    4.51    0.52
   3   4   7    3.90    0.50
  -3   4  -7    3.51    0.60
   4  -4   7    0.23    0.48
   4  -4   7   -0.23    0.33
  -4  -4  -7   -0.41    0.43
   4   4   7    0.33    0.37
   4   4   7    0.45    0.35
  -4   4  -7    0.41    0.48
  -4   4  -7    1.06    0.38
   4   4   7    0.01    0.33
  -4   4  -7    0.68    0.50
   5  -4   7   -0.08    0.37
   5  -4   7    0.17    0.57
  -5  -4  -7   -0.18    0.41
   5   4   7    0.82    0.38
  -5   4  -7    0.86    0.52
  -5   4  -7    0.27    0.50
   5   4   7    0.79    0.42
   5   4   7    0.17    0.40
   6  -4   7    1.44    0.51
  -6  -4  -7    0.50    0.57
  -6  -4  -7    1.18    0.48
   6  -4   7    1.98    0.62
   6   4   7    2.21    0.51
  -6   4  -7    1.77    0.55
   6   4   7    1.85    0.43
   7  -4   7    0.46    0.52
   7  -4   7    1.49    0.69
   7   4   7    1.47    0.46
  -7   4  -7    1.82    0.62
   8  -5  -7    1.31    0.37
  -8  -5   7    2.41    0.67
  -8   5   7    0.58    0.51
  -8   5   7    2.14    0.79
   8   5  -7    1.27    0.68
   8   5  -7    1.07    0.53
  -7  -5   7   -1.08    0.59
   7  -5  -7   -0.81    0.43
   7  -5  -7   -0.08    0.37
   7   5  -7    0.96    0.39
   7   5  -7    0.16    0.52
   7   5  -7    0.91    0.54
  -7   5   7    0.04    0.45
  -7   5   7    1.24    0.71
  -6  -5   7   -0.36    0.57
   6  -5  -7   -0.07    0.36
   6   5  -7    0.59    0.34
   6   5  -7    0.61    0.45
  -6   5   7    0.16    0.43
   6   5  -7    0.62    0.58
  -6   5   7    1.43    0.66
   5  -5  -7   -0.04    0.31
  -5  -5   7   -0.41    0.59
  -5  -5   7   -0.68    0.49
   5   5  -7    0.06    0.45
   5   5  -7    0.47    0.45
  -5   5   7   -0.11    0.39
   5   5  -7    0.59    0.47
  -5   5   7    0.46    0.53
   4  -5  -7   -0.43    0.37
  -4  -5   7    0.67    0.53
  -4  -5   7   -0.35    0.54
   4  -5  -7    0.38    0.34
   4   5  -7    0.35    0.49
  -4   5   7    0.83    0.48
   4   5  -7   -0.43    0.44
   4   5  -7    0.22    0.38
  -4   5   7   -0.23    0.41
  -4   5   7    0.39    0.40
   3  -5  -7   -0.66    0.36
  -3  -5   7   -0.09    0.46
   3  -5  -7   -0.27    0.36
  -3  -5   7   -0.16    0.48
   3  -5  -7    0.57    0.29
   3   5  -7    0.18    0.41
   3   5  -7    0.49    0.36
  -3   5   7    0.34    0.38
   3   5  -7   -0.42    0.39
  -3   5   7    0.66    0.42
  -2  -5   7    1.39    0.50
  -2  -5   7    2.26    0.54
   2  -5  -7    1.76    0.43
   2  -5  -7    2.32    0.36
  -2  -5   7    1.25    0.44
   2  -5  -7    1.11    0.48
   2   5  -7    2.35    0.50
  -2   5   7    1.92    0.45
  -2   5   7    1.62    0.44
   2   5  -7    1.47    0.48
   2   5  -7    2.92    0.54
   1  -5  -7   38.09    1.73
  -1  -5   7   36.66    1.71
  -1  -5   7   38.59    1.71
   1  -5  -7   38.49    1.70
   1   5  -7   35.12    1.72
  -1   5   7   36.46    1.71
  -1   5   7   35.76    1.71
  -1   5   7   35.15    1.69
   1   5  -7   35.85    1.76
   1   5  -7   36.14    1.70
   0  -5  -7    2.68    0.51
   0  -5   7    2.60    0.53
   0  -5  -7    2.54    0.52
   0  -5   7    2.93    0.57
   0  -5  -7    2.51    0.45
   0   5  -7    4.27    0.65
   0   5  -7    3.46    0.62
   0   5   7    3.01    0.50
   0   5  -7    3.06    0.58
   0   5   7    2.83    0.50
   0   5  -7    3.66    0.48
  -1  -5  -7   19.84    1.05
   1  -5   7   20.39    0.98
   1  -5   7   18.78    1.14
  -1  -5  -7   21.79    1.12
  -1  -5  -7   20.73    1.13
   1  -5   7   22.62    1.20
  -1   5  -7   20.36    1.17
   1   5   7   18.27    1.07
  -1   5  -7   21.05    1.13
   1   5   7   20.21    1.18
   1   5   7   18.45    1.08
  -1   5  -7   18.64    1.17
  -2  -5  -7    1.51    0.45
   2  -5   7    1.48    0.56
   2  -5   7   -0.23    0.33
  -2  -5  -7   -0.63    0.43
   2  -5   7    0.24    0.50
  -2  -5  -7    0.11    0.49
   2   5   7    1.02    0.42
  -2   5  -7    0.32    0.42
   2   5   7    0.44    0.46
  -2   5  -7    0.62    0.52
   2   5   7    0.62    0.37
  -2   5  -7    1.27    0.45
  -3  -5  -7   -0.49    0.43
   3  -5   7    0.84    0.48
   3  -5   7   -0.02    0.52
  -3  -5  -7    0.71    0.37
   3   5   7   -0.61    0.38
  -3   5  -7    0.06    0.43
  -3   5  -7   -0.06    0.46
   3   5   7    0.07    0.37
  -3   5  -7    1.03    0.43
   3   5   7    0.77    0.41
   4  -5   7    0.60    0.60
  -4  -5  -7    0.40    0.52
   4   5   7    0.47    0.47
  -4   5  -7    0.61    0.56
   4   5   7    1.21    0.42
  -4   5  -7    1.16    0.53
   4   5   7    0.50    0.39
  -5  -5  -7   -0.52    0.45
   5  -5   7   -0.08    0.68
   5   5   7    1.09    0.42
  -5   5  -7    0.68    0.53
  -5   5  -7   -0.28    0.54
   5   5   7    0.09    0.47
   5   5   7    0.53    0.41
   6  -5   7    0.36    0.62
   6   5   7    0.74    0.43
  -6   5  -7    1.36    0.58
  -6   5  -7    0.41    0.54
   6   5   7    1.45    0.43
   6   5   7   -0.09    0.44
  -6  -6   7   -0.37    0.66
   6  -6  -7   -0.07    0.38
  -6  -6   7    1.52    0.55
   6   6  -7    0.04    0.55
  -6   6   7    1.72    0.78
   6   6  -7    0.48    0.50
  -6   6   7    0.10    0.54
  -5  -6   7    0.36    0.63
   5  -6  -7    0.23    0.36
  -5   6   7    1.84    0.67
   5   6  -7    0.93    0.64
   5   6  -7    0.58    0.49
  -5   6   7    0.19    0.47
  -4  -6   7   -0.55    0.52
   4  -6  -7    0.75    0.40
  -4  -6   7    1.11    0.62
   4  -6  -7   -0.55    0.50
   4   6  -7    0.49    0.60
  -4   6   7   -0.40    0.48
  -4   6   7    0.34    0.49
   4   6  -7   -0.66    0.49
   4   6  -7    1.14    0.49
  -4   6   7    1.75    0.63
   3  -6  -7   -0.51    0.41
  -3  -6   7    0.19    0.57
  -3  -6   7   -0.20    0.51
   3  -6  -7    0.68    0.32
   3   6  -7    0.86    0.48
  -3   6   7    1.36    0.54
  -3   6   7    0.08    0.47
   3   6  -7    0.22    0.50
   3   6  -7   -0.42    0.46
  -3   6   7    0.18    0.43
   2  -6  -7    2.20    0.39
   2  -6  -7    2.06    0.53
  -2  -6   7    2.00    0.56
  -2   6   7    1.26    0.47
   2   6  -7    2.96    0.60
  -2   6   7    0.90    0.46
   2   6  -7    2.03    0.57
   2   6  -7    1.74    0.56
  -1  -6   7   -0.44    0.47
   1  -6  -7    0.41    0.42
  -1  -6   7    1.64    0.54
  -1  -6   7    0.99    0.52
   1   6  -7    0.30    0.46
  -1   6   7    0.57    0.43
   1   6  -7    0.56    0.50
  -1   6   7    0.82    0.43
   1   6  -7    1.01    0.41
   0  -6   7   24.69    1.30
   0  -6   7   25.67    1.37
   0  -6  -7   24.48    1.28
   0  -6  -7   23.67    1.30
   0   6  -7   24.67    1.41
   0   6   7   22.76    1.26
   0   6  -7   24.04    1.31
   0   6   7   22.47    1.27
  -1  -6  -7    1.54    0.50
   1  -6   7    0.80    0.57
  -1  -6  -7    0.85    0.55
  -1  -6  -7    0.04    0.53
   1  -6   7    2.30    0.57
  -1   6  -7    1.39    0.47
  -1   6  -7    1.46    0.53
  -1   6  -7    1.10    0.59
   1   6   7    0.67    0.42
   1   6   7    0.04    0.49
   1   6   7    1.26    0.47
   2  -6   7    2.24    0.66
  -2  -6  -7    2.09    0.66
  -2  -6  -7    0.90    0.51
   2  -6   7    2.26    0.67
   2  -6   7    3.54    0.70
  -2  -6  -7    2.88    0.55
   2   6   7    0.78    0.52
  -2   6  -7    2.35    0.62
   2   6   7    2.14    0.48
  -2   6  -7    1.61    0.67
   2   6   7    1.67    0.49
  -2   6  -7    3.20    0.59
   3  -6   7   -0.56    0.37
  -3  -6  -7   -0.35    0.57
   3  -6   7    0.38    0.62
  -3   6  -7    0.20    0.57
   3   6   7   -0.09    0.52
  -3   6  -7    0.41    0.52
  -3   6  -7    1.56    0.55
   3   6   7    0.66    0.43
   3   6   7    0.27    0.45
   4  -6   7    0.15    0.66
  -4  -6  -7   -0.67    0.56
  -4   6  -7    0.55    0.52
   4   6   7    0.54    0.43
   4   6   7    0.73    0.39
  -4   6  -7   -0.24    0.57
  -4   6  -7    1.28    0.55
   4   6   7   -0.22    0.52
   5  -6   7    0.69    0.71
   5   6   7    1.61    0.45
   5   6   7    0.82    0.45
  -5   6  -7    0.14    0.59
   5   6   7    0.11    0.49
  -5   6  -7    0.83    0.61
   4  -7  -7    3.11    0.54
  -4  -7   7    3.39    0.83
   4  -7  -7    1.78    0.62
  -4   7   7    2.10    0.60
   4   7  -7    2.57    0.72
   4   7  -7    3.31    0.68
   3  -7  -7    1.85    0.59
  -3  -7   7    1.36    0.66
   3  -7  -7    3.61    0.56
  -3  -7   7    2.99    0.75
   3   7  -7    2.46    0.70
   3   7  -7    1.97    0.67
  -3   7   7    2.46    0.59
  -3   7   7    1.34    0.60
   3   7  -7    3.03    0.66
  -2  -7   7    1.91    0.68
   2  -7  -7    1.48    0.60
  -2  -7   7    2.89    0.72
   2   7  -7    2.61    0.59
  -2   7   7    2.06    0.56
   2   7  -7    1.51    0.62
   2   7  -7    2.43    0.66
  -2   7   7    1.12    0.52
   1  -7  -7    0.43    0.53
  -1  -7   7   -0.04    0.54
  -1   7   7    0.57    0.50
   1   7  -7    0.14    0.49
  -1   7   7    0.33    0.47
   1   7  -7    0.67    0.57
   0  -7   7    2.27    0.68
   0  -7   7    0.90    0.53
   0  -7  -7    2.48    0.64
   0   7  -7    1.30    0.56
   0   7   7    1.63    0.50
   0   7   7    1.61    0.58
   0   7  -7    2.55    0.64
  -1  -7  -7    2.12    0.59
   1  -7   7    0.31    0.60
  -1   7  -7   -0.17    0.61
  -1   7  -7    1.27    0.54
   1   7   7    0.70    0.49
  -1   7  -7    0.88    0.54
   1   7   7    1.12    0.46
   2  -7   7    5.72    0.74
  -2  -7  -7    3.07    0.80
   2  -7   7    4.09    0.79
  -2  -7  -7    5.09    0.65
   2   7   7    2.76    0.60
   2   7   7    2.03    0.68
  -2   7  -7    5.39    0.74
  -2   7  -7    3.41    0.79
  -2   7  -7    4.26    0.76
   2   7   7    3.89    0.59
   3  -7   7    0.17    0.68
  -3  -7  -7    1.57    0.53
   3   7   7   -0.53    0.54
   3   7   7    0.39    0.45
  -3   7  -7   -0.33    0.68
  -3   7  -7    1.30    0.64
   3   7   7    0.70    0.42
   9   0  -8    4.08    0.60
   9   0  -8    5.31    0.66
  -8   0   8   16.42    1.02
   8   0  -8   13.84    0.90
  -8   0   8   13.15    0.94
   8   0  -8   13.79    0.84
  -7   0   8    1.38    0.51
  -7   0   8    0.22    0.42
   7   0  -8    0.66    0.29
   7   0  -8    0.98    0.37
   6   0  -8    0.48    0.30
  -6   0   8   -0.30    0.37
   6   0  -8   -0.08    0.25
  -6   0   8    0.55    0.44
  -5   0   8    7.59    0.69
   5   0  -8    8.38    0.58
   5   0  -8    8.28    0.52
  -5   0   8    7.25    0.71
   5   0  -8    7.80    0.58
  -5   0   8    7.94    0.65
   4   0  -8    6.58    0.46
   4   0  -8    6.31    0.55
   4   0  -8    6.65    0.51
  -4   0   8    5.23    0.66
  -4   0   8    6.70    0.63
  -4   0   8    6.02    0.64
  -3   0   8    4.53    0.50
  -3   0   8    4.97    0.44
   3   0  -8    4.62    0.37
  -3   0   8    4.98    0.42
   3   0  -8    4.43    0.47
  -3   0   8    4.61    0.56
   3   0  -8    3.39    0.39
   3   0  -8    4.48    0.44
  -2   0   8    0.90    0.37
  -2   0   8    1.46    0.32
  -2   0   8    1.22    0.30
   2   0  -8    1.21    0.29
   2   0  -8    1.01    0.22
   2   0  -8    1.09    0.28
  -2   0   8    0.97    0.42
   2   0  -8    0.69    0.27
  -1   0   8   20.20    0.95
  -1   0   8   21.21    1.08
  -1   0   8   20.09    0.98
   1   0  -8   19.95    0.97
  -1   0   8   19.34    1.00
   1   0  -8   19.18    0.97
   1   0  -8   20.18    0.96
   1   0  -8   19.02    0.87
   0   0   8    9.00    0.63
   0   0  -8    9.71    0.59
   0   0   8    9.45    0.62
   0   0  -8   10.10    0.60
   0   0   8    9.36    0.60
   0   0   8    9.53    0.71
   0   0  -8    9.63    0.62
   1   0   8   35.20    1.55
   1   0   8   33.01    1.49
   1   0   8   33.84    1.46
  -1   0  -8   34.88    1.51
  -1   0  -8   32.82    1.49
  -1   0  -8   34.42    1.48
   1   0   8   33.40    1.49
   2   0   8   -0.20    0.33
  -2   0  -8    0.02    0.27
   2   0   8   -0.19    0.29
  -2   0  -8    0.07    0.30
   2   0   8    0.01    0.25
  -2   0  -8   -0.14    0.27
   2   0   8   -0.27    0.42
  -3   0  -8    2.11    0.38
  -3   0  -8    3.29    0.50
  -3   0  -8    2.69    0.41
   3   0   8    2.07    0.40
   3   0   8    2.42    0.47
  -4   0  -8    2.67    0.46
  -4   0  -8    2.69    0.49
   4   0   8    2.34    0.43
  -4   0  -8    1.89    0.37
   4   0   8    2.83    0.38
   4   0   8    1.85    0.42
   5   0   8    1.07    0.30
  -5   0  -8    1.47    0.40
  -5   0  -8    1.54    0.45
   5   0   8    0.40    0.37
   6   0   8    0.68    0.35
  -6   0  -8    0.86    0.45
  -6   0  -8    0.18    0.38
   6   0   8    0.18    0.38
  -7   0  -8    1.97    0.48
   7   0   8    1.21    0.46
   7   0   8    2.95    0.51
  -8   0  -8    3.13    0.60
   8   0   8    3.34    0.52
  -9  -1   8   25.85    1.44
   9  -1  -8   26.84    1.37
  -9   1   8   31.08    1.63
   9   1  -8   27.46    1.39
  -9   1   8   28.05    1.48
   9   1  -8   24.05    1.40
  -8  -1   8    2.13    0.55
   8  -1  -8    2.80    0.45
  -8   1   8    3.31    0.60
   8   1  -8    3.38    0.47
   7  -1  -8    0.85    0.31
  -7  -1   8    0.48    0.46
  -7   1   8    1.73    0.52
   7   1  -8    0.87    0.30
  -7   1   8    0.93    0.42
   6  -1  -8    0.41    0.30
  -6  -1   8   -0.03    0.38
  -6  -1   8    0.70    0.40
   6  -1  -8    0.99    0.30
  -6  -1   8    0.19    0.42
  -6   1   8    0.52    0.36
   6   1  -8    0.76    0.37
   6   1  -8    0.43    0.30
   6   1  -8    0.46    0.25
  -6   1   8    0.65    0.43
   5  -1  -8    2.59    0.38
  -5  -1   8    2.40    0.51
  -5  -1   8    1.75    0.48
   5  -1  -8    2.51    0.44
  -5  -1   8    2.00    0.44
   5   1  -8    2.38    0.44
  -5   1   8    2.17    0.45
   5   1  -8    2.47    0.36
  -5   1   8    2.24    0.48
   5   1  -8    2.37    0.43
  -5   1   8    2.12    0.44
  -5   1   8    2.05    0.41
  -4  -1   8    0.12    0.39
  -4  -1   8    0.06    0.38
  -4  -1   8   -0.64    0.38
   4  -1  -8    0.18    0.26
   4  -1  -8    0.57    0.24
   4  -1  -8    0.08    0.26
  -4  -1   8    0.29    0.35
   4   1  -8    0.50    0.31
  -4   1   8    0.46    0.33
  -4   1   8    0.19    0.35
   4   1  -8    0.17    0.26
  -4   1   8    0.58    0.28
   4   1  -8    0.54    0.22
  -4   1   8    0.60    0.39
   3  -1  -8    1.28    0.28
   3  -1  -8    0.89    0.33
  -3  -1   8    0.95    0.42
  -3  -1   8    0.55    0.38
  -3  -1   8    0.14    0.38
  -3  -1   8    1.16    0.36
   3  -1  -8    1.02    0.25
  -3   1   8    0.67    0.34
  -3   1   8    0.88    0.39
   3   1  -8    0.95    0.21
  -3   1   8    1.02    0.33
  -3   1   8    0.34    0.35
   3   1  -8    1.16    0.33
   3   1  -8    0.98    0.32
   3   1  -8    0.98    0.29
   2  -1  -8   15.40    0.74
  -2  -1   8   15.69    0.75
  -2  -1   8   14.79    0.89
   2  -1  -8   15.38    0.83
  -2  -1   8   15.26    0.87
  -2  -1   8   15.34    0.91
  -2  -1   8   14.16    0.80
   2  -1  -8   15.29    0.77
   2   1  -8   14.58    0.81
  -2   1   8   14.34    0.81
  -2   1   8   15.30    0.83
   2   1  -8   15.25    0.69
  -2   1   8   14.88    0.89
   2   1  -8   13.41    0.81
   2   1  -8   13.43    0.80
  -2   1   8   15.84    0.80
   1  -1  -8    3.98    0.44
  -1  -1   8    4.31    0.57
  -1  -1   8    4.05    0.47
  -1  -1   8    3.75    0.47
  -1  -1   8    4.27    0.41
   1  -1  -8    4.19    0.38
   1  -1  -8    3.66    0.35
   1   1  -8    3.57    0.43
  -1   1   8    3.55    0.43
  -1   1   8    3.72    0.52
   1   1  -8    3.58    0.43
   1   1  -8    4.41    0.47
  -1   1   8    3.65    0.47
  -1   1   8    4.24    0.49
   0  -1  -8   28.16    1.28
   0  -1   8   28.20    1.31
   0  -1   8   30.26    1.29
   0  -1  -8   29.28    1.30
   0  -1   8   29.90    1.41
   0  -1   8   28.44    1.34
   0  -1  -8   27.81    1.22
   0   1   8   29.40    1.34
   0   1   8   28.54    1.24
   0   1   8   29.09    1.37
   0   1  -8   28.23    1.29
   0   1   8   28.36    1.25
   0   1  -8   28.40    1.32
   0   1  -8   27.68    1.30
   0   1   8   27.13    1.29
  -1  -1  -8    0.49    0.28
   1  -1   8    0.29    0.29
   1  -1   8    0.46    0.30
   1  -1   8    0.26    0.32
  -1  -1  -8    0.31    0.30
   1  -1   8    0.44    0.38
  -1  -1  -8    0.62    0.25
  -1   1  -8    0.40    0.24
  -1   1  -8    0.62    0.33
  -1   1  -8    0.26    0.28
   1   1   8    0.37    0.30
   1   1   8    0.38    0.23
   1   1   8    0.46    0.36
   2  -1   8    0.22    0.28
   2  -1   8    0.20    0.28
   2  -1   8   -0.24    0.40
   2  -1   8    0.11    0.34
  -2  -1  -8    0.26    0.26
  -2  -1  -8   -0.03    0.32
  -2  -1  -8    0.01    0.29
  -2   1  -8    0.42    0.28
  -2   1  -8    0.27    0.24
  -2   1  -8   -0.18    0.24
   2   1   8    0.51    0.26
  -2   1  -8    0.69    0.35
   2   1   8    0.02    0.31
   2   1   8    0.14    0.35
   3  -1   8    1.55    0.37
   3  -1   8    1.28    0.41
   3  -1   8    1.67    0.39
   3  -1   8    2.20    0.39
  -3  -1  -8    1.51    0.35
  -3  -1  -8    2.63    0.42
  -3  -1  -8    2.13    0.43
  -3   1  -8    1.56    0.31
  -3   1  -8    2.14    0.38
  -3   1  -8    1.40    0.35
   3   1   8    1.49    0.42
  -3   1  -8    2.17    0.45
   3   1   8    1.74    0.33
   3   1   8    1.68    0.38
   4  -1   8   -0.30    0.35
   4  -1   8   -0.29    0.36
  -4  -1  -8    0.21    0.34
  -4  -1  -8    0.44    0.33
   4  -1   8    0.96    0.34
  -4   1  -8    0.66    0.41
   4   1   8    0.80    0.31
   4   1   8   -0.09    0.32
   4   1   8   -0.33    0.31
  -4   1  -8    0.50    0.32
  -4   1  -8   -0.05    0.29
   5  -1   8    1.59    0.43
  -5  -1  -8    2.58    0.48
  -5  -1  -8    2.86    0.49
   5   1   8    2.73    0.45
  -5   1  -8    3.76    0.67
  -5   1  -8    2.51    0.45
   5   1   8    1.94    0.43
   6  -1   8    0.39    0.45
   6  -1   8    0.21    0.41
  -6  -1  -8    0.88    0.48
   6   1   8    1.07    0.41
  -6   1  -8    1.73    0.45
   6   1   8    1.35    0.37
  -6   1  -8    2.49    0.60
   7  -1   8    4.33    0.60
  -7  -1  -8    5.70    0.70
   7   1   8    4.82    0.66
  -7   1  -8    6.80    0.66
   7   1   8    6.00    0.58
   8   1   8    1.63    0.46
  -8   1  -8    1.53    0.47
   8   1   8    0.36    0.48
  -9   2   8    4.10    0.74
   9   2  -8    3.93    0.70
   9   2  -8    2.70    0.52
   8  -2  -8    0.26    0.33
  -8  -2   8    0.23    0.51
   8   2  -8    1.30    0.47
  -8   2   8    0.86    0.43
  -7  -2   8   22.76    1.37
  -7  -2   8   18.22    1.13
  -7  -2   8   16.98    1.11
   7  -2  -8   18.93    1.00
   7  -2  -8   20.80    1.05
   7   2  -8   17.76    1.13
  -7   2   8   19.64    1.06
   7   2  -8   19.07    1.03
  -7   2   8   20.66    1.24
   7   2  -8   17.25    1.09
  -6  -2   8    0.75    0.44
   6  -2  -8    0.95    0.30
   6  -2  -8    0.38    0.31
  -6  -2   8   -0.11    0.52
  -6  -2   8    1.12    0.40
  -6   2   8    1.42    0.50
  -6   2   8    0.97    0.40
   6   2  -8    1.04    0.28
   6   2  -8    1.06    0.41
   6   2  -8    1.10    0.38
  -5  -2   8   -0.73    0.41
   5  -2  -8   -0.25    0.28
   5  -2  -8    0.32    0.27
  -5  -2   8    0.19    0.38
  -5  -2   8   -0.12    0.41
  -5   2   8    0.18    0.28
  -5   2   8    0.26    0.30
   5   2  -8    0.29    0.33
  -5   2   8    0.66    0.41
   5   2  -8    0.36    0.22
   5   2  -8    0.15    0.35
  -5   2   8    0.56    0.31
  -4  -2   8   -0.35    0.39
   4  -2  -8   -0.37    0.28
   4  -2  -8    0.03    0.18
  -4  -2   8    0.36    0.42
  -4  -2   8   -0.19    0.42
   4  -2  -8    0.06    0.30
   4   2  -8    0.26    0.20
   4   2  -8    0.19    0.34
   4   2  -8   -0.31    0.32
  -4   2   8    0.26    0.29
  -4   2   8    0.31    0.29
  -4   2   8    0.09    0.37
  -4   2   8   -0.01    0.29
   4   2  -8    0.19    0.28
  -3  -2   8   24.65    1.20
  -3  -2   8   22.29    1.19
  -3  -2   8   21.93    1.22
  -3  -2   8   23.64    1.17
   3  -2  -8   21.59    1.01
   3  -2  -8   24.24    1.06
   3  -2  -8   23.42    1.07
   3  -2  -8   23.68    1.12
  -3   2   8   23.94    1.09
   3   2  -8   22.46    1.02
   3   2  -8   21.62    1.16
  -3   2   8   24.22    1.08
  -3   2   8   23.21    1.14
  -3   2   8   23.77    1.21
   3   2  -8   22.12    1.14
  -3   2   8   21.54    1.05
   3   2  -8   22.53    1.14
  -2  -2   8   10.81    0.74
   2  -2  -8   10.14    0.58
   2  -2  -8    9.02    0.59
  -2  -2   8    8.82    0.72
  -2  -2   8    9.73    0.75
   2  -2  -8   10.05    0.66
  -2  -2   8    9.94    0.71
   2  -2  -8    9.63    0.53
  -2   2   8    9.84    0.58
   2   2  -8    9.57    0.63
  -2   2   8    9.87    0.59
  -2   2   8    9.73    0.72
  -2   2   8    8.52    0.78
   2   2  -8    9.38    0.66
   2   2  -8   10.16    0.72
  -2   2   8    9.73    0.68
   1  -2  -8   11.22    0.63
  -1  -2   8   10.45    0.72
  -1  -2   8   12.03    0.63
   1  -2  -8   11.90    0.65
   1  -2  -8   11.76    0.70
  -1  -2   8   10.39    0.74
  -1  -2   8   11.59    0.78
  -1   2   8   10.55    0.79
  -1   2   8   10.73    0.68
   1   2  -8   10.65    0.65
  -1   2   8    9.54    0.62
   1   2  -8   10.51    0.71
   1   2  -8   10.52    0.69
   0  -2   8    2.50    0.39
   0  -2  -8    2.81    0.40
   0  -2   8    3.40    0.55
   0  -2  -8    2.11    0.34
   0  -2   8    3.13    0.50
   0  -2   8    3.32    0.49
   0  -2  -8    2.78    0.50
   0   2  -8    2.59    0.38
   0   2   8    2.59    0.39
   0   2  -8    2.69    0.50
   0   2   8    2.36    0.47
   0   2   8    2.63    0.43
   0   2  -8    2.57    0.42
   1  -2   8    0.02    0.38
   1  -2   8    0.09    0.39
   1  -2   8   -0.01    0.31
  -1  -2  -8    0.04    0.35
   1  -2   8    0.10    0.37
  -1  -2  -8    0.38    0.32
  -1  -2  -8    0.00    0.22
   1   2   8    0.04    0.30
  -1   2  -8    0.00    0.28
  -1   2  -8    0.55    0.23
  -1   2  -8    0.34    0.35
   1   2   8    0.21    0.36
   1   2   8    0.32    0.28
   2  -2   8   12.41    0.81
  -2  -2  -8   12.12    0.72
  -2  -2  -8   11.71    0.78
  -2  -2  -8   11.54    0.65
   2  -2   8   12.66    0.83
   2  -2   8   12.32    0.83
   2  -2   8   11.52    0.70
  -2   2  -8   12.69    0.75
  -2   2  -8   12.49    0.66
   2   2   8   11.94    0.75
   2   2   8   12.26    0.79
  -2   2  -8   12.62    0.85
   2   2   8   12.68    0.73
  -2   2  -8   12.00    0.81
  -3  -2  -8    0.73    0.36
   3  -2   8    0.49    0.37
   3  -2   8    1.09    0.38
   3  -2   8    0.30    0.41
   3  -2   8    0.75    0.39
  -3  -2  -8    0.35    0.39
  -3   2  -8    0.58    0.35
   3   2   8    1.01    0.36
  -3   2  -8    1.12    0.34
   3   2   8    0.92    0.33
  -3   2  -8    1.59    0.45
   3   2   8    0.68    0.33
  -4  -2  -8    0.36    0.37
   4  -2   8    0.11    0.46
   4  -2   8    0.50    0.36
   4  -2   8    1.16    0.41
  -4   2  -8    0.74    0.40
  -4   2  -8    1.16    0.35
   4   2   8    0.90    0.38
  -4   2  -8    1.15    0.47
   4   2   8    1.30    0.34
   5  -2   8    0.57    0.39
   5  -2   8    0.66    0.46
  -5  -2  -8    0.69    0.43
   5   2   8    1.22    0.41
   5   2   8    1.55    0.41
  -5   2  -8    0.86    0.40
  -5   2  -8    2.32    0.58
  -5   2  -8    1.88    0.40
  -6  -2  -8    1.53    0.59
  -6   2  -8    0.18    0.37
  -6   2  -8    0.99    0.40
   6   2   8    0.60    0.39
  -6   2  -8    1.69    0.59
   6   2   8    1.03    0.41
   7   2   8    1.11    0.44
   7   2   8    0.38    0.40
   9  -3  -8    1.92    0.47
  -9  -3   8    1.28    0.59
   9   3  -8    1.81    0.52
  -8  -3   8    4.49    0.75
   8  -3  -8    5.70    0.61
  -8  -3   8    5.60    0.88
   8   3  -8    6.12    0.83
  -8   3   8    8.37    0.71
   8   3  -8    7.22    0.74
   8   3  -8    7.23    0.62
  -7  -3   8    4.25    0.77
  -7  -3   8    5.25    0.82
   7  -3  -8    5.49    0.59
   7  -3  -8    4.85    0.50
   7   3  -8    6.17    0.55
   7   3  -8    5.61    0.67
   7   3  -8    5.72    0.68
  -7   3   8    7.83    0.87
  -7   3   8    6.95    0.63
  -6  -3   8    3.88    0.72
   6  -3  -8    6.73    0.57
  -6  -3   8    4.57    0.69
   6  -3  -8    4.86    0.48
   6  -3  -8    4.94    0.55
  -6  -3   8    7.67    0.93
  -6   3   8    5.53    0.61
   6   3  -8    6.03    0.70
   6   3  -8    6.26    0.54
  -6   3   8    6.63    0.61
   6   3  -8    5.79    0.73
   5  -3  -8    0.17    0.33
  -5  -3   8    0.48    0.42
  -5  -3   8    0.55    0.51
  -5  -3   8   -0.26    0.49
   5  -3  -8    0.84    0.34
   5  -3  -8    0.57    0.26
  -5   3   8    0.83    0.40
  -5   3   8    1.25    0.34
   5   3  -8    0.79    0.39
  -5   3   8    1.66    0.52
   5   3  -8    0.71    0.40
   5   3  -8    0.97    0.28
  -5   3   8    1.27    0.49
  -4  -3   8   -0.39    0.42
   4  -3  -8   -0.07    0.29
   4  -3  -8    0.19    0.23
  -4  -3   8   -0.50    0.45
   4  -3  -8   -0.08    0.30
  -4  -3   8    0.35    0.48
  -4   3   8    0.90    0.39
   4   3  -8    0.63    0.26
   4   3  -8    0.67    0.36
  -4   3   8    0.75    0.43
   4   3  -8    0.03    0.41
   4   3  -8    0.59    0.38
  -4   3   8    0.10    0.29
  -4   3   8    0.48    0.26
  -3  -3   8    3.94    0.63
   3  -3  -8    4.28    0.56
   3  -3  -8    4.36    0.47
  -3  -3   8    5.61    0.61
   3  -3  -8    4.85    0.39
  -3  -3   8    3.77    0.61
   3   3  -8    4.87    0.56
   3   3  -8    5.41    0.57
  -3   3   8    4.64    0.49
   3   3  -8    5.29    0.58
  -3   3   8    5.20    0.62
  -3   3   8    4.93    0.52
   2  -3  -8   20.58    1.03
  -2  -3   8   20.92    1.12
  -2  -3   8   20.80    1.11
   2  -3  -8   23.11    1.05
   2  -3  -8   21.60    1.06
  -2  -3   8   20.53    1.14
   2  -3  -8   19.68    0.96
  -2  -3   8   20.24    1.10
   2   3  -8   20.61    1.12
  -2   3   8   19.86    1.10
   2   3  -8   19.97    1.05
  -2   3   8   20.50    1.03
   2   3  -8   20.14    1.09
  -2   3   8   19.70    1.05
  -1  -3   8   13.72    0.93
   1  -3  -8   14.68    0.88
   1  -3  -8   15.04    0.76
  -1  -3   8   14.41    0.92
   1  -3  -8   13.86    0.78
  -1  -3   8   13.97    0.90
  -1   3   8   13.86    0.81
  -1   3   8   14.58    0.90
   1   3  -8   13.76    0.80
  -1   3   8   13.69    0.82
   1   3  -8   14.20    0.89
   1   3  -8   13.77    0.85
   0  -3   8   -0.10    0.40
   0  -3  -8    0.20    0.27
   0  -3  -8    0.09    0.35
   0  -3  -8   -0.03    0.26
   0  -3   8    0.30    0.44
   0  -3   8   -0.32    0.28
   0  -3   8    0.05    0.42
   0   3  -8    0.45    0.25
   0   3  -8   -0.01    0.34
   0   3   8    0.30    0.33
   0   3   8    0.06    0.28
   0   3   8    0.31    0.31
   0   3  -8    0.17    0.32
   1  -3   8    0.60    0.40
   1  -3   8    0.03    0.37
   1  -3   8   -0.03    0.41
  -1  -3  -8   -0.12    0.35
  -1  -3  -8    0.09    0.30
  -1  -3  -8    0.24    0.26
   1  -3   8   -0.14    0.31
  -1   3  -8    0.75    0.39
  -1   3  -8    0.56    0.37
   1   3   8    0.51    0.38
   1   3   8    0.16    0.29
   1   3   8    0.69    0.34
  -1   3  -8    0.27    0.36
  -1   3  -8    0.54    0.24
  -2  -3  -8    0.30    0.34
   2  -3   8    0.62    0.45
   2  -3   8    0.84    0.45
  -2  -3  -8    0.78    0.29
  -2  -3  -8    0.18    0.38
   2  -3   8    1.33    0.43
   2  -3   8   -0.03    0.35
   2   3   8    0.85    0.33
  -2   3  -8    0.90    0.41
   2   3   8    0.93    0.36
   2   3   8    0.40    0.35
  -2   3  -8    0.28    0.41
  -2   3  -8    1.01    0.36
   3  -3   8    3.87    0.48
   3  -3   8    3.84    0.66
  -3  -3  -8    3.10    0.53
  -3  -3  -8    3.66    0.56
   3  -3   8    5.20    0.61
  -3  -3  -8    4.82    0.44
  -3   3  -8    4.88    0.64
   3   3   8    3.23    0.51
   3   3   8    4.32    0.52
  -3   3  -8    3.32    0.65
  -3   3  -8    5.08    0.54
   3   3   8    4.44    0.55
   4  -3   8    1.74    0.47
  -4  -3  -8    1.74    0.47
   4  -3   8    1.20    0.53
   4   3   8    1.94    0.44
   4   3   8    2.23    0.45
  -4   3  -8    2.53    0.60
  -4   3  -8    1.27    0.46
   5  -3   8    3.18    0.63
  -5  -3  -8    2.55    0.57
   5  -3   8    3.07    0.51
  -5  -3  -8    3.66    0.64
  -5   3  -8    3.29    0.63
  -5   3  -8    4.21    0.71
   5   3   8    3.60    0.52
   5   3   8    3.23    0.51
   6  -3   8    0.30    0.49
   6   3   8    1.74    0.44
  -6   3  -8    1.10    0.50
  -6   3  -8    1.94    0.65
   6   3   8    1.55    0.45
  -7   3  -8    2.47    0.64
   7   3   8    2.97    0.56
  -7   3  -8    4.41    0.78
   7   3   8    3.45    0.57
   8  -4  -8   -0.06    0.39
  -8  -4   8   -0.83    0.55
   8   4  -8    0.93    0.48
   8   4  -8    0.04    0.57
  -7  -4   8    1.27    0.70
  -7  -4   8    0.22    0.60
   7  -4  -8    1.21    0.51
   7  -4  -8    1.43    0.39
  -7   4   8    1.89    0.55
   7   4  -8    2.45    0.66
   6  -4  -8    0.59    0.32
   6  -4  -8    0.34    0.42
   6  -4  -8    1.24    0.33
  -6  -4   8    0.36    0.57
   6   4  -8    1.17    0.33
   6   4  -8    1.01    0.55
   6   4  -8    1.24    0.46
  -6   4   8    2.14    0.67
  -6   4   8    0.98    0.45
   5  -4  -8    0.22    0.44
  -5  -4   8   -0.07    0.54
   5  -4  -8    0.77    0.30
  -5  -4   8    1.17    0.56
   5  -4  -8    1.06    0.37
  -5  -4   8    0.56    0.68
  -5   4   8    1.85    0.58
   5   4  -8    1.14    0.43
   5   4  -8    0.96    0.47
  -5   4   8    1.31    0.48
  -4  -4   8    2.19    0.57
   4  -4  -8    1.67    0.35
  -4  -4   8    1.02    0.46
   4  -4  -8    1.37    0.43
   4  -4  -8    1.68    0.42
  -4  -4   8    0.99    0.54
  -4   4   8    1.10    0.42
   4   4  -8    2.19    0.50
   4   4  -8    1.86    0.50
   4   4  -8    0.80    0.47
  -4   4   8    2.82    0.61
  -4   4   8    1.95    0.46
   3  -4  -8   -0.09    0.37
  -3  -4   8    0.44    0.49
  -3  -4   8    1.16    0.50
   3  -4  -8    0.99    0.27
   3  -4  -8   -0.11    0.40
   3   4  -8    0.71    0.39
   3   4  -8    0.73    0.42
  -3   4   8    1.23    0.44
  -3   4   8    0.26    0.37
  -3   4   8    1.16    0.39
   3   4  -8    0.71    0.42
   2  -4  -8    3.48    0.37
   2  -4  -8    3.13    0.47
  -2  -4   8    4.81    0.60
  -2  -4   8    3.36    0.57
   2  -4  -8    3.22    0.55
  -2  -4   8    2.70    0.58
   2   4  -8    3.15    0.59
   2   4  -8    3.59    0.56
   2   4  -8    3.63    0.49
  -2   4   8    3.45    0.51
  -2   4   8    3.29    0.47
  -2   4   8    4.27    0.58
   1  -4  -8    1.90    0.39
  -1  -4   8    2.46    0.52
   1  -4  -8    2.94    0.60
   1  -4  -8    1.64    0.49
  -1  -4   8    1.49    0.50
  -1   4   8    1.95    0.41
  -1   4   8    2.93    0.49
   1   4  -8    3.34    0.49
   1   4  -8    2.52    0.54
   1   4  -8    3.15    0.54
   0  -4  -8   13.23    0.75
   0  -4  -8   11.82    0.81
   0  -4  -8   12.30    0.78
   0  -4   8   13.48    0.93
   0  -4   8   11.62    0.88
   0   4   8   11.64    0.80
   0   4  -8   12.46    0.84
   0   4  -8   12.06    0.75
   0   4  -8   10.95    0.86
   0   4   8   12.74    0.83
   0   4   8   11.76    0.81
   1  -4   8    6.42    0.68
   1  -4   8    4.51    0.50
  -1  -4  -8    6.15    0.58
  -1  -4  -8    5.15    0.56
  -1  -4  -8    4.59    0.61
   1  -4   8    5.93    0.80
   1   4   8    6.39    0.58
  -1   4  -8    5.18    0.69
   1   4   8    4.89    0.55
  -1   4  -8    7.16    0.72
   1   4   8    5.06    0.57
  -1   4  -8    6.28    0.76
  -2  -4  -8    0.12    0.31
  -2  -4  -8   -0.26    0.40
   2  -4   8    0.40    0.46
   2  -4   8   -0.34    0.53
   2  -4   8   -0.36    0.35
  -2   4  -8    0.30    0.43
  -2   4  -8    0.41    0.41
   2   4   8    0.18    0.35
  -2   4  -8   -0.10    0.42
   2   4   8    0.30    0.36
  -3  -4  -8    1.18    0.37
   3  -4   8    1.27    0.53
   3  -4   8   -0.37    0.38
   3  -4   8   -0.51    0.52
  -3  -4  -8   -0.30    0.42
   3   4   8    0.54    0.42
  -3   4  -8    0.45    0.46
   3   4   8    0.46    0.36
   3   4   8   -0.26    0.40
  -3   4  -8    0.57    0.48
  -3   4  -8    1.59    0.50
  -4  -4  -8    0.59    0.55
   4  -4   8    1.53    0.64
  -4  -4  -8    0.13    0.50
   4  -4   8    0.98    0.43
   4   4   8    1.35    0.42
   4   4   8    1.20    0.43
  -4   4  -8    1.58    0.54
  -4   4  -8    2.47    0.62
   5  -4   8    2.23    0.67
  -5  -4  -8    1.14    0.51
   5  -4   8    1.91    0.50
  -5  -4  -8    1.86    0.58
   5   4   8    2.95    0.52
  -5   4  -8    1.70    0.59
   5   4   8    3.24    0.57
   6  -4   8   -0.15    0.60
   6   4   8    1.45    0.44
  -6   4  -8    0.77    0.59
  -6   4  -8    2.30    0.72
   6   4   8    0.85    0.43
   7  -5  -8   -0.43    0.37
   7  -5  -8   -0.93    0.52
  -7  -5   8   -0.99    0.61
   7   5  -8    0.67    0.49
  -7   5   8    1.63    0.74
   7   5  -8    0.03    0.59
  -7   5   8   -0.38    0.53
  -6  -5   8    0.21    0.64
   6  -5  -8   -0.75    0.46
   6  -5  -8    0.22    0.39
  -6   5   8    1.48    0.71
   6   5  -8    0.43    0.55
   6   5  -8    1.03    0.54
  -6   5   8    0.45    0.52
  -5  -5   8   -0.45    0.57
   5  -5  -8   -0.24    0.50
   5  -5  -8    0.66    0.35
  -5  -5   8    1.22    0.63
   5  -5  -8   -0.20    0.42
   5   5  -8    1.40    0.63
  -5   5   8    1.20    0.52
  -5   5   8    2.14    0.68
   5   5  -8    1.43    0.50
   4  -5  -8   -0.33    0.42
  -4  -5   8    0.55    0.57
  -4  -5   8   -0.68    0.52
   4  -5  -8    0.62    0.32
  -4   5   8    1.20    0.55
  -4   5   8   -0.21    0.39
   4   5  -8    1.33    0.55
  -4   5   8    0.65    0.47
   4   5  -8    1.20    0.45
   4   5  -8   -0.11    0.49
   3  -5  -8    1.82    0.36
  -3  -5   8    0.76    0.54
  -3  -5   8    2.41    0.65
   3  -5  -8    0.64    0.47
  -3   5   8    0.91    0.43
  -3   5   8    2.05    0.52
   3   5  -8    1.72    0.46
   3   5  -8    1.10    0.57
  -3   5   8    1.64    0.47
   3   5  -8    1.98    0.55
   2  -5  -8    0.77    0.27
  -2  -5   8    1.89    0.58
   2  -5  -8    0.19    0.38
  -2  -5   8    0.08    0.55
   2   5  -8    0.79    0.37
   2   5  -8    0.93    0.47
   2   5  -8    0.19    0.47
  -2   5   8    0.93    0.46
  -2   5   8    0.34    0.39
  -2   5   8    1.12    0.43
   1  -5  -8    3.15    0.52
   1  -5  -8    2.34    0.58
  -1  -5   8    4.49    0.66
  -1   5   8    3.76    0.57
  -1   5   8    3.68    0.61
   1   5  -8    4.04    0.63
   1   5  -8    4.18    0.55
   1   5  -8    3.82    0.75
   0  -5  -8   18.49    1.04
   0  -5   8   18.13    1.08
   0  -5  -8   15.71    1.09
   0  -5   8   17.19    1.16
   0   5  -8   17.24    1.03
   0   5   8   18.84    1.05
   0   5   8   16.71    1.01
   0   5  -8   17.73    1.18
   0   5  -8   18.53    1.14
   0   5   8   16.69    1.02
   1  -5   8    6.81    0.74
  -1  -5  -8    6.90    0.70
  -1  -5  -8    6.26    0.63
  -1  -5  -8    5.01    0.77
   1  -5   8    5.88    0.78
  -1   5  -8    6.47    0.76
   1   5   8    5.64    0.62
  -1   5  -8    7.35    0.73
   1   5   8    6.57    0.64
  -1   5  -8    5.38    0.78
   2  -5   8    1.38    0.62
  -2  -5  -8    2.31    0.48
   2   5   8    0.56    0.47
   2   5   8    1.77    0.47
  -2   5  -8    1.97    0.59
  -2   5  -8    1.74    0.60
   2   5   8    1.58    0.46
   3  -5   8    0.20    0.62
   3  -5   8    2.42    0.66
   3   5   8    1.14    0.47
  -3   5  -8    0.89    0.56
   3   5   8    0.01    0.48
  -3   5  -8    0.45    0.51
   3   5   8    0.77    0.42
   4  -5   8   -0.21    0.65
   4   5   8    0.95    0.45
   4   5   8    0.84    0.41
   4   5   8   -0.04    0.45
  -4   5  -8    0.83    0.61
  -4   5  -8   -0.31    0.56
  -5   5  -8    0.54    0.56
   5   5   8    0.48    0.43
   5   5   8    1.47    0.47
  -5   5  -8    1.55    0.67
   5  -6  -8    0.94    0.42
  -5  -6   8    0.79    0.73
   5   6  -8    1.31    0.59
   5   6  -8    0.67    0.61
  -5   6   8    1.67    0.71
  -5   6   8    1.06    0.57
   4  -6  -8    0.64    0.37
  -4  -6   8    0.58    0.62
  -4   6   8   -0.10    0.47
  -4   6   8    0.58    0.49
   4   6  -8    0.32    0.56
   4   6  -8    1.21    0.53
  -4   6   8    1.58    0.69
  -3  -6   8    4.50    0.74
  -3  -6   8    2.88    0.68
   3  -6  -8    2.19    0.60
   3  -6  -8    4.27    0.50
   3  -6  -8    3.22    0.61
   3   6  -8    2.78    0.68
   3   6  -8    4.13    0.62
  -3   6   8    3.67    0.62
  -3   6   8    2.58    0.57
   3   6  -8    4.73    0.83
  -3   6   8    5.19    0.77
   2  -6  -8    0.79    0.29
  -2  -6   8    0.43    0.60
  -2  -6   8    1.16    0.59
   2  -6  -8   -0.17    0.48
  -2   6   8    0.06    0.43
   2   6  -8    1.06    0.44
   2   6  -8    0.98    0.52
   2   6  -8   -0.29    0.48
  -2   6   8    0.70    0.46
  -1  -6   8    0.15    0.51
   1  -6  -8    0.93    0.48
   1   6  -8    0.82    0.36
  -1   6   8    0.26    0.43
   1   6  -8    0.48    0.53
  -1   6   8    0.68    0.45
   1   6  -8    0.71    0.51
   0  -6  -8    1.71    0.54
   0  -6   8    0.78    0.61
   0  -6   8    2.14    0.65
   0   6  -8    2.39    0.60
   0   6   8    1.92    0.51
   0   6   8    1.12    0.48
   0   6  -8    1.61    0.58
   1  -6   8    3.28    0.70
  -1  -6  -8    4.68    0.70
  -1  -6  -8    2.36    0.71
   1  -6   8    5.37    0.81
   1   6   8    2.77    0.57
  -1   6  -8    3.83    0.74
  -1   6  -8    3.32    0.72
  -1   6  -8    4.42    0.67
   1   6   8    3.62    0.59
   2  -6   8    1.87    0.61
  -2  -6  -8    0.94    0.46
   2  -6   8   -0.63    0.66
  -2   6  -8    1.32    0.57
   2   6   8    1.17    0.47
  -2   6  -8    0.76    0.57
  -2   6  -8   -0.31    0.55
   2   6   8    0.75    0.51
  -3  -6  -8    1.69    0.51
   3  -6   8    2.06    0.67
   3  -6   8   -0.43    0.64
  -3   6  -8   -0.35    0.64
  -3   6  -8    1.40    0.55
  -3   6  -8    0.47    0.57
   3   6   8   -0.39    0.50
   3   6   8    0.82    0.46
   3   6   8    0.77    0.44
   4  -6   8   -0.19    0.70
   4   6   8    1.13    0.47
   4   6   8    0.79    0.51
  -4   6  -8    0.53    0.60
   4   6   8   -0.16    0.50
  -4   6  -8    0.14    0.67
  -3   7   8    1.02    0.55
   2  -7  -8    5.65    0.89
   2  -7  -8    6.72    0.87
  -2  -7   8    6.17    0.84
   2  -7  -8    8.42    0.63
  -2   7   8    6.91    0.78
  -2   7   8    6.05    0.77
   2   7  -8    7.93    0.97
   2   7  -8    5.75    0.89
   1  -7  -8   -0.27    0.53
  -1  -7   8    0.11    0.63
   1   7  -8    1.13    0.63
  -1   7   8    0.05    0.47
  -1   7   8    0.81    0.54
   1   7  -8    0.35    0.54
   0  -7  -8    0.78    0.57
   0  -7   8    1.66    0.69
   0   7  -8    1.23    0.62
   0   7  -8    0.90    0.62
   0   7   8    0.76    0.50
   0   7   8    1.03    0.50
  -1  -7  -8    1.44    0.55
   1  -7   8    1.04    0.67
   1   7   8    0.18    0.50
  -1   7  -8    0.73    0.64
   1   7   8    1.07    0.49
  -1   7  -8    1.59    0.60
   9   0  -9   18.98    1.12
  -9   0   9   19.05    1.26
   9   0  -9   21.03    1.21
   8   0  -9    3.35    0.62
   7   0  -9    2.75    0.42
   7   0  -9    2.81    0.51
  -7   0   9    1.95    0.57
  -6   0   9    0.87    0.50
  -6   0   9    1.76    0.50
   6   0  -9    1.48    0.38
   6   0  -9    1.00    0.29
  -5   0   9    3.21    0.53
   5   0  -9    3.71    0.41
  -5   0   9    3.94    0.64
   5   0  -9    4.10    0.48
  -4   0   9    2.35    0.50
  -4   0   9    3.14    0.51
   4   0  -9    3.21    0.36
   4   0  -9    3.72    0.42
   4   0  -9    3.64    0.46
  -4   0   9    3.03    0.59
   3   0  -9    0.80    0.30
   3   0  -9    0.40    0.22
  -3   0   9   -0.12    0.40
   3   0  -9    0.98    0.33
  -3   0   9    0.74    0.29
  -3   0   9    0.64    0.44
  -2   0   9    1.18    0.33
  -2   0   9    0.72    0.40
   2   0  -9    0.74    0.29
   2   0  -9    0.84    0.25
   2   0  -9    1.24    0.33
  -2   0   9    0.98    0.46
  -1   0   9    9.33    0.76
   1   0  -9    9.28    0.63
  -1   0   9    7.30    0.67
  -1   0   9    9.43    0.62
   1   0  -9    9.10    0.62
  -1   0   9    8.08    0.64
   0   0   9    2.56    0.40
   0   0   9    2.98    0.54
   0   0  -9    2.81    0.43
   0   0  -9    2.33    0.38
   0   0   9    1.68    0.39
   0   0  -9    2.61    0.43
   0   0   9    2.68    0.45
  -1   0  -9    1.84    0.36
   1   0   9    1.45    0.41
  -1   0  -9    2.67    0.42
  -1   0  -9    2.19    0.41
   1   0   9    1.62    0.46
   1   0   9    1.90    0.39
  -2   0  -9    9.64    0.66
  -2   0  -9    9.50    0.67
   2   0   9    7.99    0.77
  -2   0  -9    9.05    0.62
   2   0   9    8.74    0.67
  -3   0  -9    1.05    0.41
  -3   0  -9    0.79    0.35
   3   0   9    0.72    0.40
  -4   0  -9    1.77    0.43
   4   0   9    0.87    0.40
  -5   0  -9    0.37    0.39
  -5   0  -9    1.58    0.53
   5   0   9   -0.47    0.36
  -6   0  -9    1.04    0.44
  -7   0  -9    3.42    0.64
   9   1  -9    3.72    0.58
   9   1  -9    3.26    0.60
   8  -1  -9    3.43    0.52
   8  -1  -9    2.84    0.52
   8   1  -9    3.34    0.57
  -8   1   9    1.87    0.58
   8   1  -9    2.90    0.47
  -7  -1   9    4.92    0.71
   7  -1  -9    6.65    0.64
  -7  -1   9    6.72    0.71
   7  -1  -9    4.75    0.55
   7   1  -9    6.47    0.64
   7   1  -9    5.41    0.52
  -7   1   9    5.87    0.72
  -6  -1   9    3.54    0.64
   6  -1  -9    4.03    0.45
   6  -1  -9    4.92    0.52
  -6  -1   9    5.62    0.75
   6   1  -9    4.70    0.58
   6   1  -9    4.79    0.48
  -6   1   9    4.45    0.58
  -6   1   9    5.59    0.73
   5  -1  -9    1.27    0.34
  -5  -1   9    1.47    0.52
   5  -1  -9    2.11    0.41
  -5  -1   9    0.92    0.48
   5   1  -9    2.20    0.44
  -5   1   9    1.33    0.41
   5   1  -9    2.23    0.35
  -5   1   9    1.87    0.50
   5   1  -9    1.58    0.38
  -4  -1   9    1.31    0.51
  -4  -1   9    1.74    0.44
  -4  -1   9    1.82    0.55
   4  -1  -9    1.90    0.35
   4  -1  -9    2.05    0.40
   4   1  -9    2.10    0.30
  -4   1   9    1.07    0.42
  -4   1   9    1.91    0.41
   4   1  -9    2.18    0.42
  -4   1   9    2.40    0.51
   4   1  -9    2.29    0.43
  -4   1   9    2.30    0.41
  -3  -1   9   -0.31    0.39
  -3  -1   9   -0.21    0.43
   3  -1  -9    0.42    0.25
   3  -1  -9    0.05    0.27
   3  -1  -9   -0.28    0.23
  -3  -1   9    0.77    0.35
   3   1  -9    0.32    0.27
  -3   1   9   -0.23    0.30
   3   1  -9    0.22    0.28
  -3   1   9    0.09    0.40
  -3   1   9    0.56    0.32
   3   1  -9    0.60    0.32
   2  -1  -9    1.72    0.33
   2  -1  -9    2.17    0.41
   2  -1  -9    3.06    0.39
  -2  -1   9    2.43    0.59
  -2  -1   9    2.25    0.46
  -2  -1   9    2.97    0.38
   2   1  -9    2.62    0.40
  -2   1   9    2.25    0.41
  -2   1   9    2.62    0.41
  -2   1   9    2.46    0.50
   2   1  -9    2.23    0.39
   2   1  -9    2.82    0.45
  -1  -1   9    0.00    0.28
   1  -1  -9    0.00    0.31
   1  -1  -9   -0.23    0.21
  -1  -1   9   -0.07    0.44
   1  -1  -9    0.20    0.30
  -1  -1   9   -0.11    0.34
   1   1  -9    0.19    0.24
  -1   1   9   -0.35    0.35
   1   1  -9    0.29    0.30
   1   1  -9    0.19    0.29
  -1   1   9    0.40    0.34
  -1   1   9    0.05    0.37
   0  -1   9    0.89    0.32
   0  -1  -9    0.56    0.35
   0  -1   9    0.67    0.45
   0  -1   9    0.24    0.37
   0  -1   9    0.82    0.35
   0  -1  -9    0.95    0.31
   0   1  -9    0.99    0.34
   0   1  -9    0.90    0.30
   0   1   9    0.50    0.42
   0   1  -9    1.43    0.40
   0   1   9    0.99    0.38
  -1  -1  -9    1.59    0.36
  -1  -1  -9    0.95    0.37
   1  -1   9    0.53    0.37
   1  -1   9    1.20    0.38
   1  -1   9    0.79    0.46
   1  -1   9    1.06    0.34
   1   1   9    1.13    0.42
  -1   1  -9    1.36    0.28
   1   1   9    1.39    0.40
  -1   1  -9    1.56    0.38
  -1   1  -9    1.46    0.37
  -2  -1  -9    0.67    0.34
  -2  -1  -9    0.24    0.34
   2  -1   9    0.84    0.37
   2  -1   9    0.30    0.37
   2  -1   9    0.33    0.52
   2  -1   9    0.39    0.44
   2   1   9    0.17    0.38
  -2   1  -9    1.28    0.43
  -2   1  -9    1.38    0.40
   2   1   9    0.74    0.35
  -2   1  -9    1.04    0.27
   3  -1   9    2.13    0.51
   3  -1   9    3.23    0.69
   3  -1   9    2.77    0.49
  -3  -1  -9    2.66    0.45
  -3  -1  -9    3.54    0.53
  -3   1  -9    3.66    0.56
  -3   1  -9    4.17    0.55
   3   1   9    2.26    0.51
   3   1   9    2.87    0.47
  -4  -1  -9    1.08    0.41
   4  -1   9    0.29    0.37
   4  -1   9   -0.08    0.49
  -4   1  -9    2.09    0.55
   4   1   9    0.75    0.38
  -4   1  -9    1.49    0.41
  -5  -1  -9    0.64    0.45
  -5  -1  -9    1.48    0.52
   5  -1   9   -0.19    0.38
   5   1   9    0.34    0.39
  -5   1  -9    1.20    0.41
  -5   1  -9    1.44    0.56
   6  -1   9   -0.04    0.41
  -6  -1  -9    0.62    0.44
   6   1   9    0.68    0.42
  -6   1  -9    1.26    0.42
  -8  -2   9    4.95    0.89
   8  -2  -9    4.91    0.57
   8  -2  -9    8.25    0.69
   8   2  -9    6.91    0.66
   8   2  -9    6.33    0.79
  -8   2   9    8.29    0.93
  -8   2   9    6.64    0.77
   7  -2  -9    5.68    0.59
  -7  -2   9    5.31    0.78
   7   2  -9    3.55    0.60
   7   2  -9    5.09    0.55
  -7   2   9    4.47    0.66
  -7   2   9    6.00    0.82
   6  -2  -9    4.50    0.51
  -6  -2   9    5.81    0.65
  -6  -2   9    4.29    0.70
  -6  -2   9    4.33    0.68
   6   2  -9    5.20    0.60
  -6   2   9    6.28    0.79
   6   2  -9    5.86    0.52
  -6   2   9    5.34    0.58
   6   2  -9    4.90    0.67
  -5  -2   9    0.67    0.49
   5  -2  -9    0.23    0.31
  -5  -2   9    0.41    0.47
  -5  -2   9   -0.29    0.49
   5  -2  -9    0.85    0.33
   5   2  -9    0.50    0.42
   5   2  -9    1.03    0.39
   5   2  -9    0.95    0.27
  -5   2   9    0.82    0.36
  -5   2   9    1.03    0.56
  -5   2   9    0.80    0.38
  -4  -2   9    6.91    0.69
  -4  -2   9    5.46    0.69
  -4  -2   9    5.40    0.68
   4  -2  -9    7.00    0.57
   4  -2  -9    5.89    0.51
   4   2  -9    6.36    0.62
   4   2  -9    4.59    0.61
   4   2  -9    6.57    0.60
  -4   2   9    6.81    0.72
  -4   2   9    6.70    0.56
  -4   2   9    6.71    0.59
   3  -2  -9    1.87    0.37
  -3  -2   9    3.17    0.57
   3  -2  -9    2.17    0.41
  -3  -2   9    2.44    0.57
  -3  -2   9    2.07    0.58
   3   2  -9    1.84    0.42
  -3   2   9    2.57    0.51
  -3   2   9    2.35    0.44
   3   2  -9    3.11    0.57
   3   2  -9    3.24    0.52
  -2  -2   9    1.09    0.51
   2  -2  -9    2.21    0.37
   2  -2  -9    1.50    0.34
  -2  -2   9    0.27    0.69
  -2  -2   9    1.46    0.51
   2  -2  -9    1.24    0.38
   2   2  -9    1.74    0.44
   2   2  -9    2.19    0.46
   2   2  -9    2.29    0.41
  -2   2   9    1.96    0.44
  -2   2   9    1.88    0.46
   1  -2  -9    1.17    0.30
  -1  -2   9    0.90    0.32
   1  -2  -9    0.47    0.28
  -1  -2   9    0.16    0.47
  -1  -2   9    0.76    0.41
   1  -2  -9    0.53    0.39
   1   2  -9    1.13    0.31
  -1   2   9    0.83    0.44
  -1   2   9    1.25    0.42
   1   2  -9    0.80    0.36
   1   2  -9    1.03    0.38
   0  -2   9    0.43    0.39
   0  -2  -9    0.92    0.34
   0  -2   9    0.34    0.29
   0  -2   9    0.00    0.47
   0  -2   9   -0.17    0.36
   0  -2  -9    0.28    0.25
   0  -2  -9    0.06    0.33
   0   2   9    0.22    0.36
   0   2  -9    0.98    0.37
   0   2  -9    0.64    0.37
   0   2   9    0.94    0.37
   0   2  -9    0.66    0.25
  -1  -2  -9    0.08    0.32
   1  -2   9   -0.34    0.38
  -1  -2  -9   -0.26    0.37
   1  -2   9    0.12    0.40
   1  -2   9    0.06    0.31
   1  -2   9   -0.34    0.44
   1   2   9    0.25    0.29
  -1   2  -9    0.43    0.40
   1   2   9    0.35    0.34
  -1   2  -9    0.36    0.34
  -1   2  -9    0.58    0.23
   1   2   9    0.22    0.40
  -2  -2  -9    1.85    0.43
   2  -2   9    0.95    0.51
   2  -2   9    1.43    0.42
  -2  -2  -9    1.39    0.41
   2  -2   9    0.96    0.40
   2  -2   9    1.97    0.45
  -2   2  -9    2.68    0.34
   2   2   9    2.14    0.39
   2   2   9    2.00    0.43
  -2   2  -9    2.72    0.48
   2   2   9    1.58    0.45
  -2   2  -9    2.17    0.52
  -3  -2  -9   -0.61    0.37
   3  -2   9    0.67    0.39
   3  -2   9   -0.50    0.34
  -3  -2  -9    0.22    0.35
  -3   2  -9    1.01    0.52
  -3   2  -9   -0.20    0.34
   3   2   9    0.76    0.34
   3   2   9    0.43    0.37
  -3   2  -9    0.87    0.37
   3   2   9   -0.11    0.38
   4  -2   9    2.95    0.52
   4  -2   9    1.94    0.58
  -4  -2  -9    3.59    0.54
  -4  -2  -9    2.79    0.50
   4   2   9    3.74    0.53
  -4   2  -9    5.02    0.79
  -4   2  -9    2.54    0.53
   4   2   9    3.73    0.47
  -4   2  -9    4.46    0.54
  -5  -2  -9    3.20    0.60
   5  -2   9    2.04    0.55
   5   2   9    3.27    0.60
   5   2   9    3.70    0.56
  -5   2  -9    4.65    0.55
  -6  -2  -9   -0.29    0.45
   6  -2   9   -0.60    0.42
  -6   2  -9    2.00    0.66
   6   2   9    0.44    0.40
   6   2   9    1.32    0.43
  -6   2  -9    1.22    0.40
   8  -3  -9    0.02    0.37
  -8  -3   9   -0.90    0.63
   8   3  -9    0.68    0.47
  -8   3   9    2.41    0.75
  -7  -3   9    7.06    0.92
  -7  -3   9    7.04    0.91
   7  -3  -9   11.76    0.76
   7  -3  -9    8.47    0.70
   7   3  -9    9.07    0.82
  -7   3   9   11.85    1.02
  -7   3   9   11.74    0.82
   7   3  -9   10.38    0.72
   7   3  -9    8.03    0.89
   6  -3  -9    1.13    0.37
  -6  -3   9    1.12    0.53
  -6  -3   9   -0.05    0.53
   6   3  -9    1.01    0.33
   6   3  -9    0.69    0.47
   6   3  -9    1.04    0.49
  -6   3   9    0.86    0.46
  -6   3   9    1.06    0.39
  -6   3   9    1.71    0.61
  -5  -3   9    0.90    0.50
   5  -3  -9    1.19    0.36
  -5  -3   9    1.03    0.52
   5   3  -9    1.31    0.46
  -5   3   9    1.82    0.47
  -5   3   9    1.61    0.62
   5   3  -9    1.58    0.48
  -4  -3   9   -0.33    0.49
   4  -3  -9    0.06    0.36
  -4  -3   9   -0.67    0.51
  -4  -3   9    0.35    0.52
   4   3  -9   -0.12    0.43
  -4   3   9    0.59    0.40
   4   3  -9    0.70    0.36
   4   3  -9    0.42    0.41
  -4   3   9    0.76    0.48
  -3  -3   9    2.26    0.63
  -3  -3   9    3.86    0.67
   3  -3  -9    2.89    0.44
  -3  -3   9    2.54    0.58
   3  -3  -9    3.19    0.51
   3   3  -9    3.69    0.50
   3   3  -9    3.06    0.55
  -3   3   9    4.19    0.71
  -3   3   9    2.77    0.43
  -3   3   9    3.09    0.49
   3   3  -9    3.26    0.58
  -2  -3   9   -0.78    0.46
  -2  -3   9    0.76    0.46
   2  -3  -9    0.57    0.22
   2  -3  -9   -0.41    0.30
   2  -3  -9   -0.44    0.38
  -2  -3   9   -0.07    0.45
  -2   3   9   -0.04    0.31
   2   3  -9    0.62    0.36
  -2   3   9    0.32    0.38
  -2   3   9    0.19    0.36
   2   3  -9    0.59    0.44
   2   3  -9    0.04    0.36
   1  -3  -9   -0.35    0.29
   1  -3  -9   -0.31    0.36
  -1  -3   9   -0.46    0.47
   1  -3  -9    0.41    0.28
   1   3  -9    0.71    0.34
  -1   3   9    0.05    0.29
  -1   3   9    0.19    0.36
   1   3  -9    0.14    0.36
   1   3  -9    0.41    0.39
  -1   3   9    0.51    0.36
   0  -3  -9    0.17    0.32
   0  -3   9    0.25    0.44
   0  -3   9   -0.73    0.47
   0  -3  -9   -0.32    0.23
   0  -3  -9   -0.25    0.36
   0  -3   9   -0.37    0.35
   0   3  -9    0.31    0.43
   0   3   9    0.21    0.31
   0   3   9    0.31    0.35
   0   3  -9    0.68    0.30
   0   3   9    0.22    0.37
   0   3  -9    0.59    0.44
  -1  -3  -9   -0.24    0.25
   1  -3   9   -0.49    0.34
   1  -3   9   -0.45    0.48
  -1  -3  -9    0.24    0.35
   1  -3   9    0.09    0.49
   1   3   9    0.57    0.39
   1   3   9    0.29    0.31
  -1   3  -9    0.07    0.44
  -1   3  -9    0.66    0.39
   1   3   9    0.42    0.38
  -1   3  -9    0.57    0.25
  -2  -3  -9    0.26    0.39
   2  -3   9   -0.51    0.51
  -2  -3  -9   -0.59    0.43
   2  -3   9    1.27    0.54
   2  -3   9   -0.28    0.38
   2   3   9    0.57    0.39
  -2   3  -9   -0.08    0.45
  -2   3  -9    1.16    0.42
   2   3   9    0.75    0.37
  -2   3  -9    0.89    0.46
   2   3   9    0.69    0.36
   3  -3   9    2.62    0.70
  -3  -3  -9    2.56    0.50
   3  -3   9    2.27    0.47
  -3  -3  -9    2.55    0.58
   3   3   9    3.08    0.47
  -3   3  -9    2.65    0.60
   3   3   9    3.24    0.53
  -3   3  -9    3.50    0.66
  -4  -3  -9    0.33    0.43
   4   3   9    1.18    0.40
  -4   3  -9    0.35    0.50
   4   3   9    1.37    0.46
  -5  -3  -9    3.27    0.67
   5  -3   9    4.08    0.67
  -5  -3  -9    4.09    0.63
   5  -3   9    4.04    0.78
  -5   3  -9    4.95    0.82
   6   3   9    1.74    0.47
  -6   3  -9    0.60    0.56
   6   3   9    1.51    0.46
  -6   3  -9    2.28    0.77
  -7  -4   9   -0.33    0.61
   7  -4  -9    0.05    0.44
  -7   4   9    2.04    0.82
   7   4  -9    0.25    0.57
   7   4  -9    1.22    0.49
  -6  -4   9    1.11    0.66
   6  -4  -9    1.14    0.49
   6  -4  -9    2.52    0.46
   6   4  -9    2.48    0.68
  -6   4   9    1.71    0.55
   6   4  -9    2.10    0.54
   5  -4  -9    0.75    0.40
   5  -4  -9    0.61    0.33
  -5  -4   9    0.53    0.58
  -5  -4   9   -0.38    0.60
  -5  -4   9    0.79    0.62
   5  -4  -9   -0.14    0.41
  -5   4   9    1.21    0.50
   5   4  -9    1.04    0.46
   5   4  -9    1.67    0.58
   4  -4  -9    2.78    0.49
  -4  -4   9    1.92    0.65
   4  -4  -9    3.14    0.41
  -4  -4   9    3.72    0.72
  -4  -4   9    1.87    0.59
   4  -4  -9    2.41    0.53
  -4   4   9    3.39    0.54
   4   4  -9    3.26    0.62
   4   4  -9    3.33    0.57
  -4   4   9    1.88    0.46
   4   4  -9    2.29    0.63
   3  -4  -9    0.42    0.45
  -3  -4   9    1.91    0.58
   3  -4  -9    0.60    0.43
   3  -4  -9    1.19    0.29
  -3  -4   9    0.34    0.61
  -3   4   9    0.94    0.42
  -3   4   9    0.50    0.39
   3   4  -9    1.79    0.49
   3   4  -9    0.85    0.48
   3   4  -9    2.14    0.60
   2  -4  -9    2.64    0.38
  -2  -4   9    3.42    0.68
  -2   4   9    2.08    0.52
   2   4  -9    2.76    0.55
  -2   4   9    3.28    0.67
   2   4  -9    2.22    0.58
   1  -4  -9    0.40    0.34
   1  -4  -9    0.18    0.47
  -1  -4   9    0.99    0.53
  -1   4   9    1.37    0.44
   1   4  -9    0.91    0.51
  -1   4   9    1.21    0.44
   1   4  -9    1.70    0.57
   1   4  -9    1.28    0.37
  -1   4   9    0.85    0.41
   0  -4  -9    2.31    0.45
   0  -4  -9    2.56    0.46
   0  -4   9    2.95    0.60
   0  -4   9    1.70    0.61
   0  -4  -9    1.66    0.49
   0   4  -9    3.40    0.48
   0   4  -9    3.56    0.61
   0   4   9    3.07    0.52
   0   4   9    3.36    0.55
   0   4  -9    3.16    0.64
   0   4   9    2.01    0.45
  -1  -4  -9    1.55    0.41
   1  -4   9    0.31    0.56
  -1  -4  -9    0.61    0.52
  -1  -4  -9    1.30    0.39
   1  -4   9    2.01    0.56
   1   4   9    2.09    0.53
  -1   4  -9    1.82    0.57
  -1   4  -9    3.10    0.66
   1   4   9    1.29    0.41
  -2  -4  -9   -0.04    0.37
   2  -4   9    1.03    0.52
  -2  -4  -9    0.24    0.31
   2  -4   9   -0.73    0.38
   2   4   9    0.66    0.43
  -2   4  -9    0.09    0.53
  -2   4  -9    0.95    0.55
   2   4   9    0.12    0.37
  -2   4  -9   -0.48    0.44
   3  -4   9   -0.72    0.68
   3  -4   9    1.07    0.54
  -3  -4  -9   -0.30    0.40
  -3   4  -9    0.31    0.51
   3   4   9    0.20    0.39
   3   4   9    0.64    0.43
  -3   4  -9   -0.03    0.53
   4  -4   9    4.38    0.66
   4  -4   9    4.83    1.00
  -4  -4  -9    3.38    0.63
   4   4   9    4.65    0.60
  -4   4  -9    6.35    0.81
  -4   4  -9    4.40    0.73
   4   4   9    5.88    0.63
   5   4   9    4.06    0.67
   6  -5  -9    0.15    0.37
  -6  -5   9   -0.18    0.66
  -6   5   9    1.89    0.75
  -6   5   9    0.99    0.57
   6   5  -9    0.81    0.65
   6   5  -9    1.45    0.56
  -5  -5   9    0.97    0.63
   5  -5  -9    0.23    0.38
   5   5  -9    0.62    0.61
   5   5  -9    0.65    0.47
  -5   5   9    0.62    0.55
  -5   5   9    1.40    0.64
  -4  -5   9    0.63    0.60
   4  -5  -9    0.46    0.36
  -4   5   9    0.47    0.45
   4   5  -9    1.11    0.51
   4   5  -9    0.71    0.55
  -4   5   9    1.77    0.59
  -4   5   9   -0.50    0.46
  -3  -5   9    1.54    0.60
  -3  -5   9   -0.66    0.62
   3  -5  -9    0.58    0.29
  -3   5   9    0.89    0.50
  -3   5   9    0.54    0.44
   3   5  -9    0.98    0.45
   3   5  -9    0.30    0.52
   3   5  -9   -0.41    0.46
  -3   5   9   -0.40    0.39
   2  -5  -9    0.26    0.46
  -2  -5   9    0.91    0.57
   2   5  -9    0.94    0.53
   2   5  -9    1.51    0.58
  -2   5   9    1.17    0.48
  -2   5   9    0.50    0.42
   2   5  -9    1.58    0.43
  -1  -5   9    0.56    0.54
   1   5  -9    1.49    0.41
  -1   5   9    1.00    0.48
   1   5  -9    1.25    0.61
  -1   5   9    1.00    0.47
   1   5  -9    0.14    0.48
   0  -5   9    1.75    0.64
   0  -5   9    0.08    0.64
   0  -5  -9    1.49    0.47
   0   5   9    1.70    0.51
   0   5  -9    2.02    0.61
   0   5  -9    1.50    0.62
   0   5   9    1.28    0.50
   1  -5   9    1.07    0.62
  -1  -5  -9   -0.51    0.40
  -1  -5  -9    0.36    0.42
   1   5   9    1.08    0.50
  -1   5  -9    0.42    0.54
   1   5   9    0.05    0.41
  -1   5  -9    1.04    0.59
  -2  -5  -9    3.41    0.59
   2  -5   9    1.55    0.80
   2  -5   9    3.21    0.67
   2   5   9    3.27    0.63
   2   5   9    2.43    0.57
  -2   5  -9    3.56    0.66
  -2   5  -9    2.17    0.66
  -2   5  -9    3.07    0.72
   3  -5   9   -0.29    0.70
  -3   5  -9    0.79    0.65
   3   5   9    0.99    0.50
  -3   5  -9    0.60    0.65
   3   5   9    1.20    0.47
   4   5   9    1.98    0.50
   4   5   9    1.47    0.50
  -4   5  -9    1.25    0.64
  -4   5  -9    0.37    0.65
   4  -6  -9    0.57    0.42
  -4  -6   9    1.01    0.69
   4   6  -9    0.74    0.63
  -4   6   9    0.95    0.58
   4   6  -9    1.41    0.56
  -3  -6   9    2.76    0.72
   3  -6  -9    3.80    0.56
   3   6  -9    2.62    0.78
   3   6  -9    3.62    0.62
  -3   6   9    1.77    0.56
   2  -6  -9    3.82    0.69
  -2  -6   9    2.81    0.71
  -2   6   9    3.92    0.65
   2   6  -9    3.26    0.76
  -2   6   9    2.83    0.63
   2   6  -9    4.18    0.74
   1  -6  -9   -0.35    0.48
  -1  -6   9    0.03    0.54
   1   6  -9    0.74    0.64
  -1   6   9   -0.02    0.45
  -1   6   9    0.88    0.53
   1   6  -9   -0.17    0.50
   0  -6  -9   -0.12    0.44
   0  -6   9    0.41    0.56
   0   6  -9    1.41    0.66
   0   6   9    1.14    0.51
   0   6  -9    0.43    0.54
   0   6   9    0.40    0.51
   1  -6   9    2.57    0.69
  -1  -6  -9    2.84    0.62
   1   6   9    1.81    0.55
   1   6   9    3.37    0.63
  -1   6  -9    2.90    0.71
  -1   6  -9    3.83    0.80
   2  -6   9    2.56    0.71
  -2   6  -9    1.63    0.66
   2   6   9    1.41    0.52
  -2   6  -9    1.80    0.61
  -2   6  -9    0.43    0.70
   2   6   9    1.20    0.54
   8   0 -10    3.27    0.59
   8   0 -10    2.43    0.47
   7   0 -10    5.11    0.63
  -7   0  10    4.00    0.71
  -7   0  10    6.66    0.82
   7   0 -10    4.80    0.51
   6   0 -10    0.81    0.38
  -6   0  10    1.46    0.59
   6   0 -10    0.65    0.30
  -5   0  10    2.10    0.57
  -5   0  10    2.89    0.60
   5   0 -10    3.72    0.51
   5   0 -10    3.01    0.41
   4   0 -10    1.37    0.36
   4   0 -10    0.85    0.26
  -4   0  10    0.08    0.47
  -4   0  10    0.88    0.49
   3   0 -10   22.84    1.14
   3   0 -10   21.02    1.11
  -3   0  10   20.13    1.16
  -3   0  10   21.87    1.31
  -2   0  10    1.93    0.55
   2   0 -10    2.35    0.43
   2   0 -10    3.57    0.48
  -2   0  10    2.79    0.45
  -1   0  10    4.49    0.72
  -1   0  10    5.40    0.50
   1   0 -10    5.35    0.54
   1   0 -10    4.79    0.48
  -1   0  10    3.69    0.54
   0   0 -10    1.25    0.38
   0   0  10    1.10    0.36
   0   0 -10    0.80    0.33
   0   0  10    0.18    0.47
   1   0  10   10.24    0.70
   1   0  10    8.58    0.90
  -1   0 -10   12.48    0.80
  -1   0 -10    9.80    0.66
  -2   0 -10   20.56    1.06
   2   0  10   18.27    1.02
  -2   0 -10   18.69    0.97
   2   0  10   18.28    1.11
  -3   0 -10    0.70    0.33
   3   0  10    0.99    0.41
   3   0  10   -0.22    0.50
  -4   0 -10    4.66    0.68
  -4   0 -10    7.18    1.06
   5   0  10    3.93    0.64
   5   0  10    5.89    0.63
   6   0  10    9.57    0.82
  -6   0 -10   12.32    0.87
   8  -1 -10    7.02    0.69
   8  -1 -10    5.48    0.58
   8   1 -10    6.93    0.66
  -8   1  10    5.77    0.74
   8   1 -10    7.40    0.79
   7  -1 -10    3.88    0.61
   7   1 -10    2.65    0.49
   7   1 -10    3.34    0.66
  -7   1  10    4.53    0.80
  -6  -1  10   -0.43    0.50
   6  -1 -10    0.20    0.28
  -6  -1  10    1.80    0.57
   6   1 -10    1.03    0.42
  -6   1  10    0.33    0.42
   6   1 -10    0.69    0.28
  -5  -1  10    4.60    0.69
  -5  -1  10    3.05    0.62
   5  -1 -10    3.50    0.47
   5  -1 -10    5.09    0.59
   5   1 -10    5.15    0.66
   5   1 -10    4.40    0.62
  -5   1  10    3.37    0.62
  -5   1  10    5.30    0.85
   5   1 -10    4.05    0.50
   4  -1 -10    2.97    0.43
  -4  -1  10    3.17    0.64
  -4  -1  10    3.38    0.69
   4  -1 -10    4.03    0.50
   4   1 -10    4.88    0.63
  -4   1  10    5.16    0.81
   4   1 -10    4.64    0.56
  -4   1  10    3.73    0.56
   3  -1 -10    3.82    0.43
   3  -1 -10    5.25    0.53
  -3  -1  10    3.89    0.72
  -3  -1  10    3.22    0.62
   3   1 -10    6.14    0.64
  -3   1  10    5.17    0.80
   3   1 -10    5.29    0.54
  -3   1  10    3.84    0.57
  -3   1  10    5.45    0.55
   2  -1 -10    9.00    0.67
  -2  -1  10    9.28    0.89
  -2  -1  10    7.42    0.80
   2  -1 -10   11.73    0.72
   2   1 -10   10.53    0.78
  -2   1  10    9.48    0.83
  -2   1  10   10.49    0.72
   2   1 -10    9.73    0.68
   1  -1 -10    0.10    0.33
  -1  -1  10    0.34    0.31
  -1  -1  10   -0.60    0.37
   1  -1 -10    0.96    0.36
  -1  -1  10   -0.22    0.51
   1   1 -10    0.33    0.27
   1   1 -10    0.11    0.33
  -1   1  10    0.02    0.42
  -1   1  10    0.59    0.37
   1   1 -10    1.00    0.38
   0  -1  10    0.97    0.45
   0  -1 -10    1.09    0.36
   0  -1  10    0.52    0.53
   0  -1  10    1.73    0.40
   0  -1 -10    2.79    0.51
   0   1 -10    1.43    0.41
   0   1 -10    2.16    0.41
   0   1  10    1.92    0.42
   0   1 -10    1.69    0.43
   0   1  10    0.70    0.46
   1  -1  10    7.02    0.62
   1  -1  10    5.64    0.75
   1  -1  10    5.80    0.64
  -1  -1 -10    6.76    0.58
  -1  -1 -10    8.02    0.61
   1   1  10    5.77    0.70
  -1   1 -10    6.93    0.68
  -1   1 -10    8.06    0.57
  -1   1 -10    8.28    0.66
   1   1  10    7.55    0.62
   2  -1  10    4.66    0.74
  -2  -1 -10    7.38    0.61
  -2  -1 -10    5.72    0.56
   2  -1  10    5.97    0.58
  -2   1 -10    6.92    0.53
   2   1  10    5.42    0.74
  -2   1 -10    7.75    0.74
  -2   1 -10    7.80    0.66
   2   1  10    6.88    0.60
  -3  -1 -10   13.05    0.83
   3  -1  10   10.14    0.98
   3  -1  10   12.16    0.83
  -3  -1 -10   10.71    0.78
  -3   1 -10   14.15    0.91
   3   1  10   11.79    0.80
   3   1  10   11.18    0.90
  -4  -1 -10   12.74    0.83
   4  -1  10   10.31    0.78
   4   1  10    9.08    0.86
  -4   1 -10   13.13    0.85
   4   1  10   11.00    0.84
  -5  -1 -10    1.46    0.47
   5  -1  10    0.61    0.49
   5   1  10    1.13    0.49
  -7  -2  10    4.43    0.81
   7   2 -10    3.96    0.71
   7   2 -10    2.71    0.44
  -7   2  10    4.71    0.84
  -6  -2  10   11.72    0.92
   6  -2 -10   12.61    0.84
   6  -2 -10    9.82    0.72
  -6   2  10   10.42    0.78
   6   2 -10   11.75    0.86
  -6   2  10   12.81    1.04
   6   2 -10   10.21    0.88
   5  -2 -10    1.00    0.36
  -5  -2  10    0.67    0.48
   5   2 -10    1.01    0.42
  -5   2  10    0.85    0.46
  -5   2  10    1.55    0.59
   5   2 -10    1.26    0.49
  -4  -2  10    3.39    0.62
   4  -2 -10    2.94    0.45
   4  -2 -10    3.49    0.50
  -4  -2  10    3.23    0.64
  -4  -2  10    2.28    0.60
  -4   2  10    4.39    0.72
   4   2 -10    2.37    0.53
  -4   2  10    3.54    0.48
  -3  -2  10   -0.09    0.52
  -3  -2  10    1.43    0.50
   3  -2 -10    0.71    0.39
   3   2 -10    1.26    0.40
  -3   2  10    1.01    0.49
  -3   2  10    1.17    0.41
   3   2 -10    1.34    0.52
  -2  -2  10    1.46    0.57
  -2  -2  10    1.71    0.60
   2  -2 -10    1.67    0.41
   2  -2 -10    1.57    0.33
   2   2 -10    1.67    0.47
  -2   2  10    2.19    0.52
   1  -2 -10    0.92    0.34
   1  -2 -10   -0.15    0.33
  -1  -2  10   -0.46    0.42
  -1  -2  10   -0.65    0.53
   1   2 -10    0.88    0.41
  -1   2  10    0.19    0.42
   1   2 -10   -0.08    0.38
  -1   2  10    0.55    0.39
   0  -2  10    0.05    0.32
   0  -2 -10    0.54    0.32
   0  -2  10   -0.67    0.44
   0  -2 -10   -0.26    0.34
   0   2 -10    0.76    0.31
   0   2 -10    0.22    0.39
   0   2  10    0.43    0.37
   0   2  10    0.11    0.41
   0   2 -10    0.87    0.42
  -1  -2 -10    1.70    0.42
   1  -2  10    1.09    0.37
   1  -2  10    0.19    0.55
  -1  -2 -10    0.33    0.38
   1  -2  10    0.98    0.45
   1   2  10    1.21    0.48
   1   2  10    1.24    0.43
  -1   2 -10    1.24    0.46
  -2  -2 -10    7.75    0.68
   2  -2  10    7.27    0.61
   2  -2  10    7.19    0.75
  -2  -2 -10    5.51    0.64
  -2   2 -10    7.20    0.74
  -2   2 -10    8.16    0.71
   2   2  10    7.17    0.68
   2   2  10    8.01    0.67
  -3  -2 -10    6.99    0.64
   3  -2  10    5.13    0.61
   3  -2  10    8.07    0.79
  -3   2 -10    8.26    0.80
   3   2  10    6.07    0.71
   3   2  10    7.42    0.67
   4  -2  10    3.05    0.68
   4  -2  10    3.31    0.56
  -4  -2 -10    3.12    0.59
  -5  -2 -10   19.08    1.14
   5  -2  10   16.24    1.10
  -5   2 -10   21.29    1.17
   5   2  10   16.66    1.08
  -7  -3  10    0.11    0.66
   7  -3 -10    1.57    0.44
  -7  -3  10    0.26    0.67
   7   3 -10    1.85    0.68
  -6  -3  10    0.16    0.62
  -6  -3  10    1.62    0.57
   6   3 -10    1.51    0.50
   6   3 -10    1.35    0.56
  -5  -3  10   21.22    1.41
   5  -3 -10   22.28    1.17
  -5  -3  10   22.70    1.35
   5  -3 -10   22.98    1.21
  -5  -3  10   23.63    1.36
   5   3 -10   21.90    1.32
   5   3 -10   22.57    1.28
  -5   3  10   27.01    1.45
  -5   3  10   21.01    1.20
   4  -3 -10    0.59    0.36
   4  -3 -10   -0.47    0.33
  -4  -3  10   -0.15    0.49
  -4  -3  10    0.86    0.56
  -4  -3  10   -0.60    0.56
   4   3 -10    1.20    0.55
   4   3 -10   -0.11    0.47
  -4   3  10    0.91    0.43
   3  -3 -10    0.45    0.42
  -3  -3  10    1.03    0.50
  -3  -3  10   -0.91    0.59
  -3  -3  10   -0.41    0.53
   3  -3 -10   -0.30    0.32
  -3   3  10    0.96    0.43
  -3   3  10    1.07    0.50
   3   3 -10    0.00    0.40
   3   3 -10    0.97    0.48
   2  -3 -10   -0.17    0.38
  -2  -3  10    1.72    0.53
  -2  -3  10   -0.13    0.52
  -2   3  10    0.62    0.42
   2   3 -10    0.01    0.43
   2   3 -10    0.85    0.54
   2   3 -10    0.83    0.42
  -2   3  10    0.78    0.44
   1  -3 -10    1.50    0.37
  -1  -3  10    0.21    0.55
  -1   3  10    1.23    0.45
   1   3 -10    1.76    0.44
   1   3 -10    0.42    0.47
  -1   3  10    0.95    0.44
   1   3 -10    1.62    0.57
   0  -3 -10   -0.22    0.44
   0  -3 -10    1.19    0.38
   0  -3  10    0.25    0.56
   0   3  10    0.73    0.46
   0   3 -10    1.55    0.52
   0   3  10    0.85    0.42
   0   3 -10    0.57    0.47
   0   3 -10    1.39    0.38
  -1  -3 -10    0.02    0.42
  -1  -3 -10    0.88    0.38
   1  -3  10    0.14    0.34
   1  -3  10    0.13    0.55
   1   3  10    0.85    0.39
   1   3  10    1.23    0.45
  -1   3 -10    0.76    0.55
  -1   3 -10    1.62    0.57
   2  -3  10    0.64    0.57
  -2  -3 -10    0.46    0.36
  -2   3 -10    1.82    0.56
   2   3  10    0.66    0.40
   2   3  10    0.72    0.43
  -2   3 -10    0.46    0.50
   3  -3  10    1.92    0.54
  -3  -3 -10    2.96    0.56
   3  -3  10    1.02    0.76
   3   3  10    3.75    0.59
  -3   3 -10    1.94    0.58
  -3   3 -10    4.00    0.73
  -4  -3 -10   22.84    1.38
   4  -3  10   24.59    1.58
   4  -3  10   26.02    1.37
  -4  -3 -10   26.83    1.40
   4  -3  10   27.68    1.41
  -4   3 -10   28.59    1.41
   4   3  10   28.07    1.44
  -4   3 -10   27.01    1.51
  -4   3 -10   22.19    1.43
  -5   3 -10   -0.06    0.61
   5   3  10    1.61    0.54
  -6  -4  10    4.34    0.83
   6  -4 -10    4.59    0.69
   6  -4 -10    5.86    0.67
   6   4 -10    5.98    0.90
   6   4 -10    6.34    0.82
  -6   4  10    4.88    0.67
  -5  -4  10    3.08    0.73
  -5  -4  10    2.48    0.77
   5  -4 -10    4.10    0.64
   5   4 -10    5.69    0.77
   5   4 -10    4.60    0.73
  -5   4  10    4.44    0.70
  -4  -4  10    4.68    0.82
  -4  -4  10    7.00    0.89
  -4  -4  10    4.85    0.78
   4  -4 -10    5.88    0.72
   4   4 -10    4.31    0.80
   4   4 -10    7.56    0.87
  -4   4  10    6.35    0.73
   4   4 -10    7.11    0.72
  -3  -4  10    4.47    0.79
   3   4 -10    1.81    0.63
   3   4 -10    2.59    0.64
   3   4 -10    3.63    0.57
  -3   4  10    3.07    0.57
  -2  -4  10   -0.13    0.62
   2   4 -10    0.26    0.51
  -2   4  10    1.16    0.52
  -2   4  10    1.55    0.48
   2   4 -10    1.21    0.54
   2   4 -10    2.55    0.50
   1  -4 -10   -0.58    0.36
  -1  -4  10   -0.16    0.53
  -1   4  10    0.52    0.44
   1   4 -10   -0.36    0.50
   1   4 -10    0.97    0.60
  -1   4  10   -0.12    0.49
   0  -4  10    0.01    0.54
   0  -4 -10   -0.69    0.42
   0  -4 -10   -0.48    0.34
   0   4  10    0.68    0.38
   0   4  10    1.13    0.52
   0   4 -10    0.97    0.55
   0   4 -10    0.07    0.50
   0   4  10   -0.15    0.36
   1  -4  10    1.04    0.64
  -1  -4 -10    1.36    0.43
  -1   4 -10    1.25    0.66
  -1   4 -10    2.02    0.61
   1   4  10    1.76    0.52
   1   4  10    0.89    0.43
   2  -4  10    2.54    0.66
  -2  -4 -10    2.09    0.51
   2   4  10    3.21    0.58
  -2   4 -10    2.81    0.71
   2   4  10    1.94    0.52
   3  -4  10    0.74    0.75
  -3  -4 -10    1.80    0.54
   3   4  10    3.69    0.61
  -3   4 -10    1.92    0.69
   3   4  10    2.44    0.52
   4   4  10    1.65    0.51
  -4  -5  10    2.92    0.81
  -4  -5  10    5.11    0.82
   4  -5 -10    3.31    0.67
   4  -5 -10    3.99    0.71
   4   5 -10    3.23    0.76
   4   5 -10    5.90    0.71
   4   5 -10    5.94    0.89
  -4   5  10    5.32    0.69
  -3  -5  10    2.52    0.67
   3  -5 -10    2.77    0.47
   3   5 -10    2.21    0.71
  -3   5  10    1.68    0.53
   3   5 -10    0.65    0.56
   3   5 -10    1.61    0.49
  -2  -5  10    3.71    0.75
   2  -5 -10    3.19    0.59
   2  -5 -10    2.62    0.69
  -2  -5  10    1.60    0.77
   2   5 -10    4.68    0.74
  -2   5  10    2.77    0.55
  -2   5  10    3.84    0.62
   2   5 -10    4.17    0.78
  -1  -5  10   -0.09    0.64
  -1   5  10   -0.08    0.41
   1   5 -10    1.10    0.63
   1   5 -10    1.03    0.49
   1   5 -10   -0.06    0.51
  -1   5  10    0.91    0.50
   0  -5  10    0.50    0.60
   0  -5 -10    0.05    0.45
   0   5 -10    2.15    0.66
   0   5 -10    0.68    0.64
   0   5  10    0.45    0.44
   0   5  10    1.20    0.51
   1  -5  10    3.43    0.72
  -1  -5 -10    3.02    0.55
  -1   5 -10    4.28    0.73
   1   5  10    3.90    0.65
   1   5  10    2.64    0.61
  -1   5 -10    4.35    0.85
   2  -5  10    4.86    0.88
   2   5  10    3.20    0.65
  -2   5 -10    3.79    0.86
   2   5  10    4.17    0.67
   6   0 -11   14.05    0.85
   6   0 -11   16.53    1.07
  -6   0  11   13.99    1.02
  -6   0  11   17.65    1.23
  -5   0  11    9.08    0.99
   5   0 -11    8.09    0.72
   4   0 -11    5.53    0.64
  -4   0  11    3.75    0.76
  -3   0  11    0.88    0.61
   2   0 -11   21.70    1.15
  -2   0  11   20.53    1.29
   2   0 -11   20.40    1.14
  -1   0  11   -0.44    0.59
  -1   0  11    1.20    0.39
   1   0 -11    0.57    0.33
   0   0 -11    0.89    0.36
   0   0  11    0.09    0.60
   0   0  11    1.59    0.40
   1   0  11    1.45    0.46
  -1   0 -11    1.17    0.34
  -2   0 -11   18.17    0.99
   2   0  11   14.97    1.12
  -2   0 -11   20.47    1.13
   2   0  11   16.79    1.01
   3   0  11   12.34    0.92
  -3   0 -11   14.79    0.94
   4   0  11    0.85    0.46
   6  -1 -11    4.11    0.59
  -6  -1  11    3.65    0.75
   6   1 -11    3.73    0.62
   5  -1 -11    8.64    0.75
  -5  -1  11    9.08    0.97
   5  -1 -11    6.70    0.59
   5   1 -11    7.86    0.72
  -5   1  11    6.64    0.75
   4  -1 -11   10.60    0.77
  -4  -1  11   10.18    0.95
  -4   1  11   10.79    0.96
   4   1 -11   10.29    0.81
   4   1 -11   11.08    0.86
  -3  -1  11    9.93    0.99
   3  -1 -11   10.63    0.81
   3   1 -11   12.71    0.84
   3   1 -11   11.65    0.84
  -3   1  11   10.62    0.96
   2   1 -11    3.14    0.49
   2   1 -11    4.54    0.67
  -2   1  11    3.64    0.55
   1  -1 -11    1.79    0.44
  -1  -1  11    0.70    0.65
  -1   1  11    1.50    0.61
   0  -1  11    1.11    0.36
   0  -1 -11    0.47    0.34
   0   1 -11    1.93    0.50
   0   1 -11    1.05    0.32
   0   1  11    1.26    0.46
   0   1  11    0.70    0.56
   1  -1  11    4.56    0.55
  -1  -1 -11    5.88    0.61
  -1   1 -11    5.80    0.55
  -1   1 -11    6.39    0.67
   1   1  11    4.58    0.58
   2  -1  11    3.54    0.76
  -2  -1 -11    4.28    0.57
   2  -1  11    5.13    0.57
   2   1  11    3.66    0.75
  -3  -1 -11    1.82    0.43
   3  -1  11    0.93    0.60
   3  -1  11    2.76    0.54
   3   1  11    1.96    0.60
   4  -1  11    9.82    0.84
  -4  -1 -11   13.48    0.96
  -4   1 -11   15.35    1.34
  -4   1 -11   12.58    0.91
   4   1  11   11.22    0.92
   6  -2 -11   11.29    0.82
   6  -2 -11   12.37    0.87
   6   2 -11   13.00    0.93
   5  -2 -11   30.94    1.52
   5  -2 -11   35.06    1.65
  -5  -2  11   30.02    1.74
  -5  -2  11   33.99    1.73
   5   2 -11   31.44    1.65
   5   2 -11   31.97    1.69
  -5   2  11   36.39    1.82
   4  -2 -11    4.43    0.63
  -4  -2  11    2.83    0.73
   4   2 -11    4.78    0.77
   4   2 -11    4.66    0.62
   3  -2 -11    3.31    0.55
   3   2 -11    5.42    0.69
  -3   2  11    4.50    0.62
  -3   2  11    5.41    0.79
   3   2 -11    4.94    0.60
  -2  -2  11    0.18    0.73
   2  -2 -11    1.60    0.43
   2   2 -11    0.87    0.72
  -2   2  11    3.31    0.59
  -2   2  11    2.28    0.57
   1  -2 -11    0.11    0.36
   1   2 -11    0.26    0.45
  -1   2  11    1.20    0.45
  -1   2  11    0.79    0.48
   0   2 -11    1.45    0.51
   0   2  11    0.65    0.47
   0   2 -11    0.39    0.44
   0   2  11    1.23    0.45
  -1  -2 -11    1.51    0.44
  -1   2 -11    0.50    0.47
   1   2  11    1.06    0.48
   1   2  11    0.40    0.49
   2  -2  11    4.38    0.56
  -2  -2 -11    6.52    0.69
   2  -2  11    3.15    0.77
   2   2  11    5.24    0.72
  -2   2 -11    5.43    0.81
   2   2  11    4.98    0.63
  -3  -2 -11    7.75    0.73
   3   2  11    8.05    0.81
  -3   2 -11    9.45    0.81
  -3   2 -11    9.29    0.97
   4  -2  11    5.58    0.69
   4   2  11    8.02    0.74
   5  -3 -11    4.26    0.67
  -5  -3  11    3.31    0.74
   5   3 -11    5.28    0.68
   5   3 -11    5.08    0.73
  -4  -3  11   27.25    1.49
   4  -3 -11   24.74    1.27
   4  -3 -11   26.05    1.34
  -4  -3  11   25.71    1.49
  -4  -3  11   22.38    1.45
   4   3 -11   22.01    1.44
   4   3 -11   27.12    1.49
   4   3 -11   27.53    1.44
  -3  -3  11    3.38    0.66
   3   3 -11    3.42    0.56
  -3   3  11    2.18    0.57
  -2   3  11    1.47    0.51
   2   3 -11    2.25    0.61
   2   3 -11    2.75    0.51
  -2   3  11    1.55    0.54
  -1  -3  11   -0.32    0.55
   1   3 -11    1.39    0.56
  -1   3  11    1.23    0.52
  -1   3  11    0.66    0.50
   1   3 -11   -0.03    0.50
   0   3  11    3.02    0.61
   0   3 -11    2.13    0.62
   0   3  11    3.20    0.63
   0   3 -11    4.81    0.77
  -1  -3 -11    4.57    0.59
   1  -3  11    2.26    0.65
   1   3  11    3.47    0.60
   1   3  11    4.47    0.67
  -1   3 -11    3.09    0.77
  -2  -3 -11    0.96    0.41
   2  -3  11    0.47    0.63
   2  -3  11   -0.08    0.45
   2   3  11    1.65    0.50
  -2   3 -11    0.72    0.63
   3  -3  11    0.42    0.51
  -3  -3 -11    1.36    0.51
   3  -3  11    1.89    0.68
   3   3  11    1.56    0.51
  -3   3 -11    1.75    0.70
  -3  -4  11    5.10    0.89
   3   4 -11    5.01    0.77
   3   4 -11    5.54    0.66
  -3   4  11    4.37    0.66
   2   4 -11    4.46    0.81
   2   4 -11    5.85    0.64
   2   4 -11    4.93    0.75
  -2   4  11    4.94    0.67
  -1   4  11    1.72    0.54
   1   4 -11    1.93    0.62
   0  -4  11    0.12    0.69
   0   4  11    1.57    0.54
   0   4 -11    2.73    0.72
   0   4 -11    0.75    0.61
  -1  -4 -11    1.12    0.44
   1  -4  11    0.28    0.63
  -1   4 -11    0.30    0.58
   1   4  11    1.58    0.53
   4   0 -12    5.41    0.69
   3   0 -12    8.38    0.75
  -3   0  12    6.88    1.00
   2   0 -12    5.02    0.56
  -2   0  12    3.34    0.75
   0   0  12    3.32    0.58
   1   0  12    5.85    0.68
  -1   0 -12    4.91    0.59
   2   0  12    2.00    0.54
  -2   0 -12    1.52    0.45
   4  -1 -12    3.15    0.56
  -4   1  12    5.04    0.97
   4   1 -12    4.36    0.76
   4   1 -12    5.15    0.71
   3  -1 -12    1.35    0.42
  -3  -1  12    0.78    0.71
  -3   1  12    1.43    0.59
  -2  -1  12    2.45    0.78
   2  -1 -12    3.74    0.55
  -2   1  12    3.79    0.77
   2   1 -12    5.27    0.59
  -1   1  12    4.45    0.64
   1   1 -12    4.14    0.58
   1   1 -12    6.27    0.77
   0  -1 -12   11.14    0.80
   0   1 -12   10.81    0.84
   0   1 -12   10.21    0.76
   0   1  12    9.37    0.80
   0   1  12    7.60    0.90
   1  -1  12    2.19    0.50
   1   1  12    2.19    0.54
   1   1  12    1.23    0.62
   2  -1  12    0.53    0.48
  -2  -1 -12   -0.10    0.39
   2   1  12   -0.41    0.48
   2   1  12    1.89    0.52
   3  -2 -12    1.04    0.42
  -3  -2  12    0.26    0.67
  -3   2  12    1.75    0.58
  -2   2  12    4.27    0.67
  -2   2  12    2.78    0.69
   1  -2 -12    6.42    1.01
   1   2 -12    5.14    0.64
   1   2 -12    5.58    0.80
  -1   2  12    3.82    0.68
   0  -2 -12    4.40    0.66
   0   2 -12    3.45    0.67
   0   2 -12    4.65    0.60
  -1  -2 -12    4.58    0.61
   1   2  12    4.42    0.61
   1   2  12    3.45    0.66
   0   0   0    0.00    0.00
;
_shelx_hkl_checksum              79667
loop_
_space_group_symop_operation_xyz
'x, y, z'
'-x, y+1/2, -z'
'-x, -y, -z'
'x, -y-1/2, z'
loop_
_atom_site_label
_atom_site_type_symbol
_atom_site_fract_x
_atom_site_fract_y
_atom_site_fract_z
_atom_site_U_iso_or_equiv
_atom_site_adp_type
_atom_site_occupancy
_atom_site_site_symmetry_order
_atom_site_calc_flag
_atom_site_refinement_flags_posn
_atom_site_refinement_flags_adp
_atom_site_refinement_flags_occupancy
_atom_site_disorder_assembly
_atom_site_disorder_group
C1 C 0.8170(3) 0.7500 0.6373(3) 0.0174(6) Uani 1 2 d S T P . .
N1 N 0.9161(3) 0.7500 0.5081(3) 0.0294(7) Uani 1 2 d S T P . .
H1 H 0.978(6) 0.873(7) 0.515(6) 0.035 Uiso 0.5 1 d . U P . .
C2 C 0.7096(3) 0.5601(3) 0.6384(3) 0.0300(5) Uani 1 1 d . . . . .
H2A H 0.7783 0.4354 0.6390 0.036 Uiso 1 1 calc R U . . .
H2B H 0.6309 0.5575 0.5449 0.036 Uiso 1 1 calc R U . . .
C6 C 0.9379(3) 0.7500 0.7826(3) 0.0354(9) Uani 1 2 d S T P . .
H6A H 1.0085 0.6270 0.7840 0.043 Uiso 0.5 1 calc R U P . .
H6B H 1.0085 0.8730 0.7840 0.043 Uiso 0.5 1 calc R U P . .
C3 C 0.6169(3) 0.5609(4) 0.7793(3) 0.0409(7) Uani 1 1 d . . . . .
H3 H 0.5472 0.4352 0.7787 0.049 Uiso 1 1 calc R U . . .
C5 C 0.8452(4) 0.7500 0.9237(3) 0.0551(14) Uani 1 2 d S T P . .
H5 H 0.9251 0.7500 1.0178 0.066 Uiso 1 2 calc R U P . .
C7 C 0.5094(4) 0.7500 0.7764(4) 0.0381(9) Uani 1 2 d S T P . .
H7A H 0.4471 0.7500 0.8660 0.046 Uiso 1 2 calc R U P . .
H7B H 0.4306 0.7500 0.6830 0.046 Uiso 1 2 calc R U P . .
C8 C 0.8244(4) 0.7500 0.3558(3) 0.0404(10) Uani 1 2 d S T P . .
H8A H 0.7416 0.8584 0.3498 0.061 Uiso 0.5 1 calc R U P A -1
H8B H 0.7710 0.6168 0.3366 0.061 Uiso 0.5 1 calc R U P A -1
H8C H 0.8993 0.7748 0.2791 0.061 Uiso 0.5 1 calc R U P A -1
C4 C 0.7388(3) 0.5618(6) 0.9229(3) 0.0666(11) Uani 1 1 d . . . . .
H4A H 0.6796 0.5616 1.0145 0.080 Uiso 1 1 calc R U . . .
H4B H 0.8074 0.4370 0.9256 0.080 Uiso 1 1 calc R U . . .
loop_
_atom_site_aniso_label
_atom_site_aniso_U_11
_atom_site_aniso_U_22
_atom_site_aniso_U_33
_atom_site_aniso_U_23
_atom_site_aniso_U_13
_atom_site_aniso_U_12
C1 0.0145(12) 0.0237(15) 0.0142(12) 0.000 0.0021(10) 0.000
N1 0.0181(12) 0.055(2) 0.0157(12) 0.000 0.0037(9) 0.000
C2 0.0353(12) 0.0141(11) 0.0410(13) -0.0041(9) 0.0058(9) 0.0001(9)
C6 0.0141(13) 0.074(3) 0.0177(15) 0.000 0.0009(11) 0.000
C3 0.0355(12) 0.0409(16) 0.0475(14) 0.0193(12) 0.0097(10) -0.0148(12)
C5 0.0194(15) 0.134(4) 0.0115(14) 0.000 0.0006(12) 0.000
C7 0.0153(14) 0.073(3) 0.0277(16) 0.000 0.0075(12) 0.000
C8 0.0314(17) 0.077(3) 0.0140(14) 0.000 0.0054(12) 0.000
C4 0.0428(14) 0.115(3) 0.0437(15) 0.0525(18) 0.0132(12) 0.0107(18)
loop_
_atom_type_symbol
_atom_type_description
_atom_type_scat_dispersion_real
_atom_type_scat_dispersion_imag
_atom_type_scat_source
C C 0.0033 0.0016 'International Tables Vol C Tables 4.2.6.8 and 6.1.1.4'
H H 0.0000 0.0000 'International Tables Vol C Tables 4.2.6.8 and 6.1.1.4'
N N 0.0061 0.0033 'International Tables Vol C Tables 4.2.6.8 and 6.1.1.4'
loop_
_geom_angle_atom_site_label_1
_geom_angle_atom_site_label_2
_geom_angle_atom_site_label_3
_geom_angle
_geom_angle_site_symmetry_1
_geom_angle_site_symmetry_3
N1 C1 C2 112.21(14) . 4_575
N1 C1 C2 112.21(14) . .
C2 C1 C2 108.8(2) 4_575 .
N1 C1 C6 106.3(2) . .
C2 C1 C6 108.56(15) 4_575 .
C2 C1 C6 108.56(15) . .
C8 N1 C1 115.8(2) . .
C1 C2 C3 110.26(19) . .
C5 C6 C1 110.0(2) . .
C7 C3 C4 109.9(3) . .
C7 C3 C2 109.5(2) . .
C4 C3 C2 109.35(19) . .
C4 C5 C4 108.9(3) 4_575 .
C4 C5 C6 109.87(19) 4_575 .
C4 C5 C6 109.87(19) . .
C3 C7 C3 108.7(2) . 4_575
C5 C4 C3 109.6(2) . .
loop_
_geom_bond_atom_site_label_1
_geom_bond_atom_site_label_2
_geom_bond_distance
_geom_bond_site_symmetry_2
C1 N1 1.476(3) .
C1 C2 1.523(2) 4_575
C1 C2 1.523(2) .
C1 C6 1.533(4) .
N1 C8 1.465(4) .
C2 C3 1.532(3) .
C6 C5 1.532(4) .
C3 C7 1.517(3) .
C3 C4 1.525(4) .
C5 C4 1.508(4) 4_575
C5 C4 1.508(4) .
C7 C3 1.517(3) 4_575
loop_
_geom_torsion_atom_site_label_1
_geom_torsion_atom_site_label_2
_geom_torsion_atom_site_label_3
_geom_torsion_atom_site_label_4
_geom_torsion
_geom_torsion_site_symmetry_1
_geom_torsion_site_symmetry_4
C2 C1 N1 C8 -61.46(16) 4_575 .
C2 C1 N1 C8 61.46(16) . .
C6 C1 N1 C8 180.000(1) . .
N1 C1 C2 C3 176.67(19) . .
C2 C1 C2 C3 -58.5(3) 4_575 .
C6 C1 C2 C3 59.5(2) . .
N1 C1 C6 C5 180.000(1) . .
C2 C1 C6 C5 59.08(14) 4_575 .
C2 C1 C6 C5 -59.08(14) . .
C1 C2 C3 C7 60.3(2) . .
C1 C2 C3 C4 -60.1(3) . .
C1 C6 C5 C4 -59.89(19) . 4_575
C1 C6 C5 C4 59.89(19) . .
C4 C3 C7 C3 59.2(3) . 4_575
C2 C3 C7 C3 -60.8(3) . 4_575
C4 C5 C4 C3 60.6(4) 4_575 .
C6 C5 C4 C3 -59.8(3) . .
C7 C3 C4 C5 -60.5(3) . .
C2 C3 C4 C5 59.7(3) . .
