#------------------------------------------------------------------------------
#$Date: 2016-02-17 15:50:08 +0200 (Wed, 17 Feb 2016) $
#$Revision: 176614 $
#$URL: svn://www.crystallography.net/cod/cif/2/10/74/2107475.cif $
#------------------------------------------------------------------------------
#
# This file is available in the Crystallography Open Database (COD),
# http://www.crystallography.net/. The original data for this entry
# were provided by IUCr Journals, http://journals.iucr.org/.
#
# The file may be used within the scientific community so long as
# proper attribution is given to the journal article from which the
# data were obtained.
#
data_2107475
loop_
_publ_author_name
'Lorenzo, Daniel A.'
'Forrest, Sebastian J. K.'
'Sparkes, Hazel A.'
_publ_section_title
;
 Crystal engineering: co-crystals of cinnamic acid derivatives with a
 pyridyl derivative co-crystallizer
;
_journal_issue                   1
_journal_name_full               'Acta Crystallographica Section B'
_journal_page_first              87
_journal_page_last               95
_journal_paper_doi               10.1107/S2052520615019678
_journal_volume                  72
_journal_year                    2016
_chemical_formula_moiety         'C10 H10 O2, C6 H6 N2 O'
_chemical_formula_sum            'C16 H16 N2 O3'
_chemical_formula_weight         284.31
_chemical_name_systematic
;
 ?
;
_space_group_crystal_system      triclinic
_space_group_IT_number           2
_space_group_name_Hall           '-P 1'
_space_group_name_H-M_alt        'P -1'
_symmetry_space_group_name_Hall  '-P 1'
_symmetry_space_group_name_H-M   'P -1'
_atom_sites_solution_hydrogens   mixed
_atom_sites_solution_primary     iterative
_audit_creation_method
;
Olex2 1.2
(compiled 2015.01.26 svn.r3150 for OlexSys, GUI svn.r4998)
;
_cell_angle_alpha                77.4101(14)
_cell_angle_beta                 87.9565(14)
_cell_angle_gamma                82.6358(14)
_cell_formula_units_Z            2
_cell_length_a                   7.0311(2)
_cell_length_b                   8.6172(2)
_cell_length_c                   11.9490(3)
_cell_measurement_reflns_used    7006
_cell_measurement_temperature    100(2)
_cell_measurement_theta_max      27.90
_cell_measurement_theta_min      2.44
_cell_volume                     700.71(3)
_computing_cell_refinement       'SAINT v8.34A (Bruker, 2013)'
_computing_data_reduction        'SAINT v8.34A (Bruker, 2013)'
_computing_molecular_graphics    'Olex2 (Dolomanov et al., 2009)'
_computing_publication_material  'Olex2 (Dolomanov et al., 2009)'
_computing_structure_refinement  'ShelXL (Sheldrick, 2008)'
_computing_structure_solution
;
Superflip (Palatinus & Chapuis, 2007;Palatinus & van der Lee, 2008;
Palatinus et al., 2012)
;
_diffrn_ambient_temperature      100(2)
_diffrn_measured_fraction_theta_full 0.999
_diffrn_measured_fraction_theta_max 0.998
_diffrn_measurement_device       'Bruker Apex II kappa CCD area detector'
_diffrn_measurement_device_type  'Bruker Apex II kappa CCD area detector'
_diffrn_measurement_method       '\f and \w scans'
_diffrn_radiation_monochromator  graphite
_diffrn_radiation_type           MoK\a
_diffrn_radiation_wavelength     0.71073
_diffrn_reflns_av_R_equivalents  0.0164
_diffrn_reflns_limit_h_max       9
_diffrn_reflns_limit_h_min       -9
_diffrn_reflns_limit_k_max       11
_diffrn_reflns_limit_k_min       -11
_diffrn_reflns_limit_l_max       15
_diffrn_reflns_limit_l_min       -15
_diffrn_reflns_number            12831
_diffrn_reflns_theta_full        26.000
_diffrn_reflns_theta_max         27.904
_diffrn_reflns_theta_min         1.746
_diffrn_standards_number         0
_exptl_absorpt_coefficient_mu    0.094
_exptl_absorpt_correction_T_max  0.7456
_exptl_absorpt_correction_T_min  0.6644
_exptl_absorpt_correction_type   multi-scan
_exptl_absorpt_process_details
;
SADABS-2014/4 (Bruker,2014/4) was used for absorption correction.
wR2(int) was 0.0519 before and 0.0308 after correction.
The Ratio of minimum to maximum transmission is 0.8911.
The \l/2 correction factor is 0.00150.
;
_exptl_crystal_colour            colourless
_exptl_crystal_density_diffrn    1.347
_exptl_crystal_description       block
_exptl_crystal_F_000             300
_exptl_crystal_size_max          0.62
_exptl_crystal_size_mid          0.35
_exptl_crystal_size_min          0.28
_refine_diff_density_max         0.443
_refine_diff_density_min         -0.188
_refine_ls_extinction_method     none
_refine_ls_goodness_of_fit_ref   1.040
_refine_ls_hydrogen_treatment    mixed
_refine_ls_matrix_type           full
_refine_ls_number_parameters     203
_refine_ls_number_reflns         3359
_refine_ls_number_restraints     0
_refine_ls_restrained_S_all      1.040
_refine_ls_R_factor_all          0.0393
_refine_ls_R_factor_gt           0.0351
_refine_ls_shift/su_max          0.001
_refine_ls_shift/su_mean         0.000
_refine_ls_structure_factor_coef Fsqd
_refine_ls_weighting_details
'w=1/[\s^2^(Fo^2^)+(0.0553P)^2^+0.2080P] where P=(Fo^2^+2Fc^2^)/3'
_refine_ls_weighting_scheme      calc
_refine_ls_wR_factor_gt          0.0967
_refine_ls_wR_factor_ref         0.1005
_reflns_number_gt                3003
_reflns_number_total             3359
_reflns_threshold_expression     'I > 2\s(I)'
_cod_data_source_file            bm5077sup1.cif
_cod_data_source_block           2B
_cod_depositor_comments
;Adding full bibliography for 2107471--2107478.cif.

 Adding full bibliography for 2107471--2107478.cif.
;
_cod_database_code               2107475
_cod_database_fobs_code          2107475
_shelx_space_group_comment
;
The symmetry employed for this shelxl refinement is uniquely defined
by the following loop, which should always be used as a source of
symmetry information in preference to the above space-group names.
They are only intended as comments.
;
_shelx_hkl_file
;
  -1   0   0    9.69    0.15
  -1   0   0    9.50    0.15
  -1   0   0    9.91    0.15
  -1   0   0   10.07    0.17
   1   0   0    9.82    0.13
  -2   0   0   16.62    0.27
  -2   0   0   16.56    0.28
  -2   0   0   17.33    0.26
  -2   0   0   17.13    0.30
   2   0   0   17.14    0.23
  -3   0   0   14.55    0.25
  -3   0   0   14.34    0.28
  -3   0   0   14.60    0.31
  -3   0   0   14.67    0.27
   3   0   0   15.11    0.22
  -4   0   0  133.94    1.80
  -4   0   0  131.71    1.72
  -4   0   0  134.67    1.69
  -4   0   0  130.62    1.73
   4   0   0  132.27    1.62
  -5   0   0    2.29    0.11
  -5   0   0    2.27    0.16
  -5   0   0    2.66    0.19
  -5   0   0    2.48    0.14
   5   0   0    2.43    0.09
  -6   0   0    2.91    0.14
  -6   0   0    3.30    0.22
  -6   0   0    3.16    0.21
  -6   0   0    3.18    0.18
   6   0   0    3.04    0.10
  -7   0   0    7.98    0.34
  -7   0   0    7.65    0.33
  -7   0   0    7.55    0.28
  -8   0   0    0.38    0.10
  -8   0   0    0.41    0.13
  -9   0   0    0.18    0.10
  -9   0   0    0.07    0.12
  -9   1   0   10.92    0.39
  -9   1   0    9.97    0.47
  -8   1   0    0.01    0.09
  -8   1   0    0.06    0.09
  -8   1   0   -0.15    0.13
  -7   1   0   13.54    0.43
  -7   1   0   14.06    0.39
  -7   1   0   13.38    0.45
   6  -1   0    2.02    0.09
  -6   1   0    1.91    0.18
  -6   1   0    2.19    0.16
  -6   1   0    2.04    0.11
  -6   1   0    2.11    0.19
   5  -1   0   16.18    0.27
  -5   1   0   15.64    0.41
  -5   1   0   15.24    0.30
  -5   1   0   15.60    0.39
  -5   1   0   15.75    0.36
   4  -1   0   22.68    0.34
  -4   1   0   22.43    0.43
  -4   1   0   22.33    0.37
  -4   1   0   23.07    0.42
  -4   1   0   22.47    0.47
   3  -1   0   70.06    0.87
  -3   1   0   68.56    0.96
  -3   1   0   69.06    0.90
  -3   1   0   69.90    1.00
  -3   1   0   67.47    0.94
   2  -1   0    7.62    0.13
  -2   1   0    7.40    0.14
  -2   1   0    7.58    0.14
  -2   1   0    7.31    0.17
  -2   1   0    7.76    0.19
  -2   1   0    7.27    0.16
  -2   1   0    7.58    0.13
   0  -1   0   44.69    0.56
   0   1   0   45.32    0.60
   0   1   0   45.31    0.56
  -1  -1   0   87.49    1.16
  -1  -1   0   93.29    1.25
   1   1   0   88.81    1.14
  -2  -1   0   -0.02    0.03
  -2  -1   0    0.03    0.03
  -2  -1   0    0.07    0.04
   2   1   0    0.03    0.02
  -3  -1   0    2.12    0.10
  -3  -1   0    2.44    0.12
  -3  -1   0    2.38    0.12
  -3  -1   0    2.88    0.11
   3   1   0    2.25    0.07
  -4  -1   0    0.27    0.08
  -4  -1   0    0.29    0.05
  -4  -1   0    0.25    0.05
  -4  -1   0    0.24    0.07
   4   1   0    0.30    0.04
  -5  -1   0   -0.05    0.05
  -5  -1   0   -0.06    0.04
  -5  -1   0   -0.07    0.05
   5   1   0   -0.03    0.03
  -6  -1   0   23.47    0.55
  -6  -1   0   23.09    0.44
  -6  -1   0   23.00    0.47
   6   1   0   22.84    0.35
  -7  -1   0   10.71    0.29
  -7  -1   0   10.44    0.39
  -7  -1   0   10.19    0.32
  -8  -1   0    0.10    0.10
  -8  -1   0    0.26    0.09
  -9  -1   0    2.87    0.22
  -9  -1   0    2.20    0.26
  -8   2   0    0.07    0.15
  -8   2   0   -0.05    0.09
  -8   2   0    0.01    0.08
  -7   2   0    2.22    0.19
  -7   2   0    2.35    0.23
  -7   2   0    2.35    0.22
   6  -2   0    7.61    0.18
  -6   2   0    7.70    0.32
  -6   2   0    7.93    0.28
  -6   2   0    7.23    0.30
  -6   2   0    7.82    0.26
   5  -2   0    0.74    0.07
  -5   2   0    0.67    0.07
  -5   2   0    0.79    0.12
  -5   2   0    0.74    0.10
  -5   2   0    1.09    0.14
   4  -2   0   28.17    0.42
  -4   2   0   28.37    0.56
  -4   2   0   28.29    0.42
  -4   2   0   28.65    0.50
  -4   2   0   28.77    0.53
  -4   2   0   27.93    0.41
   3  -2   0    2.30    0.09
  -3   2   0    2.17    0.09
  -3   2   0    2.14    0.08
  -3   2   0    2.08    0.13
  -3   2   0    1.99    0.13
  -3   2   0    2.11    0.11
  -3   2   0    2.01    0.08
   2  -2   0  100.91    1.33
  -2   2   0  100.43    1.31
  -2   2   0   99.31    1.30
  -2   2   0  100.56    1.26
   1  -2   0    5.52    0.12
  -1   2   0    5.58    0.11
  -1   2   0    5.65    0.12
  -1   2   0    5.64    0.13
  -1   2   0    5.40    0.13
   0  -2   0   33.03    0.45
   0   2   0   32.83    0.45
   0   2   0   33.51    0.44
   0   2   0   32.49    0.44
  -1  -2   0    2.91    0.08
   1   2   0    3.10    0.08
   1   2   0    2.87    0.08
   1   2   0    3.02    0.09
  -2  -2   0   25.64    0.37
  -2  -2   0   26.99    0.43
  -2  -2   0   25.88    0.37
   2   2   0   24.93    0.37
  -3  -2   0  130.61    1.68
  -3  -2   0  124.83    1.60
  -3  -2   0  127.16    1.64
  -3  -2   0  128.31    1.58
   3   2   0  125.68    1.57
  -4  -2   0    0.97    0.08
  -4  -2   0    1.13    0.11
  -4  -2   0    1.02    0.06
  -4  -2   0    0.96    0.09
   4   2   0    1.01    0.07
  -5  -2   0   11.97    0.28
  -5  -2   0   11.45    0.29
  -5  -2   0   11.62    0.34
   5   2   0   11.15    0.22
  -6  -2   0  141.85    2.01
  -6  -2   0  141.43    1.88
  -6  -2   0  141.30    1.88
   6   2   0  136.65    1.75
  -7  -2   0    7.97    0.27
  -7  -2   0    7.80    0.26
  -7  -2   0    7.61    0.33
  -8  -2   0    7.94    0.37
  -8  -2   0    8.85    0.31
  -9  -2   0    1.36    0.21
  -9  -2   0    1.39    0.17
  -8   3   0    2.15    0.25
  -8   3   0    2.40    0.27
  -8   3   0    2.25    0.21
  -7   3   0    5.26    0.31
  -7   3   0    4.81    0.30
  -7   3   0    4.46    0.25
   6  -3   0    0.82    0.08
  -6   3   0    0.81    0.15
  -6   3   0    0.67    0.11
  -6   3   0    0.76    0.14
   5  -3   0   12.47    0.26
  -5   3   0   12.74    0.37
  -5   3   0   12.57    0.34
  -5   3   0   12.49    0.39
   4  -3   0    6.34    0.17
  -4   3   0    6.47    0.26
  -4   3   0    6.08    0.16
  -4   3   0    6.49    0.17
  -4   3   0    5.99    0.23
  -4   3   0    6.36    0.17
  -4   3   0    6.07    0.22
   3  -3   0    2.58    0.11
  -3   3   0    2.46    0.13
  -3   3   0    2.53    0.11
  -3   3   0    2.73    0.10
  -3   3   0    2.38    0.10
  -3   3   0    2.27    0.14
   2  -3   0   33.50    0.49
  -2   3   0   33.23    0.50
  -2   3   0   33.23    0.53
  -2   3   0   32.83    0.47
  -2   3   0   33.15    0.49
   1  -3   0   29.44    0.43
  -1   3   0   29.09    0.45
  -1   3   0   29.97    0.46
  -1   3   0   29.44    0.42
  -1   3   0   29.27    0.43
   0  -3   0    0.07    0.04
   0   3   0    0.10    0.03
   0   3   0    0.07    0.03
   0   3   0    0.10    0.04
  -1  -3   0    0.61    0.06
   1   3   0    0.53    0.05
   1   3   0    0.60    0.06
   1   3   0    0.53    0.05
  -2  -3   0  230.50    2.91
   2   3   0  236.83    2.98
   2   3   0  226.82    2.99
   2   3   0  224.39    2.86
  -3  -3   0    3.52    0.11
  -3  -3   0    3.62    0.16
  -3  -3   0    3.42    0.11
  -3  -3   0    3.58    0.16
   3   3   0    3.53    0.13
   3   3   0    3.28    0.11
  -4  -3   0    1.69    0.09
  -4  -3   0    1.86    0.15
  -4  -3   0    1.74    0.14
  -4  -3   0    1.68    0.10
   4   3   0    1.68    0.09
  -5  -3   0  103.85    1.52
  -5  -3   0  104.06    1.40
  -5  -3   0  105.08    1.45
   5   3   0  102.53    1.34
  -6  -3   0   28.17    0.55
  -6  -3   0   26.96    0.51
  -6  -3   0   28.99    0.63
   6   3   0   26.89    0.44
  -7  -3   0    9.18    0.30
  -7  -3   0    8.53    0.36
  -7  -3   0    8.44    0.28
   7   3   0    8.27    0.20
  -8  -3   0    0.74    0.16
  -8  -3   0    0.55    0.11
  -8  -3   0    0.76    0.12
  -9  -3   0    1.61    0.23
  -9  -3   0    1.80    0.18
   9   3   0    1.98    0.20
  -8   4   0    0.50    0.19
  -8   4   0    0.62    0.17
  -8   4   0    0.45    0.13
   7  -4   0    1.23    0.11
  -7   4   0    1.35    0.17
  -7   4   0    1.57    0.21
  -7   4   0    1.29    0.19
   6  -4   0   12.27    0.28
  -6   4   0   11.80    0.44
  -6   4   0   12.31    0.37
  -6   4   0   12.44    0.41
   5  -4   0    8.54    0.23
  -5   4   0    8.62    0.23
  -5   4   0    8.65    0.29
  -5   4   0    8.07    0.31
  -5   4   0    8.60    0.34
   4  -4   0   89.34    1.21
  -4   4   0   91.29    1.22
  -4   4   0   90.25    1.21
  -4   4   0   91.54    1.26
  -4   4   0   89.78    1.29
  -4   4   0   88.89    1.32
  -4   4   0   90.59    1.41
   3  -4   0    1.65    0.11
  -3   4   0    1.58    0.13
  -3   4   0    1.55    0.12
  -3   4   0    1.39    0.13
  -3   4   0    1.66    0.09
   2  -4   0    0.24    0.05
  -2   4   0    0.23    0.07
  -2   4   0    0.16    0.04
  -2   4   0    0.10    0.06
  -2   4   0    0.10    0.05
   1  -4   0    0.34    0.06
  -1   4   0    0.30    0.05
  -1   4   0    0.22    0.06
  -1   4   0    0.25    0.05
  -1   4   0    0.31    0.05
   0  -4   0   43.84    0.63
   0   4   0   45.08    0.67
   0   4   0   43.65    0.63
   0   4   0   43.61    0.61
   0   4   0   43.88    0.62
  -1  -4   0   19.09    0.33
   1   4   0   18.77    0.33
   1   4   0   19.42    0.33
   1   4   0   19.05    0.31
  -2  -4   0    1.99    0.10
   2   4   0    1.88    0.10
   2   4   0    1.95    0.08
   2   4   0    1.83    0.10
  -3  -4   0    0.10    0.05
   3   4   0    0.08    0.04
   3   4   0    0.07    0.05
   3   4   0    0.07    0.05
  -4  -4   0    0.50    0.07
  -4  -4   0    0.46    0.10
  -4  -4   0    0.44    0.06
   4   4   0    0.41    0.07
   4   4   0    0.53    0.07
  -5  -4   0    9.04    0.30
  -5  -4   0    9.39    0.32
  -5  -4   0    9.57    0.25
   5   4   0    9.77    0.23
   5   4   0    9.45    0.23
   5   4   0    9.47    0.27
  -6  -4   0    0.03    0.08
  -6  -4   0    0.17    0.09
  -6  -4   0    0.20    0.07
   6   4   0    0.21    0.08
   6   4   0    0.18    0.06
  -7  -4   0    0.72    0.10
  -7  -4   0    0.93    0.15
  -7  -4   0    0.96    0.14
   7   4   0    0.81    0.09
   7   4   0    0.91    0.12
  -8  -4   0    0.28    0.12
  -8  -4   0    0.26    0.09
  -8  -4   0    0.15    0.10
   8   4   0    0.28    0.11
   7  -5   0    1.57    0.14
  -7   5   0    1.33    0.21
  -7   5   0    1.44    0.22
  -7   5   0    1.41    0.18
   6  -5   0    0.44    0.09
  -6   5   0    0.26    0.11
  -6   5   0    0.38    0.14
  -6   5   0    0.19    0.10
   5  -5   0   25.59    0.48
  -5   5   0   26.84    0.48
  -5   5   0   26.62    0.60
  -5   5   0   26.57    0.56
  -5   5   0   25.68    0.65
   4  -5   0    0.01    0.07
  -4   5   0   -0.13    0.06
  -4   5   0    0.07    0.05
  -4   5   0    0.08    0.08
  -4   5   0    0.06    0.08
  -4   5   0    0.04    0.09
   3  -5   0   77.25    1.08
  -3   5   0   77.70    1.10
  -3   5   0   76.61    1.15
  -3   5   0   78.14    1.05
   2  -5   0   25.53    0.45
  -2   5   0   25.14    0.41
  -2   5   0   25.06    0.47
  -2   5   0   25.33    0.44
  -2   5   0   25.69    0.47
   1  -5   0   23.00    0.41
  -1   5   0   22.78    0.41
  -1   5   0   23.37    0.44
  -1   5   0   23.17    0.38
  -1   5   0   22.88    0.42
   0  -5   0   42.99    0.65
   0   5   0   43.30    0.68
   0   5   0   41.89    0.63
   0   5   0   42.67    0.65
   0   5   0   42.85    0.62
  -1  -5   0   34.29    0.54
   1   5   0   34.42    0.58
   1   5   0   33.42    0.54
   1   5   0   33.43    0.52
   1   5   0   33.35    0.50
  -2  -5   0    0.99    0.09
   2   5   0    0.96    0.09
   2   5   0    1.03    0.09
   2   5   0    1.12    0.07
  -3  -5   0    0.87    0.09
   3   5   0    0.87    0.09
   3   5   0    0.84    0.08
   3   5   0    0.83    0.09
  -4  -5   0    2.15    0.12
  -4  -5   0    2.59    0.22
   4   5   0    2.43    0.12
   4   5   0    2.46    0.14
   4   5   0    2.64    0.16
   4   5   0    2.64    0.15
  -5  -5   0    8.28    0.23
  -5  -5   0    8.17    0.31
   5   5   0    7.99    0.23
   5   5   0    7.74    0.22
  -6  -5   0    0.52    0.12
  -6  -5   0    0.44    0.08
   6   5   0    0.49    0.10
   6   5   0    0.33    0.08
  -7  -5   0    0.34    0.08
  -7  -5   0    0.25    0.11
   7   5   0    0.27    0.10
   7   5   0    0.35    0.08
  -8  -5   0   -0.15    0.09
  -8  -5   0    0.01    0.07
  -8  -5   0   -0.04    0.10
   8   5   0    0.08    0.10
   7  -6   0    0.52    0.10
  -7   6   0    0.37    0.15
  -7   6   0    0.38    0.18
  -7   6   0    0.31    0.13
   6  -6   0    1.01    0.12
  -6   6   0    0.87    0.15
  -6   6   0    0.88    0.17
  -6   6   0    1.14    0.19
   5  -6   0    0.12    0.08
  -5   6   0    0.30    0.10
  -5   6   0    0.10    0.12
  -5   6   0    0.13    0.11
   4  -6   0   49.31    0.79
  -4   6   0   47.83    0.87
  -4   6   0   49.17    0.84
  -4   6   0   49.93    0.75
  -4   6   0   49.18    0.80
   3  -6   0   48.53    0.77
  -3   6   0   48.65    0.72
  -3   6   0   48.47    0.82
  -3   6   0   48.09    0.79
  -3   6   0   48.46    0.76
   2  -6   0    0.62    0.09
  -2   6   0    0.70    0.11
  -2   6   0    0.93    0.10
  -2   6   0    0.79    0.08
  -2   6   0    0.95    0.12
   1  -6   0    0.48    0.09
  -1   6   0    0.29    0.07
  -1   6   0    0.29    0.09
  -1   6   0    0.26    0.08
  -1   6   0    0.44    0.07
   0  -6   0   13.38    0.31
   0   6   0   13.64    0.34
   0   6   0   13.71    0.31
   0   6   0   12.96    0.28
   0   6   0   13.11    0.29
  -1  -6   0   13.81    0.32
   1   6   0   14.65    0.35
   1   6   0   14.12    0.32
   1   6   0   14.05    0.30
   1   6   0   13.41    0.28
  -2  -6   0    7.77    0.23
   2   6   0    7.76    0.23
   2   6   0    7.93    0.23
   2   6   0    7.80    0.26
   2   6   0    7.76    0.19
  -3  -6   0    0.65    0.09
   3   6   0    0.47    0.06
   3   6   0    0.41    0.08
   3   6   0    0.23    0.08
   3   6   0    0.46    0.10
  -4  -6   0    4.57    0.18
   4   6   0    4.68    0.20
   4   6   0    4.65    0.21
   4   6   0    4.57    0.19
  -5  -6   0    4.64    0.28
   5   6   0    4.86    0.22
   5   6   0    5.47    0.21
   5   6   0    5.42    0.20
  -6  -6   0    0.19    0.11
   6   6   0    0.39    0.10
   6   6   0    0.23    0.08
  -7  -6   0    0.91    0.12
  -7  -6   0    0.78    0.15
   7   6   0    1.11    0.15
   7   6   0    1.05    0.11
  -8  -6   0    0.92    0.16
   8   6   0    1.55    0.18
   6  -7   0    0.20    0.10
  -6   7   0    0.11    0.11
  -6   7   0    0.26    0.12
  -6   7   0    0.49    0.17
   5  -7   0    1.17    0.14
  -5   7   0    0.96    0.17
  -5   7   0    0.92    0.18
  -5   7   0    1.12    0.15
   4  -7   0   11.98    0.34
  -4   7   0   12.36    0.35
  -4   7   0   12.35    0.37
  -4   7   0   12.37    0.40
   3  -7   0    1.35    0.14
  -3   7   0    1.07    0.15
  -3   7   0    1.11    0.10
  -3   7   0    0.93    0.12
  -3   7   0    0.85    0.12
   2  -7   0    0.40    0.09
  -2   7   0    0.48    0.09
  -2   7   0    0.43    0.07
  -2   7   0    0.48    0.10
  -2   7   0    0.43    0.10
   1  -7   0    2.62    0.16
  -1   7   0    2.53    0.16
  -1   7   0    2.59    0.19
  -1   7   0    2.77    0.14
  -1   7   0    2.30    0.16
   0  -7   0    1.60    0.14
   0   7   0    1.92    0.15
   0   7   0    2.03    0.18
   0   7   0    1.84    0.14
   0   7   0    1.92    0.12
  -1  -7   0   18.60    0.40
   1   7   0   18.17    0.36
   1   7   0   17.52    0.37
   1   7   0   18.08    0.40
   1   7   0   18.57    0.43
  -2  -7   0   57.18    0.88
   2   7   0   56.00    0.91
   2   7   0   56.26    0.81
   2   7   0   55.87    0.87
   2   7   0   56.07    0.86
  -3  -7   0  139.01    1.85
   3   7   0  137.20    1.85
   3   7   0  137.62    1.89
   3   7   0  137.37    1.86
  -4  -7   0    4.25    0.19
   4   7   0    4.17    0.22
   4   7   0    4.00    0.20
   4   7   0    4.12    0.20
  -5  -7   0   12.18    0.44
   5   7   0   12.39    0.36
   5   7   0   13.10    0.34
   5   7   0   12.20    0.34
  -6  -7   0    1.03    0.18
   6   7   0    1.33    0.14
   6   7   0    1.16    0.15
  -7  -7   0    0.05    0.12
   7   7   0    0.12    0.11
   7   7   0    0.10    0.09
   5  -8   0    2.40    0.20
  -5   8   0    3.00    0.28
  -5   8   0    2.68    0.28
  -5   8   0    2.69    0.23
   4  -8   0    0.70    0.13
  -4   8   0    0.73    0.14
  -4   8   0    0.71    0.12
  -4   8   0    0.86    0.17
   3  -8   0    0.09    0.09
  -3   8   0   -0.06    0.08
  -3   8   0    0.15    0.11
  -3   8   0    0.09    0.09
   2  -8   0    4.54    0.22
  -2   8   0    4.47    0.24
  -2   8   0    4.53    0.24
  -2   8   0    4.41    0.18
  -2   8   0    4.89    0.23
   1  -8   0    1.95    0.17
  -1   8   0    1.62    0.13
  -1   8   0    2.05    0.18
  -1   8   0    1.85    0.17
  -1   8   0    1.67    0.15
   0  -8   0   21.92    0.48
   0   8   0   21.66    0.43
   0   8   0   22.43    0.48
   0   8   0   22.24    0.45
   0   8   0   21.88    0.51
  -1  -8   0   36.04    0.66
   1   8   0   36.58    0.63
   1   8   0   35.85    0.61
   1   8   0   37.46    0.67
   1   8   0   37.51    0.71
  -2  -8   0  102.05    1.46
   2   8   0  100.92    1.43
   2   8   0  103.31    1.46
   2   8   0  100.42    1.50
  -3  -8   0   26.21    0.53
   3   8   0   25.93    0.56
   3   8   0   25.14    0.52
   3   8   0   26.36    0.53
  -4  -8   0   21.99    0.56
   4   8   0   21.63    0.49
   4   8   0   22.77    0.51
   4   8   0   22.58    0.49
  -5  -8   0    3.11    0.28
   5   8   0    3.02    0.20
   5   8   0    3.45    0.21
   5   8   0    3.08    0.21
  -6  -8   0    0.33    0.15
   6   8   0    0.21    0.10
   6   8   0    0.30    0.10
  -7  -8   0    2.49    0.27
   7   8   0    3.07    0.24
   7   8   0    2.60    0.20
   4  -9   0    0.83    0.16
  -4   9   0    0.90    0.15
  -4   9   0    0.77    0.15
  -4   9   0    0.81    0.18
   3  -9   0    0.04    0.10
  -3   9   0    0.15    0.12
  -3   9   0    0.24    0.11
   2  -9   0    3.38    0.22
  -2   9   0    2.62    0.20
  -2   9   0    3.39    0.23
  -2   9   0    3.20    0.22
   1  -9   0    5.60    0.26
  -1   9   0    5.86    0.26
  -1   9   0    5.60    0.25
  -1   9   0    5.46    0.21
  -1   9   0    6.10    0.29
   0  -9   0    1.46    0.16
   0   9   0    1.43    0.13
   0   9   0    1.28    0.16
   0   9   0    1.02    0.14
  -1  -9   0    3.89    0.22
   1   9   0    3.67    0.19
   1   9   0    3.31    0.24
   1   9   0    4.27    0.23
  -2  -9   0   -0.02    0.08
   2   9   0   -0.02    0.10
   2   9   0    0.15    0.09
   2   9   0   -0.01    0.07
  -3  -9   0    3.23    0.21
   3   9   0    2.85    0.21
   3   9   0    2.55    0.22
   3   9   0    2.70    0.19
   4   9   0    2.02    0.18
   4   9   0    2.43    0.20
   4   9   0    2.72    0.19
  -5  -9   0    0.29    0.17
   5   9   0    0.36    0.12
   5   9   0    0.40    0.12
   5   9   0    0.46    0.12
  -6  -9   0   -0.02    0.16
   6   9   0    0.20    0.11
   6   9   0    0.29    0.12
   2 -10   0    1.03    0.16
  -2  10   0    1.84    0.20
  -2  10   0    1.28    0.17
  -2  10   0    1.34    0.17
   1 -10   0    5.32    0.28
  -1  10   0    6.18    0.31
  -1  10   0    5.45    0.28
   0 -10   0    0.27    0.12
   0  10   0    0.27    0.12
   0  10   0    0.21    0.11
   0  10   0    0.13    0.08
  -1 -10   0    5.29    0.27
   1  10   0    5.10    0.27
   1  10   0    4.94    0.29
   1  10   0    4.71    0.23
  -2 -10   0    1.80    0.18
   2  10   0    1.51    0.15
   2  10   0    1.41    0.17
   2  10   0    1.37    0.18
  -3 -10   0    2.40    0.21
   3  10   0    2.68    0.22
   3  10   0    2.30    0.21
   3  10   0    2.52    0.20
   4  10   0    3.15    0.24
   4  10   0    2.72    0.21
   4  10   0    2.52    0.22
  -1 -11   0    0.21    0.13
   1  11   0    0.16    0.12
   1  11   0    0.21    0.13
   1  11   0    0.20    0.10
  -2 -11   0    5.10    0.29
   2  11   0    4.31    0.24
   2  11   0    5.12    0.31
   2  11   0    5.02    0.29
   4  10  -1   -0.18    0.10
   4  10  -1   -0.13    0.11
   4  10  -1    0.08    0.11
  -4 -10   1   -0.08    0.16
   3  10  -1    0.38    0.11
   3  10  -1    0.06    0.11
   3  10  -1    0.07    0.12
  -3 -10   1    0.21    0.12
   2  10  -1    2.82    0.24
   2  10  -1    2.76    0.20
   2  10  -1    2.43    0.23
  -2 -10   1    2.76    0.23
   1  10  -1    6.44    0.27
   1  10  -1    6.76    0.33
   1  10  -1    7.10    0.31
  -1 -10   1    6.82    0.31
   0  10  -1    1.96    0.17
   0  10  -1    1.46    0.18
   0  10  -1    1.86    0.19
   0 -10   1    2.06    0.20
  -1  10  -1    1.48    0.18
  -1  10  -1    1.37    0.18
  -1  10  -1    1.57    0.16
   1 -10   1    1.81    0.20
  -2  10  -1    0.37    0.12
   2 -10   1    0.08    0.12
   6   9  -1    1.62    0.19
   6   9  -1    1.48    0.17
  -6  -9   1    1.53    0.24
   5   9  -1    1.16    0.16
   5   9  -1    1.29    0.16
   5   9  -1    1.02    0.15
  -5  -9   1    0.87    0.20
   4   9  -1    0.58    0.13
   4   9  -1    0.42    0.13
   4   9  -1    0.50    0.11
  -4  -9   1    0.19    0.16
   3   9  -1    2.18    0.20
   3   9  -1    2.40    0.19
   3   9  -1    2.86    0.21
  -3  -9   1    2.30    0.19
   2   9  -1    8.06    0.30
   2   9  -1    8.07    0.34
   2   9  -1    8.42    0.29
  -2  -9   1    8.58    0.31
   1   9  -1    2.23    0.17
   1   9  -1    2.04    0.19
   1   9  -1    2.32    0.20
  -1  -9   1    2.21    0.19
   0   9  -1    5.54    0.22
   0   9  -1    4.53    0.27
   0   9  -1    5.56    0.26
   0  -9   1    5.22    0.25
  -1   9  -1    5.10    0.22
  -1   9  -1    5.21    0.26
  -1   9  -1    5.79    0.31
  -1   9  -1    4.75    0.27
   1  -9   1    5.43    0.27
  -2   9  -1    4.72    0.26
  -2   9  -1    4.37    0.26
  -2   9  -1    4.34    0.20
   2  -9   1    4.39    0.25
  -3   9  -1    0.48    0.12
  -3   9  -1    0.45    0.14
   3  -9   1    0.37    0.12
  -4   9  -1   18.29    0.55
  -4   9  -1   18.20    0.49
  -4   9  -1   16.15    0.48
   4  -9   1   17.77    0.49
   7   8  -1    0.03    0.10
   7   8  -1    0.16    0.11
   6   8  -1    0.13    0.10
   6   8  -1    0.04    0.10
  -6  -8   1    0.26    0.15
   5   8  -1    0.19    0.10
   5   8  -1    0.35    0.11
   5   8  -1    0.30    0.10
  -5  -8   1    0.27    0.15
   4   8  -1    6.84    0.30
   4   8  -1    6.53    0.26
   4   8  -1    6.56    0.27
  -4  -8   1    6.65    0.35
   3   8  -1    3.93    0.21
   3   8  -1    4.49    0.22
   3   8  -1    4.21    0.25
  -3  -8   1    3.93    0.20
   2   8  -1   13.18    0.40
   2   8  -1   13.28    0.36
   2   8  -1   13.59    0.35
  -2  -8   1   12.95    0.35
   1   8  -1    1.45    0.17
   1   8  -1    1.71    0.14
   1   8  -1    1.58    0.15
  -1  -8   1    1.38    0.14
   0   8  -1    2.58    0.19
   0   8  -1    2.47    0.16
   0   8  -1    2.28    0.15
   0   8  -1    2.15    0.19
   0  -8   1    2.38    0.18
  -1   8  -1    7.34    0.27
  -1   8  -1    7.51    0.31
  -1   8  -1    7.60    0.27
  -1   8  -1    7.56    0.24
   1  -8   1    7.40    0.27
  -2   8  -1   14.00    0.33
  -2   8  -1   13.29    0.38
  -2   8  -1   13.56    0.37
  -2   8  -1   12.97    0.39
   2  -8   1   13.62    0.37
  -3   8  -1    1.40    0.17
  -3   8  -1    1.82    0.14
  -3   8  -1    1.78    0.17
  -3   8  -1    1.76    0.17
   3  -8   1    1.80    0.18
  -4   8  -1    1.54    0.16
  -4   8  -1    1.34    0.19
  -4   8  -1    1.37    0.17
   4  -8   1    1.68    0.18
  -5   8  -1    0.32    0.17
  -5   8  -1    0.22    0.13
  -5   8  -1    0.33    0.13
   5  -8   1    0.45    0.13
   7   7  -1    3.33    0.19
   7   7  -1    3.28    0.24
  -7  -7   1    3.54    0.29
   6   7  -1    1.62    0.17
   6   7  -1    1.58    0.14
  -6  -7   1    1.41    0.19
   5   7  -1   15.65    0.40
   5   7  -1   15.12    0.40
   5   7  -1   14.81    0.37
  -5  -7   1   15.26    0.49
   4   7  -1    0.31    0.09
   4   7  -1    0.39    0.09
   4   7  -1    0.37    0.11
  -4  -7   1   -0.03    0.12
   3   7  -1    0.98    0.12
   3   7  -1    1.13    0.14
   3   7  -1    1.13    0.12
  -3  -7   1    0.98    0.11
   2   7  -1    1.90    0.17
   2   7  -1    1.90    0.16
   2   7  -1    1.98    0.14
  -2  -7   1    2.01    0.15
   1   7  -1    9.04    0.26
   1   7  -1    9.19    0.23
   1   7  -1    8.48    0.30
   1   7  -1    8.48    0.27
  -1  -7   1    9.06    0.27
   0   7  -1    0.03    0.05
   0   7  -1    0.04    0.09
   0   7  -1    0.05    0.07
   0   7  -1    0.11    0.08
   0  -7   1    0.19    0.08
  -1   7  -1    7.01    0.22
  -1   7  -1    6.91    0.27
  -1   7  -1    7.27    0.25
  -1   7  -1    7.07    0.24
   1  -7   1    6.97    0.24
  -2   7  -1   14.45    0.33
  -2   7  -1   15.05    0.40
  -2   7  -1   15.04    0.36
  -2   7  -1   15.03    0.39
   2  -7   1   15.19    0.37
  -3   7  -1    0.14    0.11
  -3   7  -1    0.10    0.09
  -3   7  -1    0.09    0.06
  -3   7  -1    0.03    0.08
   3  -7   1    0.03    0.08
  -4   7  -1    0.17    0.12
  -4   7  -1    0.11    0.08
  -4   7  -1    0.05    0.06
  -4   7  -1    0.07    0.09
   4  -7   1    0.03    0.08
  -5   7  -1    1.59    0.21
  -5   7  -1    1.56    0.18
  -5   7  -1    1.72    0.21
   5  -7   1    1.86    0.17
  -6   7  -1   20.48    0.55
  -6   7  -1   19.60    0.66
  -6   7  -1   21.60    0.62
   6  -7   1   20.51    0.48
   8   6  -1    0.49    0.13
  -8  -6   1    0.20    0.12
  -8  -6   1    0.24    0.11
   7   6  -1    0.24    0.08
   7   6  -1    0.45    0.12
  -7  -6   1    0.47    0.14
   6   6  -1    2.27    0.18
   6   6  -1    2.19    0.15
  -6  -6   1    2.11    0.21
   5   6  -1    0.99    0.12
   5   6  -1    0.61    0.10
  -5  -6   1    0.48    0.13
   4   6  -1    1.64    0.14
   4   6  -1    1.47    0.12
  -4  -6   1    1.56    0.18
  -4  -6   1    1.61    0.14
   3   6  -1    4.35    0.18
   3   6  -1    3.84    0.18
  -3  -6   1    4.20    0.18
   2   6  -1    5.36    0.15
   2   6  -1    5.31    0.19
   2   6  -1    5.64    0.20
  -2  -6   1    5.41    0.20
   1   6  -1    0.52    0.07
   1   6  -1    0.53    0.08
   1   6  -1    0.60    0.09
  -1  -6   1    0.41    0.08
   0   6  -1    0.16    0.07
   0   6  -1    0.26    0.09
   0   6  -1    0.30    0.07
   0   6  -1    0.18    0.06
   0  -6   1    0.17    0.07
  -1   6  -1    1.46    0.11
  -1   6  -1    1.42    0.13
  -1   6  -1    1.17    0.13
  -1   6  -1    1.20    0.11
   1  -6   1    1.37    0.12
  -2   6  -1    2.94    0.18
  -2   6  -1    3.54    0.20
  -2   6  -1    3.23    0.17
  -2   6  -1    3.13    0.14
   2  -6   1    3.43    0.17
  -3   6  -1    5.31    0.21
  -3   6  -1    5.22    0.25
  -3   6  -1    4.82    0.18
  -3   6  -1    5.23    0.23
   3  -6   1    5.07    0.21
  -4   6  -1   11.79    0.36
  -4   6  -1   11.15    0.29
  -4   6  -1   11.37    0.32
  -4   6  -1   11.64    0.38
   4  -6   1   11.83    0.32
  -5   6  -1    3.53    0.26
  -5   6  -1    3.94    0.28
  -5   6  -1    3.99    0.24
   5  -6   1    4.03    0.20
  -6   6  -1    8.86    0.40
  -6   6  -1    8.38    0.35
  -6   6  -1    7.84    0.40
   6  -6   1    9.13    0.29
   8   5  -1    1.16    0.16
  -8  -5   1    0.87    0.15
  -8  -5   1    1.12    0.14
   7   5  -1    0.23    0.10
   7   5  -1    0.15    0.07
  -7  -5   1    0.07    0.10
  -7  -5   1    0.27    0.09
   6   5  -1    5.49    0.19
   6   5  -1    6.06    0.25
  -6  -5   1    6.12    0.29
  -6  -5   1    5.55    0.22
   5   5  -1    0.33    0.08
   5   5  -1    0.27    0.07
  -5  -5   1    0.31    0.08
  -5  -5   1    0.37    0.11
   4   5  -1    2.53    0.15
   4   5  -1    2.41    0.14
  -4  -5   1    2.38    0.13
  -4  -5   1    2.34    0.20
   3   5  -1    9.99    0.19
   3   5  -1    9.70    0.24
   3   5  -1   10.10    0.26
  -3  -5   1   10.00    0.24
   2   5  -1   41.48    0.64
   2   5  -1   40.67    0.57
   2   5  -1   42.00    0.64
  -2  -5   1   41.66    0.64
   1   5  -1    0.82    0.07
   1   5  -1    0.77    0.09
   1   5  -1    0.78    0.08
  -1  -5   1    0.80    0.08
   0   5  -1  128.31    1.67
   0   5  -1  129.15    1.65
   0   5  -1  126.40    1.63
   0  -5   1  127.86    1.67
  -1   5  -1   53.09    0.76
  -1   5  -1   54.37    0.82
  -1   5  -1   53.34    0.78
  -1   5  -1   51.90    0.78
   1  -5   1   53.04    0.79
  -2   5  -1    0.27    0.08
  -2   5  -1    0.12    0.08
  -2   5  -1    0.20    0.07
  -2   5  -1    0.18    0.05
   2  -5   1    0.08    0.06
  -3   5  -1   -0.04    0.05
  -3   5  -1    0.04    0.06
  -3   5  -1   -0.05    0.08
  -3   5  -1    0.08    0.07
   3  -5   1   -0.08    0.05
  -4   5  -1  104.27    1.45
  -4   5  -1  101.79    1.40
  -4   5  -1  102.94    1.38
  -4   5  -1  100.25    1.49
  -4   5  -1  100.65    1.47
   4  -5   1  102.82    1.40
  -5   5  -1   19.64    0.51
  -5   5  -1   20.57    0.49
  -5   5  -1   19.96    0.41
   5  -5   1   20.02    0.42
  -6   5  -1    2.53    0.24
  -6   5  -1    2.46    0.23
  -6   5  -1    2.23    0.20
   6  -5   1    2.17    0.15
  -7   5  -1    3.53    0.31
  -7   5  -1    4.12    0.32
  -7   5  -1    3.65    0.26
   7  -5   1    3.83    0.19
   8   4  -1    0.23    0.10
  -8  -4   1    0.09    0.11
  -8  -4   1    0.01    0.07
  -8  -4   1   -0.03    0.09
   7   4  -1    8.43    0.30
  -7  -4   1    8.32    0.28
  -7  -4   1    8.40    0.32
  -7  -4   1    8.09    0.36
   6   4  -1    0.67    0.11
   6   4  -1    0.55    0.07
  -6  -4   1    0.74    0.10
  -6  -4   1    0.56    0.13
  -6  -4   1    0.37    0.11
   5   4  -1    1.39    0.10
   5   4  -1    1.22    0.12
  -5  -4   1    1.29    0.14
  -5  -4   1    1.23    0.15
  -5  -4   1    1.10    0.11
   4   4  -1    0.09    0.05
   4   4  -1    0.06    0.06
  -4  -4   1    0.14    0.05
  -4  -4   1    0.14    0.06
  -4  -4   1    0.16    0.09
   3   4  -1  114.94    1.51
   3   4  -1  116.09    1.43
   3   4  -1  113.90    1.48
  -3  -4   1  113.22    1.48
  -3  -4   1  116.22    1.59
   2   4  -1    0.05    0.04
   2   4  -1    0.03    0.04
   2   4  -1    0.01    0.02
  -2  -4   1    0.10    0.04
   1   4  -1   22.73    0.34
   1   4  -1   22.98    0.38
  -1  -4   1   22.51    0.38
   0   4  -1   92.29    1.19
   0   4  -1   94.03    1.21
   0   4  -1   91.98    1.22
   0  -4   1   91.84    1.21
  -1   4  -1  145.68    1.88
  -1   4  -1  150.35    1.88
  -1   4  -1  146.91    1.85
   1  -4   1  148.07    1.88
  -2   4  -1    6.69    0.18
  -2   4  -1    7.00    0.21
  -2   4  -1    6.92    0.21
  -2   4  -1    6.79    0.17
   2  -4   1    7.00    0.19
  -3   4  -1   30.61    0.50
  -3   4  -1   31.18    0.49
  -3   4  -1   30.50    0.51
  -3   4  -1   30.49    0.56
   3  -4   1   30.42    0.50
  -4   4  -1   67.98    0.96
  -4   4  -1   67.11    1.07
  -4   4  -1   68.36    0.97
  -4   4  -1   68.86    1.05
  -4   4  -1   69.59    1.17
  -4   4  -1   70.00    0.97
   4  -4   1   68.35    0.97
  -5   4  -1   17.18    0.43
  -5   4  -1   17.63    0.51
  -5   4  -1   17.71    0.46
  -5   4  -1   18.12    0.37
   5  -4   1   17.56    0.36
  -6   4  -1    0.11    0.12
  -6   4  -1   -0.11    0.07
  -6   4  -1    0.05    0.08
   6  -4   1    0.02    0.06
  -7   4  -1    5.54    0.28
  -7   4  -1    5.45    0.33
  -7   4  -1    5.33    0.34
   7  -4   1    5.33    0.20
  -8   4  -1    5.87    0.38
  -8   4  -1    6.09    0.40
  -8   4  -1    6.52    0.32
   9   3  -1    0.08    0.10
  -9  -3   1   -0.02    0.08
  -9  -3   1   -0.03    0.11
   8   3  -1    8.66    0.31
  -8  -3   1    8.37    0.31
  -8  -3   1    7.07    0.36
  -8  -3   1    7.96    0.30
   7   3  -1    0.67    0.11
  -7  -3   1    0.72    0.11
  -7  -3   1    0.71    0.12
  -7  -3   1    0.72    0.14
   6   3  -1   30.43    0.46
   6   3  -1   30.38    0.57
  -6  -3   1   31.22    0.56
  -6  -3   1   29.84    0.59
  -6  -3   1   30.56    0.67
   5   3  -1    1.92    0.14
   5   3  -1    1.61    0.09
  -5  -3   1    1.51    0.12
  -5  -3   1    1.25    0.12
  -5  -3   1    1.79    0.16
   4   3  -1    2.20    0.10
   4   3  -1    2.07    0.12
  -4  -3   1    2.15    0.16
  -4  -3   1    2.32    0.10
  -4  -3   1    2.17    0.11
  -4  -3   1    2.63    0.16
   3   3  -1   47.45    0.65
   3   3  -1   47.56    0.69
  -3  -3   1   47.59    0.65
  -3  -3   1   47.57    0.68
  -3  -3   1   47.76    0.74
   2   3  -1   50.53    0.71
   2   3  -1   51.44    0.65
   2   3  -1   50.34    0.69
  -2  -3   1   49.79    0.68
   1   3  -1    0.03    0.03
   1   3  -1    0.00    0.02
   1   3  -1    0.02    0.03
  -1  -3   1    0.05    0.03
   0   3  -1   89.62    1.15
   0   3  -1   90.12    1.15
   0   3  -1   89.34    1.13
   0  -3   1   90.06    1.15
  -1   3  -1    9.26    0.20
  -1   3  -1    8.98    0.18
  -1   3  -1    9.18    0.19
   1  -3   1    9.33    0.19
  -2   3  -1    4.80    0.13
  -2   3  -1    4.86    0.17
  -2   3  -1    5.24    0.16
   2  -3   1    4.80    0.14
  -3   3  -1    7.45    0.19
  -3   3  -1    7.36    0.23
  -3   3  -1    7.31    0.18
  -3   3  -1    7.34    0.18
   3  -3   1    7.24    0.18
  -4   3  -1    0.21    0.08
  -4   3  -1    0.26    0.10
  -4   3  -1    0.28    0.08
  -4   3  -1    0.37    0.06
  -4   3  -1    0.41    0.07
  -4   3  -1    0.42    0.07
   4  -3   1    0.35    0.07
  -5   3  -1    0.65    0.12
  -5   3  -1    0.63    0.13
  -5   3  -1    0.63    0.11
  -5   3  -1    0.64    0.09
   5  -3   1    0.64    0.08
  -6   3  -1    2.15    0.21
  -6   3  -1    2.41    0.18
  -6   3  -1    1.97    0.20
   6  -3   1    1.98    0.12
  -7   3  -1    0.04    0.09
  -7   3  -1    0.13    0.10
  -7   3  -1    0.00    0.13
   7  -3   1    0.13    0.06
  -8   3  -1    0.12    0.10
  -8   3  -1   -0.12    0.15
  -8   3  -1   -0.04    0.10
   9   2  -1   10.59    0.36
  -9  -2   1   11.16    0.38
  -9  -2   1    9.59    0.45
  -8  -2   1    0.65    0.11
  -8  -2   1    0.53    0.11
  -8  -2   1    0.69    0.16
  -7  -2   1   28.09    0.56
  -7  -2   1   27.61    0.67
  -7  -2   1   27.87    0.56
   6   2  -1   14.98    0.25
  -6  -2   1   15.75    0.37
  -6  -2   1   14.41    0.43
  -6  -2   1   14.95    0.36
   5   2  -1    0.47    0.05
  -5  -2   1    0.44    0.08
  -5  -2   1    0.46    0.10
  -5  -2   1    0.39    0.08
   4   2  -1   19.02    0.29
  -4  -2   1   20.08    0.43
  -4  -2   1   19.41    0.36
  -4  -2   1   18.86    0.38
   3   2  -1   17.17    0.27
   3   2  -1   17.60    0.31
  -3  -2   1   18.28    0.37
  -3  -2   1   18.02    0.35
  -3  -2   1   17.35    0.31
   2   2  -1  111.24    1.37
   2   2  -1  111.08    1.40
  -2  -2   1  110.33    1.37
  -2  -2   1  107.30    1.44
  -2  -2   1  115.62    1.56
  -2  -2   1  111.05    1.44
   1   2  -1   84.79    1.08
   1   2  -1   85.81    1.07
  -1  -2   1   85.87    1.07
   0   2  -1   13.33    0.22
   0   2  -1   13.51    0.21
   0  -2   1   13.38    0.22
  -1   2  -1    2.79    0.10
  -1   2  -1    2.84    0.08
   1  -2   1    3.03    0.09
  -2   2  -1  124.76    1.61
  -2   2  -1  126.08    1.56
  -2   2  -1  124.14    1.68
   2  -2   1  126.63    1.56
  -3   2  -1   57.36    0.85
  -3   2  -1   57.14    0.79
  -3   2  -1   58.51    0.76
  -3   2  -1   56.86    0.83
  -3   2  -1   57.47    0.77
   3  -2   1   58.49    0.78
  -4   2  -1    3.04    0.11
  -4   2  -1    3.20    0.10
  -4   2  -1    3.00    0.19
  -4   2  -1    3.09    0.18
  -4   2  -1    2.93    0.16
  -4   2  -1    3.47    0.13
   4  -2   1    3.06    0.12
  -5   2  -1    2.04    0.18
  -5   2  -1    2.18    0.17
  -5   2  -1    2.09    0.16
   5  -2   1    2.12    0.11
  -6   2  -1    1.23    0.14
  -6   2  -1    1.15    0.15
  -6   2  -1    1.12    0.16
   6  -2   1    1.34    0.10
  -7   2  -1   34.28    0.79
  -7   2  -1   35.32    0.70
  -7   2  -1   34.30    0.74
   7  -2   1   36.08    0.56
  -8   2  -1    3.19    0.30
  -8   2  -1    3.38    0.23
  -8   2  -1    3.61    0.29
  -9  -1   1    0.72    0.18
  -9  -1   1    0.59    0.13
  -8  -1   1    0.19    0.11
  -8  -1   1    0.35    0.10
  -7  -1   1   21.51    0.46
  -7  -1   1   21.68    0.49
  -7  -1   1   21.30    0.57
  -6  -1   1   13.46    0.33
  -6  -1   1   13.47    0.36
  -6  -1   1   12.96    0.40
  -6  -1   1   13.42    0.34
  -5  -1   1   18.30    0.38
  -5  -1   1   18.01    0.38
  -5  -1   1   18.44    0.45
  -5  -1   1   19.18    0.39
   4   1  -1    0.18    0.03
  -4  -1   1    0.13    0.05
  -4  -1   1    0.10    0.05
  -4  -1   1    0.18    0.06
  -4  -1   1    0.17    0.07
   3   1  -1    0.92    0.04
  -3  -1   1    0.93    0.07
  -3  -1   1    1.05    0.08
  -3  -1   1    0.93    0.08
  -3  -1   1    0.99    0.09
   2   1  -1    0.95    0.04
  -2  -1   1    0.95    0.07
  -2  -1   1    1.11    0.08
   1   1  -1   26.82    0.37
   1   1  -1   27.24    0.36
  -1  -1   1   27.33    0.39
  -1  -1   1   27.61    0.41
  -1  -1   1   27.14    0.37
   0   1  -1   -0.17    0.01
  -1   1  -1   17.03    0.25
  -1   1  -1   17.27    0.27
  -1   1  -1   17.18    0.25
   1  -1   1   17.63    0.25
  -2   1  -1  129.12    1.72
  -2   1  -1  126.25    1.71
  -2   1  -1  128.64    1.63
   2  -1   1  130.12    1.77
  -3   1  -1   50.42    0.66
  -3   1  -1   51.21    0.73
  -3   1  -1   50.34    0.70
  -3   1  -1   51.02    0.68
  -3   1  -1   50.50    0.75
  -3   1  -1   52.13    0.79
   3  -1   1   51.48    0.68
  -4   1  -1   -0.01    0.05
  -4   1  -1    0.04    0.03
  -4   1  -1   -0.05    0.07
  -4   1  -1    0.01    0.02
  -4   1  -1   -0.02    0.04
   4  -1   1    0.02    0.03
  -5   1  -1    1.11    0.14
  -5   1  -1    1.33    0.12
  -5   1  -1    1.35    0.14
  -5   1  -1    1.42    0.08
   5  -1   1    1.45    0.09
  -6   1  -1   20.96    0.47
  -6   1  -1   21.84    0.51
  -6   1  -1   21.33    0.54
   6  -1   1   21.77    0.37
  -7   1  -1    0.01    0.07
  -7   1  -1   -0.03    0.13
  -7   1  -1    0.00    0.07
   7  -1   1    0.00    0.04
  -8   1  -1    2.18    0.20
  -8   1  -1    1.76    0.22
  -9   1  -1    0.10    0.10
  -9   1  -1   -0.06    0.10
  -9   0   1    0.25    0.11
  -9   0   1    0.25    0.13
  -8   0   1    0.10    0.08
  -8   0   1    0.12    0.10
  -7   0   1   15.04    0.36
  -7   0   1   15.21    0.48
  -7   0   1   15.69    0.43
  -7   0   1   15.99    0.41
  -6   0   1   16.73    0.39
  -6   0   1   16.61    0.41
  -6   0   1   16.45    0.36
  -6   0   1   16.57    0.46
  -5   0   1    3.42    0.14
  -5   0   1    3.72    0.20
  -5   0   1    3.84    0.17
  -5   0   1    3.66    0.19
  -4   0   1   61.55    0.94
  -4   0   1   59.81    0.87
  -4   0   1   60.73    0.87
  -4   0   1   60.92    0.85
  -3   0   1  158.17    2.19
  -3   0   1  161.94    2.05
  -3   0   1  160.23    1.99
  -3   0   1  157.78    1.99
  -3   0   1  155.18    2.04
  -2   0   1    0.20    0.04
  -2   0   1    0.25    0.04
  -2   0   1    0.21    0.04
  -2   0   1    0.26    0.03
  -2   0   1    0.29    0.04
  -1   0   1   51.46    0.66
  -1   0   1   52.25    0.72
  -1   0   1   50.57    0.65
  -1   0   1   53.38    0.67
  -1   0   1   54.32    0.69
   0   0  -1   86.80    1.09
   0   0   1   84.71    1.12
  -1   0  -1   26.97    0.37
  -1   0  -1   27.01    0.35
  -1   0  -1   26.05    0.36
   1   0   1   27.27    0.35
  -2   0  -1    5.46    0.11
  -2   0  -1    5.10    0.14
  -2   0  -1    5.14    0.13
  -2   0  -1    5.45    0.15
  -2   0  -1    5.16    0.10
   2   0   1    5.40    0.11
  -3   0  -1    2.99    0.09
  -3   0  -1    3.11    0.09
  -3   0  -1    3.19    0.13
  -3   0  -1    3.26    0.12
  -3   0  -1    2.84    0.14
   3   0   1    3.25    0.09
  -4   0  -1   14.71    0.26
  -4   0  -1   14.74    0.35
  -4   0  -1   14.74    0.33
  -4   0  -1   14.62    0.25
  -4   0  -1   14.90    0.31
   4   0   1   14.66    0.25
  -5   0  -1   12.31    0.25
  -5   0  -1   12.61    0.31
  -5   0  -1   12.76    0.35
  -5   0  -1   13.02    0.35
   5   0   1   12.49    0.23
  -6   0  -1    0.33    0.13
  -6   0  -1    0.28    0.05
  -6   0  -1    0.27    0.09
  -6   0  -1    0.38    0.09
   6   0   1    0.33    0.05
  -7   0  -1    0.24    0.09
  -7   0  -1    0.27    0.10
   7   0   1    0.27    0.05
  -8   0  -1    1.76    0.18
  -8   0  -1    1.49    0.20
  -9   0  -1    4.09    0.32
  -9   0  -1    3.75    0.25
  -9   1   1    3.12    0.30
  -9   1   1    3.23    0.25
  -8   1   1    0.11    0.13
  -8   1   1    0.09    0.09
  -8   1   1    0.19    0.11
  -7   1   1    0.15    0.08
  -7   1   1    0.14    0.12
  -7   1   1    0.20    0.06
  -7   1   1    0.26    0.11
  -6   1   1    8.75    0.24
  -6   1   1    9.01    0.31
  -6   1   1    8.85    0.28
  -6   1   1    8.44    0.33
   5  -1  -1    4.64    0.11
  -5   1   1    4.98    0.23
  -5   1   1    5.00    0.22
  -5   1   1    4.77    0.19
  -5   1   1    4.70    0.16
   4  -1  -1   23.64    0.33
  -4   1   1   23.49    0.40
  -4   1   1   23.31    0.43
  -4   1   1   24.25    0.49
  -4   1   1   24.08    0.44
   3  -1  -1   61.80    0.75
  -3   1   1   60.36    0.81
  -3   1   1   59.25    0.84
  -3   1   1   59.93    0.84
  -3   1   1   60.59    0.77
  -3   1   1   60.86    0.89
   2  -1  -1    0.17    0.02
  -2   1   1    0.11    0.03
  -2   1   1    0.15    0.03
  -2   1   1    0.15    0.03
  -2   1   1    0.32    0.05
  -2   1   1    0.14    0.04
   1  -1  -1    3.91    0.07
  -1   1   1    3.82    0.09
  -1   1   1    4.09    0.10
  -1   1   1    4.13    0.09
  -1   1   1    3.84    0.09
  -1   1   1    3.92    0.06
  -1   1   1    3.91    0.08
   0  -1  -1  104.95    1.31
   0   1   1  100.94    1.30
   0   1   1  102.00    1.36
   0   1   1   98.63    1.24
   0   1   1  101.70    1.32
  -1  -1  -1    0.23    0.03
  -1  -1  -1    0.30    0.02
  -1  -1  -1    0.32    0.03
   1   1   1    0.30    0.03
   1   1   1    0.25    0.02
  -2  -1  -1   49.66    0.64
  -2  -1  -1   49.32    0.65
  -2  -1  -1   49.67    0.66
  -2  -1  -1   51.02    0.68
   2   1   1   49.75    0.64
  -3  -1  -1   38.75    0.52
  -3  -1  -1   37.68    0.55
  -3  -1  -1   38.95    0.60
  -3  -1  -1   38.76    0.54
   3   1   1   37.46    0.52
  -4  -1  -1    3.80    0.14
  -4  -1  -1    4.02    0.11
  -4  -1  -1    3.73    0.13
  -4  -1  -1    3.85    0.17
   4   1   1    3.70    0.11
  -5  -1  -1    0.48    0.07
  -5  -1  -1    0.64    0.10
  -5  -1  -1    0.48    0.08
   5   1   1    0.39    0.05
  -6  -1  -1    2.88    0.17
  -6  -1  -1    2.76    0.19
  -6  -1  -1    2.75    0.14
   6   1   1    2.70    0.11
  -7  -1  -1    2.31    0.17
  -7  -1  -1    2.24    0.20
   7   1   1    2.03    0.10
  -8  -1  -1   18.45    0.46
  -8  -1  -1   16.58    0.53
  -9  -1  -1    8.58    0.42
  -9  -1  -1    8.43    0.34
  -8   2   1    1.33    0.16
  -8   2   1    1.53    0.21
  -8   2   1    1.30    0.19
  -7   2   1   11.18    0.43
  -7   2   1   11.54    0.36
  -7   2   1   10.93    0.39
   6  -2  -1   11.07    0.21
  -6   2   1   11.45    0.29
  -6   2   1   11.51    0.39
  -6   2   1   11.65    0.36
  -6   2   1   12.05    0.34
   5  -2  -1    0.10    0.04
  -5   2   1    0.28    0.10
  -5   2   1    0.08    0.07
  -5   2   1    0.09    0.04
  -5   2   1    0.15    0.07
   4  -2  -1   17.32    0.27
  -4   2   1   16.80    0.40
  -4   2   1   16.94    0.37
  -4   2   1   17.02    0.28
  -4   2   1   17.26    0.32
  -4   2   1   16.91    0.35
   3  -2  -1    0.25    0.04
  -3   2   1    0.15    0.04
  -3   2   1    0.32    0.04
  -3   2   1    0.16    0.05
  -3   2   1    0.26    0.06
  -3   2   1    0.12    0.06
  -3   2   1    0.23    0.04
   2  -2  -1    6.11    0.13
  -2   2   1    6.10    0.12
  -2   2   1    6.15    0.15
  -2   2   1    6.14    0.14
  -2   2   1    6.35    0.13
  -2   2   1    6.71    0.19
  -2   2   1    5.88    0.16
   1  -2  -1    2.49    0.08
  -1   2   1    2.45    0.06
  -1   2   1    2.60    0.08
  -1   2   1    2.58    0.08
  -1   2   1    2.53    0.09
  -1   2   1    2.40    0.09
   0  -2  -1   18.27    0.27
   0   2   1   18.58    0.26
   0   2   1   18.34    0.28
   0   2   1   18.25    0.28
   0   2   1   18.15    0.27
  -1  -2  -1  189.27    2.44
  -1  -2  -1  197.60    2.51
   1   2   1  191.21    2.58
   1   2   1  198.18    2.65
   1   2   1  197.30    2.48
  -2  -2  -1   21.11    0.31
  -2  -2  -1   22.29    0.36
  -2  -2  -1   21.40    0.32
   2   2   1   22.03    0.33
   2   2   1   21.36    0.31
  -3  -2  -1  154.87    2.01
  -3  -2  -1  160.70    2.06
  -3  -2  -1  147.86    1.96
  -3  -2  -1  153.57    1.91
   3   2   1  157.00    1.88
   3   2   1  153.47    1.91
  -4  -2  -1   13.72    0.25
  -4  -2  -1   14.41    0.33
  -4  -2  -1   14.16    0.28
  -4  -2  -1   13.95    0.29
   4   2   1   13.67    0.25
  -5  -2  -1    2.68    0.14
  -5  -2  -1    2.95    0.17
  -5  -2  -1    2.91    0.15
   5   2   1    2.98    0.11
  -6  -2  -1   10.68    0.28
  -6  -2  -1   10.47    0.35
  -6  -2  -1   10.27    0.29
   6   2   1   10.46    0.23
  -7  -2  -1   10.99    0.32
  -7  -2  -1   10.68    0.30
  -7  -2  -1   11.37    0.39
   7   2   1   10.64    0.23
  -8  -2  -1    2.35    0.23
  -8  -2  -1    2.16    0.18
  -9  -2  -1    5.85    0.28
  -9  -2  -1    5.46    0.34
  -8   3   1    0.30    0.14
  -8   3   1    0.39    0.16
  -8   3   1    0.45    0.12
  -7   3   1    4.20    0.28
  -7   3   1    4.26    0.28
  -7   3   1    4.62    0.25
   6  -3  -1   13.69    0.27
  -6   3   1   14.01    0.45
  -6   3   1   13.82    0.41
  -6   3   1   13.94    0.38
   5  -3  -1    1.05    0.09
  -5   3   1    0.81    0.13
  -5   3   1    0.99    0.08
  -5   3   1    0.91    0.12
  -5   3   1    0.77    0.13
   4  -3  -1    6.26    0.16
  -4   3   1    5.82    0.16
  -4   3   1    5.86    0.23
  -4   3   1    6.31    0.25
  -4   3   1    6.16    0.21
   3  -3  -1   -0.01    0.04
  -3   3   1    0.03    0.04
  -3   3   1    0.03    0.04
  -3   3   1    0.05    0.06
  -3   3   1   -0.01    0.03
  -3   3   1    0.00    0.04
   2  -3  -1    9.90    0.19
  -2   3   1    9.83    0.23
  -2   3   1    9.61    0.21
  -2   3   1    9.93    0.19
  -2   3   1    9.38    0.21
  -2   3   1    9.78    0.17
   1  -3  -1    8.73    0.18
  -1   3   1    8.60    0.19
  -1   3   1    8.49    0.17
  -1   3   1    8.53    0.15
  -1   3   1    8.40    0.19
   0   3   1   54.24    0.74
   0   3   1   54.68    0.73
   0   3   1   53.32    0.70
  -1  -3  -1    0.02    0.03
   1   3   1    0.01    0.03
   1   3   1    0.02    0.03
   1   3   1    0.01    0.04
   1   3   1    0.03    0.03
  -2  -3  -1  283.69    3.63
  -2  -3  -1  279.74    3.65
   2   3   1  280.36    3.72
   2   3   1  291.42    3.74
   2   3   1  288.35    3.58
  -3  -3  -1   31.91    0.47
  -3  -3  -1   33.25    0.49
  -3  -3  -1   33.17    0.55
   3   3   1   32.91    0.49
   3   3   1   32.64    0.48
  -4  -3  -1   12.20    0.25
  -4  -3  -1   12.54    0.30
  -4  -3  -1   12.36    0.31
  -4  -3  -1   12.29    0.24
   4   3   1   12.30    0.23
   4   3   1   12.32    0.25
  -5  -3  -1   10.04    0.25
  -5  -3  -1   10.20    0.31
  -5  -3  -1   10.28    0.29
   5   3   1   10.08    0.23
  -6  -3  -1  135.40    1.81
  -6  -3  -1  134.92    1.94
  -6  -3  -1  137.61    1.84
   6   3   1  134.13    1.73
  -7  -3  -1    8.34    0.28
  -7  -3  -1    7.91    0.27
  -7  -3  -1    7.61    0.33
   7   3   1    7.71    0.20
  -8  -3  -1    1.08    0.17
  -8  -3  -1    0.98    0.13
  -9  -3  -1    1.84    0.18
  -9  -3  -1    1.46    0.22
  -8   4   1    0.35    0.17
  -8   4   1    0.17    0.11
  -8   4   1    0.04    0.12
  -7   4   1   15.26    0.44
  -7   4   1   14.54    0.52
  -7   4   1   14.36    0.47
   6  -4  -1    4.60    0.16
  -6   4   1    4.95    0.28
  -6   4   1    4.65    0.28
  -6   4   1    4.97    0.24
   5  -4  -1    0.49    0.07
  -5   4   1    0.40    0.11
  -5   4   1    0.51    0.07
  -5   4   1    0.61    0.13
  -5   4   1    0.42    0.10
   4  -4  -1    3.44    0.14
  -4   4   1    3.75    0.18
  -4   4   1    3.29    0.20
  -4   4   1    3.90    0.14
  -4   4   1    3.57    0.15
  -4   4   1    4.68    0.23
   3  -4  -1    4.62    0.15
  -3   4   1    4.93    0.22
  -3   4   1    4.76    0.18
  -3   4   1    4.59    0.15
  -3   4   1    4.77    0.13
  -3   4   1    4.41    0.19
  -3   4   1    4.46    0.16
   2  -4  -1    3.06    0.12
  -2   4   1    3.10    0.14
  -2   4   1    3.02    0.10
  -2   4   1    3.31    0.13
  -2   4   1    2.93    0.12
  -2   4   1    2.94    0.14
   1  -4  -1   10.69    0.22
  -1   4   1   10.54    0.24
  -1   4   1   10.39    0.24
  -1   4   1   10.53    0.22
  -1   4   1   10.58    0.19
   0  -4  -1    7.98    0.19
   0   4   1    8.19    0.19
   0   4   1    8.21    0.19
   0   4   1    8.43    0.21
   0   4   1    8.23    0.17
  -1  -4  -1    8.96    0.20
   1   4   1    9.23    0.22
   1   4   1    8.88    0.20
   1   4   1    9.40    0.20
   1   4   1    9.04    0.19
  -2  -4  -1   14.15    0.28
   2   4   1   14.44    0.28
   2   4   1   14.78    0.27
   2   4   1   15.08    0.29
   2   4   1   14.51    0.28
  -3  -4  -1   43.16    0.63
  -3  -4  -1   42.81    0.60
   3   4   1   42.64    0.65
   3   4   1   43.47    0.63
   3   4   1   42.68    0.63
   3   4   1   43.26    0.64
  -4  -4  -1   22.40    0.38
  -4  -4  -1   22.75    0.47
  -4  -4  -1   22.26    0.47
  -4  -4  -1   22.76    0.39
   4   4   1   22.25    0.39
   4   4   1   22.78    0.38
  -5  -4  -1   48.00    0.84
  -5  -4  -1   49.00    0.73
  -5  -4  -1   48.69    0.81
   5   4   1   48.64    0.68
   5   4   1   47.94    0.72
  -6  -4  -1    9.66    0.27
  -6  -4  -1    9.93    0.32
  -6  -4  -1   10.40    0.35
   6   4   1    9.97    0.24
  -7  -4  -1    2.43    0.19
  -7  -4  -1    2.14    0.21
  -7  -4  -1    2.36    0.16
   7   4   1    2.17    0.13
  -8  -4  -1   14.24    0.49
  -8  -4  -1   13.71    0.49
  -8  -4  -1   14.52    0.39
  -9  -4  -1    5.64    0.36
   9   4   1    6.61    0.31
  -7   5   1    1.37    0.18
  -7   5   1    1.39    0.21
  -7   5   1    1.01    0.18
   6  -5  -1   11.86    0.29
  -6   5   1   12.61    0.38
  -6   5   1   12.43    0.46
  -6   5   1   12.03    0.42
   5  -5  -1   14.66    0.32
  -5   5   1   14.88    0.39
  -5   5   1   15.59    0.48
  -5   5   1   14.72    0.43
  -5   5   1   14.45    0.34
   4  -5  -1    1.24    0.11
  -4   5   1    1.16    0.13
  -4   5   1    1.03    0.14
  -4   5   1    1.37    0.10
  -4   5   1    1.10    0.14
  -4   5   1    1.27    0.11
   3  -5  -1   53.26    0.78
  -3   5   1   53.88    0.81
  -3   5   1   52.54    0.82
  -3   5   1   54.72    0.75
  -3   5   1   52.66    0.78
  -3   5   1   51.71    0.85
   2  -5  -1   10.50    0.25
  -2   5   1   10.82    0.27
  -2   5   1   10.32    0.28
  -2   5   1   10.33    0.21
  -2   5   1   10.35    0.24
   1  -5  -1   -0.03    0.05
  -1   5   1    0.01    0.03
  -1   5   1   -0.01    0.04
  -1   5   1   -0.07    0.06
  -1   5   1   -0.06    0.05
   0  -5  -1    4.21    0.15
   0   5   1    4.44    0.18
   0   5   1    4.00    0.15
   0   5   1    4.22    0.13
   0   5   1    4.13    0.15
  -1  -5  -1   61.19    0.87
   1   5   1   61.57    0.85
   1   5   1   61.51    0.85
   1   5   1   61.55    0.90
  -2  -5  -1    1.30    0.10
   2   5   1    1.29    0.09
   2   5   1    1.23    0.09
   2   5   1    0.95    0.10
   2   5   1    1.28    0.10
  -3  -5  -1    8.54    0.23
   3   5   1    8.40    0.21
   3   5   1    8.50    0.23
   3   5   1    8.33    0.23
   3   5   1    8.44    0.23
  -4  -5  -1    6.26    0.20
  -4  -5  -1    6.48    0.18
   4   5   1    6.46    0.20
   4   5   1    6.57    0.22
   4   5   1    6.55    0.21
   4   5   1    6.36    0.20
  -5  -5  -1    9.81    0.25
  -5  -5  -1   10.33    0.34
   5   5   1    9.96    0.25
   5   5   1   10.34    0.26
   5   5   1   10.17    0.29
   5   5   1   10.32    0.29
  -6  -5  -1    2.19    0.20
  -6  -5  -1    1.99    0.13
   6   5   1    1.90    0.14
   6   5   1    2.05    0.17
  -7  -5  -1    1.07    0.12
  -7  -5  -1    1.21    0.17
  -7  -5  -1    0.78    0.13
   7   5   1    1.14    0.11
   7   5   1    1.41    0.16
  -8  -5  -1   -0.05    0.06
  -8  -5  -1   -0.06    0.09
  -8  -5  -1   -0.14    0.09
   8   5   1   -0.04    0.09
  -7   6   1    2.19    0.25
  -7   6   1    1.93    0.26
  -7   6   1    2.09    0.21
   6  -6  -1    0.44    0.09
  -6   6   1    0.37    0.13
  -6   6   1    0.43    0.15
  -6   6   1    0.58    0.13
   5  -6  -1    0.06    0.07
  -5   6   1    0.13    0.11
  -5   6   1    0.15    0.09
  -5   6   1    0.03    0.08
   4  -6  -1   58.30    0.88
  -4   6   1   59.19    0.98
  -4   6   1   58.57    0.94
  -4   6   1   59.58    0.91
  -4   6   1   54.26    1.06
   3  -6  -1    3.04    0.16
  -3   6   1    3.25    0.16
  -3   6   1    3.16    0.18
  -3   6   1    3.15    0.20
  -3   6   1    3.43    0.18
  -3   6   1    3.39    0.13
   2  -6  -1    7.99    0.23
  -2   6   1    7.51    0.19
  -2   6   1    7.59    0.23
  -2   6   1    7.22    0.25
  -2   6   1    7.58    0.25
   1  -6  -1    3.48    0.16
  -1   6   1    3.24    0.16
  -1   6   1    3.21    0.15
  -1   6   1    3.38    0.18
  -1   6   1    3.35    0.13
   0  -6  -1   24.28    0.45
   0   6   1   24.67    0.48
   0   6   1   24.27    0.41
   0   6   1   25.10    0.45
  -1  -6  -1    0.01    0.06
   1   6   1    0.14    0.06
   1   6   1    0.01    0.05
   1   6   1    0.03    0.05
   1   6   1    0.13    0.08
  -2  -6  -1   26.26    0.47
   2   6   1   25.59    0.47
   2   6   1   25.67    0.44
   2   6   1   25.53    0.49
   2   6   1   25.53    0.45
  -3  -6  -1    5.24    0.19
   3   6   1    5.19    0.21
   3   6   1    4.95    0.19
   3   6   1    5.03    0.19
   3   6   1    4.84    0.16
  -4  -6  -1    0.68    0.09
   4   6   1    0.74    0.10
   4   6   1    0.48    0.09
   4   6   1    0.74    0.09
   4   6   1    0.56    0.09
  -5  -6  -1    5.59    0.29
   5   6   1    5.41    0.20
   5   6   1    5.47    0.21
   5   6   1    5.46    0.23
  -6  -6  -1   12.06    0.31
  -6  -6  -1   12.45    0.41
   6   6   1   12.85    0.37
   6   6   1   12.48    0.32
  -7  -6  -1    0.13    0.11
   7   6   1    0.22    0.10
   7   6   1    0.14    0.08
  -8  -6  -1    4.90    0.30
   8   6   1    5.50    0.29
   8   6   1    4.83    0.21
   6  -7  -1    0.40    0.10
  -6   7   1    0.40    0.14
  -6   7   1    0.45    0.13
  -6   7   1    0.69    0.19
   5  -7  -1    0.22    0.09
  -5   7   1    0.12    0.10
  -5   7   1    0.19    0.10
  -5   7   1    0.10    0.12
   4  -7  -1    2.43    0.17
  -4   7   1    2.50    0.23
  -4   7   1    2.79    0.18
  -4   7   1    3.02    0.24
  -4   7   1    2.90    0.20
   3  -7  -1   16.51    0.39
  -3   7   1   16.78    0.40
  -3   7   1   16.74    0.41
  -3   7   1   16.61    0.44
  -3   7   1   16.89    0.38
   2  -7  -1    2.46    0.16
  -2   7   1    2.11    0.17
  -2   7   1    2.27    0.16
  -2   7   1    2.30    0.12
  -2   7   1    2.10    0.17
   1  -7  -1    0.80    0.11
  -1   7   1    0.65    0.10
  -1   7   1    0.82    0.12
  -1   7   1    0.93    0.09
  -1   7   1    0.82    0.11
   0  -7  -1    0.15    0.08
   0   7   1    0.10    0.09
   0   7   1    0.19    0.07
   0   7   1    0.08    0.07
   0   7   1    0.18    0.06
  -1  -7  -1    0.16    0.08
   1   7   1    0.16    0.06
   1   7   1    0.14    0.09
   1   7   1    0.11    0.08
   1   7   1    0.19    0.06
  -2  -7  -1   21.97    0.45
   2   7   1   21.58    0.43
   2   7   1   23.20    0.46
   2   7   1   22.62    0.41
   2   7   1   22.02    0.48
  -3  -7  -1    7.95    0.25
   3   7   1    7.74    0.28
   3   7   1    7.85    0.25
   3   7   1    8.14    0.26
   3   7   1    8.02    0.22
  -4  -7  -1   13.50    0.34
   4   7   1   13.69    0.35
   4   7   1   13.68    0.35
   4   7   1   13.93    0.36
  -5  -7  -1    5.00    0.30
   5   7   1    4.91    0.23
   5   7   1    5.02    0.22
   5   7   1    4.85    0.22
  -6  -7  -1    9.59    0.39
   6   7   1    9.56    0.30
   6   7   1    9.97    0.33
  -7  -7  -1    2.11    0.23
   7   7   1    2.27    0.18
   7   7   1    2.70    0.22
   5  -8  -1    4.15    0.23
  -5   8   1    3.59    0.30
  -5   8   1    4.17    0.25
  -5   8   1    4.79    0.31
   4  -8  -1    0.91    0.14
  -4   8   1    0.77    0.12
  -4   8   1    0.69    0.13
  -4   8   1    0.54    0.14
  -4   8   1    0.93    0.17
   3  -8  -1    1.57    0.16
  -3   8   1    1.79    0.16
  -3   8   1    1.87    0.17
  -3   8   1    1.96    0.19
   2  -8  -1    2.83    0.19
  -2   8   1    2.69    0.18
  -2   8   1    3.14    0.21
  -2   8   1    2.93    0.21
  -2   8   1    2.56    0.15
   1  -8  -1    0.19    0.09
  -1   8   1    0.16    0.08
  -1   8   1    0.14    0.09
  -1   8   1    0.21    0.07
  -1   8   1    0.24    0.09
   0  -8  -1   19.83    0.44
   0   8   1   19.52    0.39
   0   8   1   18.48    0.43
   0   8   1   19.57    0.47
   0   8   1   20.09    0.43
  -1  -8  -1   24.69    0.51
   1   8   1   24.46    0.47
   1   8   1   24.80    0.47
   1   8   1   25.02    0.51
   1   8   1   23.75    0.53
  -2  -8  -1   58.33    0.92
   2   8   1   56.45    0.95
   2   8   1   57.28    0.91
   2   8   1   57.00    0.92
   2   8   1   56.98    0.89
  -3  -8  -1    0.19    0.09
   3   8   1    0.31    0.09
   3   8   1    0.29    0.09
   3   8   1    0.12    0.09
  -4  -8  -1    1.88    0.16
   4   8   1    1.80    0.16
   4   8   1    1.52    0.15
   4   8   1    1.68    0.15
   5   8   1    0.68    0.12
   5   8   1    0.62    0.11
   5   8   1    0.96    0.14
  -6  -8  -1   -0.06    0.12
   6   8   1    0.07    0.09
   6   8   1    0.05    0.09
  -7  -8  -1    1.10    0.20
   7   8   1    1.46    0.18
   7   8   1    1.61    0.16
   4  -9  -1    1.40    0.17
  -4   9   1    1.61    0.21
  -4   9   1    1.45    0.17
  -4   9   1    0.84    0.18
   3  -9  -1    4.10    0.24
  -3   9   1    4.06    0.24
  -3   9   1    3.48    0.27
   2  -9  -1    3.15    0.21
  -2   9   1    2.86    0.20
  -2   9   1    2.65    0.22
  -2   9   1    3.25    0.23
   1  -9  -1    0.94    0.14
  -1   9   1    0.94    0.14
  -1   9   1    1.17    0.12
  -1   9   1    1.06    0.15
  -1   9   1    1.11    0.14
   0  -9  -1    0.29    0.10
   0   9   1    0.39    0.11
   0   9   1    0.10    0.08
   0   9   1    0.17    0.09
   0   9   1    0.19    0.07
  -1  -9  -1    7.19    0.28
   1   9   1    6.99    0.30
   1   9   1    7.06    0.24
   1   9   1    7.20    0.28
  -2  -9  -1    0.89    0.13
   2   9   1    1.13    0.12
   2   9   1    0.90    0.14
   2   9   1    1.06    0.14
  -3  -9  -1    0.60    0.12
   3   9   1    0.58    0.12
   3   9   1    0.66    0.11
   3   9   1    0.43    0.11
  -4  -9  -1    5.87    0.26
   4   9   1    5.59    0.27
   4   9   1    5.40    0.26
   4   9   1    5.53    0.25
   5   9   1    0.45    0.11
   5   9   1    0.35    0.12
   5   9   1    0.40    0.12
  -6  -9  -1   -0.07    0.14
   6   9   1    0.11    0.11
   6   9   1    0.04    0.11
   3 -10  -1    5.73    0.30
  -3  10   1    6.13    0.33
  -3  10   1    5.31    0.29
   2 -10  -1    1.23    0.17
  -2  10   1    1.33    0.17
  -2  10   1    1.41    0.18
  -2  10   1    1.07    0.16
   1 -10  -1    1.29    0.17
  -1  10   1    1.58    0.18
  -1  10   1    1.61    0.17
  -1  10   1    1.71    0.19
   0 -10  -1    1.10    0.15
   0  10   1    0.89    0.14
   0  10   1    0.98    0.12
   0  10   1    0.81    0.14
  -1 -10  -1    0.17    0.10
   1  10   1   -0.01    0.10
   1  10   1    0.24    0.11
   1  10   1    0.17    0.08
  -2 -10  -1    0.08    0.10
   2  10   1    0.07    0.10
   2  10   1    0.01    0.10
   2  10   1    0.01    0.07
  -3 -10  -1    1.44    0.17
   3  10   1    1.21    0.17
   3  10   1    1.26    0.16
   3  10   1    1.19    0.14
   4  10   1    5.82    0.29
   4  10   1    5.70    0.29
   4  10   1    5.41    0.26
   5  10   1    0.22    0.13
   5  10   1    0.33    0.11
   5  10   1    0.15    0.11
   0 -11  -1    0.13    0.13
   0  11   1   -0.06    0.11
   0  11   1    0.11    0.11
  -1 -11  -1    3.14    0.26
   1  11   1    3.34    0.20
   1  11   1    2.80    0.24
   1  11   1    2.96    0.26
  -2 -11  -1    0.01    0.11
   2  11   1   -0.04    0.10
   2  11   1    0.04    0.09
   2  11   1    0.03    0.12
   4  10  -2    0.59    0.14
   4  10  -2    0.43    0.14
   4  10  -2    0.43    0.14
  -4 -10   2    0.30    0.19
   3  10  -2   -0.13    0.11
   3  10  -2    0.08    0.11
   3  10  -2   -0.08    0.09
  -3 -10   2   -0.29    0.16
   2  10  -2    0.47    0.12
   2  10  -2    0.55    0.15
   2  10  -2    0.47    0.14
  -2 -10   2    0.75    0.14
   1  10  -2    1.69    0.19
   1  10  -2    1.60    0.17
   1  10  -2    1.64    0.20
  -1 -10   2    1.85    0.20
   0  10  -2    0.25    0.14
   0  10  -2    0.26    0.10
   0  10  -2    0.22    0.12
   0 -10   2    0.15    0.12
  -1  10  -2    1.46    0.16
  -1  10  -2    1.30    0.19
   1 -10   2    1.30    0.18
  -2  10  -2    5.30    0.35
  -2  10  -2    5.17    0.30
  -2  10  -2    4.92    0.30
   2 -10   2    4.73    0.29
   5   9  -2    0.99    0.17
   5   9  -2    1.21    0.16
   5   9  -2    1.25    0.16
  -5  -9   2    1.17    0.22
   4   9  -2    0.87    0.14
   4   9  -2    0.43    0.14
   4   9  -2    0.94    0.14
  -4  -9   2    0.87    0.20
   3   9  -2    2.28    0.22
   3   9  -2    2.13    0.19
   3   9  -2    2.04    0.18
  -3  -9   2    2.36    0.20
   2   9  -2   39.16    0.74
   2   9  -2   39.58    0.73
   2   9  -2   38.02    0.78
  -2  -9   2   38.47    0.73
   1   9  -2    3.92    0.21
   1   9  -2    3.93    0.27
   1   9  -2    3.86    0.23
  -1  -9   2    3.97    0.23
   0   9  -2   10.24    0.35
   0   9  -2    9.85    0.31
   0   9  -2    9.57    0.37
   0  -9   2    9.83    0.34
  -1   9  -2    0.36    0.11
  -1   9  -2    0.34    0.09
  -1   9  -2    0.18    0.11
   1  -9   2    0.52    0.13
  -2   9  -2    5.64    0.32
  -2   9  -2    5.55    0.24
  -2   9  -2    5.85    0.30
  -2   9  -2    5.15    0.28
   2  -9   2    5.53    0.28
  -3   9  -2    0.06    0.10
  -3   9  -2    0.04    0.13
  -3   9  -2    0.05    0.10
   3  -9   2   -0.14    0.10
   6   8  -2    1.88    0.16
   6   8  -2    2.09    0.20
  -6  -8   2    1.65    0.23
   5   8  -2    0.15    0.12
   5   8  -2    0.14    0.10
   5   8  -2    0.33    0.11
  -5  -8   2    0.23    0.15
   4   8  -2    2.18    0.20
   4   8  -2    1.90    0.18
   4   8  -2    2.28    0.19
  -4  -8   2    1.75    0.22
   3   8  -2   22.46    0.49
   3   8  -2   22.36    0.50
  -3  -8   2   22.39    0.49
   2   8  -2   17.44    0.42
   2   8  -2   17.86    0.48
   2   8  -2   17.93    0.43
  -2  -8   2   16.86    0.41
   1   8  -2   12.58    0.34
   1   8  -2   12.29    0.40
   1   8  -2   12.63    0.36
  -1  -8   2   12.65    0.35
   0   8  -2    0.01    0.09
   0   8  -2    0.02    0.10
   0   8  -2   -0.01    0.06
   0  -8   2    0.12    0.09
  -1   8  -2    1.29    0.13
  -1   8  -2    1.23    0.14
  -1   8  -2    1.25    0.16
  -1   8  -2    1.43    0.15
   1  -8   2    1.19    0.14
  -2   8  -2    4.03    0.23
  -2   8  -2    3.73    0.19
  -2   8  -2    4.18    0.25
   2  -8   2    3.73    0.22
  -3   8  -2    1.06    0.16
  -3   8  -2    1.02    0.12
  -3   8  -2    0.99    0.15
  -3   8  -2    0.87    0.14
   3  -8   2    1.07    0.15
  -4   8  -2    0.45    0.16
  -4   8  -2    0.66    0.12
   4  -8   2    0.37    0.12
  -5   8  -2    1.43    0.19
  -5   8  -2    1.84    0.23
  -5   8  -2    1.39    0.23
   5  -8   2    1.14    0.16
   7   7  -2    4.43    0.27
   7   7  -2    3.97    0.20
  -7  -7   2    3.76    0.31
   6   7  -2    9.02    0.33
   6   7  -2    8.46    0.27
  -6  -7   2    8.93    0.40
   5   7  -2    7.76    0.26
   5   7  -2    7.78    0.29
  -5  -7   2    7.56    0.37
   4   7  -2    0.49    0.10
   4   7  -2    0.58    0.11
  -4  -7   2    0.28    0.14
   3   7  -2    1.23    0.13
   3   7  -2    1.29    0.13
  -3  -7   2    1.14    0.12
   2   7  -2   10.96    0.30
   2   7  -2   10.86    0.30
  -2  -7   2   10.09    0.29
   1   7  -2    1.05    0.12
   1   7  -2    1.37    0.13
  -1  -7   2    1.26    0.13
   0   7  -2    0.41    0.08
   0   7  -2    0.48    0.09
   0   7  -2    0.28    0.09
   0  -7   2    0.30    0.09
  -1   7  -2    4.71    0.19
  -1   7  -2    4.70    0.21
  -1   7  -2    4.38    0.21
  -1   7  -2    4.31    0.24
   1  -7   2    4.54    0.21
  -2   7  -2   15.19    0.41
  -2   7  -2   15.45    0.40
  -2   7  -2   15.69    0.36
   2  -7   2   16.11    0.39
  -3   7  -2    0.45    0.09
  -3   7  -2    0.52    0.12
  -3   7  -2    0.49    0.11
  -3   7  -2    0.29    0.12
   3  -7   2    0.59    0.11
  -4   7  -2   18.02    0.44
  -4   7  -2   18.24    0.41
  -4   7  -2   18.14    0.50
   4  -7   2   18.03    0.44
  -5   7  -2    0.51    0.14
  -5   7  -2    0.47    0.16
  -5   7  -2    0.48    0.15
   5  -7   2    0.65    0.13
  -6   7  -2    1.39    0.19
  -6   7  -2    1.35    0.23
  -6   7  -2    1.14    0.21
   6  -7   2    1.22    0.16
   8   6  -2    0.11    0.11
  -8  -6   2    0.10    0.12
   7   6  -2    1.87    0.19
   7   6  -2    1.74    0.14
  -7  -6   2    1.32    0.18
   6   6  -2    1.74    0.16
   6   6  -2    1.77    0.14
  -6  -6   2    1.49    0.19
   5   6  -2    1.24    0.14
   5   6  -2    0.87    0.10
  -5  -6   2    1.03    0.16
   4   6  -2    5.67    0.21
   4   6  -2    5.47    0.22
  -4  -6   2    5.84    0.29
   3   6  -2    6.35    0.22
   3   6  -2    6.46    0.22
  -3  -6   2    6.34    0.30
  -3  -6   2    6.23    0.21
   2   6  -2    0.40    0.08
   2   6  -2    0.54    0.09
  -2  -6   2    0.57    0.09
   1   6  -2   19.77    0.39
   1   6  -2   19.46    0.34
   1   6  -2   19.59    0.40
  -1  -6   2   19.07    0.39
   0   6  -2    7.68    0.24
   0   6  -2    7.35    0.21
   0   6  -2    7.44    0.22
   0  -6   2    7.54    0.24
  -1   6  -2    4.65    0.20
  -1   6  -2    5.03    0.18
  -1   6  -2    4.89    0.20
   1  -6   2    4.85    0.20
  -2   6  -2    4.41    0.22
  -2   6  -2    4.21    0.22
  -2   6  -2    4.38    0.17
   2  -6   2    4.51    0.20
  -3   6  -2   80.66    1.19
  -3   6  -2   81.03    1.17
  -3   6  -2   80.40    1.23
  -3   6  -2   80.54    1.15
   3  -6   2   80.37    1.18
  -4   6  -2    3.76    0.20
  -4   6  -2    3.89    0.18
  -4   6  -2    4.06    0.26
   4  -6   2    3.58    0.19
  -5   6  -2    9.46    0.35
  -5   6  -2    8.85    0.37
  -5   6  -2    8.72    0.41
  -5   6  -2    8.95    0.28
   5  -6   2    8.49    0.29
  -6   6  -2    1.27    0.21
  -6   6  -2    1.42    0.19
  -6   6  -2    0.78    0.17
   6  -6   2    1.41    0.15
   8   5  -2    5.53    0.28
  -8  -5   2    5.16    0.26
  -8  -5   2    5.14    0.30
   7   5  -2    1.51    0.16
  -7  -5   2    1.25    0.17
  -7  -5   2    1.44    0.15
   6   5  -2   20.80    0.38
   6   5  -2   21.65    0.48
  -6  -5   2   20.03    0.45
  -6  -5   2   20.88    0.53
   5   5  -2    6.59    0.24
   5   5  -2    6.28    0.20
  -5  -5   2    6.31    0.29
   4   5  -2   24.84    0.48
   4   5  -2   24.10    0.44
  -4  -5   2   24.96    0.55
   3   5  -2    4.62    0.18
   3   5  -2    4.85    0.18
  -3  -5   2    4.85    0.26
  -3  -5   2    4.63    0.17
   2   5  -2   51.67    0.77
   2   5  -2   50.95    0.67
   2   5  -2   52.61    0.78
  -2  -5   2   52.13    0.76
   1   5  -2    2.22    0.12
   1   5  -2    2.29    0.10
   1   5  -2    2.31    0.13
  -1  -5   2    2.16    0.13
   0   5  -2    3.61    0.14
   0   5  -2    3.17    0.15
   0   5  -2    3.00    0.13
   0  -5   2    3.15    0.15
  -1   5  -2   12.19    0.28
  -1   5  -2   12.17    0.29
  -1   5  -2   12.03    0.27
   1  -5   2   11.90    0.28
  -2   5  -2    7.39    0.21
  -2   5  -2    6.98    0.22
  -2   5  -2    7.15    0.24
   2  -5   2    7.09    0.22
  -3   5  -2    0.14    0.07
  -3   5  -2    0.33    0.07
  -3   5  -2    0.18    0.09
  -3   5  -2    0.22    0.10
   3  -5   2    0.22    0.08
  -4   5  -2    9.84    0.27
  -4   5  -2    9.40    0.27
  -4   5  -2   10.15    0.28
  -4   5  -2    9.84    0.34
   4  -5   2    9.67    0.28
  -5   5  -2    3.38    0.17
  -5   5  -2    3.35    0.26
  -5   5  -2    3.18    0.22
  -5   5  -2    2.99    0.25
   5  -5   2    3.42    0.18
  -6   5  -2    0.29    0.12
  -6   5  -2    0.27    0.11
  -6   5  -2    0.41    0.10
  -6   5  -2    0.35    0.15
   6  -5   2    0.40    0.09
  -7   5  -2    4.50    0.33
  -7   5  -2    5.09    0.37
  -7   5  -2    4.52    0.28
   7  -5   2    4.81    0.22
   8   4  -2    0.13    0.10
  -8  -4   2    0.02    0.11
  -8  -4   2    0.06    0.08
  -8  -4   2    0.12    0.10
   7   4  -2   -0.04    0.08
  -7  -4   2    0.09    0.07
  -7  -4   2   -0.10    0.08
  -7  -4   2   -0.04    0.08
   6   4  -2   82.40    1.09
   6   4  -2   83.06    1.21
  -6  -4   2   78.17    1.35
  -6  -4   2   81.20    1.20
  -6  -4   2   84.29    1.29
   5   4  -2    2.41    0.12
   5   4  -2    2.45    0.16
  -5  -4   2    2.61    0.15
  -5  -4   2    2.61    0.20
   4   4  -2   14.49    0.28
   4   4  -2   14.60    0.33
   3   4  -2    0.45    0.07
   3   4  -2    0.55    0.07
  -3  -4   2    0.66    0.07
  -3  -4   2    0.59    0.11
   2   4  -2   25.12    0.43
   2   4  -2   24.79    0.41
  -2  -4   2   24.69    0.41
   1   4  -2    0.32    0.04
   1   4  -2    0.40    0.06
   1   4  -2    0.29    0.06
  -1  -4   2    0.29    0.06
   0   4  -2    2.84    0.11
   0   4  -2    3.15    0.13
   0   4  -2    2.75    0.11
   0  -4   2    3.06    0.13
  -1   4  -2   22.51    0.39
  -1   4  -2   22.32    0.39
  -1   4  -2   22.23    0.38
   1  -4   2   22.15    0.39
  -2   4  -2    0.90    0.09
  -2   4  -2    0.85    0.10
  -2   4  -2    0.95    0.08
   2  -4   2    0.85    0.09
  -3   4  -2    0.73    0.09
  -3   4  -2    0.62    0.08
  -3   4  -2    0.69    0.12
  -3   4  -2    0.72    0.09
   3  -4   2    0.77    0.09
  -4   4  -2    1.15    0.11
  -4   4  -2    1.37    0.11
  -4   4  -2    1.10    0.15
  -4   4  -2    1.41    0.12
   4  -4   2    1.27    0.12
  -5   4  -2    0.30    0.10
  -5   4  -2    0.26    0.10
  -5   4  -2    0.18    0.12
  -5   4  -2    0.28    0.08
   5  -4   2    0.23    0.08
  -6   4  -2   15.07    0.43
  -6   4  -2   15.24    0.37
  -6   4  -2   14.57    0.50
  -6   4  -2   15.19    0.47
   6  -4   2   14.89    0.35
  -7   4  -2   -0.02    0.10
  -7   4  -2   -0.07    0.15
  -7   4  -2   -0.02    0.09
   7  -4   2    0.00    0.07
   8   3  -2   13.51    0.39
  -8  -3   2   13.10    0.40
  -8  -3   2   12.12    0.48
  -8  -3   2   13.08    0.39
   7   3  -2   34.65    0.65
  -7  -3   2   34.34    0.65
  -7  -3   2   35.20    0.69
  -7  -3   2   33.96    0.78
   6   3  -2   17.80    0.40
   6   3  -2   17.58    0.29
  -6  -3   2   17.95    0.40
  -6  -3   2   18.56    0.45
  -6  -3   2   18.52    0.51
   5   3  -2    1.57    0.09
   5   3  -2    1.46    0.12
  -5  -3   2    1.90    0.17
  -5  -3   2    1.62    0.16
  -5  -3   2    1.47    0.12
   4   3  -2   44.83    0.63
   4   3  -2   45.77    0.70
  -4  -3   2   46.78    0.69
  -4  -3   2   45.69    0.75
  -4  -3   2   45.59    0.70
  -4  -3   2   45.42    0.80
   3   3  -2   90.38    1.16
   3   3  -2   88.88    1.20
  -3  -3   2   90.71    1.16
  -3  -3   2   92.11    1.27
  -3  -3   2   88.95    1.20
   2   3  -2    2.51    0.10
  -2  -3   2    2.45    0.14
  -2  -3   2    2.60    0.10
   1   3  -2   25.06    0.39
   1   3  -2   24.90    0.39
   1   3  -2   24.88    0.33
  -1  -3   2   25.21    0.39
   0   3  -2    1.38    0.08
   0   3  -2    1.43    0.08
   0   3  -2    1.52    0.08
   0  -3   2    1.53    0.09
  -1   3  -2    6.38    0.17
  -1   3  -2    6.43    0.16
   1  -3   2    6.40    0.16
  -2   3  -2   -0.06    0.04
  -2   3  -2   -0.05    0.06
  -2   3  -2    0.02    0.04
   2  -3   2   -0.01    0.04
  -3   3  -2   -0.02    0.07
  -3   3  -2   -0.06    0.04
  -3   3  -2    0.00    0.04
  -3   3  -2    0.03    0.05
   3  -3   2    0.03    0.05
  -4   3  -2    0.05    0.10
  -4   3  -2    0.01    0.05
  -4   3  -2    0.04    0.05
  -4   3  -2   -0.01    0.05
   4  -3   2    0.00    0.05
  -5   3  -2    7.56    0.28
  -5   3  -2    7.39    0.31
  -5   3  -2    7.52    0.23
  -5   3  -2    7.52    0.31
   5  -3   2    7.10    0.21
  -6   3  -2   11.06    0.35
  -6   3  -2   10.79    0.40
  -6   3  -2   11.00    0.40
   6  -3   2   11.20    0.28
  -7   3  -2    2.91    0.25
  -7   3  -2    3.04    0.29
  -7   3  -2    2.86    0.22
   7  -3   2    2.92    0.15
  -8   3  -2    2.10    0.28
  -8   3  -2    1.57    0.19
  -8   3  -2    1.45    0.21
   9   2  -2    0.65    0.13
  -9  -2   2    0.69    0.18
  -9  -2   2    0.61    0.13
   8   2  -2    2.06    0.18
  -8  -2   2    1.85    0.18
  -8  -2   2    1.70    0.22
  -8  -2   2    2.21    0.18
   7   2  -2    2.32    0.17
  -7  -2   2    2.43    0.22
  -7  -2   2    2.70    0.18
  -7  -2   2    2.17    0.18
   6   2  -2    3.18    0.17
  -6  -2   2    3.46    0.19
  -6  -2   2    3.08    0.22
  -6  -2   2    2.90    0.16
   5   2  -2    1.40    0.07
   5   2  -2    1.41    0.12
  -5  -2   2    1.29    0.12
  -5  -2   2    1.42    0.12
  -5  -2   2    1.49    0.15
   4   2  -2    9.96    0.24
   4   2  -2   10.18    0.18
  -4  -2   2   10.04    0.24
  -4  -2   2   10.10    0.30
  -4  -2   2    9.78    0.27
   3   2  -2    6.73    0.17
   3   2  -2    6.55    0.13
  -3  -2   2    6.38    0.17
  -3  -2   2    6.80    0.22
  -3  -2   2    6.64    0.20
   2   2  -2   94.05    1.17
   2   2  -2   92.18    1.20
  -2  -2   2   92.65    1.24
  -2  -2   2   94.12    1.20
  -2  -2   2   93.38    1.16
   1   2  -2   22.35    0.33
  -1  -2   2   22.37    0.33
  -1  -2   2   21.95    0.37
   0   2  -2  156.26    1.87
   0   2  -2  148.50    2.05
   0   2  -2  151.02    1.89
   0  -2   2  151.67    1.90
  -1   2  -2   15.12    0.26
  -1   2  -2   15.09    0.27
  -1   2  -2   14.83    0.25
   1  -2   2   14.92    0.26
  -2   2  -2    0.44    0.05
  -2   2  -2    0.36    0.07
  -2   2  -2    0.42    0.05
   2  -2   2    0.54    0.06
  -3   2  -2   26.12    0.42
  -3   2  -2   26.72    0.48
  -3   2  -2   27.25    0.43
   3  -2   2   26.33    0.42
  -4   2  -2    6.11    0.17
  -4   2  -2    5.89    0.25
  -4   2  -2    6.09    0.15
  -4   2  -2    5.80    0.24
  -4   2  -2    5.95    0.18
   4  -2   2    5.99    0.17
  -5   2  -2    5.01    0.22
  -5   2  -2    4.70    0.26
  -5   2  -2    4.98    0.24
   5  -2   2    4.72    0.17
  -6   2  -2   13.08    0.43
  -6   2  -2   13.77    0.38
  -6   2  -2   13.47    0.42
   6  -2   2   12.74    0.29
  -7   2  -2    4.75    0.32
  -7   2  -2    4.71    0.28
  -7   2  -2    4.99    0.25
   7  -2   2    4.96    0.18
  -8   2  -2    0.00    0.09
  -8   2  -2    0.13    0.11
  -9  -1   2    4.74    0.26
  -9  -1   2    4.84    0.34
  -8  -1   2    1.20    0.19
  -8  -1   2    1.48    0.15
  -8  -1   2    1.63    0.17
  -7  -1   2    5.16    0.23
  -7  -1   2    5.07    0.22
  -7  -1   2    4.66    0.28
  -6  -1   2    1.13    0.15
  -6  -1   2    1.11    0.12
  -6  -1   2    1.13    0.12
  -6  -1   2    1.08    0.13
  -5  -1   2    9.93    0.32
  -5  -1   2   10.00    0.27
  -5  -1   2   10.22    0.27
  -5  -1   2    9.91    0.27
  -4  -1   2    3.57    0.17
  -4  -1   2    3.54    0.14
  -4  -1   2    3.67    0.15
  -4  -1   2    3.78    0.14
   3   1  -2    4.89    0.13
  -3  -1   2    4.85    0.16
  -3  -1   2    4.83    0.13
  -3  -1   2    4.98    0.14
  -3  -1   2    4.70    0.13
  -3  -1   2    5.02    0.18
   2   1  -2    0.64    0.04
   2   1  -2    0.56    0.05
  -2  -1   2    0.55    0.05
  -2  -1   2    0.60    0.07
  -2  -1   2    0.57    0.05
  -2  -1   2    0.58    0.05
  -2  -1   2    0.54    0.06
   1   1  -2   74.93    0.94
  -1  -1   2   74.00    0.95
  -1  -1   2   75.99    0.95
  -1  -1   2   74.62    0.97
   0   1  -2   12.45    0.20
   0   1  -2   12.06    0.20
   0  -1   2   12.31    0.20
   0  -1   2   12.52    0.20
  -1   1  -2   44.09    0.59
  -1   1  -2   44.57    0.61
  -1   1  -2   44.14    0.59
   1  -1   2   45.29    0.59
  -2   1  -2   46.62    0.63
  -2   1  -2   46.12    0.62
  -2   1  -2   45.52    0.67
   2  -1   2   46.99    0.63
  -3   1  -2   70.26    0.92
  -3   1  -2   70.16    0.95
  -3   1  -2   71.75    1.03
  -3   1  -2   69.72    1.00
   3  -1   2   69.69    0.93
  -4   1  -2   33.40    0.56
  -4   1  -2   33.92    0.61
  -4   1  -2   32.12    0.45
  -4   1  -2   33.54    0.59
  -4   1  -2   32.61    0.49
  -4   1  -2   32.38    0.52
   4  -1   2   32.94    0.50
  -5   1  -2   10.19    0.22
  -5   1  -2   10.22    0.33
  -5   1  -2   10.30    0.34
  -5   1  -2    9.93    0.29
   5  -1   2   10.50    0.23
  -6   1  -2    2.21    0.17
  -6   1  -2    1.59    0.19
  -6   1  -2    2.10    0.18
   6  -1   2    1.76    0.11
  -7   1  -2    4.78    0.28
  -7   1  -2    5.00    0.24
   7  -1   2    5.05    0.17
  -8   1  -2    1.62    0.18
  -8   1  -2    1.70    0.21
  -9   0   2    0.32    0.11
  -9   0   2    0.13    0.13
  -8   0   2   -0.12    0.12
  -8   0   2   -0.04    0.07
  -8   0   2    0.01    0.08
  -8   0   2   -0.03    0.08
  -7   0   2    0.23    0.08
  -7   0   2    0.16    0.07
  -7   0   2    0.12    0.11
  -7   0   2    0.21    0.10
  -6   0   2    0.40    0.08
  -6   0   2    0.39    0.10
  -6   0   2    0.41    0.10
  -6   0   2    0.38    0.09
  -5   0   2    1.83    0.15
  -5   0   2    2.03    0.12
  -5   0   2    2.11    0.14
  -5   0   2    1.88    0.16
  -4   0   2    7.76    0.21
  -4   0   2    8.07    0.26
  -4   0   2    7.68    0.16
  -4   0   2    7.20    0.21
  -4   0   2    7.94    0.21
  -3   0   2   13.34    0.26
  -3   0   2   13.53    0.22
  -3   0   2   12.76    0.25
  -3   0   2   13.03    0.26
  -3   0   2   13.63    0.31
   2   0  -2  152.93    1.96
  -2   0   2  153.01    1.99
  -2   0   2  152.26    2.00
  -2   0   2  155.56    2.07
  -2   0   2  156.10    2.20
  -2   0   2  155.03    2.07
   1   0  -2   40.70    0.51
   1   0  -2   40.28    0.52
  -1   0   2   42.41    0.57
  -1   0   2   40.55    0.53
  -1   0   2   39.95    0.52
  -1   0   2   40.19    0.54
  -1   0   2   42.41    0.55
   0   0  -2    8.83    0.14
   0   0  -2    8.63    0.14
   0   0   2    9.02    0.14
   0   0   2    9.30    0.14
   0   0   2    8.87    0.15
  -1   0  -2    0.00    0.02
  -1   0  -2    0.00    0.02
   1   0   2    0.02    0.02
   1   0   2    0.02    0.02
  -2   0  -2   35.71    0.53
  -2   0  -2   34.80    0.48
  -2   0  -2   33.76    0.49
   2   0   2   35.55    0.48
  -3   0  -2   70.43    0.89
  -3   0  -2   71.82    1.01
  -3   0  -2   73.29    0.93
  -3   0  -2   70.82    1.00
  -3   0  -2   71.95    0.97
   3   0   2   71.38    0.93
  -4   0  -2    1.22    0.11
  -4   0  -2    1.29    0.13
  -4   0  -2    1.25    0.06
  -4   0  -2    1.19    0.10
  -4   0  -2    1.21    0.08
   4   0   2    1.18    0.08
  -5   0  -2   29.98    0.59
  -5   0  -2   29.60    0.53
  -5   0  -2   29.23    0.45
   5   0   2   30.06    0.46
  -6   0  -2    6.35    0.24
  -6   0  -2    6.25    0.27
   6   0   2    6.45    0.18
  -7   0  -2    4.63    0.22
  -7   0  -2    4.13    0.25
   7   0   2    4.48    0.16
  -8   0  -2    4.39    0.28
  -8   0  -2    4.29    0.24
  -9   0  -2    0.82    0.18
  -9   0  -2    0.79    0.15
  -8   1   2    0.05    0.10
  -8   1   2   -0.18    0.11
  -8   1   2    0.04    0.08
  -7   1   2   27.68    0.53
  -7   1   2   27.42    0.60
  -7   1   2   27.84    0.58
  -7   1   2   26.53    0.68
  -6   1   2    0.43    0.07
  -6   1   2    0.40    0.09
  -6   1   2    0.47    0.11
  -6   1   2    0.46    0.11
  -5   1   2    0.35    0.08
  -5   1   2    0.41    0.08
  -5   1   2    0.40    0.07
  -5   1   2    0.59    0.05
  -5   1   2    0.44    0.10
  -4   1   2   28.03    0.48
  -4   1   2   27.63    0.47
  -4   1   2   28.43    0.40
  -4   1   2   28.57    0.55
  -4   1   2   27.74    0.49
  -3   1   2   71.78    0.99
  -3   1   2   72.83    0.98
  -3   1   2   74.87    1.05
  -3   1   2   73.72    0.93
  -3   1   2   73.16    0.99
   2  -1  -2    9.84    0.14
  -2   1   2    9.57    0.20
  -2   1   2   10.04    0.22
  -2   1   2   10.26    0.20
  -2   1   2    9.57    0.19
  -2   1   2    9.87    0.17
   1  -1  -2    6.89    0.11
  -1   1   2    6.76    0.14
  -1   1   2    7.08    0.15
  -1   1   2    7.11    0.14
  -1   1   2    6.95    0.13
  -1   1   2    6.80    0.13
   0  -1  -2    5.50    0.09
   0  -1  -2    5.63    0.11
   0   1   2    5.49    0.11
   0   1   2    5.50    0.12
   0   1   2    5.49    0.10
  -1  -1  -2   78.45    0.96
   1   1   2   75.70    0.96
   1   1   2   74.42    0.96
  -2  -1  -2   53.04    0.69
  -2  -1  -2   52.58    0.70
  -2  -1  -2   50.63    0.68
   2   1   2   51.17    0.68
   2   1   2   53.02    0.65
  -3  -1  -2    3.59    0.11
  -3  -1  -2    3.37    0.12
  -3  -1  -2    3.45    0.13
  -3  -1  -2    3.59    0.11
   3   1   2    3.53    0.11
  -4  -1  -2   27.94    0.43
  -4  -1  -2   28.46    0.51
  -4  -1  -2   28.81    0.43
  -4  -1  -2   27.94    0.47
   4   1   2   27.88    0.43
  -5  -1  -2    0.45    0.08
  -5  -1  -2    0.36    0.06
  -5  -1  -2    0.54    0.08
  -5  -1  -2    0.50    0.07
   5   1   2    0.53    0.06
  -6  -1  -2   41.97    0.63
  -6  -1  -2   41.40    0.70
  -6  -1  -2   41.26    0.78
   6   1   2   40.51    0.61
  -7  -1  -2    2.60    0.18
  -7  -1  -2    2.60    0.21
   7   1   2    2.30    0.12
  -8  -1  -2    0.04    0.09
  -8  -1  -2    0.16    0.09
  -9  -1  -2    1.41    0.20
  -9  -1  -2    1.85    0.19
  -8   2   2    7.93    0.37
  -8   2   2    8.16    0.32
  -8   2   2    7.82    0.39
  -7   2   2    0.05    0.05
  -7   2   2    0.10    0.09
  -7   2   2   -0.02    0.07
  -7   2   2   -0.04    0.10
  -6   2   2    0.07    0.05
  -6   2   2    0.05    0.07
  -6   2   2    0.26    0.10
  -6   2   2   -0.06    0.09
  -5   2   2    0.08    0.06
  -5   2   2    0.03    0.06
  -5   2   2    0.11    0.04
  -5   2   2    0.10    0.05
  -5   2   2   -0.06    0.08
   4  -2  -2    0.10    0.03
  -4   2   2    0.02    0.05
  -4   2   2    0.09    0.04
  -4   2   2    0.14    0.04
  -4   2   2    0.09    0.05
  -4   2   2    0.05    0.07
   3  -2  -2   74.96    0.93
  -3   2   2   75.10    1.08
  -3   2   2   73.63    1.01
  -3   2   2   74.05    1.03
  -3   2   2   74.02    1.01
  -3   2   2   75.54    0.97
   2  -2  -2    5.38    0.11
  -2   2   2    5.57    0.15
  -2   2   2    5.35    0.13
  -2   2   2    5.43    0.15
  -2   2   2    5.43    0.14
  -2   2   2    5.55    0.16
   1  -2  -2   13.62    0.22
  -1   2   2   13.42    0.21
  -1   2   2   13.41    0.21
  -1   2   2   13.36    0.23
  -1   2   2   14.13    0.25
  -1   2   2   13.38    0.24
   0  -2  -2    3.52    0.09
   0   2   2    3.47    0.10
   0   2   2    3.38    0.10
   0   2   2    3.34    0.06
  -1  -2  -2  135.36    1.70
  -1  -2  -2  132.62    1.66
   1   2   2  137.86    1.73
   1   2   2  137.36    1.75
   1   2   2  135.09    1.71
  -2  -2  -2   29.32    0.42
  -2  -2  -2   30.21    0.43
  -2  -2  -2   28.29    0.39
   2   2   2   28.63    0.40
   2   2   2   27.88    0.42
  -3  -2  -2   86.57    1.12
  -3  -2  -2   89.34    1.17
  -3  -2  -2   84.40    1.11
   3   2   2   86.36    1.07
   3   2   2   85.71    1.12
  -4  -2  -2    1.10    0.10
  -4  -2  -2    1.06    0.08
  -4  -2  -2    0.94    0.08
  -4  -2  -2    1.11    0.08
   4   2   2    1.15    0.08
  -5  -2  -2    9.91    0.30
  -5  -2  -2    9.56    0.24
  -5  -2  -2    9.66    0.25
  -5  -2  -2   10.20    0.23
   5   2   2    9.82    0.22
  -6  -2  -2   60.23    0.92
  -6  -2  -2   59.39    0.88
  -6  -2  -2   59.82    1.01
   6   2   2   58.72    0.84
  -7  -2  -2    1.25    0.13
  -7  -2  -2    0.92    0.14
   7   2   2    1.00    0.09
  -8  -2  -2   16.87    0.52
  -8  -2  -2   17.31    0.44
  -9  -2  -2    0.55    0.15
  -9  -2  -2    0.81    0.14
  -8   3   2    0.52    0.16
  -8   3   2    0.57    0.13
  -8   3   2    0.51    0.15
  -7   3   2    3.56    0.22
  -7   3   2    3.59    0.26
  -7   3   2    3.15    0.26
  -6   3   2    1.51    0.18
  -6   3   2    1.17    0.13
  -6   3   2    1.43    0.17
   5  -3  -2   10.54    0.21
  -5   3   2   10.66    0.33
  -5   3   2   10.63    0.23
  -5   3   2   10.43    0.35
  -5   3   2   10.81    0.30
   4  -3  -2    6.38    0.15
  -4   3   2    6.17    0.17
  -4   3   2    6.69    0.24
  -4   3   2    6.25    0.21
  -4   3   2    6.04    0.25
   3  -3  -2    1.67    0.08
  -3   3   2    1.71    0.08
  -3   3   2    1.60    0.12
  -3   3   2    1.69    0.12
  -3   3   2    1.85    0.11
  -3   3   2    1.74    0.07
  -3   3   2    1.80    0.10
   2  -3  -2    0.10    0.04
  -2   3   2    0.11    0.02
  -2   3   2    0.06    0.04
  -2   3   2    0.08    0.04
  -2   3   2    0.07    0.04
  -2   3   2    0.08    0.03
  -2   3   2    0.11    0.05
   1  -3  -2  268.64    3.43
  -1   3   2  277.19    3.77
  -1   3   2  265.19    3.42
  -1   3   2  278.45    3.60
  -1   3   2  273.69    3.42
  -1   3   2  274.34    3.58
   0  -3  -2   37.42    0.53
   0   3   2   37.76    0.53
   0   3   2   37.38    0.54
   0   3   2   37.59    0.49
  -1  -3  -2   42.09    0.59
   1   3   2   41.30    0.59
   1   3   2   42.80    0.60
   1   3   2   41.67    0.59
  -2  -3  -2   40.55    0.53
  -2  -3  -2   40.54    0.58
   2   3   2   40.43    0.57
   2   3   2   41.35    0.60
   2   3   2   40.97    0.58
  -3  -3  -2   85.77    1.15
  -3  -3  -2   83.58    1.10
  -3  -3  -2   82.26    1.07
   3   3   2   82.50    1.07
   3   3   2   84.07    1.10
  -4  -3  -2    0.45    0.06
  -4  -3  -2    0.42    0.08
  -4  -3  -2    0.44    0.07
  -4  -3  -2    0.53    0.06
   4   3   2    0.38    0.05
   4   3   2    0.45    0.06
  -5  -3  -2    9.07    0.24
  -5  -3  -2    9.55    0.29
  -5  -3  -2    9.10    0.23
  -5  -3  -2    9.14    0.26
   5   3   2    9.03    0.22
  -6  -3  -2   -0.03    0.06
  -6  -3  -2    0.00    0.05
  -6  -3  -2    0.03    0.07
   6   3   2   -0.07    0.05
  -7  -3  -2    1.56    0.15
  -7  -3  -2    1.40    0.17
  -7  -3  -2    1.44    0.14
   7   3   2    1.49    0.11
  -8  -3  -2   -0.01    0.09
  -8  -3  -2    0.06    0.07
   8   3   2   -0.02    0.06
  -9  -3  -2    0.57    0.12
  -9  -3  -2    0.64    0.16
  -8   4   2    2.85    0.29
  -8   4   2    3.45    0.31
  -8   4   2    3.63    0.25
  -7   4   2    4.11    0.29
  -7   4   2    4.21    0.25
  -7   4   2    4.07    0.29
   6  -4  -2    2.04    0.11
  -6   4   2    1.90    0.19
  -6   4   2    2.10    0.20
  -6   4   2    2.22    0.18
   5  -4  -2   56.88    0.81
  -5   4   2   58.16    0.83
  -5   4   2   58.01    0.93
  -5   4   2   59.65    1.05
  -5   4   2   57.34    0.96
   4  -4  -2   83.56    1.11
  -4   4   2   82.88    1.23
  -4   4   2   84.37    1.14
  -4   4   2   82.99    1.19
  -4   4   2   83.68    1.30
   3  -4  -2    0.79    0.08
  -3   4   2    0.67    0.10
  -3   4   2    0.60    0.08
  -3   4   2    0.58    0.07
  -3   4   2    0.70    0.06
  -3   4   2    0.59    0.08
  -3   4   2    0.67    0.10
   2  -4  -2   28.25    0.45
  -2   4   2   28.29    0.47
  -2   4   2   28.24    0.49
  -2   4   2   28.60    0.40
  -2   4   2   29.38    0.46
  -2   4   2   28.50    0.44
   1  -4  -2  173.45    2.15
  -1   4   2  170.35    2.32
  -1   4   2  175.82    2.15
  -1   4   2  172.32    2.12
  -1   4   2  169.25    2.24
  -1   4   2  173.87    2.18
   0  -4  -2   94.75    1.24
   0   4   2   95.40    1.26
   0   4   2   94.21    1.24
   0   4   2   96.08    1.20
   0   4   2   95.20    1.25
  -1  -4  -2   11.66    0.24
   1   4   2   11.47    0.24
   1   4   2   11.07    0.21
   1   4   2   11.41    0.25
   1   4   2   11.47    0.24
  -2  -4  -2  119.60    1.56
   2   4   2  121.29    1.55
   2   4   2  120.98    1.56
   2   4   2  122.91    1.57
   2   4   2  122.34    1.56
  -3  -4  -2   19.73    0.36
  -3  -4  -2   19.08    0.31
   3   4   2   19.26    0.34
   3   4   2   19.50    0.37
   3   4   2   19.91    0.36
  -4  -4  -2   18.33    0.32
  -4  -4  -2   18.07    0.35
  -4  -4  -2   18.81    0.41
   4   4   2   18.56    0.32
   4   4   2   18.23    0.35
  -5  -4  -2    3.57    0.21
  -5  -4  -2    3.60    0.21
  -5  -4  -2    3.86    0.15
  -5  -4  -2    3.50    0.19
   5   4   2    3.87    0.16
   5   4   2    3.73    0.18
  -6  -4  -2   14.08    0.40
  -6  -4  -2   13.53    0.36
  -6  -4  -2   13.80    0.32
   6   4   2   14.48    0.31
  -7  -4  -2    2.07    0.20
  -7  -4  -2    2.40    0.19
  -7  -4  -2    2.44    0.15
   7   4   2    2.41    0.14
  -8  -4  -2    7.21    0.35
  -8  -4  -2    6.98    0.26
   8   4   2    7.20    0.22
  -7   5   2   -0.01    0.09
  -7   5   2    0.12    0.14
  -7   5   2    0.21    0.11
   6  -5  -2    0.49    0.08
  -6   5   2    0.39    0.13
  -6   5   2    0.36    0.12
  -6   5   2    0.19    0.09
   5  -5  -2   46.41    0.71
  -5   5   2   47.29    0.74
  -5   5   2   46.79    0.92
  -5   5   2   47.78    0.81
  -5   5   2   47.22    0.86
   4  -5  -2    6.94    0.21
  -4   5   2    7.37    0.23
  -4   5   2    7.27    0.25
  -4   5   2    7.51    0.31
  -4   5   2    7.02    0.27
   3  -5  -2   17.38    0.34
  -3   5   2   16.79    0.36
  -3   5   2   17.06    0.29
  -3   5   2   17.57    0.34
  -3   5   2   17.56    0.40
  -3   5   2   17.49    0.36
  -3   5   2   17.51    0.44
   2  -5  -2   19.83    0.37
  -2   5   2   20.39    0.37
  -2   5   2   19.96    0.31
  -2   5   2   20.11    0.37
  -2   5   2   19.18    0.40
  -2   5   2   19.50    0.39
   1  -5  -2   88.76    1.20
  -1   5   2   89.90    1.20
  -1   5   2   89.24    1.23
  -1   5   2   89.86    1.23
  -1   5   2   89.69    1.14
   0  -5  -2    0.55    0.07
   0   5   2    0.53    0.08
   0   5   2    0.55    0.07
   0   5   2    0.43    0.07
   0   5   2    0.54    0.05
  -1  -5  -2    2.42    0.12
   1   5   2    2.29    0.14
   1   5   2    2.82    0.12
   1   5   2    2.61    0.10
   1   5   2    2.42    0.12
  -2  -5  -2   -0.01    0.04
   2   5   2    0.03    0.05
   2   5   2   -0.01    0.04
   2   5   2    0.05    0.04
   2   5   2    0.02    0.05
  -3  -5  -2    5.19    0.18
   3   5   2    4.98    0.18
   3   5   2    5.16    0.18
   3   5   2    4.95    0.17
   3   5   2    5.23    0.18
  -4  -5  -2    3.01    0.15
  -4  -5  -2    2.88    0.12
   4   5   2    2.90    0.15
   4   5   2    2.92    0.14
   4   5   2    2.97    0.16
   4   5   2    3.07    0.15
  -5  -5  -2    2.13    0.20
  -5  -5  -2    1.84    0.11
   5   5   2    1.99    0.12
   5   5   2    1.98    0.13
  -6  -5  -2    0.81    0.13
  -6  -5  -2    1.00    0.10
  -6  -5  -2    0.90    0.14
   6   5   2    1.05    0.11
  -7  -5  -2    2.33    0.20
  -7  -5  -2    2.56    0.16
  -7  -5  -2    2.26    0.21
   7   5   2    2.27    0.15
  -8  -5  -2   11.46    0.44
  -8  -5  -2   12.62    0.35
   8   5   2   11.45    0.30
  -7   6   2    8.83    0.44
  -7   6   2    9.69    0.37
  -7   6   2    9.75    0.44
   6  -6  -2    5.31    0.20
  -6   6   2    5.62    0.32
  -6   6   2    5.36    0.26
  -6   6   2    5.63    0.33
   5  -6  -2    4.28    0.19
  -5   6   2    4.55    0.23
  -5   6   2    4.54    0.27
  -5   6   2    4.10    0.19
  -5   6   2    4.60    0.28
   4  -6  -2    2.80    0.16
  -4   6   2    2.77    0.17
  -4   6   2    3.21    0.23
  -4   6   2    2.59    0.21
  -4   6   2    2.59    0.17
   3  -6  -2   -0.01    0.06
  -3   6   2   -0.04    0.07
  -3   6   2   -0.05    0.06
  -3   6   2   -0.08    0.05
  -3   6   2    0.04    0.06
   2  -6  -2    8.18    0.24
  -2   6   2    7.77    0.26
  -2   6   2    7.79    0.18
  -2   6   2    7.97    0.23
  -2   6   2    7.77    0.25
  -2   6   2    7.67    0.22
   1  -6  -2    0.63    0.09
  -1   6   2    0.45    0.09
  -1   6   2    0.45    0.08
  -1   6   2    0.41    0.05
  -1   6   2    0.41    0.07
   0  -6  -2   -0.06    0.05
   0   6   2    0.05    0.06
   0   6   2    0.01    0.04
   0   6   2    0.00    0.05
   0   6   2   -0.12    0.06
  -1  -6  -2   21.93    0.42
   1   6   2   22.07    0.41
   1   6   2   21.37    0.42
   1   6   2   21.53    0.44
   1   6   2   22.13    0.39
  -2  -6  -2    1.39    0.12
   2   6   2    1.38    0.12
   2   6   2    1.55    0.13
   2   6   2    1.48    0.11
   2   6   2    1.35    0.10
  -3  -6  -2    8.83    0.25
   3   6   2    9.16    0.26
   3   6   2    8.77    0.24
   3   6   2    8.72    0.24
   3   6   2    9.08    0.26
  -4  -6  -2    0.44    0.08
   4   6   2    0.35    0.08
   4   6   2    0.46    0.09
   4   6   2    0.40    0.09
   4   6   2    0.36    0.08
  -5  -6  -2   16.18    0.36
   5   6   2   15.78    0.34
   5   6   2   15.61    0.38
   5   6   2   16.03    0.37
   5   6   2   15.93    0.36
  -6  -6  -2    0.37    0.12
   6   6   2    0.55    0.11
   6   6   2    0.47    0.09
  -7  -6  -2    0.11    0.11
   7   6   2    0.17    0.08
   7   6   2    0.15    0.10
  -8  -6  -2   16.44    0.49
   8   6   2   16.71    0.39
   8   6   2   18.39    0.50
   6  -7  -2    0.80    0.12
  -6   7   2    0.58    0.16
  -6   7   2    0.78    0.14
  -6   7   2    0.69    0.18
   5  -7  -2    0.73    0.11
  -5   7   2    0.42    0.13
  -5   7   2    0.54    0.14
  -5   7   2    0.60    0.12
   4  -7  -2    0.90    0.12
  -4   7   2    0.59    0.11
  -4   7   2    0.66    0.11
  -4   7   2    0.73    0.14
  -4   7   2    0.73    0.14
   3  -7  -2    7.95    0.26
  -3   7   2    8.00    0.26
  -3   7   2    8.12    0.30
  -3   7   2    7.94    0.28
   2  -7  -2   12.07    0.31
  -2   7   2   11.95    0.31
  -2   7   2   12.10    0.34
  -2   7   2   11.80    0.29
  -2   7   2   11.99    0.25
  -2   7   2   12.13    0.34
   1  -7  -2    6.08    0.22
  -1   7   2    6.22    0.23
  -1   7   2    6.29    0.22
  -1   7   2    6.19    0.18
  -1   7   2    6.54    0.25
   0  -7  -2    0.68    0.10
   0   7   2    0.64    0.11
   0   7   2    0.67    0.08
   0   7   2    0.67    0.09
   0   7   2    0.64    0.09
  -1  -7  -2    3.04    0.17
   1   7   2    2.56    0.16
   1   7   2    2.97    0.19
   1   7   2    2.62    0.15
   1   7   2    2.86    0.14
  -2  -7  -2   11.53    0.31
   2   7   2   11.29    0.32
   2   7   2   11.46    0.28
   2   7   2   11.62    0.29
   2   7   2   11.17    0.31
  -3  -7  -2   18.16    0.40
   3   7   2   17.90    0.39
   3   7   2   17.87    0.37
   3   7   2   18.04    0.41
   3   7   2   17.70    0.40
  -4  -7  -2   10.72    0.30
   4   7   2   10.43    0.30
   4   7   2   10.40    0.27
   4   7   2   10.31    0.30
   4   7   2   10.43    0.30
   5   7   2    0.17    0.08
   5   7   2    0.28    0.09
   5   7   2    0.24    0.07
  -6  -7  -2    6.35    0.33
   6   7   2    6.42    0.27
   6   7   2    6.22    0.25
  -7  -7  -2    2.73    0.26
   7   7   2    2.36    0.21
   7   7   2    2.36    0.18
   5  -8  -2    2.34    0.19
  -5   8   2    2.30    0.20
  -5   8   2    2.39    0.25
  -5   8   2    3.28    0.29
   4  -8  -2   10.91    0.33
  -4   8   2   11.40    0.34
  -4   8   2   11.01    0.35
  -4   8   2   10.79    0.39
  -4   8   2    8.78    0.40
   3  -8  -2    9.94    0.31
  -3   8   2    9.60    0.33
  -3   8   2    9.84    0.35
  -3   8   2    9.93    0.30
   2  -8  -2   12.37    0.34
  -2   8   2   12.33    0.37
  -2   8   2   12.61    0.34
  -2   8   2   12.37    0.37
   1  -8  -2   16.97    0.41
  -1   8   2   16.56    0.43
  -1   8   2   17.13    0.40
  -1   8   2   17.41    0.42
  -1   8   2   16.67    0.34
   0  -8  -2    5.08    0.22
   0   8   2    5.38    0.22
   0   8   2    5.60    0.23
   0   8   2    5.17    0.18
   0   8   2    5.07    0.24
  -1  -8  -2   22.67    0.48
   1   8   2   23.22    0.44
   1   8   2   22.83    0.51
   1   8   2   23.22    0.46
   1   8   2   23.25    0.49
  -2  -8  -2   17.94    0.42
   2   8   2   16.00    0.42
   2   8   2   16.82    0.37
   2   8   2   17.05    0.38
   2   8   2   17.23    0.41
  -3  -8  -2    0.37    0.10
   3   8   2    0.36    0.08
   3   8   2    0.32    0.10
   3   8   2    0.52    0.11
  -4  -8  -2    1.14    0.13
   4   8   2    1.06    0.13
   4   8   2    1.04    0.12
   4   8   2    0.93    0.12
   5   8   2    0.06    0.07
   5   8   2    0.07    0.08
   5   8   2    0.07    0.08
  -6  -8  -2    0.15    0.14
   6   8   2   -0.01    0.09
   6   8   2    0.10    0.10
  -7  -8  -2    4.86    0.35
   7   8   2    5.31    0.26
   7   8   2    5.33    0.29
   4  -9  -2    0.08    0.10
  -4   9   2    0.09    0.13
  -4   9   2    0.08    0.09
  -4   9   2    0.10    0.11
   3  -9  -2   -0.02    0.10
  -3   9   2    0.14    0.09
  -3   9   2    0.07    0.11
   2  -9  -2    1.05    0.14
  -2   9   2    1.06    0.15
  -2   9   2    1.56    0.17
  -2   9   2    1.14    0.14
   1  -9  -2    5.13    0.24
  -1   9   2    4.82    0.23
  -1   9   2    4.57    0.24
  -1   9   2    5.16    0.26
   0  -9  -2    2.03    0.18
   0   9   2    2.73    0.18
   0   9   2    2.55    0.19
   0   9   2    2.44    0.15
   0   9   2    2.70    0.20
  -1  -9  -2    5.23    0.24
   1   9   2    5.24    0.24
   1   9   2    5.78    0.27
   1   9   2    5.63    0.23
   1   9   2    5.56    0.21
  -2  -9  -2    4.94    0.24
   2   9   2    5.09    0.24
   2   9   2    5.35    0.26
   2   9   2    5.24    0.21
  -3  -9  -2    0.26    0.09
   3   9   2    0.11    0.09
   3   9   2    0.08    0.09
   3   9   2    0.17    0.08
  -4  -9  -2    2.28    0.18
   4   9   2    2.23    0.19
   4   9   2    1.83    0.16
   4   9   2    2.11    0.19
   5   9   2    4.07    0.24
   5   9   2    4.10    0.23
   5   9   2    4.13    0.22
  -6  -9  -2    6.45    0.40
   6   9   2    6.65    0.30
   6   9   2    6.67    0.29
   3 -10  -2    0.46    0.14
  -3  10   2    0.34    0.12
  -3  10   2    0.55    0.15
   2 -10  -2    0.08    0.11
  -2  10   2    0.29    0.12
  -2  10   2    0.18    0.10
   1 -10  -2    3.58    0.24
  -1  10   2    3.89    0.26
  -1  10   2    4.00    0.24
  -1  10   2    3.48    0.23
   0 -10  -2   -0.02    0.09
   0  10   2    0.29    0.10
   0  10   2    0.22    0.11
   0  10   2   -0.04    0.09
  -1 -10  -2    0.30    0.11
   1  10   2    0.28    0.11
   1  10   2    0.18    0.10
   1  10   2    0.22    0.08
  -2 -10  -2    5.19    0.27
   2  10   2    5.49    0.23
   2  10   2    5.31    0.27
   2  10   2    5.64    0.29
  -3 -10  -2   -0.04    0.09
   3  10   2    0.01    0.08
   3  10   2    0.16    0.09
   3  10   2    0.11    0.10
  -4 -10  -2   13.26    0.41
   4  10   2   13.44    0.42
   4  10   2   13.44    0.39
   4  10   2   13.36    0.41
   5  10   2   11.55    0.38
   5  10   2   12.17    0.39
   5  10   2   12.40    0.40
   0 -11  -2    1.40    0.19
   0  11   2    1.47    0.19
   0  11   2    1.52    0.18
  -1 -11  -2    1.92    0.20
   1  11   2    1.55    0.19
   1  11   2    1.67    0.20
  -2 -11  -2    6.16    0.30
   2  11   2    5.99    0.26
   2  11   2    7.05    0.32
   2  11   2    6.81    0.33
  -3 -11  -2    0.57    0.14
   3  11   2    0.47    0.14
   3  11   2    0.72    0.14
   3  11   2    0.58    0.13
   3  10  -3   -0.11    0.13
   3  10  -3    0.07    0.11
   3  10  -3    0.00    0.11
  -3 -10   3   -0.06    0.16
   2  10  -3    3.16    0.26
   2  10  -3    3.39    0.23
   2  10  -3    2.35    0.24
  -2 -10   3    2.92    0.31
  -2 -10   3    3.17    0.25
   1  10  -3   -0.16    0.11
   1  10  -3   -0.16    0.12
   1  10  -3   -0.07    0.08
  -1 -10   3    0.08    0.12
   0  10  -3    5.27    0.26
   0  10  -3    5.45    0.33
   0 -10   3    5.04    0.29
  -1  10  -3    0.00    0.09
  -1  10  -3    0.09    0.13
  -1  10  -3    0.10    0.14
   1 -10   3    0.18    0.12
   5   9  -3   -0.27    0.12
   5   9  -3    0.19    0.11
   5   9  -3   -0.08    0.10
  -5  -9   3    0.04    0.16
   4   9  -3    7.25    0.30
   4   9  -3    7.49    0.32
   4   9  -3    6.78    0.35
  -4  -9   3    7.87    0.43
   3   9  -3    9.27    0.39
   3   9  -3    9.47    0.34
   3   9  -3    9.76    0.34
  -3  -9   3   10.41    0.46
   2   9  -3   14.55    0.41
   2   9  -3   14.80    0.42
   2   9  -3   14.52    0.47
  -2  -9   3   14.78    0.42
   1   9  -3    3.56    0.28
   1   9  -3    3.74    0.21
   1   9  -3    3.77    0.24
  -1  -9   3    3.98    0.24
   0   9  -3   17.66    0.51
   0   9  -3   18.00    0.44
   0  -9   3   18.20    0.47
  -1   9  -3    0.99    0.17
  -1   9  -3    1.10    0.14
  -1   9  -3    0.90    0.16
   1  -9   3    1.26    0.17
  -2   9  -3    0.22    0.09
  -2   9  -3    0.11    0.12
  -2   9  -3    0.15    0.13
   2  -9   3   -0.02    0.10
  -3   9  -3    0.24    0.10
  -3   9  -3    0.33    0.12
  -3   9  -3    0.22    0.12
  -3   9  -3    0.24    0.17
   3  -9   3    0.05    0.11
   6   8  -3    1.34    0.15
   6   8  -3    1.44    0.18
  -6  -8   3    1.03    0.20
   5   8  -3   14.58    0.43
   5   8  -3   14.47    0.39
  -5  -8   3   14.38    0.52
   4   8  -3   24.73    0.53
   4   8  -3   25.05    0.56
  -4  -8   3   25.84    0.68
   3   8  -3   85.98    1.31
   3   8  -3   84.06    1.28
  -3  -8   3   88.65    1.37
  -3  -8   3   87.66    1.45
   2   8  -3   29.89    0.59
   2   8  -3   29.92    0.60
  -2  -8   3   30.53    0.60
   1   8  -3   26.54    0.56
   1   8  -3   27.17    0.55
  -1  -8   3   27.00    0.56
   0   8  -3    0.38    0.09
   0   8  -3    0.51    0.12
   0  -8   3    0.59    0.12
  -1   8  -3    2.68    0.17
  -1   8  -3    1.94    0.19
   1  -8   3    2.61    0.20
  -2   8  -3    0.07    0.08
  -2   8  -3   -0.02    0.10
  -2   8  -3    0.05    0.11
  -2   8  -3    0.05    0.10
   2  -8   3   -0.16    0.08
  -3   8  -3    0.49    0.14
  -3   8  -3    0.80    0.16
  -3   8  -3    0.79    0.14
  -3   8  -3    0.75    0.12
   3  -8   3    0.79    0.14
  -4   8  -3    1.88    0.18
  -4   8  -3    1.60    0.21
  -4   8  -3    1.87    0.17
   4  -8   3    1.87    0.19
   7   7  -3    0.00    0.10
   7   7  -3    0.13    0.11
  -7  -7   3   -0.12    0.11
   6   7  -3    2.49    0.21
   6   7  -3    2.21    0.18
  -6  -7   3    2.08    0.23
   5   7  -3    0.10    0.09
   5   7  -3    0.01    0.08
  -5  -7   3    0.09    0.12
   4   7  -3   44.36    0.78
   4   7  -3   43.39    0.74
  -4  -7   3   44.80    0.89
   3   7  -3    4.36    0.21
   3   7  -3    4.32    0.21
  -3  -7   3    4.32    0.20
  -3  -7   3    4.42    0.29
   2   7  -3    4.39    0.21
   2   7  -3    4.43    0.20
  -2  -7   3    4.59    0.21
   1   7  -3    3.04    0.19
   1   7  -3    2.94    0.17
  -1  -7   3    2.94    0.18
   0   7  -3    0.09    0.08
   0   7  -3    0.10    0.07
   0  -7   3    0.09    0.08
  -1   7  -3    2.75    0.18
  -1   7  -3    2.41    0.16
   1  -7   3    2.46    0.18
  -2   7  -3    0.47    0.12
  -2   7  -3    0.26    0.10
  -2   7  -3    0.25    0.11
  -2   7  -3    0.38    0.09
   2  -7   3    0.40    0.11
  -3   7  -3   24.42    0.56
  -3   7  -3   25.26    0.50
  -3   7  -3   24.65    0.54
  -3   7  -3   23.77    0.51
   3  -7   3   24.17    0.53
  -4   7  -3   12.17    0.34
  -4   7  -3   13.15    0.38
  -4   7  -3   12.68    0.43
   4  -7   3   12.67    0.37
  -5   7  -3    0.04    0.11
  -5   7  -3   -0.11    0.14
  -5   7  -3    0.12    0.08
   5  -7   3    0.15    0.10
   7   6  -3    0.46    0.12
  -7  -6   3    0.33    0.13
   6   6  -3    2.98    0.21
   6   6  -3    2.69    0.16
  -6  -6   3    2.89    0.26
   5   6  -3    0.23    0.09
   5   6  -3    0.24    0.08
  -5  -6   3    0.12    0.11
   4   6  -3    0.61    0.10
   4   6  -3    0.55    0.09
  -4  -6   3    0.60    0.14
   3   6  -3    0.97    0.11
   3   6  -3    1.20    0.12
  -3  -6   3    1.11    0.11
  -3  -6   3    0.96    0.15
   2   6  -3    1.26    0.12
   2   6  -3    1.21    0.12
  -2  -6   3    1.17    0.12
   1   6  -3   19.12    0.40
   1   6  -3   19.18    0.40
  -1  -6   3   18.87    0.40
   0   6  -3    0.06    0.06
   0   6  -3    0.00    0.06
   0   6  -3   -0.03    0.07
   0  -6   3    0.00    0.07
  -1   6  -3    2.70    0.17
  -1   6  -3    2.38    0.14
   1  -6   3    2.67    0.17
  -2   6  -3   53.59    0.83
  -2   6  -3   54.85    0.87
  -2   6  -3   53.72    0.85
   2  -6   3   52.48    0.85
  -3   6  -3   46.76    0.78
  -3   6  -3   46.95    0.80
  -3   6  -3   46.65    0.76
  -3   6  -3   47.14    0.82
   3  -6   3   46.93    0.79
  -4   6  -3    1.42    0.15
  -4   6  -3    1.36    0.18
  -4   6  -3    1.38    0.14
  -4   6  -3    1.37    0.13
   4  -6   3    1.14    0.13
  -5   6  -3    6.08    0.33
  -5   6  -3    5.69    0.29
  -5   6  -3    7.07    0.26
   5  -6   3    6.26    0.26
  -6   6  -3    0.15    0.12
  -6   6  -3    0.19    0.12
  -6   6  -3    0.49    0.14
  -6   6  -3    0.20    0.18
   6  -6   3    0.32    0.11
   8   5  -3    0.10    0.11
  -8  -5   3   -0.04    0.10
  -8  -5   3   -0.12    0.09
   7   5  -3    1.41    0.16
  -7  -5   3    1.16    0.18
  -7  -5   3    1.21    0.15
   6   5  -3    3.80    0.16
   6   5  -3    3.89    0.22
  -6  -5   3    3.66    0.25
   5   5  -3    2.62    0.14
   5   5  -3    2.65    0.17
  -5  -5   3    2.72    0.22
   4   5  -3    0.12    0.07
   4   5  -3    0.23    0.07
  -4  -5   3    0.09    0.10
   3   5  -3    1.12    0.10
   3   5  -3    1.13    0.11
  -3  -5   3    1.32    0.15
  -3  -5   3    1.33    0.11
   2   5  -3   13.97    0.32
   2   5  -3   14.40    0.31
  -2  -5   3   13.93    0.30
  -2  -5   3   14.43    0.39
   1   5  -3   25.68    0.46
   1   5  -3   25.08    0.38
   1   5  -3   25.48    0.46
  -1  -5   3   25.12    0.45
   0   5  -3   12.25    0.29
   0   5  -3   11.91    0.28
   0   5  -3   11.63    0.25
   0  -5   3   11.48    0.28
  -1   5  -3    6.28    0.20
  -1   5  -3    6.29    0.22
   1  -5   3    6.37    0.21
  -2   5  -3   12.02    0.32
  -2   5  -3   11.89    0.30
  -2   5  -3   12.32    0.29
   2  -5   3   12.59    0.31
  -3   5  -3    1.42    0.12
  -3   5  -3    1.67    0.17
  -3   5  -3    1.42    0.12
  -3   5  -3    1.40    0.14
   3  -5   3    1.71    0.14
  -4   5  -3   45.26    0.82
  -4   5  -3   44.55    0.74
  -4   5  -3   44.85    0.73
  -4   5  -3   45.01    0.74
   4  -5   3   45.11    0.75
  -5   5  -3    6.48    0.24
  -5   5  -3    6.03    0.33
  -5   5  -3    6.44    0.33
  -5   5  -3    6.32    0.29
   5  -5   3    6.27    0.24
  -6   5  -3    1.55    0.18
  -6   5  -3    1.31    0.19
  -6   5  -3    1.49    0.15
  -6   5  -3    1.34    0.20
   6  -5   3    1.57    0.15
  -7   5  -3    0.07    0.11
  -7   5  -3    0.06    0.11
  -7   5  -3   -0.16    0.17
   7  -5   3    0.05    0.08
   8   4  -3    0.47    0.12
  -8  -4   3    0.16    0.10
  -8  -4   3    0.14    0.12
  -8  -4   3    0.29    0.12
   7   4  -3    2.01    0.17
  -7  -4   3    1.82    0.19
  -7  -4   3    1.98    0.17
   6   4  -3    8.18    0.20
   6   4  -3    8.27    0.28
  -6  -4   3    8.62    0.28
  -6  -4   3    8.47    0.32
   5   4  -3   39.63    0.59
   5   4  -3   40.27    0.68
  -5  -4   3   39.71    0.67
  -5  -4   3   39.86    0.74
   4   4  -3    0.07    0.07
   4   4  -3    0.14    0.06
  -4  -4   3    0.10    0.09
   3   4  -3    3.77    0.16
   3   4  -3    3.93    0.15
  -3  -4   3    3.77    0.14
  -3  -4   3    4.21    0.22
   2   4  -3    7.94    0.21
   2   4  -3    7.72    0.20
  -2  -4   3    7.66    0.20
  -2  -4   3    8.21    0.27
   1   4  -3   12.32    0.27
   1   4  -3   12.40    0.20
   1   4  -3   12.42    0.27
  -1  -4   3   12.31    0.26
   0   4  -3    0.90    0.08
   0   4  -3    0.79    0.08
   0   4  -3    0.79    0.07
   0  -4   3    0.83    0.08
  -1   4  -3    6.24    0.19
  -1   4  -3    6.32    0.18
  -1   4  -3    6.65    0.20
   1  -4   3    6.53    0.19
  -2   4  -3    0.02    0.08
  -2   4  -3    0.02    0.06
  -2   4  -3    0.01    0.04
   2  -4   3    0.02    0.06
  -3   4  -3   36.81    0.60
  -3   4  -3   36.96    0.66
  -3   4  -3   36.73    0.60
   3  -4   3   36.83    0.61
  -4   4  -3    4.46    0.18
  -4   4  -3    4.55    0.25
  -4   4  -3    4.59    0.18
  -4   4  -3    4.71    0.19
   4  -4   3    4.22    0.19
  -5   4  -3   21.08    0.53
  -5   4  -3   21.40    0.50
  -5   4  -3   21.36    0.44
  -5   4  -3   20.44    0.58
   5  -4   3   20.82    0.43
  -6   4  -3    2.98    0.18
  -6   4  -3    2.63    0.21
  -6   4  -3    3.24    0.29
  -6   4  -3    3.03    0.25
   6  -4   3    3.01    0.18
  -7   4  -3   -0.12    0.16
  -7   4  -3    0.09    0.10
  -7   4  -3    0.20    0.11
   7  -4   3    0.17    0.08
   8   3  -3   14.50    0.40
  -8  -3   3   13.88    0.43
  -8  -3   3   13.29    0.50
  -8  -3   3   14.86    0.42
   7   3  -3    1.60    0.15
  -7  -3   3    1.91    0.17
  -7  -3   3    1.51    0.20
  -7  -3   3    1.35    0.16
   6   3  -3  113.23    1.55
  -6  -3   3  110.35    1.73
  -6  -3   3  112.69    1.63
  -6  -3   3  110.40    1.57
   5   3  -3    3.58    0.17
   5   3  -3    3.34    0.12
  -5  -3   3    4.00    0.23
  -5  -3   3    3.44    0.20
  -5  -3   3    3.67    0.17
   4   3  -3    2.26    0.10
   4   3  -3    2.41    0.13
  -4  -3   3    2.46    0.18
  -4  -3   3    2.30    0.13
   3   3  -3  121.06    1.61
   3   3  -3  123.45    1.56
  -3  -3   3  126.06    1.56
  -3  -3   3  125.32    1.68
   2   3  -3    1.39    0.09
   2   3  -3    1.30    0.09
  -2  -3   3    1.32    0.12
  -2  -3   3    1.34    0.08
   1   3  -3    5.65    0.15
   1   3  -3    5.67    0.16
  -1  -3   3    5.46    0.15
  -1  -3   3    5.41    0.19
   0   3  -3    0.03    0.04
   0   3  -3    0.04    0.03
   0  -3   3    0.03    0.04
  -1   3  -3   25.29    0.42
  -1   3  -3   25.06    0.41
  -1   3  -3   25.39    0.42
   1  -3   3   24.98    0.42
  -2   3  -3   16.62    0.31
  -2   3  -3   17.09    0.35
  -2   3  -3   16.64    0.32
   2  -3   3   16.87    0.32
  -3   3  -3    1.33    0.10
  -3   3  -3    1.34    0.11
  -3   3  -3    1.31    0.14
   3  -3   3    1.25    0.11
  -4   3  -3    0.25    0.07
  -4   3  -3    0.15    0.11
  -4   3  -3    0.22    0.07
   4  -3   3    0.43    0.08
  -5   3  -3    1.10    0.16
  -5   3  -3    0.91    0.12
  -5   3  -3    1.01    0.11
  -5   3  -3    0.81    0.15
   5  -3   3    1.02    0.11
  -6   3  -3    9.88    0.30
  -6   3  -3   10.29    0.40
  -6   3  -3    9.90    0.34
  -6   3  -3    9.71    0.39
   6  -3   3    9.83    0.27
  -7   3  -3   -0.14    0.15
  -7   3  -3    0.13    0.11
  -7   3  -3    0.19    0.10
   7  -3   3    0.18    0.07
  -8   3  -3    2.51    0.24
  -8   3  -3    2.08    0.25
   8  -3   3    2.58    0.17
   8   2  -3    1.31    0.15
  -8  -2   3    0.79    0.13
  -8  -2   3    1.04    0.19
  -8  -2   3    1.01    0.14
   7   2  -3   31.55    0.58
  -7  -2   3   29.77    0.61
  -7  -2   3   31.26    0.63
  -7  -2   3   28.75    0.72
   6   2  -3    9.50    0.27
  -6  -2   3    9.12    0.30
  -6  -2   3    9.20    0.28
  -6  -2   3    9.12    0.35
   5   2  -3    0.20    0.07
  -5  -2   3    0.05    0.06
  -5  -2   3    0.02    0.06
  -5  -2   3   -0.02    0.06
   4   2  -3   31.98    0.52
   4   2  -3   32.70    0.44
  -4  -2   3   32.41    0.58
  -4  -2   3   32.01    0.54
  -4  -2   3   32.48    0.63
   3   2  -3    1.12    0.07
   3   2  -3    1.13    0.09
  -3  -2   3    1.20    0.11
  -3  -2   3    1.02    0.12
  -3  -2   3    1.08    0.09
   2   2  -3    3.58    0.10
   2   2  -3    3.58    0.12
  -2  -2   3    3.65    0.10
  -2  -2   3    3.40    0.14
   1   2  -3   41.83    0.59
   1   2  -3   41.78    0.58
  -1  -2   3   41.69    0.62
  -1  -2   3   42.44    0.58
   0   2  -3    1.37    0.08
   0   2  -3    1.52    0.08
   0  -2   3    1.76    0.08
   0  -2   3    1.64    0.09
  -1   2  -3    2.59    0.10
  -1   2  -3    2.65    0.11
  -1   2  -3    2.47    0.12
   1  -2   3    2.51    0.10
  -2   2  -3    6.45    0.17
  -2   2  -3    6.72    0.17
  -2   2  -3    6.48    0.20
   2  -2   3    6.74    0.17
  -3   2  -3   70.78    0.98
  -3   2  -3   72.51    1.05
  -3   2  -3   72.36    0.99
   3  -2   3   71.41    0.98
  -4   2  -3    7.91    0.29
  -4   2  -3    7.96    0.29
  -4   2  -3    8.15    0.21
  -4   2  -3    8.13    0.22
   4  -2   3    8.29    0.22
  -5   2  -3    3.35    0.21
  -5   2  -3    3.16    0.25
  -5   2  -3    3.41    0.16
  -5   2  -3    3.57    0.20
   5  -2   3    3.26    0.15
  -6   2  -3    1.36    0.19
  -6   2  -3    1.43    0.15
  -6   2  -3    1.60    0.18
   6  -2   3    1.54    0.12
  -7   2  -3    8.00    0.37
  -7   2  -3    8.79    0.33
   7  -2   3    8.23    0.24
  -8   2  -3    0.05    0.10
  -8   2  -3    0.15    0.11
   8  -2   3    0.37    0.08
  -9  -1   3    1.33    0.17
  -9  -1   3    0.98    0.20
   8   1  -3    0.41    0.16
  -8  -1   3    0.51    0.15
  -8  -1   3    0.32    0.10
  -8  -1   3    0.42    0.11
   7   1  -3    8.18    0.26
  -7  -1   3    8.08    0.29
  -7  -1   3    7.82    0.30
  -7  -1   3    8.00    0.28
  -7  -1   3    7.94    0.35
   6   1  -3    0.53    0.09
  -6  -1   3    0.37    0.08
  -6  -1   3    0.48    0.09
  -6  -1   3    0.48    0.11
  -6  -1   3    0.47    0.10
   5   1  -3    1.70    0.12
  -5  -1   3    1.84    0.14
  -5  -1   3    1.94    0.14
  -5  -1   3    1.81    0.13
  -5  -1   3    1.69    0.16
   4   1  -3   23.29    0.39
  -4  -1   3   23.25    0.38
  -4  -1   3   23.83    0.43
  -4  -1   3   23.51    0.50
  -4  -1   3   22.65    0.39
  -4  -1   3   23.33    0.44
   3   1  -3    2.32    0.10
  -3  -1   3    2.43    0.11
  -3  -1   3    2.17    0.09
  -3  -1   3    2.67    0.14
  -3  -1   3    2.41    0.10
  -3  -1   3    2.58    0.12
   2   1  -3   17.23    0.25
   2   1  -3   16.90    0.28
  -2  -1   3   16.96    0.30
  -2  -1   3   18.29    0.35
  -2  -1   3   16.82    0.25
  -2  -1   3   17.22    0.32
  -2  -1   3   17.66    0.29
   1   1  -3  114.70    1.41
   1   1  -3  112.54    1.42
  -1  -1   3  116.71    1.44
  -1  -1   3  111.68    1.42
  -1  -1   3  114.31    1.55
  -1  -1   3  114.81    1.42
  -1   1  -3   42.74    0.59
  -1   1  -3   43.54    0.60
   1  -1   3   44.35    0.56
   1  -1   3   43.72    0.60
  -2   1  -3   25.24    0.40
  -2   1  -3   26.04    0.40
  -2   1  -3   25.55    0.44
   2  -1   3   25.28    0.39
  -3   1  -3   22.51    0.44
  -3   1  -3   22.02    0.37
  -3   1  -3   22.29    0.38
   3  -1   3   22.41    0.37
  -4   1  -3   82.07    1.21
  -4   1  -3   81.50    1.14
  -4   1  -3   80.00    1.08
  -4   1  -3   81.28    1.19
  -4   1  -3   78.89    1.11
   4  -1   3   79.35    1.08
  -5   1  -3    3.66    0.20
  -5   1  -3    3.86    0.19
  -5   1  -3    3.82    0.15
   5  -1   3    3.75    0.15
  -6   1  -3   10.07    0.32
  -6   1  -3   10.35    0.36
   6  -1   3    9.87    0.25
  -7   1  -3    1.67    0.17
  -7   1  -3    2.00    0.20
   7  -1   3    2.08    0.13
  -8   1  -3    1.76    0.22
  -8   1  -3    1.78    0.19
   8  -1   3    1.81    0.13
  -8   0   3    1.23    0.20
  -8   0   3    1.49    0.19
  -8   0   3    1.20    0.14
  -8   0   3    1.49    0.16
  -7   0   3   10.49    0.33
  -7   0   3   11.23    0.35
  -7   0   3   10.85    0.32
  -7   0   3   10.45    0.41
  -6   0   3    0.53    0.09
  -6   0   3    0.54    0.12
  -6   0   3    0.63    0.10
  -6   0   3    0.66    0.11
  -5   0   3   35.39    0.60
  -5   0   3   35.90    0.52
  -5   0   3   35.97    0.62
  -5   0   3   36.00    0.61
  -5   0   3   36.02    0.71
   4   0  -3   14.79    0.27
  -4   0   3   14.54    0.31
  -4   0   3   14.68    0.37
  -4   0   3   14.72    0.26
  -4   0   3   14.90    0.32
  -4   0   3   14.46    0.30
   3   0  -3   21.25    0.33
  -3   0   3   21.84    0.38
  -3   0   3   22.75    0.43
  -3   0   3   22.31    0.34
  -3   0   3   22.47    0.39
  -3   0   3   21.38    0.35
   2   0  -3   35.66    0.48
  -2   0   3   36.55    0.50
  -2   0   3   34.54    0.49
  -2   0   3   35.35    0.51
  -2   0   3   35.91    0.53
   0   0  -3   -0.01    0.03
   0   0  -3    0.01    0.02
   0   0   3   -0.01    0.02
   0   0   3    0.04    0.03
   0   0   3   -0.02    0.03
  -1   0  -3   22.99    0.34
  -1   0  -3   23.00    0.34
   1   0   3   23.48    0.33
   1   0   3   22.16    0.31
   1   0   3   23.95    0.34
  -2   0  -3    0.05    0.03
  -2   0  -3    0.09    0.03
   2   0   3    0.05    0.03
   2   0   3   -0.01    0.03
  -3   0  -3   92.49    1.25
  -3   0  -3   90.89    1.18
  -3   0  -3   89.14    1.19
   3   0   3   89.76    1.17
  -4   0  -3    3.56    0.08
  -4   0  -3    3.74    0.13
  -4   0  -3    3.59    0.16
  -4   0  -3    3.74    0.16
   4   0   3    3.52    0.13
  -5   0  -3    0.21    0.07
  -5   0  -3    0.06    0.05
  -5   0  -3    0.12    0.06
   5   0   3    0.10    0.05
  -6   0  -3   23.48    0.55
  -6   0  -3   23.82    0.50
   6   0   3   23.24    0.42
  -7   0  -3    0.94    0.15
  -7   0  -3    1.80    0.17
   7   0   3    1.12    0.10
  -8   0  -3    0.19    0.11
  -8   0  -3    0.10    0.09
   8   0   3    0.26    0.07
  -9   0  -3    2.91    0.28
  -9   0  -3    3.55    0.24
  -8   1   3    2.42    0.17
  -8   1   3    2.23    0.20
  -8   1   3    2.09    0.21
  -8   1   3    2.47    0.26
  -7   1   3    1.76    0.14
  -7   1   3    1.27    0.16
  -7   1   3    1.56    0.16
  -7   1   3    1.79    0.21
  -6   1   3    1.00    0.15
  -6   1   3    0.89    0.11
  -6   1   3    1.03    0.13
  -6   1   3    1.12    0.12
  -5   1   3    4.86    0.18
  -5   1   3    4.49    0.19
  -5   1   3    4.45    0.23
  -5   1   3    4.55    0.13
  -5   1   3    4.59    0.20
  -4   1   3   31.38    0.53
  -4   1   3   31.33    0.53
  -4   1   3   31.98    0.53
  -4   1   3   31.76    0.60
  -4   1   3   31.62    0.46
  -3   1   3    0.19    0.05
  -3   1   3    0.25    0.05
  -3   1   3    0.28    0.04
  -3   1   3    0.15    0.05
  -3   1   3    0.20    0.04
   2  -1  -3    2.43    0.06
   2  -1  -3    2.44    0.06
  -2   1   3    2.43    0.10
  -2   1   3    2.47    0.09
  -2   1   3    2.34    0.09
  -2   1   3    2.47    0.11
  -2   1   3    2.29    0.09
   1  -1  -3   21.09    0.29
  -1   1   3   21.23    0.33
  -1   1   3   21.74    0.33
  -1   1   3   21.05    0.32
  -1   1   3   21.09    0.32
  -1   1   3   20.56    0.31
   0  -1  -3  111.11    1.42
   0  -1  -3  114.99    1.43
   0   1   3  118.64    1.42
   0   1   3  113.63    1.49
   0   1   3  114.36    1.44
   0   1   3  112.03    1.62
  -1  -1  -3    3.78    0.10
  -1  -1  -3    3.72    0.10
   1   1   3    3.93    0.10
   1   1   3    3.92    0.09
  -2  -1  -3    9.52    0.19
  -2  -1  -3    9.43    0.19
   2   1   3    9.15    0.18
   2   1   3    9.55    0.16
  -3  -1  -3    0.84    0.07
  -3  -1  -3    1.02    0.07
  -3  -1  -3    0.81    0.07
  -3  -1  -3    0.83    0.07
   3   1   3    0.80    0.07
  -4  -1  -3    0.92    0.09
  -4  -1  -3    0.94    0.08
  -4  -1  -3    0.96    0.09
  -4  -1  -3    0.89    0.07
   4   1   3    0.88    0.08
  -5  -1  -3   33.23    0.62
  -5  -1  -3   33.19    0.50
  -5  -1  -3   34.75    0.53
  -5  -1  -3   33.28    0.57
   5   1   3   33.76    0.53
  -6  -1  -3   93.30    1.34
  -6  -1  -3   93.30    1.43
   6   1   3   92.88    1.25
  -7  -1  -3    2.69    0.18
  -7  -1  -3    2.28    0.20
   7   1   3    2.51    0.13
  -8  -1  -3    3.55    0.26
  -8  -1  -3    3.68    0.22
   8   1   3    3.97    0.17
  -9  -1  -3    0.03    0.10
  -9  -1  -3    0.02    0.09
  -8   2   3    2.78    0.22
  -8   2   3    3.39    0.27
  -8   2   3    3.06    0.28
  -7   2   3    3.79    0.25
  -7   2   3    3.77    0.22
  -7   2   3    3.60    0.26
  -7   2   3    3.64    0.19
  -6   2   3    0.06    0.05
  -6   2   3    0.09    0.07
  -6   2   3    0.09    0.08
  -6   2   3   -0.01    0.09
  -5   2   3    0.00    0.04
  -5   2   3   -0.07    0.05
  -5   2   3    0.02    0.04
  -5   2   3    0.01    0.08
  -5   2   3   -0.01    0.06
  -4   2   3    4.64    0.19
  -4   2   3    4.77    0.17
  -4   2   3    4.94    0.18
  -4   2   3    4.87    0.21
  -4   2   3    4.95    0.14
   3  -2  -3   22.90    0.32
  -3   2   3   23.80    0.37
  -3   2   3   22.83    0.40
  -3   2   3   23.24    0.41
  -3   2   3   23.01    0.41
  -3   2   3   23.66    0.45
   2  -2  -3    6.38    0.13
  -2   2   3    6.25    0.17
  -2   2   3    6.24    0.17
  -2   2   3    6.40    0.18
  -2   2   3    6.21    0.15
  -2   2   3    6.44    0.15
   1  -2  -3    5.83    0.13
  -1   2   3    5.82    0.14
  -1   2   3    5.60    0.15
  -1   2   3    5.93    0.14
  -1   2   3    5.80    0.12
  -1   2   3    5.71    0.12
   0  -2  -3    4.10    0.11
   0   2   3    4.10    0.12
   0   2   3    4.08    0.11
   0   2   3    4.16    0.11
  -1  -2  -3   38.72    0.53
   1   2   3   37.95    0.53
   1   2   3   37.34    0.52
  -2  -2  -3  235.92    2.97
  -2  -2  -3  231.81    2.96
  -2  -2  -3  226.58    2.85
   2   2   3  231.08    2.90
   2   2   3  225.51    2.88
  -3  -2  -3    6.10    0.15
  -3  -2  -3    6.24    0.17
  -3  -2  -3    6.08    0.16
   3   2   3    6.05    0.16
   3   2   3    6.08    0.12
  -4  -2  -3    4.94    0.16
  -4  -2  -3    5.32    0.18
  -4  -2  -3    5.18    0.15
  -4  -2  -3    5.13    0.16
   4   2   3    5.28    0.15
  -5  -2  -3  181.43    2.33
  -5  -2  -3  185.02    2.42
  -5  -2  -3  183.77    2.30
  -5  -2  -3  179.08    2.30
   5   2   3  183.40    2.30
  -6  -2  -3   46.11    0.83
  -6  -2  -3   45.10    0.74
   6   2   3   46.82    0.70
  -7  -2  -3    1.74    0.15
  -7  -2  -3    2.03    0.19
   7   2   3    1.84    0.12
  -8  -2  -3    1.22    0.14
  -8  -2  -3    1.11    0.17
   8   2   3    1.16    0.11
  -9  -2  -3    1.00    0.18
  -9  -2  -3    1.27    0.16
  -8   3   3    1.09    0.16
  -8   3   3    1.27    0.21
  -8   3   3    1.30    0.20
  -7   3   3    0.60    0.14
  -7   3   3    0.52    0.12
  -7   3   3    0.56    0.14
  -6   3   3   13.90    0.37
  -6   3   3   13.11    0.44
  -6   3   3   14.06    0.40
   5  -3  -3   10.90    0.20
  -5   3   3   10.81    0.30
  -5   3   3   10.50    0.35
  -5   3   3   11.19    0.33
  -5   3   3   10.82    0.29
  -5   3   3   10.99    0.24
   4  -3  -3   45.49    0.61
  -4   3   3   44.65    0.71
  -4   3   3   45.06    0.74
  -4   3   3   45.03    0.66
  -4   3   3   44.59    0.79
   3  -3  -3   27.73    0.41
  -3   3   3   27.65    0.44
  -3   3   3   28.02    0.40
  -3   3   3   28.32    0.53
  -3   3   3   27.63    0.46
  -3   3   3   27.30    0.49
   2  -3  -3   17.42    0.29
  -2   3   3   17.29    0.30
  -2   3   3   17.42    0.31
  -2   3   3   17.64    0.28
  -2   3   3   18.00    0.35
  -2   3   3   17.42    0.34
   1  -3  -3    0.80    0.06
  -1   3   3    0.76    0.07
  -1   3   3    1.00    0.07
  -1   3   3    0.86    0.06
  -1   3   3    0.76    0.07
  -1   3   3    0.81    0.05
   0  -3  -3   16.32    0.28
   0   3   3   16.26    0.30
   0   3   3   16.31    0.28
   0   3   3   16.07    0.24
  -1  -3  -3   69.69    0.93
   1   3   3   70.32    0.95
   1   3   3   69.10    0.93
   1   3   3   69.95    0.93
  -2  -3  -3    9.31    0.15
  -2  -3  -3    9.47    0.21
   2   3   3    9.92    0.23
   2   3   3    9.66    0.20
   2   3   3    9.36    0.21
  -3  -3  -3    1.53    0.09
  -3  -3  -3    1.52    0.09
  -3  -3  -3    1.60    0.07
   3   3   3    1.59    0.08
   3   3   3    1.55    0.09
  -4  -3  -3    6.08    0.16
  -4  -3  -3    5.79    0.17
  -4  -3  -3    6.25    0.20
   4   3   3    5.79    0.17
   4   3   3    6.11    0.14
  -5  -3  -3   44.68    0.70
  -5  -3  -3   44.92    0.68
  -5  -3  -3   43.96    0.68
  -5  -3  -3   43.63    0.75
   5   3   3   44.94    0.68
  -6  -3  -3    6.54    0.27
  -6  -3  -3    6.67    0.22
  -6  -3  -3    6.24    0.22
   6   3   3    6.55    0.21
  -7  -3  -3    0.35    0.09
  -7  -3  -3    0.47    0.11
   7   3   3    0.25    0.07
  -8  -3  -3    0.08    0.09
  -8  -3  -3    0.12    0.07
   8   3   3    0.02    0.06
  -9  -3  -3    4.39    0.24
  -9  -3  -3    3.80    0.29
  -8   4   3    0.12    0.12
  -8   4   3    0.03    0.14
  -8   4   3    0.05    0.09
  -7   4   3    0.05    0.10
  -7   4   3    0.14    0.09
  -7   4   3    0.18    0.13
  -6   4   3    1.58    0.19
  -6   4   3    0.83    0.15
  -6   4   3    0.97    0.13
   5  -4  -3   54.61    0.77
  -5   4   3   56.19    0.82
  -5   4   3   56.40    0.90
  -5   4   3   55.83    1.01
  -5   4   3   56.38    0.94
   4  -4  -3    4.69    0.15
  -4   4   3    4.83    0.23
  -4   4   3    5.03    0.23
  -4   4   3    5.18    0.20
  -4   4   3    4.87    0.17
   3  -4  -3   47.87    0.68
  -3   4   3   47.97    0.72
  -3   4   3   47.23    0.76
  -3   4   3   48.41    0.80
  -3   4   3   47.53    0.72
  -3   4   3   47.97    0.67
   2  -4  -3    2.65    0.11
  -2   4   3    2.50    0.11
  -2   4   3    2.83    0.14
  -2   4   3    2.58    0.11
  -2   4   3    2.45    0.12
  -2   4   3    2.40    0.13
   1  -4  -3   72.41    0.97
  -1   4   3   71.41    1.00
  -1   4   3   71.73    0.99
  -1   4   3   70.92    0.92
  -1   4   3   71.73    0.91
  -1   4   3   71.56    0.96
   0  -4  -3   68.31    0.94
   0   4   3   68.96    0.88
   0   4   3   69.49    0.85
   0   4   3   68.54    0.93
   0   4   3   68.44    0.95
   0   4   3   69.89    0.95
  -1  -4  -3    0.31    0.05
   1   4   3    0.19    0.05
   1   4   3    0.22    0.05
   1   4   3    0.28    0.04
   1   4   3    0.35    0.06
  -2  -4  -3    3.71    0.14
   2   4   3    3.83    0.14
   2   4   3    4.00    0.15
   2   4   3    3.65    0.13
  -3  -4  -3    9.52    0.23
  -3  -4  -3    9.05    0.17
   3   4   3    9.13    0.22
   3   4   3    9.26    0.25
   3   4   3    9.35    0.21
  -4  -4  -3    0.07    0.06
  -4  -4  -3    0.05    0.05
  -4  -4  -3    0.03    0.04
   4   4   3    0.03    0.05
   4   4   3    0.02    0.04
  -5  -4  -3    0.34    0.09
  -5  -4  -3    0.33    0.07
  -5  -4  -3    0.43    0.09
  -5  -4  -3    0.54    0.07
   5   4   3    0.37    0.07
  -6  -4  -3    0.07    0.08
  -6  -4  -3    0.01    0.07
  -6  -4  -3    0.11    0.06
   6   4   3   -0.01    0.06
  -7  -4  -3    0.80    0.11
  -7  -4  -3    0.80    0.13
   7   4   3    0.93    0.11
  -8  -4  -3    0.16    0.10
  -8  -4  -3    0.18    0.08
   8   4   3    0.44    0.09
  -7   5   3    1.86    0.25
  -7   5   3    1.86    0.20
  -7   5   3    1.71    0.22
  -6   5   3    4.97    0.24
  -6   5   3    4.55    0.29
  -6   5   3    4.61    0.28
   5  -5  -3    0.35    0.07
  -5   5   3    0.32    0.07
  -5   5   3    0.44    0.12
  -5   5   3    0.44    0.10
  -5   5   3    0.22    0.10
   4  -5  -3  118.91    1.54
  -4   5   3  117.68    1.61
  -4   5   3  117.47    1.74
  -4   5   3  116.89    1.67
  -4   5   3  116.95    1.58
   3  -5  -3   20.47    0.38
  -3   5   3   20.32    0.48
  -3   5   3   20.73    0.37
  -3   5   3   21.25    0.40
  -3   5   3   20.87    0.45
  -3   5   3   21.38    0.41
   2  -5  -3   11.18    0.25
  -2   5   3   11.12    0.29
  -2   5   3   11.19    0.28
  -2   5   3   11.29    0.25
  -2   5   3   10.65    0.31
  -2   5   3   10.94    0.24
  -2   5   3   11.10    0.19
   1  -5  -3   20.01    0.37
  -1   5   3   19.72    0.30
  -1   5   3   19.99    0.32
  -1   5   3   19.89    0.39
  -1   5   3   20.21    0.40
  -1   5   3   20.25    0.37
   0  -5  -3   26.99    0.46
   0   5   3   27.09    0.47
   0   5   3   26.71    0.45
   0   5   3   26.98    0.37
   0   5   3   26.21    0.40
   0   5   3   26.40    0.47
  -1  -5  -3   15.77    0.32
   1   5   3   15.43    0.28
   1   5   3   15.41    0.32
   1   5   3   14.91    0.31
   1   5   3   15.60    0.32
  -2  -5  -3   23.50    0.42
   2   5   3   23.19    0.42
   2   5   3   23.01    0.40
   2   5   3   23.47    0.42
   2   5   3   24.24    0.43
  -3  -5  -3    2.18    0.13
   3   5   3    2.04    0.13
   3   5   3    2.31    0.14
   3   5   3    2.50    0.13
  -4  -5  -3    8.38    0.24
  -4  -5  -3    8.46    0.19
   4   5   3    8.54    0.22
   4   5   3    8.45    0.24
   4   5   3    7.98    0.26
  -5  -5  -3    2.42    0.12
  -5  -5  -3    2.42    0.14
   5   5   3    2.43    0.15
   5   5   3    2.47    0.14
  -6  -5  -3    0.40    0.07
  -6  -5  -3    0.32    0.10
  -6  -5  -3    0.17    0.10
   6   5   3    0.26    0.08
  -7  -5  -3    3.69    0.23
  -7  -5  -3    3.29    0.24
  -7  -5  -3    4.16    0.19
   7   5   3    3.83    0.19
  -8  -5  -3    7.28    0.35
   8   5   3    7.72    0.26
  -7   6   3    0.73    0.17
  -7   6   3    0.89    0.15
  -7   6   3    1.09    0.21
   6  -6  -3    1.72    0.13
  -6   6   3    2.09    0.24
  -6   6   3    1.87    0.22
  -6   6   3    1.60    0.17
   5  -6  -3   10.57    0.27
  -5   6   3    9.90    0.40
  -5   6   3   10.50    0.30
  -5   6   3   10.66    0.33
  -5   6   3   10.71    0.37
   4  -6  -3   27.40    0.49
  -4   6   3   27.48    0.52
  -4   6   3   26.66    0.63
  -4   6   3   27.47    0.53
  -4   6   3   26.56    0.58
   3  -6  -3    0.09    0.07
  -3   6   3    0.17    0.07
  -3   6   3    0.12    0.08
  -3   6   3    0.06    0.07
  -3   6   3    0.18    0.07
   2  -6  -3    0.11    0.06
  -2   6   3    0.01    0.05
  -2   6   3   -0.01    0.06
  -2   6   3   -0.05    0.06
  -2   6   3   -0.04    0.03
  -2   6   3    0.02    0.05
   1  -6  -3    3.48    0.16
  -1   6   3    3.69    0.16
  -1   6   3    3.66    0.17
  -1   6   3    3.89    0.13
  -1   6   3    3.59    0.11
   0  -6  -3   16.90    0.35
   0   6   3   16.42    0.30
   0   6   3   16.79    0.35
   0   6   3   16.38    0.37
   0   6   3   16.84    0.36
  -1  -6  -3   31.75    0.55
   1   6   3   31.61    0.50
   1   6   3   32.06    0.55
   1   6   3   31.86    0.56
   1   6   3   31.21    0.54
  -2  -6  -3   45.91    0.72
   2   6   3   44.38    0.71
   2   6   3   44.56    0.72
   2   6   3   45.45    0.71
   2   6   3   44.05    0.68
  -3  -6  -3   50.03    0.78
   3   6   3   49.34    0.77
   3   6   3   49.40    0.76
   3   6   3   49.47    0.78
   3   6   3   49.53    0.78
  -4  -6  -3    0.96    0.11
   4   6   3    1.00    0.12
   4   6   3    1.00    0.10
   4   6   3    0.93    0.11
   4   6   3    1.07    0.11
  -5  -6  -3    5.70    0.22
   5   6   3    5.44    0.21
   5   6   3    5.30    0.23
   5   6   3    5.57    0.23
   5   6   3    5.89    0.20
  -6  -6  -3    0.81    0.15
   6   6   3    0.65    0.11
   6   6   3    0.81    0.11
   6   6   3    0.67    0.13
  -7  -6  -3    0.36    0.12
   7   6   3    0.25    0.10
   7   6   3    0.27    0.09
   8   6   3    0.74    0.14
   8   6   3    0.83    0.12
   6  -7  -3    0.04    0.08
  -6   7   3    0.02    0.11
  -6   7   3    0.02    0.08
  -6   7   3    0.16    0.14
   5  -7  -3    8.95    0.27
  -5   7   3    8.50    0.30
  -5   7   3    8.55    0.29
  -5   7   3    8.89    0.37
  -5   7   3    8.55    0.38
   4  -7  -3    1.72    0.15
  -4   7   3    1.61    0.18
  -4   7   3    1.27    0.17
  -4   7   3    1.43    0.14
  -4   7   3    1.54    0.15
   3  -7  -3    0.33    0.09
  -3   7   3    0.25    0.10
  -3   7   3    0.38    0.11
  -3   7   3    0.26    0.08
  -3   7   3    0.35    0.08
   2  -7  -3    7.80    0.25
  -2   7   3    8.00    0.22
  -2   7   3    8.02    0.28
  -2   7   3    7.71    0.24
  -2   7   3    7.86    0.27
   1  -7  -3    1.43    0.13
  -1   7   3    1.37    0.09
  -1   7   3    1.28    0.14
  -1   7   3    1.47    0.14
  -1   7   3    1.50    0.10
  -1   7   3    1.43    0.13
   0  -7  -3    8.51    0.26
   0   7   3    8.54    0.28
   0   7   3    8.58    0.26
   0   7   3    8.27    0.26
   0   7   3    8.44    0.21
  -1  -7  -3   98.16    1.38
   1   7   3   97.37    1.31
   1   7   3   98.45    1.37
   1   7   3   96.21    1.39
   1   7   3   99.55    1.38
  -2  -7  -3  227.53    2.89
   2   7   3  230.58    2.90
   2   7   3  221.48    2.84
   2   7   3  223.31    2.87
   2   7   3  221.48    2.89
  -3  -7  -3    8.98    0.27
   3   7   3    8.70    0.25
   3   7   3    8.83    0.26
   3   7   3    8.51    0.27
   3   7   3    8.83    0.27
  -4  -7  -3   18.74    0.42
   4   7   3   18.29    0.40
   4   7   3   18.31    0.41
   4   7   3   18.17    0.41
   4   7   3   17.45    0.40
   5   7   3    6.48    0.25
   5   7   3    6.86    0.26
   5   7   3    6.42    0.24
   5   7   3    6.81    0.23
  -6  -7  -3    0.71    0.15
   6   7   3    1.28    0.14
   6   7   3    1.25    0.15
  -7  -7  -3    2.89    0.26
   7   7   3    3.52    0.21
   7   7   3    3.91    0.24
   5  -8  -3    0.15    0.09
  -5   8   3    0.12    0.10
  -5   8   3    0.07    0.13
  -5   8   3    0.14    0.11
   4  -8  -3    1.12    0.14
  -4   8   3    0.89    0.13
  -4   8   3    1.20    0.17
  -4   8   3    0.77    0.15
   3  -8  -3    4.35    0.22
  -3   8   3    4.34    0.23
  -3   8   3    4.48    0.26
  -3   8   3    4.50    0.27
   2  -8  -3    7.69    0.27
  -2   8   3    7.52    0.29
  -2   8   3    7.35    0.29
  -2   8   3    7.08    0.25
   1  -8  -3    8.12    0.28
  -1   8   3    8.14    0.27
  -1   8   3    8.05    0.28
  -1   8   3    7.96    0.29
   0  -8  -3    6.91    0.25
   0   8   3    6.53    0.24
   0   8   3    6.37    0.19
   0   8   3    6.32    0.24
   0   8   3    6.85    0.27
  -1  -8  -3   56.37    0.91
   1   8   3   55.53    0.84
   1   8   3   55.78    0.89
   1   8   3   56.58    0.91
   1   8   3   56.70    0.93
  -2  -8  -3    2.73    0.18
   2   8   3    2.63    0.18
   2   8   3    2.56    0.15
   2   8   3    2.59    0.15
   2   8   3    2.67    0.19
  -3  -8  -3   15.47    0.39
   3   8   3   15.58    0.40
   3   8   3   15.29    0.36
   3   8   3   15.22    0.36
   3   8   3   15.82    0.39
  -4  -8  -3    0.83    0.12
   4   8   3    0.74    0.11
   4   8   3    0.55    0.11
   4   8   3    1.09    0.13
   5   8   3    0.39    0.10
   5   8   3    0.51    0.09
   5   8   3    0.61    0.12
  -6  -8  -3    1.40    0.21
   6   8   3    1.51    0.16
   6   8   3    1.89    0.18
  -7  -8  -3   -0.26    0.12
   7   8   3   -0.10    0.09
   7   8   3   -0.01    0.10
   4  -9  -3    0.74    0.14
  -4   9   3    0.75    0.16
  -4   9   3    0.97    0.14
  -4   9   3    0.69    0.16
   3  -9  -3    0.15    0.10
  -3   9   3    0.24    0.09
  -3   9   3    0.31    0.12
  -3   9   3    0.30    0.12
   2  -9  -3    1.61    0.17
  -2   9   3    1.44    0.17
  -2   9   3    1.24    0.15
  -2   9   3    1.50    0.18
   1  -9  -3    7.01    0.28
  -1   9   3    6.77    0.27
  -1   9   3    6.59    0.28
  -1   9   3    6.88    0.30
   0  -9  -3    0.05    0.08
   0   9   3    0.02    0.08
   0   9   3    0.01    0.07
   0   9   3    0.14    0.09
  -1  -9  -3    4.60    0.23
   1   9   3    4.47    0.18
   1   9   3    4.60    0.22
   1   9   3    4.56    0.23
   1   9   3    4.26    0.24
  -2  -9  -3   -0.03    0.08
   2   9   3   -0.04    0.06
   2   9   3    0.14    0.09
   2   9   3    0.03    0.08
   2   9   3   -0.02    0.06
  -3  -9  -3   10.66    0.34
   3   9   3   10.75    0.35
   3   9   3   10.31    0.31
   3   9   3    9.80    0.33
  -4  -9  -3    1.36    0.15
   4   9   3    1.11    0.14
   4   9   3    1.37    0.15
   4   9   3    1.22    0.15
   5   9   3    2.03    0.18
   5   9   3    2.33    0.18
   5   9   3    1.72    0.17
  -6  -9  -3    0.32    0.18
   6   9   3    0.50    0.13
   6   9   3    0.79    0.14
   3 -10  -3    0.83    0.16
  -3  10   3    0.91    0.17
  -3  10   3    0.92    0.15
  -3  10   3    1.39    0.20
   2 -10  -3    0.03    0.11
  -2  10   3    0.23    0.12
  -2  10   3    0.22    0.10
   1 -10  -3    0.14    0.10
  -1  10   3    0.16    0.10
  -1  10   3    0.06    0.10
  -1  10   3   -0.07    0.09
   0 -10  -3    0.21    0.11
   0  10   3    0.40    0.11
   0  10   3    0.46    0.11
   0  10   3    0.33    0.11
  -1 -10  -3    1.28    0.16
   1  10   3    1.30    0.16
   1  10   3    1.29    0.14
   1  10   3    1.03    0.12
   1  10   3    1.01    0.15
  -2 -10  -3   -0.14    0.08
   2  10   3   -0.04    0.09
   2  10   3   -0.04    0.07
   2  10   3    0.06    0.09
  -3 -10  -3    1.83    0.18
   3  10   3    1.93    0.17
   3  10   3    1.86    0.19
   3  10   3    1.92    0.19
  -4 -10  -3    4.33    0.25
   4  10   3    4.30    0.26
   4  10   3    4.18    0.25
   4  10   3    4.03    0.23
   5  10   3    0.79    0.13
   5  10   3    0.66    0.12
   5  10   3    0.70    0.15
   1 -11  -3    0.12    0.12
  -1  11   3    0.33    0.12
  -1  11   3    0.15    0.12
  -1  11   3    0.03    0.11
   0 -11  -3    5.86    0.30
   0  11   3    6.03    0.33
   0  11   3    6.08    0.30
   0  11   3    5.75    0.43
  -1 -11  -3   10.30    0.38
   1  11   3   10.24    0.38
   1  11   3   10.87    0.41
  -2 -11  -3    1.25    0.18
   2  11   3    1.01    0.14
   2  11   3    1.09    0.17
   2  11   3    0.77    0.15
  -3 -11  -3   -0.04    0.11
   3  11   3    0.01    0.08
   3  11   3    0.06    0.09
   3  11   3    0.07    0.11
   2  10  -4    8.39    0.42
   2  10  -4    8.48    0.34
  -2 -10   4    8.26    0.35
  -2 -10   4    8.40    0.45
   1  10  -4    0.38    0.15
   1  10  -4    0.16    0.16
   1  10  -4    0.45    0.12
  -1 -10   4    0.39    0.14
  -1 -10   4    0.06    0.16
   0 -10   4    3.45    0.27
   4   9  -4    0.92    0.16
   4   9  -4    0.90    0.15
  -4  -9   4    0.75    0.20
   3   9  -4    1.19    0.16
   3   9  -4    0.98    0.15
  -3  -9   4    1.18    0.22
   2   9  -4    2.67    0.22
   2   9  -4    2.64    0.21
  -2  -9   4    2.67    0.22
  -2  -9   4    2.60    0.27
   1   9  -4    2.82    0.21
  -1  -9   4    2.94    0.23
  -1  -9   4    3.05    0.28
   0   9  -4    0.90    0.16
   0   9  -4    0.82    0.14
   0   9  -4    0.42    0.16
   0  -9   4    0.86    0.15
  -1   9  -4    4.11    0.28
  -1   9  -4    4.32    0.24
  -1   9  -4    3.88    0.30
   1  -9   4    4.32    0.27
  -2   9  -4    1.75    0.19
  -2   9  -4    1.27    0.18
  -2   9  -4    1.57    0.17
   2  -9   4    1.54    0.18
   6   8  -4    2.34    0.20
   6   8  -4    2.48    0.23
  -6  -8   4    2.13    0.26
   5   8  -4   12.25    0.36
   5   8  -4   12.92    0.41
  -5  -8   4   13.23    0.50
   4   8  -4   -0.01    0.10
   4   8  -4    0.14    0.10
  -4  -8   4    0.05    0.14
   3   8  -4    2.54    0.20
   3   8  -4    2.50    0.21
  -3  -8   4    2.37    0.24
   2   8  -4    0.17    0.10
   2   8  -4    0.27    0.10
  -2  -8   4    0.05    0.10
  -2  -8   4    0.17    0.14
   1   8  -4    2.66    0.19
  -1  -8   4    2.31    0.20
   0   8  -4    0.02    0.10
   0   8  -4    0.18    0.09
   0  -8   4    0.03    0.09
  -1   8  -4    8.78    0.30
  -1   8  -4    9.26    0.33
   1  -8   4    8.58    0.32
  -2   8  -4    0.32    0.10
  -2   8  -4    0.35    0.12
  -2   8  -4    0.28    0.13
   2  -8   4    0.25    0.11
  -3   8  -4    0.16    0.10
  -3   8  -4   -0.04    0.10
  -3   8  -4    0.04    0.08
  -3   8  -4    0.14    0.14
   3  -8   4    0.06    0.10
  -4   8  -4    0.21    0.12
  -4   8  -4    0.11    0.09
  -4   8  -4   -0.21    0.14
   4  -8   4   -0.10    0.10
   6   7  -4    3.64    0.24
   6   7  -4    3.32    0.20
  -6  -7   4    3.29    0.30
   5   7  -4    0.19    0.09
   5   7  -4    0.11    0.10
  -5  -7   4    0.29    0.14
   4   7  -4    1.46    0.15
   4   7  -4    1.16    0.13
  -4  -7   4    1.32    0.19
   3   7  -4    2.29    0.18
   3   7  -4    2.22    0.18
  -3  -7   4    2.23    0.22
   2   7  -4    5.76    0.24
   2   7  -4    5.91    0.25
  -2  -7   4    6.31    0.32
  -2  -7   4    5.98    0.24
   1   7  -4    1.90    0.15
   1   7  -4    1.67    0.15
  -1  -7   4    1.62    0.15
   0   7  -4    0.87    0.11
   0  -7   4    0.84    0.12
  -1   7  -4    3.50    0.21
  -1   7  -4    4.71    0.21
   1  -7   4    4.28    0.22
  -2   7  -4    0.77    0.12
  -2   7  -4    0.81    0.14
  -2   7  -4    0.82    0.12
   2  -7   4    0.70    0.12
  -3   7  -4    0.02    0.12
  -3   7  -4   -0.09    0.07
  -3   7  -4   -0.03    0.10
  -3   7  -4    0.02    0.09
   3  -7   4    0.19    0.10
  -4   7  -4    9.93    0.34
  -4   7  -4    9.31    0.33
  -4   7  -4    9.61    0.31
  -4   7  -4    9.79    0.39
   4  -7   4   10.25    0.34
  -5   7  -4    5.38    0.25
  -5   7  -4    5.24    0.36
   5  -7   4    5.98    0.29
   7   6  -4   -0.15    0.09
  -7  -6   4   -0.22    0.10
   6   6  -4    2.01    0.15
   6   6  -4    2.52    0.20
  -6  -6   4    2.03    0.22
   5   6  -4    0.06    0.08
   5   6  -4    0.16    0.09
  -5  -6   4   -0.08    0.10
   4   6  -4    3.73    0.19
   4   6  -4    3.92    0.20
  -4  -6   4    3.82    0.26
   3   6  -4    1.02    0.12
   3   6  -4    0.97    0.12
  -3  -6   4    1.19    0.12
  -3  -6   4    1.14    0.16
   2   6  -4    5.60    0.22
   2   6  -4    5.56    0.22
  -2  -6   4    5.27    0.28
  -2  -6   4    5.89    0.22
   1   6  -4    0.13    0.09
   1   6  -4    0.24    0.08
  -1  -6   4    0.16    0.08
  -1  -6   4    0.11    0.10
   0   6  -4   18.50    0.40
   0  -6   4   18.67    0.41
  -1   6  -4   12.54    0.34
  -1   6  -4   12.66    0.32
  -1   6  -4   12.21    0.31
   1  -6   4   13.08    0.34
  -2   6  -4    0.07    0.07
  -2   6  -4    0.06    0.08
  -2   6  -4   -0.03    0.10
   2  -6   4    0.15    0.08
  -3   6  -4    1.19    0.16
  -3   6  -4    1.50    0.14
  -3   6  -4    1.71    0.16
   3  -6   4    1.40    0.15
  -4   6  -4   31.61    0.60
  -4   6  -4   30.99    0.62
  -4   6  -4   32.54    0.62
  -4   6  -4   32.14    0.69
   4  -6   4   32.65    0.63
  -5   6  -4    0.02    0.14
  -5   6  -4    0.05    0.08
   5  -6   4    0.29    0.11
  -6   6  -4    0.41    0.15
  -6   6  -4    0.34    0.11
  -6   6  -4    0.24    0.13
  -6   6  -4    0.33    0.19
   6  -6   4    0.32    0.11
   8   5  -4    0.02    0.11
  -8  -5   4    0.05    0.12
   7   5  -4   10.41    0.35
  -7  -5   4    9.88    0.40
   6   5  -4    3.10    0.20
  -6  -5   4    2.92    0.24
   5   5  -4    0.13    0.07
   5   5  -4    0.12    0.08
  -5  -5   4    0.09    0.10
   4   5  -4    0.67    0.09
   4   5  -4    0.73    0.10
  -4  -5   4    0.72    0.13
   3   5  -4   60.83    0.88
   3   5  -4   59.94    0.91
  -3  -5   4   59.36    0.87
  -3  -5   4   59.77    1.00
   2   5  -4    0.10    0.08
   2   5  -4    0.19    0.06
  -2  -5   4    0.10    0.07
  -2  -5   4    0.30    0.10
   1   5  -4   57.27    0.86
  -1  -5   4   57.08    0.85
  -1  -5   4   57.36    0.92
   0   5  -4   26.36    0.48
   0   5  -4   25.76    0.43
   0   5  -4   25.55    0.47
   0  -5   4   26.05    0.48
  -1   5  -4   23.82    0.46
  -1   5  -4   24.53    0.45
  -1   5  -4   23.71    0.45
   1  -5   4   24.40    0.47
  -2   5  -4    6.59    0.26
  -2   5  -4    6.50    0.22
  -2   5  -4    6.40    0.23
   2  -5   4    6.67    0.23
  -3   5  -4   62.68    0.94
  -3   5  -4   61.82    1.00
  -3   5  -4   62.20    0.95
   3  -5   4   62.56    0.96
  -4   5  -4   42.92    0.80
  -4   5  -4   42.67    0.72
  -4   5  -4   41.39    0.71
  -4   5  -4   42.69    0.72
   4  -5   4   41.55    0.72
  -5   5  -4   19.27    0.44
  -5   5  -4   19.42    0.54
   5  -5   4   18.62    0.44
  -6   5  -4    0.27    0.13
  -6   5  -4    0.14    0.17
  -6   5  -4    0.25    0.10
  -6   5  -4    0.17    0.12
   6  -5   4    0.16    0.09
  -7   5  -4    5.77    0.33
  -7   5  -4    5.09    0.42
  -7   5  -4    5.60    0.37
  -7   5  -4    5.76    0.27
   7  -5   4    5.60    0.26
   8   4  -4    0.08    0.10
  -8  -4   4    0.08    0.11
  -8  -4   4    0.12    0.10
   7   4  -4    3.13    0.21
  -7  -4   4    3.38    0.21
  -7  -4   4    3.48    0.25
   6   4  -4    2.26    0.18
  -6  -4   4    2.54    0.18
  -6  -4   4    2.28    0.21
   5   4  -4    6.51    0.24
  -5  -4   4    6.90    0.29
   4   4  -4   18.29    0.34
   4   4  -4   18.32    0.39
  -4  -4   4   19.45    0.47
   3   4  -4    7.97    0.21
   3   4  -4    7.74    0.23
  -3  -4   4    8.19    0.29
  -3  -4   4    7.56    0.20
   2   4  -4    0.09    0.07
   2   4  -4   -0.05    0.05
  -2  -4   4    0.03    0.05
  -2  -4   4    0.06    0.08
   1   4  -4   13.36    0.29
  -1  -4   4   13.16    0.33
  -1  -4   4   12.89    0.28
   0   4  -4   76.51    1.04
   0   4  -4   72.89    0.99
   0   4  -4   75.61    1.05
   0  -4   4   73.36    1.04
   0  -4   4   75.98    1.07
  -1   4  -4    1.75    0.14
  -1   4  -4    1.66    0.11
  -1   4  -4    1.42    0.12
   1  -4   4    1.47    0.12
  -2   4  -4    1.50    0.13
  -2   4  -4    1.64    0.15
   2  -4   4    1.28    0.11
  -3   4  -4   19.30    0.39
  -3   4  -4   19.67    0.40
  -3   4  -4   19.39    0.45
   3  -4   4   18.99    0.40
  -4   4  -4    9.80    0.28
  -4   4  -4    9.55    0.35
  -4   4  -4    9.24    0.27
   4  -4   4    9.58    0.28
  -5   4  -4    0.42    0.15
  -5   4  -4    0.42    0.09
   5  -4   4    0.53    0.10
  -6   4  -4    5.89    0.34
  -6   4  -4    6.14    0.25
  -6   4  -4    5.93    0.29
  -6   4  -4    5.78    0.35
   6  -4   4    6.59    0.25
  -7   4  -4    5.28    0.30
  -7   4  -4    4.81    0.32
  -7   4  -4    4.97    0.40
   7  -4   4    5.60    0.24
   8   3  -4    0.62    0.13
  -8  -3   4    0.67    0.18
  -8  -3   4    0.51    0.13
  -8  -3   4    0.84    0.14
   7   3  -4   20.40    0.46
  -7  -3   4   20.67    0.49
  -7  -3   4   19.59    0.59
  -7  -3   4   20.59    0.53
   6   3  -4    0.03    0.07
  -6  -3   4    0.07    0.09
  -6  -3   4    0.07    0.08
  -6  -3   4    0.01    0.06
   5   3  -4    0.74    0.10
   5   3  -4    0.70    0.07
  -5  -3   4    0.66    0.10
  -5  -3   4    0.82    0.12
   4   3  -4   10.42    0.26
  -4  -3   4   10.50    0.31
   3   3  -4   25.71    0.45
  -3  -3   4   25.93    0.51
  -3  -3   4   26.60    0.41
   2   3  -4    3.70    0.14
  -2  -3   4    3.87    0.13
  -2  -3   4    3.62    0.17
   1   3  -4    1.41    0.09
   1   3  -4    1.83    0.11
  -1  -3   4    1.84    0.10
  -1  -3   4    1.60    0.12
   0   3  -4   16.85    0.31
   0   3  -4   16.60    0.32
   0  -3   4   16.67    0.33
   0  -3   4   16.49    0.31
  -1   3  -4    6.05    0.18
  -1   3  -4    6.35    0.18
  -1   3  -4    6.12    0.19
   1  -3   4    6.11    0.18
   1  -3   4    5.91    0.17
  -2   3  -4   30.12    0.50
  -2   3  -4   30.03    0.49
  -2   3  -4   29.54    0.53
   2  -3   4   29.76    0.50
  -3   3  -4   27.59    0.54
  -3   3  -4   27.09    0.48
  -3   3  -4   26.92    0.48
   3  -3   4   26.89    0.48
  -4   3  -4    2.33    0.23
  -4   3  -4    2.05    0.14
  -4   3  -4    2.12    0.14
   4  -3   4    1.91    0.14
  -5   3  -4    0.08    0.09
  -5   3  -4    0.09    0.13
  -5   3  -4    0.17    0.07
   5  -3   4    0.16    0.07
  -6   3  -4    0.76    0.18
  -6   3  -4    0.84    0.15
  -6   3  -4    0.91    0.14
  -6   3  -4    0.78    0.12
   6  -3   4    0.83    0.11
  -7   3  -4    5.61    0.33
  -7   3  -4    5.91    0.30
   7  -3   4    6.08    0.23
  -8   3  -4    4.53    0.29
  -8   3  -4    4.50    0.33
   8  -3   4    5.16    0.23
   8   2  -4    4.11    0.22
  -8  -2   4    4.10    0.24
  -8  -2   4    4.02    0.25
  -8  -2   4    3.72    0.30
   7   2  -4   14.48    0.36
  -7  -2   4   14.46    0.42
  -7  -2   4   13.94    0.49
  -7  -2   4   14.15    0.39
   6   2  -4    4.03    0.18
  -6  -2   4    3.94    0.20
  -6  -2   4    3.98    0.25
  -6  -2   4    4.14    0.22
   5   2  -4    4.14    0.17
  -5  -2   4    4.26    0.24
  -5  -2   4    4.04    0.18
  -5  -2   4    4.23    0.20
   4   2  -4    8.36    0.16
   4   2  -4    8.46    0.22
  -4  -2   4    8.47    0.24
  -4  -2   4    8.28    0.18
  -4  -2   4    8.32    0.27
   3   2  -4   25.56    0.42
   3   2  -4   25.40    0.38
  -3  -2   4   26.52    0.48
  -3  -2   4   25.60    0.45
  -3  -2   4   25.34    0.35
   2   2  -4   18.43    0.30
   2   2  -4   18.31    0.32
  -2  -2   4   18.70    0.37
  -2  -2   4   19.17    0.30
   1   2  -4    0.58    0.06
   1   2  -4    0.66    0.06
  -1  -2   4    0.53    0.07
  -1  -2   4    0.57    0.06
   0   2  -4    3.55    0.12
   0   2  -4    3.48    0.12
   0  -2   4    3.40    0.12
   0  -2   4    3.51    0.12
  -1   2  -4    9.42    0.21
  -1   2  -4    9.06    0.21
   1  -2   4    9.51    0.19
   1  -2   4    9.09    0.21
  -2   2  -4   81.81    1.10
  -2   2  -4   81.16    1.10
  -2   2  -4   82.37    1.14
   2  -2   4   82.67    1.02
   2  -2   4   80.88    1.10
  -3   2  -4    8.52    0.28
  -3   2  -4    8.23    0.22
  -3   2  -4    8.43    0.22
   3  -2   4    8.46    0.22
  -4   2  -4    3.37    0.15
  -4   2  -4    3.42    0.23
  -4   2  -4    3.51    0.15
   4  -2   4    3.61    0.16
  -5   2  -4    1.48    0.13
  -5   2  -4    1.14    0.17
  -5   2  -4    1.62    0.12
  -5   2  -4    1.54    0.15
  -5   2  -4    1.56    0.17
   5  -2   4    1.50    0.13
  -6   2  -4   45.43    0.91
  -6   2  -4   47.66    0.84
   6  -2   4   46.96    0.75
  -7   2  -4    4.31    0.28
  -7   2  -4    4.51    0.26
   7  -2   4    4.43    0.20
  -8   2  -4    2.69    0.23
  -8   2  -4    2.92    0.27
   8  -2   4    3.30    0.18
  -8  -1   4    2.30    0.26
  -8  -1   4    2.87    0.21
  -8  -1   4    2.63    0.20
   7   1  -4   26.99    0.51
  -7  -1   4   27.07    0.58
  -7  -1   4   25.50    0.68
  -7  -1   4   27.59    0.58
   6   1  -4   10.35    0.27
  -6  -1   4   10.77    0.39
  -6  -1   4   10.43    0.31
  -6  -1   4   10.26    0.29
  -6  -1   4   10.38    0.32
   5   1  -4    1.62    0.12
  -5  -1   4    1.74    0.17
  -5  -1   4    1.57    0.13
  -5  -1   4    1.66    0.12
  -5  -1   4    1.48    0.13
  -5  -1   4    1.66    0.14
   4   1  -4    3.24    0.13
  -4  -1   4    3.14    0.13
  -4  -1   4    3.10    0.18
  -4  -1   4    3.06    0.16
  -4  -1   4    3.42    0.15
  -4  -1   4    3.28    0.14
   3   1  -4   60.24    0.76
   3   1  -4   59.94    0.82
  -3  -1   4   59.96    0.79
  -3  -1   4   61.25    0.89
  -3  -1   4   59.55    0.84
  -3  -1   4   63.00    0.95
   2   1  -4   19.41    0.31
   2   1  -4   19.45    0.29
  -2  -1   4   18.91    0.28
  -2  -1   4   19.54    0.34
  -2  -1   4   19.55    0.36
   1   1  -4   27.86    0.41
   1   1  -4   28.11    0.41
  -1  -1   4   27.93    0.40
  -1  -1   4   28.37    0.44
  -1  -1   4   27.38    0.38
  -1  -1   4   27.41    0.44
   0   1  -4   99.08    1.28
   0   1  -4  100.14    1.28
   0  -1   4  102.92    1.30
   0  -1   4  101.47    1.28
   0  -1   4  101.45    1.28
  -1   1  -4    6.47    0.15
  -1   1  -4    6.27    0.16
   1  -1   4    6.25    0.15
   1  -1   4    6.45    0.12
   1  -1   4    6.65    0.17
  -2   1  -4   37.83    0.57
  -2   1  -4   39.19    0.57
   2  -1   4   38.48    0.57
  -3   1  -4    0.27    0.06
  -3   1  -4    0.31    0.06
   3  -1   4    0.28    0.06
  -4   1  -4    8.73    0.24
  -4   1  -4    8.44    0.22
  -4   1  -4    9.49    0.29
   4  -1   4    8.69    0.23
  -5   1  -4    4.08    0.20
  -5   1  -4    4.30    0.22
  -5   1  -4    4.10    0.16
  -5   1  -4    4.05    0.18
   5  -1   4    4.17    0.17
  -6   1  -4    0.16    0.09
  -6   1  -4    0.24    0.09
   6  -1   4    0.17    0.07
  -7   1  -4    0.11    0.09
  -7   1  -4    0.17    0.09
   7  -1   4    0.01    0.06
  -8   1  -4   -0.03    0.08
  -8   1  -4    0.16    0.11
   8  -1   4   -0.03    0.06
  -8   0   4    3.89    0.30
  -8   0   4    3.93    0.22
  -8   0   4    4.11    0.24
  -7   0   4    5.04    0.23
  -7   0   4    4.79    0.22
  -7   0   4    4.54    0.29
  -7   0   4    4.87    0.24
   6   0  -4    3.27    0.15
  -6   0   4    3.35    0.23
  -6   0   4    3.26    0.18
  -6   0   4    3.60    0.19
  -6   0   4    3.37    0.18
   5   0  -4   16.14    0.31
  -5   0   4   15.93    0.37
  -5   0   4   15.66    0.35
  -5   0   4   16.14    0.44
  -5   0   4   15.84    0.36
  -5   0   4   16.10    0.30
   4   0  -4   63.94    0.87
  -4   0   4   64.57    1.02
  -4   0   4   63.47    0.90
  -4   0   4   64.41    0.87
  -4   0   4   64.67    0.93
  -4   0   4   64.35    0.95
   3   0  -4    3.84    0.11
  -3   0   4    4.01    0.17
  -3   0   4    4.13    0.14
  -3   0   4    3.86    0.12
  -3   0   4    4.03    0.15
  -3   0   4    3.92    0.13
   2   0  -4    0.27    0.04
  -2   0   4    0.25    0.05
  -2   0   4    0.24    0.05
  -2   0   4    0.32    0.06
  -2   0   4    0.26    0.04
  -2   0   4    0.26    0.05
   1   0  -4   35.14    0.48
   1   0  -4   35.17    0.48
  -1   0   4   36.54    0.48
  -1   0   4   35.30    0.52
  -1   0   4   35.38    0.49
   0   0  -4  106.54    1.35
   0   0  -4  106.44    1.34
   0   0   4  109.10    1.35
   0   0   4  108.04    1.41
   0   0   4  108.36    1.42
  -1   0  -4    0.09    0.04
  -1   0  -4    0.01    0.03
   1   0   4    0.08    0.02
   1   0   4    0.03    0.03
   1   0   4    0.03    0.03
  -2   0  -4    0.13    0.04
  -2   0  -4    0.16    0.04
   2   0   4    0.28    0.04
   2   0   4    0.18    0.04
  -3   0  -4   35.10    0.55
  -3   0  -4   37.22    0.60
  -3   0  -4   34.99    0.54
   3   0   4   34.34    0.53
  -4   0  -4   18.05    0.40
  -4   0  -4   17.99    0.34
  -4   0  -4   17.62    0.36
  -4   0  -4   18.12    0.37
   4   0   4   17.08    0.33
  -5   0  -4    0.38    0.07
  -5   0  -4    0.17    0.07
  -5   0  -4    0.45    0.09
   5   0   4    0.22    0.06
  -6   0  -4    0.92    0.12
  -6   0  -4    1.04    0.14
   6   0   4    0.77    0.09
  -7   0  -4    5.53    0.25
  -7   0  -4    5.45    0.28
   7   0   4    5.61    0.20
  -8   0  -4   27.07    0.70
  -8   0  -4   27.80    0.62
   8   0   4   26.55    0.51
  -8   1   4    0.95    0.13
  -8   1   4    1.16    0.17
  -8   1   4    1.10    0.16
  -8   1   4    0.91    0.18
  -7   1   4   10.05    0.41
  -7   1   4   10.02    0.31
  -7   1   4   10.39    0.34
  -7   1   4   10.21    0.34
  -6   1   4    0.10    0.08
  -6   1   4    0.10    0.06
  -6   1   4    0.16    0.07
  -6   1   4    0.06    0.08
   5  -1  -4    0.25    0.06
  -5   1   4    0.21    0.05
  -5   1   4    0.30    0.09
  -5   1   4    0.19    0.07
  -5   1   4    0.12    0.06
  -5   1   4    0.25    0.08
   4  -1  -4   30.15    0.45
  -4   1   4   30.82    0.52
  -4   1   4   30.72    0.60
  -4   1   4   31.10    0.53
  -4   1   4   30.01    0.53
  -4   1   4   31.48    0.47
   3  -1  -4    6.07    0.13
  -3   1   4    6.22    0.17
  -3   1   4    6.31    0.16
  -3   1   4    6.26    0.21
  -3   1   4    6.27    0.18
  -3   1   4    6.16    0.17
   2  -1  -4    0.05    0.02
   2  -1  -4    0.01    0.02
  -2   1   4    0.05    0.03
  -2   1   4    0.02    0.03
  -2   1   4    0.05    0.03
  -2   1   4    0.03    0.04
  -2   1   4    0.02    0.03
   1  -1  -4   36.18    0.47
   1  -1  -4   36.56    0.49
  -1   1   4   36.23    0.51
  -1   1   4   36.89    0.52
  -1   1   4   35.90    0.52
  -1   1   4   36.37    0.53
  -1   1   4   36.85    0.49
  -1   1   4   37.54    0.54
   0  -1  -4    6.17    0.12
   0  -1  -4    6.02    0.14
   0   1   4    6.10    0.13
   0   1   4    6.01    0.15
   0   1   4    5.95    0.14
   0   1   4    6.11    0.14
  -1  -1  -4   50.90    0.69
  -1  -1  -4   51.93    0.71
   1   1   4   51.66    0.70
   1   1   4   52.92    0.69
  -2  -1  -4   41.33    0.60
  -2  -1  -4   44.45    0.60
  -2  -1  -4   42.08    0.61
   2   1   4   42.95    0.57
   2   1   4   41.86    0.60
  -3  -1  -4   13.63    0.28
  -3  -1  -4   13.08    0.26
   3   1   4   13.37    0.22
   3   1   4   13.32    0.26
  -4  -1  -4    0.14    0.05
  -4  -1  -4    0.10    0.03
  -4  -1  -4    0.10    0.05
  -4  -1  -4    0.19    0.06
   4   1   4    0.04    0.04
  -5  -1  -4    2.77    0.13
  -5  -1  -4    2.53    0.16
  -5  -1  -4    2.84    0.15
   5   1   4    2.82    0.14
  -6  -1  -4    0.94    0.11
  -6  -1  -4    0.88    0.12
   6   1   4    0.91    0.10
  -7  -1  -4    1.60    0.18
  -7  -1  -4    1.43    0.14
   7   1   4    1.56    0.13
  -8  -1  -4    2.30    0.19
  -8  -1  -4    2.14    0.22
   8   1   4    2.38    0.15
  -8   2   4    4.81    0.24
  -8   2   4    4.98    0.30
  -8   2   4    4.78    0.33
  -8   2   4    5.27    0.28
  -7   2   4    7.30    0.27
  -7   2   4    7.14    0.35
  -7   2   4    7.31    0.31
  -7   2   4    6.71    0.28
  -6   2   4    1.47    0.14
  -6   2   4    1.42    0.18
  -6   2   4    1.21    0.12
  -6   2   4    1.50    0.15
  -5   2   4    3.05    0.20
  -5   2   4    3.40    0.17
  -5   2   4    3.15    0.18
  -5   2   4    3.33    0.17
  -5   2   4    3.43    0.13
   4  -2  -4    8.78    0.17
  -4   2   4    8.69    0.25
  -4   2   4    9.30    0.29
  -4   2   4    9.04    0.24
  -4   2   4    8.89    0.25
  -4   2   4    9.34    0.21
   3  -2  -4    0.30    0.04
  -3   2   4    0.30    0.06
  -3   2   4    0.35    0.07
  -3   2   4    0.23    0.06
  -3   2   4    0.24    0.05
  -3   2   4    0.22    0.05
   2  -2  -4    1.27    0.06
  -2   2   4    1.34    0.09
  -2   2   4    1.20    0.07
  -2   2   4    1.32    0.09
  -2   2   4    1.23    0.08
  -2   2   4    1.20    0.08
   1  -2  -4    0.13    0.03
  -1   2   4    0.13    0.04
  -1   2   4    0.14    0.03
  -1   2   4    0.23    0.05
  -1   2   4    0.30    0.04
  -1   2   4    0.13    0.03
  -1   2   4    0.17    0.04
   0  -2  -4  157.86    1.95
   0   2   4  158.80    2.09
   0   2   4  160.19    1.96
   0   2   4  155.91    2.10
  -1  -2  -4    4.37    0.13
   1   2   4    4.50    0.12
   1   2   4    4.39    0.12
   1   2   4    4.38    0.14
  -2  -2  -4  398.13    5.21
  -2  -2  -4  413.18    5.02
   2   2   4  390.22    5.25
   2   2   4  404.19    5.09
  -3  -2  -4   12.90    0.26
  -3  -2  -4   12.99    0.26
  -3  -2  -4   12.85    0.24
   3   2   4   12.56    0.26
   3   2   4   13.17    0.22
  -4  -2  -4    0.68    0.08
  -4  -2  -4    0.68    0.07
  -4  -2  -4    0.49    0.07
  -4  -2  -4    0.77    0.08
   4   2   4    0.69    0.08
  -5  -2  -4   15.94    0.34
  -5  -2  -4   16.02    0.38
  -5  -2  -4   15.90    0.33
  -5  -2  -4   15.75    0.30
   5   2   4   16.13    0.33
  -6  -2  -4  107.18    1.49
  -6  -2  -4  108.04    1.58
   6   2   4  107.34    1.45
  -7  -2  -4    3.93    0.24
  -7  -2  -4    3.76    0.20
   7   2   4    3.59    0.17
  -8  -2  -4    4.58    0.28
  -8  -2  -4    4.97    0.24
   8   2   4    4.78    0.20
  -9  -2  -4    0.05    0.08
  -9  -2  -4    0.21    0.11
  -8   3   4    1.17    0.17
  -8   3   4    1.35    0.20
  -8   3   4    1.21    0.21
  -7   3   4   16.33    0.47
  -7   3   4   15.51    0.53
  -7   3   4   15.95    0.42
  -7   3   4   15.93    0.44
  -6   3   4    6.36    0.25
  -6   3   4    6.01    0.27
  -6   3   4    6.37    0.31
  -6   3   4    6.26    0.24
  -5   3   4   12.33    0.39
  -5   3   4   11.94    0.34
  -5   3   4   11.97    0.32
  -5   3   4   12.08    0.27
  -5   3   4   12.11    0.32
   4  -3  -4    0.37    0.05
  -4   3   4    0.49    0.09
  -4   3   4    0.33    0.07
  -4   3   4    0.39    0.07
  -4   3   4    0.45    0.07
  -4   3   4    0.38    0.09
   3  -3  -4   29.62    0.42
  -3   3   4   29.43    0.52
  -3   3   4   28.97    0.47
  -3   3   4   29.41    0.55
  -3   3   4   28.83    0.51
  -3   3   4   29.24    0.48
   2  -3  -4    2.81    0.10
  -2   3   4    2.65    0.10
  -2   3   4    2.75    0.12
  -2   3   4    2.49    0.12
  -2   3   4    2.92    0.13
  -2   3   4    2.83    0.10
   1  -3  -4   53.44    0.73
  -1   3   4   53.73    0.70
  -1   3   4   55.04    0.75
  -1   3   4   54.39    0.76
  -1   3   4   52.95    0.78
  -1   3   4   53.72    0.73
   0  -3  -4   15.28    0.28
   0   3   4   15.86    0.24
   0   3   4   15.46    0.28
   0   3   4   15.25    0.27
   0   3   4   15.08    0.30
  -1  -3  -4   96.94    1.27
   1   3   4   97.85    1.26
   1   3   4   97.37    1.30
   1   3   4   97.76    1.26
  -2  -3  -4    0.75    0.07
  -2  -3  -4    0.76    0.04
   2   3   4    0.76    0.07
   2   3   4    0.92    0.07
   2   3   4    0.85    0.09
  -3  -3  -4   46.90    0.64
  -3  -3  -4   47.59    0.70
  -3  -3  -4   47.97    0.68
   3   3   4   47.15    0.65
   3   3   4   47.70    0.70
  -4  -3  -4    2.01    0.12
  -4  -3  -4    1.96    0.12
  -4  -3  -4    2.07    0.10
   4   3   4    2.14    0.12
   4   3   4    2.04    0.09
  -5  -3  -4  116.20    1.56
  -5  -3  -4  117.93    1.55
  -5  -3  -4  119.01    1.56
  -5  -3  -4  116.32    1.62
   5   3   4  117.42    1.56
  -6  -3  -4    0.11    0.06
  -6  -3  -4    0.00    0.06
   6   3   4    0.02    0.06
  -7  -3  -4    0.04    0.06
  -7  -3  -4    0.06    0.08
   7   3   4    0.13    0.07
  -8  -3  -4    7.11    0.27
  -8  -3  -4    6.31    0.32
   8   3   4    6.32    0.23
  -7   4   4    7.06    0.29
  -7   4   4    6.44    0.35
  -7   4   4    7.61    0.35
  -6   4   4    8.34    0.29
  -6   4   4    8.18    0.36
  -6   4   4    8.71    0.34
   5  -4  -4    6.07    0.16
  -5   4   4    6.10    0.27
  -5   4   4    6.00    0.20
  -5   4   4    6.55    0.29
  -5   4   4    6.15    0.24
   4  -4  -4    7.40    0.18
  -4   4   4    7.71    0.28
  -4   4   4    7.61    0.22
  -4   4   4    7.18    0.26
  -4   4   4    7.77    0.24
   3  -4  -4    7.36    0.18
  -3   4   4    7.52    0.21
  -3   4   4    7.13    0.20
  -3   4   4    7.02    0.23
  -3   4   4    6.99    0.24
   2  -4  -4    5.61    0.16
  -2   4   4    5.70    0.16
  -2   4   4    5.91    0.19
  -2   4   4    6.08    0.18
  -2   4   4    5.91    0.16
  -2   4   4    5.80    0.19
   1  -4  -4    2.05    0.10
  -1   4   4    2.02    0.10
  -1   4   4    2.06    0.08
  -1   4   4    2.13    0.12
  -1   4   4    2.05    0.10
  -1   4   4    2.13    0.12
   0  -4  -4    2.64    0.11
   0   4   4    2.96    0.13
   0   4   4    2.73    0.11
   0   4   4    2.74    0.08
   0   4   4    2.63    0.12
  -1  -4  -4   19.25    0.35
   1   4   4   19.00    0.37
   1   4   4   19.02    0.35
   1   4   4   18.96    0.35
  -2  -4  -4   37.69    0.58
   2   4   4   37.05    0.58
   2   4   4   37.32    0.61
   2   4   4   37.02    0.56
  -3  -4  -4   19.95    0.30
  -3  -4  -4   20.19    0.38
   3   4   4   20.38    0.42
   3   4   4   20.00    0.38
   3   4   4   20.34    0.35
  -4  -4  -4    0.87    0.07
  -4  -4  -4    0.87    0.09
  -4  -4  -4    0.76    0.09
   4   4   4    0.81    0.07
   4   4   4    0.77    0.09
  -5  -4  -4    9.11    0.25
  -5  -4  -4    8.72    0.22
  -5  -4  -4    8.91    0.27
   5   4   4    8.79    0.25
  -6  -4  -4    2.31    0.17
  -6  -4  -4    2.58    0.14
  -6  -4  -4    2.44    0.18
   6   4   4    2.85    0.16
  -7  -4  -4   13.80    0.34
  -7  -4  -4   14.29    0.43
   7   4   4   13.80    0.34
  -8  -4  -4    5.12    0.30
  -8  -4  -4    5.30    0.23
   8   4   4    5.50    0.22
  -7   5   4   17.48    0.59
  -7   5   4   17.30    0.48
  -7   5   4   18.81    0.55
  -6   5   4    4.14    0.27
  -6   5   4    3.78    0.22
  -6   5   4    4.11    0.27
   5  -5  -4    1.03    0.09
  -5   5   4    1.25    0.17
  -5   5   4    0.97    0.14
  -5   5   4    1.07    0.11
  -5   5   4    0.85    0.12
   4  -5  -4   51.05    0.74
  -4   5   4   50.47    0.87
  -4   5   4   50.85    0.80
  -4   5   4   51.92    0.79
  -4   5   4   50.27    0.91
   3  -5  -4    3.87    0.15
  -3   5   4    3.59    0.19
  -3   5   4    3.73    0.17
  -3   5   4    3.84    0.16
  -3   5   4    3.80    0.19
   2  -5  -4    0.28    0.07
  -2   5   4    0.21    0.06
  -2   5   4    0.23    0.07
  -2   5   4    0.32    0.07
  -2   5   4    0.17    0.05
  -2   5   4    0.29    0.06
   1  -5  -4    0.94    0.09
  -1   5   4    0.88    0.10
  -1   5   4    0.85    0.09
  -1   5   4    0.87    0.07
  -1   5   4    1.09    0.09
   0  -5  -4   59.21    0.86
   0   5   4   59.98    0.89
   0   5   4   60.06    0.86
   0   5   4   61.01    0.88
   0   5   4   60.22    0.79
  -1  -5  -4    2.27    0.12
   1   5   4    2.10    0.12
   1   5   4    2.01    0.12
   1   5   4    2.10    0.09
   1   5   4    2.28    0.13
  -2  -5  -4    0.02    0.05
   2   5   4    0.00    0.05
   2   5   4    0.06    0.05
   2   5   4    0.05    0.05
  -3  -5  -4   17.91    0.37
   3   5   4   17.70    0.34
   3   5   4   17.40    0.36
   3   5   4   17.36    0.39
  -4  -5  -4    0.09    0.04
  -4  -5  -4    0.09    0.06
   4   5   4    0.16    0.08
   4   5   4    0.05    0.06
   4   5   4    0.08    0.05
  -5  -5  -4    3.30    0.13
  -5  -5  -4    3.30    0.16
   5   5   4    3.36    0.17
  -6  -5  -4    1.19    0.14
  -6  -5  -4    1.20    0.15
   6   5   4    1.35    0.12
  -7  -5  -4    0.98    0.15
   7   5   4    1.24    0.13
   8   5   4    3.95    0.21
  -7   6   4    0.10    0.10
  -7   6   4    0.05    0.11
  -7   6   4    0.32    0.15
  -6   6   4    2.31    0.24
  -6   6   4    2.45    0.19
  -6   6   4    2.29    0.23
   5  -6  -4    8.37    0.24
  -5   6   4    8.27    0.36
  -5   6   4    8.39    0.33
  -5   6   4    8.28    0.27
  -5   6   4    7.83    0.28
   4  -6  -4    9.80    0.26
  -4   6   4    9.44    0.33
  -4   6   4    9.79    0.29
  -4   6   4    9.44    0.28
  -4   6   4    9.73    0.35
   3  -6  -4   10.75    0.27
  -3   6   4   10.62    0.30
  -3   6   4   10.59    0.27
  -3   6   4   10.51    0.33
  -3   6   4   10.18    0.33
   2  -6  -4    0.01    0.06
  -2   6   4   -0.03    0.05
  -2   6   4    0.09    0.05
  -2   6   4   -0.05    0.06
  -2   6   4   -0.04    0.06
  -2   6   4    0.00    0.05
   1  -6  -4   12.52    0.30
  -1   6   4   12.89    0.32
  -1   6   4   12.77    0.33
  -1   6   4   12.68    0.22
  -1   6   4   13.03    0.24
  -1   6   4   13.72    0.30
   0  -6  -4    0.35    0.07
   0   6   4    0.56    0.09
   0   6   4    0.38    0.07
   0   6   4    0.33    0.08
   0   6   4    0.36    0.05
  -1  -6  -4   10.45    0.28
   1   6   4   10.82    0.29
   1   6   4   10.82    0.28
   1   6   4   10.73    0.28
   1   6   4   10.60    0.23
  -2  -6  -4    1.82    0.13
   2   6   4    1.91    0.13
   2   6   4    1.77    0.13
   2   6   4    1.73    0.11
   2   6   4    1.65    0.14
  -3  -6  -4    0.30    0.07
   3   6   4    0.17    0.07
   3   6   4    0.27    0.07
   3   6   4    0.33    0.08
   3   6   4    0.33    0.08
  -4  -6  -4   15.84    0.36
   4   6   4   15.52    0.36
   4   6   4   15.74    0.39
   4   6   4   15.49    0.34
  -5  -6  -4   13.48    0.34
   5   6   4   13.65    0.37
   5   6   4   13.05    0.37
   5   6   4   12.91    0.34
  -6  -6  -4    1.81    0.18
   6   6   4    2.20    0.20
   6   6   4    2.21    0.16
  -7  -6  -4    8.28    0.34
   7   6   4    8.00    0.35
   7   6   4    8.57    0.28
   8   6   4    1.10    0.14
  -6   7   4    1.40    0.20
  -6   7   4    1.98    0.24
  -6   7   4    1.49    0.17
   5  -7  -4   12.13    0.31
  -5   7   4   11.60    0.44
  -5   7   4   11.86    0.35
  -5   7   4   12.42    0.35
  -5   7   4   12.37    0.43
   4  -7  -4    5.87    0.22
  -4   7   4    5.85    0.23
  -4   7   4    6.46    0.30
  -4   7   4    6.37    0.25
  -4   7   4    6.10    0.29
   3  -7  -4    0.92    0.11
  -3   7   4    0.77    0.11
  -3   7   4    0.76    0.13
  -3   7   4    1.01    0.11
  -3   7   4    1.11    0.14
   2  -7  -4    0.85    0.11
  -2   7   4    0.83    0.12
  -2   7   4    0.82    0.12
  -2   7   4    0.90    0.12
  -2   7   4    0.67    0.09
  -2   7   4    0.58    0.10
   1  -7  -4    0.92    0.11
  -1   7   4    0.79    0.11
  -1   7   4    1.04    0.13
  -1   7   4    1.03    0.11
   0  -7  -4    2.52    0.16
   0   7   4    2.06    0.10
   0   7   4    2.04    0.16
   0   7   4    2.34    0.15
   0   7   4    2.28    0.16
  -1  -7  -4   42.17    0.71
   1   7   4   40.75    0.72
   1   7   4   41.81    0.64
   1   7   4   42.69    0.71
   1   7   4   42.33    0.71
  -2  -7  -4   50.43    0.82
   2   7   4   51.17    0.83
   2   7   4   49.62    0.76
   2   7   4   50.12    0.81
   2   7   4   51.04    0.82
  -3  -7  -4    8.56    0.27
   3   7   4    8.37    0.25
   3   7   4    8.21    0.26
   3   7   4    8.51    0.27
   3   7   4    8.69    0.27
  -4  -7  -4   -0.01    0.06
   4   7   4    0.02    0.07
   4   7   4    0.00    0.06
   4   7   4    0.01    0.06
   4   7   4   -0.03    0.06
  -5  -7  -4   13.66    0.36
   5   7   4   13.14    0.36
   5   7   4   13.23    0.36
   5   7   4   12.82    0.37
   5   7   4   13.89    0.34
   6   7   4    0.68    0.13
   6   7   4    0.79    0.12
   6   7   4    0.87    0.13
  -7  -7  -4    1.35    0.18
   7   7   4    1.78    0.17
   7   7   4    1.55    0.18
   5  -8  -4    7.07    0.27
  -5   8   4    6.90    0.37
  -5   8   4    7.97    0.38
  -5   8   4    7.64    0.35
   4  -8  -4   -0.02    0.08
  -4   8   4    0.06    0.11
  -4   8   4    0.03    0.08
  -4   8   4    0.15    0.09
   3  -8  -4    1.95    0.17
  -3   8   4    1.77    0.18
  -3   8   4    1.57    0.18
  -3   8   4    2.00    0.18
   2  -8  -4    2.71    0.18
  -2   8   4    2.89    0.20
  -2   8   4    3.10    0.18
  -2   8   4    2.75    0.19
   1  -8  -4    6.48    0.25
  -1   8   4    6.43    0.26
  -1   8   4    6.65    0.24
  -1   8   4    6.81    0.27
   0  -8  -4    6.66    0.25
   0   8   4    6.43    0.25
   0   8   4    6.13    0.24
   0   8   4    6.06    0.26
   0   8   4    5.95    0.18
  -1  -8  -4   21.80    0.47
   1   8   4   21.38    0.49
   1   8   4   21.64    0.41
   1   8   4   21.73    0.47
   1   8   4   21.61    0.47
  -2  -8  -4    0.14    0.08
   2   8   4    0.01    0.05
   2   8   4    0.00    0.06
   2   8   4    0.11    0.08
   2   8   4    0.01    0.07
  -3  -8  -4    4.53    0.21
   3   8   4    4.09    0.21
   3   8   4    4.34    0.19
   3   8   4    3.99    0.19
   3   8   4    3.78    0.20
  -4  -8  -4    0.21    0.09
   4   8   4    0.33    0.09
   4   8   4    0.12    0.08
   4   8   4    0.03    0.07
   4   8   4    0.18    0.08
  -5  -8  -4    0.61    0.13
   5   8   4    0.65    0.11
   5   8   4    0.65    0.10
   5   8   4    0.54    0.11
   6   8   4    0.09    0.09
   6   8   4    0.09    0.09
  -7  -8  -4    0.12    0.14
   7   8   4    0.15    0.11
   7   8   4    0.19    0.11
   4  -9  -4    3.19    0.22
  -4   9   4    3.51    0.29
  -4   9   4    3.29    0.26
  -4   9   4    3.29    0.23
   3  -9  -4    3.95    0.23
  -3   9   4    4.08    0.27
  -3   9   4    3.70    0.23
  -3   9   4    3.32    0.25
   2  -9  -4   -0.02    0.09
  -2   9   4    0.14    0.09
  -2   9   4    0.01    0.09
   1  -9  -4    4.12    0.23
  -1   9   4    4.83    0.25
  -1   9   4    4.67    0.25
  -1   9   4    4.27    0.22
   0  -9  -4    2.61    0.19
   0   9   4    2.93    0.19
   0   9   4    2.47    0.20
   0   9   4    2.82    0.19
  -1  -9  -4   -0.04    0.08
   1   9   4    0.14    0.07
   1   9   4   -0.07    0.05
   1   9   4    0.09    0.08
   1   9   4    0.15    0.09
  -2  -9  -4    0.10    0.09
   2   9   4    0.15    0.09
   2   9   4    0.11    0.08
   2   9   4    0.06    0.07
   2   9   4   -0.01    0.06
  -3  -9  -4   10.34    0.34
   3   9   4   10.59    0.34
   3   9   4   10.54    0.34
   3   9   4   11.01    0.31
   3   9   4   10.76    0.32
  -4  -9  -4    0.81    0.13
   4   9   4    0.76    0.13
   4   9   4    0.75    0.12
   4   9   4    0.81    0.12
   5   9   4    0.71    0.12
   5   9   4    0.58    0.13
   5   9   4    0.71    0.11
   6   9   4    5.23    0.27
   6   9   4    5.39    0.27
   3 -10  -4    0.27    0.12
  -3  10   4    0.25    0.11
  -3  10   4    0.35    0.14
   2 -10  -4    0.19    0.11
  -2  10   4    0.01    0.09
  -2  10   4    0.19    0.11
   1 -10  -4   -0.06    0.09
  -1  10   4    0.11    0.10
  -1  10   4    0.11    0.10
  -1  10   4   -0.10    0.08
   0 -10  -4    0.42    0.12
   0  10   4    0.38    0.11
   0  10   4    0.33    0.11
   0  10   4    0.43    0.11
  -1 -10  -4    2.63    0.21
   1  10   4    2.94    0.20
   1  10   4    2.58    0.20
   1  10   4    2.92    0.23
  -2 -10  -4    1.77    0.18
   2  10   4    1.50    0.16
   2  10   4    1.82    0.16
   2  10   4    1.60    0.17
   2  10   4    1.46    0.15
  -3 -10  -4    9.51    0.35
   3  10   4   10.07    0.36
   3  10   4    9.61    0.31
   3  10   4   10.07    0.36
  -4 -10  -4    0.24    0.11
   4  10   4    0.35    0.11
   4  10   4    0.26    0.12
   4  10   4    0.38    0.11
   5  10   4    4.30    0.30
   5  10   4    4.55    0.28
   5  10   4    3.86    0.24
   1 -11  -4   -0.02    0.12
  -1  11   4    0.03    0.12
  -1  11   4    0.08    0.11
  -1  11   4    0.39    0.13
   0 -11  -4    3.24    0.25
   0  11   4    3.62    0.27
   0  11   4    4.00    0.25
   0  11   4    3.31    0.25
  -1 -11  -4    0.20    0.12
   1  11   4    0.49    0.13
   1  11   4    0.38    0.13
  -2 -11  -4    6.16    0.30
   2  11   4    6.77    0.32
   2  11   4    6.59    0.31
  -3 -11  -4    1.39    0.18
   3  11   4    1.30    0.17
   3  11   4    1.37    0.18
   3  11   4    1.14    0.14
   4   9  -5    0.96    0.16
  -4  -9   5    1.41    0.24
   3   9  -5   28.77    0.63
   3   9  -5   28.17    0.64
  -3  -9   5   28.34    0.75
   2   9  -5    4.77    0.27
   2   9  -5    5.33    0.30
  -2  -9   5    4.78    0.35
  -2  -9   5    4.25    0.35
   1   9  -5   12.41    0.39
   1   9  -5   12.83    0.42
  -1  -9   5   12.75    0.48
  -1  -9   5   12.63    0.41
   0   9  -5   -0.06    0.09
   0   9  -5    0.00    0.12
   0  -9   5    0.10    0.12
   0  -9   5   -0.17    0.13
  -1   9  -5    3.95    0.24
  -1   9  -5    3.40    0.28
  -1   9  -5    4.05    0.28
   1  -9   5    3.48    0.26
  -2   9  -5    1.08    0.17
  -2   9  -5    1.15    0.16
  -2   9  -5    1.09    0.19
   2  -9   5    1.19    0.18
   5   8  -5    3.11    0.25
  -5  -8   5    3.50    0.32
   4   8  -5    0.71    0.14
  -4  -8   5    0.55    0.18
   3   8  -5    2.47    0.20
  -3  -8   5    1.90    0.23
   2   8  -5    0.22    0.10
   2   8  -5    0.27    0.12
  -2  -8   5    0.26    0.14
  -2  -8   5    0.25    0.11
   1   8  -5    0.32    0.12
   1   8  -5    0.46    0.11
  -1  -8   5    0.45    0.12
  -1  -8   5    0.34    0.14
   0   8  -5   -0.13    0.07
   0   8  -5    0.04    0.11
   0  -8   5   -0.01    0.09
   0  -8   5   -0.20    0.10
  -1   8  -5    4.57    0.24
  -1   8  -5    4.39    0.26
   1  -8   5    4.01    0.25
  -2   8  -5    2.40    0.21
  -2   8  -5    2.17    0.19
   2  -8   5    2.71    0.23
  -3   8  -5    2.46    0.20
  -3   8  -5    2.07    0.21
  -3   8  -5    2.65    0.23
   3  -8   5    2.64    0.23
   6   7  -5    3.73    0.25
   6   7  -5    3.23    0.21
  -6  -7   5    3.33    0.31
   5   7  -5    0.53    0.12
  -5  -7   5    0.41    0.15
   4   7  -5    0.24    0.10
  -4  -7   5    0.31    0.14
   3   7  -5    9.75    0.32
  -3  -7   5    9.37    0.39
   2   7  -5    1.58    0.15
  -2  -7   5    2.05    0.17
  -2  -7   5    1.48    0.19
   1   7  -5    0.15    0.10
   1   7  -5    0.20    0.09
  -1  -7   5   -0.01    0.09
  -1  -7   5    0.07    0.11
   0   7  -5    5.41    0.24
   0   7  -5    5.07    0.25
   0  -7   5    5.76    0.29
   0  -7   5    5.29    0.24
  -1   7  -5    9.82    0.32
  -1   7  -5    9.69    0.31
   1  -7   5    9.43    0.32
  -2   7  -5    1.35    0.14
  -2   7  -5    1.39    0.15
   2  -7   5    1.56    0.16
  -3   7  -5   41.27    0.80
  -3   7  -5   43.26    0.78
  -3   7  -5   41.95    0.76
  -3   7  -5   40.75    0.80
   3  -7   5   40.93    0.78
  -4   7  -5    5.50    0.28
  -4   7  -5    6.11    0.27
  -4   7  -5    5.92    0.35
  -4   7  -5    6.48    0.29
   4  -7   5    6.54    0.30
  -5   7  -5    0.57    0.21
  -5   7  -5    1.08    0.15
   5  -7   5    0.91    0.15
   7   6  -5    0.37    0.13
  -7  -6   5   -0.01    0.12
   6   6  -5   10.53    0.35
   6   6  -5    9.84    0.28
  -6  -6   5   10.35    0.42
   5   6  -5    0.28    0.10
  -5  -6   5    0.20    0.12
   4   6  -5    0.78    0.12
  -4  -6   5    0.80    0.15
   3   6  -5    1.25    0.14
  -3  -6   5    1.24    0.17
   2   6  -5   22.79    0.47
   2   6  -5   22.90    0.48
  -2  -6   5   22.40    0.46
  -2  -6   5   23.48    0.55
   1   6  -5    6.41    0.23
   1   6  -5    6.23    0.24
  -1  -6   5    6.31    0.28
  -1  -6   5    6.41    0.24
   0   6  -5    6.87    0.25
   0   6  -5    6.43    0.24
   0  -6   5    6.29    0.24
   0  -6   5    6.10    0.27
  -1   6  -5    7.01    0.26
  -1   6  -5    6.68    0.24
  -1   6  -5    6.70    0.29
   1  -6   5    6.28    0.26
   1  -6   5    6.73    0.25
  -2   6  -5   31.21    0.61
  -2   6  -5   30.40    0.60
  -2   6  -5   31.57    0.59
   2  -6   5   31.68    0.61
  -3   6  -5    2.86    0.25
  -3   6  -5    2.70    0.20
  -3   6  -5    2.53    0.17
   3  -6   5    2.75    0.20
  -4   6  -5    9.30    0.31
  -4   6  -5    9.43    0.33
  -4   6  -5    9.88    0.32
  -4   6  -5    9.66    0.39
   4  -6   5    9.76    0.33
  -5   6  -5   -0.09    0.16
  -5   6  -5    0.00    0.08
   5  -6   5   -0.02    0.09
  -6   6  -5    0.32    0.11
  -6   6  -5    0.04    0.12
  -6   6  -5   -0.08    0.20
  -6   6  -5    0.23    0.14
   6  -6   5    0.26    0.11
   7   5  -5    5.39    0.27
  -7  -5   5    4.93    0.31
   6   5  -5   29.43    0.60
  -6  -5   5   29.02    0.68
   5   5  -5    9.18    0.25
   5   5  -5    9.43    0.30
  -5  -5   5    9.06    0.36
   4   5  -5    3.70    0.19
   4   5  -5    3.85    0.18
  -4  -5   5    3.89    0.25
   3   5  -5   17.65    0.37
   3   5  -5   17.04    0.39
  -3  -5   5   17.79    0.46
   2   5  -5    3.15    0.17
   2   5  -5    2.96    0.18
  -2  -5   5    3.29    0.22
  -2  -5   5    2.94    0.16
   1   5  -5    1.35    0.13
   1   5  -5    0.98    0.11
  -1  -5   5    1.05    0.14
  -1  -5   5    1.18    0.12
   0   5  -5    6.01    0.23
   0   5  -5    5.26    0.20
   0  -5   5    5.62    0.24
   0  -5   5    5.52    0.21
  -1   5  -5    1.77    0.14
  -1   5  -5    1.85    0.16
  -1   5  -5    1.40    0.13
   1  -5   5    1.80    0.15
   1  -5   5    1.88    0.17
  -2   5  -5    5.14    0.20
  -2   5  -5    4.89    0.21
  -2   5  -5    5.20    0.25
   2  -5   5    5.11    0.22
  -3   5  -5    1.31    0.13
  -3   5  -5    1.54    0.14
  -3   5  -5    1.08    0.16
   3  -5   5    1.39    0.14
  -4   5  -5    2.36    0.18
  -4   5  -5    2.26    0.22
  -4   5  -5    2.50    0.17
   4  -5   5    2.27    0.19
  -5   5  -5    1.35    0.21
  -5   5  -5    1.33    0.15
   5  -5   5    1.32    0.15
  -6   5  -5    3.14    0.28
  -6   5  -5    2.98    0.30
  -6   5  -5    3.35    0.26
  -6   5  -5    3.25    0.22
   6  -5   5    3.24    0.22
   8   4  -5    6.69    0.30
  -8  -4   5    5.81    0.30
  -8  -4   5    6.23    0.33
   7   4  -5   36.22    0.68
  -7  -4   5   33.18    0.75
   6   4  -5    3.16    0.20
  -6  -4   5    3.06    0.23
   5   4  -5    4.61    0.20
   5   4  -5    4.23    0.16
  -5  -4   5    4.35    0.25
   4   4  -5   14.43    0.34
   4   4  -5   14.61    0.30
  -4  -4   5   14.26    0.40
   3   4  -5    8.52    0.25
   3   4  -5    9.12    0.24
  -3  -4   5    8.95    0.31
   2   4  -5    1.03    0.10
   2   4  -5    0.94    0.10
  -2  -4   5    0.88    0.12
  -2  -4   5    0.92    0.10
   1   4  -5    0.22    0.07
   1   4  -5    0.19    0.07
  -1  -4   5    0.23    0.07
  -1  -4   5    0.27    0.08
   0   4  -5    4.13    0.18
   0   4  -5    3.87    0.16
   0  -4   5    3.67    0.17
   0  -4   5    3.77    0.18
  -1   4  -5    2.35    0.17
  -1   4  -5    2.53    0.16
  -1   4  -5    2.47    0.14
   1  -4   5    2.40    0.15
   1  -4   5    2.57    0.15
  -2   4  -5    1.14    0.11
  -2   4  -5    1.01    0.14
  -2   4  -5    1.21    0.11
   2  -4   5    1.26    0.12
   2  -4   5    1.32    0.12
  -3   4  -5    6.00    0.22
  -3   4  -5    5.74    0.21
  -3   4  -5    5.76    0.27
   3  -4   5    6.10    0.22
  -4   4  -5   -0.06    0.12
  -4   4  -5   -0.11    0.07
  -4   4  -5   -0.03    0.06
   4  -4   5   -0.02    0.07
  -5   4  -5    9.62    0.40
  -5   4  -5    8.94    0.29
   5  -4   5    8.98    0.29
  -6   4  -5    0.73    0.12
  -6   4  -5    0.46    0.14
  -6   4  -5    0.95    0.15
   6  -4   5    0.73    0.12
  -7   4  -5    0.71    0.15
  -7   4  -5    0.77    0.17
   7  -4   5    0.62    0.12
   8   3  -5    0.86    0.14
  -8  -3   5    0.40    0.15
  -8  -3   5    0.46    0.13
  -8  -3   5    0.38    0.12
   7   3  -5   10.09    0.31
  -7  -3   5    9.71    0.36
  -7  -3   5    9.32    0.42
  -7  -3   5   10.01    0.34
   6   3  -5    0.10    0.08
  -6  -3   5    0.00    0.08
  -6  -3   5   -0.01    0.07
   5   3  -5   16.10    0.36
   5   3  -5   15.51    0.27
  -5  -3   5   15.98    0.42
  -5  -3   5   15.52    0.38
   4   3  -5   10.96    0.23
   4   3  -5   11.53    0.28
  -4  -3   5   11.73    0.34
   3   3  -5    0.84    0.09
   3   3  -5    0.80    0.08
  -3  -3   5    0.78    0.11
  -3  -3   5    1.03    0.10
   2   3  -5   11.35    0.26
   2   3  -5   11.48    0.25
  -2  -3   5   11.66    0.31
  -2  -3   5   11.21    0.24
   1   3  -5    7.53    0.20
   1   3  -5    7.68    0.21
  -1  -3   5    7.68    0.20
  -1  -3   5    7.56    0.23
   0   3  -5   75.41    1.04
   0   3  -5   72.81    1.03
   0  -3   5   75.75    1.04
   0  -3   5   75.96    1.03
  -1   3  -5    0.34    0.07
  -1   3  -5    0.26    0.07
   1  -3   5    0.37    0.06
   1  -3   5    0.38    0.07
  -2   3  -5    0.33    0.07
  -2   3  -5    0.18    0.07
   2  -3   5    0.20    0.07
   2  -3   5    0.17    0.05
  -3   3  -5    0.08    0.11
  -3   3  -5    0.05    0.07
  -3   3  -5    0.11    0.06
   3  -3   5    0.04    0.06
  -4   3  -5   10.49    0.28
  -4   3  -5   10.31    0.28
   4  -3   5    9.95    0.28
  -5   3  -5    9.98    0.30
  -5   3  -5    9.89    0.39
  -5   3  -5   10.37    0.29
   5  -3   5    9.89    0.29
  -6   3  -5    6.20    0.32
  -6   3  -5    6.36    0.26
  -6   3  -5    6.44    0.30
   6  -3   5    5.96    0.24
  -7   3  -5    0.47    0.14
  -7   3  -5    0.35    0.13
   7  -3   5    0.47    0.10
  -8  -2   5    0.08    0.12
  -8  -2   5    0.01    0.08
  -8  -2   5   -0.01    0.08
   7   2  -5    4.70    0.22
  -7  -2   5    4.97    0.24
  -7  -2   5    4.58    0.30
  -7  -2   5    4.79    0.26
   6   2  -5    0.45    0.09
  -6  -2   5    0.45    0.12
  -6  -2   5    0.33    0.10
  -6  -2   5    0.38    0.09
   5   2  -5    0.18    0.07
  -5  -2   5    0.10    0.08
  -5  -2   5    0.08    0.07
  -5  -2   5    0.08    0.07
   4   2  -5    0.10    0.06
   4   2  -5    0.06    0.05
  -4  -2   5    0.05    0.07
  -4  -2   5    0.00    0.06
   3   2  -5   17.59    0.33
   3   2  -5   17.02    0.29
  -3  -2   5   17.26    0.29
  -3  -2   5   17.72    0.39
   2   2  -5    0.96    0.08
   2   2  -5    0.91    0.08
  -2  -2   5    0.88    0.10
  -2  -2   5    0.99    0.08
  -2  -2   5    0.99    0.09
   1   2  -5  155.07    1.96
   1   2  -5  158.08    1.97
  -1  -2   5  153.11    1.94
  -1  -2   5  155.21    1.99
  -1  -2   5  157.25    1.95
   0   2  -5   23.95    0.41
   0   2  -5   25.16    0.41
   0  -2   5   24.32    0.40
   0  -2   5   24.26    0.40
  -1   2  -5   11.63    0.25
  -1   2  -5   11.26    0.26
   1  -2   5   11.51    0.22
   1  -2   5   11.58    0.25
  -2   2  -5   19.38    0.36
  -2   2  -5   19.48    0.37
   2  -2   5   19.31    0.37
   2  -2   5   19.61    0.29
  -3   2  -5   19.20    0.37
  -3   2  -5   18.03    0.37
   3  -2   5   17.93    0.37
  -4   2  -5    0.01    0.06
  -4   2  -5    0.01    0.06
   4  -2   5    0.03    0.06
  -5   2  -5   12.17    0.40
  -5   2  -5   11.46    0.32
  -5   2  -5   11.94    0.30
   5  -2   5   11.61    0.30
  -6   2  -5    2.31    0.17
  -6   2  -5    2.28    0.21
  -6   2  -5    2.35    0.20
   6  -2   5    2.66    0.16
  -7   2  -5    3.34    0.26
  -7   2  -5    3.55    0.24
   7  -2   5    3.44    0.19
  -8   2  -5    0.14    0.11
  -8   2  -5   -0.11    0.09
   8  -2   5    0.04    0.08
  -8  -1   5    2.51    0.26
  -8  -1   5    2.68    0.21
  -8  -1   5    2.90    0.22
  -7  -1   5    0.80    0.12
  -7  -1   5    0.67    0.12
  -7  -1   5    0.74    0.15
   6   1  -5    2.94    0.16
  -6  -1   5    2.82    0.18
  -6  -1   5    2.67    0.22
  -6  -1   5    2.75    0.17
   5   1  -5    0.02    0.06
  -5  -1   5    0.02    0.07
  -5  -1   5   -0.02    0.06
  -5  -1   5   -0.01    0.06
  -5  -1   5   -0.01    0.06
  -5  -1   5   -0.03    0.05
   4   1  -5    0.91    0.08
  -4  -1   5    1.01    0.11
  -4  -1   5    1.13    0.11
  -4  -1   5    1.02    0.09
  -4  -1   5    0.92    0.09
  -4  -1   5    0.81    0.12
   3   1  -5    0.23    0.05
   3   1  -5    0.26    0.04
  -3  -1   5    0.17    0.06
  -3  -1   5    0.19    0.06
  -3  -1   5    0.20    0.04
  -3  -1   5    0.28    0.07
  -3  -1   5    0.11    0.06
   2   1  -5   26.94    0.41
   2   1  -5   26.85    0.40
  -2  -1   5   26.00    0.37
  -2  -1   5   26.47    0.44
  -2  -1   5   27.03    0.39
  -2  -1   5   26.61    0.46
   1   1  -5   10.92    0.22
   1   1  -5   10.95    0.22
  -1  -1   5   11.01    0.19
  -1  -1   5   11.10    0.24
  -1  -1   5   11.02    0.21
  -1  -1   5   10.71    0.24
   0   1  -5   22.34    0.36
   0   1  -5   22.33    0.37
   0  -1   5   22.20    0.36
   0  -1   5   23.03    0.39
   0  -1   5   22.76    0.36
  -1   1  -5   21.52    0.36
  -1   1  -5   20.80    0.36
   1  -1   5   20.97    0.36
   1  -1   5   21.31    0.37
   1  -1   5   21.70    0.32
  -2   1  -5   11.40    0.24
  -2   1  -5   11.26    0.25
   2  -1   5   11.05    0.25
  -3   1  -5   35.16    0.57
  -3   1  -5   35.83    0.57
   3  -1   5   35.37    0.57
  -4   1  -5    7.22    0.22
  -4   1  -5    7.35    0.23
   4  -1   5    7.39    0.22
  -5   1  -5    7.86    0.27
  -5   1  -5    7.66    0.23
  -5   1  -5    7.63    0.29
  -5   1  -5    7.99    0.25
   5  -1   5    7.61    0.24
  -6   1  -5    1.49    0.17
  -6   1  -5    1.54    0.16
   6  -1   5    1.66    0.14
  -7   1  -5    0.02    0.08
  -7   1  -5    0.25    0.10
   7  -1   5    0.09    0.07
  -8   1  -5    0.03    0.09
  -8   1  -5    0.06    0.10
   8  -1   5   -0.01    0.07
  -8   0   5    0.99    0.15
  -8   0   5    0.84    0.18
  -8   0   5    0.75    0.13
  -7   0   5    3.31    0.21
  -7   0   5    3.22    0.26
  -7   0   5    3.43    0.20
  -6   0   5    1.00    0.13
  -6   0   5    0.84    0.11
  -6   0   5    0.73    0.14
  -6   0   5    0.84    0.11
   5   0  -5    1.27    0.10
  -5   0   5    1.37    0.13
  -5   0   5    1.11    0.11
  -5   0   5    1.60    0.14
  -5   0   5    1.34    0.12
  -5   0   5    1.52    0.16
   4   0  -5   15.29    0.28
  -4   0   5   15.51    0.35
  -4   0   5   15.49    0.31
  -4   0   5   15.09    0.33
  -4   0   5   14.85    0.40
  -4   0   5   15.28    0.30
   3   0  -5   94.66    1.22
  -3   0   5   96.60    1.29
  -3   0   5   96.27    1.32
  -3   0   5   95.36    1.26
  -3   0   5   98.08    1.37
  -3   0   5   94.21    1.24
   2   0  -5    8.81    0.18
   2   0  -5    8.80    0.17
  -2   0   5    9.09    0.22
  -2   0   5    9.30    0.18
  -2   0   5    9.27    0.21
  -2   0   5    8.98    0.25
  -2   0   5    9.01    0.21
   1   0  -5    0.38    0.04
   1   0  -5    0.24    0.05
  -1   0   5    0.29    0.04
  -1   0   5    0.27    0.04
  -1   0   5    0.20    0.05
   0   0  -5    2.05    0.08
   0   0  -5    1.97    0.09
   0   0   5    2.08    0.10
   0   0   5    1.92    0.09
   0   0   5    1.79    0.08
   0   0   5    2.03    0.08
  -1   0  -5   14.00    0.27
  -1   0  -5   14.01    0.26
   1   0   5   14.34    0.27
   1   0   5   14.39    0.23
   1   0   5   14.53    0.27
  -2   0  -5    8.69    0.21
  -2   0  -5    8.66    0.20
   2   0   5    8.93    0.20
   2   0   5    8.33    0.20
  -3   0  -5    4.38    0.16
  -3   0  -5    4.24    0.15
   3   0   5    4.26    0.15
   3   0   5    4.41    0.14
  -4   0  -5   24.88    0.46
  -4   0  -5   25.84    0.51
  -4   0  -5   25.23    0.45
   4   0   5   25.32    0.45
  -5   0  -5    0.63    0.11
  -5   0  -5    0.47    0.09
  -5   0  -5    0.61    0.09
   5   0   5    0.54    0.08
  -6   0  -5   16.80    0.46
  -6   0  -5   17.73    0.43
   6   0   5   17.52    0.38
  -7   0  -5    3.83    0.25
  -7   0  -5    3.68    0.22
   7   0   5    3.65    0.18
  -8   0  -5    0.32    0.11
  -8   0  -5    0.31    0.12
   8   0   5    0.33    0.09
  -8   1   5   10.01    0.36
  -8   1   5    9.62    0.34
  -8   1   5   10.41    0.39
  -8   1   5    9.40    0.44
  -7   1   5    1.04    0.14
  -7   1   5    1.11    0.15
  -7   1   5    0.81    0.12
  -7   1   5    0.85    0.16
  -6   1   5    0.37    0.08
  -6   1   5    0.33    0.09
  -6   1   5    0.49    0.10
  -6   1   5    0.28    0.10
  -5   1   5    6.55    0.19
  -5   1   5    6.51    0.23
  -5   1   5    6.47    0.28
  -5   1   5    6.45    0.23
  -5   1   5    6.47    0.23
   4  -1  -5    0.79    0.06
  -4   1   5    0.89    0.10
  -4   1   5    0.88    0.10
  -4   1   5    0.66    0.10
  -4   1   5    0.86    0.09
  -4   1   5    0.93    0.09
   3  -1  -5    9.51    0.17
  -3   1   5    9.86    0.25
  -3   1   5    9.25    0.27
  -3   1   5    9.44    0.22
  -3   1   5    9.39    0.23
  -3   1   5    9.68    0.22
   2  -1  -5    0.01    0.03
   2  -1  -5    0.00    0.03
  -2   1   5    0.01    0.04
  -2   1   5    0.02    0.04
  -2   1   5   -0.03    0.03
  -2   1   5    0.03    0.04
  -2   1   5   -0.01    0.04
   1  -1  -5    1.01    0.07
   1  -1  -5    1.03    0.05
  -1   1   5    1.06    0.06
  -1   1   5    1.03    0.07
  -1   1   5    1.04    0.08
  -1   1   5    1.11    0.08
  -1   1   5    1.16    0.08
   0  -1  -5    6.49    0.16
   0  -1  -5    6.69    0.14
   0   1   5    6.68    0.16
   0   1   5    6.59    0.16
   0   1   5    6.52    0.17
   0   1   5    6.64    0.15
  -1  -1  -5   88.94    1.15
  -1  -1  -5   90.09    1.18
   1   1   5   90.81    1.16
   1   1   5   91.00    1.17
  -2  -1  -5   14.40    0.27
  -2  -1  -5   13.90    0.28
   2   1   5   13.77    0.27
   2   1   5   14.40    0.25
  -3  -1  -5   36.75    0.57
  -3  -1  -5   35.75    0.57
  -3  -1  -5   37.47    0.58
   3   1   5   37.05    0.57
   3   1   5   36.98    0.52
  -4  -1  -5    0.89    0.09
  -4  -1  -5    0.90    0.10
  -4  -1  -5    0.89    0.10
   4   1   5    0.99    0.09
   4   1   5    0.91    0.08
  -5  -1  -5   43.39    0.68
  -5  -1  -5   42.57    0.70
  -5  -1  -5   42.27    0.74
   5   1   5   42.86    0.68
  -6  -1  -5   14.34    0.36
  -6  -1  -5   15.06    0.41
   6   1   5   14.80    0.34
  -7  -1  -5    1.15    0.14
  -7  -1  -5    1.01    0.15
   7   1   5    1.06    0.12
  -8  -1  -5   10.60    0.41
  -8  -1  -5   10.78    0.36
   8   1   5   11.25    0.31
  -8   2   5    0.01    0.11
  -8   2   5    0.05    0.07
  -8   2   5    0.16    0.10
  -8   2   5    0.05    0.11
  -7   2   5    0.64    0.13
  -7   2   5    0.89    0.14
  -7   2   5    0.86    0.12
  -7   2   5    0.82    0.16
  -6   2   5    0.91    0.11
  -6   2   5    0.99    0.14
  -6   2   5    0.85    0.14
  -6   2   5    0.85    0.12
  -5   2   5   10.63    0.25
  -5   2   5   10.88    0.30
  -5   2   5   10.21    0.30
  -5   2   5   10.97    0.31
  -5   2   5   10.34    0.35
  -4   2   5    8.55    0.22
  -4   2   5    8.71    0.29
  -4   2   5    8.46    0.24
  -4   2   5    8.44    0.25
  -4   2   5    8.55    0.25
   3  -2  -5    0.14    0.03
  -3   2   5    0.14    0.06
  -3   2   5    0.18    0.06
  -3   2   5    0.18    0.05
  -3   2   5    0.17    0.05
  -3   2   5    0.12    0.05
   2  -2  -5    3.96    0.11
  -2   2   5    3.95    0.15
  -2   2   5    3.95    0.15
  -2   2   5    3.94    0.12
  -2   2   5    4.04    0.14
  -2   2   5    4.02    0.10
  -2   2   5    4.16    0.14
   1  -2  -5  114.47    1.44
  -1   2   5  114.64    1.49
  -1   2   5  114.43    1.46
  -1   2   5  114.15    1.43
  -1   2   5  114.75    1.51
  -1   2   5  110.73    1.64
  -1   2   5  113.63    1.47
   0  -2  -5   38.66    0.56
   0  -2  -5   39.07    0.52
   0   2   5   39.27    0.56
   0   2   5   39.08    0.59
   0   2   5   39.71    0.57
  -1  -2  -5   14.17    0.27
   1   2   5   13.79    0.26
   1   2   5   13.61    0.29
   1   2   5   13.99    0.26
  -2  -2  -5   74.61    1.02
  -2  -2  -5   76.15    0.96
   2   2   5   74.86    0.98
   2   2   5   75.22    1.01
  -3  -2  -5   17.64    0.31
  -3  -2  -5   16.76    0.33
   3   2   5   17.10    0.33
   3   2   5   17.31    0.28
  -4  -2  -5   10.07    0.25
  -4  -2  -5    9.58    0.25
  -4  -2  -5    9.88    0.24
   4   2   5   10.18    0.19
   4   2   5    9.91    0.25
  -5  -2  -5   37.41    0.61
  -5  -2  -5   36.94    0.66
  -5  -2  -5   36.70    0.61
   5   2   5   36.74    0.61
  -6  -2  -5    1.36    0.14
  -6  -2  -5    1.56    0.14
   6   2   5    1.50    0.13
  -7  -2  -5    0.80    0.12
  -7  -2  -5    0.80    0.13
   7   2   5    0.74    0.10
  -8  -2  -5    0.29    0.10
  -8  -2  -5    0.32    0.11
   8   2   5    0.32    0.09
  -8   3   5    1.99    0.26
  -8   3   5    2.04    0.22
  -8   3   5    2.50    0.21
  -7   3   5    5.26    0.28
  -7   3   5    5.08    0.25
  -7   3   5    4.84    0.32
  -7   3   5    5.18    0.26
  -6   3   5    1.44    0.16
  -6   3   5    1.12    0.13
  -6   3   5    1.17    0.13
  -6   3   5    1.35    0.18
  -5   3   5   18.41    0.43
  -5   3   5   18.60    0.44
  -5   3   5   18.88    0.37
  -5   3   5   19.12    0.50
  -5   3   5   19.06    0.42
   4  -3  -5   30.74    0.43
  -4   3   5   30.71    0.57
  -4   3   5   30.35    0.61
  -4   3   5   31.90    0.55
  -4   3   5   30.94    0.51
  -4   3   5   31.12    0.57
   3  -3  -5    0.12    0.04
  -3   3   5    0.11    0.05
  -3   3   5    0.11    0.06
  -3   3   5    0.17    0.05
  -3   3   5    0.06    0.05
  -3   3   5    0.14    0.06
   2  -3  -5   67.67    0.90
  -2   3   5   68.82    0.95
  -2   3   5   70.17    0.98
  -2   3   5   67.56    0.91
  -2   3   5   67.40    0.90
  -2   3   5   67.95    0.97
   1  -3  -5   75.51    1.00
  -1   3   5   75.33    1.02
  -1   3   5   75.41    1.00
  -1   3   5   75.38    0.96
  -1   3   5   73.74    1.04
  -1   3   5   74.53    0.99
   0  -3  -5    4.16    0.13
   0   3   5    3.91    0.13
   0   3   5    4.16    0.14
   0   3   5    4.15    0.15
  -1  -3  -5    0.30    0.05
   1   3   5    0.32    0.05
   1   3   5    0.41    0.07
   1   3   5    0.41    0.06
  -2  -3  -5  105.19    1.37
  -2  -3  -5  102.10    1.28
   2   3   5  105.17    1.37
   2   3   5  102.57    1.42
   2   3   5  104.59    1.34
  -3  -3  -5   15.05    0.27
  -3  -3  -5   15.07    0.26
  -3  -3  -5   15.27    0.31
   3   3   5   14.83    0.31
   3   3   5   15.42    0.27
  -4  -3  -5    0.22    0.05
  -4  -3  -5    0.17    0.06
  -4  -3  -5    0.16    0.05
   4   3   5    0.09    0.06
   4   3   5    0.18    0.04
  -5  -3  -5    8.44    0.22
  -5  -3  -5    7.96    0.23
  -5  -3  -5    8.19    0.24
  -5  -3  -5    7.96    0.25
   5   3   5    8.18    0.24
  -6  -3  -5   17.05    0.42
  -6  -3  -5   16.76    0.37
   6   3   5   16.63    0.37
  -7  -3  -5    3.55    0.18
  -7  -3  -5    3.51    0.22
   7   3   5    3.53    0.18
  -8  -3  -5    5.86    0.25
  -8  -3  -5    5.74    0.30
   8   3   5    6.16    0.24
  -7   4   5    0.57    0.12
  -7   4   5    0.40    0.14
  -7   4   5    0.45    0.14
  -6   4   5   13.42    0.46
  -6   4   5   14.26    0.39
  -6   4   5   13.83    0.42
  -5   4   5   63.04    1.02
  -5   4   5   61.82    1.09
  -5   4   5   61.22    0.91
  -5   4   5   62.55    0.97
   4  -4  -5    1.41    0.10
  -4   4   5    1.58    0.16
  -4   4   5    1.72    0.15
  -4   4   5    1.38    0.12
  -4   4   5    1.52    0.13
   3  -4  -5    6.45    0.17
  -3   4   5    6.43    0.23
  -3   4   5    6.46    0.20
  -3   4   5    6.16    0.19
  -3   4   5    6.27    0.23
   2  -4  -5   67.86    0.92
  -2   4   5   68.38    0.98
  -2   4   5   65.69    0.98
  -2   4   5   66.85    0.96
  -2   4   5   67.34    0.91
  -2   4   5   66.81    0.91
   1  -4  -5   87.40    1.17
  -1   4   5   87.98    1.20
  -1   4   5   88.87    1.23
  -1   4   5   87.20    1.11
  -1   4   5   88.64    1.17
  -1   4   5   90.16    1.18
   0  -4  -5   16.34    0.32
   0   4   5   17.24    0.27
   0   4   5   16.61    0.33
   0   4   5   16.80    0.32
   0   4   5   16.25    0.34
  -1  -4  -5   15.79    0.31
   1   4   5   15.75    0.31
   1   4   5   15.78    0.34
   1   4   5   15.29    0.31
  -2  -4  -5    5.13    0.17
   2   4   5    4.99    0.19
   2   4   5    5.15    0.17
   2   4   5    5.07    0.16
  -3  -4  -5   23.22    0.43
  -3  -4  -5   22.76    0.34
   3   4   5   23.42    0.43
   3   4   5   22.75    0.47
   3   4   5   23.09    0.39
  -4  -4  -5    5.32    0.19
  -4  -4  -5    4.85    0.17
  -4  -4  -5    5.01    0.14
   4   4   5    5.00    0.19
   4   4   5    5.19    0.15
  -5  -4  -5   -0.06    0.05
  -5  -4  -5    0.07    0.05
  -5  -4  -5   -0.02    0.06
   5   4   5    0.04    0.06
  -6  -4  -5    0.34    0.09
  -6  -4  -5    0.49    0.08
   6   4   5    0.42    0.09
  -7  -4  -5   11.09    0.48
  -7  -4  -5   10.85    0.30
   7   4   5   10.50    0.31
   8   4   5   12.33    0.34
  -7   5   5    1.19    0.19
  -7   5   5    1.71    0.18
  -7   5   5    1.39    0.20
  -6   5   5    1.02    0.13
  -6   5   5    1.24    0.17
  -6   5   5    1.16    0.18
   5  -5  -5    4.55    0.16
  -5   5   5    5.03    0.26
  -5   5   5    5.00    0.22
  -5   5   5    4.73    0.27
  -5   5   5    4.62    0.20
   4  -5  -5   16.54    0.32
  -4   5   5   16.25    0.42
  -4   5   5   16.21    0.44
  -4   5   5   16.43    0.37
  -4   5   5   16.22    0.37
   3  -5  -5    1.26    0.10
  -3   5   5    1.40    0.11
  -3   5   5    1.39    0.13
  -3   5   5    1.12    0.12
  -3   5   5    0.91    0.10
   2  -5  -5   11.65    0.27
  -2   5   5   11.82    0.26
  -2   5   5   11.06    0.23
  -2   5   5   11.98    0.30
  -2   5   5   11.44    0.29
  -2   5   5   11.41    0.31
   1  -5  -5    1.23    0.10
  -1   5   5    1.39    0.12
  -1   5   5    1.14    0.07
  -1   5   5    1.13    0.11
  -1   5   5    1.24    0.09
  -1   5   5    1.34    0.10
   0  -5  -5    1.02    0.09
   0   5   5    1.13    0.06
   0   5   5    1.29    0.08
   0   5   5    0.92    0.09
   0   5   5    1.32    0.10
   0   5   5    1.04    0.10
  -1  -5  -5   19.75    0.39
   1   5   5   20.04    0.41
   1   5   5   20.07    0.38
   1   5   5   19.61    0.39
  -2  -5  -5    9.67    0.26
   2   5   5    9.79    0.27
   2   5   5    9.64    0.25
   2   5   5   10.28    0.25
  -3  -5  -5   18.07    0.38
   3   5   5   18.73    0.42
   3   5   5   17.99    0.38
   3   5   5   18.33    0.36
  -4  -5  -5    9.11    0.26
   4   5   5    9.27    0.23
   4   5   5    9.50    0.31
   4   5   5    9.44    0.27
  -5  -5  -5   17.40    0.39
   5   5   5   17.31    0.39
  -6  -5  -5    1.06    0.14
   6   5   5    1.33    0.13
   7   5   5    8.63    0.29
   8   5   5   15.06    0.39
  -6   6   5    0.20    0.11
  -6   6   5    0.11    0.08
  -6   6   5    0.30    0.13
   5  -6  -5    0.03    0.06
  -5   6   5    0.00    0.08
  -5   6   5    0.26    0.12
  -5   6   5    0.04    0.06
  -5   6   5    0.04    0.07
   4  -6  -5   -0.01    0.06
  -4   6   5    0.01    0.06
  -4   6   5    0.05    0.06
  -4   6   5    0.02    0.08
  -4   6   5    0.03    0.07
   3  -6  -5   12.36    0.29
  -3   6   5   11.90    0.35
  -3   6   5   12.62    0.29
  -3   6   5   11.96    0.36
  -3   6   5   12.43    0.33
   2  -6  -5    1.17    0.11
  -2   6   5    1.07    0.10
  -2   6   5    0.97    0.12
  -2   6   5    1.06    0.12
  -2   6   5    1.12    0.09
  -2   6   5    0.97    0.11
   1  -6  -5    3.44    0.16
  -1   6   5    3.23    0.17
  -1   6   5    3.44    0.11
  -1   6   5    3.48    0.16
  -1   6   5    3.53    0.16
   0  -6  -5    1.43    0.12
   0   6   5    1.43    0.13
   0   6   5    1.27    0.12
   0   6   5    1.45    0.08
   0   6   5    1.51    0.12
  -1  -6  -5    0.13    0.07
   1   6   5    0.06    0.04
   1   6   5    0.10    0.06
   1   6   5    0.02    0.06
   1   6   5    0.11    0.06
  -2  -6  -5    4.68    0.19
   2   6   5    4.56    0.19
   2   6   5    4.93    0.20
   2   6   5    4.35    0.16
   2   6   5    4.69    0.19
  -3  -6  -5   10.97    0.30
   3   6   5   11.44    0.29
   3   6   5   11.44    0.32
  -4  -6  -5   14.20    0.35
   4   6   5   14.21    0.35
   4   6   5   14.80    0.39
   4   6   5   14.82    0.33
  -5  -6  -5    0.33    0.09
   5   6   5    0.11    0.09
   5   6   5    0.08    0.07
   6   6   5    2.77    0.18
   6   6   5    2.41    0.22
   7   6   5   14.37    0.39
   7   6   5   14.48    0.47
   8   6   5   13.32    0.38
  -6   7   5    0.87    0.18
  -6   7   5    0.91    0.14
  -6   7   5    0.86    0.18
   5  -7  -5    1.93    0.15
  -5   7   5    2.14    0.22
  -5   7   5    2.56    0.18
  -5   7   5    2.64    0.18
  -5   7   5    2.57    0.24
   4  -7  -5    0.01    0.07
  -4   7   5   -0.05    0.06
  -4   7   5    0.07    0.07
  -4   7   5    0.15    0.10
  -4   7   5   -0.03    0.07
   3  -7  -5   10.39    0.29
  -3   7   5   10.27    0.34
  -3   7   5   10.64    0.35
  -3   7   5   10.19    0.32
   2  -7  -5   13.37    0.33
  -2   7   5   13.83    0.36
  -2   7   5   13.29    0.34
  -2   7   5   13.40    0.37
  -2   7   5   13.25    0.37
   1  -7  -5   23.10    0.46
  -1   7   5   23.25    0.50
  -1   7   5   22.42    0.48
  -1   7   5   23.78    0.46
  -1   7   5   23.24    0.49
   0  -7  -5    7.25    0.25
   0   7   5    7.13    0.18
   0   7   5    7.24    0.26
   0   7   5    7.45    0.26
   0   7   5    7.42    0.24
  -1  -7  -5   33.56    0.60
   1   7   5   32.85    0.61
   1   7   5   32.36    0.59
   1   7   5   32.45    0.61
   1   7   5   32.30    0.52
  -2  -7  -5   52.93    0.85
   2   7   5   52.09    0.79
   2   7   5   52.07    0.85
   2   7   5   52.74    0.86
   2   7   5   53.67    0.85
  -3  -7  -5    0.18    0.08
   3   7   5    0.14    0.07
   3   7   5    0.11    0.08
   3   7   5    0.12    0.06
   3   7   5    0.12    0.07
  -4  -7  -5    1.43    0.14
   4   7   5    1.31    0.12
   4   7   5    1.30    0.13
   4   7   5    1.15    0.14
   4   7   5    1.35    0.13
  -5  -7  -5    6.80    0.26
   5   7   5    6.72    0.28
   5   7   5    6.77    0.26
   5   7   5    6.78    0.26
   6   7   5    0.09    0.09
   6   7   5    0.28    0.10
  -7  -7  -5    6.48    0.35
   7   7   5    6.69    0.28
   5  -8  -5   12.22    0.34
  -5   8   5   12.02    0.37
  -5   8   5   12.72    0.46
  -5   8   5   11.60    0.46
   4  -8  -5    3.87    0.21
  -4   8   5    4.01    0.27
  -4   8   5    4.14    0.26
  -4   8   5    3.79    0.22
   3  -8  -5    4.11    0.21
  -3   8   5    3.84    0.22
  -3   8   5    4.17    0.24
  -3   8   5    4.15    0.25
   2  -8  -5   10.75    0.32
  -2   8   5   10.82    0.35
  -2   8   5   10.47    0.34
  -2   8   5   10.25    0.34
   1  -8  -5    8.91    0.29
  -1   8   5    9.17    0.31
  -1   8   5    9.56    0.29
  -1   8   5    9.68    0.32
   0  -8  -5    3.27    0.19
   0   8   5    3.04    0.18
   0   8   5    3.55    0.20
   0   8   5    3.27    0.20
  -1  -8  -5    8.66    0.29
   1   8   5    8.60    0.23
   1   8   5    9.24    0.29
   1   8   5    8.69    0.29
   1   8   5    8.70    0.29
  -2  -8  -5    6.68    0.26
   2   8   5    6.73    0.21
   2   8   5    6.92    0.26
   2   8   5    6.65    0.26
   2   8   5    6.93    0.25
  -3  -8  -5    3.19    0.19
   3   8   5    3.46    0.19
   3   8   5    3.71    0.18
   3   8   5    3.77    0.20
   3   8   5    3.81    0.20
  -4  -8  -5    0.15    0.08
   4   8   5    0.15    0.08
   4   8   5    0.14    0.08
   4   8   5    0.13    0.08
   4   8   5    0.17    0.07
  -5  -8  -5    0.14    0.09
   5   8   5    0.02    0.08
   5   8   5    0.18    0.08
   5   8   5    0.01    0.08
   6   8   5    4.08    0.23
   6   8   5    4.40    0.24
  -7  -8  -5   -0.09    0.13
   7   8   5    0.08    0.10
   7   8   5   -0.03    0.10
   4  -9  -5    1.57    0.17
  -4   9   5    1.30    0.28
  -4   9   5    1.61    0.18
  -4   9   5    2.06    0.23
   3  -9  -5    1.10    0.14
  -3   9   5    1.07    0.17
  -3   9   5    1.36    0.16
   2  -9  -5    0.29    0.11
  -2   9   5    0.33    0.10
  -2   9   5    0.13    0.10
   1  -9  -5   12.62    0.37
  -1   9   5   13.13    0.40
  -1   9   5   13.37    0.40
  -1   9   5   13.35    0.37
   0  -9  -5    0.02    0.08
   0   9   5    0.03    0.08
   0   9   5    0.05    0.07
   0   9   5    0.07    0.08
  -1  -9  -5    0.28    0.10
   1   9   5    0.21    0.09
   1   9   5    0.18    0.09
   1   9   5    0.09    0.08
  -2  -9  -5    3.64    0.22
   2   9   5    3.58    0.20
   2   9   5    3.52    0.22
   2   9   5    3.03    0.20
   2   9   5    3.66    0.17
  -3  -9  -5    2.33    0.19
   3   9   5    3.03    0.17
   3   9   5    3.07    0.21
   3   9   5    2.80    0.18
   3   9   5    3.03    0.20
  -4  -9  -5    8.24    0.31
   4   9   5    7.97    0.31
   4   9   5    8.21    0.30
   4   9   5    8.10    0.29
   4   9   5    8.43    0.28
  -5  -9  -5   21.68    0.53
   5   9   5   22.54    0.54
   5   9   5   21.99    0.52
   6   9   5    0.22    0.11
   6   9   5    0.27    0.12
   3 -10  -5    4.04    0.25
  -3  10   5    4.05    0.30
  -3  10   5    4.33    0.27
   2 -10  -5    1.32    0.17
  -2  10   5    1.35    0.17
  -2  10   5    1.31    0.18
   1 -10  -5    1.28    0.17
  -1  10   5    1.47    0.17
  -1  10   5    1.28    0.17
  -1  10   5    1.56    0.18
   0 -10  -5    1.87    0.19
   0  10   5    1.56    0.18
   0  10   5    1.98    0.19
   0  10   5    2.11    0.20
  -1 -10  -5   10.25    0.35
   1  10   5    9.99    0.36
   1  10   5   10.20    0.35
   1  10   5   10.42    0.35
  -2 -10  -5    0.14    0.10
   2  10   5    0.35    0.11
   2  10   5    0.23    0.09
   2  10   5    0.40    0.11
  -3 -10  -5   11.07    0.37
   3  10   5   10.98    0.37
   3  10   5   10.60    0.35
   3  10   5   10.28    0.37
   3  10   5   11.06    0.32
  -4 -10  -5   20.48    0.53
   4  10   5   20.56    0.48
   4  10   5   20.30    0.53
   4  10   5   20.18    0.51
   5  10   5    6.77    0.29
   5  10   5    6.69    0.32
   0 -11  -5   -0.07    0.11
   0  11   5    0.12    0.10
   0  11   5    0.11    0.10
   0  11   5   -0.03    0.10
  -1 -11  -5   15.58    0.46
   1  11   5   16.15    0.47
   1  11   5   15.70    0.46
   1  11   5   15.87    0.49
  -2 -11  -5    0.47    0.13
   2  11   5    0.36    0.11
   2  11   5    0.46    0.13
  -3 -11  -5    1.87    0.20
   3  11   5    1.83    0.19
   3  11   5    1.54    0.19
   2   9  -6    8.20    0.34
   2   9  -6    8.93    0.36
  -2  -9   6    8.95    0.43
   1   9  -6   23.31    0.58
   1   9  -6   23.12    0.56
  -1  -9   6   22.93    0.57
  -1  -9   6   22.72    0.64
   0   9  -6    0.28    0.12
   0   9  -6    0.45    0.15
   0  -9   6    0.32    0.13
  -1   9  -6    0.05    0.13
  -1   9  -6    0.18    0.11
   1  -9   6    0.00    0.12
   4   8  -6   40.97    0.76
   4   8  -6   40.70    0.81
  -4  -8   6   41.06    0.91
   3   8  -6    4.01    0.25
   3   8  -6    3.86    0.26
  -3  -8   6    3.88    0.32
   2   8  -6    9.12    0.33
   2   8  -6    8.76    0.34
  -2  -8   6    9.11    0.40
   1   8  -6    1.32    0.16
   1   8  -6    1.19    0.16
  -1  -8   6    1.29    0.17
  -1  -8   6    1.08    0.18
   0   8  -6    1.06    0.14
   0   8  -6    1.13    0.16
   0  -8   6    0.92    0.15
   0  -8   6    1.30    0.18
  -1   8  -6    0.13    0.10
  -1   8  -6    0.23    0.12
   1  -8   6    0.14    0.11
  -2   8  -6    0.29    0.11
  -2   8  -6    0.46    0.14
   2  -8   6    0.29    0.13
  -3   8  -6    3.37    0.27
  -3   8  -6    4.55    0.26
  -3   8  -6    4.22    0.29
   3  -8   6    4.30    0.28
   6   7  -6    0.89    0.16
   6   7  -6    0.95    0.13
  -6  -7   6    0.97    0.19
   5   7  -6    6.42    0.30
   5   7  -6    6.26    0.26
  -5  -7   6    6.49    0.37
   4   7  -6    0.15    0.10
   4   7  -6    0.14    0.11
  -4  -7   6    0.13    0.13
   3   7  -6    0.47    0.12
   3   7  -6    0.54    0.12
  -3  -7   6    0.28    0.14
   2   7  -6    0.23    0.11
   2   7  -6    0.02    0.08
  -2  -7   6    0.11    0.10
  -2  -7   6   -0.01    0.12
   1   7  -6    0.38    0.10
   1   7  -6    0.32    0.11
  -1  -7   6    0.25    0.13
  -1  -7   6    0.40    0.12
   0   7  -6    3.05    0.21
   0   7  -6    3.27    0.20
   0  -7   6    3.59    0.22
   0  -7   6    3.34    0.24
  -1   7  -6   -0.04    0.08
  -1   7  -6    0.13    0.10
   1  -7   6    0.02    0.09
  -2   7  -6   35.01    0.69
  -2   7  -6   34.27    0.67
   2  -7   6   35.03    0.70
  -3   7  -6   20.88    0.52
  -3   7  -6   19.70    0.48
   3  -7   6   20.10    0.51
  -4   7  -6    4.23    0.27
  -4   7  -6    4.64    0.25
  -4   7  -6    3.39    0.33
   4  -7   6    4.42    0.28
   6   6  -6    1.96    0.19
  -6  -6   6    1.62    0.21
   5   6  -6    1.83    0.15
   5   6  -6    1.83    0.18
  -5  -6   6    1.66    0.20
   4   6  -6    1.10    0.14
   4   6  -6    1.29    0.14
  -4  -6   6    1.16    0.17
   3   6  -6    0.70    0.11
   3   6  -6    0.38    0.11
  -3  -6   6    0.52    0.13
   2   6  -6   13.67    0.36
   2   6  -6   13.59    0.36
  -2  -6   6   13.39    0.42
  -2  -6   6   13.08    0.35
   1   6  -6    0.20    0.08
   1   6  -6    0.24    0.10
  -1  -6   6    0.24    0.11
  -1  -6   6    0.32    0.10
   0   6  -6    1.74    0.15
   0   6  -6    1.69    0.16
   0  -6   6    1.52    0.16
   0  -6   6    1.42    0.15
  -1   6  -6   23.35    0.51
  -1   6  -6   23.81    0.50
   1  -6   6   22.90    0.49
   1  -6   6   22.22    0.49
  -2   6  -6   15.19    0.39
  -2   6  -6   15.43    0.40
   2  -6   6   14.16    0.39
  -3   6  -6    0.26    0.11
  -3   6  -6   -0.04    0.14
  -3   6  -6    0.37    0.10
   3  -6   6    0.46    0.12
  -4   6  -6   12.53    0.39
  -4   6  -6   12.24    0.37
   4  -6   6   12.09    0.38
  -5   6  -6    4.76    0.25
   5  -6   6    4.62    0.26
   7   5  -6    0.31    0.12
  -7  -5   6    0.19    0.12
   6   5  -6    6.03    0.27
  -6  -5   6    5.90    0.32
   5   5  -6    8.87    0.25
   5   5  -6    9.40    0.31
  -5  -5   6    8.67    0.35
   4   5  -6    2.81    0.17
   4   5  -6    3.00    0.19
  -4  -5   6    2.58    0.23
   3   5  -6    1.64    0.14
   3   5  -6    1.76    0.15
  -3  -5   6    1.43    0.17
   2   5  -6    1.49    0.13
   2   5  -6    1.62    0.14
  -2  -5   6    1.54    0.13
  -2  -5   6    1.54    0.16
   1   5  -6    3.81    0.18
   1   5  -6    3.10    0.18
  -1  -5   6    3.25    0.18
  -1  -5   6    3.16    0.22
   0   5  -6    0.10    0.07
   0   5  -6    0.11    0.09
   0  -5   6    0.09    0.08
   0  -5   6    0.05    0.07
  -1   5  -6    0.04    0.07
  -1   5  -6   -0.01    0.08
   1  -5   6    0.04    0.08
   1  -5   6   -0.05    0.07
  -2   5  -6    9.91    0.29
  -2   5  -6   10.24    0.31
   2  -5   6   10.05    0.31
  -3   5  -6   21.14    0.46
  -3   5  -6   21.28    0.48
   3  -5   6   21.61    0.48
  -4   5  -6    3.93    0.21
  -4   5  -6    3.88    0.22
   4  -5   6    3.81    0.22
  -5   5  -6    7.36    0.29
   5  -5   6    7.08    0.29
  -6   5  -6    0.69    0.13
  -6   5  -6    0.50    0.15
  -6   5  -6    0.25    0.13
   6  -5   6    0.56    0.13
   7   4  -6    0.09    0.10
  -7  -4   6    0.03    0.10
   6   4  -6   57.06    0.93
  -6  -4   6   57.45    1.04
   5   4  -6    0.17    0.08
   5   4  -6    0.02    0.06
  -5  -4   6    0.06    0.09
   4   4  -6    4.77    0.18
   4   4  -6    4.76    0.21
  -4  -4   6    4.62    0.25
   3   4  -6   12.90    0.32
   3   4  -6   13.43    0.31
  -3  -4   6   13.20    0.38
   2   4  -6    4.27    0.18
   2   4  -6    4.54    0.19
  -2  -4   6    4.58    0.18
  -2  -4   6    4.41    0.22
   1   4  -6    0.30    0.08
   1   4  -6    0.17    0.08
  -1  -4   6    0.19    0.07
  -1  -4   6    0.22    0.08
   0   4  -6    1.48    0.13
   0   4  -6    1.78    0.13
   0  -4   6    1.40    0.12
   0  -4   6    1.65    0.14
  -1   4  -6   -0.05    0.06
  -1   4  -6    0.00    0.07
   1  -4   6   -0.08    0.07
   1  -4   6   -0.07    0.06
  -2   4  -6    1.10    0.11
  -2   4  -6    1.11    0.12
   2  -4   6    1.01    0.12
  -3   4  -6    0.46    0.09
  -3   4  -6    0.43    0.10
   3  -4   6    0.47    0.10
  -4   4  -6    5.64    0.24
  -4   4  -6    5.68    0.23
   4  -4   6    5.54    0.24
  -5   4  -6    1.67    0.16
  -5   4  -6    2.37    0.18
   5  -4   6    1.94    0.17
  -6   4  -6    0.22    0.10
  -6   4  -6    0.09    0.11
  -6   4  -6    0.26    0.12
   6  -4   6    0.14    0.09
  -7   4  -6    0.24    0.13
  -7   4  -6    0.28    0.11
  -7   4  -6    0.47    0.15
   7  -4   6    0.57    0.13
  -8  -3   6    0.20    0.11
  -8  -3   6    0.11    0.11
   7   3  -6   38.61    0.70
  -7  -3   6   37.52    0.79
  -7  -3   6   38.24    0.75
   6   3  -6    3.49    0.19
  -6  -3   6    3.19    0.23
   5   3  -6    2.79    0.12
   5   3  -6    2.90    0.17
  -5  -3   6    2.94    0.20
   4   3  -6   33.99    0.58
   4   3  -6   33.62    0.52
  -4  -3   6   33.42    0.66
   3   3  -6    1.40    0.12
   3   3  -6    1.50    0.12
  -3  -3   6    1.28    0.13
   2   3  -6    8.55    0.24
   2   3  -6    8.12    0.23
  -2  -3   6    8.43    0.22
  -2  -3   6    8.78    0.27
   1   3  -6    5.91    0.19
   1   3  -6    5.73    0.20
  -1  -3   6    6.44    0.14
  -1  -3   6    5.75    0.21
  -1  -3   6    5.78    0.19
   0   3  -6   17.08    0.35
   0   3  -6   16.68    0.35
   0  -3   6   16.96    0.35
   0  -3   6   17.54    0.35
  -1   3  -6    3.09    0.16
  -1   3  -6    3.15    0.15
   1  -3   6    3.23    0.16
   1  -3   6    3.15    0.14
  -2   3  -6    2.22    0.15
  -2   3  -6    2.23    0.14
   2  -3   6    2.46    0.16
  -3   3  -6   14.18    0.35
  -3   3  -6   14.00    0.34
   3  -3   6   14.35    0.34
  -4   3  -6    3.93    0.19
  -4   3  -6    4.12    0.19
   4  -3   6    3.89    0.19
  -5   3  -6    9.31    0.30
  -5   3  -6    9.29    0.30
   5  -3   6    9.25    0.30
  -6   3  -6    0.61    0.12
  -6   3  -6    0.46    0.13
  -6   3  -6    0.37    0.12
   6  -3   6    0.57    0.11
  -7   3  -6    1.01    0.18
  -7   3  -6    1.00    0.17
   7  -3   6    1.02    0.14
  -8  -2   6    1.98    0.20
  -8  -2   6    2.04    0.26
  -8  -2   6    2.69    0.23
   7   2  -6    3.36    0.26
  -7  -2   6    3.23    0.23
  -7  -2   6    3.46    0.23
  -7  -2   6    3.15    0.28
   6   2  -6   -0.01    0.07
  -6  -2   6   -0.01    0.07
  -6  -2   6   -0.06    0.07
  -6  -2   6    0.05    0.09
   5   2  -6    4.05    0.18
  -5  -2   6    3.95    0.21
  -5  -2   6    4.33    0.20
   4   2  -6    1.54    0.10
   4   2  -6    1.35    0.12
  -4  -2   6    1.53    0.15
   3   2  -6    1.18    0.09
   3   2  -6    1.24    0.10
  -3  -2   6    1.08    0.12
  -3  -2   6    1.27    0.12
   2   2  -6   10.11    0.24
   2   2  -6    9.91    0.23
  -2  -2   6   10.47    0.28
  -2  -2   6    9.85    0.22
  -2  -2   6   10.07    0.27
   1   2  -6   10.57    0.24
   1   2  -6   10.51    0.25
  -1  -2   6   10.57    0.23
  -1  -2   6   10.74    0.20
  -1  -2   6   10.74    0.26
  -1  -2   6   10.69    0.28
   0   2  -6  235.51    2.95
   0   2  -6  233.32    2.93
   0  -2   6  238.75    3.04
   0  -2   6  238.19    3.00
  -1   2  -6   21.51    0.39
  -1   2  -6   21.74    0.41
   1  -2   6   22.43    0.40
   1  -2   6   21.30    0.35
  -2   2  -6   32.66    0.56
  -2   2  -6   33.13    0.55
   2  -2   6   33.46    0.56
   2  -2   6   32.92    0.45
  -3   2  -6   13.13    0.31
  -3   2  -6   12.68    0.31
   3  -2   6   12.81    0.31
  -4   2  -6    1.98    0.15
  -4   2  -6    1.91    0.14
   4  -2   6    1.85    0.15
  -5   2  -6    4.08    0.25
  -5   2  -6    3.86    0.20
  -5   2  -6    3.83    0.19
   5  -2   6    3.48    0.19
  -6   2  -6   12.82    0.44
  -6   2  -6   12.66    0.37
  -6   2  -6   12.72    0.40
   6  -2   6   12.74    0.35
  -7   2  -6    0.21    0.11
  -7   2  -6    0.27    0.11
   7  -2   6    0.05    0.07
  -8  -1   6    1.58    0.23
  -8  -1   6    1.89    0.19
  -8  -1   6    2.00    0.20
  -7  -1   6    5.12    0.32
  -7  -1   6    4.56    0.25
  -7  -1   6    4.99    0.25
   6   1  -6    1.25    0.11
  -6  -1   6    0.93    0.15
  -6  -1   6    0.92    0.12
  -6  -1   6    0.88    0.13
   5   1  -6    8.09    0.22
  -5  -1   6    7.39    0.32
  -5  -1   6    8.07    0.24
  -5  -1   6    7.65    0.28
  -5  -1   6    7.54    0.26
   4   1  -6    2.01    0.12
  -4  -1   6    2.00    0.11
  -4  -1   6    2.17    0.18
  -4  -1   6    1.92    0.15
  -4  -1   6    1.84    0.14
  -4  -1   6    2.34    0.15
   3   1  -6    6.70    0.18
   3   1  -6    6.73    0.16
  -3  -1   6    7.06    0.23
  -3  -1   6    7.04    0.22
  -3  -1   6    6.44    0.15
   2   1  -6   96.81    1.24
   2   1  -6   94.79    1.22
  -2  -1   6   94.04    1.30
  -2  -1   6   94.98    1.21
  -2  -1   6   95.72    1.28
  -2  -1   6   92.53    1.19
   1   1  -6  986.69   12.33
   1   1  -6  991.63   12.31
  -1  -1   6  986.50   12.55
  -1  -1   6 1000.00   12.27
  -1  -1   6  995.20   12.67
  -1  -1   6  972.94   12.17
   0   1  -6   21.04    0.37
   0   1  -6   21.91    0.37
   0  -1   6   21.32    0.39
   0  -1   6   21.27    0.36
   0  -1   6   21.00    0.36
  -1   1  -6    4.09    0.15
  -1   1  -6    4.39    0.15
   1  -1   6    4.29    0.12
   1  -1   6    4.13    0.15
   1  -1   6    4.37    0.16
  -2   1  -6    3.36    0.14
  -2   1  -6    3.15    0.15
   2  -1   6    3.20    0.14
   2  -1   6    3.37    0.15
   2  -1   6    3.18    0.08
  -3   1  -6   67.65    0.98
  -3   1  -6   68.86    0.98
   3  -1   6   68.30    0.98
  -4   1  -6    4.12    0.18
  -4   1  -6    4.19    0.18
   4  -1   6    4.11    0.18
  -5   1  -6    1.98    0.14
  -5   1  -6    2.07    0.17
  -5   1  -6    2.01    0.15
   5  -1   6    2.07    0.15
  -6   1  -6    8.20    0.33
  -6   1  -6    8.00    0.31
   6  -1   6    7.95    0.26
  -7   1  -6    0.15    0.10
  -7   1  -6    0.07    0.10
   7  -1   6   -0.02    0.07
  -8   1  -6    1.02    0.18
  -8   1  -6    0.92    0.16
   8  -1   6    1.23    0.14
  -8   0   6    5.34    0.36
  -8   0   6    5.35    0.28
  -8   0   6    5.76    0.28
  -7   0   6    0.04    0.10
  -7   0   6    0.01    0.07
  -7   0   6    0.15    0.08
  -6   0   6    6.18    0.31
  -6   0   6    6.51    0.26
  -6   0   6    6.53    0.26
   5   0  -6    4.61    0.16
  -5   0   6    4.78    0.25
  -5   0   6    4.59    0.20
  -5   0   6    4.90    0.21
  -5   0   6    4.63    0.18
  -5   0   6    4.55    0.18
   4   0  -6   12.07    0.25
  -4   0   6   12.12    0.36
  -4   0   6   12.11    0.28
  -4   0   6   11.94    0.30
  -4   0   6   12.51    0.32
  -4   0   6   11.78    0.26
   3   0  -6   12.82    0.22
   3   0  -6   12.97    0.25
  -3   0   6   13.77    0.35
  -3   0   6   12.96    0.29
  -3   0   6   12.86    0.25
  -3   0   6   12.99    0.29
  -3   0   6   13.37    0.31
   2   0  -6  169.73    2.09
   2   0  -6  166.77    2.09
  -2   0   6  165.67    2.10
  -2   0   6  170.89    2.24
  -2   0   6  168.05    2.17
  -2   0   6  174.70    2.19
   1   0  -6    1.02    0.07
   1   0  -6    0.98    0.08
  -1   0   6    0.89    0.07
  -1   0   6    0.87    0.07
  -1   0   6    0.98    0.08
  -1   0   6    1.09    0.10
   0   0  -6   31.23    0.48
   0   0  -6   31.23    0.46
   0   0   6   30.85    0.47
   0   0   6   30.27    0.49
   0   0   6   31.23    0.49
   0   0   6   30.85    0.47
  -1   0  -6    9.31    0.20
  -1   0  -6    8.58    0.21
   1   0   6    8.71    0.18
   1   0   6    9.19    0.22
   1   0   6    8.95    0.21
  -2   0  -6   15.12    0.31
  -2   0  -6   15.63    0.31
   2   0   6   15.65    0.30
   2   0   6   15.39    0.31
  -3   0  -6    3.61    0.15
  -3   0  -6    3.72    0.16
   3   0   6    3.48    0.15
   3   0   6    3.59    0.14
  -4   0  -6    0.03    0.05
  -4   0  -6   -0.09    0.05
  -4   0  -6    0.03    0.06
   4   0   6    0.05    0.06
  -5   0  -6   37.03    0.64
  -5   0  -6   38.64    0.72
  -5   0  -6   38.95    0.68
   5   0   6   38.84    0.65
  -6   0  -6   29.44    0.64
  -6   0  -6   29.81    0.60
   6   0   6   29.83    0.55
  -7   0  -6    0.00    0.07
  -7   0  -6    0.04    0.08
   7   0   6    0.07    0.07
  -8   0  -6    7.67    0.36
  -8   0  -6    7.87    0.33
   8   0   6    7.74    0.28
  -8   1   6    1.05    0.20
  -8   1   6    1.28    0.16
  -8   1   6    1.24    0.16
  -7   1   6    0.43    0.11
  -7   1   6    0.43    0.11
  -7   1   6    0.39    0.09
  -7   1   6    0.42    0.13
  -6   1   6    0.05    0.08
  -6   1   6    0.03    0.07
  -6   1   6    0.10    0.07
  -6   1   6    0.00    0.07
  -5   1   6    2.37    0.15
  -5   1   6    2.11    0.14
  -5   1   6    2.44    0.16
  -5   1   6    2.39    0.19
  -5   1   6    2.35    0.15
   4  -1  -6    1.42    0.08
  -4   1   6    1.53    0.12
  -4   1   6    1.45    0.12
  -4   1   6    1.45    0.15
  -4   1   6    1.40    0.12
  -4   1   6    1.39    0.13
   3  -1  -6    3.42    0.09
   3  -1  -6    3.63    0.10
  -3   1   6    3.54    0.18
  -3   1   6    3.45    0.15
  -3   1   6    3.67    0.16
  -3   1   6    3.56    0.14
  -3   1   6    3.58    0.15
   2  -1  -6    4.14    0.12
   2  -1  -6    4.63    0.11
  -2   1   6    4.71    0.16
  -2   1   6    4.22    0.11
  -2   1   6    4.52    0.17
  -2   1   6    4.51    0.15
  -2   1   6    4.29    0.16
  -2   1   6    4.22    0.14
   1  -1  -6    9.84    0.18
   1  -1  -6    9.75    0.20
  -1   1   6   10.00    0.23
  -1   1   6    9.78    0.23
  -1   1   6   10.23    0.20
  -1   1   6    9.61    0.22
   0  -1  -6    0.15    0.05
   0  -1  -6    0.02    0.03
   0   1   6    0.02    0.03
   0   1   6    0.05    0.04
   0   1   6    0.06    0.03
   0   1   6    0.07    0.04
  -1  -1  -6    9.43    0.20
  -1  -1  -6    9.57    0.22
   1   1   6    9.76    0.22
   1   1   6    9.93    0.22
  -2  -1  -6   10.71    0.24
  -2  -1  -6   10.28    0.24
   2   1   6   10.52    0.22
   2   1   6   10.85    0.24
  -3  -1  -6    7.79    0.22
  -3  -1  -6    8.32    0.22
  -3  -1  -6    8.09    0.22
   3   1   6    7.95    0.22
   3   1   6    7.83    0.19
  -4  -1  -6   22.66    0.43
  -4  -1  -6   22.36    0.44
   4   1   6   22.04    0.36
   4   1   6   22.05    0.42
  -5  -1  -6  167.58    2.20
  -5  -1  -6  166.00    2.24
  -5  -1  -6  170.01    2.18
   5   1   6  162.57    2.16
  -6  -1  -6   18.82    0.47
  -6  -1  -6   19.03    0.44
   6   1   6   19.49    0.42
  -7  -1  -6    0.08    0.08
  -7  -1  -6    0.14    0.08
   7   1   6    0.03    0.07
  -8  -1  -6    0.11    0.09
  -8  -1  -6   -0.05    0.08
   8   1   6   -0.03    0.07
  -8   2   6    1.38    0.16
  -8   2   6    1.52    0.17
  -8   2   6    1.41    0.23
  -8   2   6    1.57    0.19
  -7   2   6    0.14    0.10
  -7   2   6    0.12    0.08
  -7   2   6    0.27    0.09
  -7   2   6    0.03    0.10
  -6   2   6    2.95    0.19
  -6   2   6    3.04    0.20
  -6   2   6    3.27    0.24
  -6   2   6    3.22    0.19
  -5   2   6    7.52    0.26
  -5   2   6    7.77    0.23
  -5   2   6    7.72    0.31
  -5   2   6    8.10    0.27
  -5   2   6    7.93    0.26
  -4   2   6    4.29    0.19
  -4   2   6    4.29    0.21
  -4   2   6    4.14    0.18
  -4   2   6    4.19    0.16
  -4   2   6    3.78    0.17
   3  -2  -6    7.99    0.16
  -3   2   6    8.11    0.23
  -3   2   6    7.95    0.25
  -3   2   6    8.25    0.24
  -3   2   6    8.06    0.22
  -3   2   6    7.99    0.21
   2  -2  -6   18.02    0.30
  -2   2   6   17.85    0.29
  -2   2   6   18.18    0.35
  -2   2   6   17.89    0.36
  -2   2   6   18.41    0.33
  -2   2   6   18.09    0.36
  -2   2   6   18.07    0.34
   1  -2  -6    7.65    0.18
   1  -2  -6    7.55    0.13
  -1   2   6    7.85    0.19
  -1   2   6    7.52    0.20
  -1   2   6    7.78    0.17
  -1   2   6    7.48    0.20
  -1   2   6    7.35    0.20
   0  -2  -6    2.34    0.08
   0  -2  -6    2.32    0.11
   0   2   6    2.48    0.12
   0   2   6    2.42    0.10
   0   2   6    2.42    0.11
  -1  -2  -6  108.55    1.38
  -1  -2  -6  107.28    1.42
   1   2   6  109.51    1.41
   1   2   6  107.31    1.46
   1   2   6  110.11    1.40
  -2  -2  -6    1.92    0.07
  -2  -2  -6    1.84    0.11
   2   2   6    1.79    0.10
   2   2   6    1.85    0.10
  -3  -2  -6    0.73    0.09
  -3  -2  -6    0.66    0.07
   3   2   6    0.75    0.09
   3   2   6    0.77    0.07
  -4  -2  -6   35.91    0.59
  -4  -2  -6   35.06    0.57
  -4  -2  -6   35.25    0.58
   4   2   6   35.88    0.52
   4   2   6   35.43    0.59
  -5  -2  -6   66.60    1.03
  -5  -2  -6   68.08    1.00
  -5  -2  -6   67.10    0.99
   5   2   6   69.39    1.00
  -6  -2  -6    0.53    0.09
  -6  -2  -6    0.26    0.08
   6   2   6    0.43    0.09
  -7  -2  -6    1.11    0.14
  -7  -2  -6    1.25    0.14
   7   2   6    1.31    0.13
  -8  -2  -6   -0.05    0.07
  -8  -2  -6   -0.07    0.07
   8   2   6    0.06    0.08
  -7   3   6    0.67    0.16
  -7   3   6    1.05    0.16
  -7   3   6    0.96    0.14
  -7   3   6    0.95    0.13
  -6   3   6    2.67    0.20
  -6   3   6    2.53    0.18
  -6   3   6    2.91    0.24
  -6   3   6    2.83    0.19
  -5   3   6   42.76    0.76
  -5   3   6   42.73    0.68
  -5   3   6   40.52    0.82
  -5   3   6   42.56    0.75
  -5   3   6   42.78    0.73
   4  -3  -6   22.64    0.34
  -4   3   6   22.35    0.52
  -4   3   6   23.23    0.44
  -4   3   6   22.66    0.48
  -4   3   6   22.36    0.42
  -4   3   6   22.82    0.47
   3  -3  -6    3.42    0.11
  -3   3   6    3.24    0.16
  -3   3   6    3.27    0.15
  -3   3   6    3.06    0.16
  -3   3   6    3.45    0.14
  -3   3   6    3.51    0.17
   2  -3  -6    0.51    0.06
  -2   3   6    0.49    0.08
  -2   3   6    0.38    0.07
  -2   3   6    0.39    0.07
  -2   3   6    0.53    0.06
  -2   3   6    0.44    0.07
  -2   3   6    0.55    0.06
   1  -3  -6   41.59    0.61
  -1   3   6   41.90    0.64
  -1   3   6   40.91    0.66
  -1   3   6   42.57    0.58
  -1   3   6   41.62    0.61
  -1   3   6   43.08    0.61
   0  -3  -6    0.92    0.08
   0   3   6    0.87    0.09
   0   3   6    0.94    0.08
   0   3   6    0.99    0.09
  -1  -3  -6    3.12    0.13
   1   3   6    2.87    0.12
   1   3   6    3.04    0.13
   1   3   6    2.89    0.14
  -2  -3  -6    5.37    0.18
   2   3   6    5.21    0.20
   2   3   6    5.53    0.17
   2   3   6    5.14    0.16
  -3  -3  -6   29.84    0.44
  -3  -3  -6   29.85    0.45
  -3  -3  -6   29.25    0.51
   3   3   6   29.06    0.50
   3   3   6   29.56    0.46
  -4  -3  -6   10.40    0.27
  -4  -3  -6   10.36    0.23
  -4  -3  -6   10.47    0.25
   4   3   6   10.72    0.27
   4   3   6   10.63    0.22
  -5  -3  -6    7.51    0.22
  -5  -3  -6    7.12    0.23
  -5  -3  -6    6.96    0.23
   5   3   6    7.46    0.24
  -6  -3  -6    2.30    0.14
  -6  -3  -6    2.00    0.16
   6   3   6    2.23    0.15
  -7  -3  -6    4.92    0.21
   7   3   6    4.93    0.22
  -8  -3  -6    1.70    0.16
   8   3   6    1.35    0.14
  -7   4   6    1.53    0.19
  -7   4   6    1.35    0.20
  -7   4   6    1.44    0.17
  -6   4   6   10.53    0.36
  -6   4   6   10.44    0.33
  -6   4   6   10.48    0.41
  -5   4   6    3.38    0.23
  -5   4   6    3.46    0.19
  -5   4   6    3.51    0.21
  -5   4   6    3.14    0.17
   4  -4  -6  111.72    1.41
  -4   4   6  110.92    1.51
  -4   4   6  112.14    1.52
  -4   4   6  110.97    1.58
  -4   4   6  109.44    1.63
   3  -4  -6    0.37    0.06
  -3   4   6    0.49    0.07
  -3   4   6    0.30    0.07
  -3   4   6    0.32    0.08
  -3   4   6    0.38    0.08
   2  -4  -6   24.36    0.41
  -2   4   6   24.95    0.48
  -2   4   6   24.04    0.40
  -2   4   6   24.95    0.46
  -2   4   6   24.19    0.41
  -2   4   6   25.08    0.45
   1  -4  -6   31.31    0.50
  -1   4   6   30.52    0.49
  -1   4   6   29.97    0.54
  -1   4   6   31.44    0.48
  -1   4   6   31.22    0.44
  -1   4   6   30.73    0.52
   0  -4  -6    1.36    0.10
   0   4   6    1.22    0.09
   0   4   6    1.31    0.10
   0   4   6    1.29    0.11
  -1  -4  -6    0.46    0.07
   1   4   6    0.51    0.08
   1   4   6    0.49    0.07
   1   4   6    0.47    0.07
  -2  -4  -6    2.02    0.13
   2   4   6    1.96    0.15
   2   4   6    1.90    0.11
   2   4   6    1.87    0.12
  -3  -4  -6    3.38    0.16
  -3  -4  -6    3.51    0.10
   3   4   6    3.67    0.20
   3   4   6    3.45    0.16
   3   4   6    3.51    0.14
  -4  -4  -6    3.30    0.16
  -4  -4  -6    3.54    0.12
   4   4   6    3.58    0.17
   4   4   6    3.55    0.14
  -5  -4  -6    1.37    0.13
  -5  -4  -6    1.32    0.10
   5   4   6    0.93    0.11
  -6  -4  -6    0.03    0.09
   6   4   6    0.05    0.07
   7   4   6    2.17    0.17
   8   4   6    8.41    0.30
  -7   5   6    1.84    0.24
  -7   5   6    1.71    0.18
  -7   5   6    1.94    0.22
  -6   5   6    2.35    0.19
  -6   5   6    2.20    0.23
  -6   5   6    2.49    0.23
  -5   5   6   46.89    0.79
  -5   5   6   45.37    0.90
  -5   5   6   46.33    0.76
  -5   5   6   45.70    0.85
   4  -5  -6   10.46    0.24
  -4   5   6   10.68    0.29
  -4   5   6   10.30    0.35
  -4   5   6   10.79    0.29
  -4   5   6   10.84    0.34
   3  -5  -6    4.17    0.16
  -3   5   6    4.12    0.20
  -3   5   6    4.04    0.20
  -3   5   6    4.07    0.18
  -3   5   6    3.94    0.16
   2  -5  -6    9.20    0.24
  -2   5   6    9.66    0.26
  -2   5   6    9.40    0.23
  -2   5   6    9.42    0.27
  -2   5   6    9.10    0.28
  -2   5   6    9.29    0.21
   1  -5  -6    9.32    0.24
  -1   5   6    8.84    0.27
  -1   5   6    8.89    0.17
  -1   5   6    8.96    0.25
  -1   5   6    8.81    0.22
  -1   5   6    8.83    0.23
   0  -5  -6   20.99    0.40
   0   5   6   20.96    0.43
   0   5   6   21.38    0.40
   0   5   6   20.87    0.41
   0   5   6   20.31    0.32
  -1  -5  -6   75.95    1.09
   1   5   6   77.36    1.09
   1   5   6   76.47    1.08
   1   5   6   75.85    1.12
  -2  -5  -6   10.59    0.28
   2   5   6   10.57    0.30
   2   5   6   10.47    0.27
   2   5   6   10.45    0.26
  -3  -5  -6    0.05    0.06
   3   5   6    0.02    0.05
   3   5   6    0.04    0.06
   3   5   6   -0.05    0.07
  -4  -5  -6    1.27    0.12
   4   5   6    1.17    0.12
   4   5   6    1.25    0.15
   4   5   6    1.20    0.11
  -5  -5  -6   10.18    0.30
   5   5   6   10.45    0.37
   5   5   6   10.36    0.30
   6   5   6    7.70    0.27
   7   5   6    4.32    0.22
   8   5   6    0.75    0.13
  -6   6   6   -0.01    0.08
  -6   6   6    0.07    0.12
  -6   6   6    0.08    0.10
   5  -6  -6   15.91    0.33
  -5   6   6   16.89    0.50
  -5   6   6   17.05    0.48
  -5   6   6   16.92    0.41
  -5   6   6   16.07    0.40
   4  -6  -6   -0.04    0.06
  -4   6   6    0.09    0.06
  -4   6   6    0.03    0.08
  -4   6   6    0.06    0.07
  -4   6   6    0.02    0.06
   3  -6  -6   -0.11    0.06
  -3   6   6    0.05    0.06
  -3   6   6   -0.06    0.07
  -3   6   6   -0.01    0.06
  -3   6   6   -0.07    0.04
   2  -6  -6    0.00    0.06
  -2   6   6    0.01    0.06
  -2   6   6   -0.09    0.06
  -2   6   6    0.03    0.05
  -2   6   6    0.02    0.04
   1  -6  -6    1.28    0.12
  -1   6   6    1.40    0.10
  -1   6   6    1.36    0.12
  -1   6   6    1.16    0.12
  -1   6   6    1.39    0.13
   0  -6  -6    9.65    0.27
   0   6   6    9.49    0.28
   0   6   6    9.54    0.26
   0   6   6    9.81    0.19
   0   6   6    9.93    0.28
  -1  -6  -6  100.86    1.41
   1   6   6  100.84    1.32
   1   6   6  102.11    1.41
   1   6   6  101.32    1.41
   1   6   6  101.52    1.44
  -2  -6  -6  143.99    1.93
   2   6   6  144.77    1.93
   2   6   6  143.96    1.92
   2   6   6  145.41    1.97
  -3  -6  -6    0.06    0.07
   3   6   6    0.04    0.06
   3   6   6    0.05    0.07
   3   6   6   -0.07    0.06
  -4  -6  -6    9.02    0.28
   4   6   6    8.17    0.27
   4   6   6    8.71    0.31
   4   6   6    8.65    0.24
  -5  -6  -6    0.23    0.08
   5   6   6    0.11    0.10
   5   6   6    0.04    0.07
   6   6   6    0.01    0.07
   6   6   6    0.10    0.11
   7   6   6    0.49    0.12
   7   6   6    0.33    0.15
   8   6   6   10.41    0.35
  -6   7   6    5.50    0.34
  -6   7   6    5.69    0.34
   5  -7  -6    1.58    0.13
  -5   7   6    1.69    0.20
  -5   7   6    1.64    0.16
  -5   7   6    1.76    0.21
   4  -7  -6    1.01    0.12
  -4   7   6    1.06    0.15
  -4   7   6    1.17    0.14
  -4   7   6    1.03    0.16
   3  -7  -6    9.56    0.28
  -3   7   6    9.25    0.30
  -3   7   6    9.83    0.34
  -3   7   6    9.24    0.32
   2  -7  -6   10.05    0.29
  -2   7   6   10.08    0.33
  -2   7   6   10.43    0.33
  -2   7   6    9.94    0.31
   1  -7  -6    0.25    0.08
  -1   7   6    0.30    0.08
  -1   7   6    0.21    0.08
  -1   7   6    0.21    0.07
   0  -7  -6   40.29    0.69
   0   7   6   40.01    0.72
   0   7   6   41.00    0.69
   0   7   6   40.05    0.71
  -1  -7  -6  165.70    2.21
   1   7   6  164.40    2.10
   1   7   6  166.56    2.24
   1   7   6  168.29    2.20
   1   7   6  165.02    2.21
  -2  -7  -6    0.35    0.09
   2   7   6    0.26    0.08
   2   7   6    0.21    0.06
   2   7   6    0.23    0.08
   2   7   6    0.18    0.08
  -3  -7  -6    9.35    0.29
   3   7   6    9.33    0.31
   3   7   6    9.39    0.29
   3   7   6    9.49    0.28
   3   7   6    9.29    0.26
  -4  -7  -6    9.20    0.30
   4   7   6    9.01    0.32
   4   7   6    9.33    0.30
   4   7   6    9.00    0.27
  -5  -7  -6    2.58    0.18
   5   7   6    2.52    0.21
   5   7   6    2.29    0.18
   6   7   6    3.07    0.24
   6   7   6    3.10    0.20
   7   7   6   -0.07    0.09
   7   7   6   -0.11    0.11
   5  -8  -6    1.80    0.16
  -5   8   6    2.34    0.25
  -5   8   6    1.88    0.18
  -5   8   6    1.53    0.21
   4  -8  -6    1.43    0.15
  -4   8   6    1.09    0.18
  -4   8   6    1.29    0.15
  -4   8   6    1.53    0.20
   3  -8  -6    2.93    0.19
  -3   8   6    2.91    0.23
  -3   8   6    3.00    0.20
   2  -8  -6    3.77    0.20
  -2   8   6    3.62    0.23
  -2   8   6    3.85    0.22
   1  -8  -6    0.12    0.08
  -1   8   6    0.17    0.08
  -1   8   6    0.11    0.08
  -1   8   6    0.00    0.07
   0  -8  -6    8.99    0.29
   0   8   6    9.03    0.31
   0   8   6    8.97    0.31
   0   8   6    9.26    0.29
  -1  -8  -6    1.96    0.17
   1   8   6    1.95    0.16
   1   8   6    1.69    0.15
   1   8   6    2.15    0.17
  -2  -8  -6    4.59    0.22
   2   8   6    4.05    0.21
   2   8   6    3.88    0.21
   2   8   6    3.88    0.21
   2   8   6    3.94    0.16
  -3  -8  -6    1.07    0.14
   3   8   6    0.90    0.13
   3   8   6    1.04    0.12
   3   8   6    1.11    0.14
   3   8   6    0.92    0.11
  -4  -8  -6    0.39    0.10
   4   8   6    0.42    0.09
   4   8   6    0.37    0.10
   4   8   6    0.42    0.10
   4   8   6    0.30    0.09
  -5  -8  -6    0.51    0.12
   5   8   6    0.17    0.08
   5   8   6    0.24    0.10
   5   8   6    0.10    0.09
   6   8   6    0.64    0.13
   6   8   6    0.33    0.11
   6   8   6    0.53    0.14
   7   8   6   16.02    0.46
   4  -9  -6    1.17    0.15
  -4   9   6    1.52    0.21
  -4   9   6    1.12    0.16
   3  -9  -6    1.23    0.15
  -3   9   6    1.15    0.16
  -3   9   6    1.20    0.18
   2  -9  -6    1.44    0.16
  -2   9   6    1.46    0.18
  -2   9   6    1.67    0.18
   1  -9  -6    0.78    0.13
  -1   9   6    0.68    0.12
  -1   9   6    0.94    0.15
  -1   9   6    0.76    0.13
   0  -9  -6    0.60    0.12
   0   9   6    0.73    0.12
   0   9   6    0.56    0.11
   0   9   6    0.54    0.11
  -1  -9  -6    0.19    0.10
   1   9   6    0.21    0.09
   1   9   6    0.17    0.09
   1   9   6    0.24    0.09
  -2  -9  -6    5.68    0.26
   2   9   6    6.41    0.27
   2   9   6    6.18    0.26
   2   9   6    6.04    0.21
   2   9   6    6.22    0.27
  -3  -9  -6    1.24    0.15
   3   9   6    1.37    0.15
   3   9   6    1.26    0.13
   3   9   6    1.31    0.14
   3   9   6    1.23    0.15
  -4  -9  -6    4.96    0.25
   4   9   6    4.65    0.24
   4   9   6    4.78    0.22
   4   9   6    5.31    0.26
   4   9   6    4.94    0.24
  -5  -9  -6    0.06    0.09
   5   9   6    0.02    0.08
   5   9   6    0.09    0.08
   5   9   6    0.07    0.10
   6   9   6   18.57    0.50
   6   9   6   17.33    0.48
   2 -10  -6    0.69    0.15
  -2  10   6    1.13    0.17
  -2  10   6    0.83    0.14
   1 -10  -6    0.26    0.11
  -1  10   6    0.19    0.10
  -1  10   6    0.35    0.11
   0 -10  -6    0.34    0.12
   0  10   6    0.17    0.10
   0  10   6    0.26    0.10
   0  10   6    0.26    0.11
  -1 -10  -6    5.57    0.27
   1  10   6    5.26    0.27
   1  10   6    5.25    0.26
   1  10   6    5.36    0.27
  -2 -10  -6    0.14    0.10
   2  10   6    0.10    0.10
   2  10   6    0.18    0.09
   2  10   6    0.23    0.10
  -3 -10  -6    2.60    0.22
   3  10   6    3.04    0.22
   3  10   6    2.69    0.21
   3  10   6    2.65    0.17
   3  10   6    2.45    0.20
  -4 -10  -6    0.65    0.14
   4  10   6    0.47    0.11
   4  10   6    0.59    0.14
   4  10   6    0.64    0.12
   4  10   6    0.68    0.14
  -5 -10  -6    1.06    0.17
   5  10   6    0.83    0.16
   5  10   6    0.74    0.13
   0 -11  -6    4.21    0.27
   0  11   6    4.78    0.29
   0  11   6    4.45    0.26
   0  11   6    4.74    0.29
  -1 -11  -6    1.81    0.20
   1  11   6    1.97    0.20
   1  11   6    2.46    0.22
   1  11   6    2.14    0.21
  -2 -11  -6    0.22    0.12
   2  11   6    0.57    0.13
   2  11   6    0.45    0.12
   2  11   6    0.35    0.13
   4   8  -7    1.49    0.18
   4   8  -7    1.54    0.19
  -4  -8   7    1.29    0.22
   3   8  -7   -0.10    0.12
   3   8  -7   -0.13    0.09
  -3  -8   7   -0.24    0.12
   2   8  -7    2.99    0.23
   2   8  -7    3.48    0.25
  -2  -8   7    3.02    0.27
   1   8  -7    1.05    0.17
   1   8  -7    0.81    0.14
  -1  -8   7    0.95    0.18
  -1  -8   7    0.54    0.14
   0   8  -7    2.60    0.22
   0   8  -7    2.10    0.21
   0  -8   7    2.51    0.22
  -1   8  -7    0.53    0.13
  -1   8  -7    0.52    0.15
   1  -8   7    0.51    0.14
  -2   8  -7    0.12    0.13
  -2   8  -7    0.09    0.11
   2  -8   7   -0.03    0.12
   5   7  -7    3.62    0.26
   5   7  -7    3.46    0.23
  -5  -7   7    3.96    0.32
   4   7  -7    2.60    0.21
   4   7  -7    3.06    0.23
  -4  -7   7    2.40    0.25
   3   7  -7    0.12    0.10
   3   7  -7    0.10    0.09
  -3  -7   7   -0.06    0.11
   2   7  -7    0.15    0.11
   2   7  -7    0.06    0.10
  -2  -7   7    0.04    0.12
   1   7  -7   -0.12    0.08
   1   7  -7    0.06    0.10
  -1  -7   7    0.08    0.10
  -1  -7   7   -0.15    0.10
   0   7  -7    0.24    0.12
   0   7  -7    0.21    0.09
   0  -7   7    0.19    0.11
   0  -7   7    0.23    0.12
  -1   7  -7    4.31    0.24
  -1   7  -7    5.03    0.27
   1  -7   7    4.43    0.26
  -2   7  -7    1.05    0.16
  -2   7  -7    0.86    0.14
   2  -7   7    0.66    0.14
  -3   7  -7    3.88    0.24
  -3   7  -7    4.26    0.28
   3  -7   7    3.52    0.26
  -4   7  -7    0.44    0.14
  -4   7  -7    0.61    0.13
   4  -7   7    0.40    0.14
   6   6  -7    0.51    0.13
  -6  -6   7    0.19    0.13
   5   6  -7    3.16    0.20
   5   6  -7    3.45    0.23
  -5  -6   7    3.41    0.28
   4   6  -7    0.45    0.11
   4   6  -7    0.30    0.11
  -4  -6   7    0.36    0.13
   3   6  -7   18.04    0.43
   3   6  -7   18.00    0.45
  -3  -6   7   19.04    0.52
   2   6  -7   -0.02    0.08
   2   6  -7    0.17    0.10
  -2  -6   7   -0.15    0.09
   1   6  -7   16.90    0.42
   1   6  -7   17.10    0.43
  -1  -6   7   16.75    0.41
  -1  -6   7   17.39    0.46
   0   6  -7    8.45    0.29
   0   6  -7    8.37    0.30
   0  -6   7    8.21    0.31
   0  -6   7    8.14    0.29
  -1   6  -7    4.61    0.25
  -1   6  -7    4.75    0.23
   1  -6   7    4.44    0.24
  -2   6  -7    2.12    0.18
  -2   6  -7    1.87    0.18
   2  -6   7    1.86    0.18
  -3   6  -7   33.50    0.69
  -3   6  -7   33.41    0.66
   3  -6   7   33.67    0.68
  -4   6  -7    4.74    0.25
  -4   6  -7    5.19    0.28
   4  -6   7    4.69    0.27
  -5   6  -7    7.57    0.32
   5  -6   7    7.62    0.33
   6   5  -7    0.50    0.12
  -6  -5   7    0.55    0.15
   5   5  -7    3.90    0.19
   5   5  -7    4.39    0.23
  -5  -5   7    3.35    0.27
   4   5  -7   22.05    0.49
   4   5  -7   21.43    0.44
  -4  -5   7   21.58    0.56
   3   5  -7    1.35    0.13
   3   5  -7    1.11    0.13
  -3  -5   7    1.27    0.16
   2   5  -7    9.02    0.29
   2   5  -7    8.57    0.28
  -2  -5   7    8.75    0.32
  -2  -5   7    8.62    0.31
   1   5  -7    5.01    0.22
   1   5  -7    4.81    0.21
  -1  -5   7    5.09    0.22
  -1  -5   7    4.94    0.24
   0   5  -7   21.90    0.46
   0   5  -7   21.44    0.47
   0  -5   7   21.94    0.47
   0  -5   7   22.56    0.47
  -1   5  -7    4.74    0.23
  -1   5  -7    4.95    0.22
   1  -5   7    4.56    0.22
  -2   5  -7   15.12    0.40
  -2   5  -7   15.08    0.39
   2  -5   7   15.37    0.39
  -3   5  -7   22.43    0.51
  -3   5  -7   22.35    0.50
   3  -5   7   21.94    0.50
  -4   5  -7   20.27    0.50
  -4   5  -7   19.27    0.47
   4  -5   7   19.11    0.48
  -5   5  -7    3.92    0.24
   5  -5   7    3.98    0.24
   6  -5   7    6.86    0.31
   7   4  -7    2.98    0.22
  -7  -4   7    2.97    0.26
   6   4  -7    4.72    0.24
  -6  -4   7    4.74    0.29
   5   4  -7    0.47    0.08
   5   4  -7    0.27    0.09
  -5  -4   7    0.39    0.11
   4   4  -7    5.10    0.20
   4   4  -7    5.22    0.22
  -4  -4   7    5.18    0.27
   3   4  -7    2.40    0.16
   3   4  -7    2.56    0.16
  -3  -4   7    2.70    0.20
   2   4  -7    2.25    0.17
   2   4  -7    2.28    0.16
  -2  -4   7    2.59    0.15
  -2  -4   7    2.24    0.19
   1   4  -7    5.87    0.23
   1   4  -7    6.12    0.22
  -1  -4   7    5.61    0.21
  -1  -4   7    5.64    0.24
   0   4  -7    0.67    0.11
   0   4  -7    0.60    0.09
   0  -4   7    1.03    0.12
   0  -4   7    0.76    0.11
  -1   4  -7    0.28    0.08
  -1   4  -7    0.23    0.09
   1  -4   7    0.37    0.09
   1  -4   7    0.31    0.08
  -2   4  -7    0.64    0.11
  -2   4  -7    0.55    0.09
   2  -4   7    0.51    0.10
  -3   4  -7    1.24    0.13
  -3   4  -7    1.22    0.14
   3  -4   7    1.06    0.13
  -4   4  -7    0.50    0.12
  -4   4  -7    0.36    0.10
   4  -4   7    0.43    0.11
  -5   4  -7    5.14    0.25
  -5   4  -7    5.00    0.25
   5  -4   7    4.61    0.24
  -6   4  -7    1.98    0.20
  -6   4  -7    1.24    0.21
   6  -4   7    1.61    0.18
   7   3  -7    2.22    0.19
  -7  -3   7    1.74    0.20
   6   3  -7    0.10    0.08
  -6  -3   7    0.01    0.09
   5   3  -7    1.07    0.12
  -5  -3   7    0.87    0.14
   4   3  -7   11.75    0.30
   4   3  -7   11.28    0.26
  -4  -3   7   11.60    0.36
   3   3  -7    1.13    0.11
   3   3  -7    1.16    0.11
  -3  -3   7    1.19    0.13
   2   3  -7    5.80    0.20
   2   3  -7    6.01    0.21
  -2  -3   7    5.40    0.23
  -2  -3   7    5.64    0.19
   1   3  -7    1.95    0.15
   1   3  -7    1.93    0.13
  -1  -3   7    1.55    0.15
  -1  -3   7    1.80    0.13
   0   3  -7    1.64    0.14
   0   3  -7    1.93    0.13
   0  -3   7    1.53    0.13
   0  -3   7    1.79    0.13
  -1   3  -7    3.77    0.17
  -1   3  -7    4.24    0.19
   1  -3   7    3.82    0.15
   1  -3   7    3.95    0.18
  -2   3  -7   51.16    0.82
  -2   3  -7   50.81    0.80
   2  -3   7   50.78    0.81
  -3   3  -7    1.92    0.15
  -3   3  -7    1.57    0.14
   3  -3   7    1.96    0.16
  -4   3  -7    0.18    0.08
  -4   3  -7    0.38    0.10
   4  -3   7    0.24    0.09
  -5   3  -7    2.87    0.19
  -5   3  -7    3.13    0.20
   5  -3   7    3.00    0.19
  -6   3  -7   13.58    0.50
  -6   3  -7   15.32    0.42
   6  -3   7   15.03    0.41
  -7   3  -7    6.29    0.36
  -7   3  -7    7.56    0.36
   7  -3   7    6.97    0.29
  -7  -2   7   15.41    0.45
  -7  -2   7   16.35    0.48
   6   2  -7    1.33    0.13
  -6  -2   7    2.05    0.19
  -6  -2   7    1.51    0.17
   5   2  -7    4.89    0.19
  -5  -2   7    4.91    0.24
   4   2  -7    2.45    0.12
   4   2  -7    2.38    0.14
  -4  -2   7    2.35    0.18
  -4  -2   7    2.47    0.18
   3   2  -7    4.10    0.16
   3   2  -7    3.78    0.16
  -3  -2   7    3.88    0.20
  -3  -2   7    4.05    0.20
   2   2  -7    3.24    0.15
   2   2  -7    3.15    0.15
  -2  -2   7    3.15    0.17
  -2  -2   7    3.50    0.14
  -2  -2   7    3.28    0.19
   1   2  -7    8.39    0.22
   1   2  -7    7.95    0.23
  -1  -2   7    7.73    0.25
  -1  -2   7    8.22    0.24
  -1  -2   7    8.68    0.22
  -1  -2   7    8.19    0.18
   0   2  -7   14.92    0.33
   0   2  -7   14.46    0.31
   0  -2   7   14.79    0.31
   0  -2   7   14.79    0.35
   0  -2   7   14.83    0.32
  -1   2  -7    1.90    0.15
  -1   2  -7    1.83    0.12
   1  -2   7    2.12    0.14
   1  -2   7    1.87    0.10
  -2   2  -7   10.26    0.28
  -2   2  -7   10.09    0.27
   2  -2   7   10.36    0.28
  -3   2  -7    4.34    0.20
  -3   2  -7    4.09    0.18
   3  -2   7    4.58    0.20
  -4   2  -7    0.01    0.06
  -4   2  -7    0.04    0.07
   4  -2   7    0.05    0.07
  -5   2  -7   28.08    0.57
  -5   2  -7   28.45    0.56
   5  -2   7   27.25    0.55
  -6   2  -7    2.14    0.19
  -6   2  -7    1.96    0.20
  -6   2  -7    1.96    0.19
   6  -2   7    2.57    0.18
  -7   2  -7   -0.06    0.10
  -7   2  -7    0.25    0.11
   7  -2   7    0.13    0.09
  -8  -1   7   14.13    0.45
  -8  -1   7   12.90    0.54
  -8  -1   7   13.91    0.44
  -7  -1   7    5.02    0.33
  -7  -1   7    5.33    0.28
  -7  -1   7    5.20    0.26
  -6  -1   7    1.78    0.17
  -6  -1   7    1.67    0.16
  -6  -1   7    2.08    0.23
  -6  -1   7    1.94    0.17
   5   1  -7    1.71    0.12
  -5  -1   7    1.29    0.16
  -5  -1   7    1.49    0.14
  -5  -1   7    1.45    0.13
  -5  -1   7    1.47    0.15
   4   1  -7   47.27    0.70
   4   1  -7   45.10    0.62
  -4  -1   7   46.17    0.80
  -4  -1   7   47.17    0.75
   3   1  -7    1.59    0.11
   3   1  -7    1.47    0.10
  -3  -1   7    1.68    0.08
  -3  -1   7    1.45    0.14
  -3  -1   7    1.19    0.12
   2   1  -7    4.09    0.15
   2   1  -7    4.19    0.15
  -2  -1   7    3.94    0.18
  -2  -1   7    4.28    0.14
  -2  -1   7    3.95    0.12
  -2  -1   7    4.40    0.18
   1   1  -7   28.49    0.46
   1   1  -7   28.37    0.47
  -1  -1   7   28.72    0.49
  -1  -1   7   28.29    0.46
  -1  -1   7   27.19    0.43
   0   1  -7   67.28    0.94
   0   1  -7   66.24    0.92
   0  -1   7   65.87    0.93
   0  -1   7   67.34    0.92
   0  -1   7   65.45    0.96
  -1   1  -7   13.02    0.30
  -1   1  -7   13.52    0.29
   1  -1   7   13.28    0.29
   1  -1   7   13.37    0.25
   1  -1   7   13.47    0.31
  -2   1  -7    0.15    0.06
  -2   1  -7    0.08    0.07
   2  -1   7    0.10    0.07
   2  -1   7    0.09    0.06
   2  -1   7    0.08    0.03
  -3   1  -7   12.36    0.31
  -3   1  -7   12.75    0.31
   3  -1   7   12.30    0.31
  -4   1  -7    0.06    0.06
  -4   1  -7    0.04    0.07
   4  -1   7   -0.03    0.06
  -5   1  -7    0.12    0.08
  -5   1  -7   -0.01    0.07
  -5   1  -7    0.16    0.07
   5  -1   7    0.20    0.07
  -6   1  -7    3.27    0.22
  -6   1  -7    2.80    0.21
   6  -1   7    2.85    0.19
  -7   1  -7    0.36    0.12
  -7   1  -7    0.62    0.14
   7  -1   7    0.46    0.10
  -8   0   7    0.61    0.13
  -8   0   7    0.54    0.17
  -8   0   7    0.52    0.13
  -7   0   7    4.50    0.25
  -7   0   7    4.68    0.31
  -7   0   7    4.82    0.25
  -6   0   7    2.77    0.19
  -6   0   7    2.14    0.23
  -6   0   7    2.65    0.20
  -6   0   7    2.82    0.19
  -5   0   7    8.29    0.27
  -5   0   7    7.45    0.32
  -5   0   7    7.76    0.25
  -5   0   7    7.56    0.28
   4   0  -7    5.88    0.17
  -4   0   7    5.99    0.27
  -4   0   7    5.77    0.23
  -4   0   7    6.06    0.22
  -4   0   7    5.89    0.18
  -4   0   7    5.95    0.21
   3   0  -7    9.11    0.20
   3   0  -7    8.66    0.19
  -3   0   7    8.62    0.21
  -3   0   7    9.37    0.25
  -3   0   7    8.82    0.29
  -3   0   7    8.73    0.26
   2   0  -7    5.76    0.15
   2   0  -7    5.60    0.16
  -2   0   7    5.52    0.19
  -2   0   7    5.97    0.20
  -2   0   7    5.73    0.15
  -2   0   7    5.50    0.16
   1   0  -7    0.06    0.05
   1   0  -7    0.10    0.04
  -1   0   7    0.11    0.04
  -1   0   7   -0.05    0.04
  -1   0   7    0.00    0.04
  -1   0   7    0.01    0.04
   0   0  -7    4.97    0.15
   0   0  -7    4.84    0.17
   0   0   7    4.88    0.15
   0   0   7    4.81    0.17
   0   0   7    5.11    0.15
  -1   0  -7    0.56    0.07
  -1   0  -7    0.53    0.08
   1   0   7    0.55    0.05
   1   0   7    0.71    0.08
   1   0   7    0.59    0.07
  -2   0  -7   20.54    0.40
  -2   0  -7   20.17    0.38
   2   0   7   20.73    0.38
   2   0   7   20.29    0.39
  -3   0  -7    2.60    0.15
  -3   0  -7    2.54    0.14
   3   0   7    2.43    0.14
   3   0   7    2.39    0.14
  -4   0  -7    0.24    0.07
  -4   0  -7    0.41    0.08
  -4   0  -7    0.23    0.08
   4   0   7    0.31    0.08
  -5   0  -7    2.90    0.17
  -5   0  -7    2.87    0.19
  -5   0  -7    3.12    0.18
   5   0   7    2.87    0.17
  -6   0  -7    9.21    0.34
  -6   0  -7    9.05    0.32
   6   0   7    9.12    0.29
  -7   0  -7   17.69    0.51
  -7   0  -7   16.96    0.46
   7   0   7   17.04    0.42
  -8   0  -7    2.53    0.24
  -8   0  -7    2.32    0.22
   8   0   7    2.92    0.20
  -8   1   7    6.10    0.30
  -8   1   7    4.67    0.35
  -8   1   7    5.76    0.29
  -7   1   7    0.83    0.13
  -7   1   7    0.70    0.16
  -7   1   7    1.07    0.15
  -6   1   7   -0.01    0.06
  -6   1   7    0.14    0.08
  -6   1   7   -0.03    0.07
  -6   1   7    0.05    0.09
  -5   1   7    9.58    0.27
  -5   1   7    8.95    0.30
  -5   1   7    9.63    0.36
  -5   1   7    9.39    0.29
  -5   1   7    9.22    0.27
  -4   1   7    0.14    0.08
  -4   1   7    0.05    0.06
  -4   1   7    0.04    0.06
  -4   1   7    0.07    0.06
  -4   1   7    0.11    0.06
   3  -1  -7    0.83    0.07
   3  -1  -7    0.79    0.06
  -3   1   7    0.82    0.11
  -3   1   7    0.82    0.09
  -3   1   7    0.71    0.09
  -3   1   7    0.84    0.09
  -3   1   7    0.87    0.10
   2  -1  -7   35.66    0.52
   2  -1  -7   37.15    0.55
  -2   1   7   37.92    0.53
  -2   1   7   38.17    0.64
  -2   1   7   37.09    0.62
  -2   1   7   37.50    0.60
  -2   1   7   37.86    0.58
   1  -1  -7    9.36    0.19
   1  -1  -7    9.05    0.21
  -1   1   7    9.12    0.22
  -1   1   7    9.78    0.24
  -1   1   7    9.22    0.20
   0  -1  -7   30.03    0.49
   0  -1  -7   29.03    0.45
   0   1   7   29.60    0.48
   0   1   7   29.74    0.47
   0   1   7   30.83    0.49
   0   1   7   29.57    0.50
  -1  -1  -7    9.45    0.24
  -1  -1  -7    9.66    0.21
   1   1   7    9.69    0.23
   1   1   7    9.32    0.23
   1   1   7    9.52    0.26
  -2  -1  -7   87.83    1.23
  -2  -1  -7   90.72    1.21
   2   1   7   90.16    1.22
   2   1   7   89.90    1.20
  -3  -1  -7    0.19    0.07
  -3  -1  -7    0.19    0.07
   3   1   7    0.22    0.07
   3   1   7    0.23    0.06
  -4  -1  -7    3.60    0.17
  -4  -1  -7    3.86    0.18
  -4  -1  -7    3.68    0.17
   4   1   7    3.53    0.17
   4   1   7    3.50    0.15
  -5  -1  -7   -0.01    0.06
  -5  -1  -7    0.05    0.08
  -5  -1  -7   -0.07    0.06
   5   1   7    0.01    0.06
  -6  -1  -7   29.56    0.62
  -6  -1  -7   30.49    0.59
   6   1   7   29.51    0.57
  -7  -1  -7    1.12    0.15
  -7  -1  -7    0.98    0.14
   7   1   7    1.15    0.14
  -8  -1  -7    1.98    0.19
  -8  -1  -7    2.23    0.22
   8   1   7    2.16    0.18
  -7   2   7    4.90    0.26
  -7   2   7    4.33    0.30
  -7   2   7    4.33    0.24
  -7   2   7    4.58    0.24
  -6   2   7    0.12    0.07
  -6   2   7    0.16    0.08
  -6   2   7    0.22    0.11
  -6   2   7    0.28    0.09
  -5   2   7   23.99    0.58
  -5   2   7   23.56    0.52
  -5   2   7   23.92    0.46
  -5   2   7   24.15    0.50
  -5   2   7   24.12    0.49
  -4   2   7    0.16    0.07
  -4   2   7    0.12    0.07
  -4   2   7    0.00    0.07
  -4   2   7    0.08    0.06
  -4   2   7   -0.05    0.05
   3  -2  -7    5.16    0.14
  -3   2   7    5.36    0.18
  -3   2   7    5.27    0.19
  -3   2   7    4.99    0.18
  -3   2   7    4.96    0.21
  -3   2   7    5.27    0.20
   2  -2  -7    1.08    0.09
  -2   2   7    1.03    0.11
  -2   2   7    0.87    0.07
  -2   2   7    0.91    0.09
  -2   2   7    0.93    0.09
  -2   2   7    1.03    0.09
  -2   2   7    0.83    0.09
   1  -2  -7   88.91    1.18
   1  -2  -7   88.20    1.12
  -1   2   7   90.31    1.21
  -1   2   7   88.38    1.22
  -1   2   7   89.87    1.23
  -1   2   7   90.77    1.17
   0  -2  -7    0.82    0.08
   0  -2  -7    0.82    0.06
   0   2   7    0.79    0.08
   0   2   7    0.85    0.08
   0   2   7    0.93    0.10
  -1  -2  -7  129.95    1.67
  -1  -2  -7  126.97    1.63
   1   2   7  126.83    1.66
   1   2   7  126.74    1.72
   1   2   7  128.72    1.65
  -2  -2  -7    0.68    0.07
  -2  -2  -7    0.84    0.09
   2   2   7    0.74    0.09
   2   2   7    0.64    0.07
  -3  -2  -7    2.02    0.13
  -3  -2  -7    2.12    0.10
   3   2   7    2.20    0.12
   3   2   7    2.14    0.13
  -4  -2  -7   13.73    0.30
  -4  -2  -7   13.21    0.33
   4   2   7   13.46    0.32
   4   2   7   13.45    0.27
  -5  -2  -7  129.94    1.74
  -5  -2  -7  125.92    1.74
  -5  -2  -7  127.31    1.72
   5   2   7  127.37    1.73
  -6  -2  -7    0.28    0.08
  -6  -2  -7    0.22    0.08
   6   2   7    0.24    0.08
  -7  -2  -7    1.01    0.13
   7   2   7    0.88    0.12
  -8  -2  -7   -0.04    0.08
   8   2   7    0.00    0.07
  -7   3   7    9.11    0.35
  -7   3   7    9.95    0.36
  -7   3   7    8.65    0.41
  -7   3   7    8.81    0.33
  -6   3   7    0.98    0.13
  -6   3   7    1.04    0.14
  -6   3   7    0.96    0.14
  -6   3   7    1.05    0.17
  -5   3   7    0.85    0.14
  -5   3   7    0.56    0.10
  -5   3   7    0.50    0.09
  -5   3   7    0.33    0.10
  -5   3   7    0.67    0.11
   4  -3  -7   24.41    0.36
  -4   3   7   24.41    0.47
  -4   3   7   24.58    0.49
  -4   3   7   23.82    0.52
  -4   3   7   23.98    0.54
  -4   3   7   23.80    0.46
   3  -3  -7    0.23    0.05
  -3   3   7    0.25    0.07
  -3   3   7    0.33    0.07
  -3   3   7    0.29    0.07
  -3   3   7    0.23    0.07
  -3   3   7    0.23    0.07
   2  -3  -7   21.11    0.37
  -2   3   7   20.58    0.42
  -2   3   7   21.57    0.41
  -2   3   7   21.15    0.41
  -2   3   7   21.12    0.43
  -2   3   7   21.07    0.37
  -2   3   7   20.77    0.35
   1  -3  -7   11.13    0.25
  -1   3   7   11.10    0.27
  -1   3   7   11.07    0.28
  -1   3   7   11.27    0.24
  -1   3   7   11.54    0.24
   0  -3  -7    8.25    0.22
   0   3   7    8.66    0.21
   0   3   7    8.67    0.22
   0   3   7    8.68    0.25
  -1  -3  -7    0.30    0.07
   1   3   7    0.16    0.07
   1   3   7    0.30    0.06
   1   3   7    0.31    0.06
  -2  -3  -7   49.51    0.75
   2   3   7   47.91    0.74
   2   3   7   49.16    0.72
   2   3   7   49.14    0.81
  -3  -3  -7    0.31    0.07
   3   3   7    0.23    0.06
   3   3   7    0.26    0.07
  -4  -3  -7   19.55    0.36
  -4  -3  -7   19.69    0.41
   4   3   7   19.76    0.35
   4   3   7   19.18    0.41
  -5  -3  -7    0.37    0.07
  -5  -3  -7    0.45    0.09
   5   3   7    0.24    0.08
  -6  -3  -7    0.20    0.07
   6   3   7    0.17    0.08
  -7  -3  -7    7.84    0.27
   7   3   7    7.89    0.28
   8   3   7   28.78    0.60
  -7   4   7   24.15    0.60
  -7   4   7   21.29    0.66
  -7   4   7   23.21    0.55
  -6   4   7    1.91    0.22
  -6   4   7    1.35    0.15
  -6   4   7    1.42    0.17
  -5   4   7    0.05    0.06
  -5   4   7    0.13    0.09
  -5   4   7    0.01    0.08
  -5   4   7    0.03    0.06
   4  -4  -7   13.71    0.26
  -4   4   7   13.99    0.37
  -4   4   7   13.39    0.32
  -4   4   7   13.92    0.33
  -4   4   7   13.22    0.39
   3  -4  -7    0.21    0.06
  -3   4   7    0.25    0.07
  -3   4   7    0.27    0.06
  -3   4   7    0.18    0.07
  -3   4   7    0.28    0.08
   2  -4  -7    0.05    0.05
  -2   4   7    0.04    0.05
  -2   4   7    0.14    0.08
  -2   4   7    0.04    0.04
  -2   4   7    0.00    0.05
  -2   4   7    0.05    0.06
   1  -4  -7    1.19    0.10
  -1   4   7    1.28    0.09
  -1   4   7    1.25    0.11
  -1   4   7    1.19    0.11
  -1   4   7    1.16    0.09
   0  -4  -7   18.37    0.36
   0   4   7   18.48    0.36
   0   4   7   18.32    0.40
   0   4   7   18.64    0.37
  -1  -4  -7    1.83    0.13
   1   4   7    1.65    0.13
   1   4   7    1.55    0.12
   1   4   7    1.72    0.12
  -2  -4  -7    7.64    0.23
   2   4   7    7.33    0.26
   2   4   7    7.93    0.22
   2   4   7    7.22    0.22
  -3  -4  -7    3.33    0.14
  -3  -4  -7    3.43    0.17
   3   4   7    3.35    0.21
   3   4   7    3.39    0.15
   3   4   7    3.33    0.16
  -4  -4  -7    0.31    0.08
   4   4   7    0.28    0.08
   4   4   7    0.31    0.06
  -5  -4  -7    3.18    0.18
   5   4   7    3.11    0.17
   6   4   7    4.38    0.21
   7   4   7    0.71    0.12
   8   4   7    0.26    0.10
  -6   5   7    6.02    0.31
  -6   5   7    5.48    0.32
  -6   5   7    5.87    0.26
  -5   5   7   12.09    0.39
  -5   5   7   11.55    0.41
  -5   5   7   11.65    0.33
  -5   5   7   11.73    0.32
   4  -5  -7    4.56    0.16
  -4   5   7    4.51    0.20
  -4   5   7    4.44    0.19
  -4   5   7    4.50    0.24
  -4   5   7    4.76    0.24
   3  -5  -7   -0.02    0.06
  -3   5   7   -0.01    0.06
  -3   5   7    0.00    0.05
  -3   5   7   -0.01    0.04
  -3   5   7   -0.08    0.05
   2  -5  -7    0.45    0.08
  -2   5   7    0.69    0.09
  -2   5   7    0.56    0.07
  -2   5   7    0.75    0.11
  -2   5   7    0.55    0.09
   1  -5  -7   28.93    0.51
  -1   5   7   29.77    0.56
  -1   5   7   28.37    0.53
  -1   5   7   29.57    0.50
  -1   5   7   28.69    0.56
  -1   5   7   29.02    0.42
   0  -5  -7    5.56    0.20
   0   5   7    5.27    0.20
   0   5   7    5.25    0.21
   0   5   7    5.58    0.19
  -1  -5  -7    0.01    0.06
   1   5   7    0.01    0.05
   1   5   7   -0.01    0.05
   1   5   7   -0.02    0.06
  -2  -5  -7    0.24    0.08
   2   5   7    0.15    0.06
   2   5   7    0.18    0.06
   2   5   7    0.14    0.08
  -3  -5  -7    0.35    0.08
   3   5   7    0.28    0.08
   3   5   7    0.26    0.07
   3   5   7    0.17    0.10
  -4  -5  -7   10.78    0.30
   4   5   7   10.28    0.26
   4   5   7    9.76    0.29
   4   5   7   10.82    0.35
  -5  -5  -7    4.44    0.20
   5   5   7    4.08    0.20
   5   5   7    4.17    0.26
   6   5   7    1.60    0.16
   7   5   7    8.21    0.30
   8   5   7    4.71    0.25
  -6   6   7    0.14    0.11
  -6   6   7    0.31    0.13
  -6   6   7    0.19    0.08
  -5   6   7   22.03    0.49
  -5   6   7   21.54    0.58
  -5   6   7   22.82    0.57
  -5   6   7   21.58    0.47
   4  -6  -7    5.34    0.19
  -4   6   7    5.53    0.27
  -4   6   7    5.07    0.23
  -4   6   7    5.59    0.27
  -4   6   7    5.53    0.20
   3  -6  -7    0.11    0.07
  -3   6   7    0.08    0.08
  -3   6   7    0.08    0.07
  -3   6   7    0.20    0.08
   2  -6  -7    4.71    0.19
  -2   6   7    4.17    0.21
  -2   6   7    4.70    0.21
   1  -6  -7    0.55    0.09
  -1   6   7    0.40    0.08
  -1   6   7    0.47    0.08
  -1   6   7    0.41    0.09
   0  -6  -7    0.64    0.09
   0   6   7    0.85    0.12
   0   6   7    0.75    0.10
   0   6   7    0.77    0.10
  -1  -6  -7   15.92    0.37
   1   6   7   15.44    0.36
   1   6   7   15.93    0.37
   1   6   7   15.75    0.39
   1   6   7   15.31    0.29
  -2  -6  -7   18.91    0.42
   2   6   7   18.42    0.40
   2   6   7   18.98    0.41
   2   6   7   18.76    0.45
  -3  -6  -7   14.01    0.36
   3   6   7   13.87    0.39
   3   6   7   13.97    0.35
   3   6   7   13.84    0.33
  -4  -6  -7    3.98    0.20
   4   6   7    3.84    0.20
   4   6   7    3.70    0.23
   4   6   7    3.82    0.17
  -5  -6  -7    6.44    0.26
   5   6   7    6.60    0.31
   5   6   7    6.87    0.26
   6   6   7    7.75    0.29
   6   6   7    7.61    0.34
   7   6   7    0.03    0.09
   7   6   7   -0.06    0.12
  -5   7   7    0.19    0.12
  -5   7   7   -0.05    0.07
  -5   7   7    0.05    0.09
   4  -7  -7    0.05    0.08
  -4   7   7    0.06    0.08
  -4   7   7    0.09    0.09
  -4   7   7    0.05    0.10
   3  -7  -7    0.83    0.11
  -3   7   7    0.89    0.13
  -3   7   7    0.61    0.12
   2  -7  -7    5.45    0.22
  -2   7   7    5.98    0.25
  -2   7   7    6.07    0.26
   1  -7  -7    0.54    0.10
  -1   7   7    0.48    0.09
  -1   7   7    0.50    0.10
  -1   7   7    0.53    0.11
   0  -7  -7   16.59    0.39
   0   7   7   16.46    0.38
   0   7   7   17.59    0.43
   0   7   7   16.53    0.41
  -1  -7  -7   37.47    0.68
   1   7   7   39.60    0.72
   1   7   7   37.38    0.59
   1   7   7   38.03    0.67
   1   7   7   38.11    0.68
  -2  -7  -7    0.95    0.12
   2   7   7    0.83    0.12
   2   7   7    0.84    0.11
   2   7   7    0.81    0.09
   2   7   7    0.92    0.12
  -3  -7  -7    2.04    0.17
   3   7   7    1.90    0.17
   3   7   7    1.83    0.15
   3   7   7    1.88    0.16
  -4  -7  -7    7.98    0.29
   4   7   7    8.38    0.26
   4   7   7    8.29    0.32
  -5  -7  -7    0.02    0.08
   5   7   7    0.15    0.09
   5   7   7   -0.13    0.08
   6   7   7    1.24    0.15
   6   7   7    0.83    0.16
   7   7   7    0.86    0.15
   7   7   7    0.86    0.17
   5  -8  -7    0.08    0.09
  -5   8   7    0.21    0.14
  -5   8   7    0.25    0.10
   4  -8  -7    1.54    0.15
  -4   8   7    1.44    0.16
  -4   8   7    1.84    0.21
   3  -8  -7    2.55    0.18
  -3   8   7    3.03    0.21
  -3   8   7    3.06    0.23
   2  -8  -7    0.54    0.11
  -2   8   7    0.81    0.13
  -2   8   7    0.85    0.14
   1  -8  -7   -0.07    0.07
  -1   8   7   -0.01    0.07
  -1   8   7    0.11    0.07
  -1   8   7    0.19    0.08
   0  -8  -7    0.87    0.13
   0   8   7    0.82    0.12
   0   8   7    0.83    0.12
   0   8   7    0.97    0.14
  -1  -8  -7    0.09    0.08
   1   8   7    0.14    0.08
   1   8   7    0.12    0.07
   1   8   7    0.08    0.08
  -2  -8  -7    1.61    0.16
   2   8   7    1.61    0.15
   2   8   7    1.34    0.14
   2   8   7    1.40    0.16
   2   8   7    1.65    0.12
  -3  -8  -7    3.40    0.21
   3   8   7    3.79    0.17
   3   8   7    3.60    0.21
   3   8   7    3.10    0.21
   3   8   7    3.33    0.20
  -4  -8  -7    1.08    0.14
   4   8   7    1.29    0.14
   4   8   7    0.97    0.12
   4   8   7    1.09    0.14
   4   8   7    1.12    0.16
  -5  -8  -7    0.79    0.13
   5   8   7    0.59    0.13
   5   8   7    0.47    0.12
   5   8   7    0.71    0.11
   6   8   7    0.70    0.13
   6   8   7    0.90    0.14
   6   8   7    0.86    0.16
   4  -9  -7    1.58    0.17
   3  -9  -7    1.50    0.16
  -3   9   7    1.25    0.15
  -3   9   7    1.90    0.21
   2  -9  -7    1.80    0.17
  -2   9   7    1.99    0.20
  -2   9   7    2.14    0.22
   1  -9  -7    3.21    0.21
  -1   9   7    2.89    0.21
  -1   9   7    2.76    0.22
   0  -9  -7    0.93    0.14
   0   9   7    1.05    0.13
   0   9   7    1.00    0.14
   0   9   7    1.21    0.16
  -1  -9  -7    1.93    0.18
   1   9   7    2.01    0.18
   1   9   7    2.18    0.18
   1   9   7    2.25    0.19
  -2  -9  -7   11.31    0.36
   2   9   7   11.21    0.36
   2   9   7   11.61    0.37
   2   9   7   11.53    0.36
  -3  -9  -7    2.07    0.19
   3   9   7    2.10    0.15
   3   9   7    1.76    0.17
   3   9   7    1.83    0.17
   3   9   7    1.91    0.18
  -4  -9  -7    1.37    0.17
   4   9   7    1.53    0.15
   4   9   7    1.79    0.16
   4   9   7    1.36    0.16
   4   9   7    1.66    0.18
  -5  -9  -7    8.00    0.33
   5   9   7    7.70    0.33
   5   9   7    7.92    0.30
   5   9   7    8.88    0.34
   2 -10  -7    8.49    0.34
  -2  10   7    8.18    0.37
  -2  10   7    8.62    0.35
   1 -10  -7   -0.14    0.09
  -1  10   7    0.00    0.09
  -1  10   7    0.06    0.10
   0 -10  -7    8.37    0.33
   0  10   7    8.71    0.33
   0  10   7    9.37    0.36
   0  10   7    9.14    0.36
  -1 -10  -7    0.71    0.14
   1  10   7    0.71    0.13
   1  10   7    0.51    0.12
   1  10   7    0.92    0.15
  -2 -10  -7   12.06    0.40
   2  10   7   12.58    0.40
   2  10   7   12.52    0.40
   2  10   7   12.94    0.41
  -3 -10  -7    0.89    0.15
   3  10   7    0.65    0.13
   3  10   7    0.79    0.14
   3  10   7    0.61    0.13
  -4 -10  -7    0.36    0.12
   4  10   7    0.34    0.10
   4  10   7    0.08    0.09
   4  10   7    0.17    0.10
   4  10   7    0.12    0.11
  -1 -11  -7    5.50    0.30
   1  11   7    5.52    0.29
   1  11   7    5.56    0.29
   2   8  -8    0.48    0.14
   2   8  -8    0.84    0.17
  -2  -8   8    0.51    0.16
   1   8  -8    0.50    0.13
   1   8  -8    0.61    0.15
  -1  -8   8    0.10    0.14
   0   8  -8    2.76    0.24
   0   8  -8    2.66    0.24
   0  -8   8    3.17    0.25
  -1   8  -8    2.00    0.22
  -1   8  -8    1.74    0.19
   1  -8   8    1.87    0.21
   4   7  -8    0.51    0.14
   4   7  -8    0.64    0.14
  -4  -7   8    0.54    0.16
   3   7  -8    1.15    0.16
   3   7  -8    1.13    0.16
  -3  -7   8    0.90    0.18
   2   7  -8    1.83    0.18
   2   7  -8    1.88    0.19
  -2  -7   8    1.82    0.21
   1   7  -8    6.38    0.30
   1   7  -8    5.65    0.27
  -1  -7   8    5.95    0.31
  -1  -7   8    6.02    0.28
   0   7  -8    7.19    0.30
   0   7  -8    8.06    0.34
   0  -7   8    7.25    0.31
  -1   7  -8    0.20    0.12
  -1   7  -8    0.10    0.10
   1  -7   8    0.21    0.11
  -2   7  -8   24.68    0.60
  -2   7  -8   24.51    0.57
   2  -7   8   23.67    0.58
  -3   7  -8    7.32    0.34
  -3   7  -8    6.96    0.31
   3  -7   8    6.19    0.32
   5   6  -8    2.82    0.20
   5   6  -8    2.44    0.21
  -5  -6   8    2.23    0.24
   4   6  -8    2.04    0.18
   4   6  -8    1.78    0.18
  -4  -6   8    1.71    0.21
   3   6  -8   17.46    0.45
   3   6  -8   17.54    0.44
  -3  -6   8   17.49    0.51
   2   6  -8    5.19    0.25
   2   6  -8    5.04    0.25
  -2  -6   8    5.35    0.29
   1   6  -8    3.65    0.22
   1   6  -8    4.03    0.24
  -1  -6   8    4.25    0.23
  -1  -6   8    4.17    0.26
   0   6  -8    6.34    0.28
   0   6  -8    6.20    0.27
   0  -6   8    6.05    0.29
   0  -6   8    6.37    0.28
  -1   6  -8    2.45    0.19
  -1   6  -8    1.97    0.19
   1  -6   8    2.27    0.20
  -2   6  -8    0.45    0.13
  -2   6  -8    0.28    0.11
   2  -6   8    0.32    0.12
  -3   6  -8    1.29    0.18
  -3   6  -8    1.51    0.17
   3  -6   8    1.84    0.19
  -4   6  -8    0.08    0.10
  -4   6  -8    0.06    0.12
   4  -6   8    0.08    0.11
   6   5  -8    0.15    0.11
  -6  -5   8    0.01    0.11
   5   5  -8    2.86    0.22
   5   5  -8    2.64    0.18
  -5  -5   8    2.65    0.25
   4   5  -8    0.45    0.11
   4   5  -8    0.42    0.11
  -4  -5   8    0.33    0.12
   3   5  -8    0.79    0.12
   3   5  -8    1.02    0.13
  -3  -5   8    0.83    0.14
   2   5  -8    0.03    0.09
   2   5  -8    0.08    0.08
  -2  -5   8   -0.03    0.09
   1   5  -8    1.15    0.13
   1   5  -8    1.13    0.14
  -1  -5   8    1.23    0.14
  -1  -5   8    1.04    0.14
   0   5  -8    1.38    0.15
   0   5  -8    1.72    0.15
   0  -5   8    1.52    0.15
   0  -5   8    1.69    0.16
  -1   5  -8   10.02    0.32
  -1   5  -8   10.47    0.34
   1  -5   8   10.80    0.33
  -2   5  -8    0.38    0.10
  -2   5  -8    0.27    0.11
   2  -5   8    0.41    0.11
  -3   5  -8    4.70    0.26
  -3   5  -8    4.68    0.24
   3  -5   8    4.83    0.25
  -4   5  -8    3.64    0.25
  -4   5  -8    3.27    0.22
   4  -5   8    3.21    0.24
  -5   5  -8    1.12    0.16
  -5   5  -8    1.32    0.18
   5  -5   8    1.21    0.17
   6   4  -8    1.00    0.14
  -6  -4   8    1.09    0.17
   5   4  -8   12.89    0.36
   5   4  -8   12.11    0.30
  -5  -4   8   12.62    0.43
   4   4  -8    1.13    0.12
   4   4  -8    1.07    0.13
  -4  -4   8    0.91    0.15
   3   4  -8    0.98    0.12
   3   4  -8    0.82    0.12
  -3  -4   8    0.85    0.14
   2   4  -8    0.06    0.07
   2   4  -8   -0.09    0.08
  -2  -4   8    0.10    0.09
   1   4  -8    0.11    0.09
   1   4  -8    0.18    0.08
  -1  -4   8    0.41    0.09
  -1  -4   8    0.21    0.09
   0   4  -8    5.53    0.22
   0   4  -8    5.35    0.24
   0  -4   8    5.87    0.23
   0  -4   8    5.53    0.23
  -1   4  -8    4.46    0.23
  -1   4  -8    4.23    0.20
   1  -4   8    4.69    0.22
  -2   4  -8    6.36    0.27
  -2   4  -8    6.26    0.24
   2  -4   8    5.80    0.25
  -3   4  -8    0.56    0.12
  -3   4  -8    0.38    0.10
   3  -4   8    0.49    0.12
  -4   4  -8    9.82    0.34
  -4   4  -8    9.96    0.33
   4  -4   8    9.62    0.33
  -5   4  -8    1.66    0.18
  -5   4  -8    1.93    0.19
   5  -4   8    1.83    0.19
  -6   4  -8    0.07    0.11
  -6   4  -8    0.23    0.11
   6  -4   8    0.27    0.11
  -7  -3   8    0.61    0.14
   6   3  -8    1.21    0.14
  -6  -3   8    1.02    0.16
   5   3  -8    1.72    0.15
  -5  -3   8    1.34    0.17
   4   3  -8    0.01    0.07
   4   3  -8    0.04    0.07
  -4  -3   8    0.00    0.08
   3   3  -8    3.86    0.18
   3   3  -8    3.97    0.18
  -3  -3   8    3.95    0.22
   2   3  -8    0.65    0.10
   2   3  -8    0.61    0.10
  -2  -3   8    0.54    0.11
   1   3  -8  102.60    1.43
   1   3  -8  104.70    1.43
  -1  -3   8  104.73    1.42
  -1  -3   8  102.53    1.45
   0   3  -8    0.58    0.09
   0   3  -8    0.57    0.11
   0  -3   8    0.62    0.10
  -1   3  -8    0.09    0.07
  -1   3  -8    0.23    0.09
   1  -3   8    0.26    0.09
   1  -3   8    0.16    0.06
  -2   3  -8    0.10    0.07
  -2   3  -8   -0.01    0.08
   2  -3   8    0.14    0.08
  -3   3  -8   15.45    0.40
  -3   3  -8   15.12    0.38
   3  -3   8   15.78    0.39
  -4   3  -8    3.78    0.23
  -4   3  -8    4.29    0.22
   4  -3   8    4.05    0.22
  -5   3  -8    5.71    0.26
  -5   3  -8    5.56    0.26
   5  -3   8    5.42    0.25
  -6   3  -8    1.58    0.21
  -6   3  -8    1.91    0.19
   6  -3   8    1.65    0.18
  -7  -2   8    1.81    0.20
  -6  -2   8   -0.05    0.07
   5   2  -8    0.89    0.11
  -5  -2   8    0.62    0.12
   4   2  -8    0.58    0.08
   4   2  -8    0.50    0.09
  -4  -2   8    0.59    0.11
  -4  -2   8    0.39    0.10
   3   2  -8   -0.07    0.06
   3   2  -8   -0.04    0.06
  -3  -2   8   -0.03    0.08
  -3  -2   8   -0.01    0.07
   2   2  -8   11.61    0.28
   2   2  -8   11.16    0.28
  -2  -2   8   11.45    0.32
  -2  -2   8   11.48    0.33
   1   2  -8   36.05    0.59
   1   2  -8   35.70    0.60
  -1  -2   8   35.09    0.61
  -1  -2   8   33.97    0.54
  -1  -2   8   35.56    0.57
  -1  -2   8   35.03    0.63
   0   2  -8    5.79    0.20
   0   2  -8    5.70    0.22
   0  -2   8    5.47    0.24
   0  -2   8    5.89    0.20
   0  -2   8    5.65    0.19
  -1   2  -8   17.14    0.39
  -1   2  -8   17.35    0.37
   1  -2   8   17.18    0.38
   1  -2   8   17.62    0.33
  -2   2  -8    4.62    0.19
  -2   2  -8    4.64    0.21
   2  -2   8    4.41    0.20
  -3   2  -8    0.58    0.11
  -3   2  -8    0.25    0.08
   3  -2   8    1.03    0.12
  -4   2  -8    5.78    0.24
  -4   2  -8    6.66    0.26
   4  -2   8    6.83    0.25
  -5   2  -8   -0.05    0.07
  -5   2  -8   -0.08    0.07
   5  -2   8    0.00    0.07
  -6   2  -8    2.52    0.23
  -6   2  -8    2.76    0.21
   6  -2   8    2.85    0.20
  -7   2  -8    0.03    0.10
  -7   2  -8    0.01    0.11
   7  -2   8    0.18    0.10
  -7  -1   8   -0.03    0.10
  -7  -1   8    0.01    0.08
  -7  -1   8   -0.04    0.09
  -6  -1   8    0.06    0.08
  -6  -1   8   -0.07    0.08
  -6  -1   8    0.20    0.11
  -6  -1   8   -0.10    0.07
  -5  -1   8    0.86    0.12
  -5  -1   8    1.07    0.14
   4   1  -8    3.60    0.12
   4   1  -8    3.70    0.16
  -4  -1   8    3.91    0.20
  -4  -1   8    3.30    0.20
   3   1  -8   51.83    0.74
   3   1  -8   52.88    0.77
  -3  -1   8   52.63    0.83
  -3  -1   8   50.66    0.85
   2   1  -8    2.95    0.15
   2   1  -8    2.94    0.14
  -2  -1   8    2.83    0.11
  -2  -1   8    2.97    0.16
  -2  -1   8    2.97    0.18
   1   1  -8    0.77    0.10
   1   1  -8    0.97    0.09
  -1  -1   8    0.89    0.11
  -1  -1   8    0.95    0.08
  -1  -1   8    0.85    0.09
  -1  -1   8    1.00    0.09
   0   1  -8    4.68    0.17
   0   1  -8    4.55    0.19
   0  -1   8    4.23    0.16
   0  -1   8    4.59    0.17
   0  -1   8    4.56    0.20
   0  -1   8    4.55    0.17
  -1   1  -8    4.62    0.17
  -1   1  -8    4.49    0.20
   1  -1   8    4.35    0.14
   1  -1   8    4.12    0.17
   1  -1   8    4.20    0.20
  -2   1  -8   10.44    0.27
  -2   1  -8   11.12    0.30
   2  -1   8   10.45    0.28
   2  -1   8   10.28    0.29
  -3   1  -8    0.23    0.07
  -3   1  -8    0.20    0.08
   3  -1   8    0.22    0.08
  -4   1  -8    6.84    0.25
  -4   1  -8    6.76    0.25
   4  -1   8    6.98    0.25
  -5   1  -8    3.31    0.22
  -5   1  -8    3.14    0.19
  -5   1  -8    3.54    0.20
   5  -1   8    3.45    0.20
  -6   1  -8    0.29    0.11
  -6   1  -8    0.38    0.11
  -6   1  -8    0.40    0.11
   6  -1   8    0.46    0.11
  -7   1  -8    1.29    0.17
  -7   1  -8    1.65    0.20
   7  -1   8    1.66    0.17
  -7   0   8    0.98    0.18
  -7   0   8    0.75    0.14
  -7   0   8    0.84    0.14
  -6   0   8   -0.01    0.09
  -6   0   8    0.02    0.07
  -6   0   8    0.01    0.08
  -6   0   8   -0.11    0.08
  -5   0   8    7.36    0.34
  -5   0   8    8.05    0.28
  -5   0   8    8.01    0.30
  -5   0   8    8.19    0.27
   4   0  -8   13.44    0.30
  -4   0   8   13.26    0.33
  -4   0   8   13.09    0.36
  -4   0   8   12.80    0.40
   3   0  -8    1.94    0.11
   3   0  -8    1.74    0.11
  -3   0   8    1.94    0.11
  -3   0   8    1.62    0.14
  -3   0   8    1.83    0.15
   2   0  -8    0.03    0.05
   2   0  -8    0.06    0.06
  -2   0   8    0.01    0.04
  -2   0   8    0.06    0.06
  -2   0   8    0.04    0.06
   1   0  -8    3.81    0.14
   1   0  -8    3.55    0.16
  -1   0   8    3.59    0.14
  -1   0   8    3.77    0.16
  -1   0   8    3.61    0.14
  -1   0   8    3.60    0.17
   0   0  -8    8.16    0.21
   0   0  -8    7.91    0.23
   0   0   8    8.13    0.24
   0   0   8    8.10    0.23
   0   0   8    7.82    0.21
   0   0   8    8.28    0.21
  -1   0  -8    1.06    0.09
  -1   0  -8    1.06    0.11
   1   0   8    1.13    0.08
   1   0   8    1.02    0.10
   1   0   8    0.93    0.10
  -2   0  -8   14.80    0.34
  -2   0  -8   15.00    0.33
   2   0   8   14.91    0.33
   2   0   8   14.98    0.33
  -3   0  -8   13.03    0.33
  -3   0  -8   13.45    0.32
   3   0   8   13.46    0.33
   3   0   8   13.66    0.31
  -4   0  -8    6.86    0.24
  -4   0  -8    7.14    0.25
   4   0   8    6.88    0.24
  -5   0  -8   24.01    0.52
  -5   0  -8   23.87    0.55
  -5   0  -8   24.74    0.51
   5   0   8   24.43    0.50
  -6   0  -8    0.04    0.07
  -6   0  -8    0.08    0.09
   6   0   8   -0.01    0.07
  -7   0  -8    0.04    0.08
  -7   0  -8   -0.11    0.08
   7   0   8    0.19    0.09
  -7   1   8   -0.11    0.06
  -7   1   8   -0.12    0.09
  -7   1   8    0.05    0.09
  -6   1   8    0.05    0.07
  -6   1   8   -0.09    0.07
  -6   1   8    0.04    0.09
  -6   1   8    0.01    0.07
  -5   1   8    7.71    0.24
  -5   1   8    7.44    0.33
  -5   1   8    7.04    0.28
  -5   1   8    7.42    0.25
  -5   1   8    7.44    0.27
  -4   1   8    2.02    0.15
  -4   1   8    1.97    0.13
  -4   1   8    2.23    0.16
  -4   1   8    1.88    0.17
  -4   1   8    2.07    0.15
   3  -1  -8    0.24    0.05
   3  -1  -8    0.28    0.06
  -3   1   8    0.29    0.08
  -3   1   8    0.39    0.07
  -3   1   8    0.31    0.09
  -3   1   8    0.33    0.08
   2  -1  -8    0.53    0.06
   2  -1  -8    0.42    0.07
  -2   1   8    0.46    0.08
  -2   1   8    0.43    0.08
  -2   1   8    0.53    0.08
   1  -1  -8   20.69    0.38
   1  -1  -8   20.43    0.34
  -1   1   8   21.24    0.41
  -1   1   8   20.56    0.39
  -1   1   8   20.98    0.36
  -1   1   8   20.22    0.40
   0  -1  -8   35.55    0.58
   0  -1  -8   35.89    0.54
   0   1   8   36.41    0.57
   0   1   8   36.88    0.59
   0   1   8   36.38    0.57
   0   1   8   35.40    0.60
  -1  -1  -8   10.56    0.27
  -1  -1  -8   10.20    0.24
   1   1   8   11.22    0.26
   1   1   8   10.63    0.29
   1   1   8   10.56    0.26
  -2  -1  -8   25.91    0.48
  -2  -1  -8   25.85    0.45
   2   1   8   25.86    0.46
   2   1   8   25.35    0.47
  -3  -1  -8    3.34    0.16
  -3  -1  -8    3.09    0.17
   3   1   8    2.75    0.16
   3   1   8    3.18    0.16
  -4  -1  -8   28.38    0.54
  -4  -1  -8   28.62    0.54
  -4  -1  -8   28.29    0.54
   4   1   8   28.55    0.48
   4   1   8   28.23    0.53
  -5  -1  -8   10.95    0.32
  -5  -1  -8   11.57    0.32
   5   1   8   10.11    0.30
  -6  -1  -8    2.03    0.26
  -6  -1  -8    1.75    0.17
  -6  -1  -8    1.89    0.17
   6   1   8    1.97    0.17
  -7  -1  -8    2.87    0.21
   7   1   8    2.53    0.19
  -8  -1  -8    1.26    0.17
   8   1   8    1.37    0.16
  -7   2   8    3.85    0.24
  -7   2   8    3.53    0.30
  -7   2   8    3.46    0.24
  -6   2   8    3.68    0.21
  -6   2   8    3.34    0.26
  -6   2   8    3.73    0.22
  -6   2   8    3.42    0.20
  -5   2   8   -0.08    0.07
  -5   2   8    0.12    0.09
  -5   2   8    0.05    0.07
  -5   2   8    0.07    0.07
  -5   2   8    0.09    0.07
  -4   2   8   14.96    0.39
  -4   2   8   14.39    0.35
  -4   2   8   14.36    0.34
  -4   2   8   14.55    0.34
  -4   2   8   14.71    0.42
   3  -2  -8    3.01    0.12
  -3   2   8    2.97    0.15
  -3   2   8    2.92    0.18
  -3   2   8    2.76    0.15
  -3   2   8    2.79    0.16
  -3   2   8    2.68    0.16
   2  -2  -8   49.26    0.71
  -2   2   8   49.20    0.79
  -2   2   8   49.43    0.76
  -2   2   8   48.39    0.79
  -2   2   8   49.17    0.76
   1  -2  -8    0.70    0.06
   1  -2  -8    0.70    0.08
  -1   2   8    0.69    0.09
  -1   2   8    0.71    0.09
  -1   2   8    0.59    0.08
  -1   2   8    0.72    0.07
   0  -2  -8    5.59    0.19
   0  -2  -8    5.93    0.15
   0   2   8    5.82    0.19
   0   2   8    5.99    0.21
   0   2   8    5.65    0.18
  -1  -2  -8   15.05    0.34
  -1  -2  -8   15.78    0.30
   1   2   8   16.08    0.33
   1   2   8   15.63    0.33
   1   2   8   15.45    0.36
  -2  -2  -8   39.56    0.62
  -2  -2  -8   38.64    0.65
   2   2   8   38.44    0.70
   2   2   8   39.21    0.61
   2   2   8   39.21    0.63
  -3  -2  -8   13.64    0.28
  -3  -2  -8   13.56    0.33
   3   2   8   13.65    0.33
   3   2   8   13.72    0.29
  -4  -2  -8    9.30    0.28
   4   2   8    9.24    0.23
   4   2   8    8.80    0.27
  -5  -2  -8    0.31    0.09
  -5  -2  -8    0.16    0.08
   5   2   8    0.28    0.08
  -6  -2  -8    8.73    0.28
  -6  -2  -8    8.78    0.31
   6   2   8    8.89    0.30
  -7  -2  -8    0.92    0.13
   7   2   8    1.02    0.14
  -8  -2  -8    0.32    0.11
   8   2   8    0.29    0.10
  -7   3   8    0.73    0.17
  -7   3   8    0.85    0.14
  -7   3   8    1.06    0.16
  -7   3   8    1.10    0.15
  -6   3   8    8.51    0.38
  -6   3   8    8.59    0.30
  -6   3   8    8.49    0.33
  -6   3   8    8.82    0.32
  -5   3   8   42.94    0.72
  -5   3   8   42.89    0.81
  -5   3   8   43.13    0.86
  -5   3   8   42.24    0.74
  -5   3   8   43.76    0.77
   4  -3  -8    0.72    0.07
  -4   3   8    0.61    0.09
  -4   3   8    0.57    0.09
  -4   3   8    0.79    0.13
  -4   3   8    0.59    0.10
  -4   3   8    0.89    0.11
   3  -3  -8   -0.04    0.05
  -3   3   8   -0.04    0.06
  -3   3   8    0.08    0.06
  -3   3   8    0.09    0.06
  -3   3   8    0.16    0.07
  -3   3   8    0.06    0.06
   2  -3  -8   33.15    0.53
  -2   3   8   33.10    0.57
  -2   3   8   32.46    0.60
  -2   3   8   33.77    0.58
  -2   3   8   33.20    0.58
   1  -3  -8    0.98    0.10
  -1   3   8    1.11    0.11
  -1   3   8    1.11    0.09
  -1   3   8    1.07    0.11
   0  -3  -8    4.16    0.17
   0   3   8    4.27    0.18
   0   3   8    4.17    0.16
   0   3   8    4.47    0.18
  -1  -3  -8   12.68    0.30
   1   3   8   13.07    0.29
   1   3   8   12.96    0.34
   1   3   8   12.53    0.29
  -2  -3  -8    7.17    0.23
   2   3   8    7.57    0.27
   2   3   8    7.61    0.21
   2   3   8    7.27    0.22
  -3  -3  -8    0.99    0.11
   3   3   8    1.21    0.12
   3   3   8    1.16    0.10
  -4  -3  -8   14.44    0.31
  -4  -3  -8   14.64    0.36
   4   3   8   14.78    0.36
   4   3   8   14.24    0.30
  -5  -3  -8    3.15    0.16
  -5  -3  -8    3.10    0.18
   5   3   8    3.21    0.18
  -6  -3  -8    3.96    0.21
  -6  -3  -8    3.79    0.18
   6   3   8    4.18    0.21
   7   3   8   10.67    0.34
   8   3   8    0.51    0.12
  -7   4   8    1.31    0.19
  -7   4   8    1.05    0.19
  -7   4   8    1.19    0.16
  -6   4   8    7.99    0.32
  -6   4   8    7.48    0.28
  -6   4   8    6.96    0.35
  -5   4   8    1.44    0.14
  -5   4   8    1.48    0.18
  -5   4   8    1.45    0.16
  -5   4   8    1.34    0.14
   4  -4  -8   19.12    0.33
  -4   4   8   19.24    0.40
  -4   4   8   18.75    0.42
  -4   4   8   18.72    0.45
  -4   4   8   19.46    0.49
   3  -4  -8   11.21    0.25
  -3   4   8   11.14    0.32
  -3   4   8   11.65    0.31
  -3   4   8   11.54    0.27
  -3   4   8   12.07    0.33
   2  -4  -8   19.67    0.38
  -2   4   8   20.18    0.44
  -2   4   8   20.66    0.37
  -2   4   8   20.15    0.42
  -2   4   8   20.42    0.41
   1  -4  -8    8.47    0.24
  -1   4   8    8.78    0.25
  -1   4   8    8.76    0.26
  -1   4   8    8.86    0.23
   0  -4  -8    2.99    0.16
   0   4   8    2.86    0.14
   0   4   8    3.15    0.17
   0   4   8    3.05    0.16
  -1  -4  -8    5.21    0.20
   1   4   8    5.27    0.19
   1   4   8    5.36    0.19
   1   4   8    5.39    0.22
  -2  -4  -8   19.08    0.41
   2   4   8   19.40    0.45
   2   4   8   19.34    0.40
   2   4   8   19.22    0.38
  -3  -4  -8    0.08    0.07
   3   4   8    0.08    0.06
   3   4   8    0.16    0.09
   3   4   8    0.12    0.06
  -4  -4  -8   11.49    0.32
   4   4   8   10.87    0.31
   4   4   8   11.04    0.26
   4   4   8   11.43    0.38
  -5  -4  -8    5.74    0.24
   5   4   8    5.46    0.23
  -6  -4  -8    5.83    0.25
   6   4   8    5.47    0.24
   7   4   8   11.73    0.36
   8   4   8    2.93    0.22
  -6   5   8    0.08    0.08
  -6   5   8    0.01    0.10
  -6   5   8    0.04    0.10
  -5   5   8    2.11    0.20
  -5   5   8    2.07    0.16
  -5   5   8    2.08    0.21
  -5   5   8    2.02    0.17
   4  -5  -8    0.00    0.05
  -4   5   8    0.07    0.07
  -4   5   8   -0.01    0.07
  -4   5   8   -0.01    0.07
  -4   5   8    0.05    0.05
   3  -5  -8    0.03    0.06
  -3   5   8   -0.04    0.06
  -3   5   8   -0.07    0.06
  -3   5   8   -0.05    0.06
  -3   5   8    0.04    0.05
   2  -5  -8    0.19    0.07
  -2   5   8    0.26    0.08
  -2   5   8    0.17    0.07
  -2   5   8    0.23    0.05
   1  -5  -8    2.78    0.15
  -1   5   8    3.08    0.15
  -1   5   8    3.12    0.18
  -1   5   8    3.05    0.17
   0  -5  -8    9.67    0.27
   0   5   8    9.34    0.25
   0   5   8    9.10    0.27
   0   5   8    9.08    0.29
  -1  -5  -8   16.71    0.38
   1   5   8   16.89    0.37
   1   5   8   16.69    0.41
   1   5   8   16.99    0.37
  -2  -5  -8   24.47    0.49
   2   5   8   23.68    0.48
   2   5   8   24.71    0.47
   2   5   8   23.86    0.52
  -3  -5  -8    0.10    0.08
   3   5   8    0.11    0.07
   3   5   8    0.05    0.06
   3   5   8    0.06    0.08
  -4  -5  -8   22.42    0.49
   4   5   8   22.05    0.48
   4   5   8   22.43    0.55
   4   5   8   22.59    0.43
  -5  -5  -8    0.77    0.12
   5   5   8    0.86    0.12
   5   5   8    0.83    0.16
  -6  -5  -8    2.54    0.20
   6   5   8    2.84    0.19
   7   5   8   15.24    0.43
  -6   6   8    0.65    0.16
  -6   6   8    0.76    0.16
  -5   6   8    0.67    0.14
  -5   6   8    0.43    0.13
  -5   6   8    0.50    0.11
   4  -6  -8    1.98    0.14
  -4   6   8    2.25    0.20
  -4   6   8    2.21    0.17
  -4   6   8    2.33    0.25
   3  -6  -8    1.27    0.12
  -3   6   8    1.01    0.13
  -3   6   8    0.99    0.14
   2  -6  -8    6.78    0.23
  -2   6   8    6.75    0.25
  -2   6   8    6.81    0.27
   1  -6  -8   10.35    0.29
  -1   6   8   10.47    0.31
  -1   6   8   10.51    0.32
  -1   6   8   10.60    0.28
   0  -6  -8    0.63    0.10
   0   6   8    0.65    0.10
   0   6   8    0.72    0.11
   0   6   8    0.48    0.09
  -1  -6  -8    0.54    0.10
   1   6   8    0.48    0.10
   1   6   8    0.54    0.09
   1   6   8    0.45    0.10
  -2  -6  -8   52.32    0.86
   2   6   8   52.38    0.91
   2   6   8   53.13    0.84
   2   6   8   52.64    0.85
  -3  -6  -8    0.25    0.09
   3   6   8    0.28    0.08
   3   6   8    0.19    0.07
   3   6   8    0.13    0.08
  -4  -6  -8    0.02    0.08
   4   6   8    0.08    0.06
   4   6   8    0.05    0.09
   4   6   8    0.05    0.08
  -5  -6  -8    5.90    0.26
   5   6   8    5.63    0.30
   5   6   8    5.46    0.25
   6   6   8    6.91    0.29
   6   6   8    6.95    0.35
   7   6   8   11.43    0.38
   7   6   8   10.75    0.45
  -5   7   8    2.27    0.20
  -5   7   8    2.67    0.25
   4  -7  -8    4.82    0.20
  -4   7   8    4.46    0.24
  -4   7   8    4.94    0.28
   3  -7  -8    6.99    0.25
  -3   7   8    7.15    0.28
  -3   7   8    7.53    0.31
   2  -7  -8   26.18    0.52
  -2   7   8   27.25    0.57
  -2   7   8   26.54    0.59
   1  -7  -8   15.80    0.39
  -1   7   8   15.76    0.41
  -1   7   8   16.94    0.42
  -1   7   8   15.84    0.43
   0  -7  -8   15.19    0.39
   0   7   8   15.42    0.40
   0   7   8   16.33    0.38
   0   7   8   15.67    0.42
  -1  -7  -8   31.38    0.61
   1   7   8   32.32    0.61
   1   7   8   31.49    0.60
   1   7   8   32.50    0.65
  -2  -7  -8   12.12    0.35
   2   7   8   11.44    0.36
   2   7   8   11.90    0.33
   2   7   8   11.84    0.34
  -3  -7  -8    5.57    0.25
   3   7   8    5.91    0.25
   3   7   8    5.63    0.27
   3   7   8    5.68    0.23
  -4  -7  -8    3.35    0.21
   4   7   8    3.69    0.21
   4   7   8    3.63    0.24
   4   7   8    3.83    0.19
  -5  -7  -8    0.07    0.08
   5   7   8    0.03    0.08
   5   7   8    0.09    0.11
   6   7   8    2.25    0.20
   6   7   8    1.48    0.20
   7   7   8   -0.27    0.11
   7   7   8    0.03    0.10
   4  -8  -8   -0.01    0.09
  -4   8   8   -0.11    0.07
  -4   8   8    0.30    0.13
   3  -8  -8    0.17    0.09
  -3   8   8    0.10    0.08
  -3   8   8    0.23    0.11
   2  -8  -8    3.70    0.21
  -2   8   8    3.74    0.22
  -2   8   8    4.35    0.25
   1  -8  -8    2.52    0.18
  -1   8   8    2.42    0.19
  -1   8   8    2.35    0.19
   0  -8  -8   -0.02    0.08
   0   8   8    0.05    0.08
   0   8   8   -0.04    0.07
   0   8   8    0.01    0.07
  -1  -8  -8    0.05    0.08
   1   8   8    0.07    0.07
   1   8   8    0.01    0.07
   1   8   8    0.06    0.08
  -2  -8  -8    0.36    0.11
   2   8   8    0.24    0.09
   2   8   8    0.26    0.09
   2   8   8    0.28    0.09
  -3  -8  -8    1.03    0.14
   3   8   8    1.20    0.12
   3   8   8    0.99    0.12
   3   8   8    1.17    0.14
   3   8   8    1.09    0.16
  -4  -8  -8   -0.08    0.08
   4   8   8    0.03    0.08
   4   8   8    0.13    0.08
   4   8   8    0.05    0.09
   4   8   8    0.11    0.07
  -5  -8  -8   12.07    0.39
   5   8   8   11.84    0.39
   5   8   8   11.41    0.41
   6   8   8    0.72    0.14
   6   8   8    0.72    0.16
   3  -9  -8    3.17    0.22
  -3   9   8    2.77    0.22
  -3   9   8    3.24    0.26
   2  -9  -8    1.87    0.18
  -2   9   8    2.29    0.22
  -2   9   8    2.00    0.19
   1  -9  -8    2.41    0.19
  -1   9   8    2.53    0.21
  -1   9   8    2.36    0.21
   0  -9  -8    5.71    0.26
   0   9   8    5.70    0.25
   0   9   8    5.52    0.27
   0   9   8    5.45    0.28
  -1  -9  -8   15.09    0.42
   1   9   8   15.09    0.45
   1   9   8   15.38    0.42
   1   9   8   15.33    0.43
  -2  -9  -8    1.74    0.18
   2   9   8    2.07    0.18
   2   9   8    1.47    0.17
   2   9   8    1.66    0.17
  -3  -9  -8    9.57    0.34
   3   9   8    9.47    0.34
   3   9   8    9.22    0.33
   3   9   8    9.49    0.35
  -4  -9  -8   38.68    0.77
   4   9   8   38.43    0.80
   4   9   8   37.98    0.70
   4   9   8   38.59    0.77
   4   9   8   37.81    0.72
  -5  -9  -8    0.61    0.14
   5   9   8    0.42    0.13
   5   9   8    0.21    0.11
   5   9   8    0.33    0.10
   2 -10  -8    1.39    0.18
  -2  10   8    0.97    0.16
  -2  10   8    1.20    0.19
   1 -10  -8    0.08    0.11
  -1  10   8    0.14    0.11
  -1  10   8    0.11    0.10
   0 -10  -8    4.27    0.26
   0  10   8    4.07    0.24
   0  10   8    4.23    0.27
   0  10   8    3.97    0.26
  -1 -10  -8    4.19    0.26
   1  10   8    4.41    0.26
   1  10   8    4.38    0.27
   1  10   8    4.42    0.25
  -2 -10  -8    4.50    0.26
   2  10   8    4.37    0.25
   2  10   8    3.82    0.25
   2  10   8    4.20    0.26
  -3 -10  -8   10.36    0.38
   3  10   8    9.91    0.37
   3  10   8   10.13    0.37
   3  10   8   10.19    0.36
  -4 -10  -8    5.24    0.29
   4  10   8    4.86    0.26
   4  10   8    4.75    0.28
   4  10   8    5.09    0.28
   3   7  -9   -0.24    0.11
   3   7  -9    0.03    0.11
  -3  -7   9   -0.03    0.12
   2   7  -9    1.60    0.19
   2   7  -9    1.38    0.18
  -2  -7   9    1.50    0.21
   1   7  -9    2.19    0.21
   1   7  -9    2.21    0.21
  -1  -7   9    1.82    0.27
   0   7  -9   -0.04    0.10
   0   7  -9    0.04    0.13
   0  -7   9    0.18    0.12
  -1   7  -9   23.24    0.57
  -1   7  -9   23.23    0.59
   1  -7   9   22.44    0.57
  -2   7  -9   10.40    0.38
  -2   7  -9   11.07    0.42
   2  -7   9   10.40    0.40
   4   6  -9    1.54    0.17
   4   6  -9    1.76    0.18
  -4  -6   9    1.44    0.20
   3   6  -9    5.19    0.27
   3   6  -9    5.26    0.27
  -3  -6   9    5.79    0.33
   2   6  -9   -0.10    0.09
   2   6  -9    0.09    0.11
  -2  -6   9   -0.18    0.09
   1   6  -9    0.57    0.14
   1   6  -9    0.65    0.12
  -1  -6   9    0.29    0.12
   0   6  -9    2.23    0.20
   0   6  -9    2.30    0.21
   0  -6   9    2.44    0.21
  -1   6  -9    0.71    0.15
  -1   6  -9    0.67    0.13
   1  -6   9    0.71    0.14
  -2   6  -9    2.02    0.19
  -2   6  -9    2.34    0.22
   2  -6   9    2.49    0.22
  -3   6  -9    4.61    0.30
  -3   6  -9    4.69    0.27
   3  -6   9    4.80    0.29
   5   5  -9    0.95    0.15
   5   5  -9    0.78    0.12
  -5  -5   9    1.08    0.18
   4   5  -9   -0.15    0.08
   4   5  -9    0.11    0.10
  -4  -5   9    0.14    0.11
   3   5  -9   -0.12    0.08
   3   5  -9    0.06    0.10
  -3  -5   9    0.07    0.10
   2   5  -9    0.88    0.13
   2   5  -9    0.98    0.14
  -2  -5   9    0.89    0.15
   1   5  -9    0.25    0.10
   1   5  -9    0.14    0.11
  -1  -5   9    0.07    0.09
  -1  -5   9    0.16    0.10
   0   5  -9    0.87    0.15
   0   5  -9    0.80    0.13
   0  -5   9    0.84    0.14
  -1   5  -9   10.39    0.35
  -1   5  -9    9.71    0.32
   1  -5   9    9.96    0.34
  -2   5  -9    1.50    0.16
  -2   5  -9    1.68    0.18
   2  -5   9    1.55    0.17
  -3   5  -9    0.22    0.10
  -3   5  -9    0.24    0.13
   3  -5   9    0.30    0.12
  -4   5  -9    3.72    0.24
  -4   5  -9    4.30    0.28
   4  -5   9    3.83    0.26
   6   4  -9    0.63    0.13
  -6  -4   9    0.26    0.13
   5   4  -9    4.36    0.23
  -5  -4   9    4.36    0.28
   4   4  -9    5.01    0.21
   4   4  -9    5.24    0.24
  -4  -4   9    4.73    0.27
   3   4  -9    1.92    0.16
   3   4  -9    1.94    0.16
  -3  -4   9    1.82    0.19
   2   4  -9    3.49    0.20
   2   4  -9    3.87    0.21
  -2  -4   9    3.34    0.22
   1   4  -9    0.14    0.08
   1   4  -9   -0.02    0.09
  -1  -4   9    0.08    0.08
  -1  -4   9    0.18    0.09
   0   4  -9    2.10    0.17
   0   4  -9    1.67    0.16
   0  -4   9    1.57    0.14
   0  -4   9    1.81    0.16
  -1   4  -9    0.03    0.10
  -1   4  -9   -0.10    0.07
   1  -4   9    0.00    0.08
  -2   4  -9    0.93    0.14
  -2   4  -9    0.77    0.12
   2  -4   9    0.79    0.13
  -3   4  -9    0.53    0.11
  -3   4  -9    0.35    0.12
   3  -4   9   -0.05    0.09
  -4   4  -9    2.90    0.24
  -4   4  -9    2.76    0.21
   4  -4   9    2.81    0.22
  -5   4  -9    0.67    0.15
  -5   4  -9    0.38    0.12
   5  -4   9    0.57    0.13
  -6  -3   9    1.01    0.16
   5   3  -9    7.19    0.26
  -5  -3   9    7.18    0.32
   4   3  -9    2.18    0.15
   4   3  -9    2.25    0.17
  -4  -3   9    2.13    0.19
   3   3  -9    3.00    0.18
   3   3  -9    3.17    0.18
  -3  -3   9    3.21    0.21
   2   3  -9    3.44    0.19
   2   3  -9    3.80    0.20
  -2  -3   9    3.56    0.21
   1   3  -9    1.50    0.15
   1   3  -9    1.66    0.14
  -1  -3   9    1.68    0.16
  -1  -3   9    1.46    0.13
   0   3  -9   22.85    0.49
   0   3  -9   23.43    0.48
   0  -3   9   23.83    0.48
   0  -3   9   23.29    0.46
  -1   3  -9   10.08    0.30
  -1   3  -9    9.84    0.32
   1  -3   9   10.17    0.30
  -2   3  -9   13.24    0.36
  -2   3  -9   13.86    0.38
   2  -3   9   14.07    0.37
  -3   3  -9    8.11    0.31
  -3   3  -9    8.27    0.29
   3  -3   9    8.42    0.30
  -4   3  -9    1.83    0.17
  -4   3  -9    1.70    0.18
   4  -3   9    1.76    0.18
  -5   3  -9    0.47    0.12
  -5   3  -9    0.72    0.13
   5  -3   9    0.71    0.13
  -6   3  -9    5.56    0.34
  -6   3  -9    6.50    0.31
   6  -3   9    5.93    0.29
  -7  -2   9    1.07    0.17
  -6  -2   9    0.65    0.14
   5   2  -9    0.83    0.11
  -5  -2   9    0.56    0.12
   4   2  -9    0.22    0.07
   4   2  -9    0.18    0.07
  -4  -2   9    0.02    0.09
  -4  -2   9   -0.01    0.08
   3   2  -9    3.03    0.16
   3   2  -9    2.99    0.16
  -3  -2   9    2.85    0.21
  -3  -2   9    2.87    0.20
   2   2  -9   32.61    0.56
   2   2  -9   31.95    0.56
  -2  -2   9   31.32    0.61
  -2  -2   9   31.70    0.61
   1   2  -9  193.22    2.48
   1   2  -9  189.81    2.49
  -1  -2   9  190.69    2.54
  -1  -2   9  195.05    2.51
  -1  -2   9  195.16    2.47
   0   2  -9   15.70    0.35
   0   2  -9   14.65    0.36
   0  -2   9   15.08    0.34
   0  -2   9   15.08    0.34
   0  -2   9   15.65    0.40
   0  -2   9   14.51    0.35
  -1   2  -9    6.67    0.25
  -1   2  -9    6.78    0.23
   1  -2   9    6.76    0.24
  -2   2  -9    4.72    0.23
  -2   2  -9    5.14    0.21
   2  -2   9    5.01    0.22
  -3   2  -9    7.21    0.28
  -3   2  -9    6.94    0.26
   3  -2   9    7.24    0.27
  -4   2  -9    7.33    0.28
  -4   2  -9    6.94    0.28
   4  -2   9    7.28    0.28
  -5   2  -9    6.74    0.29
  -5   2  -9    6.32    0.28
   5  -2   9    6.37    0.27
  -6   2  -9    1.31    0.17
  -6   2  -9    0.88    0.16
   6  -2   9    1.06    0.15
  -7  -1   9    0.15    0.10
  -6  -1   9    1.77    0.19
  -6  -1   9    1.70    0.17
  -5  -1   9    0.69    0.12
  -5  -1   9    0.86    0.13
   4   1  -9    3.74    0.14
   4   1  -9    3.80    0.17
  -4  -1   9    3.88    0.22
  -4  -1   9    3.54    0.21
   3   1  -9   35.30    0.57
   3   1  -9   34.84    0.56
  -3  -1   9   34.50    0.64
  -3  -1   9   34.99    0.66
   2   1  -9  128.48    1.68
   2   1  -9  126.56    1.68
  -2  -1   9  127.39    1.75
  -2  -1   9  127.51    1.75
   1   1  -9    3.39    0.18
   1   1  -9    3.21    0.15
  -1  -1   9    3.13    0.14
  -1  -1   9    3.66    0.20
  -1  -1   9    3.10    0.16
  -1  -1   9    3.22    0.15
   0   1  -9    3.99    0.17
   0   1  -9    4.37    0.20
   0  -1   9    4.22    0.17
   0  -1   9    4.01    0.18
   0  -1   9    4.00    0.17
   0  -1   9    4.12    0.21
  -1   1  -9    1.66    0.13
  -1   1  -9    1.60    0.14
   1  -1   9    1.46    0.13
   1  -1   9    1.44    0.13
   1  -1   9    1.62    0.10
  -2   1  -9   21.22    0.46
  -2   1  -9   20.36    0.43
   2  -1   9   20.11    0.43
   2  -1   9   21.39    0.45
  -3   1  -9    1.00    0.13
  -3   1  -9    1.12    0.12
   3  -1   9    1.30    0.13
  -4   1  -9    0.19    0.08
  -4   1  -9    0.30    0.10
   4  -1   9    0.33    0.09
  -5   1  -9   14.85    0.45
  -5   1  -9   15.69    0.42
  -5   1  -9   16.37    0.42
   5  -1   9   14.93    0.40
  -6   1  -9    3.35    0.23
  -6   1  -9    3.17    0.23
   6  -1   9    3.22    0.22
  -7   1  -9    0.78    0.15
  -7   1  -9    0.62    0.15
   7  -1   9    1.17    0.16
  -7   0   9    2.64    0.23
  -7   0   9    2.67    0.23
  -7   0   9    2.45    0.27
  -6   0   9    0.66    0.16
  -6   0   9    0.67    0.13
  -6   0   9    0.62    0.13
  -6   0   9    0.61    0.12
  -5   0   9    1.39    0.14
  -5   0   9    1.61    0.16
   4   0  -9    0.95    0.10
  -4   0   9    0.79    0.11
  -4   0   9    0.77    0.11
   3   0  -9    6.39    0.19
   3   0  -9    6.47    0.19
  -3   0   9    6.85    0.25
  -3   0   9    6.50    0.24
  -3   0   9    6.65    0.25
   2   0  -9    0.27    0.07
   2   0  -9    0.15    0.07
  -2   0   9    0.28    0.06
  -2   0   9    0.42    0.08
  -2   0   9    0.27    0.09
   1   0  -9    8.57    0.22
   1   0  -9    8.23    0.24
  -1   0   9    8.51    0.25
  -1   0   9    8.46    0.22
  -1   0   9    8.47    0.23
  -1   0   9    7.91    0.26
   0   0  -9    5.03    0.17
   0   0  -9    4.84    0.20
   0   0   9    5.07    0.18
   0   0   9    4.90    0.21
   0   0   9    5.07    0.18
   0   0   9    5.03    0.20
  -1   0  -9    0.86    0.11
  -1   0  -9    0.92    0.10
   1   0   9    0.98    0.09
   1   0   9    0.89    0.10
   1   0   9    0.71    0.10
  -2   0  -9    1.61    0.14
  -2   0  -9    1.68    0.13
   2   0   9    1.57    0.13
   2   0   9    1.78    0.16
  -3   0  -9    1.39    0.13
  -3   0  -9    1.30    0.13
   3   0   9    1.10    0.12
   3   0   9    1.25    0.13
  -4   0  -9   35.04    0.65
  -4   0  -9   35.70    0.66
   4   0   9   34.38    0.64
  -5   0  -9   83.89    1.27
  -5   0  -9   77.62    1.29
  -5   0  -9   87.03    1.27
   5   0   9   82.84    1.25
  -6   0  -9    2.42    0.27
  -6   0  -9    2.41    0.20
  -6   0  -9    2.84    0.21
   6   0   9    2.67    0.19
  -7   0  -9    0.96    0.16
   7   0   9    0.96    0.14
  -7   1   9    0.12    0.12
  -7   1   9    0.08    0.10
  -7   1   9    0.06    0.09
  -6   1   9    0.08    0.09
  -6   1   9    0.09    0.10
  -6   1   9    0.26    0.10
  -6   1   9    0.12    0.08
  -5   1   9    3.05    0.24
  -5   1   9    2.80    0.19
  -5   1   9    3.00    0.19
  -5   1   9    3.07    0.20
  -4   1   9    2.02    0.13
  -4   1   9    1.94    0.16
  -4   1   9    2.35    0.20
  -4   1   9    2.03    0.17
   3  -1  -9   -0.02    0.05
  -3   1   9    0.04    0.05
  -3   1   9    0.05    0.06
  -3   1   9    0.02    0.07
   2  -1  -9    1.01    0.10
   2  -1  -9    0.98    0.09
  -2   1   9    1.01    0.10
  -2   1   9    0.94    0.11
  -2   1   9    0.94    0.11
   1  -1  -9    1.67    0.10
   1  -1  -9    1.82    0.13
  -1   1   9    2.14    0.13
  -1   1   9    1.95    0.11
  -1   1   9    1.93    0.15
  -1   1   9    1.84    0.13
   0  -1  -9    2.24    0.15
   0  -1  -9    2.35    0.12
   0   1   9    2.40    0.15
   0   1   9    2.40    0.15
   0   1   9    2.28    0.13
   0   1   9    2.37    0.13
  -1  -1  -9    7.74    0.22
  -1  -1  -9    7.86    0.25
   1   1   9    8.09    0.23
   1   1   9    7.75    0.26
   1   1   9    8.03    0.24
  -2  -1  -9    5.08    0.21
  -2  -1  -9    5.34    0.19
   2   1   9    4.96    0.20
   2   1   9    4.86    0.19
  -3  -1  -9    7.37    0.26
  -3  -1  -9    7.10    0.24
   3   1   9    6.92    0.24
   3   1   9    7.37    0.23
  -4  -1  -9   66.47    1.02
  -4  -1  -9   64.59    1.05
  -4  -1  -9   64.91    1.01
   4   1   9   63.97    1.00
   4   1   9   64.35    0.94
  -5  -1  -9   28.40    0.57
   5   1   9   27.13    0.56
  -6  -1  -9    2.92    0.21
  -6  -1  -9    2.77    0.19
   6   1   9    3.03    0.20
  -7  -1  -9   -0.03    0.09
   7   1   9    0.22    0.10
  -7   2   9   -0.06    0.10
  -7   2   9    0.06    0.09
  -7   2   9   -0.01    0.08
  -6   2   9    2.47    0.19
  -6   2   9    2.27    0.24
  -6   2   9    2.21    0.19
  -6   2   9    2.56    0.20
  -5   2   9   16.95    0.45
  -5   2   9   17.11    0.50
  -5   2   9   17.44    0.41
  -5   2   9   16.97    0.42
  -5   2   9   17.31    0.41
  -4   2   9    8.70    0.33
  -4   2   9    9.71    0.29
  -4   2   9    9.48    0.28
  -4   2   9    9.60    0.31
  -4   2   9    9.41    0.28
   3  -2  -9    1.23    0.10
  -3   2   9    1.05    0.11
  -3   2   9    1.06    0.13
  -3   2   9    1.23    0.13
  -3   2   9    1.21    0.12
   2  -2  -9    2.14    0.13
  -2   2   9    2.09    0.15
  -2   2   9    1.91    0.13
  -2   2   9    2.15    0.15
   1  -2  -9    4.67    0.18
   1  -2  -9    4.70    0.14
  -1   2   9    4.78    0.20
  -1   2   9    4.82    0.19
  -1   2   9    4.51    0.18
  -1   2   9    4.81    0.16
   0  -2  -9   17.83    0.38
   0  -2  -9   18.42    0.33
   0   2   9   18.32    0.40
   0   2   9   18.33    0.36
   0   2   9   18.39    0.38
  -1  -2  -9    0.00    0.07
  -1  -2  -9    0.02    0.05
   1   2   9    0.11    0.06
   1   2   9    0.07    0.06
   1   2   9    0.03    0.07
  -2  -2  -9    0.16    0.06
  -2  -2  -9    0.14    0.08
   2   2   9    0.31    0.08
   2   2   9    0.19    0.07
   2   2   9    0.17    0.09
  -3  -2  -9    8.54    0.28
  -3  -2  -9    8.55    0.26
   3   2   9    9.20    0.27
   3   2   9    8.90    0.25
  -4  -2  -9   27.74    0.56
   4   2   9   27.38    0.54
   4   2   9   28.11    0.49
  -5  -2  -9    2.12    0.16
  -5  -2  -9    2.34    0.18
   5   2   9    2.08    0.17
  -6  -2  -9    3.42    0.21
  -6  -2  -9    3.43    0.20
   6   2   9    3.66    0.21
  -7  -2  -9    6.18    0.27
   7   2   9    6.05    0.27
  -7   3   9    0.13    0.10
  -7   3   9    0.07    0.09
  -7   3   9    0.19    0.13
  -6   3   9    7.39    0.32
  -6   3   9    8.08    0.38
  -6   3   9    7.66    0.30
  -6   3   9    8.04    0.31
  -5   3   9   14.32    0.37
  -5   3   9   14.11    0.38
  -5   3   9   14.83    0.40
  -5   3   9   14.43    0.46
  -5   3   9   14.25    0.43
  -4   3   9   39.79    0.78
  -4   3   9   39.44    0.71
  -4   3   9   40.31    0.69
  -4   3   9   39.43    0.76
  -4   3   9   40.34    0.70
   3  -3  -9    0.60    0.08
  -3   3   9    0.44    0.09
  -3   3   9    0.45    0.09
  -3   3   9    0.55    0.10
  -3   3   9    0.57    0.10
   2  -3  -9   14.38    0.31
  -2   3   9   14.62    0.37
  -2   3   9   15.33    0.35
  -2   3   9   14.91    0.36
  -2   3   9   14.83    0.36
   1  -3  -9    0.83    0.10
  -1   3   9    0.87    0.10
  -1   3   9    0.85    0.09
  -1   3   9    0.76    0.10
   0  -3  -9    0.33    0.08
   0  -3  -9    0.27    0.06
   0   3   9    0.28    0.07
   0   3   9    0.25    0.07
   0   3   9    0.28    0.08
  -1  -3  -9    3.74    0.18
   1   3   9    3.64    0.17
   1   3   9    3.59    0.16
   1   3   9    3.99    0.20
  -2  -3  -9   15.07    0.36
   2   3   9   15.59    0.41
   2   3   9   14.81    0.34
   2   3   9   15.44    0.35
  -3  -3  -9    0.29    0.09
   3   3   9    0.04    0.06
   3   3   9   -0.02    0.09
   3   3   9    0.37    0.08
  -4  -3  -9    2.54    0.18
   4   3   9    2.38    0.17
   4   3   9    2.65    0.15
  -5  -3  -9    4.74    0.22
   5   3   9    4.42    0.22
  -6  -3  -9    4.44    0.23
   6   3   9    4.34    0.23
   7   3   9    0.15    0.09
  -6   4   9    0.17    0.11
  -6   4   9    0.25    0.11
  -6   4   9    0.17    0.09
  -5   4   9   63.61    1.14
  -5   4   9   64.28    1.02
  -5   4   9   64.11    1.02
  -5   4   9   64.37    1.07
   4  -4  -9   -0.05    0.05
  -4   4   9    0.03    0.07
  -4   4   9    0.05    0.06
  -4   4   9    0.02    0.07
  -4   4   9    0.01    0.07
   3  -4  -9    6.19    0.19
  -3   4   9    5.96    0.24
  -3   4   9    6.02    0.23
  -3   4   9    6.05    0.20
  -3   4   9    5.99    0.24
   2  -4  -9   11.91    0.29
  -2   4   9   11.77    0.32
  -2   4   9   11.97    0.33
   1  -4  -9   -0.05    0.06
  -1   4   9    0.10    0.07
  -1   4   9    0.10    0.07
  -1   4   9    0.13    0.06
   0  -4  -9    0.20    0.08
   0   4   9    0.28    0.07
   0   4   9    0.20    0.07
   0   4   9    0.23    0.08
  -1  -4  -9   40.40    0.69
   1   4   9   40.94    0.68
   1   4   9   40.59    0.73
   1   4   9   41.20    0.68
  -2  -4  -9    0.71    0.10
   2   4   9    0.85    0.13
   2   4   9    0.88    0.10
   2   4   9    0.76    0.10
  -3  -4  -9    2.34    0.17
   3   4   9    2.27    0.16
   3   4   9    2.23    0.20
   3   4   9    2.44    0.15
  -4  -4  -9    1.10    0.13
   4   4   9    1.23    0.17
   4   4   9    1.37    0.12
   4   4   9    1.09    0.12
  -5  -4  -9   11.77    0.35
   5   4   9   10.46    0.33
  -6  -4  -9    5.09    0.24
   6   4   9    4.89    0.24
   7   4   9    5.40    0.27
  -6   5   9    3.48    0.28
  -6   5   9    3.10    0.20
  -6   5   9    3.17    0.26
  -5   5   9    7.43    0.34
  -5   5   9    8.07    0.32
  -5   5   9    7.42    0.27
  -5   5   9    7.34    0.28
   4  -5  -9    2.43    0.14
  -4   5   9    2.80    0.16
  -4   5   9    2.88    0.20
  -4   5   9    2.43    0.18
   3  -5  -9    3.02    0.15
  -3   5   9    3.47    0.19
  -3   5   9    2.94    0.15
  -3   5   9    2.97    0.20
   2  -5  -9    0.56    0.09
  -2   5   9    0.51    0.10
  -2   5   9    0.44    0.09
   1  -5  -9    5.18    0.21
  -1   5   9    5.18    0.22
  -1   5   9    5.47    0.23
  -1   5   9    5.25    0.19
   0  -5  -9   33.42    0.60
   0   5   9   33.47    0.64
   0   5   9   33.19    0.61
   0   5   9   34.44    0.59
  -1  -5  -9   52.21    0.84
   1   5   9   51.30    0.83
   1   5   9   51.73    0.83
   1   5   9   51.78    0.88
  -2  -5  -9   23.85    0.50
   2   5   9   23.28    0.53
   2   5   9   23.92    0.49
   2   5   9   23.17    0.47
  -3  -5  -9    1.35    0.14
   3   5   9    1.25    0.12
   3   5   9    1.21    0.13
   3   5   9    1.19    0.15
  -4  -5  -9   17.82    0.44
   4   5   9   17.71    0.38
   4   5   9   17.32    0.49
   4   5   9   18.30    0.43
  -5  -5  -9    2.95    0.20
   5   5   9    2.85    0.25
   5   5   9    2.97    0.20
  -6  -5  -9    1.51    0.16
   6   5   9    1.24    0.16
   6   5   9    1.11    0.19
   7   5   9    0.26    0.11
  -5   6   9    0.08    0.10
  -5   6   9    0.18    0.10
   4  -6  -9   -0.02    0.06
  -4   6   9    0.00    0.07
  -4   6   9    0.04    0.08
   3  -6  -9    2.69    0.16
  -3   6   9    2.59    0.19
  -3   6   9    2.53    0.20
   2  -6  -9    1.92    0.15
  -2   6   9    2.09    0.17
  -2   6   9    2.15    0.17
   1  -6  -9    0.24    0.09
  -1   6   9    0.28    0.09
  -1   6   9    0.17    0.08
   0  -6  -9   55.23    0.89
   0   6   9   55.21    0.87
   0   6   9   55.22    0.90
   0   6   9   54.82    0.94
  -1  -6  -9  149.59    2.03
   1   6   9  150.65    2.03
   1   6   9  148.53    2.02
   1   6   9  149.79    2.09
  -2  -6  -9    2.43    0.18
   2   6   9    2.21    0.19
   2   6   9    2.28    0.16
   2   6   9    2.51    0.17
  -3  -6  -9    2.17    0.18
   3   6   9    2.25    0.20
   3   6   9    2.21    0.16
   3   6   9    2.31    0.17
  -4  -6  -9    2.59    0.19
   4   6   9    2.65    0.19
   4   6   9    2.62    0.17
   4   6   9    2.53    0.22
  -5  -6  -9    1.05    0.15
   5   6   9    1.03    0.14
   5   6   9    1.01    0.17
  -6  -6  -9    0.25    0.10
   6   6   9    0.07    0.12
   6   6   9    0.05    0.09
   7   6   9    2.99    0.24
   7   6   9    1.80    0.24
  -5   7   9    1.78    0.18
  -5   7   9    2.54    0.25
   4  -7  -9    4.45    0.20
  -4   7   9    4.55    0.28
  -4   7   9    4.68    0.25
   3  -7  -9    7.95    0.26
  -3   7   9    7.79    0.30
  -3   7   9    8.07    0.33
   2  -7  -9    0.08    0.08
  -2   7   9    0.11    0.08
  -2   7   9    0.03    0.07
   1  -7  -9    5.60    0.24
  -1   7   9    5.54    0.26
  -1   7   9    5.64    0.25
   0  -7  -9   46.08    0.79
   0   7   9   45.22    0.80
   0   7   9   44.09    0.83
   0   7   9   44.88    0.77
  -1  -7  -9    4.71    0.23
   1   7   9    4.73    0.23
   1   7   9    4.58    0.24
   1   7   9    4.53    0.21
  -2  -7  -9    1.23    0.14
   2   7   9    1.26    0.14
   2   7   9    0.99    0.12
   2   7   9    1.09    0.14
  -3  -7  -9    3.40    0.21
   3   7   9    3.22    0.19
   3   7   9    3.41    0.23
   3   7   9    3.50    0.21
  -4  -7  -9    1.97    0.18
   4   7   9    2.41    0.19
   4   7   9    2.29    0.17
   4   7   9    2.40    0.22
  -5  -7  -9    2.08    0.19
   5   7   9    1.75    0.20
   5   7   9    1.90    0.19
  -6  -7  -9    0.81    0.16
   6   7   9    0.95    0.18
   6   7   9    1.21    0.17
   4  -8  -9   -0.02    0.09
  -4   8   9    0.16    0.12
  -4   8   9   -0.04    0.08
   3  -8  -9    4.32    0.22
  -3   8   9    4.09    0.24
  -3   8   9    4.06    0.27
   2  -8  -9    0.13    0.09
  -2   8   9    0.00    0.08
  -2   8   9    0.03    0.09
   1  -8  -9    0.01    0.08
  -1   8   9    0.04    0.08
  -1   8   9    0.08    0.08
   0  -8  -9    0.51    0.11
   0   8   9    0.50    0.11
   0   8   9    0.49    0.11
   0   8   9    0.55    0.11
  -1  -8  -9    1.53    0.17
   1   8   9    1.28    0.15
   1   8   9    1.46    0.16
   1   8   9    1.45    0.17
  -2  -8  -9    3.09    0.21
   2   8   9    2.36    0.19
   2   8   9    2.73    0.21
   2   8   9    2.56    0.19
  -3  -8  -9   -0.06    0.08
   3   8   9    0.14    0.07
   3   8   9    0.14    0.10
   3   8   9    0.13    0.08
   3   8   9    0.12    0.09
  -4  -8  -9    0.28    0.11
   4   8   9    0.34    0.09
   4   8   9    0.34    0.11
   4   8   9    0.29    0.12
  -5  -8  -9   -0.07    0.09
   5   8   9    0.01    0.11
   5   8   9   -0.04    0.08
   6   8   9   22.90    0.63
   6   8   9   24.09    0.60
   3  -9  -9    0.12    0.10
  -3   9   9    0.22    0.11
  -3   9   9    0.23    0.12
   2  -9  -9    0.21    0.11
  -2   9   9    0.30    0.12
  -2   9   9    0.35    0.11
   1  -9  -9   -0.01    0.10
  -1   9   9    0.03    0.09
  -1   9   9    0.10    0.09
   0  -9  -9   -0.01    0.09
   0   9   9   -0.05    0.08
   0   9   9    0.01    0.09
   0   9   9    0.14    0.09
  -1  -9  -9   -0.12    0.08
   1   9   9    0.01    0.09
   1   9   9   -0.06    0.07
   1   9   9    0.00    0.08
  -2  -9  -9    0.20    0.11
   2   9   9    0.08    0.09
   2   9   9    0.27    0.10
   2   9   9    0.20    0.10
  -3  -9  -9    4.48    0.26
   3   9   9    4.55    0.26
   3   9   9    4.53    0.24
   3   9   9    4.60    0.27
  -4  -9  -9    1.25    0.17
   4   9   9    1.42    0.15
   4   9   9    1.28    0.18
   4   9   9    1.13    0.16
   4   9   9    1.46    0.16
  -5  -9  -9    1.86    0.21
   5   9   9    2.07    0.18
   5   9   9    1.59    0.20
   5   9   9    2.11    0.22
   1 -10  -9    2.18    0.20
  -1  10   9    2.55    0.25
  -1  10   9    2.15    0.21
   0 -10  -9    5.69    0.30
   0  10   9    5.71    0.30
   0  10   9    6.43    0.32
  -1 -10  -9    0.06    0.11
   1  10   9    0.13    0.10
   1  10   9    0.14    0.10
   1  10   9    0.28    0.12
  -2 -10  -9    0.13    0.11
   2  10   9    0.29    0.10
   2  10   9    0.18    0.10
   2  10   9    0.26    0.11
  -3 -10  -9    2.01    0.21
   3  10   9    2.09    0.22
   3  10   9    2.73    0.22
   3  10   9    2.02    0.20
   3   6 -10    0.20    0.13
   3   6 -10    0.02    0.10
  -3  -6  10    0.09    0.12
   2   6 -10    4.81    0.27
   2   6 -10    4.55    0.28
  -2  -6  10    4.38    0.29
   1   6 -10    1.66    0.18
   1   6 -10    1.38    0.18
   0   6 -10    5.85    0.29
   0   6 -10    5.98    0.31
   0  -6  10    6.25    0.30
  -1   6 -10    2.98    0.24
  -1   6 -10    3.61    0.28
   1  -6  10    3.13    0.25
  -2   6 -10   14.05    0.46
  -2   6 -10   13.92    0.44
   2  -6  10   14.01    0.45
   4   5 -10    1.90    0.19
   4   5 -10    2.23    0.18
  -4  -5  10    2.16    0.23
   3   5 -10   -0.07    0.09
   3   5 -10    0.23    0.11
  -3  -5  10    0.11    0.11
   2   5 -10    0.66    0.13
   2   5 -10    0.67    0.14
  -2  -5  10    1.06    0.16
   1   5 -10    4.78    0.25
   1   5 -10    4.63    0.26
  -1  -5  10    4.15    0.25
   0   5 -10    0.39    0.11
   0   5 -10    0.24    0.12
   0  -5  10    0.24    0.10
  -1   5 -10    2.25    0.20
  -1   5 -10    1.94    0.20
   1  -5  10    2.04    0.19
  -2   5 -10    3.44    0.23
  -2   5 -10    3.96    0.27
   2  -5  10    3.21    0.24
  -3   5 -10    2.32    0.21
  -3   5 -10    2.69    0.24
   3  -5  10    2.45    0.23
  -4   5 -10    1.41    0.18
  -4   5 -10    1.86    0.22
   4  -5  10    1.65    0.20
   5   4 -10    1.04    0.14
  -5  -4  10    0.56    0.15
   4   4 -10    2.66    0.19
   4   4 -10    2.69    0.20
  -4  -4  10    2.74    0.24
   3   4 -10    0.92    0.13
   3   4 -10    1.05    0.14
  -3  -4  10    1.09    0.16
   2   4 -10   -0.03    0.09
   2   4 -10   -0.02    0.08
  -2  -4  10   -0.09    0.08
   1   4 -10    0.22    0.09
   1   4 -10    0.33    0.11
  -1  -4  10    0.18    0.09
   0   4 -10   -0.01    0.08
   0   4 -10    0.29    0.12
   0  -4  10    0.14    0.09
  -1   4 -10    0.29    0.12
  -1   4 -10    0.46    0.11
   1  -4  10    0.51    0.12
  -2   4 -10   13.31    0.41
  -2   4 -10   13.27    0.39
   2  -4  10   13.04    0.40
  -3   4 -10    2.91    0.21
  -3   4 -10    3.09    0.24
   3  -4  10    2.56    0.22
  -4   4 -10    2.20    0.22
  -4   4 -10    1.87    0.19
   4  -4  10    1.68    0.19
   5  -4  10    0.10    0.11
  -6  -3  10    0.05    0.10
   5   3 -10    5.20    0.24
  -5  -3  10    4.98    0.29
   4   3 -10    0.11    0.08
   4   3 -10    0.18    0.09
  -4  -3  10    0.03    0.09
   3   3 -10    0.07    0.08
   3   3 -10    0.12    0.09
  -3  -3  10    0.01    0.08
   2   3 -10    0.25    0.10
   2   3 -10    0.26    0.09
  -2  -3  10    0.26    0.10
   1   3 -10    0.75    0.12
   1   3 -10    0.80    0.13
  -1  -3  10    0.76    0.11
   0   3 -10    4.85    0.24
   0   3 -10    4.63    0.22
   0  -3  10    4.42    0.20
   0  -3  10    4.71    0.22
  -1   3 -10   11.09    0.33
  -1   3 -10   11.55    0.35
   1  -3  10   11.45    0.34
  -2   3 -10    0.00    0.08
  -2   3 -10    0.01    0.10
   2  -3  10    0.02    0.08
  -3   3 -10    1.58    0.16
  -3   3 -10    1.56    0.18
   3  -3  10    2.23    0.20
  -4   3 -10    1.20    0.15
  -4   3 -10    1.50    0.18
   4  -3  10    1.32    0.17
  -5   3 -10   13.45    0.43
  -5   3 -10   13.20    0.42
   5  -3  10   13.18    0.42
  -6  -2  10    2.97    0.24
  -5  -2  10    0.43    0.12
   4   2 -10   15.06    0.33
   4   2 -10   15.32    0.36
  -4  -2  10   14.95    0.42
  -4  -2  10   14.31    0.43
   3   2 -10    0.55    0.10
   3   2 -10    0.33    0.09
  -3  -2  10    0.42    0.10
  -3  -2  10    0.45    0.12
   2   2 -10    2.45    0.17
   2   2 -10    2.66    0.16
  -2  -2  10    2.45    0.18
  -2  -2  10    2.97    0.22
   1   2 -10    8.94    0.27
   1   2 -10    8.49    0.28
  -1  -2  10    9.02    0.32
  -1  -2  10    8.71    0.28
  -1  -2  10    8.91    0.32
   0   2 -10   14.82    0.36
   0   2 -10   15.24    0.39
   0  -2  10   14.41    0.40
   0  -2  10   14.57    0.36
   0  -2  10   14.56    0.34
  -1   2 -10    7.88    0.29
  -1   2 -10    8.47    0.27
   1  -2  10    8.22    0.27
  -2   2 -10    3.01    0.18
  -2   2 -10    3.38    0.22
   2  -2  10    3.33    0.20
  -3   2 -10    0.87    0.14
  -3   2 -10    1.02    0.13
   3  -2  10    0.97    0.13
  -4   2 -10    8.22    0.32
  -4   2 -10    8.58    0.31
   4  -2  10    8.85    0.32
  -5   2 -10    1.61    0.18
  -5   2 -10    1.41    0.17
   5  -2  10    1.46    0.16
  -6   2 -10    0.03    0.09
  -6   2 -10   -0.11    0.09
   6  -2  10    0.15    0.10
  -6  -1  10    0.38    0.12
  -6  -1  10    0.38    0.12
  -5  -1  10   12.58    0.38
  -5  -1  10   13.09    0.42
   4   1 -10    0.10    0.06
  -4  -1  10    0.07    0.09
  -4  -1  10    0.16    0.09
   3   1 -10    1.40    0.12
   3   1 -10    1.82    0.14
  -3  -1  10    1.43    0.15
  -3  -1  10    1.25    0.15
   2   1 -10    1.99    0.14
   2   1 -10    2.04    0.16
  -2  -1  10    2.15    0.17
  -2  -1  10    1.66    0.16
   1   1 -10   11.48    0.29
   1   1 -10   11.75    0.32
  -1  -1  10   11.40    0.31
  -1  -1  10   12.14    0.35
  -1  -1  10   11.59    0.29
   0   1 -10    0.34    0.10
   0   1 -10    0.53    0.09
   0  -1  10    0.44    0.08
   0  -1  10    0.38    0.08
   0  -1  10    0.48    0.11
   0  -1  10    0.66    0.10
  -1   1 -10    0.66    0.11
  -1   1 -10    0.44    0.09
   1  -1  10    0.54    0.10
   1  -1  10    0.44    0.11
  -2   1 -10    6.37    0.26
  -2   1 -10    6.08    0.23
   2  -1  10    6.12    0.26
   2  -1  10    6.05    0.24
  -3   1 -10   -0.05    0.08
  -3   1 -10    0.00    0.07
   3  -1  10    0.07    0.08
  -4   1 -10    0.06    0.09
  -4   1 -10   -0.06    0.07
   4  -1  10    0.03    0.08
  -5   1 -10    8.19    0.35
  -5   1 -10    9.92    0.34
  -5   1 -10    9.62    0.34
   5  -1  10    9.34    0.33
  -6   1 -10    3.13    0.23
   6  -1  10    2.48    0.21
  -6   0  10    0.27    0.11
  -6   0  10    0.37    0.11
  -5   0  10    2.85    0.21
  -5   0  10    2.96    0.21
  -4   0  10    4.61    0.24
  -4   0  10    4.71    0.24
   3   0 -10    2.36    0.14
  -3   0  10    2.18    0.18
  -3   0  10    2.14    0.17
   2   0 -10   15.45    0.32
   2   0 -10   15.88    0.35
  -2   0  10   15.57    0.38
  -2   0  10   16.17    0.40
  -2   0  10   15.94    0.33
   1   0 -10    7.12    0.21
   1   0 -10    6.61    0.23
  -1   0  10    6.71    0.23
  -1   0  10    7.34    0.22
  -1   0  10    6.49    0.25
  -1   0  10    6.85    0.21
   0   0 -10   -0.03    0.05
   0   0 -10   -0.01    0.07
   0   0  10    0.02    0.05
   0   0  10    0.07    0.05
   0   0  10    0.05    0.07
   0   0  10    0.03    0.06
  -1   0 -10    4.98    0.22
  -1   0 -10    5.15    0.19
   1   0  10    4.76    0.23
   1   0  10    5.04    0.17
   1   0  10    5.16    0.22
   1   0  10    5.02    0.20
  -2   0 -10    8.59    0.26
  -2   0 -10    8.34    0.28
   2   0  10    8.11    0.26
   2   0  10    8.38    0.27
  -3   0 -10    0.00    0.06
  -3   0 -10    0.02    0.08
   3   0  10    0.04    0.07
   3   0  10    0.02    0.07
  -4   0 -10    0.72    0.12
  -4   0 -10    0.71    0.11
   4   0  10    0.61    0.11
  -5   0 -10    7.09    0.29
  -5   0 -10    6.73    0.28
   5   0  10    6.65    0.28
  -6   0 -10    0.94    0.15
   6   0  10    1.05    0.15
  -7   0 -10    2.83    0.24
   7   0  10    2.98    0.22
  -6   1  10    1.01    0.15
  -6   1  10    1.06    0.15
  -6   1  10    0.61    0.15
  -5   1  10    7.25    0.28
  -5   1  10    6.91    0.29
  -4   1  10    1.88    0.17
  -4   1  10    1.68    0.16
   3  -1 -10    4.25    0.16
  -3   1  10    4.28    0.21
  -3   1  10    4.20    0.18
  -3   1  10    4.31    0.21
   2  -1 -10    4.06    0.18
  -2   1  10    4.30    0.17
  -2   1  10    4.08    0.20
  -2   1  10    4.31    0.21
   1  -1 -10   26.56    0.50
   1  -1 -10   27.27    0.46
  -1   1  10   27.85    0.49
  -1   1  10   27.12    0.52
  -1   1  10   27.40    0.53
  -1   1  10   27.56    0.51
   0  -1 -10    2.25    0.13
   0  -1 -10    1.97    0.15
   0   1  10    2.12    0.15
   0   1  10    1.83    0.16
   0   1  10    1.89    0.13
   0   1  10    1.82    0.13
  -1  -1 -10   53.35    0.86
  -1  -1 -10   53.38    0.81
   1   1  10   54.48    0.84
   1   1  10   56.17    0.90
   1   1  10   53.92    0.85
  -2  -1 -10    0.08    0.06
  -2  -1 -10    0.00    0.07
   2   1  10    0.09    0.07
   2   1  10   -0.01    0.07
  -3  -1 -10    1.47    0.14
  -3  -1 -10    1.26    0.13
   3   1  10    1.14    0.12
   3   1  10    1.19    0.13
  -4  -1 -10    1.38    0.14
  -4  -1 -10    1.58    0.15
   4   1  10    1.54    0.15
   4   1  10    1.33    0.13
  -5  -1 -10   69.55    1.11
   5   1  10   67.65    1.09
  -6  -1 -10    1.87    0.18
  -6  -1 -10    1.99    0.18
   6   1  10    2.18    0.19
  -7  -1 -10    0.29    0.11
   7   1  10    0.43    0.12
  -6   2  10   12.75    0.39
  -6   2  10   13.21    0.43
  -6   2  10   12.86    0.38
  -6   2  10   13.16    0.49
  -5   2  10   -0.01    0.08
  -5   2  10    0.18    0.08
  -5   2  10    0.05    0.09
  -5   2  10    0.09    0.10
  -4   2  10   14.14    0.37
  -4   2  10   12.75    0.41
  -4   2  10   13.42    0.39
  -4   2  10   14.45    0.35
   3  -2 -10    0.19    0.07
  -3   2  10    0.29    0.08
  -3   2  10    0.19    0.08
  -3   2  10    0.35    0.09
   2  -2 -10   42.20    0.67
  -2   2  10   43.05    0.75
  -2   2  10   42.07    0.72
  -2   2  10   43.06    0.71
   1  -2 -10    1.44    0.10
   1  -2 -10    1.21    0.12
  -1   2  10    1.46    0.13
  -1   2  10    1.22    0.12
  -1   2  10    1.49    0.16
  -1   2  10    1.25    0.13
   0  -2 -10   15.43    0.37
   0  -2 -10   15.27    0.31
   0   2  10   16.54    0.37
   0   2  10   16.13    0.35
   0   2  10   15.93    0.38
  -1  -2 -10    0.08    0.06
  -1  -2 -10   -0.07    0.07
   1   2  10   -0.03    0.06
   1   2  10    0.11    0.07
   1   2  10   -0.05    0.07
  -2  -2 -10   10.82    0.32
  -2  -2 -10   10.47    0.28
   2   2  10   10.57    0.30
   2   2  10   10.90    0.29
   2   2  10   11.29    0.35
  -3  -2 -10    9.71    0.31
  -3  -2 -10    9.88    0.29
   3   2  10    9.25    0.29
   3   2  10   10.21    0.28
  -4  -2 -10   32.74    0.64
   4   2  10   33.26    0.58
   4   2  10   33.01    0.63
  -5  -2 -10    0.01    0.08
   5   2  10   -0.02    0.08
  -6  -2 -10    0.43    0.11
  -6  -2 -10    0.51    0.11
   6   2  10    0.55    0.11
   7   2  10   -0.04    0.08
  -6   3  10   -0.04    0.08
  -6   3  10    0.15    0.09
  -6   3  10   -0.13    0.09
  -6   3  10    0.14    0.11
  -6   3  10   -0.03    0.10
  -5   3  10    4.93    0.30
  -5   3  10    5.06    0.27
  -5   3  10    4.76    0.24
  -5   3  10    5.44    0.24
  -5   3  10    5.63    0.25
  -4   3  10    1.34    0.16
  -4   3  10    1.70    0.16
  -4   3  10    1.32    0.15
  -4   3  10    1.80    0.17
   3  -3 -10    2.48    0.14
  -3   3  10    2.91    0.18
  -3   3  10    2.59    0.18
  -3   3  10    2.53    0.18
  -3   3  10    2.53    0.17
   2  -3 -10    2.79    0.15
  -2   3  10    3.03    0.18
  -2   3  10    2.64    0.17
  -2   3  10    2.60    0.17
   1  -3 -10    2.37    0.15
  -1   3  10    2.32    0.16
  -1   3  10    2.70    0.17
   0  -3 -10    1.30    0.10
   0  -3 -10    1.22    0.12
   0   3  10    1.11    0.12
   0   3  10    1.32    0.14
   0   3  10    1.53    0.12
  -1  -3 -10   10.44    0.30
   1   3  10   11.08    0.33
   1   3  10   10.64    0.29
   1   3  10   10.68    0.29
  -2  -3 -10   -0.14    0.06
   2   3  10    0.03    0.06
   2   3  10    0.11    0.09
   2   3  10   -0.03    0.06
  -3  -3 -10    0.03    0.07
   3   3  10    0.10    0.10
   3   3  10    0.28    0.09
   3   3  10   -0.01    0.06
  -4  -3 -10    0.46    0.10
   4   3  10    0.27    0.09
   4   3  10    0.35    0.08
  -5  -3 -10    0.17    0.09
   5   3  10    0.17    0.09
  -6  -3 -10    3.66    0.22
   6   3  10    3.34    0.22
   7   3  10   15.15    0.44
  -6   4  10    2.59    0.26
  -6   4  10    2.82    0.21
  -6   4  10    3.36    0.24
  -5   4  10    5.06    0.26
  -5   4  10    4.39    0.23
  -5   4  10    4.33    0.28
  -5   4  10    4.60    0.23
  -4   4  10    0.01    0.07
  -4   4  10    0.02    0.07
  -4   4  10   -0.09    0.07
   3  -4 -10    0.43    0.08
  -3   4  10    0.26    0.09
  -3   4  10    0.34    0.09
   2  -4 -10    0.04    0.07
  -2   4  10   -0.04    0.06
  -2   4  10   -0.02    0.06
   1  -4 -10   11.81    0.31
  -1   4  10   12.01    0.34
  -1   4  10   11.87    0.33
   0  -4 -10    1.84    0.15
   0   4  10    2.08    0.16
   0   4  10    1.76    0.15
   0   4  10    2.09    0.14
  -1  -4 -10    3.58    0.19
   1   4  10    3.68    0.18
   1   4  10    3.96    0.21
   1   4  10    3.70    0.19
  -2  -4 -10    0.42    0.09
   2   4  10    0.45    0.09
   2   4  10    0.45    0.09
   2   4  10    0.40    0.11
  -3  -4 -10    0.67    0.11
   3   4  10    0.90    0.11
   3   4  10    0.72    0.13
   3   4  10    0.74    0.11
  -4  -4 -10    7.48    0.29
   4   4  10    7.59    0.28
   4   4  10    7.27    0.24
   4   4  10    7.76    0.34
  -5  -4 -10    0.73    0.13
   5   4  10    0.93    0.14
   5   4  10    0.59    0.16
  -6  -4 -10    0.40    0.11
   6   4  10    0.27    0.10
   7   4  10    1.97    0.19
  -5   5  10   13.14    0.39
  -5   5  10   13.21    0.42
  -4   5  10    0.03    0.08
  -4   5  10   -0.04    0.07
   3  -5 -10    1.00    0.11
  -3   5  10    0.75    0.12
  -3   5  10    0.89    0.14
   2  -5 -10   10.80    0.29
  -2   5  10   10.93    0.34
  -2   5  10   10.63    0.33
   1  -5 -10    0.34    0.09
  -1   5  10    0.47    0.09
  -1   5  10    0.47    0.10
   0  -5 -10    0.29    0.09
   0   5  10    0.33    0.09
   0   5  10    0.20    0.08
   0   5  10    0.47    0.09
  -1  -5 -10    6.90    0.26
   1   5  10    7.08    0.28
   1   5  10    7.31    0.25
   1   5  10    7.05    0.25
  -2  -5 -10    2.16    0.18
   2   5  10    2.10    0.19
   2   5  10    2.24    0.16
   2   5  10    2.13    0.16
  -3  -5 -10   11.06    0.34
   3   5  10   11.34    0.33
   3   5  10   11.30    0.31
   3   5  10   10.75    0.38
  -4  -5 -10    1.90    0.17
   4   5  10    1.45    0.15
   4   5  10    1.64    0.19
   4   5  10    1.68    0.15
  -5  -5 -10    0.23    0.10
   5   5  10    0.03    0.08
   5   5  10    0.10    0.12
  -6  -5 -10    8.80    0.33
   6   5  10    8.03    0.32
   6   5  10    7.63    0.39
   7   5  10    1.30    0.23
   7   5  10    1.64    0.19
  -5   6  10    0.71    0.13
  -5   6  10    0.65    0.15
   4  -6 -10    0.37    0.09
  -4   6  10    0.11    0.09
  -4   6  10    0.33    0.11
   3  -6 -10    1.92    0.15
  -3   6  10    1.46    0.15
  -3   6  10    2.14    0.19
   2  -6 -10    5.41    0.23
  -2   6  10    5.86    0.27
  -2   6  10    5.77    0.25
   1  -6 -10    0.71    0.11
  -1   6  10    0.59    0.12
  -1   6  10    0.62    0.11
   0  -6 -10    5.49    0.24
   0   6  10    5.65    0.24
   0   6  10    5.43    0.22
   0   6  10    5.09    0.25
  -1  -6 -10   27.81    0.57
   1   6  10   26.86    0.60
   1   6  10   27.53    0.56
   1   6  10   26.90    0.55
  -2  -6 -10    1.69    0.17
   2   6  10    1.92    0.20
   2   6  10    1.44    0.14
   2   6  10    1.64    0.16
  -3  -6 -10    0.14    0.09
   3   6  10    0.13    0.10
   3   6  10    0.02    0.07
   3   6  10    0.08    0.08
  -4  -6 -10    7.30    0.29
   4   6  10    6.79    0.33
   4   6  10    6.93    0.28
   4   6  10    6.51    0.24
  -5  -6 -10    4.13    0.24
   5   6  10    3.63    0.28
   5   6  10    3.69    0.23
  -6  -6 -10    0.45    0.13
   6   6  10    0.54    0.12
   6   6  10    0.32    0.15
   4  -7 -10    0.26    0.09
  -4   7  10    0.48    0.13
  -4   7  10    0.55    0.13
   3  -7 -10    4.60    0.22
  -3   7  10    4.57    0.25
  -3   7  10    4.42    0.26
   2  -7 -10    0.27    0.10
  -2   7  10    0.23    0.09
  -2   7  10    0.35    0.11
   1  -7 -10    2.11    0.18
  -1   7  10    2.29    0.19
  -1   7  10    2.36    0.20
   0  -7 -10    1.39    0.16
   0   7  10    1.45    0.15
   0   7  10    1.31    0.16
   0   7  10    1.61    0.15
  -1  -7 -10   -0.01    0.09
   1   7  10    0.01    0.07
   1   7  10    0.08    0.08
   1   7  10    0.05    0.08
  -2  -7 -10    0.94    0.14
   2   7  10    0.93    0.12
   2   7  10    0.75    0.12
   2   7  10    0.89    0.14
  -3  -7 -10    1.09    0.15
   3   7  10    1.39    0.15
   3   7  10    1.37    0.14
   3   7  10    1.25    0.17
  -4  -7 -10    0.30    0.11
   4   7  10    0.24    0.10
   4   7  10    0.29    0.12
   4   7  10    0.26    0.09
  -5  -7 -10    0.11    0.10
   5   7  10   -0.09    0.08
   5   7  10    0.02    0.11
  -6  -7 -10    0.24    0.12
   6   7  10    0.15    0.11
   6   7  10   -0.03    0.12
   3  -8 -10    1.63    0.16
  -3   8  10    1.20    0.17
  -3   8  10    1.64    0.20
   2  -8 -10    0.06    0.09
  -2   8  10   -0.03    0.08
  -2   8  10    0.14    0.10
   1  -8 -10    6.87    0.29
  -1   8  10    7.43    0.32
  -1   8  10    7.32    0.30
   0  -8 -10    1.85    0.18
   0   8  10    1.57    0.16
   0   8  10    1.81    0.19
  -1  -8 -10    1.87    0.18
   1   8  10    1.52    0.16
   1   8  10    1.85    0.19
   1   8  10    2.06    0.18
  -2  -8 -10    6.21    0.28
   2   8  10    5.73    0.26
   2   8  10    6.27    0.27
   2   8  10    6.40    0.30
  -3  -8 -10    0.65    0.13
   3   8  10    0.87    0.15
   3   8  10    0.59    0.11
   3   8  10    0.62    0.12
  -4  -8 -10    3.96    0.26
   4   8  10    3.44    0.22
   4   8  10    3.15    0.25
   4   8  10    3.59    0.25
  -5  -8 -10    3.89    0.26
   5   8  10    3.82    0.29
   5   8  10    4.19    0.26
   2  -9 -10    1.00    0.15
  -2   9  10    0.97    0.17
  -2   9  10    0.63    0.13
   1  -9 -10    0.13    0.11
  -1   9  10    0.43    0.12
  -1   9  10    0.39    0.12
   0  -9 -10   10.36    0.36
   0   9  10   10.07    0.37
   0   9  10   10.53    0.39
  -1  -9 -10    6.67    0.30
   1   9  10    6.60    0.30
   1   9  10    6.56    0.31
   1   9  10    6.79    0.29
  -2  -9 -10    3.55    0.25
   2   9  10    3.82    0.26
   2   9  10    3.92    0.24
   2   9  10    3.53    0.23
  -3  -9 -10    1.56    0.18
   3   9  10    1.49    0.16
   3   9  10    1.35    0.18
   3   9  10    1.46    0.17
  -4  -9 -10    1.29    0.18
   4   9  10    1.28    0.19
   4   9  10    1.14    0.15
   4   9  10    1.18    0.18
   0 -10 -10    0.28    0.13
   0  10  10    0.19    0.12
   0  10  10    0.15    0.11
  -1 -10 -10   11.55    0.41
   1  10  10   12.55    0.41
   1  10  10   12.21    0.44
   1  10  10   11.97    0.41
  -2 -10 -10    1.06    0.17
   2  10  10    1.00    0.15
   2  10  10    0.95    0.17
   2  10  10    0.92    0.16
   1   6 -11    2.86    0.24
   1   6 -11    2.44    0.24
   0   6 -11    0.02    0.11
   0   6 -11   -0.03    0.13
   3   5 -11    0.17    0.11
   3   5 -11    0.31    0.13
  -3  -5  11    0.31    0.13
   2   5 -11   -0.08    0.09
   2   5 -11    0.03    0.12
  -2  -5  11   -0.09    0.09
   1   5 -11   -0.20    0.09
   1   5 -11    0.05    0.12
   0   5 -11    0.75    0.14
   0   5 -11    0.76    0.16
   0  -5  11    1.07    0.16
  -1   5 -11    2.56    0.23
  -1   5 -11    2.39    0.21
   1  -5  11    2.40    0.21
  -2   5 -11    5.11    0.28
  -2   5 -11    5.13    0.31
   2  -5  11    4.70    0.28
   3  -5  11    0.44    0.15
   4   4 -11   -0.06    0.09
   4   4 -11    0.35    0.11
  -4  -4  11    0.00    0.11
   3   4 -11    0.04    0.11
   3   4 -11    0.04    0.10
  -3  -4  11   -0.06    0.10
   2   4 -11    0.03    0.11
   2   4 -11   -0.05    0.09
  -2  -4  11   -0.05    0.09
   1   4 -11   29.14    0.61
   1   4 -11   28.33    0.61
  -1  -4  11   29.90    0.61
   0   4 -11    2.36    0.19
   0   4 -11    2.68    0.23
   0  -4  11    2.68    0.21
  -1   4 -11    2.37    0.22
  -1   4 -11    2.54    0.20
   1  -4  11    2.72    0.22
  -2   4 -11    1.01    0.17
  -2   4 -11    1.04    0.15
   2  -4  11    1.14    0.16
  -3   4 -11   12.60    0.44
  -3   4 -11   13.09    0.41
   3  -4  11   13.11    0.42
  -4   4 -11    0.63    0.16
  -4   4 -11    0.55    0.14
   4  -4  11    0.52    0.14
  -5  -3  11    0.33    0.13
   4   3 -11    0.26    0.09
   4   3 -11    0.25    0.10
  -4  -3  11    0.21    0.10
   3   3 -11    0.22    0.10
   3   3 -11    0.11    0.09
  -3  -3  11    0.20    0.10
   2   3 -11   39.43    0.71
   2   3 -11   39.45    0.71
  -2  -3  11   38.07    0.74
   1   3 -11   10.53    0.32
   1   3 -11   10.42    0.34
  -1  -3  11   10.14    0.32
   0   3 -11    0.07    0.11
   0   3 -11    0.21    0.09
   0  -3  11    0.09    0.08
  -1   3 -11    2.54    0.22
  -1   3 -11    2.76    0.20
   1  -3  11    2.49    0.20
  -2   3 -11    7.72    0.30
  -2   3 -11    8.41    0.33
   2  -3  11    7.36    0.30
  -3   3 -11    1.10    0.17
  -3   3 -11    1.21    0.16
   3  -3  11    1.15    0.16
  -4   3 -11    2.05    0.21
  -4   3 -11    1.63    0.18
   4  -3  11    1.73    0.19
   5  -3  11    1.07    0.17
  -5  -2  11    0.24    0.11
   4   2 -11    0.46    0.09
  -4  -2  11    0.55    0.13
   3   2 -11    2.71    0.18
   3   2 -11    2.47    0.17
  -3  -2  11    2.90    0.21
  -3  -2  11    2.79    0.23
   2   2 -11   20.41    0.45
   2   2 -11   20.78    0.45
  -2  -2  11   20.84    0.49
  -2  -2  11   19.77    0.50
   1   2 -11    0.19    0.10
   1   2 -11    0.25    0.08
  -1  -2  11    0.29    0.09
  -1  -2  11    0.15    0.11
   0   2 -11   10.76    0.34
   0   2 -11   11.02    0.32
   0  -2  11   11.37    0.33
   0  -2  11   10.95    0.32
  -1   2 -11    0.97    0.14
  -1   2 -11    0.84    0.12
   1  -2  11    0.85    0.12
  -2   2 -11    0.16    0.09
  -2   2 -11    0.12    0.10
   2  -2  11   -0.02    0.08
  -3   2 -11    0.85    0.14
  -3   2 -11    1.09    0.14
   3  -2  11    1.21    0.15
  -4   2 -11    0.39    0.12
  -4   2 -11    0.26    0.11
   4  -2  11    0.07    0.09
  -5   2 -11    0.78    0.15
  -5   2 -11    0.72    0.16
   5  -2  11    0.64    0.14
  -6  -1  11   -0.14    0.11
  -6  -1  11    0.14    0.10
  -5  -1  11    4.63    0.27
  -5  -1  11    4.84    0.27
  -4  -1  11   21.20    0.51
  -4  -1  11   19.80    0.52
   3   1 -11    0.04    0.07
   3   1 -11    0.01    0.07
  -3  -1  11    0.04    0.07
  -3  -1  11    0.16    0.10
   2   1 -11    0.20    0.09
   2   1 -11    0.30    0.08
  -2  -1  11    0.06    0.10
  -2  -1  11    0.24    0.08
   1   1 -11    0.04    0.07
   1   1 -11    0.08    0.08
  -1  -1  11   -0.01    0.09
  -1  -1  11    0.06    0.06
   0   1 -11    6.45    0.23
   0   1 -11    6.84    0.26
   0  -1  11    6.54    0.25
   0  -1  11    6.61    0.22
   0  -1  11    6.84    0.24
   0  -1  11    6.15    0.27
  -1   1 -11    1.21    0.15
  -1   1 -11    1.06    0.12
   1  -1  11    1.20    0.14
   1  -1  11    0.98    0.14
   1  -1  11    0.96    0.13
  -2   1 -11    0.96    0.12
  -2   1 -11    0.89    0.13
   2  -1  11    1.08    0.15
   2  -1  11    0.89    0.12
  -3   1 -11    2.55    0.21
  -3   1 -11    2.42    0.18
   3  -1  11    2.63    0.19
  -4   1 -11   13.81    0.42
  -4   1 -11   13.82    0.40
   4  -1  11   14.46    0.41
  -5   1 -11    2.42    0.21
  -5   1 -11    2.92    0.23
   5  -1  11    2.50    0.21
  -6   1 -11    0.31    0.12
  -6   1 -11    0.34    0.14
   6  -1  11    0.35    0.12
  -6   0  11    0.98    0.16
  -6   0  11    0.69    0.14
  -5   0  11    0.01    0.10
  -5   0  11    0.19    0.09
  -4   0  11    0.91    0.13
  -4   0  11    0.65    0.13
   3   0 -11    0.06    0.06
  -3   0  11    0.11    0.08
  -3   0  11    0.08    0.09
   2   0 -11    0.25    0.09
   2   0 -11    0.46    0.08
  -2   0  11    0.45    0.09
  -2   0  11    0.22    0.09
   1   0 -11    1.58    0.13
   1   0 -11    1.75    0.15
  -1   0  11    1.77    0.15
  -1   0  11    1.75    0.13
  -1   0  11    1.32    0.14
   0   0 -11    1.47    0.14
   0   0 -11    1.53    0.13
   0   0  11    1.68    0.15
   0   0  11    1.42    0.13
   0   0  11    1.43    0.14
   0   0  11    1.61    0.14
  -1   0 -11   11.95    0.34
  -1   0 -11   12.41    0.32
   1   0  11   12.30    0.35
   1   0  11   12.02    0.32
   1   0  11   12.24    0.36
  -2   0 -11    7.69    0.26
  -2   0 -11    7.38    0.28
   2   0  11    7.74    0.27
   2   0  11    7.25    0.28
  -3   0 -11    0.63    0.12
  -3   0 -11    0.70    0.11
   3   0  11    0.52    0.11
   3   0  11    0.51    0.11
  -4   0 -11   20.18    0.48
  -4   0 -11   20.43    0.50
   4   0  11   19.34    0.48
  -5   0 -11    0.04    0.09
  -5   0 -11    0.06    0.10
   5   0  11   -0.04    0.08
  -6   0 -11    0.00    0.09
   6   0  11    0.12    0.10
  -6   1  11    5.02    0.28
  -6   1  11    5.18    0.29
  -5   1  11   -0.17    0.09
  -5   1  11   -0.01    0.08
  -4   1  11    6.38    0.28
  -4   1  11    6.35    0.28
   3  -1 -11    2.73    0.15
  -3   1  11    2.67    0.20
  -3   1  11    2.87    0.19
   2  -1 -11   24.86    0.48
  -2   1  11   26.09    0.54
  -2   1  11   25.88    0.49
  -2   1  11   25.57    0.54
   1  -1 -11    5.81    0.19
   1  -1 -11    5.80    0.23
  -1   1  11    6.31    0.24
  -1   1  11    5.94    0.25
  -1   1  11    6.06    0.22
   0  -1 -11    2.11    0.13
   0  -1 -11    1.93    0.16
   0   1  11    1.73    0.15
   0   1  11    2.02    0.14
   0   1  11    1.91    0.14
   0   1  11    2.04    0.17
  -1  -1 -11   12.77    0.36
  -1  -1 -11   13.33    0.32
   1   1  11   13.75    0.38
   1   1  11   13.46    0.36
   1   1  11   12.93    0.33
  -2  -1 -11   14.88    0.36
  -2  -1 -11   15.65    0.40
   2   1  11   15.65    0.44
   2   1  11   15.33    0.38
   2   1  11   16.04    0.38
  -3  -1 -11   16.93    0.41
  -3  -1 -11   17.98    0.44
   3   1  11   17.27    0.42
   3   1  11   17.13    0.41
  -4  -1 -11    2.45    0.20
  -4  -1 -11    2.29    0.18
   4   1  11    2.56    0.19
  -5  -1 -11    0.65    0.13
   5   1  11    0.47    0.11
  -6  -1 -11    2.69    0.22
  -6  -1 -11    2.32    0.21
   6   1  11    3.01    0.22
  -6   2  11    0.68    0.14
  -6   2  11    0.88    0.19
  -6   2  11    0.70    0.14
  -5   2  11   30.14    0.68
  -5   2  11   30.26    0.63
  -4   2  11    1.93    0.18
  -4   2  11    1.72    0.17
   3  -2 -11    2.86    0.15
  -3   2  11    2.76    0.19
  -3   2  11    2.83    0.17
  -3   2  11    2.58    0.19
   2  -2 -11    0.42    0.09
  -2   2  11    0.67    0.10
  -2   2  11    0.65    0.11
  -2   2  11    0.48    0.11
   1  -2 -11    1.12    0.12
  -1   2  11    1.27    0.13
  -1   2  11    1.30    0.14
  -1   2  11    0.93    0.12
   0  -2 -11    1.17    0.10
   0  -2 -11    1.34    0.14
   0   2  11    1.16    0.12
   0   2  11    1.15    0.13
   0   2  11    0.97    0.13
  -1  -2 -11    8.27    0.24
  -1  -2 -11    8.16    0.28
   1   2  11    8.19    0.27
   1   2  11    8.14    0.26
   1   2  11    8.09    0.30
  -2  -2 -11    7.41    0.28
  -2  -2 -11    7.40    0.24
   2   2  11    7.63    0.26
   2   2  11    7.07    0.26
   2   2  11    7.08    0.30
  -3  -2 -11    3.14    0.21
  -3  -2 -11    3.26    0.18
   3   2  11    3.15    0.19
   3   2  11    3.44    0.25
   3   2  11    2.87    0.18
  -4  -2 -11    3.19    0.22
   4   2  11    2.85    0.20
  -5  -2 -11    6.78    0.30
   5   2  11    5.83    0.27
  -6  -2 -11    3.76    0.24
   6   2  11    3.58    0.23
  -6   3  11   10.92    0.42
  -6   3  11    9.93    0.38
  -6   3  11    9.68    0.43
  -6   3  11   10.38    0.37
  -5   3  11    0.13    0.09
  -5   3  11    0.12    0.09
  -5   3  11    0.07    0.11
  -5   3  11    0.02    0.09
  -4   3  11    9.23    0.35
  -4   3  11    9.82    0.32
  -4   3  11    9.54    0.32
   3  -3 -11    8.19    0.23
  -3   3  11    7.94    0.31
  -3   3  11    8.06    0.29
  -3   3  11    8.19    0.28
   2  -3 -11    0.71    0.10
  -2   3  11    0.75    0.11
  -2   3  11    1.03    0.13
  -2   3  11    0.85    0.12
   1  -3 -11    3.81    0.19
  -1   3  11    4.01    0.21
  -1   3  11    4.32    0.21
   0  -3 -11    0.77    0.11
   0   3  11    0.93    0.11
   0   3  11    0.73    0.11
   0   3  11    0.88    0.13
  -1  -3 -11    0.01    0.07
  -1  -3 -11   -0.02    0.06
   1   3  11   -0.02    0.06
   1   3  11    0.02    0.06
   1   3  11   -0.03    0.07
  -2  -3 -11    1.49    0.15
   2   3  11    1.53    0.14
   2   3  11    1.61    0.18
   2   3  11    1.41    0.14
  -3  -3 -11    5.84    0.26
   3   3  11    6.23    0.25
   3   3  11    6.10    0.23
   3   3  11    6.35    0.31
  -4  -3 -11    3.44    0.22
   4   3  11    3.42    0.19
   4   3  11    3.66    0.28
   4   3  11    3.86    0.22
  -5  -3 -11   -0.01    0.08
   5   3  11   -0.05    0.07
  -6  -3 -11    6.45    0.30
   6   3  11    6.22    0.29
  -5   4  11    6.47    0.29
  -5   4  11    5.30    0.27
  -4   4  11    1.16    0.15
  -4   4  11    1.45    0.16
   3  -4 -11    1.71    0.14
  -3   4  11    1.66    0.16
  -3   4  11    1.40    0.15
   2  -4 -11    2.49    0.16
  -2   4  11    2.20    0.17
  -2   4  11    2.09    0.18
   1  -4 -11    2.78    0.18
  -1   4  11    2.82    0.19
  -1   4  11    2.60    0.18
   0  -4 -11    8.29    0.28
   0   4  11    8.58    0.26
   0   4  11    8.36    0.30
   0   4  11    7.92    0.28
  -1  -4 -11   27.77    0.57
   1   4  11   28.67    0.56
   1   4  11   28.62    0.61
   1   4  11   29.73    0.56
  -2  -4 -11    3.64    0.21
   2   4  11    3.80    0.24
   2   4  11    3.71    0.19
   2   4  11    3.54    0.19
  -3  -4 -11    6.52    0.27
   3   4  11    6.07    0.25
   3   4  11    6.40    0.24
   3   4  11    5.69    0.29
  -4  -4 -11   14.75    0.42
   4   4  11   14.15    0.40
   4   4  11   14.46    0.47
   4   4  11   14.64    0.36
  -5  -4 -11    2.51    0.21
   5   4  11    2.75    0.27
   5   4  11    2.93    0.21
  -6  -4 -11    7.68    0.32
   6   4  11    7.06    0.31
  -5   5  11    0.08    0.09
  -5   5  11    0.16    0.11
  -4   5  11   -0.04    0.08
  -4   5  11    0.07    0.09
   3  -5 -11   -0.05    0.07
  -3   5  11   -0.04    0.07
  -3   5  11    0.03    0.08
   2  -5 -11    2.90    0.18
  -2   5  11    2.90    0.19
  -2   5  11    2.96    0.20
   1  -5 -11    0.43    0.10
  -1   5  11    0.24    0.09
  -1   5  11    0.19    0.08
   0  -5 -11   11.83    0.34
   0   5  11   12.27    0.33
   0   5  11   11.76    0.35
   0   5  11   11.95    0.37
  -1  -5 -11    7.77    0.29
   1   5  11    7.81    0.31
   1   5  11    8.54    0.28
   1   5  11    8.10    0.28
  -2  -5 -11   14.47    0.40
   2   5  11   15.03    0.44
   2   5  11   14.98    0.38
   2   5  11   15.50    0.39
  -3  -5 -11    5.20    0.25
   3   5  11    4.67    0.27
   3   5  11    4.57    0.22
   3   5  11    4.63    0.23
  -4  -5 -11    0.61    0.12
   4   5  11    0.71    0.12
   4   5  11    0.61    0.10
   4   5  11    0.52    0.14
  -5  -5 -11    0.06    0.09
   5   5  11    0.08    0.12
   5   5  11    0.10    0.09
  -6  -5 -11    9.15    0.35
   6   5  11    8.58    0.34
   6   5  11    8.13    0.41
  -4   6  11    0.30    0.11
  -4   6  11    0.62    0.13
   3  -6 -11    3.29    0.18
  -3   6  11    3.37    0.22
  -3   6  11    3.22    0.23
   2  -6 -11   23.73    0.50
  -2   6  11   23.60    0.55
  -2   6  11   24.09    0.57
   1  -6 -11    6.41    0.26
  -1   6  11    6.37    0.28
  -1   6  11    6.52    0.27
   0  -6 -11    2.08    0.19
   0   6  11    1.65    0.17
   0   6  11    2.20    0.22
   0   6  11    1.97    0.17
  -1  -6 -11   44.06    0.80
   1   6  11   43.67    0.78
   1   6  11   44.31    0.85
   1   6  11   45.13    0.79
  -2  -6 -11    9.24    0.33
   2   6  11    9.59    0.32
   2   6  11    9.33    0.31
   2   6  11    9.27    0.35
  -3  -6 -11    1.01    0.14
   3   6  11    1.19    0.17
   3   6  11    0.96    0.13
   3   6  11    1.46    0.17
  -4  -6 -11    4.52    0.25
   4   6  11    4.32    0.29
   4   6  11    4.28    0.22
   4   6  11    4.83    0.25
  -5  -6 -11    2.83    0.23
   5   6  11    2.62    0.26
   5   6  11    3.01    0.23
  -6  -6 -11    3.74    0.25
   6   6  11    3.83    0.26
   6   6  11    3.69    0.32
  -4   7  11    1.71    0.20
  -4   7  11    1.22    0.17
   3  -7 -11    6.43    0.26
  -3   7  11    6.43    0.31
  -3   7  11    6.30    0.29
   2  -7 -11   12.92    0.37
  -2   7  11   12.58    0.42
  -2   7  11   12.89    0.40
   1  -7 -11    0.35    0.11
  -1   7  11    0.58    0.12
  -1   7  11    0.64    0.13
   0  -7 -11    2.78    0.21
   0   7  11    3.07    0.22
   0   7  11    2.64    0.21
  -1  -7 -11    3.67    0.23
   1   7  11    4.30    0.24
   1   7  11    3.78    0.21
   1   7  11    3.99    0.24
  -2  -7 -11    4.66    0.25
   2   7  11    5.20    0.25
   2   7  11    5.14    0.24
   2   7  11    4.83    0.27
  -3  -7 -11    0.50    0.13
   3   7  11    0.55    0.11
   3   7  11    0.60    0.12
   3   7  11    0.36    0.12
  -4  -7 -11    0.17    0.11
   4   7  11    0.25    0.12
   4   7  11    0.16    0.10
   4   7  11    0.26    0.09
  -5  -7 -11    3.20    0.25
   5   7  11    2.61    0.26
   5   7  11    3.54    0.25
   3  -8 -11    0.24    0.11
  -3   8  11    0.13    0.11
  -3   8  11    0.18    0.12
   2  -8 -11    1.78    0.18
  -2   8  11    1.92    0.21
  -2   8  11    1.80    0.20
   1  -8 -11    2.42    0.21
  -1   8  11    2.57    0.23
  -1   8  11    2.21    0.20
   0  -8 -11    7.56    0.31
   0   8  11    7.04    0.32
   0   8  11    7.15    0.31
  -1  -8 -11    2.92    0.22
   1   8  11    3.17    0.22
   1   8  11    3.04    0.21
   1   8  11    3.01    0.23
  -2  -8 -11    1.79    0.19
   2   8  11    1.71    0.18
   2   8  11    1.30    0.18
   2   8  11    1.55    0.17
  -3  -8 -11    0.13    0.11
   3   8  11    0.35    0.11
   3   8  11    0.32    0.11
   3   8  11    0.32    0.12
  -4  -8 -11   25.91    0.63
   4   8  11   25.92    0.57
   4   8  11   26.33    0.68
   4   8  11   26.01    0.62
   1  -9 -11    1.53    0.19
  -1   9  11    1.61    0.19
  -1   9  11    1.47    0.20
   0  -9 -11   13.81    0.43
   0   9  11   14.42    0.47
   0   9  11   14.53    0.45
  -1  -9 -11   -0.15    0.10
   1   9  11    0.10    0.10
   1   9  11    0.09    0.10
   1   9  11    0.04    0.08
  -2  -9 -11    5.51    0.30
   2   9  11    5.06    0.27
   2   9  11    5.48    0.31
   2   9  11    5.81    0.29
  -3  -9 -11   26.65    0.65
   3   9  11   27.64    0.69
   3   9  11   27.46    0.64
   3   9  11   27.04    0.62
   2   5 -12    0.52    0.14
   2   5 -12    0.62    0.16
  -2  -5  12    0.42    0.14
   1   5 -12    0.19    0.12
   1   5 -12    0.45    0.15
   0   5 -12    1.71    0.20
   0   5 -12    1.32    0.19
  -1   5 -12   -0.02    0.10
  -1   5 -12    0.08    0.13
   1  -5  12    0.16    0.12
   3   4 -12    3.67    0.24
   3   4 -12    3.10    0.23
  -3  -4  12    3.09    0.26
   2   4 -12    0.72    0.14
   2   4 -12    0.78    0.15
  -2  -4  12    0.66    0.14
   1   4 -12    1.59    0.19
   1   4 -12    1.54    0.17
   0   4 -12    5.90    0.31
   0   4 -12    5.69    0.28
  -1   4 -12    5.05    0.27
  -1   4 -12    4.62    0.30
   1  -4  12    5.06    0.28
  -2   4 -12    1.93    0.20
  -2   4 -12    1.89    0.22
   2  -4  12    2.32    0.22
   3  -4  12    4.53    0.29
   4   3 -12    0.23    0.09
  -4  -3  12    0.13    0.11
   3   3 -12    1.49    0.15
   3   3 -12    1.38    0.16
  -3  -3  12    1.31    0.17
   2   3 -12    3.48    0.22
   2   3 -12    3.45    0.23
  -2  -3  12    3.40    0.22
   1   3 -12   43.27    0.77
   1   3 -12   42.28    0.80
  -1  -3  12   42.45    0.79
   0   3 -12    8.29    0.30
   0   3 -12    7.87    0.33
  -1   3 -12    5.73    0.27
  -1   3 -12    5.93    0.30
   1  -3  12    5.94    0.27
  -2   3 -12    5.46    0.27
  -2   3 -12    5.40    0.31
   2  -3  12    6.02    0.29
  -3   3 -12    0.04    0.12
  -3   3 -12   -0.11    0.09
   3  -3  12   -0.08    0.09
  -4   3 -12    0.28    0.12
  -4   3 -12    0.10    0.13
   4  -3  12    0.12    0.11
  -5  -2  12   -0.08    0.09
  -4  -2  12    1.13    0.17
   3   2 -12   23.62    0.51
   3   2 -12   24.41    0.50
  -3  -2  12   24.34    0.58
  -3  -2  12   24.44    0.59
   2   2 -12   47.79    0.82
   2   2 -12   47.80    0.81
  -2  -2  12   47.93    0.86
  -2  -2  12   46.94    0.89
   1   2 -12    3.25    0.22
   1   2 -12    2.92    0.19
  -1  -2  12    3.35    0.25
  -1  -2  12    2.78    0.19
   0   2 -12    2.75    0.19
   0   2 -12    2.47    0.21
   0  -2  12    2.37    0.28
  -1   2 -12    0.02    0.09
  -1   2 -12   -0.05    0.10
   1  -2  12    0.16    0.09
  -2   2 -12    3.57    0.22
  -2   2 -12    3.52    0.25
   2  -2  12    3.42    0.22
  -3   2 -12    5.32    0.30
  -3   2 -12    5.50    0.27
  -4   2 -12    1.68    0.20
  -4   2 -12    1.76    0.19
   4  -2  12    1.89    0.19
  -5  -1  12    0.55    0.13
  -5  -1  12    0.41    0.14
  -4  -1  12    5.86    0.29
  -4  -1  12    6.12    0.31
   3   1 -12    8.92    0.28
  -3  -1  12    9.65    0.34
  -3  -1  12    8.60    0.34
   2   1 -12    0.79    0.12
   2   1 -12    0.80    0.11
  -2  -1  12    0.67    0.11
  -2  -1  12    0.56    0.13
   1   1 -12    1.76    0.16
   1   1 -12    1.98    0.16
  -1  -1  12    2.27    0.20
  -1  -1  12    1.84    0.15
   0   1 -12    3.81    0.23
   0   1 -12    3.98    0.20
   0  -1  12    3.82    0.25
   0  -1  12    3.60    0.20
  -1   1 -12    3.27    0.23
  -1   1 -12    3.92    0.21
   1  -1  12    3.37    0.24
   1  -1  12    3.66    0.21
   1  -1  12    3.68    0.23
  -2   1 -12    0.05    0.10
  -2   1 -12    0.03    0.08
   2  -1  12    0.13    0.09
   2  -1  12    0.05    0.10
  -3   1 -12    0.49    0.13
  -3   1 -12    0.41    0.11
   3  -1  12    0.57    0.12
  -4   1 -12   19.69    0.52
  -4   1 -12   20.28    0.51
   4  -1  12   19.81    0.51
  -5   1 -12   23.82    0.59
  -5   1 -12   24.38    0.61
   5  -1  12   24.34    0.59
  -5   0  12    0.10    0.09
  -5   0  12    0.00    0.12
  -4   0  12    3.24    0.24
  -4   0  12    3.47    0.23
   3   0 -12    0.11    0.08
  -3   0  12   -0.11    0.09
  -3   0  12   -0.06    0.07
   2   0 -12   -0.01    0.08
  -2   0  12    0.04    0.07
  -2   0  12    0.22    0.10
   1   0 -12    0.02    0.09
   1   0 -12    0.10    0.07
  -1   0  12    0.02    0.09
  -1   0  12    0.11    0.07
   0   0 -12    0.09    0.09
   0   0 -12   -0.01    0.07
   0   0  12   -0.04    0.06
   0   0  12    0.08    0.06
   0   0  12   -0.10    0.06
   0   0  12   -0.07    0.08
  -1   0 -12    0.89    0.14
  -1   0 -12    1.18    0.13
   1   0  12    0.99    0.14
   1   0  12    1.14    0.15
   1   0  12    1.30    0.14
  -2   0 -12    1.26    0.14
  -2   0 -12    1.33    0.16
   2   0  12    1.33    0.18
   2   0  12    1.14    0.15
   2   0  12    1.24    0.14
  -3   0 -12   19.07    0.49
  -3   0 -12   19.41    0.46
   3   0  12   18.66    0.47
   3   0  12   19.10    0.46
  -4   0 -12   56.63    0.98
  -4   0 -12   58.88    1.02
   4   0  12   56.84    0.99
  -5   0 -12    4.73    0.27
  -5   0 -12    4.84    0.28
   5   0  12    5.18    0.27
  -5   1  12    9.31    0.37
  -5   1  12    9.98    0.37
  -4   1  12    0.36    0.12
  -4   1  12    0.51    0.11
   3  -1 -12    0.92    0.11
  -3   1  12    0.88    0.13
  -3   1  12    0.86    0.14
   2  -1 -12    1.29    0.13
  -2   1  12    0.99    0.13
  -2   1  12    1.08    0.15
   1  -1 -12    0.49    0.10
  -1   1  12    0.41    0.09
  -1   1  12    0.57    0.10
  -1   1  12    0.39    0.10
   0  -1 -12    2.19    0.14
   0  -1 -12    2.59    0.19
   0   1  12    2.38    0.17
   0   1  12    2.41    0.16
   0   1  12    2.17    0.19
   0   1  12    2.60    0.16
  -1  -1 -12    0.84    0.13
  -1  -1 -12    0.54    0.10
   1   1  12    0.59    0.11
   1   1  12    0.58    0.12
   1   1  12    0.87    0.13
  -2  -1 -12    0.88    0.12
   2   1  12    0.81    0.12
   2   1  12    1.01    0.15
   2   1  12    0.71    0.12
  -3  -1 -12    0.47    0.12
  -3  -1 -12    0.40    0.10
   3   1  12    0.44    0.11
   3   1  12    0.32    0.11
  -4  -1 -12   13.13    0.41
  -4  -1 -12   13.59    0.39
   4   1  12   13.04    0.39
  -5  -1 -12    1.01    0.15
   5   1  12    0.92    0.14
  -6  -1 -12    0.55    0.14
   6   1  12    0.68    0.14
  -5   2  12    8.11    0.35
  -5   2  12    7.22    0.32
  -4   2  12    5.95    0.29
  -4   2  12    6.84    0.30
   3  -2 -12    0.11    0.07
  -3   2  12    0.04    0.07
  -3   2  12    0.12    0.09
  -3   2  12    0.18    0.08
   2  -2 -12    4.08    0.20
  -2   2  12    4.63    0.21
  -2   2  12    4.58    0.23
  -2   2  12    4.14    0.23
   1  -2 -12    2.18    0.17
  -1   2  12    1.81    0.16
  -1   2  12    1.63    0.16
  -1   2  12    1.85    0.16
   0  -2 -12   -0.06    0.06
   0  -2 -12   -0.13    0.07
   0   2  12   -0.04    0.07
   0   2  12   -0.02    0.08
   0   2  12   -0.01    0.06
  -1  -2 -12    0.11    0.07
  -1  -2 -12    0.09    0.09
   1   2  12    0.06    0.08
   1   2  12    0.16    0.09
   1   2  12    0.12    0.07
  -2  -2 -12   20.57    0.49
  -2  -2 -12   19.62    0.43
   2   2  12   19.86    0.46
   2   2  12   20.62    0.47
   2   2  12   21.18    0.53
  -3  -2 -12    5.00    0.23
  -3  -2 -12    4.72    0.25
   3   2  12    5.01    0.24
   3   2  12    5.34    0.30
   3   2  12    5.13    0.24
  -4  -2 -12    1.95    0.20
   4   2  12    1.86    0.18
  -5  -2 -12    4.77    0.27
   5   2  12    4.77    0.26
  -6  -2 -12   11.78    0.41
   6   2  12   11.12    0.39
  -5   3  12   38.05    0.76
  -5   3  12   38.49    0.83
  -4   3  12    1.66    0.18
  -4   3  12    2.31    0.21
  -4   3  12    1.95    0.18
   3  -3 -12    2.77    0.16
  -3   3  12    2.69    0.21
  -3   3  12    2.96    0.19
  -3   3  12    2.61    0.21
   2  -3 -12    1.17    0.13
  -2   3  12    1.28    0.14
  -2   3  12    1.20    0.15
   1  -3 -12    0.31    0.09
  -1   3  12    0.29    0.09
  -1   3  12    0.24    0.10
   0  -3 -12    2.07    0.18
   0   3  12    1.95    0.17
   0   3  12    2.04    0.17
  -1  -3 -12    2.16    0.18
  -1  -3 -12    2.04    0.14
   1   3  12    2.01    0.19
   1   3  12    2.15    0.16
   1   3  12    1.67    0.16
  -2  -3 -12    0.84    0.13
   2   3  12    0.72    0.14
   2   3  12    0.57    0.11
   2   3  12    1.03    0.13
  -3  -3 -12   -0.15    0.07
   3   3  12   -0.12    0.07
   3   3  12    0.11    0.11
   3   3  12    0.04    0.08
  -4  -3 -12    3.55    0.24
   4   3  12    3.01    0.27
   4   3  12    3.25    0.22
  -5  -3 -12    0.92    0.15
   5   3  12    0.82    0.14
  -6  -3 -12    0.85    0.15
   6   3  12    0.99    0.16
  -5   4  12    0.03    0.10
  -5   4  12    0.43    0.12
  -4   4  12    3.20    0.22
  -4   4  12    3.03    0.23
   3  -4 -12    3.24    0.17
  -3   4  12    3.24    0.22
  -3   4  12    3.71    0.22
   2  -4 -12    0.23    0.09
  -2   4  12    0.37    0.11
  -2   4  12    0.34    0.10
   1  -4 -12    0.24    0.09
  -1   4  12    0.03    0.07
  -1   4  12    0.01    0.07
   0  -4 -12   32.00    0.64
   0   4  12   33.51    0.68
   0   4  12   32.30    0.64
  -1  -4 -12   17.87    0.45
   1   4  12   18.88    0.49
   1   4  12   18.70    0.44
   1   4  12   18.21    0.44
  -2  -4 -12    0.61    0.12
   2   4  12    0.68    0.12
   2   4  12    0.73    0.12
   2   4  12    0.63    0.13
  -3  -4 -12    1.55    0.17
   3   4  12    1.78    0.16
   3   4  12    1.45    0.15
   3   4  12    1.87    0.21
  -4  -4 -12   25.29    0.59
   4   4  12   25.08    0.57
   4   4  12   24.15    0.65
  -5  -4 -12    2.71    0.23
   5   4  12    2.69    0.22
   5   4  12    3.21    0.30
  -6  -4 -12    1.84    0.20
   6   4  12    1.70    0.19
   6   4  12    2.08    0.27
  -4   5  12    1.14    0.16
  -4   5  12    0.73    0.14
   3  -5 -12    0.78    0.11
  -3   5  12    0.81    0.14
  -3   5  12    0.50    0.12
   2  -5 -12   -0.04    0.08
  -2   5  12   -0.07    0.07
  -2   5  12   -0.07    0.08
   1  -5 -12    2.28    0.18
  -1   5  12    1.35    0.15
  -1   5  12    1.21    0.15
   0  -5 -12   39.91    0.75
   0   5  12   41.25    0.80
   0   5  12   41.59    0.76
  -1  -5 -12   54.94    0.94
   1   5  12   54.98    0.93
   1   5  12   55.01    0.99
   1   5  12   56.03    0.92
  -2  -5 -12    3.85    0.23
   2   5  12    4.49    0.22
   2   5  12    3.93    0.25
   2   5  12    4.07    0.22
  -3  -5 -12    5.50    0.27
   3   5  12    5.25    0.25
   3   5  12    5.20    0.24
   3   5  12    5.49    0.30
  -4  -5 -12    0.36    0.12
   4   5  12    0.23    0.10
   4   5  12    0.20    0.13
  -5  -5 -12   -0.07    0.10
   5   5  12    0.17    0.10
   5   5  12   -0.09    0.12
  -4   6  12    2.60    0.23
  -4   6  12    2.14    0.21
   3  -6 -12    3.91    0.21
  -3   6  12    4.32    0.26
  -3   6  12    4.02    0.25
   2  -6 -12    2.45    0.19
  -2   6  12    2.60    0.21
  -2   6  12    2.41    0.21
   1  -6 -12   12.24    0.36
  -1   6  12   11.38    0.37
  -1   6  12   11.43    0.39
   0  -6 -12   55.22    0.95
   0   6  12   56.92    0.96
   0   6  12   54.67    1.00
  -1  -6 -12    7.94    0.32
   1   6  12    8.35    0.31
   1   6  12    8.39    0.34
   1   6  12    8.63    0.30
  -2  -6 -12    0.35    0.11
   2   6  12    0.36    0.10
   2   6  12    0.38    0.10
   2   6  12    0.40    0.12
  -3  -6 -12    2.33    0.21
   3   6  12    2.27    0.23
   3   6  12    2.30    0.20
   3   6  12    2.11    0.18
  -4  -6 -12    1.32    0.18
   4   6  12    1.57    0.18
   4   6  12    1.31    0.20
  -5  -6 -12    0.15    0.12
   5   6  12   -0.04    0.13
   5   6  12    0.25    0.11
   3  -7 -12    0.34    0.11
  -3   7  12    0.33    0.12
  -3   7  12    0.42    0.13
   2  -7 -12    1.19    0.15
  -2   7  12    1.26    0.17
  -2   7  12    1.33    0.18
   1  -7 -12    2.26    0.20
  -1   7  12    2.40    0.21
  -1   7  12    2.55    0.21
   0  -7 -12    2.43    0.21
   0   7  12    2.50    0.21
   0   7  12    2.36    0.21
  -1  -7 -12    0.50    0.13
   1   7  12    0.33    0.10
   1   7  12    0.48    0.13
   1   7  12    0.46    0.11
  -2  -7 -12    0.34    0.13
   2   7  12    0.08    0.09
   2   7  12    0.72    0.13
   2   7  12    0.38    0.12
  -3  -7 -12    1.46    0.18
   3   7  12    1.21    0.15
   3   7  12    1.23    0.16
   3   7  12    1.39    0.20
  -4  -7 -12    0.43    0.13
   4   7  12    0.44    0.15
   4   7  12    0.58    0.14
   2  -8 -12    0.30    0.12
  -2   8  12    0.21    0.12
  -2   8  12    0.13    0.10
   1  -8 -12    0.05    0.10
  -1   8  12    0.28    0.12
  -1   8  12    0.19    0.11
   0  -8 -12    1.62    0.19
   0   8  12    1.46    0.20
   0   8  12    1.15    0.16
  -1  -8 -12    0.12    0.11
   1   8  12    0.23    0.11
   1   8  12    0.10    0.10
   1   8  12    0.08    0.09
  -2  -8 -12    0.21    0.12
   2   8  12    0.08    0.10
   2   8  12    0.26    0.11
   2   8  12    0.29    0.12
  -3  -8 -12    1.36    0.19
   3   8  12    1.66    0.19
   3   8  12    1.19    0.15
   3   8  12    1.47    0.20
  -1  -9 -12    0.04    0.11
   1   9  12    0.14    0.11
   1   9  12    0.14    0.12
   1   4 -13    0.06    0.11
   1   4 -13   -0.08    0.13
   0   4 -13    5.65    0.32
   0   4 -13    5.57    0.29
   3   3 -13    0.25    0.11
   3   3 -13    0.18    0.11
  -3  -3  13    0.12    0.11
   2   3 -13    0.31    0.11
   2   3 -13    0.43    0.13
  -2  -3  13    0.29    0.11
   1   3 -13    6.73    0.29
   1   3 -13    6.52    0.31
   0   3 -13    0.47    0.13
   0   3 -13    0.66    0.15
  -1   3 -13    0.59    0.14
  -1   3 -13    0.89    0.17
   1  -3  13    0.75    0.14
  -2   3 -13    3.05    0.26
  -2   3 -13    2.79    0.23
   2  -3  13    3.15    0.25
  -4  -2  13    0.01    0.10
   3   2 -13    0.16    0.10
  -3  -2  13   -0.06    0.09
   2   2 -13    0.34    0.12
   2   2 -13    0.28    0.10
  -2  -2  13    0.14    0.09
   1   2 -13   10.01    0.33
   1   2 -13   10.11    0.36
   0   2 -13    2.25    0.19
   0   2 -13    1.72    0.19
  -1   2 -13    0.46    0.14
  -1   2 -13    0.69    0.13
   1  -2  13    0.66    0.13
  -2   2 -13    0.49    0.12
  -2   2 -13    0.66    0.15
   2  -2  13    0.56    0.13
  -3   2 -13    2.18    0.23
  -3   2 -13    2.14    0.20
   3  -2  13    2.02    0.21
  -4  -1  13    2.73    0.24
  -4  -1  13    2.86    0.23
   3   1 -13    0.48    0.11
  -3  -1  13    0.30    0.13
  -3  -1  13    0.34    0.11
   2   1 -13    0.56    0.12
  -2  -1  13    0.52    0.11
  -2  -1  13    0.46    0.14
   1   1 -13    0.90    0.14
   1   1 -13    0.65    0.11
  -1  -1  13    1.20    0.17
  -1  -1  13    0.80    0.12
   0   1 -13    0.90    0.14
   0   1 -13    0.93    0.13
   0  -1  13    1.03    0.16
  -1   1 -13    0.73    0.12
  -1   1 -13    0.79    0.14
   1  -1  13    0.88    0.15
   1  -1  13    0.88    0.13
  -2   1 -13    2.89    0.24
  -2   1 -13    2.41    0.20
   2  -1  13    2.73    0.21
   2  -1  13    2.49    0.24
  -3   1 -13    0.11    0.10
  -3   1 -13    0.57    0.14
   3  -1  13    0.41    0.12
  -4   1 -13    7.39    0.33
  -4   1 -13    8.45    0.36
   4  -1  13    7.21    0.33
  -4   0  13    3.15    0.27
  -4   0  13    3.65    0.25
   3   0 -13    7.00    0.26
  -3   0  13    7.57    0.31
  -3   0  13    7.46    0.33
   2   0 -13    4.19    0.22
  -2   0  13    4.10    0.23
  -2   0  13    3.46    0.25
   1   0 -13    1.02    0.13
   1   0 -13    1.02    0.14
  -1   0  13    1.26    0.17
  -1   0  13    1.11    0.13
   0   0 -13    1.75    0.18
   0   0 -13    1.63    0.15
   0   0  13    1.90    0.19
  -1   0 -13   15.84    0.45
  -1   0 -13   15.64    0.40
   1   0  13   15.79    0.44
   1   0  13   15.96    0.41
   1   0  13   16.03    0.44
  -2   0 -13    0.04    0.08
  -2   0 -13    0.01    0.10
   2   0  13    0.10    0.09
   2   0  13    0.02    0.10
   2   0  13   -0.02    0.10
  -3   0 -13    0.06    0.09
  -3   0 -13    0.07    0.11
   3   0  13   -0.01    0.10
   3   0  13    0.14    0.10
  -4   0 -13    0.92    0.16
  -4   0 -13    1.05    0.16
   4   0  13    1.15    0.16
  -4   1  13    1.39    0.17
  -4   1  13    1.12    0.17
   3  -1 -13    1.42    0.13
  -3   1  13    1.68    0.17
  -3   1  13    1.20    0.16
   2  -1 -13   22.05    0.48
  -2   1  13   22.72    0.53
  -2   1  13   22.69    0.54
   1  -1 -13    1.06    0.14
  -1   1  13    0.86    0.12
  -1   1  13    0.88    0.14
   0  -1 -13   12.45    0.38
   0  -1 -13   12.34    0.32
   0   1  13   12.98    0.36
   0   1  13   13.38    0.40
   0   1  13   12.63    0.37
  -1  -1 -13    0.21    0.11
  -1  -1 -13    0.27    0.09
   1   1  13    0.17    0.10
   1   1  13    0.22    0.09
   1   1  13    0.14    0.09
  -2  -1 -13    0.28    0.10
  -2  -1 -13    0.50    0.12
   2   1  13    0.38    0.10
   2   1  13    0.33    0.11
   2   1  13    0.25    0.12
  -3  -1 -13    4.65    0.26
  -3  -1 -13    4.05    0.23
   3   1  13    3.97    0.29
   3   1  13    4.72    0.25
   3   1  13    3.97    0.24
  -4  -1 -13   25.95    0.62
  -4  -1 -13   26.01    0.59
   4   1  13   25.95    0.59
  -5  -1 -13    0.73    0.15
   5   1  13    0.78    0.15
  -4   2  13   -0.09    0.08
  -4   2  13    0.05    0.11
   3  -2 -13   10.53    0.30
  -3   2  13   11.99    0.40
  -3   2  13   11.60    0.38
   2  -2 -13    0.86    0.13
  -2   2  13    0.67    0.13
  -2   2  13    0.82    0.13
  -2   2  13    1.06    0.13
   1  -2 -13    2.50    0.19
  -1   2  13    2.49    0.19
  -1   2  13    2.82    0.19
  -1   2  13    2.06    0.18
   0  -2 -13    0.28    0.11
   0   2  13    0.20    0.09
   0   2  13    0.18    0.10
  -1  -2 -13    5.39    0.27
  -1  -2 -13    5.18    0.21
   1   2  13    6.21    0.28
   1   2  13    6.31    0.29
   1   2  13    6.07    0.25
  -2  -2 -13    4.55    0.26
  -2  -2 -13    4.71    0.22
   2   2  13    5.23    0.24
   2   2  13    4.95    0.25
   2   2  13    5.17    0.28
  -3  -2 -13    0.64    0.12
  -3  -2 -13    0.73    0.14
   3   2  13    0.63    0.15
   3   2  13    0.44    0.12
   3   2  13    0.47    0.12
  -4  -2 -13    0.79    0.15
   4   2  13    0.85    0.19
   4   2  13    0.78    0.14
  -5  -2 -13    0.73    0.15
   5   2  13    0.49    0.13
  -4   3  13    0.00    0.09
  -4   3  13    0.01    0.10
   3  -3 -13    0.46    0.10
  -3   3  13    0.40    0.12
  -3   3  13    0.51    0.11
  -3   3  13    0.39    0.11
   2  -3 -13    0.30    0.10
  -2   3  13    0.26    0.11
  -2   3  13    0.33    0.10
   1  -3 -13    1.89    0.17
  -1   3  13    1.95    0.17
  -1   3  13    1.51    0.16
   0  -3 -13    0.02    0.09
   0   3  13   -0.08    0.08
   0   3  13   -0.02    0.07
  -1  -3 -13   -0.09    0.08
   1   3  13   -0.02    0.08
   1   3  13    0.00    0.07
   1   3  13   -0.16    0.08
  -2  -3 -13    0.78    0.14
   2   3  13    0.93    0.13
   2   3  13    0.91    0.13
   2   3  13    0.89    0.16
  -3  -3 -13    2.40    0.21
   3   3  13    2.25    0.23
   3   3  13    2.52    0.20
   3   3  13    2.04    0.18
  -4  -3 -13    1.71    0.19
   4   3  13    1.50    0.21
   4   3  13    1.72    0.19
  -5  -3 -13    2.06    0.22
   5   3  13    2.24    0.21
   5   3  13    1.60    0.23
  -4   4  13    0.33    0.12
  -4   4  13    0.73    0.13
   3  -4 -13   -0.05    0.08
  -3   4  13    0.08    0.08
  -3   4  13    0.06    0.09
   2  -4 -13    6.37    0.26
  -2   4  13    6.10    0.29
  -2   4  13    6.64    0.28
   1  -4 -13    1.02    0.14
  -1   4  13    0.80    0.13
  -1   4  13    0.81    0.13
   0  -4 -13    1.47    0.16
   0   4  13    1.60    0.17
   0   4  13    1.54    0.17
  -1  -4 -13    9.97    0.35
   1   4  13   10.72    0.33
   1   4  13   10.49    0.37
   1   4  13    9.51    0.33
  -2  -4 -13   -0.03    0.09
   2   4  13    0.03    0.08
   2   4  13    0.08    0.08
   2   4  13    0.07    0.09
  -3  -4 -13    8.73    0.34
   3   4  13    8.46    0.32
   3   4  13    8.65    0.31
   3   4  13    9.16    0.39
  -4  -4 -13    0.74    0.15
   4   4  13    0.44    0.16
   4   4  13    1.05    0.15
  -5  -4 -13    0.56    0.14
   5   4  13    0.18    0.15
   5   4  13    0.43    0.12
   3  -5 -13    3.75    0.21
  -3   5  13    3.96    0.25
  -3   5  13    3.56    0.25
   2  -5 -13    2.19    0.19
  -2   5  13    2.55    0.21
  -2   5  13    2.67    0.22
   1  -5 -13   -0.12    0.08
  -1   5  13    0.05    0.09
  -1   5  13    0.11    0.09
   0  -5 -13    3.09    0.23
   0   5  13    2.62    0.21
   0   5  13    2.69    0.21
  -1  -5 -13    7.56    0.31
   1   5  13    7.52    0.30
   1   5  13    7.78    0.29
   1   5  13    7.75    0.33
  -2  -5 -13    1.16    0.16
   2   5  13    1.85    0.21
   2   5  13    1.32    0.15
   2   5  13    1.38    0.16
  -3  -5 -13    0.25    0.11
   3   5  13    0.24    0.12
   3   5  13    0.19    0.10
   3   5  13    0.06    0.09
  -4  -5 -13    0.18    0.11
   4   5  13    0.01    0.09
   4   5  13    0.07    0.12
  -5  -5 -13    4.98    0.30
   5   5  13    5.16    0.36
   5   5  13    5.60    0.30
   3  -6 -13    5.21    0.24
  -3   6  13    5.38    0.29
  -3   6  13    5.04    0.29
   2  -6 -13    1.58    0.17
  -2   6  13    1.87    0.20
  -2   6  13    1.95    0.20
   1  -6 -13    0.15    0.10
  -1   6  13    0.10    0.09
  -1   6  13    0.07    0.09
   0  -6 -13    4.48    0.26
   0   6  13    4.60    0.27
   0   6  13    4.29    0.26
  -1  -6 -13    0.01    0.10
   1   6  13    0.05    0.09
   1   6  13    0.09    0.09
   1   6  13    0.30    0.11
  -2  -6 -13    0.03    0.10
   2   6  13    0.03    0.08
   2   6  13    0.10    0.09
   2   6  13    0.07    0.10
  -3  -6 -13    2.70    0.23
   3   6  13    2.68    0.25
   3   6  13    2.77    0.22
   3   6  13    2.30    0.20
  -4  -6 -13    1.71    0.20
   4   6  13    1.51    0.18
   4   6  13    1.39    0.21
   2  -7 -13    0.83    0.15
  -2   7  13    1.31    0.18
  -2   7  13    0.75    0.16
   1  -7 -13    2.87    0.23
  -1   7  13    2.81    0.23
  -1   7  13    2.57    0.23
   0  -7 -13    0.95    0.15
   0   7  13    0.95    0.15
   0   7  13    0.99    0.16
  -1  -7 -13    0.29    0.13
   1   7  13    0.41    0.12
   1   7  13    0.39    0.13
  -2  -7 -13    0.08    0.12
   2   7  13   -0.04    0.10
   2   7  13   -0.11    0.08
   2   7  13    0.09    0.09
  -3  -7 -13    0.49    0.14
   3   7  13    0.62    0.16
   3   7  13    0.54    0.14
   3   7  13    0.53    0.13
   0  -8 -13    7.18    0.33
   0   8  13    7.56    0.36
   0   8  13    6.87    0.33
  -1  -8 -13    3.50    0.27
   1   8  13    3.66    0.25
   1   8  13    3.36    0.26
  -2  -8 -13    0.37    0.13
   2   8  13    0.15    0.10
   2   8  13    0.14    0.11
   2   8  13    0.20    0.12
   2   2 -14    0.30    0.12
  -2  -2  14    0.08    0.09
   1   2 -14    1.65    0.19
   1   2 -14    1.30    0.16
   0   2 -14    3.58    0.27
   0   2 -14    3.32    0.23
  -1   2 -14    0.40    0.15
  -1   2 -14    0.07    0.10
  -2   2 -14    0.11    0.11
  -2   2 -14    0.11    0.13
   2  -2  14    0.00    0.10
   3   1 -14    0.63    0.12
  -3  -1  14    0.49    0.13
  -3  -1  14    0.22    0.15
   2   1 -14    0.52    0.13
  -2  -1  14    0.41    0.11
  -2  -1  14    0.35    0.15
   1   1 -14    0.29    0.13
   1   1 -14    0.13    0.09
  -1  -1  14    0.00    0.12
   0   1 -14    0.21    0.10
   0   1 -14    0.07    0.11
   0  -1  14    0.25    0.13
  -1   1 -14    2.07    0.19
  -1   1 -14    1.84    0.21
   1  -1  14    2.26    0.23
  -2   1 -14    1.01    0.16
  -2   1 -14    0.88    0.16
   2  -1  14    1.27    0.17
  -3   1 -14    6.92    0.31
  -3   1 -14    6.59    0.34
   3  -1  14    5.41    0.36
   3  -1  14    6.60    0.32
   3   0 -14    0.53    0.11
  -3   0  14    0.54    0.15
  -3   0  14    0.68    0.13
   2   0 -14    9.28    0.32
  -2   0  14    8.95    0.37
  -2   0  14    8.70    0.33
   1   0 -14    0.57    0.13
  -1   0  14    0.49    0.10
  -1   0  14    0.17    0.13
   0   0 -14    5.51    0.29
   0   0 -14    5.66    0.24
   0   0  14    5.27    0.30
  -1   0 -14    5.41    0.25
  -1   0 -14    5.63    0.30
   1   0  14    5.82    0.31
  -2   0 -14    2.91    0.25
  -2   0 -14    2.15    0.20
   2   0  14    2.02    0.20
   2   0  14    2.44    0.21
   2   0  14    2.55    0.24
  -3   0 -14   12.04    0.43
  -3   0 -14   11.86    0.39
   3   0  14   11.44    0.45
   3   0  14   12.11    0.40
   3   0  14   11.05    0.40
   3  -1 -14    5.63    0.24
  -3   1  14    5.88    0.29
  -3   1  14    5.59    0.32
   2  -1 -14    0.96    0.14
  -2   1  14    0.80    0.16
  -2   1  14    0.92    0.14
   1  -1 -14    0.23    0.11
  -1   1  14    0.38    0.10
  -1   1  14    0.14    0.13
   0  -1 -14    4.43    0.26
   0   1  14    4.02    0.27
  -1  -1 -14    6.68    0.26
  -1  -1 -14    6.49    0.31
   1   1  14    6.31    0.31
   1   1  14    6.46    0.30
   1   1  14    6.53    0.40
  -2  -1 -14    7.44    0.29
  -2  -1 -14    7.06    0.32
   2   1  14    6.54    0.33
   2   1  14    7.57    0.30
   2   1  14    6.86    0.32
  -3  -1 -14    0.68    0.15
  -3  -1 -14    0.62    0.13
   3   1  14    0.64    0.14
   3   1  14    0.81    0.14
   3   1  14    0.50    0.16
  -4  -1 -14    0.16    0.11
  -4  -1 -14   -0.11    0.11
   4   1  14    0.02    0.10
   4   1  14    0.28    0.16
   3  -2 -14    0.53    0.11
  -3   2  14    0.20    0.11
  -3   2  14    0.27    0.13
   2  -2 -14    0.04    0.10
  -2   2  14    0.05    0.11
  -2   2  14    0.26    0.10
   1  -2 -14    0.18    0.10
  -1   2  14    0.13    0.08
  -1   2  14    0.14    0.11
   0  -2 -14    0.18    0.10
   0   2  14    0.08    0.11
   0   2  14    0.34    0.11
  -1  -2 -14    0.82    0.15
   1   2  14    0.86    0.15
   1   2  14    0.84    0.14
  -2  -2 -14    1.46    0.18
  -2  -2 -14    1.19    0.15
   2   2  14    1.36    0.19
   2   2  14    1.39    0.17
   2   2  14    1.40    0.16
  -3  -2 -14    3.23    0.25
  -3  -2 -14    2.94    0.21
   3   2  14    2.73    0.23
   3   2  14    3.03    0.27
   3   2  14    3.05    0.22
  -4  -2 -14    0.16    0.12
   4   2  14    0.21    0.11
   4   2  14   -0.02    0.14
   3  -3 -14    0.08    0.09
  -3   3  14   -0.18    0.09
   2  -3 -14    1.88    0.17
  -2   3  14    1.82    0.18
  -2   3  14    1.29    0.18
   1  -3 -14    0.85    0.14
  -1   3  14    0.92    0.14
  -1   3  14    0.62    0.15
   0  -3 -14    2.22    0.20
   0   3  14    1.79    0.18
   0   3  14    2.20    0.20
  -1  -3 -14    8.21    0.33
   1   3  14    8.81    0.35
   1   3  14    8.37    0.33
  -2  -3 -14    1.37    0.17
   2   3  14    1.26    0.16
   2   3  14    1.33    0.16
   2   3  14    1.14    0.18
  -3  -3 -14    6.88    0.32
   3   3  14    6.83    0.36
   3   3  14    7.06    0.30
   3   3  14    6.42    0.30
  -4  -3 -14    3.02    0.25
   4   3  14    2.81    0.28
   4   3  14    2.92    0.23
   3  -4 -14    0.26    0.10
  -3   4  14    0.29    0.12
  -3   4  14    0.49    0.12
   2  -4 -14    2.36    0.20
  -2   4  14    2.93    0.22
  -2   4  14    2.24    0.21
   1  -4 -14    1.65    0.17
  -1   4  14    1.36    0.17
  -1   4  14    1.01    0.15
   0  -4 -14   28.57    0.63
   0   4  14   29.61    0.64
   0   4  14   28.98    0.65
  -1  -4 -14    3.07    0.24
   1   4  14    2.86    0.23
   1   4  14    2.56    0.23
  -2  -4 -14    0.90    0.16
   2   4  14    0.83    0.13
   2   4  14    0.70    0.14
   2   4  14    0.89    0.16
  -3  -4 -14    7.18    0.33
   3   4  14    7.20    0.31
   3   4  14    7.64    0.37
   3   4  14    7.13    0.31
  -4  -4 -14    2.02    0.22
   4   4  14    2.00    0.25
   4   4  14    2.30    0.22
   2  -5 -14    6.51    0.28
  -2   5  14    7.18    0.32
  -2   5  14    6.14    0.31
   1  -5 -14    0.51    0.13
  -1   5  14    0.70    0.14
  -1   5  14    0.75    0.15
   0  -5 -14    1.17    0.16
   0   5  14    1.53    0.18
   0   5  14    1.44    0.17
  -1  -5 -14   23.05    0.58
   1   5  14   23.93    0.57
   1   5  14   24.42    0.61
  -2  -5 -14    0.97    0.16
   2   5  14    0.79    0.14
   2   5  14    1.29    0.16
   2   5  14    0.94    0.17
  -3  -5 -14    0.14    0.12
   3   5  14    0.05    0.10
   3   5  14    0.21    0.11
   3   5  14    0.06    0.12
  -4  -5 -14    0.20    0.12
   4   5  14    0.32    0.15
   4   5  14    0.26    0.12
   2  -6 -14   10.35    0.35
  -2   6  14   10.48    0.40
  -2   6  14   10.77    0.40
   1  -6 -14   -0.06    0.11
  -1   6  14    0.07    0.09
  -1   6  14    0.04    0.10
   0  -6 -14    8.59    0.35
   0   6  14    8.69    0.37
   0   6  14    9.00    0.36
  -1  -6 -14    8.71    0.36
   1   6  14    8.66    0.35
   1   6  14    8.80    0.37
  -2  -6 -14    3.22    0.25
   2   6  14    3.42    0.23
   2   6  14    3.10    0.24
   2   6  14    2.66    0.25
  -3  -6 -14    1.57    0.21
   3   6  14    1.34    0.20
   3   6  14    1.03    0.15
   3   6  14    1.18    0.17
   0  -7 -14    0.85    0.16
   0   7  14    0.94    0.17
   0   7  14    1.16    0.18
  -1  -7 -14    0.32    0.14
   1   7  14    0.14    0.11
   1   7  14    0.12    0.11
  -2  -7 -14    0.03    0.12
   2   7  14   -0.08    0.09
   2   7  14    0.02    0.10
   2   7  14    0.08    0.10
   1   0 -15    0.74    0.15
  -1   0  15    0.50    0.16
   0   0 -15    0.33    0.14
   0   0  15    0.03    0.13
  -1   0 -15    0.31    0.13
  -1   0 -15    0.25    0.11
   1   0  15    0.11    0.13
   2   0  15    5.38    0.32
   2   0  15    5.44    0.29
   2  -1 -15    1.43    0.16
  -2   1  15    1.63    0.18
  -2   1  15    1.38    0.20
   1  -1 -15    0.59    0.14
  -1   1  15    0.34    0.14
  -1   1  15    0.44    0.18
   0  -1 -15    0.15    0.12
   0   1  15   -0.12    0.12
  -1  -1 -15    0.04    0.12
   1   1  15   -0.23    0.11
  -2  -1 -15    7.46    0.35
  -2  -1 -15    7.05    0.30
   2   1  15    6.72    0.34
   2   1  15    6.91    0.31
   2   1  15    7.14    0.35
   2  -2 -15   -0.12    0.10
  -2   2  15    0.13    0.10
  -2   2  15   -0.03    0.12
   1  -2 -15    0.01    0.11
  -1   2  15   -0.08    0.11
   0  -2 -15    0.64    0.14
   0   2  15    0.36    0.14
   0   2  15    0.54    0.13
  -1  -2 -15    1.90    0.20
   1   2  15    1.63    0.20
   1   2  15    1.68    0.20
  -2  -2 -15    2.45    0.24
   2   2  15    2.44    0.24
   2   2  15    2.44    0.21
   2   2  15    1.93    0.21
  -3  -2 -15   -0.04    0.09
   3   2  15   -0.17    0.11
   3   2  15   -0.03    0.09
   2  -3 -15    0.59    0.13
  -2   3  15    0.31    0.14
   1  -3 -15    1.80    0.19
  -1   3  15    1.57    0.18
  -1   3  15    1.43    0.19
   0  -3 -15    9.92    0.37
   0   3  15    9.57    0.38
   0   3  15   10.45    0.38
  -1  -3 -15    7.37    0.33
   1   3  15    7.55    0.34
   1   3  15    7.19    0.33
  -2  -3 -15    0.15    0.12
   2   3  15    0.08    0.09
   2   3  15   -0.05    0.11
   2   3  15   -0.17    0.10
  -3  -3 -15    2.65    0.25
   3   3  15    2.23    0.21
   3   3  15    3.16    0.23
   3   3  15    3.14    0.29
   1  -4 -15    4.92    0.28
  -1   4  15    5.30    0.28
  -1   4  15    4.97    0.30
   0  -4 -15   21.95    0.56
   0   4  15   22.17    0.57
   0   4  15   21.79    0.57
  -1  -4 -15   12.63    0.43
   1   4  15   12.14    0.43
   1   4  15   12.69    0.42
  -2  -4 -15    3.45    0.27
   2   4  15    3.68    0.28
   2   4  15    3.11    0.25
   2   4  15    4.06    0.25
   1  -5 -15   11.61    0.39
  -1   5  15   11.48    0.41
  -1   5  15   11.20    0.42
   0  -5 -15   33.83    0.73
   0   5  15   34.05    0.76
   0   5  15   33.50    0.73
  -1  -5 -15    6.56    0.32
   1   5  15    6.95    0.34
   1   5  15    6.81    0.33
  -2  -5 -15    0.15    0.12
   2   5  15   -0.14    0.10
   2   5  15    0.15    0.10
   2   5  15    0.17    0.13
   0   0   0    0.00    0.00
;
_shelx_hkl_checksum              38299
_shelx_res_file
;
TITL TESTT1 in P-1
CELL 0.71073 7.0311 8.6172 11.949 77.4101 87.9565 82.6358
ZERR 2 0.0002 0.0002 0.0003 0.0014 0.0014 0.0014
LATT 1
SFAC C H N O
UNIT 32 32 4 6
EQIV $1 +X,-1+Y,+Z
EQIV $2 -1-X,-1-Y,1-Z
L.S. 4 0 0
PLAN  5
TEMP -173(2)
HTAB O2 N1
HTAB N2 O1_$1
HTAB N2 O3_$2
MORE -1
BOND $H
CONF
fmap 2 53
acta 52
REM <olex2.extras>
REM <HklSrc "%.\\15DA001.hkl">
REM </olex2.extras>
WGHT    0.055300    0.208000
FVAR       0.33464
O1    4    0.055198    0.341074    0.711950    11.00000    0.01935    0.02012 =
         0.03910   -0.00815   -0.01086    0.00105
O2    4    0.265527    0.121225    0.723179    11.00000    0.01801    0.01731 =
         0.03943   -0.01179   -0.00681   -0.00146
C1    1    0.419776    0.723196    0.863600    11.00000    0.01688    0.02104 =
         0.02210   -0.00720   -0.00121   -0.00186
AFIX  43
H1    2    0.288628    0.765688    0.852728    11.00000   -1.20000
AFIX   0
C2    1    0.544969    0.810570    0.903868    11.00000    0.02472    0.01985 =
         0.02175   -0.00910    0.00004   -0.00396
AFIX  43
H2A   2    0.498311    0.911858    0.920054    11.00000   -1.20000
AFIX   0
C3    1    0.737442    0.751638    0.920738    11.00000    0.02213    0.02424 =
         0.01462   -0.00468   -0.00070   -0.00902
C4    1    0.801961    0.603041    0.895220    11.00000    0.01626    0.02483 =
         0.01765   -0.00321   -0.00209   -0.00374
AFIX  43
H4    2    0.933466    0.561446    0.905529    11.00000   -1.20000
AFIX   0
C5    1    0.677856    0.514822    0.855088    11.00000    0.01948    0.01734 =
         0.01798   -0.00413   -0.00132   -0.00198
AFIX  43
H5    2    0.725205    0.413851    0.838599    11.00000   -1.20000
AFIX   0
C6    1    0.483753    0.573419    0.838754    11.00000    0.01799    0.01759 =
         0.01449   -0.00373   -0.00101   -0.00442
C7    1    0.344992    0.487124    0.796567    11.00000    0.01506    0.01773 =
         0.01768   -0.00352   -0.00236   -0.00237
AFIX  43
H7    2    0.218623    0.541440    0.784464    11.00000   -1.20000
AFIX   0
C8    1    0.374430    0.341536    0.773063    11.00000    0.01436    0.01835 =
         0.02180   -0.00500   -0.00303   -0.00223
AFIX  43
H8    2    0.498702    0.282571    0.782374    11.00000   -1.20000
AFIX   0
C9    1    0.215792    0.270699    0.732638    11.00000    0.01712    0.01499 =
         0.01699   -0.00288   -0.00143   -0.00289
C10   1    0.874033    0.846882    0.963861    11.00000    0.02631    0.03140 =
         0.02480   -0.01038   -0.00193   -0.01259
AFIX 137
H10A  2    0.933751    0.913648    0.898469    11.00000   -1.50000
H10B  2    0.973633    0.773325    1.010273    11.00000   -1.50000
H10C  2    0.803303    0.915447    1.010811    11.00000   -1.50000
AFIX   0
O3    4   -0.508143   -0.290142    0.514617    11.00000    0.01567    0.01704 =
         0.02955   -0.00665   -0.00751   -0.00063
N1    3    0.001135   -0.023901    0.654203    11.00000    0.01914    0.01534 =
         0.01859   -0.00351   -0.00278   -0.00477
N2    3   -0.274978   -0.497941    0.569457    11.00000    0.01360    0.01512 =
         0.02408   -0.00682   -0.00483   -0.00119
C11   1    0.081541   -0.159783    0.625724    11.00000    0.01357    0.01794 =
         0.02049   -0.00410   -0.00122   -0.00355
AFIX  43
H11   2    0.217349   -0.182781    0.626942    11.00000   -1.20000
AFIX   0
C12   1   -0.024689   -0.268063    0.594614    11.00000    0.01524    0.01504 =
         0.01928   -0.00578   -0.00041   -0.00173
AFIX  43
H12   2    0.037021   -0.364205    0.576315    11.00000   -1.20000
AFIX   0
C13   1   -0.223410   -0.233572    0.590627    11.00000    0.01437    0.01381 =
         0.01421   -0.00257   -0.00118   -0.00350
C14   1   -0.307631   -0.090258    0.616928    11.00000    0.01426    0.01519 =
         0.01894   -0.00346   -0.00119   -0.00135
AFIX  43
H14   2   -0.442654   -0.061650    0.612839    11.00000   -1.20000
AFIX   0
C15   1   -0.190107    0.009619    0.649178    11.00000    0.02022    0.01308 =
         0.02099   -0.00523   -0.00173   -0.00116
AFIX  43
H15   2   -0.247839    0.106226    0.668595    11.00000   -1.20000
AFIX   0
C16   1   -0.348352   -0.344138    0.555573    11.00000    0.01329    0.01591 =
         0.01561   -0.00483   -0.00026   -0.00337
H2B   2   -0.166363   -0.536450    0.608764    11.00000    0.02505
H2C   2   -0.347862   -0.567298    0.547346    11.00000    0.02688
H2    2    0.157139    0.081663    0.694553    11.00000    0.05892
HKLF 4
REM  TESTT1 in P-1
REM R1 =  0.0351 for    3003 Fo > 4sig(Fo)  and  0.0393 for all    3359 data
REM    203 parameters refined using      0 restraints
END
WGHT      0.0553      0.2080
REM Highest difference peak  0.443,  deepest hole -0.188,  1-sigma level  0.041
Q1    1  -0.2830 -0.2941  0.5788  11.00000  0.05    0.44
Q2    1   0.4210  0.5256  0.8225  11.00000  0.05    0.38
Q3    1   0.2954  0.3054  0.7564  11.00000  0.05    0.35
Q4    1   0.4521  0.6394  0.8537  11.00000  0.05    0.33
Q5    1  -0.2624 -0.1602  0.6019  11.00000  0.05    0.33
;
_shelx_res_checksum              92987
_shelxl_version_number           .2013
loop_
_space_group_symop_operation_xyz
'x, y, z'
'-x, -y, -z'
loop_
_atom_site_type_symbol
_atom_site_label
_atom_site_fract_x
_atom_site_fract_y
_atom_site_fract_z
_atom_site_U_iso_or_equiv
_atom_site_adp_type
_atom_site_calc_flag
_atom_site_occupancy
O O1 0.05520(11) 0.34107(9) 0.71195(7) 0.02597(19) Uani d 1
O O2 0.26553(11) 0.12123(9) 0.72318(7) 0.02395(18) Uani d 1
C C1 0.41978(15) 0.72320(12) 0.86360(9) 0.0196(2) Uani d 1
H H1 0.2886 0.7657 0.8527 0.024 Uiso calc 1
C C2 0.54497(16) 0.81057(13) 0.90387(9) 0.0213(2) Uani d 1
H H2A 0.4983 0.9119 0.9201 0.026 Uiso calc 1
C C3 0.73744(15) 0.75164(13) 0.92074(8) 0.0197(2) Uani d 1
C C4 0.80196(14) 0.60304(13) 0.89522(9) 0.0196(2) Uani d 1
H H4 0.9335 0.5614 0.9055 0.024 Uiso calc 1
C C5 0.67786(15) 0.51482(12) 0.85509(8) 0.0182(2) Uani d 1
H H5 0.7252 0.4139 0.8386 0.022 Uiso calc 1
C C6 0.48375(14) 0.57342(11) 0.83875(8) 0.0164(2) Uani d 1
C C7 0.34499(14) 0.48712(12) 0.79657(8) 0.0168(2) Uani d 1
H H7 0.2186 0.5414 0.7845 0.020 Uiso calc 1
C C8 0.37443(14) 0.34154(12) 0.77306(9) 0.0180(2) Uani d 1
H H8 0.4987 0.2826 0.7824 0.022 Uiso calc 1
C C9 0.21579(14) 0.27070(11) 0.73264(8) 0.0163(2) Uani d 1
C C10 0.87403(17) 0.84688(14) 0.96386(10) 0.0260(2) Uani d 1
H H10A 0.9338 0.9136 0.8985 0.039 Uiso calc 1
H H10B 0.9736 0.7733 1.0103 0.039 Uiso calc 1
H H10C 0.8033 0.9154 1.0108 0.039 Uiso calc 1
O O3 -0.50814(10) -0.29014(8) 0.51462(7) 0.02044(17) Uani d 1
N N1 0.00113(12) -0.02390(10) 0.65420(7) 0.01741(18) Uani d 1
N N2 -0.27498(12) -0.49794(10) 0.56946(8) 0.01714(18) Uani d 1
C C11 0.08154(14) -0.15978(12) 0.62572(8) 0.0172(2) Uani d 1
H H11 0.2173 -0.1828 0.6269 0.021 Uiso calc 1
C C12 -0.02469(14) -0.26806(11) 0.59461(8) 0.0162(2) Uani d 1
H H12 0.0370 -0.3642 0.5763 0.019 Uiso calc 1
C C13 -0.22341(13) -0.23357(11) 0.59063(8) 0.01402(19) Uani d 1
C C14 -0.30763(14) -0.09026(11) 0.61693(8) 0.0162(2) Uani d 1
H H14 -0.4427 -0.0616 0.6128 0.019 Uiso calc 1
C C15 -0.19011(15) 0.00962(11) 0.64918(9) 0.0179(2) Uani d 1
H H15 -0.2478 0.1062 0.6686 0.021 Uiso calc 1
C C16 -0.34835(13) -0.34414(11) 0.55557(8) 0.01457(19) Uani d 1
H H2B -0.166(2) -0.5365(17) 0.6088(12) 0.025(3) Uiso d 1
H H2C -0.348(2) -0.5673(17) 0.5473(12) 0.027(3) Uiso d 1
H H2 0.157(3) 0.082(2) 0.6946(16) 0.059(5) Uiso d 1
loop_
_atom_site_aniso_label
_atom_site_aniso_U_11
_atom_site_aniso_U_22
_atom_site_aniso_U_33
_atom_site_aniso_U_12
_atom_site_aniso_U_13
_atom_site_aniso_U_23
O1 0.0193(4) 0.0201(4) 0.0391(5) 0.0010(3) -0.0109(3) -0.0082(3)
O2 0.0180(4) 0.0173(4) 0.0394(5) -0.0015(3) -0.0068(3) -0.0118(3)
C1 0.0169(5) 0.0210(5) 0.0221(5) -0.0019(4) -0.0012(4) -0.0072(4)
C2 0.0247(5) 0.0198(5) 0.0217(5) -0.0040(4) 0.0000(4) -0.0091(4)
C3 0.0221(5) 0.0242(5) 0.0146(4) -0.0090(4) -0.0007(4) -0.0047(4)
C4 0.0163(5) 0.0248(5) 0.0177(5) -0.0037(4) -0.0021(4) -0.0032(4)
C5 0.0195(5) 0.0173(4) 0.0180(4) -0.0020(4) -0.0013(4) -0.0041(4)
C6 0.0180(5) 0.0176(5) 0.0145(4) -0.0044(4) -0.0010(4) -0.0037(4)
C7 0.0151(4) 0.0177(4) 0.0177(4) -0.0024(3) -0.0024(3) -0.0035(4)
C8 0.0144(4) 0.0183(5) 0.0218(5) -0.0022(3) -0.0030(4) -0.0050(4)
C9 0.0171(4) 0.0150(4) 0.0170(4) -0.0029(3) -0.0014(3) -0.0029(3)
C10 0.0263(6) 0.0314(6) 0.0248(5) -0.0126(4) -0.0019(4) -0.0104(4)
O3 0.0157(3) 0.0170(3) 0.0296(4) -0.0006(3) -0.0075(3) -0.0066(3)
N1 0.0191(4) 0.0153(4) 0.0186(4) -0.0048(3) -0.0028(3) -0.0035(3)
N2 0.0136(4) 0.0151(4) 0.0241(4) -0.0012(3) -0.0048(3) -0.0068(3)
C11 0.0136(4) 0.0179(4) 0.0205(5) -0.0035(3) -0.0012(3) -0.0041(4)
C12 0.0152(4) 0.0150(4) 0.0193(5) -0.0017(3) -0.0004(3) -0.0058(3)
C13 0.0144(4) 0.0138(4) 0.0142(4) -0.0035(3) -0.0012(3) -0.0026(3)
C14 0.0143(4) 0.0152(4) 0.0189(5) -0.0014(3) -0.0012(3) -0.0035(4)
C15 0.0202(5) 0.0131(4) 0.0210(5) -0.0012(3) -0.0017(4) -0.0052(4)
C16 0.0133(4) 0.0159(4) 0.0156(4) -0.0034(3) -0.0003(3) -0.0048(3)
loop_
_atom_type_symbol
_atom_type_description
_atom_type_scat_dispersion_real
_atom_type_scat_dispersion_imag
_atom_type_scat_source
C C 0.0033 0.0016 'International Tables Vol C Tables 4.2.6.8 and 6.1.1.4'
H H 0.0000 0.0000 'International Tables Vol C Tables 4.2.6.8 and 6.1.1.4'
N N 0.0061 0.0033 'International Tables Vol C Tables 4.2.6.8 and 6.1.1.4'
O O 0.0106 0.0060 'International Tables Vol C Tables 4.2.6.8 and 6.1.1.4'
loop_
_geom_angle_atom_site_label_1
_geom_angle_atom_site_label_2
_geom_angle_atom_site_label_3
_geom_angle
C9 O2 H2 109.3(11)
C2 C1 H1 119.4
C2 C1 C6 121.11(9)
C6 C1 H1 119.4
C1 C2 H2A 119.6
C3 C2 C1 120.81(9)
C3 C2 H2A 119.6
C2 C3 C4 118.22(9)
C2 C3 C10 120.89(10)
C4 C3 C10 120.88(10)
C3 C4 H4 119.3
C5 C4 C3 121.36(9)
C5 C4 H4 119.3
C4 C5 H5 119.7
C4 C5 C6 120.52(9)
C6 C5 H5 119.7
C1 C6 C7 118.56(9)
C5 C6 C1 117.97(9)
C5 C6 C7 123.47(9)
C6 C7 H7 116.1
C8 C7 C6 127.89(9)
C8 C7 H7 116.1
C7 C8 H8 119.6
C7 C8 C9 120.80(9)
C9 C8 H8 119.6
O1 C9 O2 123.16(9)
O1 C9 C8 124.02(9)
O2 C9 C8 112.80(8)
C3 C10 H10A 109.5
C3 C10 H10B 109.5
C3 C10 H10C 109.5
H10A C10 H10B 109.5
H10A C10 H10C 109.5
H10B C10 H10C 109.5
C15 N1 C11 118.12(8)
C16 N2 H2B 121.4(9)
C16 N2 H2C 118.1(9)
H2B N2 H2C 119.9(12)
N1 C11 H11 118.6
N1 C11 C12 122.86(9)
C12 C11 H11 118.6
C11 C12 H12 120.6
C11 C12 C13 118.81(9)
C13 C12 H12 120.6
C12 C13 C14 118.61(9)
C12 C13 C16 121.87(8)
C14 C13 C16 119.49(8)
C13 C14 H14 120.7
C15 C14 C13 118.57(9)
C15 C14 H14 120.7
N1 C15 C14 122.98(9)
N1 C15 H15 118.5
C14 C15 H15 118.5
O3 C16 N2 123.62(9)
O3 C16 C13 119.81(8)
N2 C16 C13 116.56(8)
loop_
_geom_bond_atom_site_label_1
_geom_bond_atom_site_label_2
_geom_bond_distance
O1 C9 1.2177(12)
O2 C9 1.3188(12)
O2 H2 0.97(2)
C1 H1 0.9500
C1 C2 1.3897(14)
C1 C6 1.4018(13)
C2 H2A 0.9500
C2 C3 1.3887(15)
C3 C4 1.3964(15)
C3 C10 1.5110(14)
C4 H4 0.9500
C4 C5 1.3886(14)
C5 H5 0.9500
C5 C6 1.3982(14)
C6 C7 1.4640(13)
C7 H7 0.9500
C7 C8 1.3336(14)
C8 H8 0.9500
C8 C9 1.4804(13)
C10 H10A 0.9800
C10 H10B 0.9800
C10 H10C 0.9800
O3 C16 1.2346(12)
N1 C11 1.3404(13)
N1 C15 1.3393(13)
N2 C16 1.3361(12)
N2 H2B 0.898(15)
N2 H2C 0.920(15)
C11 H11 0.9500
C11 C12 1.3843(13)
C12 H12 0.9500
C12 C13 1.3910(13)
C13 C14 1.3939(13)
C13 C16 1.5066(12)
C14 H14 0.9500
C14 C15 1.3862(13)
C15 H15 0.9500
loop_
_geom_hbond_atom_site_label_D
_geom_hbond_atom_site_label_H
_geom_hbond_atom_site_label_A
_geom_hbond_site_symmetry_A
_geom_hbond_distance_DH
_geom_hbond_distance_HA
_geom_hbond_distance_DA
_geom_hbond_angle_DHA
N2 H2B O1 1_545 0.898(15) 2.052(15) 2.9393(11) 169.5(12)
N2 H2C O3 2_446 0.920(15) 1.962(15) 2.8796(11) 174.4(12)
O2 H2 N1 . 0.97(2) 1.66(2) 2.6179(11) 167.6(17)
loop_
_geom_torsion_atom_site_label_1
_geom_torsion_atom_site_label_2
_geom_torsion_atom_site_label_3
_geom_torsion_atom_site_label_4
_geom_torsion
C1 C2 C3 C4 0.55(15)
C1 C2 C3 C10 179.64(10)
C1 C6 C7 C8 -176.74(10)
C2 C1 C6 C5 -0.36(15)
C2 C1 C6 C7 -179.99(9)
C2 C3 C4 C5 -0.63(15)
C3 C4 C5 C6 0.22(15)
C4 C5 C6 C1 0.28(14)
C4 C5 C6 C7 179.89(9)
C5 C6 C7 C8 3.65(16)
C6 C1 C2 C3 -0.06(16)
C6 C7 C8 C9 178.93(9)
C7 C8 C9 O1 4.44(16)
C7 C8 C9 O2 -174.40(9)
C10 C3 C4 C5 -179.73(9)
N1 C11 C12 C13 1.18(15)
C11 N1 C15 C14 0.56(15)
C11 C12 C13 C14 0.71(14)
C11 C12 C13 C16 178.92(9)
C12 C13 C14 C15 -1.85(14)
C12 C13 C16 O3 -154.72(10)
C12 C13 C16 N2 24.08(13)
C13 C14 C15 N1 1.26(15)
C14 C13 C16 O3 23.48(14)
C14 C13 C16 N2 -157.72(9)
C15 N1 C11 C12 -1.81(15)
C16 C13 C14 C15 179.89(8)
