#------------------------------------------------------------------------------
#$Date: 2016-08-02 11:28:22 +0300 (Tue, 02 Aug 2016) $
#$Revision: 184760 $
#$URL: file:///home/coder/svn-repositories/cod/cif/2/10/76/2107636.cif $
#------------------------------------------------------------------------------
#
# This file is available in the Crystallography Open Database (COD),
# http://www.crystallography.net/. The original data for this entry
# were provided by IUCr Journals, http://journals.iucr.org/.
#
# The file may be used within the scientific community so long as
# proper attribution is given to the journal article from which the
# data were obtained.
#
data_2107636
loop_
_publ_author_name
'Tyagi, Nidhi'
'Sinha, Nidhi'
'Yadav, Harsh'
'Kumar, Binay'
_publ_section_title
;
 Growth, morphology, structure and characterization of
 <small>L</small>-histidinium dihydrogen arsenate orthoarsenic acid single
 crystal
;
_journal_coeditor_code           GW5042
_journal_issue                   4
_journal_name_full               'Acta Crystallographica Section B'
_journal_page_first              593
_journal_page_last               601
_journal_paper_doi               10.1107/S2052520616007629
_journal_volume                  72
_journal_year                    2016
_chemical_formula_moiety         'C6 H10 N3 O2, As H3 O4, As H2 O4'
_chemical_formula_sum            'C6 H15 As2 N3 O10'
_chemical_formula_weight         439.05
_chemical_name_systematic
;
 ?
;
_space_group_crystal_system      monoclinic
_space_group_IT_number           4
_space_group_name_Hall           'P 2yb'
_space_group_name_H-M_alt        'P 1 21 1'
_symmetry_space_group_name_Hall  'P 2yb'
_symmetry_space_group_name_H-M   'P 1 21 1'
_atom_sites_solution_hydrogens   geom
_audit_creation_method           SHELXL-2013
_cell_angle_alpha                90
_cell_angle_beta                 108.690(7)
_cell_angle_gamma                90
_cell_formula_units_Z            2
_cell_length_a                   9.2196(6)
_cell_length_b                   8.9077(6)
_cell_length_c                   8.8300(6)
_cell_measurement_reflns_used    2792
_cell_measurement_temperature    303(2)
_cell_measurement_theta_max      29.0490
_cell_measurement_theta_min      3.3090
_cell_volume                     686.93(8)
_computing_structure_refinement  'SHELXL-2013 (Sheldrick, 2013)'
_diffrn_ambient_temperature      303(2)
_diffrn_measured_fraction_theta_full 0.992
_diffrn_measured_fraction_theta_max 0.806
_diffrn_measurement_device_type  'Xcalibur, Sapphire3'
_diffrn_measurement_method       '\w scans'
_diffrn_radiation_type           MoK\a
_diffrn_radiation_wavelength     0.71073
_diffrn_reflns_av_R_equivalents  0.0622
_diffrn_reflns_limit_h_max       11
_diffrn_reflns_limit_h_min       -11
_diffrn_reflns_limit_k_max       11
_diffrn_reflns_limit_k_min       -12
_diffrn_reflns_limit_l_max       12
_diffrn_reflns_limit_l_min       -10
_diffrn_reflns_number            5060
_diffrn_reflns_theta_full        25.242
_diffrn_reflns_theta_max         29.951
_diffrn_reflns_theta_min         3.267
_exptl_absorpt_coefficient_mu    4.921
_exptl_absorpt_correction_T_max  0.292
_exptl_absorpt_correction_T_min  0.238
_exptl_absorpt_correction_type   multi-scan
_exptl_absorpt_process_details   'CrysAlisPro Agilent Technologies'
_exptl_crystal_density_diffrn    2.123
_exptl_crystal_description       Prism
_exptl_crystal_F_000             436
_exptl_crystal_size_max          0.5
_exptl_crystal_size_mid          0.25
_exptl_crystal_size_min          0.25
_refine_diff_density_max         0.240
_refine_diff_density_min         -0.501
_refine_ls_abs_structure_details
;
 Flack x determined using 1009 quotients [(I+)-(I-)]/[(I+)+(I-)]
 (Parsons and Flack (2004), Acta Cryst. A60, s61).
;
_refine_ls_abs_structure_Flack   -0.04(3)
_refine_ls_extinction_coef       0.32(3)
_refine_ls_extinction_expression Fc^*^=kFc[1+0.001xFc^2^\l^3^/sin(2\q)]^-1/4^
_refine_ls_extinction_method     SHELXL
_refine_ls_goodness_of_fit_ref   1.121
_refine_ls_hydrogen_treatment    constr
_refine_ls_matrix_type           full
_refine_ls_number_parameters     191
_refine_ls_number_reflns         2819
_refine_ls_number_restraints     1
_refine_ls_restrained_S_all      1.121
_refine_ls_R_factor_all          0.0716
_refine_ls_R_factor_gt           0.0689
_refine_ls_shift/su_max          0.005
_refine_ls_shift/su_mean         0.000
_refine_ls_structure_factor_coef Fsqd
_refine_ls_weighting_details
'w=1/[\s^2^(Fo^2^)+(0.1440P)^2^] where P=(Fo^2^+2Fc^2^)/3'
_refine_ls_weighting_scheme      calc
_refine_ls_wR_factor_gt          0.1969
_refine_ls_wR_factor_ref         0.2026
_reflns_number_gt                2706
_reflns_number_total             3979
_reflns_threshold_expression     'I > 2\s(I)'
_cod_data_source_file            gw5042sup1.cif
_cod_data_source_block           I
_cod_database_code               2107636
_shelx_space_group_comment
;
The symmetry employed for this shelxl refinement is uniquely defined
by the following loop, which should always be used as a source of
symmetry information in preference to the above space-group names.
They are only intended as comments.
;
_shelx_hkl_file
;
   0 -12   0 18019.4 3581.91   6
   0 -12   2 10441.5 2367.68   4
   0 -11   0-202.039 668.186   6
   0 -11   0 337.219 191.838   4
   0 -11   1 4620.65 1618.76   6
   0 -11   1 4975.44 1574.29   4
   0 -11  -1 2896.26 1251.90   6
   0 -11  -2 4982.11 1692.07   6
   0 -11   2 7853.57 2009.58   4
   0 -11  -3 3885.98 1780.89   6
   0 -11   3 5091.98 1532.62   4
   0 -11   4 4980.30 1718.94   4
   0 -10   0 2031.19 859.189   4
   0 -10   0-1305.53 1159.08   6
   0 -10   1 828.000 410.573   6
   0 -10  -1 637.065 715.719   6
   0 -10   1 2907.76 921.285   4
   0 -10  -1 2016.11 739.253   4
   0 -10   2 11234.4 2198.65   4
   0 -10   2 9678.66 2119.04   6
   0 -10  -2 7049.02 1562.43   6
   0 -10  -2 7384.43 1401.90   4
   0 -10   3 13924.3 2550.31   4
   0 -10  -3 10961.7 2659.88   6
   0 -10   4 20951.0 3086.10   4
   0 -10  -4 21783.1 4109.01   6
   0 -10   5 24200.0 3441.14   4
   0  -9   0 123.162 334.397   4
   0  -9   0-177.816 928.601   6
   0  -9  -1 9483.92 1669.58   4
   0  -9   1 10418.0 1811.62   4
   0  -9   1 10092.3 2087.74   6
   0  -9  -1 9902.03 2222.77   6
   0  -9   2 36107.2 3730.83   6
   0  -9  -2 37360.0 4778.93   6
   0  -9   2 40805.0 3770.28   4
   0  -9  -3 17034.2 3271.69   6
   0  -9   3 18307.4 2714.00   4
   0  -9   4 37162.3 3874.96   4
   0  -9  -4 39390.0 5255.85   6
   0  -9  -5 34526.7 5039.81   6
   0  -9   5 31606.7 3874.16   4
   0  -9  -6 56564.9 6639.81   6
   0  -9   6 45375.5 4757.45   4
   0  -8   0 205537. 7563.77   4
   0  -8   0 190031. 9486.56   6
   0  -8   1 219434. 7993.33   4
   0  -8   1 217056. 9573.62   6
   0  -8   2 22968.2 2706.55   4
   0  -8   2 23058.1 2878.10   6
   0  -8  -3 28144.5 2426.08   5
   0  -8   3 31143.6 3230.93   6
   0  -8   3 35469.6 3512.82   4
   0  -8   4 62773.7 4879.59   4
   0  -8   5 20440.7 2882.35   4
   0  -8   6 41492.3 4350.69   4
   0  -8  -6 50126.9 5976.09   6
   0  -8  -7 10416.4 2527.77   6
   0  -8   7 11441.5 2469.80   4
   0  -7   0-79.0091 146.394   4
   0  -7   1 130197. 5727.30   4
   0  -7   1 122913. 6728.15   6
   0  -7   2 243896. 8128.76   4
   0  -7   2 234254. 8630.70   6
   0  -7   3 215587. 7573.24   6
   0  -7   3 258301. 9171.10   4
   0  -7   4 200518. 8250.18   4
   0  -7   5 58121.4 4699.11   4
   0  -7   6 9673.61 2086.35   4
   0  -7  -7-602.373 1505.16   6
   0  -7   7 280.288 511.985   4
   0  -7  -8 6247.73 1981.61   6
   0  -7   8 4273.02 1106.23   4
   0  -7  -9 7848.32 2426.92   6
   0  -6   1 384502. 9239.24   4
   0  -6   2 97881.5 5099.28   6
   0  -6   2 97188.9 4840.63   4
   0  -6   3 5335.86 1013.79   6
   0  -6  -3 4976.15 763.644   5
   0  -6   3 6032.57 1381.12   4
   0  -6   4 50234.5 2783.45   6
   0  -6   4 53102.8 4129.86   4
   0  -6  -4 50820.5 2055.97   5
   0  -6   5 113759. 6431.97   4
   0  -6   6 79454.8 5653.58   4
   0  -6   7 2990.81 1081.79   4
   0  -6   8 4792.64 1353.28   4
   0  -6  -8 8999.98 2405.34   6
   0  -6   9 2633.07 1303.58   4
   0  -6  -9 2516.69 1219.18   6
   0  -6 -10 52175.0 5906.60   6
   0  -5   1 115410. 4650.19   4
   0  -5   2 58810.0 3498.68   6
   0  -5   2 60336.8 3583.67   4
   0  -5  -3 289139. 6636.04   1
   0  -5   3 277036. 8485.40   4
   0  -5   3 241912. 6341.01   6
   0  -5  -3 233280. 4866.98   5
   0  -5   4 86644.8 3022.43   6
   0  -5  -4 74629.7 1867.27   5
   0  -5   4 87646.4 5072.65   4
   0  -5   5 150537. 7306.87   4
   0  -5   6 83929.0 5840.69   4
   0  -5   7 112024. 7305.73   4
   0  -5  -8 84219.0 6851.15   6
   0  -5   8 70770.9 6035.74   4
   0  -5   9 7629.02 2140.77   4
   0  -5  -9 8397.78 2166.80   6
   0  -5 -10 3193.08 1387.49   6
   0  -4   0 129958. 4131.90   2
   0  -4   1 102572. 3659.72   2
   0  -4   1 102270. 3993.04   4
   0  -4   2 77929.7 3456.49   6
   0  -4   2 73609.7 3169.76   2
   0  -4   2 82719.4 3875.74   4
   0  -4  -2 78687.9 3030.38   1
   0  -4  -3 110377. 2566.39   5
   0  -4   3 138368. 5674.64   4
   0  -4   3 121805. 3674.61   6
   0  -4  -3 143878. 4245.63   1
   0  -4   4 65708.6 4332.10   4
   0  -4   5 88665.8 5475.56   4
   0  -4   6 14769.5 2446.86   4
   0  -4   7 53449.7 4881.30   4
   0  -4   8 62446.3 5794.07   4
   0  -4   8 74220.2 7076.11   2
   0  -4   9 149650. 10165.2   2
   0  -4   9 132238. 8787.62   4
   0  -4  -9 143606. 8626.82   6
   0  -4  10 145427. 9499.60   4
   0  -4 -10 142417. 8563.90   6
   0  -3   0 1770.70 389.912   2
   0  -3   1 153649. 3800.90   2
   0  -3   1 168574. 4611.57   4
   0  -3   2 15702.1 1281.78   6
   0  -3   2 16541.1 1643.73   4
   0  -3  -2 16795.7 1467.36   3
   0  -3  -2 16364.4 1229.48   1
   0  -3  -3 9189.08 1178.46   3
   0  -3   3 8506.28 1418.06   4
   0  -3   3 7419.80 615.747   6
   0  -3   4 134066. 5968.64   4
   0  -3   5 263585. 9344.28   4
   0  -3   6 383157. 12383.9   4
   0  -3   7 252679. 10942.1   4
   0  -3   7 265359. 13220.8   2
   0  -3   8 108120. 7558.85   4
   0  -3  -8 111981. 6921.88   6
   0  -3   8 117166. 8729.57   2
   0  -3  -9 8487.28 1811.73   6
   0  -3   9 9372.53 2332.94   4
   0  -3   9 11501.3 2846.35   2
   0  -3  10 4533.13 1525.35   4
   0  -2   0 266185. 4205.36   2
   0  -2   1 144122. 3704.33   4
   0  -2  -1 156744. 3726.73   2
   0  -2  -2 203960. 3869.04   1
   0  -2  -2 212230. 4806.64   3
   0  -2   3 2531.50 822.642   4
   0  -2   4 123980. 5841.82   4
   0  -2  -4 89387.0 4622.95   4
   0  -2   5 156647. 7351.07   4
   0  -2   6 92247.3 6205.83   4
   0  -2   6 92815.3 7486.76   2
   0  -2   7 54164.2 5636.71   2
   0  -2   7 54413.4 5210.13   4
   0  -2   8 31014.0 4408.47   2
   0  -2  -8 30670.5 3374.51   6
   0  -2   8 28251.6 3907.15   4
   0  -2   9 165628. 10470.2   2
   0  -2  -9 142698. 7419.82   6
   0  -2   9 159110. 10198.7   4
   0  -2  10 135136. 9933.48   2
   0  -2  10 155044. 10858.0   4
   0  -1  -1 104809. 2089.25   1
   0  -1  -1 112624. 2554.94   3
   0  -1   2 530082. 8716.41   4
   0  -1  -2 564958. 8771.98   2
   0  -1  -3 555112. 10886.8   2
   0  -1   3 505838. 10782.8   4
   0  -1   4 370345. 10530.4   4
   0  -1  -4 296498. 9137.44   4
   0  -1   5 229647. 10721.6   2
   0  -1   5 224723. 9382.73   4
   0  -1   6 102987. 7031.79   4
   0  -1   6 98396.7 7084.79   2
   0  -1   7 47047.3 5216.43   2
   0  -1   7 49216.8 5043.93   4
   0  -1   8 69951.1 6643.02   2
   0  -1  -8 66711.7 4520.06   6
   0  -1   8 74831.1 6880.63   4
   0  -1   9 8768.31 2468.22   2
   0  -1   9 9522.46 2280.90   4
   0  -1  10 1288.88 1067.47   2
   0  -1  11 4567.19 1742.06   2
   0   0  -2 383818. 7959.41   4
   0   0   2 359729. 8835.21   2
   0   0  -3 16583.7 1990.65   4
   0   0   3 14044.9 1983.33   2
   0   0   3 15922.4 2098.49   4
   0   0   4 158582. 7451.38   4
   0   0   4 151065. 7550.12   2
   0   0   5 447765. 14098.0   2
   0   0   5 524139. 15765.2   4
   0   0   6 176468. 10266.5   4
   0   0   6 135091. 8272.74   2
   0   0   7 15805.9 3078.20   2
   0   0   7 17956.2 3068.25   4
   0   0  -7 16444.9 1991.57   6
   0   0  -8 3487.60 908.884   6
   0   0   8 4633.87 1655.57   2
   0   0   9 41945.3 5474.94   2
   0   0  10 2725.87 1340.31   2
   0   0  11 29625.2 4852.97   2
   0   1  -2 554127. 9343.71   4
   0   1   2 600024. 9333.69   2
   0   1   3 505466. 10964.7   2
   0   1  -3 454150. 10158.0   4
   0   1   4 354984. 10808.3   2
   0   1  -5 297458. 5839.63   6
   0   1   5 227116. 9712.15   2
   0   1  -6 97598.0 3784.10   6
   0   1   6 77774.9 6224.78   2
   0   1  -7 57171.6 3082.80   6
   0   1   7 50905.6 5319.00   2
   0   1   8 58681.2 5904.95   2
   0   1   9 9656.26 2584.44   2
   0   1  10 447.314 970.623   2
   0   1  11 4043.43 1064.16   2
   0   2   0 317650. 4420.68   2
   0   2   1 130370. 3455.41   2
   0   2   2 248623. 6026.04   2
   0   2   2 237823. 5695.78   3
   0   2  -2 235195. 6285.61   4
   0   2   3 7625.22 1451.69   2
   0   2   3 6147.20 938.173   1
   0   2   3 6288.98 1195.56   3
   0   2   4 145953. 6886.39   2
   0   2   4 117479. 6729.54   3
   0   2   5 108293. 3556.54   5
   0   2   5 116606. 6897.00   2
   0   2   5 107404. 7820.07   3
   0   2   6 89403.7 6660.31   2
   0   2   7 44820.8 2241.05   5
   0   2   7 35554.6 4544.28   2
   0   2   8 21949.6 3748.15   2
   0   2   8 47760.5 7366.68   3
   0   2   9 279618. 18131.6   3
   0   2   9 143481. 10213.4   2
   0   2  10 227784. 17245.8   3
   0   2  10 112411. 9521.82   2
   0   2  11 58549.9 7068.63   2
   0   2  11 144159. 14636.4   3
   0   3   0 1075.87 359.138   2
   0   3   1 191848. 4870.06   2
   0   3   2 19344.1 1821.08   2
   0   3   3 9887.54 1433.64   2
   0   3   4 109257. 5128.30   1
   0   3   4 120454. 6091.36   2
   0   3   4 114299. 6468.59   3
   0   3   5 193496. 8433.76   1
   0   3   5 195381. 9897.85   3
   0   3   6 351895. 13441.7   2
   0   3   6 321346. 15233.0   3
   0   3   7 224790. 14311.7   3
   0   3   7 224411. 11695.3   2
   0   3   8 118925. 11349.4   3
   0   3   8 90793.8 7953.31   2
   0   3   8 126962. 10466.1   1
   0   3   9 20232.6 6234.65   3
   0   3   9 5479.10 1902.60   2
   0   3  10 4998.27 1913.23   2
   0   3  10 10908.7 5064.41   3
   0   3  11 58579.0 9166.63   3
   0   3  11 26985.6 4926.94   2
   0   4   0 127527. 4086.02   2
   0   4   1 110093. 4134.63   2
   0   4   2 84562.7 4082.51   2
   0   4   3 137076. 6011.15   2
   0   4   4 60525.4 4494.91   2
   0   4   5 88916.6 6080.54   2
   0   4   5 79935.3 6023.12   3
   0   4   6 10135.1 2260.69   2
   0   4   6 11063.0 2887.99   3
   0   4   6 15508.6 2526.55   1
   0   4   7 53858.4 5717.68   2
   0   4   7 61128.9 5710.47   1
   0   4   8 38790.8 6222.37   3
   0   4   8 51305.4 6061.97   2
   0   4   9 131706. 10537.8   2
   0   4   9 121618. 12245.1   3
   0   4  10 164902. 14880.7   3
   0   4  10 120724. 10482.9   2
   0   4  11 77301.5 10431.5   3
   0   5   0 325.493 345.803   2
   0   5   1 135160. 5178.18   2
   0   5   2 60866.5 3812.01   2
   0   5   3 309246. 9553.17   2
   0   5   4 79972.1 5482.10   2
   0   5   5 149172. 8252.04   2
   0   5   6 83209.7 6822.39   2
   0   5   7 105697. 8317.54   2
   0   5   8 65998.8 6977.58   2
   0   5   9-4556.51 4825.30   3
   0   5   9 9312.91 2653.30   2
   0   6   0 438589. 9584.60   2
   0   6   1 510649. 10688.2   2
   0   6   2 107668. 5358.74   2
   0   6   3 5615.28 1510.62   2
   0   6   4 70538.0 5345.63   2
   0   6   5 108753. 7410.76   2
   0   6   6 71381.8 6534.69   2
   0   6   7 3301.72 1574.06   2
   0   6   8 7107.27 2274.15   2
   0   6   9 5737.12 2581.62   2
   0   7   1 153226. 6522.61   2
   0   7   2 275209. 9361.60   2
   0   7   3 273178. 10152.4   2
   0   7   4 204703. 9835.73   2
   0   7   5 66647.3 6123.52   2
   0   7   6 10338.5 2975.41   2
   0   7   7 2900.01 2354.24   2
   0   7   8 5140.38 2554.40   2
   0   8   1 284792. 9848.42   2
   0   8   2 30705.2 3365.60   2
   0   8   3 42560.5 4355.21   2
   0   8   4 53815.9 5172.24   2
   0   8   5 18187.5 3184.29   2
   0   8   6 46464.8 5726.43   2
   0   8   7 19991.2 4491.53   2
   0   9   1 16146.9 2590.02   2
   0   9   2 50626.5 4642.38   2
   0   9   3 21358.5 3241.04   2
   0   9   4 41217.0 4924.54   2
   0   9   5 35254.7 4959.00   2
   0   9   6 45594.7 5872.53   2
   0  10   2 12290.8 2663.21   2
   0  10   3 18486.5 3300.99   2
   0  10   4 24735.8 3982.96   2
   0  10   5 30899.8 4821.24   2
   0  11   3 9188.72 2816.75   2
   1 -12  -1 21904.0 4025.55   6
  -1 -12   1 24805.0 3430.29   4
  -1 -12   0 30689.2 4883.97   6
  -1 -11   3 65799.5 5714.42   4
   1 -11  -3 55808.3 6836.20   6
  -1 -11   2 40519.8 4179.69   4
   1 -11  -2 34652.3 5081.86   6
  -1 -11   1 37569.8 3942.53   4
  -1 -11   1 34465.9 4661.53   6
   1 -11  -1 30853.3 4420.41   6
  -1 -11   0 2112.41 1358.09   6
  -1 -11   0 712.508 313.455   4
  -1 -11  -1 6711.09 1572.28   4
   1 -11   1 9763.27 2178.07   4
  -1 -11  -1 8344.35 2547.24   6
   1 -11   2 31194.6 3721.38   4
  -1 -11  -2 26627.5 4532.94   6
   1 -11   3 30123.6 3842.44   4
   1 -11   4 31248.5 4076.26   4
  -1 -10   5 42544.7 4388.53   4
  -1 -10   4 20118.8 3067.24   4
  -1 -10   3 1800.48 937.678   4
  -1 -10   2 37386.6 3874.50   4
  -1 -10   2 35902.8 4331.05   6
  -1 -10   1 77063.9 6690.27   6
   1 -10  -1 78336.4 5143.90   4
  -1 -10   1 77123.9 5511.96   4
   1 -10   0 128278. 6791.43   4
   1 -10   0 108051. 8033.32   6
  -1 -10   0 120726. 6680.80   4
  -1 -10   0 107834. 8050.33   6
   1 -10   1 66488.0 5145.11   4
  -1 -10  -1 56380.2 6118.77   6
   1 -10   1 55475.4 5363.48   6
   1 -10   2 22604.2 3080.55   4
  -1 -10  -2 24297.1 4155.25   6
   1 -10   3 9212.71 1977.87   4
  -1 -10  -3 7874.88 2320.17   6
  -1 -10  -4 11019.4 2841.29   6
   1 -10   4 10086.3 2387.99   4
   1 -10   5 5818.18 1811.22   4
  -1  -9   6 30251.3 3701.05   4
  -1  -9   5 42044.0 4217.35   4
  -1  -9   4 67853.0 5305.29   4
  -1  -9   3 91221.5 6164.34   6
  -1  -9   3 90315.8 5750.71   4
   1  -9  -2 92695.8 5176.03   4
  -1  -9   2 91641.5 5551.38   4
  -1  -9   2 87470.2 6318.14   6
   1  -9  -2 86891.4 5172.54   5
  -1  -9   1 38442.6 4348.80   6
  -1  -9   1 41811.8 3826.57   4
   1  -9  -1 43043.0 3506.72   4
  -1  -9   0-373.695 486.745   6
   1  -9   0 728.441 515.708   4
   1  -9   1 8768.82 1846.46   4
  -1  -9  -1 8505.43 2226.97   6
  -1  -9  -2 62583.8 6479.87   6
   1  -9   2 55795.8 4793.93   6
   1  -9   2 64651.0 4886.13   4
  -1  -9  -3 29262.7 4329.27   6
   1  -9   3 29823.6 3457.01   4
   1  -9   4 36255.6 4105.02   4
  -1  -9  -4 40304.6 5403.89   6
  -1  -9  -5 30067.3 4921.65   6
   1  -9   5 25527.4 3486.00   4
  -1  -9  -6 33367.3 5384.64   6
   1  -9   6 26068.4 3905.32   4
  -1  -8   7 7924.69 1936.58   4
  -1  -8   6 13468.9 2501.07   4
  -1  -8   5 31606.9 3582.83   4
  -1  -8   4 18017.5 2605.80   4
   1  -8  -3 3679.67 877.410   5
  -1  -8   3 4515.90 1404.49   6
  -1  -8   3 3845.68 1107.29   4
  -1  -8   2 21155.7 2533.97   4
   1  -8  -2 21141.3 2163.47   4
  -1  -8   2 23217.0 3014.00   6
  -1  -8   1 53309.3 4649.40   6
   1  -8  -1 59995.6 3898.57   4
  -1  -8   1 52444.1 3929.62   4
   1  -8   0 93521.1 5040.18   4
  -1  -8   0 87434.1 6567.51   6
  -1  -8  -1 44257.3 4865.55   6
   1  -8   1 52075.7 3918.66   4
   1  -8   2 14912.2 2237.43   4
  -1  -8  -2 13287.8 2683.17   6
   1  -8   3 28928.8 3274.95   4
  -1  -8  -3 27336.8 4021.65   6
  -1  -8  -4 67389.1 6786.09   6
   1  -8   4 62472.3 5139.20   4
  -1  -8  -5 66833.0 7011.87   6
   1  -8   5 54059.9 4997.89   4
  -1  -8  -6 29200.2 4552.89   6
   1  -8   6 25403.7 3816.17   4
  -1  -8  -7 1752.43 855.648   6
   1  -8   7 252.471 488.094   4
  -1  -7   8 40330.8 4520.46   4
  -1  -7   7 57003.6 5157.49   4
  -1  -7   6 76602.7 5566.56   4
  -1  -7   5 19621.2 2725.46   4
  -1  -7   4 6203.06 1486.71   4
  -1  -7   4 4163.35 870.505   6
   1  -7  -4 5340.84 950.756   5
  -1  -7   3 301.537 191.891   6
   1  -7  -3 204.842 265.700   5
  -1  -7   3 88.7104 310.373   4
  -1  -7   2 18989.2 2186.87   4
  -1  -7   2 18769.4 2504.97   6
   1  -7  -1 7889.76 1290.25   4
  -1  -7   1 7780.98 1687.49   6
  -1  -7   0 7748.01 1699.77   6
   1  -7   0 9975.44 1542.98   4
  -1  -7  -1 53652.4 5026.24   6
   1  -7   1 65361.0 4096.80   4
  -1  -7  -2 27896.8 3824.08   6
   1  -7   2 32162.6 3183.80   4
  -1  -7  -3 11784.9 2422.15   6
   1  -7   3 12351.4 2047.98   4
   1  -7   3 9648.01 1505.96   6
  -1  -7  -4 11561.6 2477.50   6
   1  -7   4 9338.94 1990.74   4
   1  -7   5 38603.7 4139.59   4
  -1  -7  -5 42538.3 5316.82   6
  -1  -7  -6 162785. 10506.6   6
   1  -7   6 140533. 8500.39   4
  -1  -7  -7 115594. 9101.60   6
   1  -7   7 87527.7 6885.60   4
   1  -7   8 80898.0 6947.98   4
  -1  -7  -8 98786.0 8513.81   6
   1  -6 -10 74822.5 6912.42   6
  -1  -6   9 39319.3 4538.34   4
  -1  -6   8 46306.0 4900.87   4
  -1  -6   7 12631.1 2283.79   4
  -1  -6   6 29621.0 3379.93   4
  -1  -6   5 46549.8 3983.59   4
  -1  -6   4 22704.7 2144.06   6
  -1  -6   4 22497.6 2627.63   4
   1  -6  -4 23400.2 1731.38   5
  -1  -6   3 31862.4 2828.95   6
   1  -6  -3 31656.4 2247.79   5
  -1  -6   3 31093.2 2849.48   4
  -1  -6   2 22720.9 2259.65   4
  -1  -6   2 21631.3 2489.14   6
   1  -6  -1 125976. 4674.37   4
  -1  -6   1 120779. 6317.68   6
  -1  -6   0 153932. 7614.17   6
   1  -6   0 177151. 5855.25   4
   1  -6   1 127356. 5443.31   4
  -1  -6  -1 115766. 6981.35   6
   1  -6   2 29144.7 2767.06   4
  -1  -6  -2 26981.4 3388.36   6
  -1  -6  -3 62295.2 5612.60   6
  -1  -6  -3 63744.1 2926.22   1
   1  -6   3 60429.1 4352.22   4
  -1  -6  -4 113871. 7829.10   6
   1  -6   4 104794. 6270.70   4
   1  -6   4 96432.1 3607.95   6
   1  -6   5 115091. 7013.89   4
  -1  -6  -5 134410. 8824.21   6
   1  -6   6 55590.3 5207.59   4
  -1  -6  -6 64608.6 6278.63   6
   1  -6   7 2397.41 878.546   4
  -1  -6  -7 3637.82 1149.17   6
  -1  -6  -8 60544.1 6271.70   6
   1  -6   8 49868.0 5397.41   4
  -1  -6  -9 54698.1 5866.50   6
  -1  -5  10 10974.2 2452.76   4
  -1  -5   9 5987.49 1194.83   4
  -1  -5   8 36961.7 4197.39   4
  -1  -5   7 24218.7 3256.44   4
  -1  -5   6 70282.4 5065.27   4
  -1  -5   5 150517. 6810.41   4
  -1  -5   5 133826. 2947.05   6
   1  -5  -4 214021. 4712.46   5
  -1  -5   4 209982. 5403.51   6
  -1  -5   4 223003. 7727.19   4
   1  -5  -3 279082. 6027.65   5
  -1  -5   3 280009. 6325.01   2
  -1  -5   3 272598. 7379.33   6
  -1  -5   3 293404. 8147.77   4
  -1  -5   2 212711. 7195.24   6
  -1  -5   2 245884. 7128.28   4
  -1  -5   2 243435. 5956.14   2
   1  -5  -2 221213. 5994.61   5
  -1  -5   1 217632. 7790.70   6
  -1  -5   0 22886.3 2649.16   6
   1  -5   0 25092.0 2031.97   4
   1  -5   1 99674.4 4466.61   4
  -1  -5  -1 97325.7 5881.28   6
   1  -5   2 107912. 5139.01   4
  -1  -5  -2 100328. 6462.83   6
  -1  -5  -3 234177. 10263.3   6
  -1  -5  -3 219185. 4717.43   1
   1  -5   3 231683. 8292.44   4
   1  -5   4 150430. 3450.28   6
   1  -5   4 157756. 2958.82   6
  -1  -5  -5 88339.3 6754.11   6
   1  -5   5 84639.0 6135.50   4
   1  -5   6 131529. 7745.07   4
  -1  -5  -6 163015. 9349.11   6
  -1  -5  -7 93719.7 7214.86   6
   1  -5   7 82962.0 6542.18   4
  -1  -5  -8 26916.5 3878.75   6
   1  -5   8 25520.1 3733.40   4
   1  -5   9 17497.7 3414.92   4
  -1  -5  -9 18170.2 3214.16   6
  -1  -5 -10 555.807 379.874   6
  -1  -4  10 9637.62 2469.33   4
  -1  -4   9 3407.05 1424.39   4
  -1  -4   8 48408.4 5028.77   2
  -1  -4   8 45574.2 4549.85   4
  -1  -4   7 59348.6 4932.57   4
  -1  -4   6 312363. 10291.6   4
  -1  -4   5 350171. 9972.47   4
   1  -4  -5 295060. 8228.13   4
   1  -4  -4 83970.9 2554.63   5
  -1  -4   4 82325.7 2776.05   6
  -1  -4   3 22144.9 1793.35   6
  -1  -4   3 23023.4 1576.41   2
   1  -4  -3 25025.3 2044.20   1
  -1  -4   3 23976.0 2132.47   4
   1  -4  -3 22155.0 1503.27   5
   1  -4  -2 142363. 4352.14   5
  -1  -4   2 146801. 3906.74   2
   1  -4  -2 153205. 4842.80   1
  -1  -4   2 148267. 5095.22   4
  -1  -4   2 136314. 5134.59   6
  -1  -4   1 346284. 6249.31   2
  -1  -4   1 321604. 8401.19   6
  -1  -4   0 310597. 6621.68   2
  -1  -4   0 306941. 9078.58   6
   1  -4   0 308493. 6385.21   4
   1  -4   1 293577. 7375.55   4
  -1  -4  -1 295722. 9566.09   6
   1  -4   2 86836.2 4401.95   4
  -1  -4  -2 88160.8 3338.45   3
  -1  -4  -2 80791.7 2559.75   1
   1  -4   3 7520.75 1572.10   4
   1  -4   4 37740.8 3631.32   4
  -1  -4  -4 42697.7 4266.90   6
  -1  -4  -5 74544.8 5752.90   6
   1  -4   5 64153.1 5081.37   4
  -1  -4  -6 30369.5 3741.86   6
   1  -4   6 24869.8 3404.64   4
  -1  -4  -7 7357.62 2102.97   6
   1  -4   7 7514.48 1922.61   4
  -1  -4  -8 43664.3 4870.29   6
   1  -4   8 36264.0 4674.36   4
  -1  -4  -9 3635.89 1392.40   6
   1  -4   9 3438.46 1292.69   4
   1  -4   9 4297.45 1772.85   2
  -1  -3  11 2560.09 626.590   4
  -1  -3  10 11844.7 2552.90   4
  -1  -3   9 25721.6 3641.20   4
  -1  -3   9 27874.5 3887.35   2
  -1  -3   8 34183.7 4129.16   2
  -1  -3   8 25145.2 3149.89   4
  -1  -3   7 51953.1 4551.19   4
  -1  -3   7 52672.4 5054.78   2
  -1  -3   6 105117. 5907.48   4
   1  -3  -5 156335. 6041.88   4
  -1  -3   5 212954. 7607.71   4
  -1  -3   4 536081. 5789.34   6
  -1  -3   4 532176. 11008.6   4
   1  -3  -3 417039. 7938.29   1
  -1  -3   3 422107. 8607.23   4
  -1  -3   3 432023. 6299.43   6
  -1  -3   2 387578. 7452.09   6
   1  -3  -2 455663. 8036.59   3
  -1  -3   2 401843. 5373.43   2
   1  -3  -2 455605. 7976.01   1
   1  -3  -2 389639. 6144.87   5
  -1  -3   2 404784. 7718.57   4
  -1  -3   1 190715. 3870.38   2
  -1  -3   1 178232. 5585.68   6
  -1  -3   0 55000.6 2358.80   2
   1  -3   0 55527.1 2399.44   4
  -1  -3   0 50815.2 3227.41   6
   1  -3   0 51387.1 2456.39   2
  -1  -3  -1 74774.9 3261.07   2
  -1  -3  -1 66849.3 4077.69   6
   1  -3   1 70295.8 3315.00   4
  -1  -3  -2 56611.7 4062.64   6
  -1  -3  -2 50376.6 1635.31   1
  -1  -3  -2 48824.8 2257.36   3
   1  -3   2 54979.5 3447.06   4
   1  -3   3 261368. 8538.78   4
   1  -3   3 232703. 3105.62   6
   1  -3   4 187122. 8022.56   4
  -1  -3  -4 197245. 8461.94   6
  -1  -3  -5 84923.7 5711.89   6
   1  -3   5 72533.9 5433.34   4
   1  -3   6 59669.3 5352.72   4
  -1  -3  -6 69139.7 5363.71   6
   1  -3   7 36969.7 4487.62   4
  -1  -3  -7 34637.2 3871.49   6
   1  -3   8 6832.90 2376.05   2
  -1  -3  -8 10863.4 2258.05   6
   1  -3   8 5474.40 1650.52   4
   1  -3   9 5161.53 2124.46   2
   1  -3   9 1808.07 706.198   4
   1  -3  10 735.672 778.514   4
   1  -3  10 3831.47 1874.35   2
  -1  -2  11 58891.8 6904.38   4
  -1  -2  10 48002.9 5502.20   4
  -1  -2  10 50538.8 5510.33   2
  -1  -2   9 80154.4 6549.88   2
  -1  -2   9 81854.9 6721.48   4
  -1  -2   8 77289.6 6231.47   4
  -1  -2   8 81624.6 6389.66   2
  -1  -2   7 99221.0 6676.36   2
  -1  -2   7 92951.4 6150.09   4
  -1  -2   6 154134. 7738.25   2
  -1  -2   6 183387. 8068.77   4
   1  -2  -5 290926. 8460.44   4
  -1  -2   5 301446. 10705.8   2
   1  -2  -4 140409. 5174.34   4
  -1  -2   4 184828. 6101.63   4
  -1  -2   3 181234. 3514.85   6
   1  -2  -3 196708. 5301.80   2
  -1  -2   3 187432. 5384.33   4
   1  -2  -2 285304. 6044.49   3
  -1  -2   2 258469. 4843.43   6
   1  -2  -2 271904. 5364.51   2
  -1  -2   2 257583. 5545.25   4
   1  -2  -2 268421. 5594.38   1
   1  -2  -2 249684. 4386.35   5
   1  -2  -1 383525. 6120.15   1
   1  -2  -1 355701. 5524.68   2
  -1  -2   1 344240. 6632.68   6
  -1  -2   1 299077. 3595.27   2
   1  -2  -1 325899. 5460.58   5
   1  -2   0 335164. 5304.63   4
   1  -2   0 347334. 5475.40   2
  -1  -2  -1 273751. 6174.70   2
  -1  -2  -1 277673. 7274.58   6
  -1  -2  -1 243682. 3670.85   3
   1  -2   1 234852. 5869.85   4
   1  -2   2 90685.6 4508.00   4
  -1  -2  -2 83546.4 4408.95   6
  -1  -2  -2 93910.8 4469.39   2
  -1  -2  -2 70911.8 1559.06   5
   1  -2   2 78456.2 1931.93   6
  -1  -2  -3 12943.3 1928.16   6
   1  -2   3 13528.1 1756.21   4
   1  -2   4 99634.3 6068.83   4
  -1  -2  -4 105025. 5594.38   6
  -1  -2  -5 246685. 9115.39   6
   1  -2   5 225446. 9851.38   4
  -1  -2  -6 50808.1 4261.56   6
   1  -2   6 48011.1 4907.15   4
   1  -2   7 14082.7 3410.26   2
   1  -2   7 12938.3 2438.02   4
  -1  -2  -7 14609.1 2345.57   6
   1  -2   8 21483.9 3507.17   4
   1  -2   8 19888.1 4074.50   2
  -1  -2  -8 23463.9 3005.04   6
   1  -2   9 147967. 10737.7   4
   1  -2   9 143176. 10640.7   2
   1  -2  10 43196.4 6172.98   2
   1  -2  11 71249.4 8126.81   2
  -1  -1  10 9601.96 2129.17   4
  -1  -1  10 8442.53 2264.11   2
  -1  -1   9 22063.4 3541.15   4
  -1  -1   9 20719.7 3404.39   2
  -1  -1   8 53849.9 5082.32   2
  -1  -1   8 60136.2 5422.71   4
  -1  -1   7 168735. 8555.96   2
  -1  -1   7 178500. 9060.44   4
  -1  -1   6 254905. 9849.06   2
  -1  -1   6 270860. 10008.4   4
  -1  -1   5 112948. 5763.26   4
  -1  -1   5 93918.0 5360.13   2
   1  -1  -4 164738. 5776.96   2
  -1  -1   4 133483. 5757.81   2
  -1  -1   4 154813. 5720.98   4
   1  -1  -4 143546. 5343.05   4
   1  -1  -3 161575. 4622.71   2
  -1  -1   3 128633. 4782.44   2
   1  -1  -3 140622. 4351.18   4
  -1  -1   3 153194. 4673.55   4
  -1  -1   2 393204. 5329.08   6
  -1  -1   2 400592. 5991.07   4
   1  -1  -1 23731.3 1296.45   5
  -1  -1   1 21808.2 1284.82   6
   1  -1  -1 24773.2 1326.60   3
   1  -1  -1 25440.5 1447.30   1
  -1  -1   0 43787.1 1915.02   2
   1  -1   0 48195.6 1948.99   4
  -1  -1  -1 69427.8 1829.93   5
  -1  -1  -1 78450.5 3949.94   2
   1  -1   1 72945.6 2129.13   6
   1  -1   1 71850.6 3401.70   4
  -1  -1  -1 75436.2 3226.58   6
   1  -1   2 188577. 6688.52   4
   1  -1   2 176795. 3422.57   6
   1  -1   3 174856. 7569.77   4
  -1  -1  -3 182852. 6175.81   6
   1  -1   4 91434.7 6027.56   4
  -1  -1  -4 96088.7 4805.69   6
   1  -1   5 201326. 9716.03   4
   1  -1   5 205962. 11963.8   2
  -1  -1  -5 212384. 7613.12   6
   1  -1   6 280147. 12790.9   4
  -1  -1  -6 266783. 8915.39   6
   1  -1   6 292537. 14759.3   2
   1  -1   7 345428. 15619.5   4
  -1  -1  -7 321274. 10234.1   6
  -1  -1  -8 174292. 7659.15   6
   1  -1   8 168201. 11340.2   2
   1  -1   9 70629.4 7505.60   2
   1  -1  10 10256.7 2971.02   2
   1  -1  11 14785.5 3790.57   2
  -1   0  11 103141. 8402.93   2
  -1   0  10 141788. 9617.19   2
  -1   0   9 129921. 8517.07   2
  -1   0   8 66009.5 5651.23   2
  -1   0   8 96728.5 7981.34   4
  -1   0   7 5927.30 1425.92   4
  -1   0   7 6240.98 1615.73   2
  -1   0   6 8208.54 1828.87   4
  -1   0   6 6363.19 1454.01   2
  -1   0   5 1084.61 329.698   2
  -1   0   5 3169.58 1144.86   4
  -1   0   4 73571.5 4220.67   4
  -1   0   4 73521.4 3931.45   2
   1   0  -4 74940.7 3962.42   4
   1   0  -3 466059. 8194.94   4
  -1   0   3 444601. 8345.97   4
  -1   0   3 443208. 7812.90   2
  -1   0   2 232443. 4132.24   4
  -1   0   2 238579. 3873.12   2
   1   0  -2 240508. 4183.56   4
   1   0   1 72311.2 2630.38   6
  -1   0  -1 74778.9 2211.39   5
   1   0   2 108209. 3470.22   6
  -1   0  -2 108084. 3695.11   6
   1   0   3 9239.38 2251.18   2
   1   0   3 7259.16 1265.62   4
  -1   0  -3 8322.05 1646.83   4
  -1   0  -3 8711.44 1178.30   6
   1   0   4 192550. 11125.4   2
  -1   0  -4 184324. 5933.85   6
   1   0   5 228734. 11925.6   2
  -1   0  -5 259376. 7456.44   6
   1   0   6 166437. 10685.7   2
  -1   0  -6 163394. 6395.86   6
   1   0   7 2668.87 1769.34   2
  -1   0  -7 2017.98 796.692   6
   1   0   8 16697.5 3720.10   2
   1   0   9 206848. 13196.6   2
   1   0  10 177899. 12497.8   2
   1   0  11 165823. 12177.6   2
  -1   1  11 46903.9 5787.75   2
  -1   1  11 100719. 11552.4   3
  -1   1  10 7052.09 1879.49   2
  -1   1   9 18677.3 3293.21   2
  -1   1   8 39831.5 4484.69   2
  -1   1   7 165886. 8589.21   2
  -1   1   6 226077. 9313.56   2
  -1   1   5 82908.6 6431.74   4
  -1   1   5 64730.0 4312.39   2
  -1   1   4 133300. 5356.56   2
  -1   1   4 137874. 7492.82   4
  -1   1   3 143471. 4398.39   2
  -1   1   3 134002. 5927.20   4
  -1   1   3 131081. 5622.47   3
   1   1  -3 133041. 4379.96   6
  -1   1   2 413842. 7497.79   3
  -1   1   2 395150. 6402.08   5
  -1   1   2 414369. 5937.40   2
  -1   1   2 404708. 7713.74   1
  -1   1   1 22700.2 1094.95   2
   1   1   1 70585.2 3839.00   2
  -1   1  -1 73870.5 3740.62   4
   1   1   1 66321.5 3094.11   6
   1   1   1 65552.7 2273.71   5
   1   1   2 164918. 3678.65   5
  -1   1  -2 195137. 4388.56   6
  -1   1  -2 208432. 7643.89   4
   1   1   2 167248. 7481.74   2
   1   1   3 170023. 3910.93   5
   1   1   3 176123. 8785.34   2
   1   1   4 72275.6 5976.51   2
   1   1   4 78510.0 3147.43   5
  -1   1  -4 86387.8 3437.51   6
   1   1   5 218833. 5812.58   5
   1   1   5 202672. 10989.8   2
   1   1   6 271434. 7211.83   5
   1   1   6 248367. 13015.1   2
   1   1   7 294037. 14693.3   2
   1   1   7 320813. 8479.23   5
   1   1   8 173059. 11690.1   2
   1   1   9 56650.5 6955.19   2
   1   1  10 11756.1 3035.81   2
   1   1  11 18585.5 4116.03   2
  -1   2  11 101295. 12056.6   3
  -1   2  11 40110.4 5788.96   2
  -1   2  10 50572.6 5854.34   2
  -1   2  10 116946. 12509.8   3
  -1   2   9 120141. 11906.8   3
  -1   2   9 61409.6 6139.67   2
  -1   2   8 62379.0 5836.92   2
  -1   2   8 89681.1 9441.72   3
  -1   2   7 111802. 9613.89   3
  -1   2   7 98021.3 6694.61   2
  -1   2   6 163688. 8017.64   2
  -1   2   6 175260. 10649.5   3
  -1   2   5 321123. 9770.92   2
  -1   2   5 333469. 12832.9   3
  -1   2   4 183532. 6487.21   2
  -1   2   4 156358. 5353.13   5
  -1   2   4 155387. 7232.12   1
   1   2  -4 186223. 5072.32   6
  -1   2   4 176709. 7793.25   3
  -1   2   3 164033. 6092.54   3
  -1   2   3 156879. 5028.20   2
   1   2  -3 170238. 5726.54   4
  -1   2   3 150160. 5733.50   1
   1   2  -3 150642. 4428.66   6
  -1   2   3 149062. 4302.11   5
  -1   2   2 302780. 5852.96   2
  -1   2   2 317404. 6781.65   1
   1   2  -2 259245. 5938.05   6
  -1   2   2 281681. 5463.44   5
   1   2  -1 327219. 3696.91   2
   1   2  -1 304325. 7201.09   6
  -1   2   0 351537. 5379.62   4
   1   2   0 365136. 5147.34   2
  -1   2  -1 212418. 5947.11   4
   1   2   1 297104. 6757.48   2
   1   2   2 96752.7 3721.31   3
  -1   2  -2 96991.4 4937.24   4
   1   2   3 31592.9 3349.65   2
   1   2   3 25551.4 1748.27   1
   1   2   3 25650.1 2540.08   3
   1   2   4 64024.8 5349.66   2
   1   2   5 223042. 5330.13   5
   1   2   5 198415. 10655.7   2
   1   2   6 30821.4 4392.25   2
   1   2   6 50990.2 2737.89   5
   1   2   7 21723.4 3730.77   2
   1   2   8 17024.3 3477.77   2
   1   2   9 121313. 10061.3   2
   1   2   9 256418. 17766.6   3
   1   2  10 32141.5 5398.74   2
   1   2  10 79398.4 10578.1   3
   1   2  11 154245. 14812.2   3
  -1   3  11 4271.18 1916.11   2
  -1   3  11 4670.25 2738.91   3
  -1   3  10 24939.5 5920.81   3
  -1   3  10 13171.2 3278.29   2
  -1   3   9 22988.9 3806.74   2
  -1   3   9 32863.8 6277.98   3
  -1   3   8 31084.8 5433.88   3
  -1   3   8 25461.1 3787.31   2
  -1   3   8 22984.4 4815.15   1
  -1   3   7 45996.4 4718.75   2
  -1   3   7 40088.2 5752.12   3
  -1   3   6 84142.0 7233.83   3
  -1   3   6 86844.4 5913.13   2
  -1   3   5 215298. 8298.61   2
  -1   3   5 195904. 9686.01   3
  -1   3   4 566468. 13225.2   1
  -1   3   4 557989. 11929.0   2
  -1   3   4 574712. 13371.3   3
  -1   3   3 482141. 9665.86   2
  -1   3   3 485109. 10080.2   1
  -1   3   2 428434. 7934.09   2
  -1   3   1 215489. 5056.86   2
   1   3  -1 197096. 3769.17   2
   1   3   0 44243.7 2086.80   2
   1   3   1 49369.6 2668.15   2
  -1   3  -1 50670.0 3026.26   4
   1   3   2 116230. 5207.77   2
   1   3   3 199069. 6779.45   3
   1   3   3 226851. 8638.35   2
   1   3   4 173586. 8059.48   3
   1   3   4 169342. 4662.93   1
   1   3   5 83173.0 4569.21   1
   1   3   5 81621.2 6690.31   2
   1   3   6 52758.5 5996.40   2
   1   3   6 55697.7 4619.55   1
   1   3   7 31271.5 4282.92   1
   1   3   7 24631.3 4007.29   2
   1   3   7 21209.2 4580.32   3
   1   3   8 7673.99 2279.68   2
   1   3   8 16661.1 5846.67   3
   1   3   9 19631.4 6442.29   3
   1   3   9 1521.99 424.625   2
   1   3  10 7473.42 4365.44   3
   1   3  10-1573.60 2093.32   2
   1   3  11 26395.3 6727.50   3
  -1   4  11-10063.9 5749.62   3
  -1   4  11 1058.88 947.317   2
  -1   4  10 755.036 3202.24   3
  -1   4  10 6315.14 2078.29   2
  -1   4   9-1051.61 2548.33   3
  -1   4   9 2275.54 1173.59   2
  -1   4   8 39502.8 4846.41   2
  -1   4   8 31367.0 5107.78   1
  -1   4   8 26117.9 4959.02   3
  -1   4   7 44046.1 6006.92   3
  -1   4   7 56255.9 5369.41   2
  -1   4   7 48526.9 5926.83   1
  -1   4   6 245385. 12069.1   3
  -1   4   6 269608. 12161.3   1
  -1   4   5 312694. 10960.4   1
  -1   4   5 334001. 11057.3   2
  -1   4   4 84551.0 4954.85   2
  -1   4   3 25755.9 2424.61   2
  -1   4   2 159340. 5358.51   2
  -1   4   1 461412. 8562.49   2
   1   4  -1 352359. 6307.98   2
   1   4   0 326942. 6419.54   2
   1   4   1 366907. 7926.52   2
   1   4   2 119767. 5282.75   2
   1   4   3 5255.28 1142.10   2
   1   4   4 42499.5 4089.77   2
   1   4   5 65953.4 6001.10   2
   1   4   5 54053.6 5186.87   3
   1   4   6 14948.3 3201.97   2
   1   4   6 10680.1 2841.26   3
   1   4   7 13994.0 3089.07   2
   1   4   7 5932.70 2299.81   3
   1   4   8 27751.6 4718.81   2
   1   4   8 18104.7 4239.64   3
   1   4   9 3088.89 822.209   3
   1   4   9 2523.13 902.235   2
   1   4  10 23807.4 4699.26   2
   1   4  10 25430.4 4679.53   3
  -1   5  10-11080.3 6438.70   3
  -1   5  10 13991.6 3542.49   2
  -1   5   9 8808.62 2569.40   2
  -1   5   8 33926.1 4788.96   2
  -1   5   7 25581.1 3950.17   2
  -1   5   6 68966.7 5783.04   2
  -1   5   5 155003. 7839.51   2
  -1   5   4 246473. 9005.32   2
  -1   5   3 318982. 9017.84   2
  -1   5   2 244892. 7359.45   2
  -1   5   1 294862. 7582.92   2
   1   5  -1 267162. 6224.60   2
   1   5   0 24124.5 2001.00   2
   1   5   1 93936.6 4422.39   2
   1   5   2 129162. 5780.19   2
   1   5   3 207196. 8450.55   2
   1   5   4 170739. 8709.51   2
   1   5   5 60962.6 5770.64   2
   1   5   6 118087. 8973.91   2
   1   5   7 63340.9 7029.32   2
   1   5   8 7887.76 2223.97   3
   1   5   8 21473.7 4147.11   2
   1   5   9 13887.7 3453.47   2
  -1   6   9 46155.4 6408.44   2
  -1   6   8 51327.1 6148.09   2
  -1   6   7 16765.4 3457.78   2
  -1   6   6 35089.9 4357.00   2
  -1   6   5 40793.0 4407.83   2
  -1   6   4 12347.2 1932.55   2
  -1   6   3 33841.8 3294.25   2
  -1   6   2 26478.5 2631.06   2
  -1   6   1 126765. 5601.34   2
   1   6   0 164509. 5828.94   2
   1   6   1 127958. 5513.96   2
   1   6   2 37602.3 3414.53   2
   1   6   3 63018.0 4992.00   2
   1   6   4 93053.5 6682.28   2
   1   6   5 99162.5 7717.63   2
   1   6   6 42802.1 5486.46   2
   1   6   7 5323.22 1942.68   2
   1   6   8 43334.8 6281.89   2
  -1   7   8 43213.6 6111.59   2
  -1   7   7 63065.0 6888.33   2
  -1   7   6 68442.5 6569.73   2
  -1   7   5 27623.4 3631.58   2
  -1   7   4 3241.42 1085.24   2
  -1   7   3 52.9027 427.565   2
  -1   7   2 18297.9 2335.97   2
  -1   7   1 7643.82 1513.96   2
   1   7   0 11234.3 1708.07   2
   1   7   1 56684.4 4042.16   2
   1   7   2 27733.5 2992.92   2
   1   7   3 12105.6 2460.31   2
   1   7   4 13509.1 2923.00   2
   1   7   5 43204.9 5266.77   2
   1   7   6 138355. 10372.1   2
   1   7   7 84643.9 8800.36   2
   1   7   8 77876.5 8834.56   2
  -1   8   7 4953.94 1134.12   2
  -1   8   6 15619.8 3180.72   2
  -1   8   5 34453.8 4359.47   2
  -1   8   4 18886.2 3103.55   2
  -1   8   3 7839.59 1861.56   2
  -1   8   2 20121.1 2871.02   2
   1   8   0 92069.1 5277.08   2
   1   8   1 58962.6 4440.27   2
   1   8   2 13464.6 2270.24   2
   1   8   3 28857.0 3584.91   2
   1   8   4 70870.7 6318.29   2
   1   8   5 61854.0 6697.39   2
   1   8   6 22318.8 4575.19   2
   1   8   7 2904.44 2552.35   2
  -1   9   6 33200.0 5058.59   2
  -1   9   5 41614.1 4909.75   2
  -1   9   4 81747.4 6762.66   2
  -1   9   3 115347. 7408.49   2
  -1   9   2 89093.1 6173.86   2
   1   9   1 10035.5 2080.21   2
   1   9   2 71615.0 5463.32   2
   1   9   3 29311.0 3966.01   2
   1   9   4 43899.9 5125.44   2
   1   9   5 21577.0 3593.61   2
   1   9   6 28715.7 5310.68   2
  -1  10   5 50098.8 6173.08   2
  -1  10   4 22354.4 3723.05   2
  -1  10   3 5481.81 2034.48   2
   1  10   1 82897.1 6302.14   2
   1  10   2 29374.3 3900.21   2
   1  10   3 11684.3 2729.70   2
   1  10   4 12068.1 2818.76   2
   1  11   2 38825.5 4889.28   2
   1  11   3 39023.5 5250.73   2
   2 -12  -1 6942.09 1418.58   6
  -2 -12   0 18089.8 3021.95   4
   2 -12   0 17392.1 3082.01   5
  -2 -11   3 4852.52 1345.16   4
  -2 -11   2 4369.22 1269.75   4
   2 -11  -1 1698.66 584.624   5
  -2 -11   1 3842.99 1879.68   6
  -2 -11   1 2155.61 888.769   4
   2 -11   0 3047.27 1008.25   5
  -2 -11   0 3987.79 2076.89   6
  -2 -11   0 3172.08 870.210   4
   2 -11   1 11037.8 2323.73   5
  -2 -11  -1 17437.5 3950.42   6
   2 -11   2 9107.18 2182.62   4
   2 -11   3 13202.9 2720.54   4
  -2 -10   5 12220.6 2539.46   4
  -2 -10   4 16185.8 2759.69   4
  -2 -10   3 5463.01 1568.79   4
   2 -10  -2 5981.32 1364.63   5
  -2 -10   2 4818.31 1493.20   6
  -2 -10   2 6409.42 1609.10   4
   2 -10  -1 5004.00 1355.87   5
  -2 -10   1 4089.05 1030.57   4
  -2 -10   1 5453.69 2132.76   6
  -2 -10   0 8770.11 2360.87   6
   2 -10   0 12345.1 2195.14   4
   2 -10   0 8904.11 1800.90   5
  -2 -10  -1 1526.10 1366.64   6
   2 -10   1 2867.71 1337.91   4
   2 -10   2 11001.7 2299.95   4
  -2 -10  -2 9327.95 2807.25   6
  -2 -10  -3 45793.4 6155.89   6
   2 -10   3 42414.1 4604.04   4
   2 -10   4 59039.8 5662.48   4
   2 -10   5 58490.8 5887.04   4
  -2  -9   6 24570.7 3447.82   4
  -2  -9   5 44851.8 4464.46   4
  -2  -9   4 18662.0 2701.52   4
  -2  -9   3 79046.5 5399.01   4
  -2  -9   3 78497.4 5691.02   6
   2  -9  -3 81357.4 4970.15   5
  -2  -9   2 40720.3 3863.55   4
   2  -9  -2 40970.5 3796.50   5
  -2  -9   2 43061.3 4684.17   6
  -2  -9   1 25518.1 3847.15   6
   2  -9  -1 22674.1 2928.69   5
   2  -9  -1 28185.1 2919.18   4
   2  -9   0 3633.91 1236.12   4
  -2  -9   0 3239.90 1604.63   6
  -2  -9  -1 26648.7 4082.62   6
   2  -9   1 30162.4 3384.88   4
  -2  -9  -2 39064.0 5137.45   6
   2  -9   2 43195.9 4274.21   4
   2  -9   3 22931.0 3253.22   4
  -2  -9  -3 21765.2 3941.87   6
   2  -9   4 29592.0 3995.16   4
  -2  -9  -4 26166.0 4312.48   6
  -2  -9  -5 32841.8 5384.26   6
   2  -9   5 25955.6 3668.44   4
   2  -9   6 54749.3 5636.59   4
  -2  -8   8 19348.1 3162.76   4
  -2  -8   7 68364.6 5472.06   4
  -2  -8   6 64335.4 5207.06   4
  -2  -8   5 85041.8 5793.09   4
  -2  -8   4 40868.5 3672.96   6
  -2  -8   4 40550.8 3700.86   4
  -2  -8   3 25153.3 2851.76   4
  -2  -8   3 20652.8 2678.94   6
   2  -8  -3 23515.4 2480.37   5
  -2  -8   2 26656.1 2808.35   4
   2  -8  -2 32215.1 2704.51   4
  -2  -8   2 30064.4 3532.45   6
   2  -8  -2 26814.2 2791.98   5
   2  -8  -1 138995. 6168.31   4
  -2  -8   1 124760. 7787.59   6
   2  -8  -1 119951. 6450.76   5
  -2  -8   0 200320. 10398.9   6
   2  -8   0 225607. 8157.49   4
   2  -8   1 66756.0 4685.15   4
  -2  -8  -1 61744.2 5987.76   6
  -2  -8  -2 73779.3 6750.93   6
   2  -8   2 88466.4 5728.93   4
   2  -8   3 14466.8 2460.55   4
  -2  -8  -3 12682.3 2795.06   6
  -2  -8  -4 52723.2 6014.23   6
   2  -8   4 54504.9 5156.89   4
  -2  -8  -5 46509.6 5900.47   6
   2  -8   5 43254.8 4738.30   4
   2  -8   6 8778.56 1597.88   4
  -2  -8  -6 13811.2 3235.56   6
  -2  -7   8 6130.28 1945.20   4
  -2  -7   7 2876.63 1431.17   4
  -2  -7   6 3370.97 1216.09   4
  -2  -7   5 114890. 6385.30   4
   2  -7  -4 116167. 4989.84   5
  -2  -7   4 109250. 5912.99   4
  -2  -7   4 108702. 5329.42   6
   2  -7  -3 263072. 6841.06   4
  -2  -7   3 253416. 9188.59   6
  -2  -7   3 267261. 8998.32   4
   2  -7  -3 256169. 7760.42   5
   2  -7  -2 184722. 7070.47   5
  -2  -7   2 181389. 8335.59   6
   2  -7  -2 193386. 6074.12   4
  -2  -7   1 161419. 8306.43   6
   2  -7  -1 166120. 7051.45   5
   2  -7  -1 179515. 6378.12   4
   2  -7   0 38227.1 3119.23   4
  -2  -7   0 30457.3 3756.59   6
  -2  -7  -1 26529.4 3647.42   6
   2  -7   1 29997.3 2952.52   4
  -2  -7  -2 123108. 8080.31   6
   2  -7   2 144265. 7081.91   4
  -2  -7  -3 136042. 8992.73   6
   2  -7   3 134649. 7319.26   4
   2  -7   4 154653. 8746.58   4
  -2  -7  -4 148147. 9753.27   6
   2  -7   5 19711.9 3035.59   4
  -2  -7  -5 26836.5 4225.58   6
  -2  -7  -6 1986.63 1273.27   6
   2  -7   6-696.976 833.497   4
   2  -7   7 5831.09 1983.63   4
  -2  -7  -7 8452.11 2433.28   6
  -2  -7  -8 3465.99 1819.68   6
  -2  -6   9 21388.6 3463.62   4
  -2  -6   8 22023.3 3189.17   4
  -2  -6   7 81667.0 5734.69   4
  -2  -6   6 146142. 7264.07   4
  -2  -6   5 218739. 6204.36   6
   2  -6  -5 205155. 5482.06   5
  -2  -6   5 199462. 8028.26   4
  -2  -6   4 67865.8 3254.37   2
  -2  -6   4 68766.6 3958.82   6
   2  -6  -4 71420.1 3620.66   5
  -2  -6   4 66669.9 4311.92   4
  -2  -6   3 45580.2 3509.84   4
  -2  -6   3 43536.9 3481.00   6
   2  -6  -3 45017.1 3008.76   5
   2  -6  -3 43635.0 2358.81   4
   2  -6  -2 68619.9 3209.26   4
   2  -6  -2 63660.3 3884.96   5
  -2  -6   2 63431.3 4572.98   6
   2  -6  -1 253202. 6901.89   4
   2  -6  -1 245462. 8120.12   5
  -2  -6   1 231323. 9373.81   6
   2  -6   0 252648. 7584.65   4
  -2  -6   0 244804. 10136.2   6
   2  -6   1 221495. 7677.40   4
  -2  -6  -1 218040. 9770.63   6
  -2  -6  -2 111293. 7375.61   6
   2  -6   2 117930. 6258.22   4
  -2  -6  -3 90150.9 6865.61   6
   2  -6   3 90592.8 5741.34   4
  -2  -6  -4 22707.0 3615.74   6
   2  -6   4 21312.9 2977.70   4
   2  -6   5 60256.3 5398.33   4
  -2  -6  -5 71365.4 6555.63   6
   2  -6   6 29392.5 3953.29   4
  -2  -6  -6 43575.7 5156.09   6
   2  -6   7 10520.8 2209.92   4
  -2  -6  -7 12551.2 3029.81   6
   2  -6   8 2500.30 736.690   4
  -2  -6  -8 4609.11 1918.58   6
  -2  -6  -9 9109.09 2494.09   6
  -2  -5  10 6064.20 1419.06   4
  -2  -5   9 7012.26 1746.88   4
  -2  -5   8 37718.8 4119.78   4
  -2  -5   7 66035.9 5013.89   4
  -2  -5   6 55023.4 4348.69   4
  -2  -5   5 45914.1 2628.93   6
  -2  -5   5 38156.2 2157.87   2
  -2  -5   5 45797.4 3581.35   4
   2  -5  -5 49722.9 2568.46   5
   2  -5  -4 189735. 5600.44   5
  -2  -5   4 183037. 4549.23   2
  -2  -5   4 181469. 6803.17   4
  -2  -5   4 180968. 5672.58   6
  -2  -5   3 174092. 6395.99   4
  -2  -5   3 182355. 4715.91   2
  -2  -5   3 181064. 6724.70   6
   2  -5  -3 174766. 5606.96   5
   2  -5  -2 236298. 6875.27   5
   2  -5  -2 244534. 5406.29   4
  -2  -5   2 232258. 8101.48   6
  -2  -5   2 254861. 5843.78   2
   2  -5  -1 150321. 4851.19   4
   2  -5  -1 128370. 5499.35   5
  -2  -5   1 136115. 6587.01   6
  -2  -5   1 148633. 4988.25   2
  -2  -5   0 101702. 6111.20   6
   2  -5   0 114425. 4698.85   4
   2  -5   1 141951. 6014.88   4
  -2  -5  -1 125461. 6994.45   6
  -2  -5  -2 21675.8 1658.73   3
  -2  -5  -2 22773.5 3061.13   6
   2  -5   2 24216.2 2771.53   4
   2  -5   3 143621. 7578.44   4
  -2  -5  -3 132118. 7839.63   6
   2  -5   4 77172.7 5710.08   4
  -2  -5  -4 80129.5 6435.24   6
  -2  -5  -5 113429. 7588.04   6
   2  -5   5 103799. 7090.69   4
  -2  -5  -6 171300. 9857.36   6
   2  -5   6 151474. 9088.74   4
   2  -5   7 113352. 8372.04   4
  -2  -5  -7 130428. 8846.87   6
  -2  -5  -8 81482.6 7321.37   6
   2  -5   8 67513.5 6496.19   4
  -2  -5  -9 33396.6 4609.69   6
   2  -5   9 28346.2 5081.15   2
  -2  -4  11 25874.1 4022.47   4
  -2  -4  10 79524.0 6607.33   4
  -2  -4   9 57462.6 5314.58   4
  -2  -4   8 59524.5 5014.80   4
  -2  -4   7 95932.1 5860.05   4
  -2  -4   7 95022.0 5666.61   2
  -2  -4   6 5313.67 1420.21   4
  -2  -4   5 86866.5 4916.97   4
  -2  -4   5 89940.3 3256.84   6
  -2  -4   4 49806.5 2016.16   2
   2  -4  -4 54888.7 2715.59   5
  -2  -4   4 56560.5 3498.89   4
  -2  -4   4 55573.7 2927.96   6
   2  -4  -3 238386. 6193.21   5
  -2  -4   3 226203. 6750.86   4
  -2  -4   3 231026. 4315.97   2
  -2  -4   3 229871. 6547.59   6
   2  -4  -2 141932. 4910.66   5
   2  -4  -2 150932. 3487.02   4
  -2  -4   2 144098. 5781.89   6
   2  -4  -1 80007.9 3147.51   4
   2  -4  -1 66676.3 3660.20   5
  -2  -4   1 79015.5 3186.32   2
  -2  -4   1 69173.7 4335.33   6
  -2  -4   0 10461.0 1349.11   2
   2  -4   0 10938.4 1444.90   4
  -2  -4   0 8383.40 1649.16   6
  -2  -4  -1 93469.7 2703.73   3
  -2  -4  -1 99574.9 5803.80   6
   2  -4   2 42215.5 3580.36   4
  -2  -4  -2 35534.4 1273.35   1
  -2  -4  -2 35675.7 3540.65   6
  -2  -4  -3 115975. 2682.05   5
   2  -4   3 140771. 7051.15   4
   2  -4   3 117026. 3326.98   6
  -2  -4  -3 139593. 7682.92   6
  -2  -4  -4 275032. 10801.1   6
   2  -4   4 263695. 10487.5   4
   2  -4   5 366968. 13421.1   4
  -2  -4  -5 385551. 13298.5   6
   2  -4   6 87400.8 6918.48   4
  -2  -4  -6 99066.0 7158.57   6
   2  -4   7-59.1963 956.848   4
  -2  -4  -7 1282.83 2002.25   6
  -2  -4  -8 52658.9 5337.81   6
   2  -4   8 48046.0 5625.05   4
  -2  -4  -9 134225. 8768.78   6
   2  -4   9 130562. 10291.2   4
   2  -4   9 131559. 11845.0   2
   2  -4  10 91653.6 9311.67   2
  -2  -3  11 58311.0 6046.12   4
  -2  -3  10 11235.3 2644.97   4
  -2  -3   9 2984.62 165.587   4
  -2  -3   8 81957.9 6101.06   4
  -2  -3   8 76090.9 5240.19   2
  -2  -3   7 94061.0 5788.21   4
  -2  -3   7 95111.1 5419.45   2
  -2  -3   6 283728. 9076.35   4
   2  -3  -6 286759. 7843.27   4
  -2  -3   6 267894. 8311.77   2
  -2  -3   5 195277. 7019.12   4
   2  -3  -5 194103. 5519.52   4
  -2  -3   5 183616. 6589.24   2
  -2  -3   4 69280.8 2972.55   6
   2  -3  -4 72759.1 2751.10   4
  -2  -3   4 75158.5 3890.58   4
   2  -3  -4 76657.1 3159.18   5
  -2  -3   3 69069.9 1758.03   2
   2  -3  -3 68376.3 3138.95   5
  -2  -3   3 68474.8 3397.88   4
  -2  -3   3 70262.7 3294.34   6
  -2  -3   2 39965.8 2639.24   6
   2  -3  -2 48275.6 2970.71   1
   2  -3  -2 42885.9 2526.64   5
  -2  -3   2 47738.0 1649.76   2
   2  -3  -2 49028.1 1519.39   4
   2  -3  -1 261834. 6592.33   5
  -2  -3   1 240100. 7255.82   6
  -2  -3   1 246059. 5127.19   2
   2  -3  -1 249350. 4995.43   4
   2  -3   0 25752.8 2239.54   5
  -2  -3   0 30120.5 2171.11   2
   2  -3   0 30326.6 2162.04   4
  -2  -3   0 23774.3 2498.88   6
  -2  -3  -1 67977.0 3953.95   2
  -2  -3  -1 57649.6 1818.87   3
   2  -3   1 67461.2 3894.70   4
  -2  -3  -1 60126.6 4193.70   6
   2  -3   2 78909.7 2915.53   6
  -2  -3  -2 91352.6 5506.99   6
  -2  -3  -2 75257.9 2479.97   5
   2  -3   2 87134.3 5016.86   4
  -2  -3  -3 31072.4 3365.39   6
  -2  -3  -3 26976.0 1221.96   5
   2  -3   3 34792.4 3583.81   4
   2  -3   3 28493.2 1569.40   6
   2  -3   4 11080.5 2151.64   4
   2  -3   4 9795.06 782.384   6
  -2  -3  -4 10792.7 2014.18   6
   2  -3   5 223622. 10751.5   4
  -2  -3  -5 247889. 10197.5   6
   2  -3   6 240637. 11447.1   4
  -2  -3  -6 280978. 11359.0   6
  -2  -3  -7 436479. 14438.0   6
   2  -3   7 415466. 16542.9   4
   2  -3   8 148971. 12041.6   2
  -2  -3  -8 146041. 8578.18   6
   2  -3   8 141629. 10419.8   4
   2  -3   9 95136.9 9416.94   2
   2  -3  10 5799.64 2549.23   2
  -2  -2  12 5902.81 1996.85   4
  -2  -2  11 27745.7 4120.40   4
  -2  -2  10 70084.2 6508.69   4
  -2  -2   9 60495.5 5675.43   4
  -2  -2   9 53077.8 4630.90   2
  -2  -2   8 134432. 7058.73   2
  -2  -2   8 136804. 7684.60   4
  -2  -2   7 99439.0 5494.14   2
  -2  -2   7 107578. 6327.51   4
  -2  -2   6 334110. 9807.16   4
   2  -2  -6 310753. 8370.09   4
  -2  -2   6 319786. 8869.44   2
   2  -2  -5 276116. 6747.95   4
  -2  -2   5 273430. 7066.70   2
  -2  -2   5 288484. 8101.88   4
   2  -2  -4 204030. 4551.50   4
  -2  -2   4 205334. 6019.18   4
  -2  -2   4 191026. 4683.20   2
   2  -2  -3 199598. 5509.31   5
  -2  -2   3 182033. 4969.67   6
  -2  -2   3 191911. 5268.45   4
   2  -2  -3 196355. 4935.39   2
  -2  -2   2 290493. 6900.17   6
   2  -2  -2 276877. 6344.86   5
   2  -2  -2 302015. 7020.97   1
   2  -2  -2 298819. 5797.91   2
  -2  -2   1 189143. 4424.48   2
   2  -2  -1 246611. 5969.60   5
   2  -2  -1 259509. 5219.45   2
   2  -2  -1 215106. 4224.97   4
  -2  -2   1 253934. 6548.10   6
   2  -2  -1 271289. 6143.52   1
  -2  -2   0 173889. 5880.69   2
  -2  -2   0 303620. 8000.83   6
   2  -2   0 290239. 6861.73   5
   2  -2   0 221718. 5918.76   4
   2  -2   1 179772. 4575.83   6
  -2  -2  -1 164376. 4068.50   5
   2  -2   1 200249. 6187.07   5
  -2  -2  -1 162192. 6859.14   2
   2  -2   1 173412. 6340.54   4
  -2  -2  -1 201890. 7189.23   6
  -2  -2  -2 77014.3 2462.16   5
   2  -2   2 89903.7 5350.52   4
   2  -2   2 78925.6 2879.99   6
  -2  -2  -2 88515.0 4986.13   6
   2  -2   3 145959. 7499.74   4
   2  -2   3 128341. 3764.67   6
  -2  -2  -3 148527. 6838.35   6
   2  -2   4 276712. 11067.4   4
   2  -2   4 268777. 5170.86   6
  -2  -2  -4 294610. 10146.9   6
   2  -2   5 345369. 13614.1   4
  -2  -2  -5 376293. 11803.1   6
  -2  -2  -6 118557. 6903.64   6
   2  -2   6 119257. 8799.16   4
  -2  -2  -7 13611.4 2417.59   6
   2  -2   7 9222.47 2662.24   2
   2  -2   7 14722.9 3142.15   4
   2  -2   8 24592.4 4909.87   2
  -2  -2  -8 26959.0 3466.42   6
   2  -2   9 114937. 10327.5   2
   2  -2  10 136358. 11608.2   2
  -2  -1  11 49574.9 6080.30   4
  -2  -1  10 53078.5 5615.68   4
  -2  -1  10 44425.5 4717.45   2
  -2  -1   9 36646.3 4305.02   4
  -2  -1   9 32138.6 3777.88   2
  -2  -1   8 27405.1 3562.89   4
  -2  -1   8 21249.1 2828.31   2
  -2  -1   7 44000.5 3939.44   4
  -2  -1   7 41564.5 3534.70   2
  -2  -1   6 92658.0 4685.04   2
  -2  -1   6 110029. 5753.85   4
  -2  -1   5 328017. 8612.59   4
   2  -1  -5 327967. 7910.87   4
   2  -1  -4 436224. 7811.93   2
  -2  -1   4 415115. 6759.67   2
  -2  -1   4 423723. 8337.20   4
   2  -1  -4 430615. 7157.18   4
   2  -1  -3 175785. 4196.48   2
   2  -1  -3 180428. 3279.75   4
  -2  -1   3 174847. 2703.84   2
  -2  -1   3 178468. 4570.98   4
   2  -1  -2 748112. 10261.5   3
   2  -1  -2 795346. 7956.95   2
  -2  -1   1 249608. 6361.02   6
   2  -1  -1 246559. 5686.25   1
  -2  -1   0 89870.7 3373.46   5
   2  -1   0 85729.9 3590.48   5
  -2  -1   0 82373.8 3753.86   6
   2  -1   0 76984.9 3201.84   6
  -2  -1  -1 118718. 3371.55   5
   2  -1   1 114399. 5472.33   4
  -2  -1  -1 125492. 5106.63   6
   2  -1   1 110092. 3705.62   6
   2  -1   1 122044. 4355.05   5
   2  -1   2 146692. 5317.36   5
   2  -1   2 127930. 4311.14   6
   2  -1   2 143263. 7201.04   4
  -2  -1  -2 142826. 5813.36   6
  -2  -1  -2 129966. 3486.58   5
  -2  -1  -3 421663. 10697.5   6
   2  -1   3 417164. 9515.39   5
   2  -1   3 403881. 13552.7   4
  -2  -1  -4 333911. 10049.6   6
   2  -1   4 357621. 13895.4   4
  -2  -1  -5 190869. 7920.21   6
   2  -1   6 57850.6 7212.94   2
  -2  -1  -6 51181.2 4255.13   6
   2  -1   7 120486. 6666.28   5
  -2  -1  -7 137095. 7054.22   6
   2  -1   7 137854. 11215.8   2
   2  -1   8 66999.7 7816.91   2
   2  -1   8 57720.4 4816.13   5
   2  -1   9 30180.9 5384.12   2
   2  -1  10 30517.8 5724.31   2
  -2   0  10-1242.89 2076.04   4
  -2   0  10 695.558 412.180   2
  -2   0   9 15821.3 2892.98   4
  -2   0   9 10244.5 2179.08   2
  -2   0   8 125912. 8035.72   4
  -2   0   8 100745. 6318.91   2
  -2   0   7 239388. 8850.70   2
  -2   0   7 283902. 11202.0   4
  -2   0   6 258493. 9320.60   4
  -2   0   6 234006. 7734.05   2
   2   0  -5 458716. 9910.23   4
  -2   0   5 467302. 10853.8   4
  -2   0   4 426700. 7259.07   2
  -2   0   4 435952. 8362.53   4
  -2   0   3 317276. 5456.85   4
  -2   0   3 314276. 4772.64   2
   2   0  -2 69869.5 1777.31   2
  -2   0   2 74183.6 3452.80   5
  -2   0   2 68390.8 1777.48   2
   2   0  -2 71697.6 3519.43   6
  -2   0   2 68736.1 3016.53   3
   2   0  -1 375213. 5488.05   3
  -2   0   1 339553. 6873.49   5
  -2   0   1 360377. 7686.85   6
  -2   0   1 387999. 6630.08   1
   2   0  -1 283434. 6883.08   6
   2   0  -1 314911. 6987.38   5
   2   0   0 510941. 9234.36   5
  -2   0   0 737725. 7259.85   1
   2   0   0 509854. 8971.02   6
  -2   0   0 636657. 8936.16   5
  -2   0   0 653054. 10443.0   6
   2   0   0 534745. 7318.83   1
   2   0   1 417822. 8355.47   5
  -2   0  -1 567440. 8031.87   5
   2   0   1 412508. 8571.04   6
  -2   0  -1 526950. 9631.74   6
  -2   0  -2 11906.1 2323.12   4
   2   0   2 14857.4 1563.61   5
  -2   0  -2 14897.2 1697.74   6
   2   0   2 16651.0 1722.18   6
   2   0   3 33022.1 2453.92   5
  -2   0  -3 35121.8 2851.84   6
   2   0   3 31769.2 2460.75   6
   2   0   4 54453.9 3516.26   5
   2   0   4 66412.7 7466.42   2
  -2   0  -4 58894.0 3899.34   6
   2   0   5 90337.8 4834.17   5
   2   0   5 105061. 9785.49   2
  -2   0  -5 95293.8 5236.74   6
   2   0   6 142704. 6473.15   5
   2   0   6 142334. 10909.3   2
  -2   0  -6 161195. 7039.62   6
  -2   0  -7 2268.42 951.448   6
   2   0   7 2214.22 962.490   5
   2   0   7 4648.61 1930.88   2
   2   0   8 2717.38 2281.20   2
   2   0   9 28433.4 5540.33   2
   2   0  10-65.5424 1111.01   2
  -2   1  11 32878.1 4557.87   2
  -2   1  11 69094.3 9756.93   3
  -2   1  10 43950.3 5023.51   2
  -2   1  10 87225.2 10123.5   3
  -2   1   9 24781.1 3525.61   2
  -2   1   8 23636.3 3059.81   2
  -2   1   7 39336.4 3641.14   2
   2   1  -7 46790.1 4557.72   6
  -2   1   6 93764.4 5132.13   2
   2   1  -6 92620.4 5927.26   6
  -2   1   5 338957. 12179.9   3
   2   1  -5 318617. 10075.6   6
  -2   1   5 325948. 8191.74   2
   2   1  -4 343548. 10116.6   6
  -2   1   4 462874. 10847.6   5
  -2   1   4 411134. 11555.7   3
  -2   1   4 401538. 9391.93   4
  -2   1   4 390309. 7684.51   2
  -2   1   3 191348. 6476.79   3
  -2   1   3 187579. 6281.09   5
   2   1  -3 169702. 6534.62   6
  -2   1   3 188659. 4487.23   2
  -2   1   2 862717. 10453.2   3
  -2   1   2 896528. 12959.8   5
  -2   1   2 876974. 12421.9   1
  -2   1   1 228259. 6055.99   5
  -2   1   1 230962. 5293.39   1
  -2   1   0 77465.6 4121.40   4
  -2   1   0 83580.8 3482.66   5
   2   1   0 80274.8 4128.23   6
   2   1   1 107781. 4621.09   5
   2   1   1 120486. 5171.76   6
   2   1   1 108708. 2654.81   1
  -2   1  -1 135104. 6603.33   4
  -2   1  -1 123768. 5025.10   6
   2   1   1 99928.8 7705.44   2
   2   1   2 138713. 9778.49   2
  -2   1  -2 158926. 6024.45   6
  -2   1  -2 150924. 7895.15   4
   2   1   2 136967. 5275.28   5
   2   1   2 145774. 5807.13   6
   2   1   3 300064. 8016.57   5
   2   1   3 364073. 16287.0   2
   2   1   4 319751. 8430.11   5
   2   1   4 323329. 15400.1   2
   2   1   5 163425. 6169.16   5
   2   1   5 168422. 11745.2   2
   2   1   6 41999.4 3241.59   5
  -2   1  -6 54553.0 3856.29   6
   2   1   6 41404.6 5859.89   2
   2   1   7 123618. 10597.9   2
   2   1   8 49720.4 6880.32   2
   2   1   9 18979.1 4404.03   2
   2   1  10 21429.7 4829.09   2
  -2   2  11 19435.6 3633.37   2
  -2   2  11 54131.0 8940.20   3
  -2   2  10 88654.6 10702.2   3
  -2   2  10 52842.8 5721.42   2
  -2   2   9 47414.8 4904.62   2
  -2   2   9 71118.9 8818.82   3
  -2   2   8 118361. 7207.54   2
  -2   2   8 150195. 11827.2   3
  -2   2   7 110171. 8960.16   3
  -2   2   7 90460.5 5876.15   2
   2   2  -6 325392. 12159.2   6
  -2   2   6 334455. 11643.6   5
  -2   2   6 316661. 13748.5   3
  -2   2   6 291056. 9354.84   2
  -2   2   5 290640. 8346.30   2
  -2   2   5 285467. 11863.3   1
  -2   2   5 268108. 9968.77   5
   2   2  -5 272346. 10564.3   6
  -2   2   5 286764. 11183.3   3
  -2   2   4 197198. 7802.83   3
  -2   2   4 180975. 7344.05   5
  -2   2   4 188037. 8241.32   1
  -2   2   4 189188. 5883.81   2
  -2   2   3 192287. 6194.93   3
  -2   2   3 186117. 6718.02   5
  -2   2   3 187293. 5055.77   2
  -2   2   3 200177. 7161.02   1
  -2   2   2 260546. 7166.19   5
  -2   2   2 252014. 5397.51   2
  -2   2   2 256811. 6841.21   1
   2   2  -1 208373. 3508.21   2
  -2   2   1 209365. 3677.80   4
   2   2   0 224124. 5976.57   2
  -2   2   0 237404. 6371.02   4
   2   2   0 249281. 8129.19   6
   2   2   1 193439. 7644.41   2
  -2   2  -1 173883. 6981.10   4
   2   2   1 185088. 7109.96   6
   2   2   2 54750.3 4847.75   2
   2   2   2 59142.8 3077.39   3
   2   2   3 142744. 8917.04   2
   2   2   4 218159. 7713.05   5
   2   2   4 265203. 13306.5   2
   2   2   5 322015. 15732.8   2
  -2   2  -5 291438. 8307.22   6
   2   2   6 207337. 7764.83   5
   2   2   6 116097. 9753.28   2
   2   2   7 13598.2 3506.35   2
   2   2   8 22453.2 4714.80   2
   2   2   9 103327. 9979.76   2
   2   2  10 314151. 20062.6   3
   2   2  10 130117. 11715.0   2
  -2   3  11 52152.0 6301.64   2
  -2   3  11 81913.2 10520.5   3
  -2   3  10 13339.2 3762.82   3
  -2   3  10 10135.6 2533.98   2
  -2   3   9 4373.89 1971.43   3
  -2   3   9 3325.45 1217.54   2
  -2   3   8 62187.6 5508.85   2
  -2   3   8 63580.0 8031.61   1
  -2   3   8 64899.9 7670.27   3
  -2   3   7 85711.2 7866.16   3
  -2   3   7 88620.4 6094.23   2
  -2   3   6 254293. 9359.06   5
  -2   3   6 259530. 12364.4   3
  -2   3   6 260660. 9498.23   2
  -2   3   5 173783. 8378.81   3
  -2   3   5 166527. 6962.80   5
  -2   3   5 188081. 7202.99   2
  -2   3   5 166240. 8885.21   1
  -2   3   4 79636.4 4193.33   2
  -2   3   4 70387.7 4175.78   5
  -2   3   4 74023.9 5194.78   1
   2   3  -4 86683.6 4981.53   6
  -2   3   3 66984.0 3443.94   2
  -2   3   3 63651.3 3839.95   5
   2   3  -3 67537.7 4459.85   6
  -2   3   3 63840.9 4046.54   1
  -2   3   2 57856.4 2930.77   2
   2   3  -2 56767.1 4118.58   6
   2   3  -1 258437. 9020.33   6
   2   3  -1 242622. 4254.93   2
  -2   3   0 19318.5 1693.49   4
   2   3   0 18797.4 1527.52   2
  -2   3  -1 78902.4 4515.29   4
   2   3   1 86444.6 4593.55   2
   2   3   2 87332.9 5440.74   2
   2   3   3 37879.0 2984.37   3
   2   3   3 39632.4 4435.47   2
   2   3   4 10690.4 2478.68   2
   2   3   4 9827.07 1918.62   3
   2   3   5 197022. 12077.7   2
   2   3   5 200536. 4107.91   1
   2   3   6 147112. 10936.8   3
   2   3   6 216848. 13105.6   2
   2   3   7 374816. 18253.7   2
   2   3   7 411132. 20451.5   3
   2   3   8 133891. 11265.7   2
   2   3   8 230473. 16540.3   3
   2   3   9 144259. 14132.2   3
   2   3   9 69991.7 8444.15   2
  -2   4  11 25208.6 4437.76   3
  -2   4  11 28742.4 4901.78   2
  -2   4  10 71949.5 9249.50   3
  -2   4  10 79051.7 7514.06   2
  -2   4   9 50985.8 7307.00   3
  -2   4   9 45429.8 7004.40   1
  -2   4   9 60925.7 6231.49   2
  -2   4   8 51118.8 6546.51   3
  -2   4   8 55147.6 5547.87   2
  -2   4   7 74611.5 7300.81   3
  -2   4   7 62051.5 7147.44   1
  -2   4   6 5366.76 1947.33   1
  -2   4   6 6337.78 1646.02   2
  -2   4   5 90199.9 5384.58   2
  -2   4   5 80654.8 6007.39   1
  -2   4   4 53219.8 3626.27   2
   2   4  -4 61626.0 4174.87   6
  -2   4   3 239408. 7245.31   2
   2   4  -3 239539. 8763.41   6
  -2   4   2 152177. 5286.52   2
   2   4  -1 78881.8 2819.60   2
   2   4   0 11440.7 1347.87   2
   2   4   1 82734.0 4336.13   2
   2   4   2 64006.4 4597.05   2
   2   4   3 139951. 7904.79   2
   2   4   4 251396. 12190.4   2
   2   4   5 254144. 11124.5   3
   2   4   5 291347. 14453.9   2
   2   4   6 49399.9 5997.90   3
   2   4   6 73259.1 7586.75   2
   2   4   7-1243.19 1598.21   3
   2   4   7-930.815 821.022   2
   2   4   8 39146.5 6074.43   2
   2   4   8 25728.4 5013.72   3
   2   4   9 112326. 11014.7   2
  -2   5  10 10045.7 3100.54   2
  -2   5   9 8126.38 2488.08   2
  -2   5   8 39939.1 5049.98   2
  -2   5   8 36820.9 5768.12   1
  -2   5   7 56504.6 6486.49   1
  -2   5   7 67320.5 5901.07   2
  -2   5   6 56763.5 5096.27   2
  -2   5   5 43952.0 3980.20   2
  -2   5   4 181561. 7429.17   2
  -2   5   3 177267. 6611.54   2
  -2   5   2 249353. 7537.04   2
   2   5  -1 110805. 3989.77   2
   2   5   0 101233. 4252.28   2
   2   5   1 142189. 5899.44   2
   2   5   2 22550.6 2648.17   2
   2   5   3 122434. 7271.37   2
   2   5   4 67423.6 5956.06   2
   2   5   5 84064.9 7467.20   2
   2   5   6 120839. 9761.75   2
   2   5   7 87668.7 8961.80   2
   2   5   8 66848.1 7959.77   2
  -2   6   9 21679.9 4229.31   2
  -2   6   8 14351.0 3351.92   2
  -2   6   7 89615.0 7270.26   2
  -2   6   6 135200. 7986.32   2
  -2   6   5 215246. 9468.25   2
  -2   6   4 68811.8 4906.19   2
  -2   6   3 52654.2 4103.33   2
  -2   6   2 66119.3 4275.69   2
   2   6  -1 236255. 6577.93   2
   2   6   0 260620. 7386.79   2
   2   6   1 251414. 8229.02   2
   2   6   2 133680. 6787.93   2
   2   6   3 99676.7 6640.19   2
   2   6   4 20603.3 3414.45   2
   2   6   5 50692.0 5876.98   2
   2   6   6 20017.4 3896.47   2
   2   6   7 8319.31 2168.92   2
   2   6   8 2769.19 1088.17   2
  -2   7   9 18568.2 3691.36   2
  -2   7   8 9587.47 2204.83   2
  -2   7   7-575.590 1112.02   2
  -2   7   6 1198.43 595.252   2
  -2   7   5 113973. 7287.21   2
  -2   7   4 134156. 7314.56   2
  -2   7   3 291467. 10010.1   2
  -2   7   2 208558. 8058.90   2
   2   7  -1 177847. 6286.23   2
   2   7   0 38422.5 3146.84   2
   2   7   1 22124.0 2579.46   2
   2   7   2 150299. 7574.85   2
   2   7   3 127791. 8053.73   2
   2   7   4 138178. 9203.26   2
   2   7   5 25364.0 4447.30   2
   2   7   6 782.309 1319.29   2
   2   7   7 807.950 884.153   2
  -2   8   8 15777.7 3469.19   2
  -2   8   7 75306.1 7403.66   2
  -2   8   6 71737.0 6603.71   2
  -2   8   5 101567. 7169.77   2
  -2   8   4 40928.6 4391.78   2
  -2   8   3 35091.7 3866.13   2
   2   8  -1 138464. 6072.27   2
   2   8   0 224507. 8401.19   2
   2   8   1 64388.5 4829.05   2
   2   8   2 86092.8 6006.68   2
   2   8   3 12064.1 2946.73   2
   2   8   4 56681.3 6171.13   2
   2   8   5 47728.5 6281.28   2
   2   8   6 14803.9 4228.53   2
  -2   9   6 24874.4 4216.88   2
  -2   9   5 59976.8 5924.79   2
  -2   9   4 23217.2 3618.97   2
  -2   9   3 108198. 7078.21   2
   2   9   0 6947.02 1609.61   2
   2   9   1 34931.2 3805.02   2
   2   9   2 47236.8 4820.59   2
   2   9   3 21925.0 3381.61   2
   2   9   4 22893.8 3741.05   2
   2   9   5 37294.8 5973.08   2
  -2  10   5 12731.0 3101.07   2
  -2  10   4 19898.3 3700.73   2
   2  10   0 13203.9 2581.63   2
   2  10   1 3672.78 1403.36   2
   2  10   2 16948.1 2993.80   2
   2  10   3 51581.1 5823.30   2
   2  10   4 62869.2 6898.76   2
   2  11   1 22567.3 3800.13   2
   2  11   2 15115.6 3210.18   2
   2  11   3 13120.5 3348.69   2
  -3 -11   2 63033.5 5524.67   4
  -3 -11   2 62061.7 6209.25   6
  -3 -11   1 28756.5 3761.69   4
  -3 -11   1 29941.4 4046.37   6
   3 -11  -1 32392.5 3939.76   5
   3 -11   0 5928.16 1718.79   5
  -3 -11   0 2422.86 1521.40   6
   3 -11   1 1529.29 762.006   5
  -3 -10   5 85936.8 6306.69   4
  -3 -10   4 29957.1 3653.76   4
  -3 -10   3 2642.93 1119.65   4
  -3 -10   3 2334.36 697.639   6
   3 -10  -2 9812.59 1956.56   5
  -3 -10   2 7140.88 1619.97   6
  -3 -10   2 7948.84 1635.73   4
   3 -10  -1 45117.9 4559.12   5
  -3 -10   1 43161.9 5001.00   6
   3 -10   0 70418.3 6103.12   5
  -3 -10   0 77976.6 7456.34   6
   3 -10   1 44483.2 4900.26   5
  -3 -10  -1 49005.8 6189.30   6
   3 -10   2 14103.1 2791.23   5
   3 -10   2 17024.9 3161.47   4
  -3 -10  -2 19212.2 4026.65   6
   3 -10   3 6301.86 1678.85   5
  -3 -10  -3 8517.59 2904.41   6
   3 -10   3 7975.12 1959.17   4
   3 -10   4-350.570 1185.20   4
  -3  -9   6 6659.63 1966.87   4
  -3  -9   5 7447.52 1721.02   4
  -3  -9   4 51596.9 4535.90   4
  -3  -9   3 69120.0 5735.20   6
  -3  -9   3 62791.5 5031.87   4
   3  -9  -3 63584.5 4627.43   5
   3  -9  -2 79171.8 5462.15   5
  -3  -9   2 77101.2 6262.46   6
   3  -9  -1 31445.6 3642.61   5
  -3  -9   1 28413.2 3842.12   6
   3  -9   0 11610.2 1986.65   5
   3  -9   0 15417.1 2430.55   4
  -3  -9   0 17666.0 3508.66   6
   3  -9   1 15804.3 2696.43   5
  -3  -9  -1 21075.2 3865.17   6
   3  -9   1 19465.6 2904.68   4
   3  -9   2 32770.1 4190.38   5
   3  -9   2 42001.0 4654.28   4
  -3  -9  -2 36968.6 5382.82   6
  -3  -9  -3 28396.9 4773.18   6
   3  -9   3 26466.1 3694.40   4
   3  -9   4 17493.5 2898.53   4
  -3  -9  -4 23842.6 4461.79   6
   3  -9   5 6179.45 2159.62   4
  -3  -8   8 34104.9 4157.08   4
  -3  -8   7 20461.0 3091.07   4
  -3  -8   6 40111.6 4156.45   4
  -3  -8   5 16704.7 2514.00   4
  -3  -8   4 34454.6 3503.81   4
   3  -8  -4 35593.9 3276.44   5
  -3  -8   4 35386.7 3523.70   6
  -3  -8   3 8637.12 1838.86   6
   3  -8  -3 6517.17 1456.67   5
  -3  -8   3 6823.33 1450.01   4
   3  -8  -2 8066.58 1611.74   5
  -3  -8   2 6615.95 1359.61   6
   3  -8  -1 33666.9 3505.39   5
   3  -8  -1 40732.7 3536.73   4
  -3  -8   1 29980.3 3922.20   6
   3  -8   0 24830.9 2940.03   4
   3  -8   0 18156.8 2680.95   5
  -3  -8   0 21432.3 3667.77   6
   3  -8   1 7454.11 1690.01   5
   3  -8   1 11832.5 2157.95   4
  -3  -8  -1 11052.0 2796.47   6
   3  -8   2 73152.0 5854.01   4
  -3  -8  -2 67263.3 6821.27   6
   3  -8   3 67278.7 5857.40   4
  -3  -8  -3 67143.9 7086.86   6
   3  -8   4 135592. 8640.61   4
  -3  -8  -4 158204. 11153.0   6
  -3  -8  -5 83400.4 8315.67   6
   3  -8   5 72877.7 6625.65   4
   3  -8   6 50339.9 5685.27   4
  -3  -8  -6 63219.8 7399.20   6
  -3  -7   9 1242.69 781.306   4
  -3  -7   8 8707.77 2102.64   4
  -3  -7   7 64127.4 5285.76   4
  -3  -7   6 40051.4 3882.05   4
  -3  -7   5 26191.5 2967.74   4
   3  -7  -5 28166.9 2619.83   5
  -3  -7   5 27227.5 2629.89   6
   3  -7  -4 2369.85 847.605   5
  -3  -7   4 3648.33 1281.47   6
  -3  -7   4 2061.56 807.291   4
   3  -7  -3 1256.89 601.978   5
  -3  -7   3 41.6280 573.694   6
   3  -7  -3 1662.82 652.779   4
   3  -7  -2 352.987 357.359   5
   3  -7  -2 1213.15 767.592   4
  -3  -7   1 50601.4 4858.13   6
   3  -7  -1 50808.1 4094.92   5
   3  -7  -1 63011.2 4097.51   4
   3  -7   0 132311. 6356.50   4
   3  -7   0 121202. 6794.82   5
  -3  -7   0 118146. 7902.84   6
   3  -7   1 194113. 9048.61   5
   3  -7   1 218179. 8881.44   4
  -3  -7  -1 192274. 10493.2   6
   3  -7   2 119089. 7207.29   4
  -3  -7  -2 107494. 8201.13   6
   3  -7   3 26839.3 3513.73   4
  -3  -7  -3 26701.5 4207.58   6
   3  -7   4 6590.58 1566.60   4
  -3  -7  -4 8737.87 2660.93   6
   3  -7   5 48308.6 5169.86   4
  -3  -7  -5 53451.4 6342.73   6
   3  -7   6 129605. 9014.21   4
  -3  -7  -6 157199. 11043.8   6
   3  -7   7 73684.8 6942.02   4
  -3  -7  -7 89968.7 8447.03   6
  -3  -6   9 61155.0 5465.46   4
  -3  -6   8 32865.7 3769.70   4
  -3  -6   7 107441. 6419.58   4
  -3  -6   6 19282.1 2600.09   4
   3  -6  -5 53728.7 3392.81   5
  -3  -6   5 52957.4 4093.41   4
  -3  -6   5 55293.4 3659.01   6
   3  -6  -4 8141.71 1383.69   5
   3  -6  -4 10217.5 950.688   4
  -3  -6   4 9176.13 1593.57   6
  -3  -6   4 7856.21 1458.85   4
   3  -6  -3 5529.94 1200.60   5
   3  -6  -3 6898.25 988.630   4
  -3  -6   3 7183.64 1122.57   2
  -3  -6   3 5827.89 1228.62   6
   3  -6  -2 5275.91 1212.33   5
   3  -6  -2 6807.46 1132.10   4
  -3  -6   2 3595.08 587.257   6
  -3  -6   1 77473.0 5633.14   6
   3  -6  -1 73938.1 4800.09   5
   3  -6   0 52949.5 4334.56   5
   3  -6   0 65155.1 4238.56   4
  -3  -6   0 58933.2 5280.89   6
  -3  -6  -1 53323.4 2448.08   3
  -3  -6  -1 54480.8 5341.39   6
   3  -6   1 51549.5 4430.49   5
   3  -6   2 162692. 8111.85   4
  -3  -6  -2 153982. 9211.64   6
   3  -6   3 129831. 7645.38   4
  -3  -6  -3 146794. 9353.95   6
   3  -6   4 353397. 13550.0   4
  -3  -6  -4 385626. 15696.8   6
   3  -6   5 189724. 10357.9   4
  -3  -6  -5 217884. 12209.2   6
   3  -6   6 48261.8 5463.40   4
  -3  -6  -6 52184.4 6158.64   6
   3  -6   7 1580.51 1008.55   4
  -3  -6  -7 3583.34 1846.20   6
  -3  -6  -8 16375.0 3559.69   6
   3  -6   8 9772.33 2367.34   5
  -3  -5  10 32577.4 4306.88   4
  -3  -5   9 38059.7 4207.75   4
  -3  -5   8 57268.7 4821.61   4
  -3  -5   7 41234.4 3942.31   4
  -3  -5   6 17355.3 1767.94   6
  -3  -5   6 16912.4 2398.54   4
  -3  -5   5 92293.7 5078.19   4
  -3  -5   5 100003. 4596.18   6
  -3  -5   5 99027.0 2692.50   2
   3  -5  -5 107595. 4872.89   5
   3  -5  -4 171221. 6203.70   5
  -3  -5   4 189123. 4001.14   2
  -3  -5   4 171221. 6725.58   4
  -3  -5   4 171828. 6324.22   6
  -3  -5   3 214148. 7669.55   6
   3  -5  -3 212397. 7197.76   5
   3  -5  -3 215770. 4332.99   4
  -3  -5   2 239804. 6229.02   2
   3  -5  -2 225677. 5610.05   4
  -3  -5   2 228699. 8703.23   6
  -3  -5   1 250648. 9462.04   6
  -3  -5   1 256975. 7537.52   2
   3  -5  -1 265469. 7333.19   4
   3  -5  -1 253487. 8333.06   5
   3  -5   0 68095.5 4538.50   5
  -3  -5   0 67174.9 5341.04   6
  -3  -5  -1 132384. 3298.85   3
   3  -5   1 139849. 6957.95   5
   3  -5   1 148249. 6889.97   4
  -3  -5  -1 137731. 8002.21   6
  -3  -5  -2 103379. 3821.66   5
   3  -5   2 123230. 6811.62   4
  -3  -5  -2 101155. 1990.81   1
  -3  -5  -2 133337. 8162.86   6
   3  -5   3 163965. 8527.27   4
  -3  -5  -3 160531. 9314.95   6
   3  -5   4 108181. 7355.87   4
  -3  -5  -4 112944. 8023.11   6
   3  -5   5 18836.5 3260.02   4
  -3  -5  -5 20671.7 3517.71   6
   3  -5   6 104702. 7851.72   4
  -3  -5  -6 124353. 8993.18   6
   3  -5   7 64465.9 6564.62   4
  -3  -5  -7 76172.6 7081.51   6
   3  -5   8 37675.5 4746.57   5
   3  -5   8 44535.5 5913.15   4
  -3  -5  -8 49123.9 5771.67   6
   3  -5   9 15792.1 2921.55   5
  -3  -5  -9 16887.3 2900.27   6
  -3  -4  11 9245.19 2373.64   4
  -3  -4  10 10649.0 2335.77   4
  -3  -4   9 16609.6 2667.84   4
  -3  -4   8 59693.1 4793.63   4
  -3  -4   7 247497. 9111.73   4
  -3  -4   6 490713. 7539.70   2
  -3  -4   6 509320. 12491.8   4
   3  -4  -5 491387. 9817.86   5
  -3  -4   5 498877. 9674.48   6
  -3  -4   5 478570. 11035.4   4
  -3  -4   5 464829. 4396.21   2
   3  -4  -4 201678. 6383.98   5
  -3  -4   4 215800. 6833.99   6
  -3  -4   4 209295. 7065.07   4
  -3  -4   4 227591. 2967.96   2
   3  -4  -3 50184.6 3289.59   5
  -3  -4   3 51206.9 3404.27   6
   3  -4  -2 126419. 5355.85   5
   3  -4  -2 127265. 3673.60   4
  -3  -4   2 120884. 5615.08   6
  -3  -4   1 257568. 7218.33   2
   3  -4  -1 270772. 6915.26   4
   3  -4   0 300966. 9132.47   5
  -3  -4   0 309123. 10527.0   6
   3  -4   1 307075. 9867.34   5
  -3  -4  -1 312577. 11257.9   6
   3  -4   2 85797.3 3657.62   6
   3  -4   2 94044.5 5762.45   5
   3  -4   2 95045.4 6020.25   4
  -3  -4  -2 96945.1 6568.77   6
  -3  -4  -2 76463.7 3110.53   5
  -3  -4  -3 50102.8 4937.39   6
   3  -4   3 42488.7 2364.24   6
   3  -4   3 52332.0 4788.72   4
  -3  -4  -3 42611.6 1976.19   5
   3  -4   4 91930.3 6826.46   4
  -3  -4  -4 93752.7 7021.98   6
   3  -4   5 35653.4 4244.70   4
  -3  -4  -5 40151.4 4576.79   6
   3  -4   6 8873.72 2125.68   4
  -3  -4  -6 14335.2 3008.65   6
   3  -4   7 8259.53 2069.05   5
   3  -4   7 7445.53 1902.09   4
  -3  -4  -8 3030.39 1908.61   6
   3  -4   8 3550.44 1342.27   5
   3  -4   8 3095.15 1165.97   4
   3  -4   9 6235.93 1853.14   5
   3  -4   9 4990.71 1908.20   2
  -3  -3  12 2707.95 1502.69   4
  -3  -3  11 25047.7 3865.60   4
  -3  -3  10 60922.9 5621.83   4
  -3  -3   9 104234. 7138.14   4
  -3  -3   8 102060. 6179.18   4
  -3  -3   7 86413.1 3822.56   2
  -3  -3   7 78840.6 5044.99   4
  -3  -3   6 37175.2 3252.01   4
  -3  -3   6 40504.7 2086.92   2
   3  -3  -6 38983.8 2141.22   4
   3  -3  -5 229415. 3602.24   4
  -3  -3   5 243221. 3242.21   2
  -3  -3   5 241672. 6749.55   6
   3  -3  -4 396200. 9411.07   5
  -3  -3   4 388623. 8779.13   6
  -3  -3   4 379260. 8843.64   4
   3  -3  -3 537043. 10794.4   5
  -3  -3   3 629338. 12008.7   6
   3  -3  -2 496042. 10442.9   5
  -3  -3   2 652553. 12328.4   6
   3  -3  -1 516131. 10563.0   5
  -3  -3   1 554791. 11986.3   6
  -3  -3   0 31385.7 3022.49   2
   3  -3   0 34519.6 2786.79   5
   3  -3   0 32473.8 2668.00   4
  -3  -3   0 33424.0 3166.51   6
  -3  -3  -1 49775.3 2659.54   5
   3  -3   1 61322.4 4060.57   5
  -3  -3  -1 56859.6 4411.88   6
   3  -3   1 58997.8 4226.43   4
   3  -3   1 54962.3 3046.61   6
  -3  -3  -2 11459.0 2010.29   6
  -3  -3  -2 11310.4 1131.75   5
   3  -3   2 13674.2 2068.37   5
   3  -3   2 12785.2 2072.78   4
   3  -3   2 12003.9 1394.00   6
  -3  -3  -3 188142. 4348.80   5
   3  -3   3 236261. 9192.54   5
   3  -3   3 183436. 5053.49   6
   3  -3   3 220889. 9683.09   4
  -3  -3  -3 233885. 10022.4   6
   3  -3   4 163093. 8050.71   5
   3  -3   4 162558. 9200.61   4
   3  -3   4 136711. 4540.90   6
  -3  -3  -4 163562. 8625.92   6
   3  -3   5 55162.2 4930.48   5
   3  -3   5 57521.8 5794.71   4
  -3  -3  -5 58740.2 5370.13   6
   3  -3   6 17542.3 3173.16   4
   3  -3   6 16258.9 2798.79   5
  -3  -3  -6 19125.7 2987.01   6
   3  -3   7 32570.7 4103.84   5
  -3  -3  -7 37060.8 4342.96   6
   3  -3   8 19376.5 4480.42   2
   3  -3   8 18642.1 3077.92   5
  -3  -3  -8 17343.9 2849.57   6
   3  -3   9 19922.6 4425.03   2
  -3  -2  12 3316.37 1546.40   4
  -3  -2  11 17610.3 3301.27   4
  -3  -2  10 45134.1 4986.17   4
  -3  -2   9 11963.9 2013.41   4
  -3  -2   8 181250. 6786.85   2
  -3  -2   8 195743. 8679.48   4
  -3  -2   7 225622. 8388.20   4
  -3  -2   7 224822. 6539.93   2
  -3  -2   6 338694. 9254.66   4
  -3  -2   6 340594. 6480.05   2
  -3  -2   5 344977. 8443.75   4
  -3  -2   5 363010. 4771.06   2
  -3  -2   4 247825. 6865.38   6
  -3  -2   4 238650. 6497.15   4
   3  -2  -3 39878.0 2944.17   5
  -3  -2   3 50476.3 3246.49   6
   3  -2  -2 38702.4 2944.99   5
  -3  -2   2 42073.0 3072.67   6
   3  -2  -2 41178.7 2256.10   2
   3  -2  -1 134793. 5552.22   5
  -3  -2   1 131158. 5409.36   6
  -3  -2   0 165554. 5213.22   5
   3  -2   0 180237. 6288.46   5
   3  -2   0 173467. 5645.95   6
  -3  -2   0 182297. 6902.17   6
  -3  -2  -1 186065. 2725.13   1
   3  -2   1 168895. 5416.05   6
   3  -2   1 183249. 6776.61   5
   3  -2   1 179306. 7621.70   4
  -3  -2  -1 165539. 4731.02   5
  -3  -2  -1 196855. 7854.79   6
  -3  -2  -2 37094.0 2102.93   5
   3  -2   2 39466.9 3245.04   5
  -3  -2  -2 39106.2 3663.88   6
   3  -2   2 37603.7 3924.58   4
   3  -2   2 34814.9 2346.83   6
  -3  -2  -3 151760. 4363.14   5
   3  -2   3 183384. 7688.81   5
   3  -2   3 194933. 9943.25   4
   3  -2   3 152971. 5335.39   6
  -3  -2  -3 174161. 7977.19   6
   3  -2   4 218643. 8835.67   5
   3  -2   4 232610. 11797.4   4
  -3  -2  -4 207264. 9059.33   6
  -3  -2  -5 295905. 11223.2   6
   3  -2   5 314458. 11265.3   5
  -3  -2  -6 85066.9 6049.01   6
   3  -2   6 80220.6 5931.50   5
   3  -2   7 21354.6 4683.05   2
   3  -2   7 20313.0 3166.01   5
  -3  -2  -7 20214.5 2941.33   6
   3  -2   8 42142.6 6723.63   2
   3  -2   8 29753.0 3837.28   5
  -3  -2  -8 39475.1 4144.34   6
   3  -2   9 28831.5 5398.55   2
  -3  -1  12 92894.5 8622.49   4
  -3  -1  11 92640.3 7815.63   4
  -3  -1  10 66481.7 6260.64   4
  -3  -1   9 38733.7 4382.50   4
  -3  -1   9 28414.2 3126.34   2
  -3  -1   8 25344.8 2650.13   2
  -3  -1   8 27515.8 3122.45   4
  -3  -1   7 139024. 6557.61   4
  -3  -1   7 126612. 5300.63   2
   3  -1  -6 317914. 7947.92   4
  -3  -1   6 317318. 8724.91   4
  -3  -1   6 304177. 6791.35   2
  -3  -1   5 171780. 5795.03   4
  -3  -1   5 157347. 3873.79   2
   3  -1  -4 82681.1 3194.26   2
  -3  -1   4 76512.0 2051.65   2
  -3  -1   4 83599.0 3494.97   4
   3  -1  -3 110832. 3345.78   2
  -3  -1   3 110458. 4829.33   6
   3  -1  -2 98020.5 4917.50   6
  -3  -1   2 85093.0 3152.46   3
   3  -1  -2 81730.6 4355.14   5
   3  -1  -2 88226.7 2938.76   2
  -3  -1   2 83491.2 4162.57   6
   3  -1  -2 101052. 4076.06   3
   3  -1  -1 250726. 6772.90   1
  -3  -1   1 235297. 6577.21   5
  -3  -1   1 233300. 7587.80   6
   3  -1  -1 233509. 7443.46   5
  -3  -1   0 363225. 7585.10   5
  -3  -1   0 369220. 9438.10   6
   3  -1   0 390090. 9581.90   5
  -3  -1   0 395360. 5878.20   1
  -3  -1  -1 542435. 8890.53   5
   3  -1   1 544445. 11464.2   5
   3  -1   2 239112. 7848.81   5
  -3  -1  -2 215345. 5427.85   5
   3  -1   2 210097. 6512.28   6
  -3  -1  -2 235723. 8137.64   6
   3  -1   3 171554. 6986.34   5
  -3  -1  -3 171596. 7602.65   6
   3  -1   3 155440. 5893.60   6
  -3  -1  -4 57885.0 4582.71   6
   3  -1   4 55245.5 4193.05   5
   3  -1   4 46146.3 3211.45   6
  -3  -1  -5 194617. 8736.91   6
   3  -1   5 186668. 8151.86   5
   3  -1   6 278701. 17319.4   2
   3  -1   6 235752. 9609.96   5
  -3  -1  -6 267786. 10534.2   6
   3  -1   7 249967. 10187.4   5
   3  -1   7 298558. 17947.5   2
  -3  -1  -7 280051. 10561.6   6
   3  -1   8 132659. 11566.6   2
   3  -1   9 95560.6 10167.4   2
  -3   0  11 51912.4 6147.93   4
  -3   0  11 58811.8 8688.88   3
  -3   0  10 118147. 8832.33   4
  -3   0  10 75778.1 5791.98   2
  -3   0   9 159787. 9190.11   4
  -3   0   9 111414. 6498.27   2
  -3   0   8 250385. 8839.07   2
  -3   0   8 315226. 11935.5   4
  -3   0   7 13657.5 1800.66   2
  -3   0   7 15074.8 1922.84   4
  -3   0   6 107307. 5267.99   4
  -3   0   6 94085.4 4195.66   2
  -3   0   5 170026. 5480.83   4
  -3   0   5 155175. 4548.78   2
  -3   0   4 1689.62 390.617   2
  -3   0   4 814.503 346.075   3
  -3   0   4 1423.88 438.331   4
  -3   0   3 1894.59 615.698   3
  -3   0   3 2344.95 921.735   5
   3   0  -3 3327.65 1047.22   6
   3   0  -3 1289.63 318.192   2
   3   0  -2 42392.4 3200.73   6
  -3   0   2 45033.7 3157.17   5
  -3   0   2 44567.2 2323.13   3
  -3   0   2 45332.5 3297.02   6
  -3   0   1 41169.9 3269.05   6
   3   0  -1 44825.8 3355.66   5
   3   0  -1 47637.9 2261.14   3
  -3   0   1 43649.1 2889.10   5
   3   0  -1 39463.7 3075.89   6
  -3   0   1 42284.3 2375.15   1
   3   0   0 324401. 9149.10   5
  -3   0   0 339948. 7659.36   5
  -3   0   0 327291. 9497.99   6
   3   0   1 356482. 9887.53   5
  -3   0  -1 368517. 7762.46   5
   3   0   1 387772. 6999.77   1
  -3   0  -1 365391. 10256.0   6
   3   0   2 200917. 7527.41   5
  -3   0  -2 182720. 5629.84   5
  -3   0  -2 192637. 7498.33   6
   3   0   2 172348. 6747.51   6
  -3   0  -3 873265. 16125.6   6
   3   0   3 747396. 14893.5   5
   3   0   4 487989. 12115.9   5
  -3   0  -4 520839. 12793.4   6
  -3   0  -5 681763. 15328.2   6
   3   0   5 670381. 14991.5   5
   3   0   6 135962. 7063.59   5
  -3   0  -6 155736. 7521.88   6
   3   0   6 140550. 12199.6   2
   3   0   7 4334.43 2480.35   2
   3   0   7 630.891 596.041   5
   3   0   8 42785.7 6856.02   2
   3   0   9 74001.8 9165.91   2
  -3   1  11 127065. 12740.7   3
  -3   1  10 47492.4 4744.16   2
  -3   1  10 81911.8 9718.81   3
  -3   1   9 37444.6 6117.00   3
  -3   1   9 20463.8 2953.82   2
  -3   1   9 38477.1 5034.77   4
  -3   1   8 30043.0 3864.63   4
  -3   1   8 22980.0 4422.35   3
  -3   1   8 18373.2 2574.06   2
  -3   1   7 142905. 9709.01   3
  -3   1   7 118964. 5868.26   2
  -3   1   6 370690. 11165.6   4
  -3   1   6 342055. 13408.0   3
  -3   1   5 133327. 7249.85   3
   3   1  -5 116238. 6781.64   6
  -3   1   5 123136. 4564.88   2
  -3   1   4 109020. 5517.69   3
  -3   1   4 105276. 3720.50   2
  -3   1   4 130480. 3748.81   4
   3   1  -4 115565. 6816.78   6
  -3   1   4 123056. 6331.45   5
   3   1  -3 78933.0 1648.50   2
  -3   1   3 80970.1 4672.92   5
  -3   1   3 76417.9 3842.44   3
  -3   1   3 80874.5 4763.92   1
   3   1  -3 70610.7 4967.47   6
  -3   1   3 74306.6 2824.30   2
  -3   1   3 87892.4 2211.23   4
  -3   1   2 109628. 5191.35   5
   3   1  -2 92535.2 5516.11   6
  -3   1   2 105490. 4611.92   1
  -3   1   1 252051. 7481.04   5
  -3   1   1 238104. 5914.69   1
   3   1   0 257573. 8869.31   5
   3   1   0 398492. 4211.23   3
  -3   1   0 418954. 9214.52   5
  -3   1   0 310401. 9811.69   6
  -3   1   0 489952. 13014.3   4
   3   1   0 323544. 9955.63   6
   3   1   1 431545. 7783.58   1
   3   1   1 369423. 11277.5   5
  -3   1  -2 212878. 8552.18   6
   3   1   2 207890. 4656.06   1
  -3   1  -3 214031. 8840.75   6
   3   1   3 188054. 8249.72   5
   3   1   3 221557. 15253.2   2
   3   1   4 63652.0 4867.63   5
   3   1   4 73632.0 8479.49   2
  -3   1  -4 78408.7 5533.90   6
   3   1   5 258679. 9908.46   5
   3   1   5 216962. 14616.6   2
   3   1   6 331388. 11481.2   5
   3   1   6 270491. 16839.4   2
   3   1   7 276746. 16878.5   2
   3   1   8 151285. 12780.4   2
   3   1   9 106193. 10819.0   2
  -3   2  11 31331.2 6414.70   3
  -3   2  11 15441.4 3018.08   2
  -3   2  10 58683.9 8311.82   3
  -3   2  10 36325.5 4521.82   2
  -3   2   9 22699.5 4808.15   3
  -3   2   9 13790.6 2567.76   2
  -3   2   8 206642. 13176.0   3
  -3   2   8 161046. 7986.39   2
  -3   2   7 213216. 11874.0   3
  -3   2   7 189405. 7940.83   2
   3   2  -6 359191. 15890.2   6
  -3   2   6 337345. 9338.43   2
  -3   2   6 352385. 13652.8   3
  -3   2   5 348060. 8640.79   2
  -3   2   5 346342. 11792.9   3
  -3   2   5 328855. 12488.8   5
  -3   2   5 353212. 13447.4   1
  -3   2   4 219424. 7761.85   3
  -3   2   4 226984. 9415.53   5
  -3   2   4 230456. 6355.07   2
  -3   2   4 227486. 9072.89   1
  -3   2   3 34202.7 3165.76   1
  -3   2   3 33538.9 3309.07   5
  -3   2   3 31500.0 2093.52   2
   3   2  -3 26191.4 3300.03   6
  -3   2   2 46640.7 3492.54   5
   3   2  -2 59803.1 1678.87   2
  -3   2   2 61432.2 2299.06   4
  -3   2   2 49953.8 3194.40   1
   3   2  -2 46000.4 4399.61   6
   3   2  -1 145904. 5624.32   2
  -3   2   1 122388. 5376.54   4
   3   2   0 110456. 6926.81   2
  -3   2   0 143031. 7256.09   4
   3   2   1 131723. 8999.21   2
   3   2   2 32718.8 4963.55   2
   3   2   3 110054. 6642.24   5
   3   2   3 190322. 12879.8   2
   3   2   4 179566. 12838.8   2
  -3   2  -4 165837. 8278.84   6
  -3   2  -5 285208. 10763.2   6
   3   2   5 285971. 16825.3   2
   3   2   6 96148.0 9926.01   2
   3   2   7 15700.8 4251.23   2
   3   2   8 34417.6 6064.50   2
   3   2   9 32355.7 6214.72   2
  -3   3  11 28967.1 5796.18   3
  -3   3  11 17528.0 3350.83   2
  -3   3  10 62779.5 8626.27   3
  -3   3  10 57241.6 5847.14   2
  -3   3   9 97591.3 9897.27   3
  -3   3   9 81781.8 6534.44   2
  -3   3   8 96644.0 9053.97   3
  -3   3   8 102336. 10345.6   1
  -3   3   8 95959.6 6458.28   2
  -3   3   7 70967.1 7761.31   1
  -3   3   7 84172.1 7567.59   3
  -3   3   7 85755.6 5611.17   2
  -3   3   6 40259.5 3547.28   2
  -3   3   6 36154.9 4347.32   3
  -3   3   6 31143.2 4160.45   5
  -3   3   6 29639.7 4369.62   1
  -3   3   5 209435. 10305.8   1
  -3   3   5 205070. 7114.17   2
  -3   3   5 186602. 9481.23   5
  -3   3   4 375359. 12230.4   5
  -3   3   4 360565. 8707.12   2
  -3   3   4 395264. 12584.2   1
   3   3  -4 356170. 13697.2   6
  -3   3   3 615130. 13396.1   1
  -3   3   3 546041. 9830.07   2
   3   3  -2 470081. 4737.77   2
   3   3  -1 377374. 6872.52   2
  -3   3   1 392067. 7306.29   4
  -3   3   0 41779.7 3240.09   4
   3   3   0 43125.5 3161.71   2
   3   3   1 67092.7 5057.34   2
   3   3   2 2989.57 640.744   2
   3   3   3 175911. 6322.98   3
   3   3   3 169412. 11018.7   2
   3   3   4 83352.9 5951.98   3
   3   3   4 107818. 9520.57   2
   3   3   5 46787.6 6549.57   2
   3   3   5 22164.0 3466.18   3
   3   3   6 9120.90 2761.77   3
   3   3   6 13398.9 3572.24   2
   3   3   7 27601.6 5377.70   2
   3   3   7 46663.5 7371.71   3
   3   3   8 11763.4 3531.13   2
   3   3   9 21923.5 4777.63   2
  -3   4  11 7802.40 2472.56   2
  -3   4  11 929.384 3794.49   3
  -3   4  10 9809.40 2643.43   2
  -3   4  10 1946.95 2326.73   3
  -3   4   9 13138.5 3338.69   3
  -3   4   9 10839.1 3182.80   1
  -3   4   9 16453.6 3293.78   2
  -3   4   8 66468.0 5812.18   2
  -3   4   8 57604.9 6811.17   3
  -3   4   7 242627. 10148.5   2
  -3   4   7 183022. 12690.0   1
  -3   4   6 500617. 13155.7   2
  -3   4   6 477325. 18180.5   1
  -3   4   5 498954. 12150.2   2
  -3   4   5 465141. 15397.3   1
  -3   4   4 184862. 6700.74   2
  -3   4   3 60614.3 3655.43   2
   3   4  -2 134703. 3278.81   2
  -3   4   1 293528. 6112.84   4
   3   4  -1 244571. 5544.86   2
  -3   4   0 291758. 8079.77   4
   3   4   0 306085. 7914.16   2
   3   4   1 272332. 9472.11   2
   3   4   2 96072.8 6784.96   2
   3   4   3 47242.8 5399.12   2
   3   4   4 71592.7 7400.00   2
   3   4   5 33114.8 4204.55   3
   3   4   5 30010.5 5218.71   2
   3   4   6 8836.82 2446.26   3
   3   4   6 10318.3 3211.19   2
   3   4   7 6726.09 2805.35   2
   3   4   8 1533.13 1965.21   2
  -3   5  11 28106.2 4863.48   2
  -3   5  10 27475.5 4632.13   2
  -3   5   9 48780.9 5554.79   2
  -3   5   9 22123.4 4748.83   1
  -3   5   8 42413.9 6504.77   1
  -3   5   8 64950.9 5929.26   2
  -3   5   7 42865.0 4433.56   2
  -3   5   7 35651.1 5465.14   1
  -3   5   6 16332.1 2431.49   2
  -3   5   5 89670.5 5504.40   2
  -3   5   4 200661. 7739.67   2
  -3   5   3 232587. 7850.04   2
   3   5  -2 227701. 5073.88   2
   3   5  -1 230162. 5919.68   2
   3   5   0 72802.8 3924.99   2
   3   5   1 138572. 6500.18   2
   3   5   2 137159. 7577.46   2
   3   5   3 158898. 9844.32   2
   3   5   4 86147.8 8037.43   2
   3   5   5 20313.3 4319.82   2
   3   5   6 85918.8 9304.32   2
   3   5   7 42138.9 6689.97   2
   3   5   8 33950.2 6213.07   2
  -3   6  10 25135.5 4405.36   2
  -3   6   9 64138.6 6621.13   2
  -3   6   8 27196.2 4128.45   2
  -3   6   7 104275. 7491.83   2
  -3   6   6 36514.9 4107.48   2
  -3   6   5 54576.7 4492.61   2
  -3   6   4 13337.6 2200.48   2
  -3   6   3 7262.58 1494.90   2
   3   6  -2 5603.51 952.848   2
   3   6  -1 79074.8 3887.14   2
   3   6   0 64071.7 3891.57   2
   3   6   1 52146.2 4091.08   2
   3   6   2 145327. 7808.52   2
   3   6   3 113340. 7949.77   2
   3   6   4 348228. 15997.0   2
   3   6   5 129383. 10723.6   2
   3   6   6 31377.0 5504.55   2
   3   6   7 873.500 1884.23   2
  -3   7   9 143.663 612.563   2
  -3   7   8 8766.88 2339.25   2
  -3   7   7 70663.6 6569.22   2
  -3   7   6 41964.0 4585.66   2
  -3   7   5 33267.8 3950.90   2
  -3   7   4 2063.61 954.073   2
   3   7  -1 51079.9 3305.02   2
   3   7   0 116791. 5667.08   2
   3   7   1 195389. 8236.60   2
   3   7   2 117443. 7248.21   2
   3   7   3 22633.7 3680.75   2
   3   7   4 5624.00 1796.31   2
   3   7   5 30215.7 5203.96   2
   3   7   6 108511. 10371.4   2
   3   7   7 46966.2 7431.20   2
  -3   8   8 31344.9 4844.36   2
  -3   8   7 22357.7 3841.49   2
  -3   8   6 46881.4 5364.65   2
  -3   8   5 19912.6 3270.20   2
  -3   8   4 31097.2 3850.28   2
   3   8  -1 30767.0 2821.87   2
   3   8   0 28625.4 2977.47   2
   3   8   1 4886.12 1126.04   2
   3   8   2 76695.3 6233.75   2
   3   8   3 69401.1 6608.89   2
   3   8   4 148488. 10707.5   2
   3   8   5 53710.0 7321.29   2
   3   8   6 42764.2 7062.73   2
  -3   9   6 6248.86 2254.07   2
  -3   9   5 8835.88 2476.39   2
   3   9  -1 39529.5 3643.74   2
   3   9   0 14793.0 2372.41   2
   3   9   1 18736.2 2970.68   2
   3   9   2 40673.8 4742.06   2
   3   9   3 28569.3 4329.38   2
   3   9   4 23056.9 4801.86   2
   3   9   5 18154.3 4884.52   2
   3  10   0 98635.5 6564.83   2
   3  10   1 46399.9 4817.64   2
   3  10   2 16149.6 3125.53   2
   3  10   3 5447.52 1422.45   2
   3  10   4-1698.97 1998.30   2
   3  11   2 36851.7 5172.79   2
   4 -11  -2 4543.57 1735.39   5
  -4 -11   2 3060.41 1006.86   6
   4 -11  -1 3680.28 1570.32   5
  -4 -11   1 838.113 1041.61   6
   4 -11   0 18504.5 3403.13   5
  -4 -10   4 1747.25 216.543   4
   4 -10  -3 3401.17 1340.05   5
  -4 -10   3 1177.56 694.160   4
  -4 -10   3 4470.53 1691.03   6
   4 -10  -2 7718.00 1998.40   5
  -4 -10   2 8856.05 2170.88   6
   4 -10  -1 21495.3 3345.99   5
  -4 -10   1 17856.2 3279.33   6
   4 -10   0 29101.5 4011.97   5
  -4 -10   0 28852.4 4312.57   6
   4 -10   1 3548.17 1175.33   5
  -4 -10  -1-383.403 2061.60   6
   4 -10   2 9644.38 2374.21   5
   4 -10   3 48433.7 5369.38   4
   4 -10   4 54027.8 5940.07   4
  -4  -9   6 20083.9 2979.95   4
  -4  -9   5 15611.8 2610.79   4
  -4  -9   4 20875.7 3041.57   4
  -4  -9   4 24748.3 3277.90   6
  -4  -9   3 73290.8 5910.19   6
   4  -9  -3 76906.6 5721.72   5
   4  -9  -2 73847.8 5598.81   5
  -4  -9   2 77168.3 6586.91   6
  -4  -9   1 36113.5 4594.77   6
   4  -9  -1 36765.2 4196.24   5
  -4  -9   0 24402.3 3752.30   6
   4  -9   0 26505.0 3613.05   5
   4  -9   1 50892.5 5309.42   5
   4  -9   1 50291.7 4898.64   4
  -4  -9  -1 47353.3 5666.71   6
   4  -9   2 56945.2 5955.61   5
   4  -9   2 59027.4 5670.43   4
  -4  -9  -2 51193.7 6136.50   6
   4  -9   3 29941.7 4382.76   5
   4  -9   3 33768.2 4500.84   4
  -4  -9  -3 32387.2 5133.34   6
   4  -9   4 15056.0 2973.03   4
   4  -9   5 17963.5 3466.81   4
  -4  -8   7 102669. 6974.51   4
  -4  -8   6 59463.4 5025.68   4
  -4  -8   5 162756. 8115.22   4
   4  -8  -4 32913.5 3414.65   5
  -4  -8   4 34880.2 3671.08   6
  -4  -8   4 32136.6 3507.48   4
   4  -8  -3 14809.8 2402.29   5
  -4  -8   3 13482.1 2420.77   6
   4  -8  -2 7212.52 1588.68   5
  -4  -8   2 5909.64 1589.02   6
   4  -8  -1 42994.6 4268.87   5
  -4  -8   1 36476.5 4440.06   6
   4  -8   0 117817. 7456.87   5
   4  -8   0 133462. 7313.10   4
  -4  -8   0 117799. 8323.58   6
  -4  -8  -1 44884.4 5335.41   6
   4  -8   1 46838.6 4905.35   5
   4  -8   1 51250.0 4833.36   4
   4  -8   2 62092.9 5824.88   5
   4  -8   2 61820.6 5622.59   4
  -4  -8  -2 53672.5 6258.16   6
   4  -8   3 29856.0 4364.10   5
   4  -8   3 30378.5 4108.69   4
  -4  -8  -3 29834.1 4677.11   6
   4  -8   4 24520.1 3892.13   4
  -4  -8  -4 31915.5 5055.27   6
   4  -8   4 26598.2 4358.15   5
   4  -8   5 29903.6 4580.66   5
   4  -8   5 32945.8 4604.40   4
  -4  -8  -5 36707.2 5525.56   6
  -4  -7   9 52932.0 5047.86   4
  -4  -7   8 47794.4 4756.71   4
  -4  -7   7 25039.4 3297.06   4
  -4  -7   6 10574.1 2055.70   4
  -4  -7   5 28725.4 3279.26   4
   4  -7  -5 30311.3 3122.24   5
  -4  -7   5 27280.9 2965.08   6
  -4  -7   4 37805.0 3465.85   4
  -4  -7   4 40720.2 3802.49   6
   4  -7  -4 41270.0 3675.14   5
   4  -7  -3 130637. 6786.54   5
  -4  -7   3 128462. 7158.95   6
  -4  -7   2 165890. 8665.40   6
   4  -7  -2 149525. 7251.52   5
   4  -7  -2 160859. 6148.80   4
   4  -7  -1 108209. 6446.04   5
   4  -7  -1 117861. 6018.36   4
  -4  -7   1 113438. 7531.29   6
   4  -7   0 52108.8 4754.40   5
   4  -7   0 56940.6 4577.23   4
  -4  -7   0 53161.3 5319.57   6
   4  -7   1 6200.04 1682.65   5
   4  -7   1 7722.85 1843.84   4
  -4  -7  -1 4759.89 377.594   6
   4  -7   2 44142.4 4801.02   5
   4  -7   2 45800.1 4782.74   4
  -4  -7  -2 41259.7 5195.92   6
   4  -7   3 49995.2 5350.97   5
   4  -7   3 46000.0 5098.35   4
  -4  -7  -3 51117.5 6012.06   6
   4  -7   4 63351.5 6287.67   5
   4  -7   4 66006.0 6316.66   4
  -4  -7  -4 65273.8 7052.37   6
   4  -7   5 11189.5 2830.46   5
   4  -7   5 8089.56 1744.53   4
  -4  -7  -5 15198.7 3783.87   6
   4  -7   6 2477.30 489.033   5
   4  -7   6 1914.98 569.436   4
  -4  -7  -6 1844.30 962.345   6
  -4  -6  10 6433.39 1857.98   4
  -4  -6   9 36774.0 4238.19   4
  -4  -6   8 24951.3 3248.56   4
  -4  -6   7 104799. 6478.40   4
  -4  -6   6 119223. 5373.33   6
  -4  -6   6 121672. 6533.08   4
   4  -6  -5 130518. 6094.98   5
  -4  -6   5 141967. 6491.84   6
  -4  -6   5 134376. 6783.77   4
   4  -6  -4 54551.4 4210.51   5
  -4  -6   4 47973.4 3880.64   6
   4  -6  -3 19731.9 2498.96   5
  -4  -6   3 21426.6 2794.61   6
  -4  -6   2 36051.1 3798.75   6
   4  -6  -2 32866.9 3254.20   5
   4  -6  -2 34378.9 2562.95   4
   4  -6  -1 57330.0 4552.37   5
   4  -6  -1 68147.7 4350.45   4
  -4  -6   1 61271.0 5378.06   6
   4  -6   0 129490. 7117.86   5
   4  -6   0 139731. 6948.20   4
  -4  -6   0 141833. 8331.34   6
   4  -6   1 70750.3 5585.56   5
   4  -6   1 78356.5 5632.58   4
  -4  -6  -1 73401.4 6237.81   6
   4  -6   2 182420. 9457.62   5
   4  -6   2 189197. 9471.69   4
  -4  -6  -2 188271. 10591.2   6
   4  -6   3 80754.0 6506.26   5
   4  -6   3 79378.5 6619.44   4
  -4  -6  -3 72116.3 6932.42   6
   4  -6   4 77512.6 6865.63   5
   4  -6   4 77828.9 6604.77   4
  -4  -6  -4 82005.8 7460.78   6
   4  -6   5 17338.1 3242.79   5
   4  -6   5 15866.9 3001.52   4
  -4  -6  -5 17324.5 3528.92   6
   4  -6   6 10693.7 2430.06   5
   4  -6   6 13729.4 3016.34   4
   4  -6   7 3654.62 1418.53   5
   4  -6   7 3568.91 1447.90   4
  -4  -6  -7 7421.65 2990.66   6
  -4  -5  10 25009.7 3687.50   4
  -4  -5   9 17716.0 2791.28   4
  -4  -5   8 36083.5 3843.26   4
  -4  -5   7 25416.9 3093.43   4
  -4  -5   6 41439.0 3207.93   6
  -4  -5   6 39556.8 3549.01   4
   4  -5  -5 17278.6 2224.73   5
  -4  -5   5 16539.2 2190.98   6
  -4  -5   5 16093.8 2244.04   4
   4  -5  -4 49957.7 3821.17   5
  -4  -5   4 49171.8 4001.74   6
  -4  -5   3 113779. 5983.27   6
   4  -5  -3 119284. 5923.56   5
   4  -5  -2 96624.5 5606.11   5
  -4  -5   2 86857.0 4740.95   2
   4  -5  -2 90761.3 3742.87   4
  -4  -5   2 97574.0 5833.60   6
   4  -5  -1 158674. 7166.21   5
   4  -5  -1 150169. 5945.30   4
  -4  -5   1 169784. 8606.78   6
  -4  -5   0 190199. 9278.81   6
   4  -5   0 186833. 7847.81   4
   4  -5   0 184301. 8159.22   5
   4  -5   1 196941. 8792.40   5
   4  -5   1 195679. 8682.39   4
  -4  -5  -1 192534. 9824.66   6
   4  -5   2 195426. 9397.35   5
   4  -5   2 185661. 9108.09   4
  -4  -5  -2 189712. 10024.5   6
   4  -5   3 64486.5 5654.35   5
   4  -5   3 58984.2 5378.65   4
  -4  -5  -3 63433.1 5964.60   6
   4  -5   4 96571.7 7276.13   5
   4  -5   4 90922.1 7279.03   4
  -4  -5  -4 91962.4 7578.12   6
   4  -5   5 23166.6 3689.55   5
   4  -5   5 20206.6 3551.09   4
  -4  -5  -5 19778.7 3477.79   6
   4  -5   6 109889. 8223.34   5
   4  -5   6 118567. 9568.30   4
  -4  -5  -6 121854. 8921.66   6
   4  -5   7 71838.1 6872.17   5
   4  -5   7 75723.5 7806.59   4
  -4  -5  -7 75047.0 6918.00   6
   4  -5   8 41939.5 5337.76   5
  -4  -5  -8 49590.3 5569.91   6
  -4  -4  11 16166.7 2987.16   4
  -4  -4  10 50490.4 5021.08   4
  -4  -4   9 44991.6 4395.65   4
  -4  -4   8 47532.6 4174.53   4
  -4  -4   7 53686.7 4310.80   4
  -4  -4   6 13505.1 1851.05   6
  -4  -4   6 12567.4 1846.88   4
   4  -4  -5 6018.83 1310.57   5
  -4  -4   5 5631.69 1087.44   4
  -4  -4   5 5379.47 1158.49   6
   4  -4  -4 28187.5 2775.76   5
  -4  -4   4 29958.0 2919.14   6
   4  -4  -3 4994.02 1185.01   5
  -4  -4   3 4949.38 1082.57   6
  -4  -4   2 57867.7 4304.34   6
   4  -4  -2 62781.5 4310.82   5
   4  -4  -1 131710. 6399.43   5
   4  -4  -1 127198. 5348.32   4
  -4  -4   1 131234. 6688.42   6
   4  -4   0 89064.7 5417.07   5
   4  -4   0 92141.0 5305.12   4
  -4  -4   0 94705.1 6414.70   6
  -4  -4  -1 23743.3 1188.05   1
   4  -4   1 26096.1 3089.79   5
   4  -4   1 29486.1 3321.40   4
  -4  -4  -1 28186.7 3507.23   6
   4  -4   2 106699. 6420.04   5
   4  -4   2 108502. 7078.27   4
  -4  -4  -2 102892. 7024.86   6
   4  -4   3 147291. 8097.59   5
   4  -4   3 152891. 9109.12   4
  -4  -4  -3 143902. 8538.63   6
   4  -4   4 417731. 14531.4   5
   4  -4   4 443082. 16923.3   4
  -4  -4  -4 388668. 14441.7   6
   4  -4   5 348846. 13764.4   5
   4  -4   5 360956. 16135.2   4
  -4  -4  -5 345470. 14095.7   6
   4  -4   6 96955.6 7513.96   5
  -4  -4  -6 104104. 7903.86   6
   4  -4   7 22805.4 3632.02   5
  -4  -4  -7 22476.1 3556.59   6
  -4  -4  -8 11765.7 2612.30   6
   4  -4   8 15199.5 3108.56   5
  -4  -3  12 66161.0 6607.40   4
  -4  -3  11 39963.0 4831.96   4
  -4  -3  10 19167.4 3022.05   4
  -4  -3   9 15739.4 2602.57   4
  -4  -3   8 19280.5 2581.60   4
  -4  -3   7 84673.4 5176.50   4
  -4  -3   6 4595.46 1094.95   4
  -4  -3   5 24556.0 2462.99   4
  -4  -3   5 21907.7 2436.86   6
   4  -3  -4 123061. 6150.46   5
  -4  -3   4 121840. 5826.25   6
   4  -3  -3 31594.3 3049.91   5
  -4  -3   3 39365.2 3534.74   6
   4  -3  -2 163910. 6941.43   5
  -4  -3   2 157652. 6777.74   6
   4  -3  -1 46751.8 3855.51   5
  -4  -3   1 42362.9 3698.87   6
  -4  -3   1 44638.7 1408.99   3
   4  -3   0 288893. 9404.69   5
  -4  -3   0 287562. 10054.2   6
   4  -3   1 275029. 9669.95   5
  -4  -3  -1 271880. 3869.33   1
   4  -3   2 222681. 9068.51   5
  -4  -3  -2 230957. 10141.3   6
   4  -3   3 269191. 10377.7   5
  -4  -3  -3 267165. 11324.8   6
   4  -3   4 17781.5 2815.91   5
  -4  -3  -4 18624.8 2889.98   6
  -4  -3  -5 48786.8 5115.82   6
   4  -3   5 49276.9 4895.70   5
   4  -3   6 174405. 9713.80   5
  -4  -3  -6 195951. 10209.9   6
   4  -3   7 134024. 8753.51   5
  -4  -3  -7 155597. 9271.30   6
   4  -3   8 194658. 15648.5   2
   4  -3   8 163858. 9848.34   5
  -4  -3  -8 176973. 9832.70   6
  -4  -2  12 2717.48 1321.27   4
  -4  -2  11 26485.8 3897.86   4
  -4  -2  10 39731.5 4339.34   4
  -4  -2   9 64226.6 5285.36   4
  -4  -2   8 117281. 6394.90   4
  -4  -2   7 167578. 4183.33   2
  -4  -2   7 174898. 7034.70   4
  -4  -2   6 234045. 3516.89   2
  -4  -2   6 256550. 7847.50   4
  -4  -2   5 180268. 6177.39   4
   4  -2  -4 122278. 5874.41   5
  -4  -2   4 114787. 5590.23   6
   4  -2  -3 19996.6 2424.36   5
  -4  -2   3 22160.3 2554.98   6
   4  -2  -2 27891.5 2930.03   5
  -4  -2   2 27409.9 2897.85   6
  -4  -2   2 26949.3 1697.01   3
   4  -2  -1 261399. 8999.06   5
  -4  -2   1 285968. 9471.69   6
  -4  -2   0 171878. 4178.82   1
  -4  -2   0 178995. 7489.02   6
   4  -2   1 223060. 8550.94   5
  -4  -2  -1 222378. 8884.87   6
   4  -2   2 123187. 6504.92   5
  -4  -2  -2 120573. 6683.85   6
   4  -2   3 362648. 11662.7   5
  -4  -2  -3 348511. 12227.5   6
   4  -2   4 204391. 9344.16   5
  -4  -2  -4 201631. 9475.06   6
   4  -2   5 409453. 13748.1   5
  -4  -2  -5 399282. 13574.0   6
   4  -2   6 50767.8 4946.77   5
  -4  -2  -6 56743.3 5192.12   6
  -4  -2  -7 7304.56 1973.03   6
   4  -2   7 8659.07 2126.24   5
   4  -2   8 14064.5 4099.87   2
  -4  -1  11 46875.4 5199.89   4
  -4  -1  10 117168. 7764.75   4
  -4  -1   9 184244. 8911.05   4
  -4  -1   8 23429.3 2844.87   4
  -4  -1   8 19307.3 2042.16   2
  -4  -1   7 205250. 5687.50   2
  -4  -1   7 219093. 7804.86   4
  -4  -1   6 27818.2 1726.21   2
  -4  -1   6 30360.4 2619.07   4
  -4  -1   5 65215.5 3437.47   4
   4  -1  -4 176027. 4757.72   2
  -4  -1   4 178159. 6839.24   3
   4  -1  -3 117836. 5979.17   5
   4  -1  -3 115812. 3840.20   2
  -4  -1   3 118115. 5783.49   6
  -4  -1   3 117114. 4601.88   3
   4  -1  -2 263471. 9278.37   5
  -4  -1   2 284415. 5466.89   3
  -4  -1   2 273047. 8674.06   6
   4  -1  -1 493973. 12790.8   5
  -4  -1   1 459113. 8420.79   1
  -4  -1   1 499202. 12437.5   6
   4  -1   0 163425. 7486.26   5
  -4  -1   0 152060. 4152.12   1
  -4  -1   0 155414. 7292.88   6
   4  -1   1 153047. 7257.15   5
  -4  -1  -1 139244. 6976.27   6
   4  -1   2 62636.3 4794.22   5
  -4  -1  -2 56787.6 4483.18   6
   4  -1   3 218739. 9153.19   5
  -4  -1  -3 204962. 8774.56   6
   4  -1   4 203266. 9046.04   5
  -4  -1  -4 207020. 9297.78   6
   4  -1   5 87331.9 6113.36   5
  -4  -1  -5 96623.6 6457.43   6
   4  -1   6 64469.4 8805.37   2
   4  -1   6 56457.2 4977.47   5
  -4  -1  -6 63313.2 5326.27   6
   4  -1   7 40589.4 4489.11   5
   4  -1   7 39002.7 7036.66   2
  -4  -1  -7 44166.6 4373.66   6
   4  -1   8 45239.9 7167.04   2
   4  -1   9 8486.91 3427.26   2
  -4   0  11 62874.5 8526.13   3
  -4   0  10 2996.47 2389.22   3
  -4   0  10 236.185 582.430   4
  -4   0   9 4044.78 2302.80   3
  -4   0   9 2429.91 1467.59   4
  -4   0   9 1932.54 923.511   2
  -4   0   8 137271. 7154.22   4
  -4   0   8 140806. 10029.8   3
  -4   0   7 353835. 10013.9   4
  -4   0   7 374861. 14805.5   3
  -4   0   6 284540. 6611.11   2
   4   0  -6 352774. 8373.78   2
  -4   0   6 309740. 7997.13   4
  -4   0   6 327333. 12526.2   3
   4   0  -5 178654. 4725.09   2
  -4   0   5 164081. 5018.49   4
  -4   0   5 175841. 7991.79   3
  -4   0   4 194061. 7152.17   3
   4   0  -4 186064. 4161.10   2
   4   0  -3 2251.68 473.226   2
  -4   0   3 2201.24 669.173   3
   4   0  -2 19787.8 2570.39   5
  -4   0   2 17601.6 1893.23   1
  -4   0   2 19651.6 2484.12   6
   4   0  -2 20353.6 1995.14   3
   4   0  -1 142119. 7557.98   5
   4   0  -1 152683. 4568.88   3
  -4   0   1 145039. 4852.78   1
  -4   0   1 144153. 7126.42   6
   4   0   0 4253.57 1112.61   5
  -4   0   0 4701.21 1313.67   6
   4   0   0 5674.11 1091.47   1
  -4   0  -1 417482. 12503.7   6
   4   0   1 420811. 13046.4   5
   4   0   2 167358. 8249.83   5
   4   0   2 160603. 5375.43   1
  -4   0  -2 176887. 8551.77   6
   4   0   3 161206. 8164.31   5
  -4   0  -3 179556. 9000.76   6
   4   0   4 23518.2 3277.73   5
  -4   0  -4 24720.4 3444.03   6
   4   0   5 497.973 1050.90   5
   4   0   5 840.818 1899.81   2
  -4   0  -5 2218.72 1278.60   6
  -4   0  -6 24258.4 3351.26   6
   4   0   6 23957.5 3514.91   5
   4   0   6 24490.6 5655.51   2
   4   0   7 2260.73 2095.69   2
   4   0   8 12558.3 3844.31   2
   4   0   9 16407.1 5003.18   2
  -4   1  11 53983.5 8116.77   3
  -4   1  10 140013. 12147.8   3
  -4   1  10 88563.9 6107.65   2
  -4   1   9 199912. 13657.6   3
  -4   1   9 157192. 7559.94   2
  -4   1   8 20709.9 3943.42   3
  -4   1   8 16249.8 2238.86   2
  -4   1   8 24401.7 3353.47   4
  -4   1   7 256091. 12564.3   3
  -4   1   7 295010. 10148.9   4
  -4   1   6 30789.5 3722.57   3
  -4   1   6 25339.8 2258.37   2
  -4   1   5 50599.2 4278.93   3
  -4   1   5 61830.0 5418.52   1
  -4   1   5 51822.0 2909.85   2
  -4   1   5 60669.2 2873.53   4
  -4   1   4 159103. 6406.63   3
  -4   1   4 169198. 8122.90   1
   4   1  -4 176878. 3260.81   2
  -4   1   4 177252. 3964.25   4
   4   1  -3 102411. 2415.91   2
  -4   1   3 101980. 5267.12   1
  -4   1   2 275606. 7922.15   1
  -4   1   1 494732. 9389.77   1
  -4   1   0 117491. 7080.63   6
   4   1   0 128811. 3095.26   3
   4   1   1 142291. 8489.13   5
  -4   1  -1 143713. 8052.70   6
   4   1   2 64313.1 5419.10   5
  -4   1  -2 60036.8 5090.27   6
   4   1   2 64088.0 3368.99   1
   4   1   3 239139. 10933.7   5
   4   1   3 257396. 18494.0   2
   4   1   3 210591. 5775.05   1
  -4   1  -3 262731. 11376.0   6
   4   1   4 266159. 11928.3   5
   4   1   4 253038. 17981.6   2
  -4   1  -4 279174. 12065.9   6
   4   1   5 137128. 8777.47   5
   4   1   5 110665. 11656.0   2
  -4   1  -5 137286. 8496.84   6
   4   1   6 67781.4 6245.87   5
   4   1   6 52326.6 7944.89   2
   4   1   7 60139.8 8464.38   2
   4   1   8 52026.4 8239.81   2
  -4   2  12 20210.2 6243.59   1
  -4   2  11 29580.4 5939.58   3
  -4   2  11 70816.3 10118.8   1
  -4   2  10 48099.6 7112.84   3
  -4   2  10 35795.3 4289.76   2
  -4   2   9 50693.8 4762.62   2
  -4   2   9 65084.0 7785.58   3
  -4   2   8 126942. 9675.73   3
  -4   2   8 111038. 6356.50   2
  -4   2   7 145084. 6518.49   2
  -4   2   7 165917. 10003.1   3
  -4   2   6 247671. 10883.6   3
  -4   2   6 255801. 7969.69   2
  -4   2   5 179827. 7820.23   3
  -4   2   5 187363. 6195.74   2
  -4   2   5 185842. 9410.04   1
  -4   2   4 115217. 4483.89   2
  -4   2   4 122402. 6909.50   1
  -4   2   3 29691.5 2541.40   4
  -4   2   3 28212.6 2979.11   1
   4   2  -2 23914.2 2455.22   2
  -4   2   2 19126.8 2592.71   4
  -4   2   2 16963.6 2022.97   1
   4   2  -1 136322. 9860.09   2
  -4   2   1 314694. 12445.5   4
   4   2   0 144106. 12002.0   2
  -4   2   0 241766. 11813.9   4
   4   2   1 189903. 14760.5   2
   4   2   2 117395. 11912.0   2
   4   2   3 310157. 13803.3   5
  -4   2  -3 307956. 13630.4   6
   4   2   4 229991. 12181.7   5
   4   2   4 212109. 16200.9   2
  -4   2  -4 201596. 10790.9   6
   4   2   5 774703. 22932.7   5
  -4   2  -5 617580. 19024.1   6
   4   2   6 64186.6 9003.28   2
   4   2   7 7210.32 3851.60   2
   4   2   8 15738.7 5008.63   2
  -4   3  11 41557.0 5144.81   2
  -4   3  11 51849.9 7605.78   3
  -4   3  10 16480.6 3055.05   2
  -4   3  10 16443.1 3725.40   3
  -4   3   9 15536.1 2757.89   2
  -4   3   9 16340.7 3821.56   3
  -4   3   8 16941.7 2493.31   2
  -4   3   8 18372.3 3652.72   3
  -4   3   8 22999.4 5029.01   1
  -4   3   7 83409.5 7024.55   3
  -4   3   7 80035.5 5152.80   2
  -4   3   7 81522.5 8094.14   1
  -4   3   6 8645.46 1539.65   2
  -4   3   6 4038.01 1250.13   1
  -4   3   5 17512.5 3069.49   1
  -4   3   5 20851.8 2327.75   2
  -4   3   4 115188. 6875.14   1
  -4   3   4 112400. 4986.83   2
  -4   3   3 25240.4 2901.82   1
   4   3  -2 180361. 4275.31   2
  -4   3   2 165806. 4389.54   4
   4   3  -1 63124.4 3952.32   2
  -4   3   1 56688.3 4068.62   4
   4   3   0 224313. 10206.8   2
   4   3   1 190171. 11305.4   2
   4   3   2 152776. 11508.1   2
   4   3   3 191228. 6235.31   3
   4   3   3 182998. 13726.1   2
   4   3   4 13415.0 2346.39   3
   4   3   4 22175.7 5087.43   2
   4   3   5 70961.8 9189.07   2
   4   3   5 48944.0 5511.86   3
   4   3   6 157688. 13852.6   2
   4   3   7 169826. 14627.0   2
   4   3   8 175790. 15378.1   2
  -4   4  11 11524.1 2646.87   2
  -4   4  10 46488.7 5284.83   2
  -4   4  10 42550.9 6408.15   3
  -4   4   9 36146.1 4328.96   2
  -4   4   9 32180.2 5200.30   3
  -4   4   9 31976.9 6263.23   1
  -4   4   8 50893.7 4844.62   2
  -4   4   8 39793.5 6360.04   1
  -4   4   7 53852.0 4648.09   2
  -4   4   7 46211.9 6403.33   1
  -4   4   6 9216.32 1655.66   2
  -4   4   6 8713.44 2531.58   1
  -4   4   5 3989.95 1067.33   2
  -4   4   5 5848.03 1950.13   1
  -4   4   4 30307.0 2803.75   2
   4   4  -2 58020.3 2377.09   2
  -4   4   1 138026. 5164.52   4
   4   4  -1 134920. 5048.47   2
   4   4   0 98177.6 5812.31   2
   4   4   1 20869.7 3242.95   2
   4   4   2 85535.7 7798.04   2
   4   4   3 120201. 10283.1   2
   4   4   4 270724. 16834.5   2
   4   4   5 269002. 17792.3   2
   4   4   6 81491.1 9551.59   2
   4   4   7 19743.7 4755.03   2
   4   4   8 10857.7 3362.33   2
  -4   5  11 33124.8 5019.15   2
  -4   5  10 21737.5 3710.33   2
  -4   5  10-1775.56 4016.13   1
  -4   5   9 16164.7 2994.32   2
  -4   5   9 4401.37 1606.70   1
  -4   5   8 36295.9 4422.62   2
  -4   5   8 23684.6 4928.84   1
  -4   5   7 19879.2 2974.99   2
  -4   5   7 13227.5 3482.90   1
  -4   5   6 42930.8 4098.67   2
  -4   5   5 14684.0 2266.34   2
  -4   5   4 38008.2 3427.19   2
   4   5  -2 114290. 3640.81   2
  -4   5   1 156262. 5431.40   4
   4   5  -1 141020. 5097.42   2
   4   5   0 204754. 7727.21   2
   4   5   1 200044. 9302.68   2
   4   5   2 216933. 11472.6   2
   4   5   3 54637.2 6520.25   2
   4   5   4 66939.3 8156.89   2
   4   5   5 10931.9 3206.37   2
   4   5   6 71283.8 9300.77   2
   4   5   7 55912.5 8460.63   2
  -4   6  10 7036.65 2324.13   2
  -4   6   9 36518.5 4981.24   2
  -4   6   8 31017.1 4223.34   2
  -4   6   7 109903. 7418.48   2
  -4   6   6 136806. 7722.53   2
  -4   6   5 135142. 7370.38   2
   4   6  -2 28797.0 2111.27   2
   4   6  -1 57169.9 3436.40   2
   4   6   0 156051. 6798.17   2
   4   6   1 62918.1 4936.75   2
   4   6   2 183819. 10090.0   2
   4   6   3 53347.3 6027.03   2
   4   6   4 45964.5 6336.29   2
   4   6   5 8143.98 1648.59   2
   4   6   6 7896.58 1420.93   2
   4   6   7 285.674 2757.16   2
  -4   7   9 50783.8 6090.46   2
  -4   7   8 63528.9 6541.89   2
  -4   7   7 28468.5 4126.95   2
  -4   7   6 11823.2 2633.99   2
  -4   7   5 25582.9 3454.92   2
   4   7  -2 178272. 5847.96   2
   4   7  -1 102826. 4959.47   2
   4   7   0 63520.7 4463.35   2
   4   7   1 6539.26 1847.85   2
   4   7   2 53495.9 5415.67   2
   4   7   3 39383.6 5187.61   2
   4   7   4 47096.2 6309.91   2
   4   7   5 4077.79 971.992   2
   4   7   6 148.566 2183.74   2
  -4   8   8 22347.2 4065.93   2
  -4   8   7 96481.8 7974.10   2
  -4   8   6 72851.6 6521.75   2
   4   8  -1 47074.1 3623.37   2
   4   8   0 140587. 6987.13   2
   4   8   1 45374.8 4572.83   2
   4   8   2 67322.1 6304.52   2
   4   8   3 29794.7 4704.26   2
   4   8   4 26141.3 5023.31   2
   4   8   5 21115.1 4841.96   2
  -4   9   6 25566.5 4222.95   2
   4   9   0 33183.2 3637.97   2
   4   9   1 51078.3 4913.00   2
   4   9   2 67027.9 6511.67   2
   4   9   3 33641.5 5326.73   2
   4   9   4 20724.6 4966.70   2
   4  10   2 10604.9 2434.97   2
   4  10   3 44989.6 5870.12   2
  -5 -11   2 48732.1 5627.67   6
   5 -11  -2 51772.2 5669.44   5
   5 -10  -3 6284.69 1685.01   5
  -5 -10   3 10283.7 2630.04   6
   5 -10  -2 6376.16 2184.83   5
  -5 -10   2 4113.65 1707.46   6
   5 -10  -1 25471.7 3819.82   5
  -5 -10   1 27363.1 4365.28   6
   5 -10   0 46112.2 5337.11   5
  -5 -10   0 49721.8 6095.62   6
  -5  -9   5 2053.69 933.635   4
   5  -9  -4 27824.8 3493.35   5
  -5  -9   4 29697.9 3803.90   6
  -5  -9   4 20948.9 3004.61   4
   5  -9  -3 70993.9 5923.82   5
  -5  -9   3 74166.1 6333.99   6
  -5  -9   2 78585.6 6636.23   6
   5  -9  -2 83602.9 6532.51   5
   5  -9  -1 46136.3 4968.27   5
  -5  -9   1 49444.2 5822.15   6
   5  -9   0 39121.5 4696.38   5
  -5  -9   0 41511.0 5455.82   6
   5  -9   1 32455.3 4488.64   5
  -5  -9  -1 28982.5 4650.76   6
   5  -9   2 24696.4 3986.31   5
  -5  -9  -2 21798.5 4004.54   6
   5  -9   3 29645.4 4167.49   4
   5  -9   4 2794.61 1181.47   4
  -5  -8   7 12655.4 2344.99   4
  -5  -8   6 10940.0 2187.76   4
   5  -8  -5 34773.1 3897.95   5
  -5  -8   5 29612.1 3380.59   6
  -5  -8   5 31638.9 3674.92   4
   5  -8  -4 12599.3 2311.80   5
  -5  -8   4 9871.41 1986.37   6
   5  -8  -3 9790.55 2046.23   5
  -5  -8   3 8668.28 2148.94   6
   5  -8  -2 39689.6 4360.06   5
  -5  -8   2 30529.1 4136.46   6
   5  -8  -1 57361.3 5191.91   5
  -5  -8   1 57196.5 5736.32   6
   5  -8   0 46986.3 4959.76   5
  -5  -8   0 42651.3 5387.98   6
   5  -8   1 18542.7 3366.07   5
   5  -8   1 17691.0 2895.37   4
  -5  -8  -1 14458.1 2893.73   6
   5  -8   2 29988.7 4280.58   5
   5  -8   2 29593.2 3937.06   4
  -5  -8  -2 26422.0 4337.71   6
   5  -8   3 98301.3 8150.57   5
   5  -8   3 95434.8 7613.24   4
  -5  -8  -3 92119.8 8666.42   6
   5  -8   4 95829.3 8382.21   5
   5  -8   4 95415.6 8193.38   4
  -5  -8  -4 94227.6 8977.24   6
   5  -8   5 77721.6 7891.29   4
  -5  -7   8 1874.62 1088.11   4
  -5  -7   7 17445.9 2681.51   4
  -5  -7   6 9432.36 1895.28   4
   5  -7  -5 1246.89 823.329   5
  -5  -7   5-911.736 1126.49   4
  -5  -7   5-489.112 711.543   6
   5  -7  -4 73.1821 393.218   5
  -5  -7   4-2571.52 1299.66   6
   5  -7  -3 4996.86 1385.68   5
  -5  -7   3 8465.83 2072.56   6
   5  -7  -2 10022.7 2098.14   5
  -5  -7   2 8342.18 2208.56   6
   5  -7  -1 19190.0 2847.35   5
  -5  -7   1 18897.6 3201.32   6
   5  -7   0 130426. 8064.08   5
   5  -7   0 130559. 7074.67   4
  -5  -7   0 145720. 9511.99   6
   5  -7   1 160438. 9313.96   5
   5  -7   1 157889. 8505.47   4
  -5  -7  -1 168157. 10430.1   6
   5  -7   2 142049. 8943.55   5
   5  -7   2 147034. 9036.31   4
  -5  -7  -2 146591. 10172.2   6
   5  -7   3 60306.0 6070.72   5
   5  -7   3 59856.1 6122.35   4
  -5  -7  -3 60312.4 6480.82   6
   5  -7   4 1777.71 1043.08   5
   5  -7   4 3564.90 1631.64   4
  -5  -7  -4 3352.66 1592.76   6
   5  -7   5 10998.8 2788.22   5
   5  -7   5 13390.7 3088.70   4
  -5  -7  -5 17099.4 3586.54   6
  -5  -6  10 28455.2 4006.68   4
  -5  -6   9 37011.2 4175.58   4
  -5  -6   8 47895.3 4648.81   4
  -5  -6   7 46074.9 4217.45   4
   5  -6  -6 73490.3 5173.33   5
  -5  -6   6 60833.5 4317.87   6
  -5  -6   6 63728.4 4857.21   4
   5  -6  -5 24001.3 3000.32   5
  -5  -6   5 26066.2 3048.99   6
  -5  -6   5 23295.9 2824.64   4
  -5  -6   4 24316.5 2956.72   6
   5  -6  -4 25730.9 3224.98   5
   5  -6  -3 44516.2 4193.81   5
  -5  -6   3 45853.5 4302.15   6
   5  -6  -2 70511.3 5371.39   5
  -5  -6   2 65164.6 5486.39   6
   5  -6  -1 142008. 7842.15   5
   5  -6  -1 141630. 6623.07   4
  -5  -6   1 135813. 7998.60   6
   5  -6   0 88319.0 6312.94   5
   5  -6   0 100348. 6381.18   4
  -5  -6   0 94504.1 7288.06   6
   5  -6   1 17360.4 2920.05   5
   5  -6   1 18499.7 2802.03   4
  -5  -6  -1 16327.9 3132.91   6
   5  -6   2 98764.4 7301.34   5
   5  -6   2 101218. 7478.50   4
  -5  -6  -2 92177.8 7717.97   6
   5  -6   3 109043. 7913.21   5
   5  -6   3 117959. 8793.68   4
  -5  -6  -3 112906. 8663.44   6
   5  -6   4 244793. 12377.4   5
   5  -6   4 267473. 13839.7   4
  -5  -6  -4 247369. 13361.7   6
   5  -6   5 129807. 9329.90   5
   5  -6   5 130703. 10160.9   4
  -5  -6  -5 132861. 9945.74   6
   5  -6   6 28980.9 4533.24   5
  -5  -6  -6 33089.4 4759.41   6
  -5  -5  10 28569.9 3812.78   4
  -5  -5   9 52125.1 4800.50   4
  -5  -5   8 72296.7 5550.62   4
  -5  -5   7 58721.8 4592.54   4
   5  -5  -6 14717.2 2309.76   5
  -5  -5   6 14604.8 2155.90   6
  -5  -5   6 11874.7 2103.09   4
   5  -5  -5 3508.01 1083.78   5
  -5  -5   5 3385.00 1161.39   6
   5  -5  -4 130216. 7134.99   5
  -5  -5   4 149832. 7661.15   6
   5  -5  -3 152064. 7608.63   5
  -5  -5   3 158686. 7971.95   6
  -5  -5   2 190768. 8609.37   6
   5  -5  -2 204527. 8916.41   5
   5  -5  -1 306301. 11244.6   5
  -5  -5   1 290514. 11469.7   6
   5  -5   0 119620. 7000.18   5
  -5  -5   0 114401. 7375.76   6
   5  -5   1 149615. 8227.01   5
   5  -5   1 156132. 8589.46   4
  -5  -5  -1 148519. 9099.55   6
   5  -5   2 127838. 8031.38   5
   5  -5   2 138743. 8870.21   4
  -5  -5  -2 134099. 8942.01   6
   5  -5   3 100765. 7442.94   5
   5  -5   3 105964. 8275.41   4
  -5  -5  -3 99328.7 7873.20   6
   5  -5   4 10715.5 2550.61   5
  -5  -5  -4 9208.49 1934.84   6
   5  -5   5 4364.92 1720.18   5
  -5  -5  -5 6719.80 2017.21   6
   5  -5   6 42777.7 5275.73   5
  -5  -5  -6 47967.9 5795.06   6
   5  -5   7 38407.3 5192.62   5
  -5  -5  -7 44956.3 5426.23   6
  -5  -5  -8 43793.1 5511.89   6
  -5  -4  11 27977.1 4186.82   4
  -5  -4  10 16708.5 2899.00   4
  -5  -4   9 7981.99 1879.89   4
  -5  -4   8 23762.2 3021.56   4
  -5  -4   7 104177. 5931.11   4
  -5  -4   6 318298. 10143.3   4
  -5  -4   6 326667. 10276.9   6
   5  -4  -5 243007. 9478.48   5
  -5  -4   5 249532. 8939.29   6
   5  -4  -4 165971. 7603.53   5
  -5  -4   4 221235. 8547.03   6
   5  -4  -3 141982. 7330.51   5
  -5  -4   3 155238. 7755.01   6
  -5  -4   2 27369.1 2940.23   6
   5  -4  -2 29701.3 3367.66   5
  -5  -4   1 204313. 8859.92   6
   5  -4  -1 230356. 9585.62   5
   5  -4   0 347932. 11886.2   5
  -5  -4   0 337067. 12327.6   6
   5  -4   1 235545. 10024.8   5
  -5  -4  -1 212120. 3517.83   1
  -5  -4  -1 226311. 10341.8   6
   5  -4   2 215077. 10023.4   5
  -5  -4  -2 208750. 10539.1   6
   5  -4   3 64581.9 5774.95   5
  -5  -4  -3 65152.0 6123.13   6
   5  -4   4 27873.9 3837.82   5
  -5  -4  -4 29614.2 4199.65   6
   5  -4   5 17780.9 3414.76   5
  -5  -4  -5 21223.4 3611.21   6
   5  -4   6 11065.4 2588.69   5
  -5  -4  -6 9347.23 2254.33   6
   5  -4   7 6796.96 2035.12   5
  -5  -4  -7 6309.53 2016.26   6
   5  -4   8 19568.8 3806.50   5
  -5  -3  12 10242.7 2575.67   4
  -5  -3  11 12191.2 2424.99   4
  -5  -3  10 63468.5 5464.84   4
  -5  -3   9 83344.3 5910.86   4
  -5  -3   8 133340. 6809.40   4
  -5  -3   7 107085. 5708.73   4
  -5  -3   6 92212.3 5091.02   4
   5  -3  -5 23394.2 2861.43   5
  -5  -3   5 23363.1 2734.40   6
   5  -3  -4 320826. 11410.4   5
  -5  -3   4 317264. 10182.7   6
   5  -3  -3 434542. 12544.4   5
  -5  -3   3 450018. 12415.4   6
  -5  -3   2 550027. 6816.32   3
   5  -3  -2 592486. 15016.9   5
   5  -3  -1 522701. 14098.5   5
  -5  -3   1 544406. 14421.6   6
  -5  -3   0 72352.5 5391.25   6
  -5  -3   0 65268.5 2666.85   1
   5  -3   1 36882.1 3998.31   5
  -5  -3  -1 35870.1 4021.38   6
   5  -3   2 176228. 8841.77   5
  -5  -3  -2 173233. 9034.85   6
   5  -3   3 58351.5 5182.52   5
  -5  -3  -3 54598.6 5169.99   6
   5  -3   4 107487. 7480.56   5
  -5  -3  -4 94168.2 6958.52   6
   5  -3   5 2997.79 1178.80   5
  -5  -3  -5 3556.42 1421.43   6
   5  -3   6 29256.0 4076.25   5
  -5  -3  -6 29219.8 4021.95   6
   5  -3   7 7793.92 2282.72   5
  -5  -3  -7 6844.57 2102.45   6
  -5  -2  11 36827.4 4481.34   4
  -5  -2  10 24468.0 3550.53   4
  -5  -2   9 19477.6 2811.87   4
  -5  -2   8 40966.6 3733.30   4
  -5  -2   7 159957. 6714.69   4
  -5  -2   6 211672. 7251.36   4
   5  -2  -4 113031. 6464.64   5
  -5  -2   4 113168. 6282.14   6
  -5  -2   4 113469. 5199.00   3
  -5  -2   3 237289. 6194.73   3
   5  -2  -3 257346. 10321.5   5
  -5  -2   3 238534. 8933.26   6
   5  -2  -2 137209. 7181.59   5
  -5  -2   2 136378. 7108.83   6
   5  -2  -1 277067. 10582.3   5
  -5  -2   1 241517. 6356.98   1
  -5  -2   1 270244. 10383.3   6
   5  -2   0 238104. 9762.64   5
  -5  -2   0 237656. 9997.34   6
  -5  -2  -1 291864. 11034.0   6
   5  -2   1 316719. 11697.7   5
   5  -2   2 191443. 9431.66   5
  -5  -2  -2 168295. 8475.88   6
   5  -2   3 185062. 9660.15   5
  -5  -2  -3 168147. 8832.06   6
   5  -2   4 295282. 12447.6   5
  -5  -2  -4 258812. 11343.7   6
   5  -2   5 115959. 7995.32   5
  -5  -2  -5 115802. 7730.13   6
   5  -2   6 77238.5 6893.06   5
  -5  -2  -6 81836.1 6397.73   6
   5  -2   7 23762.0 3834.08   5
   5  -2   7 34899.1 7127.78   2
  -5  -2  -7 25971.4 3625.83   6
   5  -2   8 38028.9 7237.51   2
  -5  -1  11 87149.1 9387.15   3
  -5  -1  10 53978.2 5030.37   4
  -5  -1  10 63681.5 7636.11   3
  -5  -1   9 39192.7 3958.02   4
  -5  -1   9 42581.8 5736.97   3
  -5  -1   8 37486.6 3524.85   4
  -5  -1   8 40939.4 5085.08   3
  -5  -1   7 78273.0 3064.28   2
  -5  -1   7 89065.5 4821.06   4
  -5  -1   6 42345.8 3049.62   4
  -5  -1   6 43950.8 4390.33   3
  -5  -1   5 7510.66 1496.54   3
  -5  -1   5 6380.06 1106.88   4
  -5  -1   4 73749.0 4178.70   3
   5  -1  -3 80228.7 5615.85   5
  -5  -1   3 75197.5 3475.33   3
  -5  -1   3 77246.4 5374.39   6
  -5  -1   2 79572.7 4215.97   1
  -5  -1   2 79929.4 5438.52   6
   5  -1  -1 366988. 12343.9   5
  -5  -1   1 396802. 12880.7   6
   5  -1   0 395129. 13333.9   5
  -5  -1   0 351537. 12227.9   6
   5  -1   1 480668. 15005.4   5
  -5  -1  -1 486815. 14763.0   6
   5  -1   2 316866. 12194.1   5
  -5  -1  -2 319226. 12440.1   6
   5  -1   3 124912. 8014.91   5
  -5  -1  -3 113686. 7563.18   6
  -5  -1  -4 72529.9 6031.00   6
   5  -1   4 82867.5 6647.17   5
   5  -1   5 83554.0 7055.73   5
  -5  -1  -5 81134.5 6293.39   6
   5  -1   6 174773. 10424.1   5
   5  -1   6 199329. 16371.2   2
  -5  -1  -6 165281. 9154.21   6
   5  -1   7 146932. 14197.9   2
   5  -1   8 154575. 14122.0   2
  -5   0  11 28435.5 5538.81   3
  -5   0  10 41063.0 6348.50   3
  -5   0   9 177260. 8604.75   4
  -5   0   9 178900. 12186.4   3
  -5   0   8 197042. 8121.28   4
  -5   0   8 198509. 11593.2   3
  -5   0   7 68547.5 6146.89   3
  -5   0   7 63741.7 3956.86   4
  -5   0   6 29644.4 3613.43   3
   5   0  -6 28936.2 2086.88   2
  -5   0   6 28937.5 2315.25   4
  -5   0   5 15644.8 2223.69   3
   5   0  -5 15201.9 1335.79   2
  -5   0   5 15259.8 1592.89   4
   5   0  -4 981.383 360.810   2
  -5   0   4 1565.51 693.224   3
  -5   0   4 1469.82 467.416   1
  -5   0   3 58886.7 4152.85   1
   5   0  -3 55478.6 2769.88   2
  -5   0   2 158139. 5923.50   1
   5   0  -2 177908. 6455.19   3
   5   0  -2 155570. 8518.70   5
  -5   0   2 164783. 8457.21   6
   5   0  -1 472103. 15467.2   5
   5   0  -1 488265. 9189.59   3
   5   0   0 197519. 9738.03   5
  -5   0   0 157458. 8248.39   6
   5   0   1 8246.37 1901.53   5
  -5   0  -1 7003.37 1898.18   6
   5   0   2 296695. 12845.5   5
  -5   0  -2 273491. 11696.6   6
   5   0   3 474412. 16384.7   5
  -5   0  -3 453975. 15230.7   6
   5   0   4 679404. 20170.6   5
  -5   0  -4 639658. 18582.3   6
   5   0   5 374640. 15316.3   5
  -5   0  -5 342002. 13575.8   6
   5   0   6 177396. 10719.9   5
   5   0   6 169693. 15296.0   2
  -5   0  -6 171151. 9439.28   6
   5   0   7 941.690 2206.53   2
   5   0   8 23372.7 5526.07   2
  -5   1  12 120638. 12740.3   1
  -5   1  11 86857.7 9733.72   3
  -5   1  10 48347.7 6984.90   3
  -5   1   9 32964.4 5169.42   3
  -5   1   9 26434.8 2990.34   2
  -5   1   8 39525.4 5116.11   3
  -5   1   8 34513.2 3055.37   2
  -5   1   7 83182.0 6762.52   3
  -5   1   7 109844. 8962.04   1
  -5   1   7 78135.4 4250.86   2
  -5   1   7 110291. 5407.74   4
  -5   1   6 44996.8 4395.93   3
  -5   1   6 58017.5 5918.36   1
   5   1  -6 64398.0 3417.42   2
  -5   1   6 39884.0 2783.59   2
  -5   1   6 49854.0 2913.46   4
  -5   1   5 4760.94 1351.80   3
   5   1  -5 6424.83 744.596   2
  -5   1   5 5526.44 813.796   4
  -5   1   5 4416.58 1370.62   1
  -5   1   4 73839.2 5137.43   1
   5   1  -4 76007.2 2367.68   2
  -5   1   3 95381.1 5316.43   1
  -5   1   2 76012.4 4339.61   1
   5   1  -1 312398. 7450.72   3
   5   1   0 302506. 13170.3   5
  -5   1   0 308326. 12977.9   6
   5   1   1 501138. 18127.6   5
  -5   1  -1 469913. 16533.9   6
   5   1   2 327156. 14928.3   5
   5   1   2 350597. 10071.9   1
  -5   1  -2 319478. 14089.5   6
   5   1   3 141530. 9702.98   5
   5   1   3 131903. 5629.37   1
  -5   1  -3 130469. 8656.95   6
   5   1   4 111948. 8583.09   5
   5   1   4 108425. 12864.8   2
  -5   1  -4 95848.6 7274.29   6
   5   1   5 129129. 9426.12   5
   5   1   5 105567. 11863.9   2
  -5   1  -5 103549. 7438.34   6
   5   1   6 151117. 14183.9   2
   5   1   7 123495. 12774.6   2
   5   1   8 147175. 14244.5   2
  -5   2  12 80068.1 11271.2   1
  -5   2  11 39217.1 6767.33   3
  -5   2  11 83344.3 11112.5   1
  -5   2  10 19845.1 4416.33   3
  -5   2  10 47997.0 8163.12   1
  -5   2   9 21845.2 4136.15   3
  -5   2   9 20513.0 2911.78   2
  -5   2   8 48911.9 5868.34   3
  -5   2   8 46864.9 3851.61   2
  -5   2   7 145497. 9067.44   3
  -5   2   7 141979. 6389.27   2
  -5   2   6 189944. 8884.54   3
  -5   2   6 194195. 6915.47   2
  -5   2   6 216596. 11551.9   1
  -5   2   5 335357. 5436.31   4
  -5   2   5 299693. 12258.3   1
  -5   2   4 121752. 6987.73   1
  -5   2   3 226476. 8489.68   1
  -5   2   2 180687. 10314.0   4
  -5   2   1 323336. 14195.8   4
   5   2   0 217427. 18991.2   2
   5   2   1 376123. 24976.9   2
   5   2   2 210793. 18635.0   2
   5   2   3 196960. 12312.5   5
   5   2   3 205566. 17578.8   2
  -5   2  -3 172851. 11125.8   6
   5   2   4 291255. 20645.0   2
  -5   2  -4 328347. 15693.5   6
   5   2   5 131164. 13161.3   2
   5   2   6 90151.9 11095.3   2
   5   2   7 32178.9 7162.92   2
  -5   3  12 37353.4 8374.00   1
  -5   3  11 44509.7 8774.93   1
  -5   3  10 66264.0 7868.61   3
  -5   3  10 61533.4 5688.16   2
  -5   3   9 73786.9 7777.33   3
  -5   3   9 77075.8 5810.03   2
  -5   3   8 109924. 8640.07   3
  -5   3   8 116535. 6582.74   2
  -5   3   7 126689. 10199.1   1
  -5   3   7 118822. 6337.87   2
  -5   3   6 81025.7 7412.91   1
  -5   3   6 91395.9 5185.33   2
  -5   3   5 16566.1 2907.11   1
  -5   3   4 285100. 10714.3   1
  -5   3   3 404609. 6592.01   4
   5   3  -3 452567. 5708.98   2
   5   3  -2 549560. 12179.7   2
  -5   3   2 529647. 13631.1   4
   5   3  -1 324479. 13490.0   2
  -5   3   1 392392. 15254.4   4
   5   3   0 70433.1 7649.84   2
   5   3   1 28559.9 5198.18   2
   5   3   2 141879. 13347.9   2
   5   3   3 76525.4 3250.38   3
   5   3   3 77976.2 10039.7   2
   5   3   4 104769. 12465.1   2
   5   3   5 7915.81 4502.15   2
   5   3   6 36698.6 7872.28   2
   5   3   7 15273.1 4972.65   2
  -5   4  11 46222.5 8582.52   1
  -5   4  10 21293.4 3507.27   2
  -5   4  10 25685.3 6006.45   1
  -5   4   9 8525.86 2091.39   2
  -5   4   9 8963.43 3339.22   1
  -5   4   8 23847.1 3228.76   2
  -5   4   8 15955.0 3937.33   1
  -5   4   7 102997. 6291.78   2
  -5   4   7 91192.8 8954.56   1
  -5   4   6 305768. 10254.9   2
  -5   4   6 297140. 14045.3   1
  -5   4   5 256592. 11859.3   1
   5   4  -3 122955. 2663.84   2
  -5   4   2 31476.4 2248.29   4
   5   4  -2 32531.2 2196.26   2
   5   4  -1 218817. 8236.89   2
  -5   4   1 197555. 8180.97   4
   5   4   0 280779. 12231.5   2
   5   4   1 219147. 12944.5   2
   5   4   2 123129. 10850.9   2
   5   4   3 47536.7 7214.13   2
   5   4   4 17388.1 4585.83   2
   5   4   5 18646.1 5018.27   2
   5   4   6 9859.26 3639.22   2
   5   4   7 8339.50 3624.64   2
  -5   5  11 25233.9 4198.61   2
  -5   5  10 31407.9 4394.86   2
  -5   5  10 7957.84 3244.67   1
  -5   5   9 25079.7 4580.50   1
  -5   5   9 52129.6 5543.95   2
  -5   5   8 55398.8 7589.54   1
  -5   5   8 80352.6 6537.56   2
  -5   5   7 62557.1 5325.54   2
  -5   5   7 53302.0 6953.11   1
  -5   5   6 11069.7 2220.74   2
   5   5  -3 138935. 3305.89   2
   5   5  -2 214328. 5609.46   2
   5   5  -1 252978. 8146.60   2
   5   5   0 130060. 7452.37   2
   5   5   1 154617. 9757.35   2
   5   5   2 111083. 9662.76   2
   5   5   3 66189.2 8323.79   2
   5   5   4 2484.18 552.800   2
   5   5   5 3550.28 715.239   2
   5   5   6 31551.2 6200.11   2
  -5   6  10 29824.9 4803.61   2
  -5   6   9 39084.6 5230.09   2
  -5   6   8 48216.1 5325.26   2
  -5   6   7 37970.7 4431.58   2
  -5   6   6 66677.8 5535.08   2
   5   6  -2 77211.3 3578.37   2
   5   6  -1 162423. 6432.06   2
   5   6   0 112633. 6469.54   2
   5   6   1 11521.4 2254.12   2
   5   6   2 80191.6 7687.71   2
   5   6   3 92948.2 9494.66   2
   5   6   4 157484. 13748.7   2
   5   6   5 69078.9 9544.95   2
   5   6   6 12492.1 3013.46   2
  -5   7   9 4379.91 1942.01   2
  -5   7   8 2891.44 1588.31   2
  -5   7   7 17979.0 3501.16   2
   5   7  -1 25607.8 2696.82   2
   5   7   0 130032. 7026.40   2
   5   7   1 165710. 9190.17   2
   5   7   2 149999. 10102.0   2
   5   7   3 40712.9 5803.62   2
   5   7   4-3465.34 3128.49   2
   5   7   5 1955.11 2076.15   2
  -5   8   7 16039.8 3456.73   2
   5   8   0 56643.7 4843.86   2
   5   8   1 21180.9 3595.88   2
   5   8   2 26687.9 4398.80   2
   5   8   3 75989.2 8182.67   2
   5   8   4 60826.6 8089.01   2
   5   9   2 27008.2 4748.88   2
   5   9   3 40571.2 6371.66   2
   5   9   4 6285.00 3198.24   2
  -6 -10   3 27525.7 4204.13   6
   6 -10  -3 21126.3 3345.83   5
   6 -10  -2 42532.7 5091.09   5
  -6 -10   2 38013.2 5222.98   6
   6  -9  -4 25200.7 3696.97   5
  -6  -9   4 23438.1 3255.70   6
   6  -9  -3 19953.8 3261.73   5
  -6  -9   3 22257.3 3743.76   6
   6  -9  -2 65669.4 6198.28   5
  -6  -9   2 63404.0 6423.66   6
   6  -9  -1 21264.8 3840.51   5
  -6  -9   1 21876.7 4008.19   6
   6  -9   0 24242.3 3973.93   5
  -6  -9   0 24092.6 4206.54   6
   6  -9   1 34980.0 4917.01   5
  -6  -8   6 91147.4 6728.24   4
   6  -8  -5 102253. 7088.65   5
  -6  -8   5 94825.5 6615.62   6
  -6  -8   5 86923.0 6309.74   4
   6  -8  -4 97898.4 7088.82   5
  -6  -8   4 95560.1 6922.43   6
   6  -8  -3 33150.7 4103.09   5
  -6  -8   3 37234.8 4506.36   6
   6  -8  -2 7033.97 1898.96   5
  -6  -8   2 8200.78 2448.16   6
   6  -8  -1 45157.7 5180.97   5
  -6  -8   1 42034.3 5219.52   6
   6  -8   0 49030.1 5500.27   5
  -6  -8   0 41311.7 5265.38   6
   6  -8   1 55471.7 5931.00   5
  -6  -8  -1 55042.8 6121.60   6
   6  -8   2 10446.0 2744.12   5
  -6  -8  -2 11803.8 2858.63   6
  -6  -7   8 70783.2 5874.98   4
  -6  -7   7 106370. 6997.34   4
   6  -7  -6 24476.2 3604.47   5
  -6  -7   6 23913.6 3166.93   6
  -6  -7   6 19608.1 2950.29   4
   6  -7  -5 11745.6 2450.85   5
  -6  -7   5 11767.1 2186.97   6
   6  -7  -4 91799.7 6705.47   5
  -6  -7   4 98546.1 6940.54   6
   6  -7  -3 115424. 7591.94   5
  -6  -7   3 106224. 6992.13   6
   6  -7  -2 218483. 10641.1   5
  -6  -7   2 195966. 10016.9   6
   6  -7  -1 84461.2 6779.45   5
  -6  -7   1 77940.0 6876.77   6
   6  -7   0 44369.3 5032.69   5
  -6  -7   0 39370.7 4942.27   6
   6  -7   1 1780.36 1202.53   5
  -6  -7  -1 1663.27 1353.58   6
   6  -7   2-97.7364 446.498   5
  -6  -7  -2 774.426 824.922   6
   6  -7   3 511.197 550.182   5
  -6  -7  -3 589.665 1576.97   6
   6  -7   4 1210.45 1030.60   5
  -6  -7  -4 14107.0 4460.73   6
  -6  -6   9 2511.33 1223.51   4
  -6  -6   8 13206.8 2391.82   4
  -6  -6   7 40821.9 4210.44   4
   6  -6  -6 142716. 8063.02   5
  -6  -6   6 128352. 7102.14   6
  -6  -6   6 130058. 7319.27   4
   6  -6  -5 121291. 7404.73   5
  -6  -6   5 129681. 7735.39   6
   6  -6  -4 120624. 7643.04   5
  -6  -6   4 110531. 7265.53   6
   6  -6  -3 33700.2 4093.68   5
  -6  -6   3 30966.6 3702.35   6
   6  -6  -2 37910.4 4329.94   5
  -6  -6   2 38973.9 4504.51   6
   6  -6  -1 50890.7 5216.64   5
  -6  -6   1 46376.1 4954.93   6
   6  -6   0 99626.2 7507.13   5
  -6  -6   0 87172.0 7205.42   6
   6  -6   1 20307.6 3324.17   5
  -6  -6  -1 18348.6 3379.43   6
   6  -6   2 50249.2 5488.43   5
  -6  -6  -2 46913.8 5397.70   6
   6  -6   3 46197.6 5560.90   5
  -6  -6  -3 42402.7 5403.93   6
   6  -6   4 38495.6 5334.97   5
  -6  -6  -4 33201.0 4822.05   6
   6  -6   5 59411.0 6781.39   5
  -6  -6  -5 59929.5 6602.81   6
  -6  -5  10 8416.57 2111.83   4
  -6  -5   9 43486.7 4564.29   4
  -6  -5   8 25372.8 3232.47   4
  -6  -5   7 26862.5 3234.95   6
  -6  -5   7 23009.5 2979.33   4
   6  -5  -6 25426.7 3368.55   5
  -6  -5   6 26282.4 3208.84   6
  -6  -5   6 24278.6 2961.56   4
   6  -5  -5 5614.17 1552.77   5
  -6  -5   5 5201.08 1576.28   6
   6  -5  -4 77212.6 5905.72   5
  -6  -5   4 91870.8 6294.14   6
   6  -5  -3 74440.4 5956.92   5
  -6  -5   3 73801.9 5701.42   6
   6  -5  -2 143441. 8229.55   5
  -6  -5   2 125265. 7583.98   6
   6  -5  -1 36414.8 4116.54   5
  -6  -5   1 34941.6 4269.27   6
   6  -5   0 140825. 8676.49   5
  -6  -5   0 137101. 8667.61   6
   6  -5   1 122820. 8138.85   5
  -6  -5  -1 114385. 8083.16   6
   6  -5   2 169949. 9956.84   5
  -6  -5  -2 159610. 9844.92   6
   6  -5   3 53412.9 5827.35   5
  -6  -5  -3 49590.8 5669.87   6
   6  -5   4 38084.1 5154.25   5
  -6  -5  -4 31605.9 4508.50   6
   6  -5   5 4829.59 1963.50   5
  -6  -5  -5 3688.07 1960.72   6
   6  -5   6 61041.3 6758.89   5
  -6  -5  -6 57429.8 6356.34   6
  -6  -4  11 5585.76 1946.82   4
  -6  -4  10 25085.7 3534.17   4
  -6  -4   9 17586.1 2771.11   4
  -6  -4   8 14961.2 2362.45   4
  -6  -4   7 9949.87 1912.98   4
  -6  -4   6 10839.5 1907.20   4
  -6  -4   6 12677.6 2235.32   6
   6  -4  -5 12021.8 2461.19   5
  -6  -4   5 14103.3 2464.48   6
   6  -4  -4 86968.5 6286.24   5
  -6  -4   4 91922.1 6321.03   6
   6  -4  -3 168757. 8882.27   5
  -6  -4   3 147530. 8034.21   6
  -6  -4   3 160965. 4723.65   3
   6  -4  -2 298906. 11853.1   5
  -6  -4   2 297401. 12254.9   6
   6  -4  -1 249920. 10916.6   5
  -6  -4   1 244356. 10847.7   6
   6  -4   0 174748. 9454.89   5
  -6  -4   0 158353. 8841.04   6
   6  -4   1 986.931 728.328   5
  -6  -4  -1 3238.29 1700.21   6
   6  -4   2 55999.0 5727.96   5
  -6  -4  -2 53181.5 5511.02   6
   6  -4   3 111825. 8322.22   5
  -6  -4  -3 103399. 7970.38   6
   6  -4   4 277366. 13684.9   5
  -6  -4  -4 243381. 12421.9   6
   6  -4   5 187969. 11550.9   5
  -6  -4  -5 178118. 10708.7   6
   6  -4   6 89498.5 8190.86   5
  -6  -4  -6 90966.9 7686.36   6
   6  -4   7 41720.6 5828.35   5
  -6  -4  -7 36722.3 4957.09   6
  -6  -3  11 33733.3 4381.00   4
  -6  -3  10 15437.6 2681.65   4
  -6  -3   9 10645.1 2106.75   4
  -6  -3   8 10929.9 1892.47   4
  -6  -3   7 13585.2 2050.00   4
  -6  -3   6 36272.6 3258.20   4
   6  -3  -5 109886. 7080.81   5
  -6  -3   5 106189. 6583.53   6
  -6  -3   5 111256. 5756.66   3
   6  -3  -4 75823.6 6292.29   5
  -6  -3   4 60252.3 4897.14   6
  -6  -3   4 66393.5 3821.59   3
  -6  -3   3 32041.7 2112.51   3
   6  -3  -3 34036.9 3863.58   5
  -6  -3   3 32136.5 3812.02   6
   6  -3  -2 38884.7 4374.31   5
  -6  -3   2 35873.0 4052.75   6
   6  -3  -1 81044.9 6355.04   5
  -6  -3   1 66597.5 3409.51   1
  -6  -3   1 81061.7 6161.16   6
   6  -3   0 263095. 11515.0   5
  -6  -3   0 263622. 11469.3   6
   6  -3   1 263278. 11966.6   5
  -6  -3  -1 246391. 11018.9   6
   6  -3   2 255000. 12151.9   5
  -6  -3  -2 220462. 10714.9   6
   6  -3   3 199096. 11158.1   5
  -6  -3  -3 171967. 9529.05   6
   6  -3   4 54984.4 6064.78   5
  -6  -3  -4 45228.3 5003.05   6
   6  -3   5 3728.17 1513.52   5
  -6  -3  -5 6379.43 2134.75   6
   6  -3   6 79463.5 7449.58   5
  -6  -3  -6 73675.2 6476.24   6
   6  -3   7 104415. 8702.93   5
  -6  -3  -7 97886.1 7483.06   6
  -6  -2  11 39547.8 6138.42   3
  -6  -2  10 17721.2 3898.06   3
  -6  -2  10 12461.6 2397.44   4
  -6  -2   9 33269.8 3582.16   4
  -6  -2   9 42946.9 5435.32   3
  -6  -2   8 7210.11 2084.44   3
  -6  -2   8 6781.44 1457.99   4
  -6  -2   7 57214.2 4085.05   4
  -6  -2   7 66061.9 5657.55   3
  -6  -2   6 109621. 5452.05   4
  -6  -2   6 120105. 6927.51   3
  -6  -2   5 133056. 6381.69   3
  -6  -2   5 129213. 7435.35   6
   6  -2  -4 94870.1 6613.64   5
  -6  -2   4 93115.9 4410.43   3
  -6  -2   4 98500.7 6386.53   6
   6  -2  -3 159977. 9160.34   5
  -6  -2   3 126515. 7201.09   6
   6  -2  -2 256807. 11093.8   5
  -6  -2   2 258009. 11057.8   6
   6  -2  -1 251864. 11507.5   5
  -6  -2   1 229315. 10316.4   6
   6  -2   0 210759. 10428.3   5
  -6  -2   0 195746. 9957.19   6
   6  -2   1 62286.4 5939.39   5
  -6  -2  -1 59032.6 5717.64   6
   6  -2   2 103305. 7598.03   5
  -6  -2  -2 95598.9 7279.36   6
   6  -2   3 93244.0 7612.77   5
  -6  -2  -3 85467.0 6863.03   6
   6  -2   4 210498. 11685.4   5
  -6  -2  -4 176758. 9950.20   6
   6  -2   5 138659. 9710.42   5
  -6  -2  -5 125544. 8333.04   6
   6  -2   6 118452. 9210.72   5
  -6  -2  -6 109495. 8057.21   6
  -6  -1  11 15182.4 3966.32   3
  -6  -1  10 93445.8 9197.93   3
  -6  -1   9 135023. 7056.50   4
  -6  -1   9 152862. 10858.3   3
  -6  -1   8 185750. 7479.10   4
  -6  -1   8 218476. 11739.2   3
  -6  -1   7 159041. 9103.19   3
  -6  -1   7 147070. 6169.92   4
  -6  -1   6 99906.6 6192.46   3
  -6  -1   6 102969. 4912.40   4
  -6  -1   5 16936.4 2250.64   3
  -6  -1   4 127745. 5038.34   3
  -6  -1   4 147848. 7336.15   1
  -6  -1   4 149358. 8200.72   6
   6  -1  -3 399867. 14429.6   5
  -6  -1   3 386683. 10783.7   1
  -6  -1   3 406298. 13634.2   6
  -6  -1   2 238230. 10878.2   6
  -6  -1   2 205872. 6873.85   1
   6  -1  -1 399271. 14706.0   5
  -6  -1   1 380540. 13678.7   6
   6  -1   0 113818. 7798.35   5
  -6  -1   0 104280. 7505.10   6
   6  -1   1 73127.8 6635.41   5
  -6  -1  -1 61101.5 5662.26   6
   6  -1   2 18506.1 3335.58   5
  -6  -1  -2 20483.1 3385.37   6
   6  -1   3 126780. 9016.30   5
  -6  -1  -3 109468. 8129.29   6
   6  -1   4 10314.0 2769.31   5
  -6  -1  -4 10413.4 2656.08   6
   6  -1   5 14273.8 2991.11   5
  -6  -1  -5 17857.6 3221.66   6
   6  -1   6 60230.9 6720.67   5
  -6  -1  -6 56944.8 5766.97   6
   6  -1   7 34671.6 7372.40   2
  -6   0  11 122462. 11380.8   3
  -6   0  10 19366.2 4179.14   3
  -6   0   9 17012.5 3485.85   3
  -6   0   8 21006.1 3562.47   3
  -6   0   8 22943.7 2607.14   4
  -6   0   7 176227. 9290.68   3
  -6   0   7 173528. 6401.22   4
  -6   0   6 402451. 12666.3   3
   6   0  -6 419755. 8028.87   2
  -6   0   6 414891. 9055.32   4
  -6   0   5 445445. 14490.7   1
   6   0  -5 411031. 7622.50   2
  -6   0   4 108345. 6354.86   1
  -6   0   3 322915. 9812.63   1
   6   0  -2 4794.25 473.313   5
  -6   0   2 6500.84 1179.60   1
  -6   0   2 6005.15 1528.71   6
   6   0  -1 24056.4 3617.27   5
   6   0  -1 24110.7 2356.48   3
  -6   0   1 15758.7 1777.09   1
  -6   0   1 21026.8 3260.73   6
   6   0   0 170696. 10824.9   5
  -6   0   0 128802. 8739.37   6
   6   0   1 54161.1 5781.45   5
  -6   0  -1 45834.3 4977.17   6
   6   0   2 283507. 13657.0   5
  -6   0  -2 266278. 13127.7   6
   6   0   3 56492.7 6382.98   5
  -6   0  -3 53329.2 5735.85   6
   6   0   4 17722.1 3560.77   5
  -6   0  -4 13869.8 3111.53   6
   6   0   5 11738.2 2861.10   5
  -6   0  -5 9499.49 2486.55   6
   6   0   6 67181.2 10468.0   2
   6   0   7 33047.7 6747.21   2
  -6   1  11 5029.67 1893.33   3
  -6   1  11 18008.6 5823.06   1
  -6   1  10 91391.0 9141.59   3
  -6   1  10 155420. 13321.2   1
  -6   1   9 143430. 10504.7   3
  -6   1   9 200947. 14312.6   1
  -6   1   8 189043. 11109.5   3
  -6   1   8 257827. 15031.8   1
  -6   1   7 193810. 11798.0   1
  -6   1   7 174614. 6054.22   4
  -6   1   6 111060. 8218.34   1
  -6   1   6 105439. 4097.70   4
  -6   1   5 18911.1 3058.95   1
   6   1  -5 17693.1 1276.81   2
  -6   1   4 130487. 6989.33   1
   6   1  -4 140678. 3859.67   2
  -6   1   3 366339. 10784.9   1
  -6   1   2 198493. 7039.71   1
   6   1  -1 375923. 9011.68   3
   6   1   0 111125. 9036.28   5
   6   1   0 104663. 4049.93   3
  -6   1   0 88179.6 7628.45   6
   6   1   1 73684.4 7688.97   5
  -6   1  -1 52404.7 6016.61   6
   6   1   2 28611.2 5214.11   5
  -6   1  -2 24139.9 3970.42   6
   6   1   3 194183. 13284.2   5
  -6   1  -3 148274. 10567.5   6
   6   1   4 15896.4 3873.14   5
   6   1   4 23429.2 7231.50   2
  -6   1  -4 12647.4 3044.85   6
   6   1   5 21711.9 4094.54   5
   6   1   5 24237.6 6544.16   2
  -6   1  -5 20673.5 3712.48   6
   6   1   6 54894.3 8811.54   2
   6   1   7 22228.6 5783.19   2
  -6   2  11 75145.0 10405.7   1
  -6   2  10 16205.6 3495.98   3
  -6   2  10 31198.6 6756.15   1
  -6   2   9 33846.5 4946.67   3
  -6   2   9 33162.9 3544.42   2
  -6   2   8 7809.13 1602.19   2
  -6   2   8 7662.24 1820.78   3
  -6   2   7 57012.6 6497.29   1
  -6   2   6 135107. 9059.62   1
  -6   2   5 116861. 7635.32   1
  -6   2   5 131791. 3327.95   4
   6   2  -4 80814.9 2405.35   2
  -6   2   4 76595.7 5641.25   1
  -6   2   3 118970. 6148.12   1
   6   2   0 305056. 25875.1   2
   6   2   1 119534. 16595.9   2
   6   2   2 172208. 18471.8   2
   6   2   3 131860. 10782.6   5
   6   2   3 134228. 15367.7   2
   6   2   4 300078. 17080.6   5
   6   2   4 204946. 17783.2   2
   6   2   5 142957. 14996.0   2
   6   2   6 121296. 13163.6   2
  -6   3  11 58685.7 9551.03   1
  -6   3  10 16247.2 3504.55   3
  -6   3  10 37906.8 7310.72   1
  -6   3   9 8300.43 1984.93   2
  -6   3   9 11992.8 4236.21   1
  -6   3   8 10084.5 3026.93   1
  -6   3   8 11257.4 2131.73   2
  -6   3   7 7595.42 2357.64   1
  -6   3   6 33312.1 4613.12   1
  -6   3   5 101689. 7211.73   1
  -6   3   4 60007.9 5076.27   1
   6   3  -3 40003.0 3023.73   2
  -6   3   3 29651.3 3199.81   4
   6   3  -2 45196.1 5247.87   2
  -6   3   2 25687.2 3806.59   4
   6   3  -1 76899.4 8913.55   2
   6   3   0 135930. 13772.9   2
   6   3   1 216600. 18776.3   2
   6   3   2 180699. 17289.9   2
   6   3   3 207691. 18359.2   2
   6   3   4 54504.7 9876.75   2
   6   3   5 11093.6 5811.50   2
   6   3   6 84773.7 12228.6   2
  -6   4  11 5719.85 2643.50   1
  -6   4  10 21092.9 3475.57   2
  -6   4  10 24046.4 5600.28   1
  -6   4   9 15759.2 2902.08   2
  -6   4   9 14640.5 3998.09   1
  -6   4   8 16418.7 3698.88   1
  -6   4   8 16860.8 2850.53   2
  -6   4   7 10586.3 2640.33   1
  -6   4   6 7931.51 2063.72   1
   6   4  -3 173713. 4366.04   2
   6   4  -2 306476. 9286.63   2
   6   4  -1 213607. 10655.1   2
   6   4   0 145807. 10852.9   2
   6   4   1-1647.80 2342.11   2
   6   4   2 26220.7 5530.70   2
   6   4   3 86724.3 11395.2   2
   6   4   4 221983. 18821.4   2
   6   4   5 176761. 17225.0   2
   6   4   6 82991.8 11639.8   2
  -6   5  11 6191.43 3932.43   1
  -6   5  10 258.869 3658.68   1
  -6   5  10 10624.5 2714.02   2
  -6   5   9 45718.8 5277.20   2
  -6   5   9 25106.0 4568.50   1
  -6   5   8 26544.6 3731.96   2
  -6   5   8 16262.8 3628.24   1
   6   5  -2 152106. 5627.07   2
   6   5  -1 48250.6 4365.11   2
   6   5   0 137153. 9280.99   2
   6   5   1 119321. 10141.3   2
   6   5   2 113386. 11077.0   2
   6   5   3 20755.3 4780.26   2
   6   5   4 12760.3 3979.94   2
   6   5   5 3084.83 596.096   2
   6   5   6 56676.2 9429.12   2
  -6   6  10 15886.6 3570.17   2
  -6   6   9 1768.02 1495.70   2
   6   6  -1 48866.6 3943.13   2
   6   6   0 97896.8 6969.06   2
   6   6   1 23246.4 4271.69   2
   6   6   2 42193.8 6592.22   2
   6   6   3 27413.8 5971.05   2
   6   6   4 15911.2 4481.97   2
   6   6   5 24951.0 5547.89   2
   6   7   0 47004.6 4650.84   2
   6   7   1 80.3669 998.774   2
   6   7   2-2222.59 2460.29   2
   6   7   3-8286.81 4107.26   2
   6   7   4-7449.56 4581.80   2
   6   8   1 56227.0 5875.60   2
   6   8   2 9730.31 2721.46   2
   6   8   3 8984.08 3026.34   2
   6   8   4 4323.53 2009.13   2
   7  -9  -4 25085.0 4030.75   5
  -7  -9   4 19105.6 3185.44   6
   7  -9  -3 70307.5 6815.12   5
  -7  -9   3 60201.8 6077.15   6
   7  -9  -2 38274.1 4965.47   5
  -7  -9   2 39341.9 5288.38   6
   7  -8  -5 49481.6 5258.31   5
  -7  -8   5 44378.4 4873.93   6
   7  -8  -4 45078.3 5291.26   5
  -7  -8   4 35534.4 4383.86   6
   7  -8  -3 18124.8 3289.06   5
  -7  -8   3 18206.7 3127.12   6
   7  -8  -2 67423.0 6375.58   5
  -7  -8   2 63602.9 6237.86   6
   7  -8  -1 80682.9 7332.92   5
  -7  -8   1 77617.4 7176.49   6
   7  -8   0 51995.4 6024.46   5
  -7  -8   0 52621.6 6339.15   6
  -7  -7   7 5615.12 1522.81   4
   7  -7  -6 4211.89 1573.70   5
  -7  -7   6 3350.96 379.289   4
  -7  -7   6 4082.17 1492.65   6
   7  -7  -5 26530.4 3846.50   5
  -7  -7   5 25124.0 3785.48   6
   7  -7  -4 14216.3 2936.25   5
  -7  -7   4 11724.2 2474.71   6
   7  -7  -3 37602.2 4631.30   5
  -7  -7   3 31103.6 4108.61   6
   7  -7  -2 3759.38 1299.83   5
  -7  -7   2 2109.52 876.906   6
   7  -7  -1-580.003 589.832   5
  -7  -7   1 2188.24 1790.72   6
   7  -7   0 40150.5 5121.61   5
  -7  -7   0 37579.5 5048.53   6
   7  -7   1 106573. 8808.74   5
  -7  -7  -1 97147.8 8553.47   6
   7  -7   2 150113. 10986.4   5
  -7  -7  -2 136222. 10418.6   6
  -7  -6   9 7027.13 2092.82   4
  -7  -6   8 4784.44 1527.52   4
  -7  -6   7 7423.36 1806.44   4
  -7  -6   7 6801.96 1888.00   6
   7  -6  -6 65079.2 6051.90   5
  -7  -6   6 75028.0 6346.57   6
  -7  -6   6 55678.4 4927.44   4
   7  -6  -5 32258.4 4234.54   5
  -7  -6   5 34992.7 4309.09   6
   7  -6  -4 29633.0 3993.58   5
  -7  -6   4 27557.1 3897.06   6
   7  -6  -3 65835.2 6161.24   5
  -7  -6   3 58124.1 5511.98   6
   7  -6  -2 55002.7 5570.42   5
  -7  -6   2 48920.1 5354.56   6
   7  -6  -1 109895. 8157.51   5
  -7  -6   1 94059.1 7465.26   6
   7  -6   0 82742.5 7363.53   5
  -7  -6   0 80935.4 7063.07   6
   7  -6   1 11603.9 2757.99   5
  -7  -6  -1 15280.2 3309.51   6
   7  -6   2 6451.26 2084.96   5
  -7  -6  -2 7025.16 2697.40   6
   7  -6   3 82889.6 8172.65   5
  -7  -6  -3 71483.0 7368.66   6
   7  -6   4 120810. 10132.9   5
  -7  -6  -4 107817. 9133.88   6
  -7  -5  10 25175.8 3606.47   4
  -7  -5   9 54517.2 5177.86   4
  -7  -5   8 128774. 7572.30   4
  -7  -5   7 62836.6 5409.95   6
  -7  -5   7 58150.2 5107.94   4
   7  -5  -6 34587.8 4325.61   5
  -7  -5   6 34460.6 4223.64   6
   7  -5  -5 44490.1 5126.60   5
  -7  -5   5 35210.4 4131.29   6
   7  -5  -4 71377.5 6127.78   5
  -7  -5   4 70792.0 5906.91   6
   7  -5  -3 135169. 8804.79   5
  -7  -5   3 113988. 7644.05   6
   7  -5  -2 170813. 9991.79   5
  -7  -5   2 155743. 9269.66   6
   7  -5  -1 40780.4 4902.19   5
  -7  -5   1 36573.1 4460.78   6
   7  -5   0 95412.6 7665.78   5
  -7  -5   0 89591.7 7219.50   6
   7  -5   1 24896.0 4125.26   5
  -7  -5  -1 24419.5 4195.67   6
   7  -5   2 117861. 9230.93   5
  -7  -5  -2 101249. 7999.97   6
   7  -5   3 21969.1 4151.47   5
  -7  -5  -3 20441.5 3874.47   6
   7  -5   4 36700.7 5519.77   5
  -7  -5  -4 31247.6 4728.51   6
   7  -5   5 33629.1 5254.51   5
  -7  -5  -5 31138.6 4893.94   6
  -7  -4  11 39346.2 4724.17   4
  -7  -4  10 34182.0 4110.79   4
  -7  -4   9 4376.58 1507.03   4
  -7  -4   8-81.8320 403.676   4
  -7  -4   7 26992.1 3286.29   4
  -7  -4   7 34129.9 3985.68   3
  -7  -4   6 212090. 9894.00   6
  -7  -4   6 234023. 9314.03   3
   7  -4  -5 181132. 10116.6   5
  -7  -4   5 173442. 9417.63   6
  -7  -4   5 182186. 7145.83   3
  -7  -4   4 184884. 5746.81   3
   7  -4  -4 205415. 10971.0   5
  -7  -4   4 189784. 9556.91   6
   7  -4  -3 108019. 7617.32   5
  -7  -4   3 97020.2 6882.12   6
   7  -4  -2 31452.2 4242.81   5
  -7  -4   2 26145.4 2503.11   1
  -7  -4   2 29060.1 4013.10   6
   7  -4  -1 46605.2 5191.20   5
  -7  -4   1 33759.1 2408.98   1
  -7  -4   1 42402.8 4967.73   6
   7  -4   0 128561. 8942.04   5
  -7  -4   0 115818. 8386.67   6
   7  -4   1 23323.7 3802.77   5
  -7  -4  -1 20836.0 3557.84   6
   7  -4   2 32983.4 4747.61   5
  -7  -4  -2 32393.1 4425.77   6
   7  -4   3 15830.2 3304.98   5
  -7  -4  -3 15141.0 3334.84   6
   7  -4   4 29954.7 4997.99   5
  -7  -4  -4 25577.0 4192.61   6
   7  -4   5 20405.8 4149.73   5
  -7  -4  -5 20207.7 3866.47   6
   7  -4   6 9265.23 2236.09   5
  -7  -4  -6 9236.93 2732.46   6
  -7  -3  10 25523.7 3394.84   4
  -7  -3  10 32675.1 5219.70   3
  -7  -3   9 95326.2 6413.59   4
  -7  -3   9 109340. 8791.30   3
  -7  -3   8 161154. 7649.91   4
  -7  -3   8 202055. 10829.1   3
  -7  -3   7 146082. 7196.18   4
  -7  -3   7 161085. 8845.42   3
  -7  -3   6 62354.2 4791.35   3
  -7  -3   5 4262.00 1069.40   3
   7  -3  -5 2566.41 851.550   5
  -7  -3   5 3241.65 1175.87   6
  -7  -3   4 152115. 5316.37   3
  -7  -3   4 163027. 9181.53   6
  -7  -3   3 204299. 7825.18   1
  -7  -3   3 215906. 10561.5   6
   7  -3  -2 396883. 14899.8   5
  -7  -3   2 365894. 13922.8   6
  -7  -3   1 199599. 6025.35   1
  -7  -3   1 243795. 11589.4   6
   7  -3   0 53461.8 5841.52   5
  -7  -3   0 46986.4 5261.33   6
   7  -3   1 73084.8 6861.05   5
  -7  -3  -1 62778.5 6457.45   6
   7  -3   2 36867.4 4973.40   5
  -7  -3  -2 29935.7 4338.19   6
   7  -3   3 4937.73 2000.39   5
  -7  -3  -3 3874.91 1602.21   6
   7  -3   4 25016.8 4305.97   5
  -7  -3  -4 24618.6 3846.13   6
   7  -3   5 43500.4 5748.17   5
  -7  -3  -5 41696.5 5170.17   6
   7  -3   6 87804.5 8607.72   5
  -7  -3  -6 79651.2 7300.40   6
  -7  -2  11 34622.9 5822.04   3
  -7  -2  10 42498.2 5960.40   3
  -7  -2   9 1395.56 1325.53   3
  -7  -2   9 2214.73 1041.34   4
  -7  -2   8 6713.13 2038.53   3
  -7  -2   8 4902.58 1311.29   4
  -7  -2   7 32725.0 3926.04   3
  -7  -2   7 30544.5 3087.64   4
  -7  -2   6 295762. 10281.6   3
  -7  -2   5 188906. 7105.95   3
  -7  -2   5 189965. 10054.7   6
   7  -2  -4 220589. 11393.6   5
  -7  -2   4 203605. 8721.33   1
  -7  -2   4 214183. 10371.0   6
  -7  -2   3 208278. 8014.38   1
  -7  -2   3 237701. 11185.8   6
  -7  -2   2 64802.8 5806.78   6
  -7  -2   2 60400.6 3738.97   1
   7  -2  -1 186224. 10604.8   5
  -7  -2   1 175698. 10051.4   6
   7  -2   0 203984. 11516.6   5
  -7  -2   0 162629. 9495.22   6
   7  -2   1 56121.3 6165.64   5
  -7  -2  -1 47844.9 5410.02   6
   7  -2   2 50179.7 5868.31   5
  -7  -2  -2 45200.3 5320.56   6
   7  -2   3 86857.8 7959.13   5
  -7  -2  -3 71370.9 6705.01   6
   7  -2   4 217746. 13193.0   5
  -7  -2  -4 172396. 10625.3   6
   7  -2   5 85188.2 8303.31   5
  -7  -2  -5 75438.2 6980.81   6
   7  -2   6 109243. 9587.69   5
  -7  -2  -6 98382.1 7947.38   6
  -7  -1  11 12246.7 3467.51   3
  -7  -1  10 22667.7 4237.88   3
  -7  -1   9 48779.4 5709.32   3
  -7  -1   8 92770.7 7250.18   3
  -7  -1   8 80118.2 5081.21   4
  -7  -1   7 68500.7 5687.18   3
  -7  -1   7 64908.0 4193.31   4
  -7  -1   6 35518.3 3519.24   3
  -7  -1   5 20914.8 2287.90   3
  -7  -1   5 27138.8 3539.15   1
  -7  -1   4 169298. 7958.77   1
  -7  -1   4 180585. 9907.41   6
  -7  -1   3 82684.1 6736.60   6
  -7  -1   3 72746.0 4588.46   1
  -7  -1   2 122121. 5397.23   1
  -7  -1   2 143198. 9214.71   6
  -7  -1   1 72013.6 3752.24   1
  -7  -1   1 94990.4 7156.25   6
   7  -1   0 108436. 8500.21   5
  -7  -1   0 83115.0 7075.48   6
   7  -1   1 264326. 13643.8   5
  -7  -1  -1 232647. 12446.0   6
   7  -1   2 380330. 17197.6   5
  -7  -1  -2 304923. 14278.5   6
   7  -1   3 257125. 14435.4   5
  -7  -1  -3 186351. 11053.8   6
   7  -1   4 165075. 11761.5   5
  -7  -1  -4 120324. 8863.42   6
   7  -1   5 5521.90 2112.63   5
  -7  -1  -5 4397.32 2096.14   6
   7  -1   6 180968. 17065.6   2
  -7   0  11 1941.60 472.622   3
  -7   0  10 6061.85 2491.49   3
  -7   0  10 14129.7 4700.54   1
  -7   0   9 3286.14 1553.98   3
  -7   0   9 8784.63 3298.98   1
  -7   0   8 5270.72 1884.68   3
  -7   0   8 6526.84 2733.39   1
  -7   0   7 2222.69 960.154   3
  -7   0   7 3395.37 2038.34   1
  -7   0   7 930.430 474.846   4
  -7   0   6 19516.6 2634.78   3
  -7   0   6 27824.5 4085.07   1
  -7   0   6 24585.1 2274.98   4
  -7   0   5 15696.9 2657.80   1
  -7   0   4 1056.18 547.873   1
  -7   0   3 63392.1 4356.54   1
   7   0  -2 162750. 10457.0   5
  -7   0   2 138915. 9525.45   6
   7   0  -1 379710. 17132.9   5
  -7   0   1 295044. 13928.2   6
   7   0   0 273700. 15164.5   5
  -7   0   0 199411. 11809.3   6
   7   0   1 61391.9 7475.28   5
  -7   0  -1 38402.0 5135.74   6
   7   0   2 1084.67 721.595   5
  -7   0  -2 469.842 1110.02   6
   7   0   3 233974. 14024.4   5
  -7   0  -3 160018. 10340.1   6
   7   0   4 511691. 21165.1   5
  -7   0  -4 366020. 15593.6   6
   7   0   5 398928. 18791.8   5
   7   0   5 451498. 27714.4   2
   7   0   6 293342. 21524.7   2
  -7   1  10 21879.1 4354.32   3
  -7   1  10 37288.2 6854.27   1
  -7   1   9 42385.7 5432.86   3
  -7   1   9 64891.2 8390.80   1
  -7   1   8 78782.9 6638.21   3
  -7   1   8 114144. 10053.4   1
  -7   1   7 74062.5 7325.45   1
  -7   1   6 43904.1 2769.44   4
  -7   1   6 44077.0 4977.78   1
  -7   1   5 16467.9 2847.80   1
  -7   1   4 176952. 8301.75   1
   7   1  -4 194350. 5496.14   2
  -7   1   3 88930.5 5312.32   1
   7   1  -1 105699. 5247.15   3
   7   1   0 96768.6 9411.55   5
  -7   1   0 82411.6 8071.45   6
   7   1   1 333791. 17707.8   5
  -7   1  -1 231737. 13863.8   6
   7   1   2 452699. 21510.9   5
  -7   1  -2 329408. 16787.6   6
   7   1   3 319125. 18314.4   5
  -7   1  -3 236278. 14080.6   6
   7   1   4 225000. 15671.4   5
   7   1   4 256562. 21640.9   2
   7   1   5 12321.1 5657.16   2
   7   1   6 175585. 16919.8   2
  -7   2  10 26753.7 4617.12   3
  -7   2  10 45841.0 7447.46   1
  -7   2   9 4972.08 3120.20   1
  -7   2   8 9176.16 3118.27   1
  -7   2   7 32362.0 4960.86   1
  -7   2   6 290359. 13384.8   1
  -7   2   5 182510. 9698.41   1
  -7   2   4 173790. 8184.90   1
   7   2   0 683367. 41348.0   2
   7   2   1 242976. 25058.0   2
   7   2   2 120903. 17180.3   2
   7   2   3 157482. 17714.8   2
   7   2   4 304287. 22610.8   2
   7   2   5 137182. 15388.9   2
  -7   3  10 56820.1 8498.12   1
  -7   3   9 116486. 11552.1   1
  -7   3   8 186066. 13443.4   1
  -7   3   7 145946. 10832.7   1
  -7   3   6 54638.9 5802.53   1
  -7   3   5 1966.95 645.635   1
   7   3  -3 342053. 13733.1   2
   7   3  -2 337659. 19865.2   2
   7   3  -1 142303. 14938.1   2
   7   3   0 24324.2 6957.85   2
   7   3   1 79204.6 12610.1   2
   7   3   2 50561.6 9695.85   2
   7   3   3-2451.00 4686.29   2
   7   3   4 39342.2 8068.53   2
   7   3   5 77116.5 12868.8   2
  -7   4  10 39658.8 6986.80   1
  -7   4   9 6297.48 1471.90   1
  -7   4   8-1222.18 1571.31   1
  -7   4   7 21569.2 4087.28   1
  -7   4   6 176756. 11020.1   1
   7   4  -2 46807.4 4668.75   2
   7   4  -1 41574.1 5698.33   2
   7   4   0 73161.1 9296.70   2
   7   4   1 6876.46 814.345   2
   7   4   2 18782.9 5684.31   2
   7   4   3 14533.3 5698.90   2
   7   4   4 21167.7 7178.93   2
   7   4   5 23089.1 7144.02   2
  -7   5  10 12858.7 935.040   1
  -7   5   9 29953.7 5278.00   1
  -7   5   8 103954. 10612.7   1
   7   5  -1 63337.7 5935.36   2
   7   5   0 84572.3 8519.75   2
   7   5   1 22505.7 5074.46   2
   7   5   2 41704.1 7402.74   2
   7   5   3 14064.2 4550.39   2
   7   5   4 17223.5 5683.80   2
   7   5   5 25640.2 6437.02   2
   7   6   0 90741.7 7762.20   2
   7   6   1 14275.4 4312.45   2
   7   6   2 6817.27 3138.24   2
   7   6   3 36383.3 7280.64   2
   7   6   4 39048.1 7696.02   2
   7   7   2 110121. 10717.5   2
   7   7   3 47433.9 7183.39   2
   7   7   4 4435.71 3107.68   2
   8  -8  -5 61729.1 6495.80   5
  -8  -8   5 52780.6 5821.38   6
   8  -8  -4 67060.5 6832.35   5
  -8  -8   4 57647.0 5959.46   6
   8  -8  -3 33711.5 4979.67   5
  -8  -8   3 29953.3 4416.46   6
   8  -8  -2 24494.0 4212.43   5
  -8  -8   2 22541.0 3845.49   6
   8  -7  -6 35389.0 4967.34   5
  -8  -7   6 38759.8 4801.40   6
   8  -7  -5 3598.84 1608.77   5
  -8  -7   5 2843.09 1655.88   6
   8  -7  -4 46114.0 5553.90   5
  -8  -7   4 40849.1 4895.43   6
   8  -7  -3 81050.6 7550.47   5
  -8  -7   3 70508.4 6666.94   6
   8  -7  -2 86148.4 7906.23   5
  -8  -7   2 80070.2 7542.38   6
   8  -7  -1 19567.5 3901.37   5
  -8  -7   1 17402.1 3159.89   6
   8  -7   0-350.038 1785.32   5
  -8  -7   0-1863.23 1908.65   6
  -8  -6   8 1521.09 1049.69   4
  -8  -6   7 31802.6 4149.94   6
  -8  -6   7 30440.1 3935.48   4
   8  -6  -6 136369. 9453.81   5
  -8  -6   6 145492. 9494.89   6
   8  -6  -5 202202. 11916.2   5
  -8  -6   5 163052. 10241.6   6
   8  -6  -4 119730. 8717.01   5
  -8  -6   4 105517. 7976.11   6
   8  -6  -3 49477.8 5897.69   5
  -8  -6   3 41497.3 4981.61   6
   8  -6  -2 35634.3 5007.14   5
  -8  -6   2 26938.4 4169.66   6
   8  -6  -1 55514.7 6206.08   5
  -8  -6   1 46318.8 5719.62   6
   8  -6   0 41805.1 5630.61   5
  -8  -6   0 39268.9 5164.98   6
   8  -6   1 7884.92 2618.04   5
  -8  -6  -1 8201.77 1900.82   6
   8  -6   2 3840.82 1540.90   5
  -8  -6  -2 2348.49 1218.59   6
  -8  -5  10 16798.7 3040.10   4
  -8  -5   9 41517.5 4593.56   4
  -8  -5   8 61298.8 5418.70   4
  -8  -5   7 82488.7 6792.45   6
  -8  -5   7 73596.5 5830.25   4
   8  -5  -6 23823.9 4028.78   5
  -8  -5   6 24840.3 3647.93   6
   8  -5  -5 38082.3 5158.22   5
  -8  -5   5 31688.8 4253.15   6
   8  -5  -4 38746.1 5146.30   5
  -8  -5   4 37614.9 4765.66   6
   8  -5  -3 58000.4 6124.17   5
  -8  -5   3 47542.7 5241.44   6
   8  -5  -2 81887.8 7608.80   5
  -8  -5   2 64396.0 6311.66   6
   8  -5  -1 8750.43 2414.73   5
  -8  -5   1 7837.52 2256.39   6
   8  -5   0 55799.6 6528.59   5
  -8  -5   0 56407.7 6417.72   6
   8  -5   1 143297. 10704.8   5
  -8  -5  -1 128173. 9665.70   6
   8  -5   2 181818. 12193.8   5
  -8  -5  -2 142515. 10357.4   6
   8  -5   3 177298. 12370.4   5
  -8  -5  -3 149421. 10493.5   6
  -8  -4  10 6257.85 2091.61   3
  -8  -4  10 4363.67 1436.04   4
  -8  -4   9-313.329 725.484   3
  -8  -4   9 305.540 582.631   4
  -8  -4   8 348.805 735.599   3
  -8  -4   8 445.722 524.423   4
  -8  -4   7 4926.34 1265.24   4
  -8  -4   6 17975.5 3177.58   6
   8  -4  -5 19915.7 3580.36   5
  -8  -4   5 17428.2 3222.67   6
   8  -4  -4 39976.8 5379.36   5
  -8  -4   4 24009.4 3653.89   6
  -8  -4   3 119675. 6103.11   1
  -8  -4   3 129740. 8866.08   6
  -8  -4   2 126919. 8800.95   6
  -8  -4   2 111734. 5081.01   1
   8  -4  -1 306793. 14957.7   5
  -8  -4   1 251673. 12582.7   6
   8  -4   0 148981. 10648.6   5
  -8  -4   0 123138. 9239.70   6
   8  -4   1 5752.98 2006.14   5
  -8  -4  -1 4613.27 1848.25   6
   8  -4   2 25968.1 4756.03   5
  -8  -4  -2 24623.2 4428.14   6
   8  -4   3 103974. 9518.03   5
  -8  -4  -3 92261.7 8258.73   6
   8  -4   4 167691. 12431.6   5
  -8  -4  -4 139611. 10315.8   6
  -8  -3  10 10409.9 3118.55   3
  -8  -3   9 24244.4 4073.00   3
  -8  -3   9 20457.3 2958.71   4
  -8  -3   8 14586.7 2921.85   3
  -8  -3   8 12359.4 2184.02   4
  -8  -3   7 17680.9 2742.13   3
  -8  -3   7 16622.6 2508.81   4
  -8  -3   6 20158.8 2483.35   3
   8  -3  -5 97819.8 7955.03   5
  -8  -3   5 78141.4 6769.86   6
  -8  -3   4 82378.3 5675.79   1
  -8  -3   4 84217.7 7208.66   6
  -8  -3   3 72840.6 4614.61   1
  -8  -3   3 73662.5 6544.90   6
  -8  -3   2 12721.5 1714.85   1
   8  -3  -2 19114.7 3627.44   5
  -8  -3   2 15665.8 3278.81   6
   8  -3  -1 25163.9 4176.87   5
  -8  -3   1 19889.7 3687.58   6
  -8  -3   1 14176.3 1597.56   1
   8  -3   0 215297. 12827.0   5
  -8  -3   0 158183. 9974.19   6
   8  -3   1 350976. 16854.6   5
  -8  -3  -1 295588. 14261.9   6
   8  -3   2 350816. 17105.6   5
  -8  -3  -2 291367. 14288.0   6
   8  -3   3 227464. 14145.6   5
  -8  -3  -3 166292. 11179.4   6
   8  -3   4 103265. 9740.54   5
  -8  -3  -4 84366.1 7960.30   6
   8  -3   5 22239.0 4694.99   5
  -8  -3  -5 19360.2 3779.81   6
  -8  -2  10 19598.2 3826.64   3
  -8  -2   9 9140.38 2518.89   3
  -8  -2   8 42.9006 420.011   3
  -8  -2   8 547.275 387.590   4
  -8  -2   7 39204.1 4040.55   3
  -8  -2   7 41701.9 3815.05   4
  -8  -2   6 60065.1 4267.78   3
  -8  -2   6 73953.4 6338.87   1
  -8  -2   5 130507. 7763.52   1
  -8  -2   5 125029. 8872.20   6
  -8  -2   4 94403.4 5837.16   1
  -8  -2   4 101437. 7899.54   6
   8  -2  -3 90580.0 8240.53   5
  -8  -2   3 80248.1 7119.71   6
  -8  -2   2 206558. 7156.96   1
  -8  -2   2 247642. 12588.9   6
  -8  -2   1 137421. 5197.45   1
  -8  -2   1 190347. 11051.4   6
   8  -2   0 99489.1 8587.57   5
  -8  -2   0 83531.5 7592.22   6
   8  -2   1 48618.3 6026.31   5
  -8  -2  -1 36054.9 5260.80   6
   8  -2   2 9933.03 2775.52   5
  -8  -2  -2 6886.93 2356.05   6
   8  -2   3 95082.7 9387.27   5
  -8  -2  -3 68886.7 6956.40   6
   8  -2   4 194854. 13735.2   5
  -8  -2  -4 146898. 10102.7   6
   8  -2   5 202006. 14288.1   5
  -8  -2  -5 151146. 10361.6   6
  -8  -1  10 43316.0 5859.89   3
  -8  -1  10 67252.5 8496.74   1
  -8  -1   9 137803. 9647.35   3
  -8  -1   9 185195. 13049.1   1
  -8  -1   8 253379. 11656.3   3
  -8  -1   8 337059. 16305.5   1
  -8  -1   7 228899. 12478.8   1
  -8  -1   7 206647. 8035.11   4
  -8  -1   6 77335.7 6599.65   1
  -8  -1   5 24552.0 3301.47   1
  -8  -1   4 72044.8 5217.89   1
  -8  -1   3 160681. 6978.09   1
  -8  -1   3 184016. 11134.7   6
  -8  -1   2 118158. 8905.77   6
  -8  -1   2 82061.2 4428.61   1
   8  -1  -1 24465.5 4549.55   5
  -8  -1   1 16098.2 3082.14   6
   8  -1   0 93063.7 9242.63   5
  -8  -1   0 58874.4 6432.09   6
   8  -1   1 88889.9 8569.73   5
  -8  -1  -1 63844.0 6613.40   6
   8  -1   2 131602. 10738.9   5
  -8  -1  -2 93832.6 8237.78   6
   8  -1   3 137607. 11168.9   5
  -8  -1  -3 105794. 8914.13   6
   8  -1   4 118516. 10579.8   5
  -8  -1  -4 93586.8 8339.29   6
   8  -1   5 105956. 10183.1   5
  -8  -1  -5 89842.8 8066.70   6
  -8   0  10 60192.7 6909.54   3
  -8   0  10 92340.9 10035.3   1
  -8   0   9 8912.17 2398.79   3
  -8   0   9 13337.6 3881.75   1
  -8   0   8 955.680 636.936   3
  -8   0   8 2990.33 2430.06   1
  -8   0   7 92877.2 7955.41   1
  -8   0   6 351313. 13880.0   1
  -8   0   5 366832. 13057.4   1
  -8   0   4 200189. 8742.47   1
  -8   0   3 83040.2 5111.53   1
  -8   0   2 40832.8 5337.29   6
   8   0  -1 110974. 9945.58   5
  -8   0   1 71704.2 7302.68   6
   8   0   0 7374.39 2147.51   5
  -8   0   0 5937.30 1231.42   6
   8   0   1-291.503 321.470   5
  -8   0  -1-1262.82 1050.39   6
   8   0   2 18299.2 4745.29   5
  -8   0  -2 18497.9 3851.97   6
   8   0   3 6903.56 2978.27   5
  -8   0  -3 2425.31 677.240   6
   8   0   4 39228.5 6901.56   5
  -8   0  -4 24906.6 4435.56   6
  -8   1  10 42649.0 5674.00   3
  -8   1  10 69143.8 8916.73   1
  -8   1   9 163669. 12580.1   1
  -8   1   8 296865. 15606.8   1
  -8   1   7 193418. 11628.1   1
  -8   1   6 64032.6 6105.61   1
  -8   1   5 15747.0 2650.13   1
  -8   1   4 70763.4 5253.77   1
  -8   1   3 133794. 6552.19   1
  -8   1   0 55627.9 6864.43   6
   8   1   1 101007. 10254.8   5
  -8   1  -1 67093.0 7736.62   6
   8   1   2 168930. 13927.5   5
  -8   1  -2 120123. 10797.2   6
   8   1   3 222970. 16155.0   5
  -8   1  -3 140173. 11404.0   6
   8   1   4 157001. 13631.2   5
   8   1   4 181578. 18909.7   2
  -8   2  10 27062.9 5781.11   1
  -8   2   9 8357.31 3387.10   1
  -8   2   8 1419.11 1027.80   1
  -8   2   7 43073.3 5559.61   1
  -8   2   6 70399.0 6481.62   1
  -8   2   5 99187.9 6930.87   1
  -8   2   4 77776.0 5553.43   1
   8   2   0 432198. 34408.1   2
   8   2   1 206200. 24193.3   2
   8   2   2 47188.4 11307.9   2
   8   2   3 166758. 18087.9   2
   8   2   4 302070. 23978.0   2
  -8   3   9 21059.8 4467.35   1
  -8   3   8 11466.7 3102.14   1
  -8   3   7 14460.7 3117.34   1
  -8   3   6 19180.5 3363.32   1
  -8   3   5 60321.9 5520.21   1
   8   3  -2 29905.6 5870.05   2
   8   3  -1 25161.5 6516.60   2
   8   3   0 371950. 29796.1   2
   8   3   1 678911. 40009.1   2
   8   3   2 606297. 36501.3   2
   8   3   3 346613. 26891.7   2
   8   3   4 163825. 18755.9   2
  -8   4   9-4857.76 3378.72   1
  -8   4   8-1935.25 2641.62   1
  -8   4   7 1291.74 1419.41   1
   8   4  -1 172654. 14491.5   2
   8   4   0 58302.1 9480.64   2
   8   4   1 1068.65 1868.11   2
   8   4   2 49172.8 11082.2   2
   8   4   3 139253. 17736.7   2
   8   4   4 227975. 22367.8   2
   8   5   0 37898.4 6343.04   2
   8   5   1 68503.0 10372.8   2
   8   5   2 42088.5 7872.84   2
   8   5   3 82984.7 12652.3   2
   8   5   4 41710.9 8834.43   2
   8   6   2-855.343 2002.86   2
   8   6   3-3325.58 4772.03   2
   9  -7  -6 21386.8 4245.77   5
  -9  -7   6 20378.9 3877.07   6
   9  -7  -5 46161.0 6302.57   5
  -9  -7   5 34449.8 4691.92   6
   9  -7  -4 59070.0 6761.15   5
  -9  -7   4 45607.4 5821.65   6
  -9  -6   7 21712.1 3802.43   6
  -9  -6   7 16291.8 2908.43   4
   9  -6  -6 31979.5 4958.09   5
  -9  -6   6 22106.4 3786.67   6
   9  -6  -5 24991.2 4474.66   5
  -9  -6   5 17592.2 3459.68   6
   9  -6  -4 17748.4 3685.65   5
  -9  -6   4 17738.4 3692.69   6
   9  -6  -3 37924.5 5380.87   5
  -9  -6   3 32431.8 4752.90   6
   9  -6  -2 66876.1 7532.22   5
  -9  -6   2 52470.0 6071.38   6
   9  -6  -1 145525. 11248.0   5
  -9  -6   1 108823. 9124.03   6
  -9  -5   9 40914.0 4646.54   4
  -9  -5   8 97950.3 7290.35   4
  -9  -5   7 64262.3 6425.45   6
  -9  -5   7 63292.2 5509.46   4
   9  -5  -6 21852.5 4061.67   5
  -9  -5   6 20494.8 3478.86   6
   9  -5  -5 13043.6 3376.04   5
  -9  -5   5 12336.6 3020.51   6
   9  -5  -4 17842.0 4110.75   5
  -9  -5   4 11690.6 2788.18   6
   9  -5  -3 57433.2 6760.22   5
  -9  -5   3 45180.4 5720.74   6
   9  -5  -2 40854.7 5718.65   5
  -9  -5   2 32409.7 4811.44   6
   9  -5  -1 5909.11 2557.18   5
  -9  -5   1 4689.76 1959.72   6
   9  -5   0 14054.7 3379.64   5
  -9  -5   0 11235.4 2870.47   6
   9  -5   1 125096. 10771.0   5
  -9  -5  -1 97473.6 8890.47   6
  -9  -4   9 15856.3 2832.38   4
  -9  -4   8 2441.27 1228.42   4
  -9  -4   6 70492.5 6729.17   6
  -9  -4   5 133459. 8004.98   1
  -9  -4   5 128530. 9224.60   6
  -9  -4   4 75078.4 5453.78   1
  -9  -4   4 76875.5 7312.10   6
   9  -4  -3 60610.3 7305.36   5
  -9  -4   3 37458.4 4938.30   6
   9  -4  -2 58626.2 6775.75   5
  -9  -4   2 43232.2 5707.72   6
   9  -4  -1 4569.93 2453.36   5
  -9  -4   1 1424.02 1225.48   6
   9  -4   0 14019.8 3613.55   5
  -9  -4   0 11056.6 2922.23   6
   9  -4   1 452.980 850.578   5
  -9  -4  -1 391.252 548.382   6
   9  -4   2 21126.2 4818.77   5
  -9  -4  -2 17429.4 3821.87   6
  -9  -3   8 181444. 8962.99   4
  -9  -3   7 130780. 9311.01   1
  -9  -3   6 57803.5 5706.77   1
  -9  -3   5 6652.80 2077.38   6
  -9  -3   5 7192.19 1891.93   1
  -9  -3   4 2322.48 1056.81   1
   9  -3  -4 2110.53 587.704   5
  -9  -3   4 3766.64 1446.39   6
  -9  -3   3 29072.2 2979.61   1
  -9  -3   3 35870.9 4973.77   6
   9  -3  -2 38446.0 5992.40   5
  -9  -3   2 26359.1 4355.01   6
   9  -3  -1 8946.45 2777.29   5
  -9  -3   1 6389.88 2361.79   6
   9  -3   0 5627.02 2167.96   5
  -9  -3   0 5693.98 2246.28   6
   9  -3   1 18523.8 3953.09   5
  -9  -3  -1 9842.43 2729.79   6
   9  -3   2 42951.8 6486.94   5
  -9  -3  -2 29082.1 4881.33   6
   9  -3   3 10105.3 3278.20   5
  -9  -3  -3 8781.59 2942.91   6
  -9  -2  10 39974.5 5345.01   3
  -9  -2   9 7723.30 2135.91   3
  -9  -2   9 8693.57 3083.51   1
  -9  -2   8 3356.87 1212.71   3
  -9  -2   8 4806.59 2009.25   1
  -9  -2   7 7671.39 2540.36   1
  -9  -2   6 109564. 7914.32   1
  -9  -2   5 75500.9 5781.80   1
  -9  -2   4 67673.0 7137.27   6
  -9  -2   4 61986.0 4753.90   1
  -9  -2   3 58694.9 4245.17   1
  -9  -2   3 67774.0 7078.82   6
  -9  -2   2 32108.6 2771.10   1
  -9  -2   2 44031.2 5810.40   6
   9  -2  -1 184993. 13647.3   5
  -9  -2   1 126630. 9562.11   6
   9  -2   0 122689. 10738.5   5
  -9  -2   0 83267.4 7572.87   6
   9  -2   1 13373.9 3658.85   5
  -9  -2  -1 9828.68 2629.86   6
   9  -2   2 23322.8 4602.71   5
  -9  -2  -2 18856.0 3820.06   6
   9  -2   3 29431.4 5415.78   5
  -9  -2  -3 22656.4 4409.03   6
   9  -2   4 104975. 10546.8   5
  -9  -2  -4 83163.2 8308.22   6
  -9  -1  10 6971.07 2148.92   3
  -9  -1   9 18326.3 3224.65   3
  -9  -1   9 25317.6 4972.35   1
  -9  -1   8 66504.1 7369.35   1
  -9  -1   7 27128.9 4266.48   1
  -9  -1   6 26115.2 3804.62   1
  -9  -1   5 62781.0 5290.16   1
  -9  -1   4 46863.5 4190.31   1
  -9  -1   3 102164. 9093.30   6
  -9  -1   3 73669.2 4807.00   1
   9  -1  -2 71106.3 8140.43   5
  -9  -1   2 46844.3 6129.68   6
   9  -1  -1 246.240 1233.72   5
  -9  -1   1-619.889 1334.60   6
   9  -1   0 105261. 10513.6   5
  -9  -1   0 71571.3 7703.51   6
   9  -1   1 423233. 22023.9   5
  -9  -1  -1 269583. 15286.0   6
   9  -1   2 478664. 23800.2   5
  -9  -1  -2 318295. 16628.1   6
   9  -1   3 385348. 21207.2   5
  -9  -1  -3 248356. 14282.4   6
   9  -1   4 139482. 12816.0   5
  -9  -1  -4 86705.6 8326.87   6
  -9   0   9 17789.1 4384.87   1
  -9   0   8 12362.8 3218.48   1
  -9   0   7 29925.1 4426.28   1
  -9   0   6 36171.2 4469.55   1
  -9   0   5 730.368 782.165   1
  -9   0   4 26378.2 3183.08   1
  -9   0   3 31035.5 3144.56   1
  -9   0   1 248110. 15204.6   6
   9   0   0 418852. 21717.8   5
  -9   0   0 268870. 15828.3   6
   9   0   1 78318.5 9182.52   5
  -9   0  -1 48168.4 6472.15   6
   9   0   2 34720.8 6326.54   5
  -9   0  -2 21315.6 4192.72   6
   9   0   3 69262.2 9217.46   5
  -9   0  -3 41128.1 6168.87   6
   9   0   4 364313. 21287.4   5
  -9   0  -4 220937. 14050.9   6
  -9   1   9 35187.1 5789.43   1
  -9   1   8 57380.6 6806.91   1
  -9   1   7 28088.8 4302.67   1
  -9   1   6 18955.5 3330.27   1
  -9   1   5 55363.2 5089.10   1
  -9   1   4 46643.4 4190.49   1
   9   1   2 842554. 42468.8   2
  -9   1  -2 358739. 19897.5   6
   9   1   3 626859. 35718.9   2
  -9   1  -3 323118. 18832.3   6
  -9   2   8 2299.56 1280.93   1
  -9   2   7 5408.27 1825.29   1
  -9   2   6 85403.1 7060.00   1
  -9   2   5 56815.3 5137.98   1
   9   2  -1 749749. 47285.7   2
   9   2   0 454297. 35109.9   2
   9   2   1 52955.5 12771.1   2
   9   2   2 71621.2 13032.5   2
   9   2   3 49790.5 9899.55   2
  -9   3   8 163785. 11949.3   1
  -9   3   7 93108.2 8194.14   1
  -9   3   6 43800.2 5141.08   1
   9   3  -1 46562.5 11325.0   2
   9   3   0 21547.8 6581.71   2
   9   3   1 16451.7 5683.63   2
   9   3   2 54488.0 9964.14   2
   9   3   3 21052.0 5163.60   2
   9   4   1 21160.8 8782.58   2
   9   4   2 54969.5 13907.7   2
   9   4   3 66407.7 14638.0   2
   9   5   2 49721.5 10674.6   2
   9   5   3 84843.8 13848.8   2
 -10  -5   6 36473.0 4620.42   1
 -10  -5   6 30505.0 4818.15   6
  10  -5  -5 69509.1 7907.60   5
 -10  -5   5 49914.7 6175.59   6
  10  -5  -4 49088.7 6794.81   5
 -10  -5   4 41367.1 5633.75   6
 -10  -4   8 4573.85 1413.79   4
 -10  -4   7 31893.5 4594.60   1
 -10  -4   6 32647.2 4361.14   1
 -10  -4   6 25760.4 4434.84   6
  10  -4  -5 18365.4 4050.79   5
 -10  -4   5 15762.2 2656.19   1
 -10  -4   5 15933.6 3505.74   6
  10  -4  -4 21193.1 4607.64   5
 -10  -4   4 16827.2 3718.94   6
  10  -4  -3 77829.8 8818.77   5
 -10  -4   3 56569.0 6846.30   6
  10  -4  -2 198483. 14370.0   5
 -10  -4   2 113477. 9048.18   6
  10  -4  -1 332735. 17841.2   5
 -10  -4   1 238170. 13818.8   6
 -10  -3   7 23998.7 4095.23   1
 -10  -3   6 15272.6 2943.67   1
 -10  -3   5 56948.6 6598.02   6
 -10  -3   5 46523.8 4540.22   1
 -10  -3   4 100730. 6186.08   1
 -10  -3   4 122094. 9820.05   6
  10  -3  -3 196455. 14019.9   5
 -10  -3   3 134490. 10606.8   6
  10  -3  -2 97208.8 10295.7   5
 -10  -3   2 57885.4 7072.84   6
  10  -3  -1 7352.99 2906.22   5
 -10  -3   1 3598.87 1412.42   6
  10  -3   0 169377. 13203.3   5
 -10  -3   0 100408. 8864.13   6
 -10  -2   8 6236.32 2576.65   1
 -10  -2   7 39584.3 5057.51   1
 -10  -2   6 30115.8 3996.81   1
 -10  -2   5 81499.6 6103.22   1
 -10  -2   4 22233.9 2917.86   1
 -10  -2   4 24704.0 4425.03   6
 -10  -2   3 63122.7 7235.19   6
 -10  -2   3 46464.3 3688.36   1
  10  -2  -2 251808. 16268.2   5
 -10  -2   2 152852. 11503.0   6
  10  -2  -1 341391. 19530.7   5
 -10  -2   1 223059. 14192.8   6
  10  -2   0 227655. 16892.9   5
 -10  -2   0 134966. 11111.4   6
  10  -2   1 52091.3 7946.43   5
 -10  -2  -1 27781.5 4993.88   6
 -10  -2  -2 3215.23 445.065   6
 -10  -1   8 73443.7 7545.15   1
 -10  -1   7 148946. 9896.67   1
 -10  -1   6 27309.9 3841.22   1
 -10  -1   5 17174.6 2869.19   1
 -10  -1   4 39515.6 3850.35   1
 -10  -1   3 22971.3 2661.25   1
 -10  -1   2 23004.8 4234.11   6
  10  -1  -1 3986.83 1995.59   5
 -10  -1   1 1258.89 1544.91   6
  10  -1   0 63005.9 8449.41   5
 -10  -1   0 32932.6 5579.87   6
  10  -1   1 108727. 11828.3   5
 -10  -1  -1 69893.2 8111.89   6
  10  -1   2 119729. 12538.4   5
 -10  -1  -2 76200.4 8548.76   6
  10  -1   3 58471.2 8668.63   5
 -10  -1  -3 37038.1 6014.34   6
 -10   0   8 18090.2 3806.77   1
 -10   0   7 13498.2 3089.34   1
 -10   0   6 33145.2 4258.82   1
 -10   0   5 102680. 6905.98   1
 -10   0   4 56464.7 4600.47   1
 -10   0   0 9000.04 2232.38   6
  10   0   1 5383.33 994.687   5
 -10   0  -1 852.727 2069.88   6
  10   0   2 21800.0 5181.95   5
 -10   0  -2 16696.5 3978.54   6
  10   0   3 106843. 11984.6   5
 -10   0  -3 68061.3 8203.24   6
 -10   1   7 140880. 9828.55   1
 -10   1   6 21734.2 3465.68   1
 -10   1   5 14108.9 2519.32   1
  10   1   1 230424. 23853.6   2
  10   1   2 227920. 22164.2   2
 -10   2   7 24165.4 3982.38   1
 -10   2   6 29454.9 4011.05   1
  10   2   0 576996. 39941.1   2
  10   2   1 106611. 16769.9   2
  10   2   2 13017.7 5985.87   2
  10   3   1 661843. 40288.0   2
  10   3   2 635487. 38085.6   2
 -11  -3   6 21614.1 3355.92   1
 -11  -2   6 18401.3 3112.06   1
 -11  -2   5 21416.5 3089.33   1
 -11  -1   6 47598.9 5098.50   1
 -11  -1   5 72246.9 5675.08   1
 -11  -1   4 94923.7 5994.83   1
 -11   0   6 39687.9 4616.87   1
 -11   0   5 2782.94 935.377   1
 -11   1   6 44729.1 4901.78   1
  11   1   1 205098. 21902.1   2
   0   0   0    0.00    0.00   0
TITL LHAS- in P2(1)
REM P2(1) (#4 in standard setting)
CELL 0.71073   8.829982   8.907683   9.219586  90.0000 108.6904  90.0000
ZERR   13.00   0.000631   0.000572   0.000629   0.0000   0.0075   0.0000
LATT -1
SYMM -x, y+1/2,-z
SFAC C H N O
UNIT 13.00 13.00 13.00 13.00
TREF
HKLF 4
END
;
_shelx_hkl_checksum              58917
_shelx_res_file
;
TITL LHAS- in P2(1)
CELL  0.71073   9.2196   8.9077   8.8300   90.000  108.690   90.000
ZERR    2.00   0.0006   0.0006   0.0006    0.000    0.007    0.000
LATT  -1
SYMM  - X, 1/2 + Y, - Z
SFAC  C    H    N    O    AS
UNIT  6    15   3    10   2
MERG   2
FMAP   2
PLAN   20
ACTA
BOND
L.S.   4
WGHT    0.144000
EXTI    0.324358
FVAR      11.20589
O8    4    0.658323    0.158053    0.629318    11.00000   -0.00078    0.04549 =
         0.02995    0.01367   -0.00028    0.00299
AFIX  83
H8    2    0.696807    0.228708    0.596425    11.00000   -1.50000
AFIX   0
O7    4    0.416303    0.332765    0.625547    11.00000    0.02268    0.05029 =
         0.03215   -0.01603    0.00541   -0.00614
AFIX  83
H7    2    0.323085    0.342369    0.599788    11.00000   -1.50000
AFIX   0
O4    4    0.815602    0.325127    0.505000    11.00000    0.00179    0.04510 =
         0.02658    0.01145   -0.00614    0.00561
O5    4    0.393145    0.164395    0.365344    11.00000    0.01240    0.05391 =
         0.00699    0.00033   -0.00100    0.00392
O6    4    0.404825    0.021803    0.639712    11.00000    0.01713    0.05772 =
         0.02192    0.01463   -0.00247   -0.00395
AFIX  83
H6    2    0.311181    0.019548    0.614741    11.00000   -1.50000
AFIX   0
O2    4    1.079991    0.146712    0.554946    11.00000    0.00860    0.04651 =
         0.09693   -0.03210   -0.00063    0.00317
AFIX  83
H11   2    1.172422    0.142987    0.601754    11.00000   -1.50000
AFIX   0
O3    4    1.029167    0.304850    0.788194    11.00000    0.01796    0.08501 =
         0.01893    0.01900   -0.00158   -0.01557
AFIX  83
H10   2    1.120508    0.298446    0.839266    11.00000   -1.50000
AFIX   0
O1    4    1.123350    0.447691    0.565489    11.00000    0.00844    0.03852 =
         0.02919    0.00890   -0.00108   -0.00837
C2    1    0.972491    0.186836    1.133089    11.00000    0.01044    0.04049 =
         0.01564   -0.00123   -0.00103   -0.00182
AFIX  43
H2    2    0.970388    0.082574    1.127293    11.00000   -1.20000
AFIX   0
C1    1    0.846401    0.279788    1.077548    11.00000    0.00964    0.02493 =
         0.00949    0.00288   -0.00205   -0.00324
N2    3    0.907053    0.424649    1.118312    11.00000    0.00583    0.02980 =
         0.01954   -0.00004   -0.00088    0.00289
AFIX  43
H2A   2    0.854250    0.506137    1.099877    11.00000   -1.20000
AFIX   0
N1    3    1.104168    0.274437    1.199591    11.00000    0.01459    0.04546 =
         0.01971    0.00015    0.00135    0.01258
AFIX  43
H1    2    1.196434    0.241775    1.238976    11.00000   -1.20000
AFIX   0
C5    1    0.675672    0.251952    0.995097    11.00000    0.01184    0.02847 =
         0.00899   -0.00173    0.00011    0.00048
AFIX  23
H5A   2    0.664470    0.154280    0.944059    11.00000   -1.20000
H5B   2    0.639065    0.326055    0.910958    11.00000   -1.20000
AFIX   0
C4    1    0.569136    0.256529    1.099599    11.00000    0.01629    0.02235 =
         0.00451   -0.00029   -0.00251    0.00265
AFIX  13
H4    2    0.586808    0.350517    1.160487    11.00000   -1.20000
AFIX   0
C3    1    1.059933    0.417511    1.190480    11.00000    0.01166    0.04182 =
         0.01884   -0.00183   -0.00405   -0.00419
AFIX  43
H3    2    1.124121    0.499310    1.227859    11.00000   -1.20000
AFIX   0
O9    4    0.325953    0.358162    0.940120    11.00000    0.01327    0.03299 =
         0.02665    0.00857   -0.00820    0.00224
AFIX  83
H9    2    0.235534    0.338903    0.894095    11.00000   -1.50000
AFIX   0
O10   4    0.332596    0.115754    1.002528    11.00000    0.02097    0.03176 =
         0.03481    0.00774   -0.00784   -0.00666
N3    3    0.613989    0.130868    1.211085    11.00000    0.00208    0.03611 =
         0.01408    0.00390   -0.00381   -0.00030
AFIX  93
H3A   2    0.687440    0.072522    1.208388    11.00000   -1.20000
H3B   2    0.566956    0.115203    1.279444    11.00000   -1.20000
AFIX   0
C6    1    0.393817    0.241593    1.006069    11.00000    0.00936    0.03540 =
         0.01422   -0.00211    0.00469    0.00347
MOLE    1
AS1   5    0.458317    0.170465    0.551640    11.00000    0.00794    0.03162 =
         0.00965    0.00180   -0.00046    0.00028
AS2   5    1.008112    0.312942    0.600058    11.00000    0.00691    0.02513 =
         0.02027    0.00257   -0.00183   -0.00083
HKLF 4
REM  LHAS- in P2(1)
REM R1 =  0.0689 for    2706 Fo > 4sig(Fo)  and  0.0614 for all    2819 data
REM    191 parameters refined using      1 restraints
END
WGHT      0.1440      0.0000
REM Highest difference peak  2.040,  deepest hole -2.501,  1-sigma level  0.327
Q1    1   1.0008  0.3950  0.6014  11.00000  0.05    1.91
Q2    1   0.4464  0.2584  0.5544  11.00000  0.05    1.80
Q3    1   1.0014  0.2278  0.6033  11.00000  0.05    1.70
Q4    1   0.5582  0.1956  0.6297  11.00000  0.05    1.67
Q5    1   0.4612  0.0897  0.5502  11.00000  0.05    1.61
Q6    1   1.1050  0.3614  0.6807  11.00000  0.05    1.48
Q7    1   0.9061  0.3540  0.5246  11.00000  0.05    1.44
Q8    1   0.3615  0.1131  0.4656  11.00000  0.05    1.37
Q9    1   1.0568  0.6301  1.3271  11.00000  0.05    1.24
Q10   1   0.3582  0.2191  0.4546  11.00000  0.05    1.13
Q11   1   0.9530  0.5168  0.6325  11.00000  0.05    1.06
Q12   1   1.1073  0.2852  0.6955  11.00000  0.05    1.05
Q13   1   0.4996 -0.0416  0.7043  11.00000  0.05    1.05
Q14   1   0.4926  0.3826  0.7024  11.00000  0.05    1.03
Q15   1   1.0565  0.1189  0.6424  11.00000  0.05    1.02
Q16   1   0.4048 -0.0354  0.5877  11.00000  0.05    1.02
Q17   1   0.9853  0.1816  0.4315  11.00000  0.05    1.00
Q18   1   0.8780  0.1627  0.3971  11.00000  0.05    0.98
Q19   1   0.5920  0.3458  0.7471  11.00000  0.05    0.98
Q20   1   1.0454  0.5263  1.1815  11.00000  0.05    0.93
;
_shelx_res_checksum              48600
_shelxl_version_number           .2013
loop_
_space_group_symop_operation_xyz
'x, y, z'
'-x, y+1/2, -z'
loop_
_atom_site_type_symbol
_atom_site_label
_atom_site_fract_x
_atom_site_fract_y
_atom_site_fract_z
_atom_site_U_iso_or_equiv
_atom_site_adp_type
_atom_site_calc_flag
_atom_site_occupancy
O O8 0.6583(10) 0.1581(13) 0.6293(11) 0.030(2) Uani d 1
H H8 0.6968 0.2287 0.5964 0.039 Uiso calc 1
O O7 0.4163(13) 0.3328(13) 0.6255(12) 0.036(3) Uani d 1
H H7 0.3231 0.3424 0.5998 0.054 Uiso calc 1
O O4 0.8156(10) 0.3251(13) 0.5050(11) 0.0281(19) Uani d 1
O O5 0.3931(10) 0.1644(14) 0.3653(9) 0.0254(19) Uani d 1
O O6 0.4048(12) 0.0218(14) 0.6397(11) 0.034(3) Uani d 1
H H6 0.3112 0.0195 0.6147 0.051 Uiso calc 1
O O2 1.0800(13) 0.1467(15) 0.5549(18) 0.055(4) Uani d 1
H H11 1.1124 0.1430 0.6018 0.082 Uiso calc 1
O O3 1.0292(13) 0.3048(17) 0.7882(12) 0.042(3) Uani d 1
H H10 0.9905 0.2984 0.8393 0.064 Uiso calc 1
O O1 1.1233(11) 0.4477(12) 0.5655(11) 0.027(2) Uani d 1
C C2 0.9725(15) 0.1868(16) 1.1331(13) 0.023(3) Uani d 1
H H2 0.9704 0.0826 1.1273 0.028 Uiso calc 1
C C1 0.8464(14) 0.2798(12) 1.0775(12) 0.016(2) Uani d 1
N N2 0.9071(12) 0.4246(12) 1.1183(11) 0.020(2) Uani d 1
H H2A 0.8542 0.5061 1.0999 0.023 Uiso calc 1
N N1 1.1042(15) 0.2744(14) 1.1996(13) 0.028(3) Uani d 1
H H1 1.1964 0.2418 1.2390 0.033 Uiso calc 1
C C5 0.6757(14) 0.2520(13) 0.9951(12) 0.017(2) Uani d 1
H H5A 0.6645 0.1543 0.9441 0.021 Uiso calc 1
H H5B 0.6391 0.3261 0.9110 0.021 Uiso calc 1
C C4 0.5691(14) 0.2565(12) 1.0996(11) 0.016(2) Uani d 1
H H4 0.5868 0.3505 1.1605 0.019 Uiso calc 1
C C3 1.0599(16) 0.4175(17) 1.1905(14) 0.026(3) Uani d 1
H H3 1.1241 0.4993 1.2279 0.031 Uiso calc 1
O O9 0.3260(12) 0.3582(10) 0.9401(11) 0.028(2) Uani d 1
H H9 0.2355 0.3389 0.8941 0.042 Uiso calc 1
O O10 0.3326(13) 0.1158(11) 1.0025(13) 0.033(2) Uani d 1
N N3 0.6140(12) 0.1309(12) 1.2111(11) 0.024(2) Uani d 1
H H3A 0.6874 0.0725 1.2084 0.023 Uiso calc 1
H H3B 0.5670 0.1152 1.2794 0.023 Uiso calc 1
C C6 0.3938(15) 0.2416(15) 1.0061(14) 0.019(2) Uani d 1
As As1 0.45832(13) 0.17047(11) 0.55164(11) 0.0172(4) Uani d 1
As As2 1.00811(13) 0.31294(13) 0.60006(13) 0.0189(5) Uani d 1
loop_
_atom_site_aniso_label
_atom_site_aniso_U_11
_atom_site_aniso_U_22
_atom_site_aniso_U_33
_atom_site_aniso_U_12
_atom_site_aniso_U_13
_atom_site_aniso_U_23
O8 0.011(4) 0.045(5) 0.030(4) -0.003(4) 0.002(3) -0.014(4)
O7 0.023(6) 0.050(7) 0.032(5) -0.006(5) 0.005(4) -0.016(5)
O4 0.012(4) 0.045(5) 0.027(4) -0.006(4) -0.006(3) 0.011(4)
O5 0.012(4) 0.054(5) 0.007(3) 0.004(5) 0.000(3) 0.000(4)
O6 0.017(6) 0.058(6) 0.022(4) -0.004(5) -0.002(4) 0.015(4)
O2 0.015(6) 0.047(7) 0.097(11) 0.003(5) -0.001(6) -0.032(7)
O3 0.018(5) 0.085(8) 0.019(4) -0.016(6) -0.002(4) 0.019(5)
O1 0.008(5) 0.039(5) 0.029(5) -0.008(4) -0.001(4) 0.009(4)
C2 0.010(6) 0.040(7) 0.016(4) -0.002(6) -0.001(4) -0.001(5)
C1 0.010(6) 0.025(5) 0.009(4) -0.003(4) -0.002(4) 0.003(3)
N2 0.006(5) 0.030(5) 0.020(4) 0.003(4) -0.001(4) 0.000(4)
N1 0.015(6) 0.045(7) 0.020(5) 0.013(5) 0.001(4) 0.000(4)
C5 0.012(6) 0.028(5) 0.009(4) 0.000(5) 0.000(4) -0.002(4)
C4 0.016(7) 0.022(5) 0.005(4) 0.003(5) -0.003(4) 0.000(3)
C3 0.012(7) 0.042(7) 0.019(5) -0.004(6) -0.004(4) -0.002(5)
O9 0.013(5) 0.033(4) 0.027(5) 0.002(4) -0.008(4) 0.009(3)
O10 0.021(6) 0.032(5) 0.035(5) -0.007(4) -0.008(4) 0.008(4)
N3 0.012(5) 0.036(6) 0.019(4) 0.011(4) -0.001(3) 0.000(3)
C6 0.009(6) 0.035(6) 0.014(5) 0.003(5) 0.005(4) -0.002(4)
As1 0.0079(7) 0.0316(7) 0.0097(5) 0.0003(5) -0.0005(4) 0.0018(4)
As2 0.0069(7) 0.0251(6) 0.0203(6) -0.0008(5) -0.0018(5) 0.0026(4)
loop_
_atom_type_symbol
_atom_type_description
_atom_type_scat_dispersion_real
_atom_type_scat_dispersion_imag
_atom_type_scat_source
C C 0.0033 0.0016 'International Tables Vol C Tables 4.2.6.8 and 6.1.1.4'
H H 0.0000 0.0000 'International Tables Vol C Tables 4.2.6.8 and 6.1.1.4'
N N 0.0061 0.0033 'International Tables Vol C Tables 4.2.6.8 and 6.1.1.4'
O O 0.0106 0.0060 'International Tables Vol C Tables 4.2.6.8 and 6.1.1.4'
As As 0.0499 2.0058 'International Tables Vol C Tables 4.2.6.8 and 6.1.1.4'
loop_
_geom_angle_atom_site_label_1
_geom_angle_atom_site_label_2
_geom_angle_atom_site_label_3
_geom_angle
C1 C2 N1 109.4(12)
C2 C1 N2 103.8(10)
C2 C1 C5 133.8(10)
N2 C1 C5 122.4(10)
C3 N2 C1 110.3(11)
C3 N1 C2 107.4(12)
C1 C5 C4 117.7(8)
N3 C4 C5 106.5(10)
N3 C4 C6 108.2(10)
C5 C4 C6 115.3(9)
N1 C3 N2 109.1(12)
O10 C6 O9 125.2(13)
O10 C6 C4 118.0(11)
O9 C6 C4 116.8(11)
O5 As1 O7 112.3(6)
O5 As1 O6 112.8(6)
O7 As1 O6 111.0(5)
O5 As1 O8 114.3(4)
O7 As1 O8 104.3(6)
O6 As1 O8 101.3(5)
O3 As2 O1 110.0(6)
O3 As2 O4 105.8(5)
O1 As2 O4 118.7(5)
O3 As2 O2 105.8(8)
O1 As2 O2 104.9(6)
O4 As2 O2 111.0(6)
loop_
_geom_bond_atom_site_label_1
_geom_bond_atom_site_label_2
_geom_bond_distance
O8 As1 1.753(8)
O7 As1 1.682(11)
O4 As2 1.706(9)
O5 As1 1.561(7)
O6 As1 1.687(11)
O2 As2 1.720(12)
O3 As2 1.611(9)
O1 As2 1.694(9)
C2 C1 1.383(17)
C2 N1 1.404(17)
C1 N2 1.407(15)
C1 C5 1.528(16)
N2 C3 1.349(17)
N1 C3 1.33(2)
C5 C4 1.549(16)
C4 N3 1.460(14)
C4 C6 1.567(17)
O9 C6 1.255(16)
O10 C6 1.251(17)

_cod_database_fobs_code 2107636
